AV-unprocessed.smi:788|AV-procd|sdf|3734|dock3
  -GOLD-   22720 1173D 1   1.00000     0.00000
 Structure written by MMmdl.
 35 36  0  0  0  0  0  0  0  0  1 V2000
  152.5426  144.3261  157.6544 C   0  0  0  0  0  0  0  0  0  0  0  0
  152.0307  143.3072  158.6945 C   0  0  1  0  0  0  0  0  0  0  0  0
  152.7227  143.4847  160.0605 C   0  0  0  0  0  0  0  0  0  0  0  0
  152.2214  144.7293  160.8090 C   0  0  0  0  0  0  0  0  0  0  0  0
  150.6954  144.6997  160.9742 C   0  0  0  0  0  0  0  0  0  0  0  0
  149.9711  144.5503  159.6217 C   0  0  2  0  0  0  0  0  0  0  0  0
  148.4457  144.5294  159.8303 C   0  0  0  0  0  0  0  0  0  0  0  0
  150.4868  143.2980  158.8662 C   0  0  1  0  0  0  0  0  0  0  0  0
  149.8142  143.1681  157.5748 N   0  0  0  0  0  0  0  0  0  0  0  0
  149.2315  142.0568  157.0962 C   0  0  0  0  0  0  0  0  0  0  0  0
  149.2015  140.9994  157.7231 O   0  0  0  0  0  0  0  0  0  0  0  0
  148.6691  142.1548  155.8725 N   0  0  0  0  0  0  0  0  0  0  0  0
  147.9777  141.2044  155.0647 C   0  0  0  0  0  0  0  0  0  0  0  0
  148.0961  139.8714  155.1812 N   0  0  0  0  0  0  0  0  0  0  0  0
  147.3021  139.1929  154.2665 N   0  0  0  0  0  0  0  0  0  0  0  0
  146.6116  140.0383  153.4965 C   0  0  0  0  0  0  0  0  0  0  0  0
  146.8663  141.7451  153.8139 S   0  0  0  0  0  0  0  0  0  0  0  0
  152.2681  145.3483  157.9122 H   0  0  0  0  0  0  0  0  0  0  0  0
  152.1454  144.1194  156.6604 H   0  0  0  0  0  0  0  0  0  0  0  0
  153.6293  144.2882  157.5764 H   0  0  0  0  0  0  0  0  0  0  0  0
  152.3234  142.3242  158.3224 H   0  0  0  0  0  0  0  0  0  0  0  0
  152.5326  142.6030  160.6738 H   0  0  0  0  0  0  0  0  0  0  0  0
  153.8047  143.5354  159.9335 H   0  0  0  0  0  0  0  0  0  0  0  0
  152.6964  144.7861  161.7887 H   0  0  0  0  0  0  0  0  0  0  0  0
  152.5170  145.6322  160.2742 H   0  0  0  0  0  0  0  0  0  0  0  0
  150.4195  143.8736  161.6311 H   0  0  0  0  0  0  0  0  0  0  0  0
  150.3678  145.6117  161.4740 H   0  0  0  0  0  0  0  0  0  0  0  0
  150.1991  145.4331  159.0230 H   0  0  0  0  0  0  0  0  0  0  0  0
  148.1352  143.6467  160.3901 H   0  0  0  0  0  0  0  0  0  0  0  0
  147.9077  144.5293  158.8820 H   0  0  0  0  0  0  0  0  0  0  0  0
  148.1153  145.4073  160.3861 H   0  0  0  0  0  0  0  0  0  0  0  0
  150.2237  142.4288  159.4727 H   0  0  0  0  0  0  0  0  0  0  0  0
  149.7934  143.9938  156.9932 H   0  0  0  0  0  0  0  0  0  0  0  0
  148.7410  143.0727  155.4584 H   0  0  0  0  0  0  0  0  0  0  0  0
  145.9478  139.6547  152.7360 H   0  0  0  0  0  0  0  0  0  0  0  0
  1  2  1  0  0  0  0
  1 18  1  0  0  0  0
  1 19  1  0  0  0  0
  1 20  1  0  0  0  0
  2  8  1  0  0  0  0
  2  3  1  0  0  0  0
  2 21  1  0  0  0  0
  3  4  1  0  0  0  0
  3 22  1  0  0  0  0
  3 23  1  0  0  0  0
  4  5  1  0  0  0  0
  4 24  1  0  0  0  0
  4 25  1  0  0  0  0
  5  6  1  0  0  0  0
  5 26  1  0  0  0  0
  5 27  1  0  0  0  0
  6  7  1  0  0  0  0
  6  8  1  0  0  0  0
  6 28  1  0  0  0  0
  7 29  1  0  0  0  0
  7 30  1  0  0  0  0
  7 31  1  0  0  0  0
  8  9  1  0  0  0  0
  8 32  1  0  0  0  0
  9 10  1  0  0  0  0
  9 33  1  0  0  0  0
 10 11  2  0  0  0  0
 10 12  1  0  0  0  0
 12 13  1  0  0  0  0
 12 34  1  0  0  0  0
 13 17  1  0  0  0  0
 13 14  2  0  0  0  0
 14 15  1  0  0  0  0
 15 16  2  0  0  0  0
 16 17  1  0  0  0  0
 16 35  1  0  0  0  0
M  END
> <s_m_source_file>
AV-unprocessed.smi

> <i_m_source_file_index>
788

> <i_lp_mmshare_version>
43012

> <i_f3d_flags>
0

> <s_epik_input>
W0NIM11bQ0BASF0xW0NIMl1bQ0gyXVtDSDJdW0NAQEhdKFtDSDNdKVtDQEhdMVtOSF1DKD1PKVtOSF1jMm5uW2NIXXMy

> <s_epik_cmdline>
J2VwaWtfcHl0aG9uJywgJy1waCcsICc3LjAnLCAnLXRuJywgJzgnLCAnLW1hJywgJzIwMCcsICctbWV0YWxfYmluZGluZycsICctaW1hZScsICc8aW5maWxlLm1hZT4nLCAnLW9tYWUnLCAnPG91dGZpbGUubWFlPic=

> <r_lp_tautomer_probability>
1

> <r_epik_Ionization_Penalty>
0.000304078

> <r_epik_Ionization_Penalty_Charging>
0

> <r_epik_Ionization_Penalty_Neutral>
0.000304078

> <r_epik_State_Penalty>
-0

> <r_epik_Charging_Adjusted_Penalty>
0

> <i_epik_Tot_Q>
0

> <i_epik_Tot_abs_Q>
0

> <r_epik_Metal_State_Penalty>
0.164801

> <b_epik_Metal_Only>
0

> <s_lp_Force_Field>
OPLS_2005

> <r_lp_Energy>
15.5702

> <b_lp_Chiralities_Consistent>
1

> <s_lp_Variant>
AV-unprocessed.smi:788-4

> <Gold.Version>
5.8.1

> <Gold.Id.Protein>
6NUR|6NUR_protein|mol2

> <Gold.PLP.Fitness>
35.3458

> <Gold.PLP.PLP>
-27.7817

> <Gold.PLP.part.hbond>
-2.0000

> <Gold.PLP.part.metal>
0.0000

> <Gold.PLP.part.buried>
-0.9690

> <Gold.PLP.part.nonpolar>
-25.5021

> <Gold.PLP.part.repulsive>
0.3416

> <Gold.PLP.ligand.clash>
0.0000

> <Gold.PLP.ligand.torsion>
0.2633

> <Gold.PLP.Chemscore.Hbond>
1.8800

> <Gold.PLP.Chemscore.CHOScore>
0.8120

> <Gold.PLP.Chemscore.Metal>
0.0000

> <Gold.Chemscore.Hbonds>
donor molecule, donor type, donor heavy atom, donor atom, acceptor molecule, acceptor atom, score
      L1  H     9    33       P1  8028  0.85
      L1  H    12    34       P1  8028  0.99
      L1  C    16    35       P1 10175  0.85

> <Gold.PLP.Chemscore.Internal.Correction>
0.0145

> <Gold.Rescore>
     Score         DG    S(hbond)    S(metal)    S(lipo)     H(rot)  DE(clash)    DE(int)     intcor
     18.32     -19.65       1.82        0.00      91.10       1.00       0.03       1.31       ----

> <Gold.Chemscore.Fitness>
18.3181

> <Gold.Chemscore.DG>
-19.6529

> <Gold.Chemscore.ZeroCoef>
-5.4800

> <Gold.Chemscore.Hbond>
1.8186

> <Gold.Chemscore.Metal>
0.0000

> <Gold.Chemscore.Lipo>
91.1016

> <Gold.Chemscore.Internal_Hbond>
0.0000

> <Gold.Chemscore.DEClash>
0.0264

> <Gold.Chemscore.DEInternal>
1.3084

> <Gold.Chemscore.Rot>
1.0000

> <Gold.Chemscore.Internal.Correction>
   9.000000E+99

> <Gold.Chemscore.Hbonds>
donor molecule, donor type, donor heavy atom, donor atom, acceptor molecule, acceptor atom, score
      L1  H     9    33       P1  8028  0.73
      L1  H    12    34       P1  8028  0.94

> <Gold.Chemscore.Hbond.Weighted>
-6.0740

> <Gold.Chemscore.Metal.Weighted>
-0.0000

> <Gold.Chemscore.Lipo.Weighted>
-10.6589

> <Gold.Chemscore.Internal_Hbond.Weighted>
0.0000

> <Gold.Chemscore.DEClash.Weighted>
0.0264

> <Gold.Chemscore.DEInternal.Weighted>
1.3084

> <Gold.Chemscore.Rot.Weighted>
2.5600

> <Gold.Chemscore.Internal.Correction.Weighted>
   9.000000E+99

> <Gold.Protein.RotatedTorsions>
[ 6907 6896 6895 6894 ] final -135.01 input  -60.11 | X-H torsion
[ 7974 7965 7964 7962 ] final  102.21 input  175.53 | X-H torsion
[ 8008 7997 7996 7995 ] final -110.05 input   59.86 | X-H torsion
[ 10167 10162 10161 10158 ] final  128.64 input  -65.29 | X-H torsion
[ 10718 10713 10712 10709 ] final  -41.47 input   66.30 | X-H torsion
[ 10763 10752 10751 10750 ] final  -74.97 input  -60.55 | X-H torsion
[ 11005 11000 10999 10996 ] final    5.92 input  -57.11 | X-H torsion

> <Gold.Protein.ActiveResidues>
 VAL166  LYS551  ARG553  GLY616  TRP617  ASP618  TYR619  PRO620  LYS621  CYS622 
 ASP623  PHE694  ASN695  SER759  ASP760  ASP761  ALA762  ILE779  LEU786  VAL792 
 PHE793  MET794  SER795  GLU796  ALA797  LYS798  CYS799  TRP800  GLU811  SER814 

> <Gold.Protein.RotatedAtoms>
  150.9927  133.6134  159.2705 H   0  0  0  0  0  0  0  0  0  0  0  0  # atno 6907 bound_to 6896
  151.3348  135.0849  159.9361 H   0  0  0  0  0  0  0  0  0  0  0  0  # atno 6908 bound_to 6896
  152.5250  133.9549  159.7744 H   0  0  0  0  0  0  0  0  0  0  0  0  # atno 6909 bound_to 6896
  145.3621  139.2416  143.3501 H   0  0  0  0  0  0  0  0  0  0  0  0  # atno 7974 bound_to 7965
  154.9686  140.0398  157.2223 H   0  0  0  0  0  0  0  0  0  0  0  0  # atno 8008 bound_to 7997
  154.7822  140.2821  155.6032 H   0  0  0  0  0  0  0  0  0  0  0  0  # atno 8009 bound_to 7997
  156.2938  140.2589  156.2651 H   0  0  0  0  0  0  0  0  0  0  0  0  # atno 8010 bound_to 7997
  139.5517  144.6818  151.4303 H   0  0  0  0  0  0  0  0  0  0  0  0  # atno 10167 bound_to 10162
  156.2701  130.4206  149.8448 H   0  0  0  0  0  0  0  0  0  0  0  0  # atno 10718 bound_to 10713
  154.4803  135.5846  153.6385 H   0  0  0  0  0  0  0  0  0  0  0  0  # atno 10763 bound_to 10752
  152.9846  135.6088  154.3255 H   0  0  0  0  0  0  0  0  0  0  0  0  # atno 10764 bound_to 10752
  154.3145  135.2844  155.2529 H   0  0  0  0  0  0  0  0  0  0  0  0  # atno 10765 bound_to 10752
  140.5653  134.0153  155.7987 H   0  0  0  0  0  0  0  0  0  0  0  0  # atno 11005 bound_to 11000
  146.2923  140.4257  142.8735 LP  0  0  0  0  0  0  0  0  0  0  0  0  # atno 17320 bound_to 7965
  144.8639  140.7178  143.6090 LP  0  0  0  0  0  0  0  0  0  0  0  0  # atno 17321 bound_to 7965
  140.6781  143.8144  150.7085 LP  0  0  0  0  0  0  0  0  0  0  0  0  # atno 17342 bound_to 10162
  140.1589  143.4293  152.2081 LP  0  0  0  0  0  0  0  0  0  0  0  0  # atno 17343 bound_to 10162
  156.5932  130.8515  151.3413 LP  0  0  0  0  0  0  0  0  0  0  0  0  # atno 17370 bound_to 10713
  157.7281  130.9652  150.1726 LP  0  0  0  0  0  0  0  0  0  0  0  0  # atno 17371 bound_to 10713
  141.1089  133.9648  157.2946 LP  0  0  0  0  0  0  0  0  0  0  0  0  # atno 17394 bound_to 11000
  139.9388  135.0193  156.8641 LP  0  0  0  0  0  0  0  0  0  0  0  0  # atno 17395 bound_to 11000

$$$$
