AV-unprocessed.smi:2814|AV-procd|sdf|10839|dock7
  -GOLD-   2272015283D 1   1.00000     0.00000
 Structure written by MMmdl.
 37 38  0  0  0  0  0  0  0  0  1 V2000
  145.9615  130.1610  151.7709 C   0  0  0  0  0  0  0  0  0  0  0  0
  145.4483  131.5148  151.3269 C   0  0  0  0  0  0  0  0  0  0  0  0
  146.1496  132.6965  151.6488 C   0  0  0  0  0  0  0  0  0  0  0  0
  145.6271  133.9360  151.2068 C   0  0  0  0  0  0  0  0  0  0  0  0
  146.2241  135.1962  151.4806 N   0  0  0  0  0  0  0  0  0  0  0  0
  145.6251  136.3818  151.6866 C   0  0  0  0  0  0  0  0  0  0  0  0
  144.4092  136.5731  151.7016 O   0  0  0  0  0  0  0  0  0  0  0  0
  146.5301  137.3495  151.8929 N   0  0  0  0  0  0  0  0  0  0  0  0
  146.2341  138.7578  152.1478 C   0  0  0  0  0  0  0  0  0  0  0  0
  147.2729  139.4206  153.0809 C   0  0  0  0  0  0  0  0  0  0  0  0
  148.5424  138.8575  152.7999 O   0  0  0  0  0  0  0  0  0  0  0  0
  147.3593  140.9517  152.9939 C   0  0  0  0  0  0  0  0  0  0  0  0
  147.9693  141.4129  154.3237 C   0  0  0  0  0  0  0  0  0  0  0  0
  147.7402  140.2715  155.3258 C   0  0  0  0  0  0  0  0  0  0  0  0
  146.9792  139.1767  154.5670 C   0  0  0  0  0  0  0  0  0  0  0  0
  144.4149  133.9267  150.4869 C   0  0  0  0  0  0  0  0  0  0  0  0
  143.7948  132.6909  150.2169 C   0  0  0  0  0  0  0  0  0  0  0  0
  144.2963  131.5055  150.6219 N   0  0  0  0  0  0  0  0  0  0  0  0
  146.8812  130.2553  152.3489 H   0  0  0  0  0  0  0  0  0  0  0  0
  146.1668  129.5314  150.9047 H   0  0  0  0  0  0  0  0  0  0  0  0
  145.2195  129.6594  152.3928 H   0  0  0  0  0  0  0  0  0  0  0  0
  147.0558  132.6348  152.2313 H   0  0  0  0  0  0  0  0  0  0  0  0
  147.2281  135.1843  151.5834 H   0  0  0  0  0  0  0  0  0  0  0  0
  147.5072  137.0979  151.8605 H   0  0  0  0  0  0  0  0  0  0  0  0
  146.1799  139.3012  151.2029 H   0  0  0  0  0  0  0  0  0  0  0  0
  145.2376  138.8272  152.5856 H   0  0  0  0  0  0  0  0  0  0  0  0
  148.4117  138.0469  152.3320 H   0  0  0  0  0  0  0  0  0  0  0  0
  147.9253  141.3011  152.1293 H   0  0  0  0  0  0  0  0  0  0  0  0
  146.3540  141.3668  152.9111 H   0  0  0  0  0  0  0  0  0  0  0  0
  149.0386  141.5919  154.2056 H   0  0  0  0  0  0  0  0  0  0  0  0
  147.5188  142.3468  154.6616 H   0  0  0  0  0  0  0  0  0  0  0  0
  148.7009  139.8889  155.6724 H   0  0  0  0  0  0  0  0  0  0  0  0
  147.1872  140.6046  156.2047 H   0  0  0  0  0  0  0  0  0  0  0  0
  145.9116  139.3017  154.7537 H   0  0  0  0  0  0  0  0  0  0  0  0
  147.2461  138.1720  154.8986 H   0  0  0  0  0  0  0  0  0  0  0  0
  143.9677  134.8468  150.1398 H   0  0  0  0  0  0  0  0  0  0  0  0
  142.8697  132.6541  149.6611 H   0  0  0  0  0  0  0  0  0  0  0  0
  1  2  1  0  0  0  0
  1 19  1  0  0  0  0
  1 20  1  0  0  0  0
  1 21  1  0  0  0  0
  2 18  1  0  0  0  0
  2  3  2  0  0  0  0
  3  4  1  0  0  0  0
  3 22  1  0  0  0  0
  4  5  1  0  0  0  0
  4 16  2  0  0  0  0
  5  6  1  0  0  0  0
  5 23  1  0  0  0  0
  6  7  2  0  0  0  0
  6  8  1  0  0  0  0
  8  9  1  0  0  0  0
  8 24  1  0  0  0  0
  9 10  1  0  0  0  0
  9 25  1  0  0  0  0
  9 26  1  0  0  0  0
 10 15  1  0  0  0  0
 10 11  1  0  0  0  0
 10 12  1  0  0  0  0
 11 27  1  0  0  0  0
 12 13  1  0  0  0  0
 12 28  1  0  0  0  0
 12 29  1  0  0  0  0
 13 14  1  0  0  0  0
 13 30  1  0  0  0  0
 13 31  1  0  0  0  0
 14 15  1  0  0  0  0
 14 32  1  0  0  0  0
 14 33  1  0  0  0  0
 15 34  1  0  0  0  0
 15 35  1  0  0  0  0
 16 17  1  0  0  0  0
 16 36  1  0  0  0  0
 17 18  2  0  0  0  0
 17 37  1  0  0  0  0
M  END
> <s_m_source_file>
AV-unprocessed.smi

> <i_m_source_file_index>
2814

> <i_lp_mmshare_version>
43012

> <i_f3d_flags>
0

> <s_epik_input>
W0NIM11jMVtjSF1jKFtjSF1bY0hdbjEpW05IXUMoPU8pW05IXVtDSDJdQzIoW09IXSlbQ0gyXVtDSDJdW0NIMl1bQ0gyXTI=

> <s_epik_cmdline>
J2VwaWtfcHl0aG9uJywgJy1waCcsICc3LjAnLCAnLXRuJywgJzgnLCAnLW1hJywgJzIwMCcsICctbWV0YWxfYmluZGluZycsICctaW1hZScsICc8aW5maWxlLm1hZT4nLCAnLW9tYWUnLCAnPG91dGZpbGUubWFlPic=

> <r_epik_Ionization_Penalty>
0.405099

> <r_epik_Ionization_Penalty_Charging>
0

> <r_epik_Ionization_Penalty_Neutral>
0.405099

> <r_epik_State_Penalty>
0.404681

> <r_epik_Charging_Adjusted_Penalty>
0.404681

> <i_epik_Tot_Q>
0

> <i_epik_Tot_abs_Q>
0

> <r_epik_Metal_State_Penalty>
0.238286

> <b_epik_Metal_Only>
0

> <s_lp_Force_Field>
OPLS_2005

> <r_lp_Energy>
28.9703

> <b_lp_Chiralities_Consistent>
1

> <s_lp_Variant>
AV-unprocessed.smi:2814-1

> <Gold.Version>
5.8.1

> <Gold.Id.Protein>
6NUR|6NUR_protein|mol2

> <Gold.PLP.Fitness>
43.1610

> <Gold.PLP.PLP>
-32.7351

> <Gold.PLP.part.hbond>
-3.5975

> <Gold.PLP.part.metal>
0.0000

> <Gold.PLP.part.buried>
-4.7077

> <Gold.PLP.part.nonpolar>
-25.0297

> <Gold.PLP.part.repulsive>
1.5032

> <Gold.PLP.ligand.clash>
0.0000

> <Gold.PLP.ligand.torsion>
0.7769

> <Gold.PLP.Chemscore.Hbond>
2.9920

> <Gold.PLP.Chemscore.CHOScore>
1.0000

> <Gold.PLP.Chemscore.Metal>
0.0000

> <Gold.Chemscore.Hbonds>
donor molecule, donor type, donor heavy atom, donor atom, acceptor molecule, acceptor atom, score
      L1  H     5    23       P1  7948  0.99
      L1  H     8    24       P1  7948  1.00
      L1  H    11    27       P1  7948  1.00
      L1  C    17    37       P1 10186  0.89

> <Gold.PLP.Chemscore.Internal.Correction>
0.0037

> <Gold.Rescore>
     Score         DG    S(hbond)    S(metal)    S(lipo)     H(rot)  DE(clash)    DE(int)     intcor
     17.48     -20.04       2.83        0.00      80.96       1.71       0.56       2.00       ----

> <Gold.Chemscore.Fitness>
17.4842

> <Gold.Chemscore.DG>
-20.0393

> <Gold.Chemscore.ZeroCoef>
-5.4800

> <Gold.Chemscore.Hbond>
2.8339

> <Gold.Chemscore.Metal>
0.0000

> <Gold.Chemscore.Lipo>
80.9625

> <Gold.Chemscore.Internal_Hbond>
0.0000

> <Gold.Chemscore.DEClash>
0.5570

> <Gold.Chemscore.DEInternal>
1.9980

> <Gold.Chemscore.Rot>
1.7103

> <Gold.Chemscore.Internal.Correction>
   9.000000E+99

> <Gold.Chemscore.Hbonds>
donor molecule, donor type, donor heavy atom, donor atom, acceptor molecule, acceptor atom, score
      L1  H     5    23       P1  7948  0.82
      L1  H     8    24       P1  7948  1.00
      L1  H    11    27       P1  7948  0.95

> <Gold.Chemscore.Hbond.Weighted>
-9.4652

> <Gold.Chemscore.Metal.Weighted>
-0.0000

> <Gold.Chemscore.Lipo.Weighted>
-9.4726

> <Gold.Chemscore.Internal_Hbond.Weighted>
0.0000

> <Gold.Chemscore.DEClash.Weighted>
0.5570

> <Gold.Chemscore.DEInternal.Weighted>
1.9980

> <Gold.Chemscore.Rot.Weighted>
4.3785

> <Gold.Chemscore.Internal.Correction.Weighted>
   9.000000E+99

> <Gold.Protein.RotatedTorsions>
[ 6907 6896 6895 6894 ] final  155.43 input  -60.11 | X-H torsion
[ 7974 7965 7964 7962 ] final  172.27 input  175.53 | X-H torsion
[ 8008 7997 7996 7995 ] final   65.98 input   59.86 | X-H torsion
[ 10167 10162 10161 10158 ] final  -36.94 input  -65.29 | X-H torsion
[ 10718 10713 10712 10709 ] final  -96.18 input   66.30 | X-H torsion
[ 10763 10752 10751 10750 ] final   95.86 input  -60.55 | X-H torsion
[ 11005 11000 10999 10996 ] final  -48.99 input  -57.11 | X-H torsion

> <Gold.Protein.ActiveResidues>
 VAL166  LYS551  ARG553  GLY616  TRP617  ASP618  TYR619  PRO620  LYS621  CYS622 
 ASP623  PHE694  ASN695  SER759  ASP760  ASP761  ALA762  ILE779  LEU786  VAL792 
 PHE793  MET794  SER795  GLU796  ALA797  LYS798  CYS799  TRP800  GLU811  SER814 

> <Gold.Protein.RotatedAtoms>
  152.0443  133.3991  159.4349 H   0  0  0  0  0  0  0  0  0  0  0  0  # atno 6907 bound_to 6896
  150.6873  134.3380  159.4864 H   0  0  0  0  0  0  0  0  0  0  0  0  # atno 6908 bound_to 6896
  152.1182  134.9225  160.0615 H   0  0  0  0  0  0  0  0  0  0  0  0  # atno 6909 bound_to 6896
  144.7272  139.9473  143.6431 H   0  0  0  0  0  0  0  0  0  0  0  0  # atno 7974 bound_to 7965
  155.6702  140.3497  155.4815 H   0  0  0  0  0  0  0  0  0  0  0  0  # atno 8008 bound_to 7997
  155.9695  140.1153  157.0848 H   0  0  0  0  0  0  0  0  0  0  0  0  # atno 8009 bound_to 7997
  154.4163  140.1160  156.5273 H   0  0  0  0  0  0  0  0  0  0  0  0  # atno 8010 bound_to 7997
  140.7130  143.3375  151.2431 H   0  0  0  0  0  0  0  0  0  0  0  0  # atno 10167 bound_to 10162
  156.0057  130.5140  150.6187 H   0  0  0  0  0  0  0  0  0  0  0  0  # atno 10718 bound_to 10713
  153.2581  135.4239  155.0866 H   0  0  0  0  0  0  0  0  0  0  0  0  # atno 10763 bound_to 10752
  154.8409  135.3442  154.6416 H   0  0  0  0  0  0  0  0  0  0  0  0  # atno 10764 bound_to 10752
  153.6837  135.7037  153.5167 H   0  0  0  0  0  0  0  0  0  0  0  0  # atno 10765 bound_to 10752
  141.0733  133.6673  156.3521 H   0  0  0  0  0  0  0  0  0  0  0  0  # atno 11005 bound_to 11000
  146.0738  139.3727  143.0506 LP  0  0  0  0  0  0  0  0  0  0  0  0  # atno 17320 bound_to 7965
  145.7932  140.9805  143.1038 LP  0  0  0  0  0  0  0  0  0  0  0  0  # atno 17321 bound_to 7965
  139.6873  143.9751  152.2841 LP  0  0  0  0  0  0  0  0  0  0  0  0  # atno 17342 bound_to 10162
  139.9401  144.6687  150.8275 LP  0  0  0  0  0  0  0  0  0  0  0  0  # atno 17343 bound_to 10162
  157.4006  131.0809  151.1311 LP  0  0  0  0  0  0  0  0  0  0  0  0  # atno 17370 bound_to 10713
  157.1974  130.6379  149.5726 LP  0  0  0  0  0  0  0  0  0  0  0  0  # atno 17371 bound_to 10713
  140.5627  134.5919  157.5437 LP  0  0  0  0  0  0  0  0  0  0  0  0  # atno 17394 bound_to 11000
  139.9546  134.7558  156.0371 LP  0  0  0  0  0  0  0  0  0  0  0  0  # atno 17395 bound_to 11000

$$$$
