AV-unprocessed.smi:255|AV-procd|sdf|1955|dock1
  -GOLD-   2262021 93D 1   1.00000     0.00000
 Structure written by MMmdl.
 44 47  0  0  0  0  0  0  0  0  1 V2000
  152.1394  142.5630  162.2700 O   0  0  0  0  0  0  0  0  0  0  0  0
  153.0490  142.3696  161.2073 C   0  0  0  0  0  0  0  0  0  0  0  0
  152.5908  143.1419  159.9556 C   0  0  2  0  0  0  0  0  0  0  0  0
  152.1307  144.5664  160.2644 C   0  0  0  0  0  0  0  0  0  0  0  0
  151.3038  144.9207  159.0304 C   0  0  1  0  0  0  0  0  0  0  0  0
  152.1077  145.3887  158.0747 F   0  0  0  0  0  0  0  0  0  0  0  0
  150.7125  143.5786  158.5779 C   0  0  0  0  0  0  0  0  0  0  0  0
  151.4232  142.5406  159.3183 N   0  0  0  0  0  0  0  0  0  0  0  0
  151.6389  141.4036  158.6212 C   0  0  0  0  0  0  0  0  0  0  0  0
  152.8859  140.8670  158.5551 N   0  0  0  0  0  0  0  0  0  0  0  0
  153.0891  139.7380  157.8692 C   0  0  0  0  0  0  0  0  0  0  0  0
  152.2061  139.0039  157.1878 N   0  0  0  0  0  0  0  0  0  0  0  0
  150.9560  139.5473  157.2493 C   0  0  0  0  0  0  0  0  0  0  0  0
  150.5893  140.7355  157.9400 C   0  0  0  0  0  0  0  0  0  0  0  0
  149.2303  140.9776  157.7889 N   0  0  0  0  0  0  0  0  0  0  0  0
  148.8153  139.9857  157.0485 C   0  0  0  0  0  0  0  0  0  0  0  0
  149.7865  139.0841  156.6717 N   0  0  0  0  0  0  0  0  0  0  0  0
  149.6014  137.8931  155.8565 C   0  0  0  0  0  0  0  0  0  0  0  0
  148.6110  138.0901  154.6845 C   0  0  2  0  0  0  0  0  0  0  0  0
  148.6912  136.9682  153.8216 O   0  0  0  0  0  0  0  0  0  0  0  0
  148.9017  139.3428  153.8680 C   0  0  0  0  0  0  0  0  0  0  0  0
  147.5285  139.7178  153.3277 C   0  0  0  0  0  0  0  0  0  0  0  0
  146.6716  139.4471  154.4236 O   0  0  0  0  0  0  0  0  0  0  0  0
  147.1382  138.2842  155.1021 C   0  0  0  0  0  0  0  0  0  0  0  0
  153.4153  143.2087  159.2432 H   0  0  0  0  0  0  0  0  0  0  0  0
  150.5470  145.6816  159.2237 H   0  0  0  0  0  0  0  0  0  0  0  0
  152.6307  142.7287  163.0601 H   0  0  0  0  0  0  0  0  0  0  0  0
  154.0572  142.6552  161.5101 H   0  0  0  0  0  0  0  0  0  0  0  0
  153.0692  141.2999  160.9976 H   0  0  0  0  0  0  0  0  0  0  0  0
  151.4926  144.5731  161.1494 H   0  0  0  0  0  0  0  0  0  0  0  0
  152.9580  145.2554  160.4387 H   0  0  0  0  0  0  0  0  0  0  0  0
  149.6575  143.5224  158.8472 H   0  0  0  0  0  0  0  0  0  0  0  0
  150.7815  143.4546  157.4959 H   0  0  0  0  0  0  0  0  0  0  0  0
  154.1046  139.3701  157.8663 H   0  0  0  0  0  0  0  0  0  0  0  0
  147.7816  139.8852  156.7514 H   0  0  0  0  0  0  0  0  0  0  0  0
  150.5761  137.5876  155.4744 H   0  0  0  0  0  0  0  0  0  0  0  0
  149.2626  137.0846  156.5057 H   0  0  0  0  0  0  0  0  0  0  0  0
  148.9635  137.2667  152.9673 H   0  0  0  0  0  0  0  0  0  0  0  0
  149.2567  140.1441  154.5173 H   0  0  0  0  0  0  0  0  0  0  0  0
  149.6468  139.1954  153.0852 H   0  0  0  0  0  0  0  0  0  0  0  0
  147.4661  140.7606  153.0160 H   0  0  0  0  0  0  0  0  0  0  0  0
  147.2536  139.0866  152.4815 H   0  0  0  0  0  0  0  0  0  0  0  0
  146.5178  137.4237  154.8465 H   0  0  0  0  0  0  0  0  0  0  0  0
  147.0302  138.4571  156.1722 H   0  0  0  0  0  0  0  0  0  0  0  0
  1  2  1  0  0  0  0
  1 27  1  0  0  0  0
  2  3  1  0  0  0  0
  2 28  1  0  0  0  0
  2 29  1  0  0  0  0
  3 25  1  0  0  0  0
  3  8  1  0  0  0  0
  3  4  1  0  0  0  0
  4  5  1  0  0  0  0
  4 30  1  0  0  0  0
  4 31  1  0  0  0  0
  5 26  1  0  0  0  0
  5  6  1  0  0  0  0
  5  7  1  0  0  0  0
  7  8  1  0  0  0  0
  7 32  1  0  0  0  0
  7 33  1  0  0  0  0
  8  9  1  0  0  0  0
  9 14  1  0  0  0  0
  9 10  2  0  0  0  0
 10 11  1  0  0  0  0
 11 12  2  0  0  0  0
 11 34  1  0  0  0  0
 12 13  1  0  0  0  0
 13 17  1  0  0  0  0
 13 14  2  0  0  0  0
 14 15  1  0  0  0  0
 15 16  2  0  0  0  0
 16 17  1  0  0  0  0
 16 35  1  0  0  0  0
 17 18  1  0  0  0  0
 18 19  1  0  0  0  0
 18 36  1  0  0  0  0
 18 37  1  0  0  0  0
 19 24  1  0  0  0  0
 19 20  1  0  0  0  0
 19 21  1  0  0  0  0
 20 38  1  0  0  0  0
 21 22  1  0  0  0  0
 21 39  1  0  0  0  0
 21 40  1  0  0  0  0
 22 23  1  0  0  0  0
 22 41  1  0  0  0  0
 22 42  1  0  0  0  0
 23 24  1  0  0  0  0
 24 43  1  0  0  0  0
 24 44  1  0  0  0  0
M  END
> <s_m_source_file>
AV-unprocessed.smi

> <i_m_source_file_index>
255

> <i_lp_mmshare_version>
43012

> <i_f3d_flags>
0

> <s_epik_input>
W09IXVtDSDJdW0NAQEhdMVtDSDJdW0NASF0oRilbQ0gyXU4xYyhuW2NIXW4yKWMoYzIzKW5bY0hdbjNbQ0gyXVtDQEBdNChbT0hdKVtDSDJdW0NIMl1PW0NIMl00

> <s_epik_cmdline>
J2VwaWtfcHl0aG9uJywgJy1waCcsICc3LjAnLCAnLXRuJywgJzgnLCAnLW1hJywgJzIwMCcsICctbWV0YWxfYmluZGluZycsICctaW1hZScsICc8aW5maWxlLm1hZT4nLCAnLW9tYWUnLCAnPG91dGZpbGUubWFlPic=

> <r_lp_tautomer_probability>
1

> <r_epik_Ionization_Penalty>
0.0058098

> <r_epik_Ionization_Penalty_Charging>
0

> <r_epik_Ionization_Penalty_Neutral>
0.0058098

> <r_epik_State_Penalty>
0.00411166

> <r_epik_Charging_Adjusted_Penalty>
0.00411166

> <i_epik_Tot_Q>
0

> <i_epik_Tot_abs_Q>
0

> <r_epik_Metal_State_Penalty>
-0

> <b_epik_Metal_Only>
0

> <s_lp_Force_Field>
OPLS_2005

> <r_lp_Energy>
53.8685

> <b_lp_Chiralities_Consistent>
1

> <s_lp_Variant>
AV-unprocessed.smi:255-7

> <Gold.Version>
5.8.1

> <Gold.Id.Protein>
6NUR|6NUR_protein|mol2

> <Gold.PLP.Fitness>
43.0413

> <Gold.PLP.PLP>
-38.0417

> <Gold.PLP.part.hbond>
-3.0000

> <Gold.PLP.part.metal>
0.0000

> <Gold.PLP.part.buried>
-6.5954

> <Gold.PLP.part.nonpolar>
-27.9002

> <Gold.PLP.part.repulsive>
0.1629

> <Gold.PLP.ligand.clash>
0.0000

> <Gold.PLP.ligand.torsion>
0.5518

> <Gold.PLP.Chemscore.Hbond>
2.0000

> <Gold.PLP.Chemscore.CHOScore>
0.0000

> <Gold.PLP.Chemscore.Metal>
0.0000

> <Gold.Chemscore.Hbonds>
donor molecule, donor type, donor heavy atom, donor atom, acceptor molecule, acceptor atom, score
      L1  H    20    38       P1  7948  0.32
      P1  H  6933  6945       L1     1  0.49

> <Gold.PLP.Chemscore.Internal.Correction>
0.1032

> <Gold.Rescore>
     Score         DG    S(hbond)    S(metal)    S(lipo)     H(rot)  DE(clash)    DE(int)     intcor
      9.38     -12.21       1.84        0.00      77.89       3.33       0.49       2.34       ----

> <Gold.Chemscore.Fitness>
9.3771

> <Gold.Chemscore.DG>
-12.2101

> <Gold.Chemscore.ZeroCoef>
-5.4800

> <Gold.Chemscore.Hbond>
1.8370

> <Gold.Chemscore.Metal>
0.0000

> <Gold.Chemscore.Lipo>
77.8859

> <Gold.Chemscore.Internal_Hbond>
0.0000

> <Gold.Chemscore.DEClash>
0.4922

> <Gold.Chemscore.DEInternal>
2.3409

> <Gold.Chemscore.Rot>
3.3273

> <Gold.Chemscore.Internal.Correction>
   9.000000E+99

> <Gold.Chemscore.Hbonds>
donor molecule, donor type, donor heavy atom, donor atom, acceptor molecule, acceptor atom, score
      L1  H    20    38       P1  7948  0.31
      P1  H  6933  6945       L1     1  0.45

> <Gold.Chemscore.Hbond.Weighted>
-6.1354

> <Gold.Chemscore.Metal.Weighted>
-0.0000

> <Gold.Chemscore.Lipo.Weighted>
-9.1126

> <Gold.Chemscore.Internal_Hbond.Weighted>
0.0000

> <Gold.Chemscore.DEClash.Weighted>
0.4922

> <Gold.Chemscore.DEInternal.Weighted>
2.3409

> <Gold.Chemscore.Rot.Weighted>
8.5179

> <Gold.Chemscore.Internal.Correction.Weighted>
   9.000000E+99

> <Gold.Protein.RotatedTorsions>
[ 6907 6896 6895 6894 ] final   -8.88 input  -60.11 | X-H torsion
[ 7974 7965 7964 7962 ] final -115.82 input  175.53 | X-H torsion
[ 8008 7997 7996 7995 ] final   -0.03 input   59.86 | X-H torsion
[ 10167 10162 10161 10158 ] final  -48.72 input  -65.29 | X-H torsion
[ 10718 10713 10712 10709 ] final   37.07 input   66.30 | X-H torsion
[ 10763 10752 10751 10750 ] final  123.53 input  -60.55 | X-H torsion
[ 11005 11000 10999 10996 ] final  122.38 input  -57.11 | X-H torsion

> <Gold.Protein.ActiveResidues>
 VAL166  LYS551  ARG553  GLY616  TRP617  ASP618  TYR619  PRO620  LYS621  CYS622 
 ASP623  PHE694  ASN695  SER759  ASP760  ASP761  ALA762  ILE779  LEU786  VAL792 
 PHE793  MET794  SER795  GLU796  ALA797  LYS798  CYS799  TRP800  GLU811  SER814 

> <Gold.Protein.RotatedAtoms>
  151.4266  135.1004  159.9629 H   0  0  0  0  0  0  0  0  0  0  0  0  # atno 6907 bound_to 6896
  152.4970  133.8657  159.7283 H   0  0  0  0  0  0  0  0  0  0  0  0  # atno 6908 bound_to 6896
  150.9185  133.6852  159.2865 H   0  0  0  0  0  0  0  0  0  0  0  0  # atno 6909 bound_to 6896
  145.1040  140.8569  143.3909 H   0  0  0  0  0  0  0  0  0  0  0  0  # atno 7974 bound_to 7965
  154.6627  140.2594  155.7092 H   0  0  0  0  0  0  0  0  0  0  0  0  # atno 8008 bound_to 7997
  156.2625  140.2845  156.1026 H   0  0  0  0  0  0  0  0  0  0  0  0  # atno 8009 bound_to 7997
  155.1285  140.0378  157.2759 H   0  0  0  0  0  0  0  0  0  0  0  0  # atno 8010 bound_to 7997
  140.6718  143.2728  151.4112 H   0  0  0  0  0  0  0  0  0  0  0  0  # atno 10167 bound_to 10162
  157.3426  130.7555  149.6922 H   0  0  0  0  0  0  0  0  0  0  0  0  # atno 10718 bound_to 10713
  153.6469  135.3369  155.3088 H   0  0  0  0  0  0  0  0  0  0  0  0  # atno 10763 bound_to 10752
  154.8546  135.4332  154.1945 H   0  0  0  0  0  0  0  0  0  0  0  0  # atno 10764 bound_to 10752
  153.2878  135.7014  153.7397 H   0  0  0  0  0  0  0  0  0  0  0  0  # atno 10765 bound_to 10752
  139.9266  134.9641  156.8100 H   0  0  0  0  0  0  0  0  0  0  0  0  # atno 11005 bound_to 11000
  145.0923  139.2881  143.5728 LP  0  0  0  0  0  0  0  0  0  0  0  0  # atno 17320 bound_to 7965
  146.3529  140.0464  142.8639 LP  0  0  0  0  0  0  0  0  0  0  0  0  # atno 17321 bound_to 7965
  139.5990  144.1336  152.2177 LP  0  0  0  0  0  0  0  0  0  0  0  0  # atno 17342 bound_to 10162
  140.0714  144.5776  150.7189 LP  0  0  0  0  0  0  0  0  0  0  0  0  # atno 17343 bound_to 10162
  155.9710  130.4163  150.4226 LP  0  0  0  0  0  0  0  0  0  0  0  0  # atno 17370 bound_to 10713
  157.2276  131.0497  151.2511 LP  0  0  0  0  0  0  0  0  0  0  0  0  # atno 17371 bound_to 10713
  140.6320  133.9897  155.7666 LP  0  0  0  0  0  0  0  0  0  0  0  0  # atno 17394 bound_to 11000
  141.0827  134.0038  157.3361 LP  0  0  0  0  0  0  0  0  0  0  0  0  # atno 17395 bound_to 11000

$$$$
