AV-unprocessed.smi:1308|AV-procd|sdf|5438|dock2
  -GOLD-   22720 5 03D 1   1.00000     0.00000
 Structure written by MMmdl.
 45 45  0  0  0  0  0  0  0  0  1 V2000
  148.8867  133.4317  154.0294 C   0  0  0  0  0  0  0  0  0  0  0  0
  149.3585  134.6292  154.8259 C   0  0  0  0  0  0  0  0  0  0  0  0
  149.8254  135.7100  154.2938 N   0  0  0  0  0  0  0  0  0  0  0  0
  150.2213  136.7587  155.1349 C   0  0  0  0  0  0  0  0  0  0  0  0
  150.7225  138.0063  154.4287 C   0  0  0  0  0  0  0  0  0  0  0  0
  150.1310  136.6606  156.4943 C   0  0  0  0  0  0  0  0  0  0  0  0
  150.5033  137.8064  157.4370 C   0  0  0  0  0  0  0  0  0  0  0  0
  149.6121  139.0420  157.3082 C   0  0  0  0  0  0  0  0  0  0  0  0
  148.4680  139.0307  157.7609 O   0  0  0  0  0  0  0  0  0  0  0  0
  150.1807  140.1143  156.7354 N   0  0  0  0  0  0  0  0  0  0  0  0
  149.6680  141.4806  156.7731 C   0  0  2  0  0  0  0  0  0  0  0  0
  149.0063  141.8177  155.4301 C   0  0  0  0  0  0  0  0  0  0  0  0
  150.8198  142.4504  157.1079 C   0  0  0  0  0  0  0  0  0  0  0  0
  151.3846  142.2699  158.5330 C   0  0  0  0  0  0  0  0  0  0  0  0
  152.5333  143.2313  158.8947 C   0  0  0  0  0  0  0  0  0  0  0  0
  153.0756  142.9871  160.3135 C   0  0  0  0  0  0  0  0  0  0  0  0
  152.0764  144.6908  158.7473 C   0  0  0  0  0  0  0  0  0  0  0  0
  149.6045  135.4172  157.0905 C   0  0  0  0  0  0  0  0  0  0  0  0
  149.4731  135.2249  158.2980 O   0  0  0  0  0  0  0  0  0  0  0  0
  149.2422  134.4629  156.2044 N   0  0  0  0  0  0  0  0  0  0  0  0
  148.8709  133.5952  156.5629 H   0  0  0  0  0  0  0  0  0  0  0  0
  148.0463  133.7123  153.3942 H   0  0  0  0  0  0  0  0  0  0  0  0
  148.5670  132.6161  154.6796 H   0  0  0  0  0  0  0  0  0  0  0  0
  149.6913  133.0644  153.3921 H   0  0  0  0  0  0  0  0  0  0  0  0
  151.7268  138.2644  154.7644 H   0  0  0  0  0  0  0  0  0  0  0  0
  150.0603  138.8493  154.6261 H   0  0  0  0  0  0  0  0  0  0  0  0
  150.7613  137.8602  153.3485 H   0  0  0  0  0  0  0  0  0  0  0  0
  150.4929  137.4763  158.4763 H   0  0  0  0  0  0  0  0  0  0  0  0
  151.5362  138.0991  157.2480 H   0  0  0  0  0  0  0  0  0  0  0  0
  151.1145  140.0004  156.3680 H   0  0  0  0  0  0  0  0  0  0  0  0
  148.9081  141.5780  157.5503 H   0  0  0  0  0  0  0  0  0  0  0  0
  148.5992  142.8291  155.4369 H   0  0  0  0  0  0  0  0  0  0  0  0
  148.1844  141.1341  155.2148 H   0  0  0  0  0  0  0  0  0  0  0  0
  149.7192  141.7514  154.6073 H   0  0  0  0  0  0  0  0  0  0  0  0
  151.6150  142.3174  156.3741 H   0  0  0  0  0  0  0  0  0  0  0  0
  150.4684  143.4763  156.9928 H   0  0  0  0  0  0  0  0  0  0  0  0
  150.5666  142.4070  159.2414 H   0  0  0  0  0  0  0  0  0  0  0  0
  151.7337  141.2479  158.6760 H   0  0  0  0  0  0  0  0  0  0  0  0
  153.3482  143.0708  158.1877 H   0  0  0  0  0  0  0  0  0  0  0  0
  152.2887  143.0900  161.0613 H   0  0  0  0  0  0  0  0  0  0  0  0
  153.8613  143.7017  160.5598 H   0  0  0  0  0  0  0  0  0  0  0  0
  153.5063  141.9918  160.4166 H   0  0  0  0  0  0  0  0  0  0  0  0
  151.2534  144.9179  159.4262 H   0  0  0  0  0  0  0  0  0  0  0  0
  151.7364  144.8972  157.7321 H   0  0  0  0  0  0  0  0  0  0  0  0
  152.8899  145.3828  158.9668 H   0  0  0  0  0  0  0  0  0  0  0  0
  1  2  1  0  0  0  0
  1 22  1  0  0  0  0
  1 23  1  0  0  0  0
  1 24  1  0  0  0  0
  2 20  1  0  0  0  0
  2  3  2  0  0  0  0
  3  4  1  0  0  0  0
  4  5  1  0  0  0  0
  4  6  2  0  0  0  0
  5 25  1  0  0  0  0
  5 26  1  0  0  0  0
  5 27  1  0  0  0  0
  6  7  1  0  0  0  0
  6 18  1  0  0  0  0
  7  8  1  0  0  0  0
  7 28  1  0  0  0  0
  7 29  1  0  0  0  0
  8  9  2  0  0  0  0
  8 10  1  0  0  0  0
 10 11  1  0  0  0  0
 10 30  1  0  0  0  0
 11 12  1  0  0  0  0
 11 13  1  0  0  0  0
 11 31  1  0  0  0  0
 12 32  1  0  0  0  0
 12 33  1  0  0  0  0
 12 34  1  0  0  0  0
 13 14  1  0  0  0  0
 13 35  1  0  0  0  0
 13 36  1  0  0  0  0
 14 15  1  0  0  0  0
 14 37  1  0  0  0  0
 14 38  1  0  0  0  0
 15 16  1  0  0  0  0
 15 17  1  0  0  0  0
 15 39  1  0  0  0  0
 16 40  1  0  0  0  0
 16 41  1  0  0  0  0
 16 42  1  0  0  0  0
 17 43  1  0  0  0  0
 17 44  1  0  0  0  0
 17 45  1  0  0  0  0
 18 19  2  0  0  0  0
 18 20  1  0  0  0  0
 20 21  1  0  0  0  0
M  END
> <s_m_source_file>
AV-unprocessed.smi

> <i_m_source_file_index>
1308

> <i_lp_mmshare_version>
43012

> <i_f3d_flags>
0

> <s_epik_input>
W0NIM11jMW5jKFtDSDNdKWMoYyg9TylbbkhdMSlbQ0gyXUMoPU8pW05IXVtDQEhdKFtDSDNdKVtDSDJdW0NIMl1bQ0hdKFtDSDNdKVtDSDNd

> <s_epik_cmdline>
J2VwaWtfcHl0aG9uJywgJy1waCcsICc3LjAnLCAnLXRuJywgJzgnLCAnLW1hJywgJzIwMCcsICctbWV0YWxfYmluZGluZycsICctaW1hZScsICc8aW5maWxlLm1hZT4nLCAnLW9tYWUnLCAnPG91dGZpbGUubWFlPic=

> <r_lp_tautomer_probability>
0.839158

> <r_epik_Ionization_Penalty>
0.000390633

> <r_epik_Ionization_Penalty_Charging>
0.00035831

> <r_epik_Ionization_Penalty_Neutral>
3.23235e-05

> <r_epik_State_Penalty>
0.0470222

> <r_epik_Charging_Adjusted_Penalty>
0.0473805

> <i_epik_Tot_Q>
0

> <i_epik_Tot_abs_Q>
0

> <r_epik_Metal_State_Penalty>
0.223807

> <b_epik_Metal_Only>
0

> <s_lp_Force_Field>
OPLS_2005

> <r_lp_Energy>
5.21456

> <b_lp_Chiralities_Consistent>
1

> <s_lp_Variant>
AV-unprocessed.smi:1308-1

> <Gold.Version>
5.8.1

> <Gold.Id.Protein>
6NUR|6NUR_protein|mol2

> <Gold.PLP.Fitness>
37.5341

> <Gold.PLP.PLP>
-35.2046

> <Gold.PLP.part.hbond>
-1.0000

> <Gold.PLP.part.metal>
0.0000

> <Gold.PLP.part.buried>
-4.4723

> <Gold.PLP.part.nonpolar>
-30.8252

> <Gold.PLP.part.repulsive>
1.5775

> <Gold.PLP.ligand.clash>
0.0000

> <Gold.PLP.ligand.torsion>
0.4095

> <Gold.PLP.Chemscore.Hbond>
1.0000

> <Gold.PLP.Chemscore.CHOScore>
0.0000

> <Gold.PLP.Chemscore.Metal>
0.0000

> <Gold.Chemscore.Hbonds>
donor molecule, donor type, donor heavy atom, donor atom, acceptor molecule, acceptor atom, score
      P1  H  6896  6907       L1    19  1.00

> <Gold.PLP.Chemscore.Internal.Correction>
0.1485

> <Gold.Rescore>
     Score         DG    S(hbond)    S(metal)    S(lipo)     H(rot)  DE(clash)    DE(int)     intcor
     13.56     -14.19       0.81        0.00      94.60       1.98       0.01       0.63       ----

> <Gold.Chemscore.Fitness>
13.5605

> <Gold.Chemscore.DG>
-14.1921

> <Gold.Chemscore.ZeroCoef>
-5.4800

> <Gold.Chemscore.Hbond>
0.8150

> <Gold.Chemscore.Metal>
0.0000

> <Gold.Chemscore.Lipo>
94.5970

> <Gold.Chemscore.Internal_Hbond>
0.0000

> <Gold.Chemscore.DEClash>
0.0060

> <Gold.Chemscore.DEInternal>
0.6256

> <Gold.Chemscore.Rot>
1.9835

> <Gold.Chemscore.Internal.Correction>
   9.000000E+99

> <Gold.Chemscore.Hbonds>
donor molecule, donor type, donor heavy atom, donor atom, acceptor molecule, acceptor atom, score
      P1  H  6896  6907       L1    19  0.97

> <Gold.Chemscore.Hbond.Weighted>
-2.7220

> <Gold.Chemscore.Metal.Weighted>
-0.0000

> <Gold.Chemscore.Lipo.Weighted>
-11.0678

> <Gold.Chemscore.Internal_Hbond.Weighted>
0.0000

> <Gold.Chemscore.DEClash.Weighted>
0.0060

> <Gold.Chemscore.DEInternal.Weighted>
0.6256

> <Gold.Chemscore.Rot.Weighted>
5.0778

> <Gold.Chemscore.Internal.Correction.Weighted>
   9.000000E+99

> <Gold.Protein.RotatedTorsions>
[ 6907 6896 6895 6894 ] final  -92.90 input  -60.11 | X-H torsion
[ 7974 7965 7964 7962 ] final  -16.40 input  175.53 | X-H torsion
[ 8008 7997 7996 7995 ] final  -40.86 input   59.86 | X-H torsion
[ 10167 10162 10161 10158 ] final   17.75 input  -65.29 | X-H torsion
[ 10718 10713 10712 10709 ] final  -61.36 input   66.30 | X-H torsion
[ 10763 10752 10751 10750 ] final  -29.81 input  -60.55 | X-H torsion
[ 11005 11000 10999 10996 ] final  164.20 input  -57.11 | X-H torsion

> <Gold.Protein.ActiveResidues>
 VAL166  LYS551  ARG553  GLY616  TRP617  ASP618  TYR619  PRO620  LYS621  CYS622 
 ASP623  PHE694  ASN695  SER759  ASP760  ASP761  ALA762  ILE779  LEU786  VAL792 
 PHE793  MET794  SER795  GLU796  ALA797  LYS798  CYS799  TRP800  GLU811  SER814 

> <Gold.Protein.RotatedAtoms>
  150.6913  134.2051  159.4337 H   0  0  0  0  0  0  0  0  0  0  0  0  # atno 6907 bound_to 6896
  152.0015  134.9923  160.0574 H   0  0  0  0  0  0  0  0  0  0  0  0  # atno 6908 bound_to 6896
  152.1574  133.4525  159.4880 H   0  0  0  0  0  0  0  0  0  0  0  0  # atno 6909 bound_to 6896
  146.1989  140.3631  142.8430 H   0  0  0  0  0  0  0  0  0  0  0  0  # atno 7974 bound_to 7965
  154.4008  140.1514  156.3096 H   0  0  0  0  0  0  0  0  0  0  0  0  # atno 8008 bound_to 7997
  155.8627  140.3452  155.5746 H   0  0  0  0  0  0  0  0  0  0  0  0  # atno 8009 bound_to 7997
  155.7862  140.0850  157.2024 H   0  0  0  0  0  0  0  0  0  0  0  0  # atno 8010 bound_to 7997
  140.5704  143.9173  150.6708 H   0  0  0  0  0  0  0  0  0  0  0  0  # atno 10167 bound_to 10162
  156.0927  130.4197  150.0984 H   0  0  0  0  0  0  0  0  0  0  0  0  # atno 10718 bound_to 10713
  153.7708  135.6912  153.4907 H   0  0  0  0  0  0  0  0  0  0  0  0  # atno 10763 bound_to 10752
  153.1876  135.4483  155.0107 H   0  0  0  0  0  0  0  0  0  0  0  0  # atno 10764 bound_to 10752
  154.8118  135.3381  154.7217 H   0  0  0  0  0  0  0  0  0  0  0  0  # atno 10765 bound_to 10752
  140.2435  134.8033  157.3433 H   0  0  0  0  0  0  0  0  0  0  0  0  # atno 11005 bound_to 11000
  144.8640  140.7180  143.6089 LP  0  0  0  0  0  0  0  0  0  0  0  0  # atno 17320 bound_to 7965
  145.3551  139.1696  143.4414 LP  0  0  0  0  0  0  0  0  0  0  0  0  # atno 17321 bound_to 7965
  140.2646  143.3499  152.1292 LP  0  0  0  0  0  0  0  0  0  0  0  0  # atno 17342 bound_to 10162
  139.5114  144.6900  151.5784 LP  0  0  0  0  0  0  0  0  0  0  0  0  # atno 17343 bound_to 10162
  156.8990  130.9614  151.3579 LP  0  0  0  0  0  0  0  0  0  0  0  0  # atno 17370 bound_to 10713
  157.6080  130.8561  149.8906 LP  0  0  0  0  0  0  0  0  0  0  0  0  # atno 17371 bound_to 10713
  140.1630  134.4705  155.7882 LP  0  0  0  0  0  0  0  0  0  0  0  0  # atno 17394 bound_to 11000
  141.2208  133.6909  156.7576 LP  0  0  0  0  0  0  0  0  0  0  0  0  # atno 17395 bound_to 11000

$$$$
