AV-unprocessed.smi:92|AV-procd|sdf|843|dock2
  -GOLD-   2262017283D 1   1.00000     0.00000
 Structure written by MMmdl.
 61 64  0  0  0  0  0  0  0  0  2 V2000
  146.3339  141.6032  156.5804 C   0  0  0  0  0  0  0  0  0  0  0  0
  147.7193  141.2334  157.1285 C   0  0  0  0  0  0  0  0  0  0  0  0
  148.8228  141.8876  156.3753 N   0  3  2  0  0  0  0  0  0  0  0  0
  148.8489  141.5379  154.9348 C   0  0  0  0  0  0  0  0  0  0  0  0
  149.3446  140.1013  154.7223 C   0  0  0  0  0  0  0  0  0  0  0  0
  150.7528  139.8833  155.3246 C   0  0  2  0  0  0  0  0  0  0  0  0
  151.2434  138.5163  155.0805 N   0  0  0  0  0  0  0  0  0  0  0  0
  152.5198  138.2868  154.4151 C   0  0  0  0  0  0  0  0  0  0  0  0
  150.8481  137.5177  155.9041 C   0  0  0  0  0  0  0  0  0  0  0  0
  151.6464  136.4241  155.9875 N   0  0  0  0  0  0  0  0  0  0  0  0
  151.3041  135.4035  156.7792 C   0  0  0  0  0  0  0  0  0  0  0  0
  150.2265  135.2753  157.5557 N   0  0  0  0  0  0  0  0  0  0  0  0
  149.4267  136.3778  157.4827 C   0  0  0  0  0  0  0  0  0  0  0  0
  149.6661  137.5404  156.6967 C   0  0  0  0  0  0  0  0  0  0  0  0
  148.6450  138.4613  156.8945 N   0  0  0  0  0  0  0  0  0  0  0  0
  147.8510  137.8801  157.7512 C   0  0  0  0  0  0  0  0  0  0  0  0
  148.2252  136.6106  158.1295 N   0  0  0  0  0  0  0  0  0  0  0  0
  147.5540  135.7629  159.0711 C   0  0  0  0  0  0  0  0  0  0  0  0
  146.4031  136.2965  159.9290 C   0  0  0  0  0  0  0  0  0  0  0  0
  146.8778  135.4416  161.1244 C   0  0  0  0  0  0  0  0  0  0  0  0
  146.9440  136.1812  162.4696 C   0  0  0  0  0  0  0  0  0  0  0  0
  147.3009  137.5379  162.2976 O   0  0  0  0  0  0  0  0  0  0  0  0
  146.1374  134.1087  161.3733 C   0  0  0  0  0  0  0  0  0  0  0  0
  144.8488  134.2800  161.9275 O   0  0  0  0  0  0  0  0  0  0  0  0
  148.2297  135.3464  160.3821 C   0  0  0  0  0  0  0  0  0  0  0  0
  150.7724  140.3226  156.8193 C   0  0  1  0  0  0  0  0  0  0  0  0
  152.1810  140.3260  157.4421 C   0  0  0  0  0  0  0  0  0  0  0  0
  150.1708  141.7411  156.9837 C   0  0  0  0  0  0  0  0  0  0  0  0
  145.5567  141.0336  157.0903 H   0  0  0  0  0  0  0  0  0  0  0  0
  146.2591  141.3820  155.5153 H   0  0  0  0  0  0  0  0  0  0  0  0
  146.1047  142.6588  156.7233 H   0  0  0  0  0  0  0  0  0  0  0  0
  147.7795  141.4624  158.1922 H   0  0  0  0  0  0  0  0  0  0  0  0
  147.8289  140.1515  157.0450 H   0  0  0  0  0  0  0  0  0  0  0  0
  147.8600  141.6724  154.4946 H   0  0  0  0  0  0  0  0  0  0  0  0
  149.5102  142.2342  154.4171 H   0  0  0  0  0  0  0  0  0  0  0  0
  148.6224  139.4140  155.1630 H   0  0  0  0  0  0  0  0  0  0  0  0
  149.3640  139.8811  153.6544 H   0  0  0  0  0  0  0  0  0  0  0  0
  151.4288  140.5470  154.7837 H   0  0  0  0  0  0  0  0  0  0  0  0
  153.2949  137.9699  155.1126 H   0  0  0  0  0  0  0  0  0  0  0  0
  152.8654  139.1892  153.9106 H   0  0  0  0  0  0  0  0  0  0  0  0
  152.4083  137.5070  153.6614 H   0  0  0  0  0  0  0  0  0  0  0  0
  151.9893  134.5685  156.7892 H   0  0  0  0  0  0  0  0  0  0  0  0
  146.9592  138.3623  158.1245 H   0  0  0  0  0  0  0  0  0  0  0  0
  147.2365  134.8860  158.5056 H   0  0  0  0  0  0  0  0  0  0  0  0
  146.4889  137.3685  160.1157 H   0  0  0  0  0  0  0  0  0  0  0  0
  145.4102  136.0465  159.5538 H   0  0  0  0  0  0  0  0  0  0  0  0
  145.9903  136.1297  162.9961 H   0  0  0  0  0  0  0  0  0  0  0  0
  147.6842  135.7256  163.1283 H   0  0  0  0  0  0  0  0  0  0  0  0
  147.1059  138.0041  163.0961 H   0  0  0  0  0  0  0  0  0  0  0  0
  146.0265  133.5489  160.4441 H   0  0  0  0  0  0  0  0  0  0  0  0
  146.7009  133.4714  162.0554 H   0  0  0  0  0  0  0  0  0  0  0  0
  144.2530  133.6913  161.4898 H   0  0  0  0  0  0  0  0  0  0  0  0
  148.6733  134.3504  160.3615 H   0  0  0  0  0  0  0  0  0  0  0  0
  148.9551  136.0850  160.7274 H   0  0  0  0  0  0  0  0  0  0  0  0
  150.1603  139.6291  157.3952 H   0  0  0  0  0  0  0  0  0  0  0  0
  152.8673  140.9502  156.8689 H   0  0  0  0  0  0  0  0  0  0  0  0
  152.6089  139.3282  157.5032 H   0  0  0  0  0  0  0  0  0  0  0  0
  152.1561  140.7133  158.4611 H   0  0  0  0  0  0  0  0  0  0  0  0
  150.8290  142.4674  156.5043 H   0  0  0  0  0  0  0  0  0  0  0  0
  150.1403  142.0231  158.0355 H   0  0  0  0  0  0  0  0  0  0  0  0
  148.6077  142.8742  156.4062 H   0  0  0  0  0  0  0  0  0  0  0  0
  1  2  1  0  0  0  0
  1 29  1  0  0  0  0
  1 30  1  0  0  0  0
  1 31  1  0  0  0  0
  2  3  1  0  0  0  0
  2 32  1  0  0  0  0
  2 33  1  0  0  0  0
  3 28  1  0  0  0  0
  3  4  1  0  0  0  0
  3 61  1  0  0  0  0
  4  5  1  0  0  0  0
  4 34  1  0  0  0  0
  4 35  1  0  0  0  0
  5  6  1  0  0  0  0
  5 36  1  0  0  0  0
  5 37  1  0  0  0  0
  6  7  1  0  0  0  0
  6 26  1  0  0  0  0
  6 38  1  0  0  0  0
  7  8  1  0  0  0  0
  7  9  1  0  0  0  0
  8 39  1  0  0  0  0
  8 40  1  0  0  0  0
  8 41  1  0  0  0  0
  9 14  1  0  0  0  0
  9 10  2  0  0  0  0
 10 11  1  0  0  0  0
 11 12  2  0  0  0  0
 11 42  1  0  0  0  0
 12 13  1  0  0  0  0
 13 17  1  0  0  0  0
 13 14  2  0  0  0  0
 14 15  1  0  0  0  0
 15 16  2  0  0  0  0
 16 17  1  0  0  0  0
 16 43  1  0  0  0  0
 17 18  1  0  0  0  0
 18 25  1  0  0  0  0
 18 19  1  0  0  0  0
 18 44  1  0  0  0  0
 19 20  1  0  0  0  0
 19 45  1  0  0  0  0
 19 46  1  0  0  0  0
 20 21  1  0  0  0  0
 20 23  1  0  0  0  0
 20 25  1  0  0  0  0
 21 22  1  0  0  0  0
 21 47  1  0  0  0  0
 21 48  1  0  0  0  0
 22 49  1  0  0  0  0
 23 24  1  0  0  0  0
 23 50  1  0  0  0  0
 23 51  1  0  0  0  0
 24 52  1  0  0  0  0
 25 53  1  0  0  0  0
 25 54  1  0  0  0  0
 26 27  1  0  0  0  0
 26 28  1  0  0  0  0
 26 55  1  0  0  0  0
 27 56  1  0  0  0  0
 27 57  1  0  0  0  0
 27 58  1  0  0  0  0
 28 59  1  0  0  0  0
 28 60  1  0  0  0  0
M  CHG  1   3   1
M  END
> <s_m_source_file>
AV-unprocessed.smi

> <i_m_source_file_index>
92

> <i_lp_mmshare_version>
43012

> <i_f3d_flags>
0

> <s_epik_input>
W0NIM11bQ0gyXU4xW0NIMl1bQ0gyXVtDQEhdKFtDQEBIXShbQ0gzXSlbQ0gyXTEpTihbQ0gzXSljKG5bY0hdbjIpYyhjMjMpbltjSF1uM1tDSF0oW0NIMl00KVtDSDJdQzQoW0NIMl1bT0hdKVtDSDJdW09IXQ==

> <s_epik_cmdline>
J2VwaWtfcHl0aG9uJywgJy1waCcsICc3LjAnLCAnLXRuJywgJzgnLCAnLW1hJywgJzIwMCcsICctbWV0YWxfYmluZGluZycsICctaW1hZScsICc8aW5maWxlLm1hZT4nLCAnLW9tYWUnLCAnPG91dGZpbGUubWFlPic=

> <r_lp_tautomer_probability>
1

> <r_epik_Ionization_Penalty>
0.00235514

> <r_epik_Ionization_Penalty_Charging>
0.00137877

> <r_epik_Ionization_Penalty_Neutral>
0.000976366

> <r_epik_State_Penalty>
-0

> <r_epik_Charging_Adjusted_Penalty>
0.00137877

> <i_epik_Tot_Q>
1

> <i_epik_Tot_abs_Q>
1

> <r_epik_Metal_State_Penalty>
-0

> <b_epik_Metal_Only>
0

> <s_lp_Force_Field>
OPLS_2005

> <r_lp_Energy>
56.5643

> <b_lp_Chiralities_Consistent>
1

> <s_lp_Variant>
AV-unprocessed.smi:92-3

> <Gold.Version>
5.8.1

> <Gold.Id.Protein>
6NUR|6NUR_protein|mol2

> <Gold.PLP.Fitness>
51.4053

> <Gold.PLP.PLP>
-37.9418

> <Gold.PLP.part.hbond>
-5.0000

> <Gold.PLP.part.metal>
0.0000

> <Gold.PLP.part.buried>
-4.8479

> <Gold.PLP.part.nonpolar>
-28.7141

> <Gold.PLP.part.repulsive>
0.0453

> <Gold.PLP.ligand.clash>
0.1126

> <Gold.PLP.ligand.torsion>
0.8742

> <Gold.PLP.Chemscore.Hbond>
4.6903

> <Gold.PLP.Chemscore.CHOScore>
0.0000

> <Gold.PLP.Chemscore.Metal>
0.0000

> <Gold.Chemscore.Hbonds>
donor molecule, donor type, donor heavy atom, donor atom, acceptor molecule, acceptor atom, score
      L1  H     3    61       P1  8028  1.98
      P1  H  6896  6907       L1    12  0.51
      P1  H  6931  6943       L1    22  0.62
      P1  H  6934  6947       L1    22  0.53
      P1  H 10752 10765       L1    10  1.00

> <Gold.PLP.Chemscore.Internal.Correction>
1.2535

> <Gold.Rescore>
     Score         DG    S(hbond)    S(metal)    S(lipo)     H(rot)  DE(clash)    DE(int)     intcor
     11.05     -16.56       2.70        0.00      88.12       3.22       0.58       4.92       ----

> <Gold.Chemscore.Fitness>
11.0541

> <Gold.Chemscore.DG>
-16.5558

> <Gold.Chemscore.ZeroCoef>
-5.4800

> <Gold.Chemscore.Hbond>
2.6989

> <Gold.Chemscore.Metal>
0.0000

> <Gold.Chemscore.Lipo>
88.1180

> <Gold.Chemscore.Internal_Hbond>
0.0000

> <Gold.Chemscore.DEClash>
0.5808

> <Gold.Chemscore.DEInternal>
4.9209

> <Gold.Chemscore.Rot>
3.2219

> <Gold.Chemscore.Internal.Correction>
   9.000000E+99

> <Gold.Chemscore.Hbonds>
donor molecule, donor type, donor heavy atom, donor atom, acceptor molecule, acceptor atom, score
      L1  H     3    61       P1  8028  0.86
      P1  H  6896  6907       L1    12  0.41
      P1  H  6931  6943       L1    22  0.14
      P1  H  6934  6947       L1    22  0.13
      P1  H 10752 10765       L1    10  0.33

> <Gold.Chemscore.Hbond.Weighted>
-9.0142

> <Gold.Chemscore.Metal.Weighted>
-0.0000

> <Gold.Chemscore.Lipo.Weighted>
-10.3098

> <Gold.Chemscore.Internal_Hbond.Weighted>
0.0000

> <Gold.Chemscore.DEClash.Weighted>
0.5808

> <Gold.Chemscore.DEInternal.Weighted>
4.9209

> <Gold.Chemscore.Rot.Weighted>
8.2482

> <Gold.Chemscore.Internal.Correction.Weighted>
   9.000000E+99

> <Gold.Protein.RotatedTorsions>
[ 6907 6896 6895 6894 ] final  -86.82 input  -60.11 | X-H torsion
[ 7974 7965 7964 7962 ] final   12.05 input  175.53 | X-H torsion
[ 8008 7997 7996 7995 ] final  -97.31 input   59.86 | X-H torsion
[ 10167 10162 10161 10158 ] final -159.58 input  -65.29 | X-H torsion
[ 10718 10713 10712 10709 ] final -128.20 input   66.30 | X-H torsion
[ 10763 10752 10751 10750 ] final -171.84 input  -60.55 | X-H torsion
[ 11005 11000 10999 10996 ] final   10.74 input  -57.11 | X-H torsion

> <Gold.Protein.ActiveResidues>
 VAL166  LYS551  ARG553  GLY616  TRP617  ASP618  TYR619  PRO620  LYS621  CYS622 
 ASP623  PHE694  ASN695  SER759  ASP760  ASP761  ALA762  ILE779  LEU786  VAL792 
 PHE793  MET794  SER795  GLU796  ALA797  LYS798  CYS799  TRP800  GLU811  SER814 

> <Gold.Protein.RotatedAtoms>
  150.6866  134.2991  159.4698 H   0  0  0  0  0  0  0  0  0  0  0  0  # atno 6907 bound_to 6896
  152.0889  134.9418  160.0581 H   0  0  0  0  0  0  0  0  0  0  0  0  # atno 6908 bound_to 6896
  152.0742  133.4086  159.4509 H   0  0  0  0  0  0  0  0  0  0  0  0  # atno 6909 bound_to 6896
  146.2359  139.9394  142.8485 H   0  0  0  0  0  0  0  0  0  0  0  0  # atno 7974 bound_to 7965
  154.7861  140.0464  157.1165 H   0  0  0  0  0  0  0  0  0  0  0  0  # atno 8008 bound_to 7997
  154.9646  140.3082  155.4995 H   0  0  0  0  0  0  0  0  0  0  0  0  # atno 8009 bound_to 7997
  156.2943  140.2264  156.4735 H   0  0  0  0  0  0  0  0  0  0  0  0  # atno 8010 bound_to 7997
  139.6604  143.9922  152.2222 H   0  0  0  0  0  0  0  0  0  0  0  0  # atno 10167 bound_to 10162
  156.1928  130.6806  151.0445 H   0  0  0  0  0  0  0  0  0  0  0  0  # atno 10718 bound_to 10713
  154.6260  135.2881  155.0272 H   0  0  0  0  0  0  0  0  0  0  0  0  # atno 10763 bound_to 10752
  154.1449  135.6512  153.4954 H   0  0  0  0  0  0  0  0  0  0  0  0  # atno 10764 bound_to 10752
  153.0257  135.5342  154.7068 H   0  0  0  0  0  0  0  0  0  0  0  0  # atno 10765 bound_to 10752
  140.5111  134.0651  155.7818 H   0  0  0  0  0  0  0  0  0  0  0  0  # atno 11005 bound_to 11000
  145.1967  140.9836  143.4179 LP  0  0  0  0  0  0  0  0  0  0  0  0  # atno 17320 bound_to 7965
  144.9809  139.3784  143.6262 LP  0  0  0  0  0  0  0  0  0  0  0  0  # atno 17321 bound_to 7965
  139.9660  144.6526  150.8034 LP  0  0  0  0  0  0  0  0  0  0  0  0  # atno 17342 bound_to 10162
  140.7577  143.3093  151.2885 LP  0  0  0  0  0  0  0  0  0  0  0  0  # atno 17343 bound_to 10162
  157.6939  131.0800  150.7025 LP  0  0  0  0  0  0  0  0  0  0  0  0  # atno 17370 bound_to 10713
  156.7082  130.4644  149.5554 LP  0  0  0  0  0  0  0  0  0  0  0  0  # atno 17371 bound_to 10713
  141.1385  133.9179  157.2379 LP  0  0  0  0  0  0  0  0  0  0  0  0  # atno 17394 bound_to 11000
  139.9658  135.0142  156.9384 LP  0  0  0  0  0  0  0  0  0  0  0  0  # atno 17395 bound_to 11000

$$$$
