AV-unprocessed.smi:1216|AV-procd|sdf|5100|dock6
  -GOLD-   22720 4153D 1   1.00000     0.00000
 Structure written by MMmdl.
 42 43  0  0  0  0  0  0  0  0  1 V2000
  146.0724  138.9801  156.2762 C   0  0  0  0  0  0  0  0  0  0  0  0
  147.5889  138.7507  156.2349 C   0  0  2  0  0  0  0  0  0  0  0  0
  148.1186  138.7570  154.7843 C   0  0  0  0  0  0  0  0  0  0  0  0
  149.5627  138.8922  154.7125 N   0  0  0  0  0  0  0  0  0  0  0  0
  150.4700  137.9586  154.2292 C   0  0  0  0  0  0  0  0  0  0  0  0
  151.7185  138.5268  154.3459 C   0  0  0  0  0  0  0  0  0  0  0  0
  151.6054  139.7974  154.9048 N   0  0  0  0  0  0  0  0  0  0  0  0
  150.3010  139.9414  155.0998 C   0  0  0  0  0  0  0  0  0  0  0  0
  147.8961  137.4824  156.8952 N   0  0  0  0  0  0  0  0  0  0  0  0
  147.6510  137.1926  158.1830 C   0  0  0  0  0  0  0  0  0  0  0  0
  147.0793  137.9632  158.9551 O   0  0  0  0  0  0  0  0  0  0  0  0
  148.1195  135.8178  158.6725 C   0  0  0  0  0  0  0  0  0  0  0  0
  147.3329  135.3501  159.8231 N   0  0  0  0  0  0  0  0  0  0  0  0
  146.5628  134.1088  159.6413 C   0  0  0  0  0  0  0  0  0  0  0  0
  147.0858  132.9189  160.4787 C   0  0  0  0  0  0  0  0  0  0  0  0
  147.7599  133.2722  161.8192 C   0  0  0  0  0  0  0  0  0  0  0  0
  146.9324  134.1878  162.7454 C   0  0  0  0  0  0  0  0  0  0  0  0
  146.4303  135.5174  162.1336 C   0  0  0  0  0  0  0  0  0  0  0  0
  147.2966  136.0541  160.9826 C   0  0  0  0  0  0  0  0  0  0  0  0
  147.9236  137.1003  161.1524 O   0  0  0  0  0  0  0  0  0  0  0  0
  145.8075  139.9330  155.8170 H   0  0  0  0  0  0  0  0  0  0  0  0
  145.7049  138.9977  157.3029 H   0  0  0  0  0  0  0  0  0  0  0  0
  145.5364  138.1941  155.7433 H   0  0  0  0  0  0  0  0  0  0  0  0
  148.0528  139.5747  156.7803 H   0  0  0  0  0  0  0  0  0  0  0  0
  147.8236  137.8439  154.2650 H   0  0  0  0  0  0  0  0  0  0  0  0
  147.6798  139.5868  154.2293 H   0  0  0  0  0  0  0  0  0  0  0  0
  150.1600  136.9987  153.8437 H   0  0  0  0  0  0  0  0  0  0  0  0
  152.6820  138.1213  154.0738 H   0  0  0  0  0  0  0  0  0  0  0  0
  149.8716  140.8363  155.5255 H   0  0  0  0  0  0  0  0  0  0  0  0
  148.3644  136.7831  156.3373 H   0  0  0  0  0  0  0  0  0  0  0  0
  148.0398  135.1107  157.8462 H   0  0  0  0  0  0  0  0  0  0  0  0
  149.1813  135.8476  158.9249 H   0  0  0  0  0  0  0  0  0  0  0  0
  145.5164  134.2987  159.8808 H   0  0  0  0  0  0  0  0  0  0  0  0
  146.5413  133.8204  158.5896 H   0  0  0  0  0  0  0  0  0  0  0  0
  146.2631  132.2249  160.6545 H   0  0  0  0  0  0  0  0  0  0  0  0
  147.8113  132.3673  159.8799 H   0  0  0  0  0  0  0  0  0  0  0  0
  147.9886  132.3479  162.3505 H   0  0  0  0  0  0  0  0  0  0  0  0
  148.7297  133.7324  161.6251 H   0  0  0  0  0  0  0  0  0  0  0  0
  146.0713  133.6306  163.1158 H   0  0  0  0  0  0  0  0  0  0  0  0
  147.5343  134.4136  163.6263 H   0  0  0  0  0  0  0  0  0  0  0  0
  145.4053  135.4055  161.7809 H   0  0  0  0  0  0  0  0  0  0  0  0
  146.3712  136.2731  162.9182 H   0  0  0  0  0  0  0  0  0  0  0  0
  1  2  1  0  0  0  0
  1 21  1  0  0  0  0
  1 22  1  0  0  0  0
  1 23  1  0  0  0  0
  2  3  1  0  0  0  0
  2  9  1  0  0  0  0
  2 24  1  0  0  0  0
  3  4  1  0  0  0  0
  3 25  1  0  0  0  0
  3 26  1  0  0  0  0
  4  8  1  0  0  0  0
  4  5  1  0  0  0  0
  5  6  2  0  0  0  0
  5 27  1  0  0  0  0
  6  7  1  0  0  0  0
  6 28  1  0  0  0  0
  7  8  2  0  0  0  0
  8 29  1  0  0  0  0
  9 10  1  0  0  0  0
  9 30  1  0  0  0  0
 10 11  2  0  0  0  0
 10 12  1  0  0  0  0
 12 13  1  0  0  0  0
 12 31  1  0  0  0  0
 12 32  1  0  0  0  0
 13 19  1  0  0  0  0
 13 14  1  0  0  0  0
 14 15  1  0  0  0  0
 14 33  1  0  0  0  0
 14 34  1  0  0  0  0
 15 16  1  0  0  0  0
 15 35  1  0  0  0  0
 15 36  1  0  0  0  0
 16 17  1  0  0  0  0
 16 37  1  0  0  0  0
 16 38  1  0  0  0  0
 17 18  1  0  0  0  0
 17 39  1  0  0  0  0
 17 40  1  0  0  0  0
 18 19  1  0  0  0  0
 18 41  1  0  0  0  0
 18 42  1  0  0  0  0
 19 20  2  0  0  0  0
M  END
> <s_m_source_file>
AV-unprocessed.smi

> <i_m_source_file_index>
1216

> <i_lp_mmshare_version>
43012

> <i_f3d_flags>
0

> <s_epik_input>
W2NIXTFuW2NIXVtjSF1uMVtDSDJdW0NAQEhdKFtDSDNdKVtOSF1DKD1PKVtDSDJdTjJbQ0gyXVtDSDJdW0NIMl1bQ0gyXVtDSDJdQzI9Tw==

> <s_epik_cmdline>
J2VwaWtfcHl0aG9uJywgJy1waCcsICc3LjAnLCAnLXRuJywgJzgnLCAnLW1hJywgJzIwMCcsICctbWV0YWxfYmluZGluZycsICctaW1hZScsICc8aW5maWxlLm1hZT4nLCAnLW9tYWUnLCAnPG91dGZpbGUubWFlPic=

> <r_lp_tautomer_probability>
1

> <r_epik_Ionization_Penalty>
0.623868

> <r_epik_Ionization_Penalty_Charging>
0.623868

> <r_epik_Ionization_Penalty_Neutral>
4.50838e-08

> <r_epik_State_Penalty>
0.640129

> <r_epik_Charging_Adjusted_Penalty>
1.264

> <i_epik_Tot_Q>
0

> <i_epik_Tot_abs_Q>
0

> <r_epik_Metal_State_Penalty>
0.307431

> <b_epik_Metal_Only>
0

> <s_lp_Force_Field>
OPLS_2005

> <r_lp_Energy>
19.0473

> <b_lp_Chiralities_Consistent>
1

> <s_lp_Variant>
AV-unprocessed.smi:1216-3

> <Gold.Version>
5.8.1

> <Gold.Id.Protein>
6NUR|6NUR_protein|mol2

> <Gold.PLP.Fitness>
40.9990

> <Gold.PLP.PLP>
-31.1651

> <Gold.PLP.part.hbond>
-4.0000

> <Gold.PLP.part.metal>
0.0000

> <Gold.PLP.part.buried>
-3.5036

> <Gold.PLP.part.nonpolar>
-23.7217

> <Gold.PLP.part.repulsive>
0.0550

> <Gold.PLP.ligand.clash>
0.0000

> <Gold.PLP.ligand.torsion>
0.4903

> <Gold.PLP.Chemscore.Hbond>
2.5200

> <Gold.PLP.Chemscore.CHOScore>
1.0645

> <Gold.PLP.Chemscore.Metal>
0.0000

> <Gold.Chemscore.Hbonds>
donor molecule, donor type, donor heavy atom, donor atom, acceptor molecule, acceptor atom, score
      P1  H  6931  6943       L1    20  1.00
      P1  H  6934  6947       L1    20  0.70
      P1  H  7989  7998       L1     7  0.75
      L1  C     5    27       P1  7948  1.00
      L1  C     5    27       P1  7949  0.08

> <Gold.PLP.Chemscore.Internal.Correction>
0.0610

> <Gold.Rescore>
     Score         DG    S(hbond)    S(metal)    S(lipo)     H(rot)  DE(clash)    DE(int)     intcor
     10.30     -15.04       2.72        0.00      50.63       2.13       0.01       4.73       ----

> <Gold.Chemscore.Fitness>
10.2988

> <Gold.Chemscore.DG>
-15.0374

> <Gold.Chemscore.ZeroCoef>
-5.4800

> <Gold.Chemscore.Hbond>
2.7235

> <Gold.Chemscore.Metal>
0.0000

> <Gold.Chemscore.Lipo>
50.6270

> <Gold.Chemscore.Internal_Hbond>
0.0000

> <Gold.Chemscore.DEClash>
0.0102

> <Gold.Chemscore.DEInternal>
4.7283

> <Gold.Chemscore.Rot>
2.1338

> <Gold.Chemscore.Internal.Correction>
   9.000000E+99

> <Gold.Chemscore.Hbonds>
donor molecule, donor type, donor heavy atom, donor atom, acceptor molecule, acceptor atom, score
      P1  H  6931  6943       L1    20  0.96
      P1  H  6934  6947       L1    20  0.66
      P1  H  7989  7998       L1     7  0.04

> <Gold.Chemscore.Hbond.Weighted>
-9.0965

> <Gold.Chemscore.Metal.Weighted>
-0.0000

> <Gold.Chemscore.Lipo.Weighted>
-5.9234

> <Gold.Chemscore.Internal_Hbond.Weighted>
0.0000

> <Gold.Chemscore.DEClash.Weighted>
0.0102

> <Gold.Chemscore.DEInternal.Weighted>
4.7283

> <Gold.Chemscore.Rot.Weighted>
5.4625

> <Gold.Chemscore.Internal.Correction.Weighted>
   9.000000E+99

> <Gold.Protein.RotatedTorsions>
[ 6907 6896 6895 6894 ] final  -28.85 input  -60.11 | X-H torsion
[ 7974 7965 7964 7962 ] final   73.96 input  175.53 | X-H torsion
[ 8008 7997 7996 7995 ] final -150.68 input   59.86 | X-H torsion
[ 10167 10162 10161 10158 ] final  -44.88 input  -65.29 | X-H torsion
[ 10718 10713 10712 10709 ] final  -68.80 input   66.30 | X-H torsion
[ 10763 10752 10751 10750 ] final  -88.33 input  -60.55 | X-H torsion
[ 11005 11000 10999 10996 ] final   69.36 input  -57.11 | X-H torsion

> <Gold.Protein.ActiveResidues>
 VAL166  LYS551  ARG553  GLY616  TRP617  ASP618  TYR619  PRO620  LYS621  CYS622 
 ASP623  PHE694  ASN695  SER759  ASP760  ASP761  ALA762  ILE779  LEU786  VAL792 
 PHE793  MET794  SER795  GLU796  ALA797  LYS798  CYS799  TRP800  GLU811  SER814 

> <Gold.Protein.RotatedAtoms>
  151.1272  135.0111  159.8565 H   0  0  0  0  0  0  0  0  0  0  0  0  # atno 6907 bound_to 6896
  152.5450  134.1652  159.8584 H   0  0  0  0  0  0  0  0  0  0  0  0  # atno 6908 bound_to 6896
  151.1716  133.4736  159.2627 H   0  0  0  0  0  0  0  0  0  0  0  0  # atno 6909 bound_to 6896
  145.7343  139.2696  143.1523 H   0  0  0  0  0  0  0  0  0  0  0  0  # atno 7974 bound_to 7965
  155.6274  140.0688  157.2659 H   0  0  0  0  0  0  0  0  0  0  0  0  # atno 8008 bound_to 7997
  154.4214  140.1773  156.1485 H   0  0  0  0  0  0  0  0  0  0  0  0  # atno 8009 bound_to 7997
  155.9960  140.3340  155.6802 H   0  0  0  0  0  0  0  0  0  0  0  0  # atno 8010 bound_to 7997
  140.6880  143.2908  151.3558 H   0  0  0  0  0  0  0  0  0  0  0  0  # atno 10167 bound_to 10162
  156.0487  130.4301  150.2054 H   0  0  0  0  0  0  0  0  0  0  0  0  # atno 10718 bound_to 10713
  154.6434  135.5381  153.7816 H   0  0  0  0  0  0  0  0  0  0  0  0  # atno 10763 bound_to 10752
  153.0346  135.6464  154.1126 H   0  0  0  0  0  0  0  0  0  0  0  0  # atno 10764 bound_to 10752
  154.1048  135.2930  155.3223 H   0  0  0  0  0  0  0  0  0  0  0  0  # atno 10765 bound_to 10752
  139.9658  134.6983  156.0549 H   0  0  0  0  0  0  0  0  0  0  0  0  # atno 11005 bound_to 11000
  146.0508  140.8071  142.9783 LP  0  0  0  0  0  0  0  0  0  0  0  0  # atno 17320 bound_to 7965
  144.6885  140.3049  143.7257 LP  0  0  0  0  0  0  0  0  0  0  0  0  # atno 17321 bound_to 7965
  139.6255  144.0822  152.2430 LP  0  0  0  0  0  0  0  0  0  0  0  0  # atno 17342 bound_to 10162
  140.0280  144.6102  150.7511 LP  0  0  0  0  0  0  0  0  0  0  0  0  # atno 17343 bound_to 10162
  157.0140  130.9959  151.3358 LP  0  0  0  0  0  0  0  0  0  0  0  0  # atno 17370 bound_to 10713
  157.5390  130.8107  149.8006 LP  0  0  0  0  0  0  0  0  0  0  0  0  # atno 17371 bound_to 10713
  141.1337  133.6580  156.3535 LP  0  0  0  0  0  0  0  0  0  0  0  0  # atno 17394 bound_to 11000
  140.5400  134.6130  157.5377 LP  0  0  0  0  0  0  0  0  0  0  0  0  # atno 17395 bound_to 11000

$$$$
