AV-unprocessed.smi:101|AV-procd|sdf|942|dock3
  -GOLD-   2262017463D 1   1.00000     0.00000
 Structure written by MMmdl.
 43 45  0  0  0  0  0  0  0  0  2 V2000
  144.4127  142.8674  155.6677 C   0  0  0  0  0  0  0  0  0  0  0  0
  145.6221  142.0281  156.0407 C   0  0  0  0  0  0  0  0  0  0  0  0
  146.5140  141.5996  155.1203 C   0  0  0  0  0  0  0  0  0  0  0  0
  147.6159  140.8368  155.4659 N   0  0  0  0  0  0  0  0  0  0  0  0
  148.6066  140.3839  154.4168 C   0  0  1  0  0  0  0  0  0  0  0  0
  149.9052  140.5777  154.9007 O   0  0  0  0  0  0  0  0  0  0  0  0
  150.6476  139.3655  154.8265 C   0  0  1  0  0  0  0  0  0  0  0  0
  151.6780  139.3323  155.9624 C   0  0  0  0  0  0  0  0  0  0  0  0
  151.7682  140.6148  156.5609 O   0  0  0  0  0  0  0  0  0  0  0  0
  152.5965  140.8178  157.6029 C   0  0  0  0  0  0  0  0  0  0  0  0
  153.4949  140.0367  157.9230 O   0  0  0  0  0  0  0  0  0  0  0  0
  152.3119  142.0882  158.3302 C   0  0  0  0  0  0  0  0  0  0  0  0
  152.9955  142.3640  159.5375 C   0  0  0  0  0  0  0  0  0  0  0  0
  152.7475  143.5557  160.2462 C   0  0  0  0  0  0  0  0  0  0  0  0
  151.8144  144.4874  159.7551 C   0  0  0  0  0  0  0  0  0  0  0  0
  151.1289  144.2256  158.5544 C   0  0  0  0  0  0  0  0  0  0  0  0
  151.3745  143.0337  157.8449 C   0  0  0  0  0  0  0  0  0  0  0  0
  149.5801  138.2742  154.9062 C   0  0  2  0  0  0  0  0  0  0  0  0
  150.0009  137.0315  154.3759 O   0  0  0  0  0  0  0  0  0  0  0  0
  148.4224  138.8859  154.1284 C   0  0  2  0  0  0  0  0  0  0  0  0
  148.4963  138.6310  152.7373 O   0  0  0  0  0  0  0  0  0  0  0  0
  147.8492  140.5177  156.8287 C   0  0  0  0  0  0  0  0  0  0  0  0
  148.8655  139.8812  157.1084 O   0  0  0  0  0  0  0  0  0  0  0  0
  146.9493  140.9367  157.7634 N   0  5  0  0  0  0  0  0  0  0  0  0
  145.8429  141.6695  157.4470 C   0  0  0  0  0  0  0  0  0  0  0  0
  145.0358  142.0367  158.3004 O   0  0  0  0  0  0  0  0  0  0  0  0
  144.3762  143.0550  154.5945 H   0  0  0  0  0  0  0  0  0  0  0  0
  144.4456  143.8301  156.1783 H   0  0  0  0  0  0  0  0  0  0  0  0
  143.4923  142.3571  155.9527 H   0  0  0  0  0  0  0  0  0  0  0  0
  146.3591  141.8705  154.0868 H   0  0  0  0  0  0  0  0  0  0  0  0
  148.4510  141.0312  153.5522 H   0  0  0  0  0  0  0  0  0  0  0  0
  151.1444  139.3427  153.8548 H   0  0  0  0  0  0  0  0  0  0  0  0
  151.3722  138.6086  156.7188 H   0  0  0  0  0  0  0  0  0  0  0  0
  152.6510  139.0171  155.5826 H   0  0  0  0  0  0  0  0  0  0  0  0
  153.7170  141.6641  159.9340 H   0  0  0  0  0  0  0  0  0  0  0  0
  153.2750  143.7547  161.1675 H   0  0  0  0  0  0  0  0  0  0  0  0
  151.6251  145.4016  160.2982 H   0  0  0  0  0  0  0  0  0  0  0  0
  150.4130  144.9401  158.1759 H   0  0  0  0  0  0  0  0  0  0  0  0
  150.8319  142.8645  156.9263 H   0  0  0  0  0  0  0  0  0  0  0  0
  149.2792  138.1336  155.9454 H   0  0  0  0  0  0  0  0  0  0  0  0
  149.8440  137.0418  153.4438 H   0  0  0  0  0  0  0  0  0  0  0  0
  147.4573  138.5274  154.4902 H   0  0  0  0  0  0  0  0  0  0  0  0
  149.0498  137.8759  152.6049 H   0  0  0  0  0  0  0  0  0  0  0  0
  1  2  1  0  0  0  0
  1 27  1  0  0  0  0
  1 28  1  0  0  0  0
  1 29  1  0  0  0  0
  2 25  1  0  0  0  0
  2  3  2  0  0  0  0
  3  4  1  0  0  0  0
  3 30  1  0  0  0  0
  4  5  1  0  0  0  0
  4 22  1  0  0  0  0
  5 20  1  0  0  0  0
  5  6  1  0  0  0  0
  5 31  1  0  0  0  0
  6  7  1  0  0  0  0
  7  8  1  0  0  0  0
  7 18  1  0  0  0  0
  7 32  1  0  0  0  0
  8  9  1  0  0  0  0
  8 33  1  0  0  0  0
  8 34  1  0  0  0  0
  9 10  1  0  0  0  0
 10 11  2  0  0  0  0
 10 12  1  0  0  0  0
 12 17  1  0  0  0  0
 12 13  2  0  0  0  0
 13 14  1  0  0  0  0
 13 35  1  0  0  0  0
 14 15  2  0  0  0  0
 14 36  1  0  0  0  0
 15 16  1  0  0  0  0
 15 37  1  0  0  0  0
 16 17  2  0  0  0  0
 16 38  1  0  0  0  0
 17 39  1  0  0  0  0
 18 19  1  0  0  0  0
 18 20  1  0  0  0  0
 18 40  1  0  0  0  0
 19 41  1  0  0  0  0
 20 21  1  0  0  0  0
 20 42  1  0  0  0  0
 21 43  1  0  0  0  0
 22 23  2  0  0  0  0
 22 24  1  0  0  0  0
 24 25  1  0  0  0  0
 25 26  2  0  0  0  0
M  CHG  1  24  -1
M  END
> <s_m_source_file>
AV-unprocessed.smi

> <i_m_source_file_index>
101

> <i_lp_mmshare_version>
43012

> <i_f3d_flags>
0

> <s_epik_input>
Tz1jMVtuSF1jKD1PKW4oW2NIXWMxW0NIM10pW0NAQEhdMk9bQ0BIXShbQ0BASF0oW09IXSlbQ0BIXTJbT0hdKVtDSDJdT0MoPU8pYzNbY0hdW2NIXVtjSF1bY0hdW2NIXTM=

> <s_epik_cmdline>
J2VwaWtfcHl0aG9uJywgJy1waCcsICc3LjAnLCAnLXRuJywgJzgnLCAnLW1hJywgJzIwMCcsICctbWV0YWxfYmluZGluZycsICctaW1hZScsICc8aW5maWxlLm1hZT4nLCAnLW9tYWUnLCAnPG91dGZpbGUubWFlPic=

> <r_lp_tautomer_probability>
0.999537

> <r_epik_Ionization_Penalty>
3.21006

> <r_epik_Ionization_Penalty_Charging>
5.75142e-08

> <r_epik_Ionization_Penalty_Neutral>
3.21006

> <r_epik_State_Penalty>
3.20925

> <r_epik_Charging_Adjusted_Penalty>
3.20925

> <i_epik_Tot_Q>
-1

> <i_epik_Tot_abs_Q>
1

> <r_epik_Metal_State_Penalty>
0.119957

> <b_epik_Metal_Only>
1

> <s_epik_Chemistry_Notes>
This compound has an ester and may undergo hydrolysis at high or low pH. This compound contains an acetal/aminal-like group ( X-CH(R)-Y where X, Y are N, S, or O) that may be acid/base labile, releasing an aldehyde.

> <s_lp_Force_Field>
OPLS_2005

> <r_lp_Energy>
44.5591

> <b_lp_Chiralities_Consistent>
1

> <s_lp_Variant>
AV-unprocessed.smi:101-30

> <Gold.Version>
5.8.1

> <Gold.Id.Protein>
6NUR|6NUR_protein|mol2

> <Gold.PLP.Fitness>
54.6832

> <Gold.PLP.PLP>
-48.4773

> <Gold.PLP.part.hbond>
-4.1057

> <Gold.PLP.part.metal>
0.0000

> <Gold.PLP.part.buried>
-7.2664

> <Gold.PLP.part.nonpolar>
-37.4300

> <Gold.PLP.part.repulsive>
0.3602

> <Gold.PLP.ligand.clash>
0.1716

> <Gold.PLP.ligand.torsion>
1.3383

> <Gold.PLP.Chemscore.Hbond>
3.0000

> <Gold.PLP.Chemscore.CHOScore>
0.0000

> <Gold.PLP.Chemscore.Metal>
0.0000

> <Gold.Chemscore.Hbonds>
donor molecule, donor type, donor heavy atom, donor atom, acceptor molecule, acceptor atom, score
      L1  H    19    41       P1  7948  0.99
      L1  H    21    43       P1  7948  0.80
      P1  H  7997  8010       L1    11  0.70

> <Gold.PLP.Chemscore.Internal.Correction>
0.0541

> <Gold.Rescore>
     Score         DG    S(hbond)    S(metal)    S(lipo)     H(rot)  DE(clash)    DE(int)     intcor
     13.18     -18.84       2.79        0.00     105.97       3.27       0.05       5.61       ----

> <Gold.Chemscore.Fitness>
13.1787

> <Gold.Chemscore.DG>
-18.8419

> <Gold.Chemscore.ZeroCoef>
-5.4800

> <Gold.Chemscore.Hbond>
2.7914

> <Gold.Chemscore.Metal>
0.0000

> <Gold.Chemscore.Lipo>
105.9707

> <Gold.Chemscore.Internal_Hbond>
0.0000

> <Gold.Chemscore.DEClash>
0.0494

> <Gold.Chemscore.DEInternal>
5.6138

> <Gold.Chemscore.Rot>
3.2656

> <Gold.Chemscore.Internal.Correction>
   9.000000E+99

> <Gold.Chemscore.Hbonds>
donor molecule, donor type, donor heavy atom, donor atom, acceptor molecule, acceptor atom, score
      L1  H    19    41       P1  7948  0.42
      L1  H    21    43       P1  7948  0.79
      P1  H  7997  8010       L1    11  0.59

> <Gold.Chemscore.Hbond.Weighted>
-9.3232

> <Gold.Chemscore.Metal.Weighted>
-0.0000

> <Gold.Chemscore.Lipo.Weighted>
-12.3986

> <Gold.Chemscore.Internal_Hbond.Weighted>
0.0000

> <Gold.Chemscore.DEClash.Weighted>
0.0494

> <Gold.Chemscore.DEInternal.Weighted>
5.6138

> <Gold.Chemscore.Rot.Weighted>
8.3598

> <Gold.Chemscore.Internal.Correction.Weighted>
   9.000000E+99

> <Gold.Protein.RotatedTorsions>
[ 6907 6896 6895 6894 ] final  164.27 input  -60.11 | X-H torsion
[ 7974 7965 7964 7962 ] final  -76.65 input  175.53 | X-H torsion
[ 8008 7997 7996 7995 ] final   35.12 input   59.86 | X-H torsion
[ 10167 10162 10161 10158 ] final  173.20 input  -65.29 | X-H torsion
[ 10718 10713 10712 10709 ] final  -83.17 input   66.30 | X-H torsion
[ 10763 10752 10751 10750 ] final   10.52 input  -60.55 | X-H torsion
[ 11005 11000 10999 10996 ] final   38.44 input  -57.11 | X-H torsion

> <Gold.Protein.ActiveResidues>
 VAL166  LYS551  ARG553  GLY616  TRP617  ASP618  TYR619  PRO620  LYS621  CYS622 
 ASP623  PHE694  ASN695  SER759  ASP760  ASP761  ALA762  ILE779  LEU786  VAL792 
 PHE793  MET794  SER795  GLU796  ALA797  LYS798  CYS799  TRP800  GLU811  SER814 

> <Gold.Protein.RotatedAtoms>
  151.9124  133.3564  159.3868 H   0  0  0  0  0  0  0  0  0  0  0  0  # atno 6907 bound_to 6896
  150.7055  134.4718  159.5438 H   0  0  0  0  0  0  0  0  0  0  0  0  # atno 6908 bound_to 6896
  152.2327  134.8306  160.0522 H   0  0  0  0  0  0  0  0  0  0  0  0  # atno 6909 bound_to 6896
  145.6101  140.9388  143.1194 H   0  0  0  0  0  0  0  0  0  0  0  0  # atno 7974 bound_to 7965
  155.1659  140.3287  155.4402 H   0  0  0  0  0  0  0  0  0  0  0  0  # atno 8008 bound_to 7997
  156.2527  140.1952  156.6715 H   0  0  0  0  0  0  0  0  0  0  0  0  # atno 8009 bound_to 7997
  154.6372  140.0575  156.9788 H   0  0  0  0  0  0  0  0  0  0  0  0  # atno 8010 bound_to 7997
  139.5100  144.3288  152.0131 H   0  0  0  0  0  0  0  0  0  0  0  0  # atno 10167 bound_to 10162
  156.0022  130.4657  150.4217 H   0  0  0  0  0  0  0  0  0  0  0  0  # atno 10718 bound_to 10713
  153.2023  135.6858  153.8216 H   0  0  0  0  0  0  0  0  0  0  0  0  # atno 10763 bound_to 10752
  153.7477  135.3228  155.3316 H   0  0  0  0  0  0  0  0  0  0  0  0  # atno 10764 bound_to 10752
  154.8178  135.4673  154.0795 H   0  0  0  0  0  0  0  0  0  0  0  0  # atno 10765 bound_to 10752
  140.2126  134.3737  155.8042 H   0  0  0  0  0  0  0  0  0  0  0  0  # atno 11005 bound_to 11000
  144.7273  139.7834  143.7360 LP  0  0  0  0  0  0  0  0  0  0  0  0  # atno 17320 bound_to 7965
  146.1511  139.4594  143.0048 LP  0  0  0  0  0  0  0  0  0  0  0  0  # atno 17321 bound_to 7965
  140.2728  144.3945  150.6145 LP  0  0  0  0  0  0  0  0  0  0  0  0  # atno 17342 bound_to 10162
  140.6076  143.2168  151.6951 LP  0  0  0  0  0  0  0  0  0  0  0  0  # atno 17343 bound_to 10162
  157.2272  131.0496  151.2513 LP  0  0  0  0  0  0  0  0  0  0  0  0  # atno 17370 bound_to 10713
  157.3745  130.7198  149.6587 LP  0  0  0  0  0  0  0  0  0  0  0  0  # atno 17371 bound_to 10713
  141.2226  133.7151  156.8442 LP  0  0  0  0  0  0  0  0  0  0  0  0  # atno 17394 bound_to 11000
  140.1935  134.8948  157.3088 LP  0  0  0  0  0  0  0  0  0  0  0  0  # atno 17395 bound_to 11000

$$$$
