AV-unprocessed.smi:1922|AV-procd|sdf|7788|dock5
  -GOLD-   22720 9533D 1   1.00000     0.00000
 Structure written by MMmdl.
 35 36  0  0  0  0  0  0  0  0  1 V2000
  149.5382  141.7993  157.5707 O   0  0  0  0  0  0  0  0  0  0  0  0
  150.4970  141.8350  156.8004 C   0  0  0  0  0  0  0  0  0  0  0  0
  150.2506  142.0946  155.3034 C   0  0  0  0  0  0  0  0  0  0  0  0
  149.3632  141.1205  154.6459 N   0  0  0  0  0  0  0  0  0  0  0  0
  148.0359  141.5175  154.5807 N   0  0  0  0  0  0  0  0  0  0  0  0
  147.1556  140.7401  154.0466 C   0  0  0  0  0  0  0  0  0  0  0  0
  145.8522  141.1707  154.0059 O   0  0  0  0  0  0  0  0  0  0  0  0
  147.5256  139.4506  153.5054 C   0  0  0  0  0  0  0  0  0  0  0  0
  148.8212  139.0738  153.5708 C   0  0  0  0  0  0  0  0  0  0  0  0
  149.8448  139.9298  154.1726 C   0  0  0  0  0  0  0  0  0  0  0  0
  151.0291  139.6060  154.2570 O   0  0  0  0  0  0  0  0  0  0  0  0
  151.7635  141.6629  157.2097 N   0  0  0  0  0  0  0  0  0  0  0  0
  152.1784  141.4474  158.5876 C   0  0  0  0  0  0  0  0  0  0  0  0
  151.7081  142.6084  159.4792 C   0  0  0  0  0  0  0  0  0  0  0  0
  152.1108  143.9887  158.9583 C   0  0  0  0  0  0  0  0  0  0  0  0
  151.9700  144.9171  160.1687 C   0  0  0  0  0  0  0  0  0  0  0  0
  152.1346  144.0294  161.4123 C   0  0  0  0  0  0  0  0  0  0  0  0
  152.2794  142.5906  160.9015 C   0  0  0  0  0  0  0  0  0  0  0  0
  145.5948  141.1113  153.0988 H   0  0  0  0  0  0  0  0  0  0  0  0
  149.8353  143.0989  155.2033 H   0  0  0  0  0  0  0  0  0  0  0  0
  151.2140  142.1308  154.7917 H   0  0  0  0  0  0  0  0  0  0  0  0
  146.7779  138.8111  153.0599 H   0  0  0  0  0  0  0  0  0  0  0  0
  149.1121  138.1138  153.1700 H   0  0  0  0  0  0  0  0  0  0  0  0
  152.4944  141.7042  156.5143 H   0  0  0  0  0  0  0  0  0  0  0  0
  151.7643  140.5024  158.9429 H   0  0  0  0  0  0  0  0  0  0  0  0
  153.2650  141.3600  158.6321 H   0  0  0  0  0  0  0  0  0  0  0  0
  150.6193  142.5790  159.5502 H   0  0  0  0  0  0  0  0  0  0  0  0
  153.1516  143.9740  158.6313 H   0  0  0  0  0  0  0  0  0  0  0  0
  151.5034  144.3114  158.1123 H   0  0  0  0  0  0  0  0  0  0  0  0
  152.6998  145.7269  160.1410 H   0  0  0  0  0  0  0  0  0  0  0  0
  150.9788  145.3724  160.1732 H   0  0  0  0  0  0  0  0  0  0  0  0
  152.9999  144.3233  162.0078 H   0  0  0  0  0  0  0  0  0  0  0  0
  151.2548  144.1195  162.0509 H   0  0  0  0  0  0  0  0  0  0  0  0
  151.7751  141.8696  161.5462 H   0  0  0  0  0  0  0  0  0  0  0  0
  153.3363  142.3212  160.8724 H   0  0  0  0  0  0  0  0  0  0  0  0
  1  2  2  0  0  0  0
  2  3  1  0  0  0  0
  2 12  1  0  0  0  0
  3 20  1  0  0  0  0
  3 21  1  0  0  0  0
  3  4  1  0  0  0  0
  4  5  1  0  0  0  0
  4 10  1  0  0  0  0
  5  6  2  0  0  0  0
  6  7  1  0  0  0  0
  6  8  1  0  0  0  0
  7 19  1  0  0  0  0
  8 22  1  0  0  0  0
  8  9  2  0  0  0  0
  9 23  1  0  0  0  0
  9 10  1  0  0  0  0
 10 11  2  0  0  0  0
 12 13  1  0  0  0  0
 12 24  1  0  0  0  0
 13 14  1  0  0  0  0
 13 25  1  0  0  0  0
 13 26  1  0  0  0  0
 14 18  1  0  0  0  0
 14 15  1  0  0  0  0
 14 27  1  0  0  0  0
 15 16  1  0  0  0  0
 15 28  1  0  0  0  0
 15 29  1  0  0  0  0
 16 17  1  0  0  0  0
 16 30  1  0  0  0  0
 16 31  1  0  0  0  0
 17 18  1  0  0  0  0
 17 32  1  0  0  0  0
 17 33  1  0  0  0  0
 18 34  1  0  0  0  0
 18 35  1  0  0  0  0
M  END
> <s_m_source_file>
AV-unprocessed.smi

> <i_m_source_file_index>
1922

> <i_lp_mmshare_version>
43012

> <i_f3d_flags>
0

> <s_epik_input>
W0NIMl0xW0NIMl1bQ0gyXVtDSDJdW0NIXTFbQ0gyXVtOSF1DKD1PKVtDSDJdbjJbbkhdYyg9TylbY0hdW2NIXWMyPU8=

> <s_epik_cmdline>
J2VwaWtfcHl0aG9uJywgJy1waCcsICc3LjAnLCAnLXRuJywgJzgnLCAnLW1hJywgJzIwMCcsICctbWV0YWxfYmluZGluZycsICctaW1hZScsICc8aW5maWxlLm1hZT4nLCAnLW9tYWUnLCAnPG91dGZpbGUubWFlPic=

> <r_lp_tautomer_probability>
0.9996

> <r_epik_Ionization_Penalty>
2.12182

> <r_epik_Ionization_Penalty_Charging>
3.68417e-08

> <r_epik_Ionization_Penalty_Neutral>
2.12182

> <r_epik_State_Penalty>
1.69868

> <r_epik_Charging_Adjusted_Penalty>
1.69868

> <i_epik_Tot_Q>
0

> <i_epik_Tot_abs_Q>
0

> <r_epik_Metal_State_Penalty>
1.69868

> <b_epik_Metal_Only>
0

> <s_lp_Force_Field>
OPLS_2005

> <r_lp_Energy>
31.2069

> <b_lp_Chiralities_Consistent>
1

> <s_lp_Variant>
AV-unprocessed.smi:1922-2

> <Gold.Version>
5.8.1

> <Gold.Id.Protein>
6NUR|6NUR_protein|mol2

> <Gold.PLP.Fitness>
39.1715

> <Gold.PLP.PLP>
-33.9320

> <Gold.PLP.part.hbond>
-2.0000

> <Gold.PLP.part.metal>
0.0000

> <Gold.PLP.part.buried>
-2.4790

> <Gold.PLP.part.nonpolar>
-30.3041

> <Gold.PLP.part.repulsive>
0.4109

> <Gold.PLP.ligand.clash>
0.0000

> <Gold.PLP.ligand.torsion>
0.3841

> <Gold.PLP.Chemscore.Hbond>
2.0000

> <Gold.PLP.Chemscore.CHOScore>
0.0000

> <Gold.PLP.Chemscore.Metal>
0.0000

> <Gold.Chemscore.Hbonds>
donor molecule, donor type, donor heavy atom, donor atom, acceptor molecule, acceptor atom, score
      L1  H     7    19       P1 10175  0.41
      P1  H  7989  7998       L1    11  0.85

> <Gold.PLP.Chemscore.Internal.Correction>
0.0076

> <Gold.Rescore>
     Score         DG    S(hbond)    S(metal)    S(lipo)     H(rot)  DE(clash)    DE(int)     intcor
     13.47     -15.16       1.97        0.00      82.48       2.56       0.30       1.39       ----

> <Gold.Chemscore.Fitness>
13.4706

> <Gold.Chemscore.DG>
-15.1559

> <Gold.Chemscore.ZeroCoef>
-5.4800

> <Gold.Chemscore.Hbond>
1.9702

> <Gold.Chemscore.Metal>
0.0000

> <Gold.Chemscore.Lipo>
82.4801

> <Gold.Chemscore.Internal_Hbond>
0.0000

> <Gold.Chemscore.DEClash>
0.3003

> <Gold.Chemscore.DEInternal>
1.3850

> <Gold.Chemscore.Rot>
2.5605

> <Gold.Chemscore.Internal.Correction>
   9.000000E+99

> <Gold.Chemscore.Hbonds>
donor molecule, donor type, donor heavy atom, donor atom, acceptor molecule, acceptor atom, score
      L1  H     7    19       P1 10175  0.10
      P1  H  7989  7998       L1    11  0.14

> <Gold.Chemscore.Hbond.Weighted>
-6.5805

> <Gold.Chemscore.Metal.Weighted>
-0.0000

> <Gold.Chemscore.Lipo.Weighted>
-9.6502

> <Gold.Chemscore.Internal_Hbond.Weighted>
0.0000

> <Gold.Chemscore.DEClash.Weighted>
0.3003

> <Gold.Chemscore.DEInternal.Weighted>
1.3850

> <Gold.Chemscore.Rot.Weighted>
6.5548

> <Gold.Chemscore.Internal.Correction.Weighted>
   9.000000E+99

> <Gold.Protein.RotatedTorsions>
[ 6907 6896 6895 6894 ] final  100.65 input  -60.11 | X-H torsion
[ 7974 7965 7964 7962 ] final  119.34 input  175.53 | X-H torsion
[ 8008 7997 7996 7995 ] final -135.42 input   59.86 | X-H torsion
[ 10167 10162 10161 10158 ] final   53.59 input  -65.29 | X-H torsion
[ 10718 10713 10712 10709 ] final -178.61 input   66.30 | X-H torsion
[ 10763 10752 10751 10750 ] final -100.32 input  -60.55 | X-H torsion
[ 11005 11000 10999 10996 ] final -136.15 input  -57.11 | X-H torsion

> <Gold.Protein.ActiveResidues>
 VAL166  LYS551  ARG553  GLY616  TRP617  ASP618  TYR619  PRO620  LYS621  CYS622 
 ASP623  PHE694  ASN695  SER759  ASP760  ASP761  ALA762  ILE779  LEU786  VAL792 
 PHE793  MET794  SER795  GLU796  ALA797  LYS798  CYS799  TRP800  GLU811  SER814 

> <Gold.Protein.RotatedAtoms>
  152.5367  134.0244  159.7996 H   0  0  0  0  0  0  0  0  0  0  0  0  # atno 6907 bound_to 6896
  151.0425  133.5686  159.2657 H   0  0  0  0  0  0  0  0  0  0  0  0  # atno 6908 bound_to 6896
  151.2650  135.0673  159.9166 H   0  0  0  0  0  0  0  0  0  0  0  0  # atno 6909 bound_to 6896
  145.1443  139.3249  143.4600 H   0  0  0  0  0  0  0  0  0  0  0  0  # atno 7974 bound_to 7965
  155.3783  140.0492  157.3044 H   0  0  0  0  0  0  0  0  0  0  0  0  # atno 8008 bound_to 7997
  154.5095  140.2186  155.9147 H   0  0  0  0  0  0  0  0  0  0  0  0  # atno 8009 bound_to 7997
  156.1566  140.3125  155.8741 H   0  0  0  0  0  0  0  0  0  0  0  0  # atno 8010 bound_to 7997
  140.2391  144.3603  150.6386 H   0  0  0  0  0  0  0  0  0  0  0  0  # atno 10167 bound_to 10162
  156.8468  130.9705  151.3095 H   0  0  0  0  0  0  0  0  0  0  0  0  # atno 10718 bound_to 10713
  154.7570  135.4939  153.9393 H   0  0  0  0  0  0  0  0  0  0  0  0  # atno 10763 bound_to 10752
  153.1207  135.6731  153.9349 H   0  0  0  0  0  0  0  0  0  0  0  0  # atno 10764 bound_to 10752
  153.9081  135.3102  155.3427 H   0  0  0  0  0  0  0  0  0  0  0  0  # atno 10765 bound_to 10752
  140.8832  134.1905  157.4577 H   0  0  0  0  0  0  0  0  0  0  0  0  # atno 11005 bound_to 11000
  146.3502  140.1492  142.8593 LP  0  0  0  0  0  0  0  0  0  0  0  0  # atno 17320 bound_to 7965
  145.0499  140.9009  143.5002 LP  0  0  0  0  0  0  0  0  0  0  0  0  # atno 17321 bound_to 7965
  140.6127  143.2170  151.6854 LP  0  0  0  0  0  0  0  0  0  0  0  0  # atno 17342 bound_to 10162
  139.5083  144.3615  152.0558 LP  0  0  0  0  0  0  0  0  0  0  0  0  # atno 17343 bound_to 10162
  157.6325  130.8741  149.9300 LP  0  0  0  0  0  0  0  0  0  0  0  0  # atno 17370 bound_to 10713
  156.0850  130.3669  150.0505 LP  0  0  0  0  0  0  0  0  0  0  0  0  # atno 17371 bound_to 10713
  139.8721  134.9826  156.5165 LP  0  0  0  0  0  0  0  0  0  0  0  0  # atno 17394 bound_to 11000
  140.8436  133.8186  155.9099 LP  0  0  0  0  0  0  0  0  0  0  0  0  # atno 17395 bound_to 11000

$$$$
