AV-unprocessed.smi:1648|AV-procd|sdf|6629|dock5
  -GOLD-   22720 7333D 1   1.00000     0.00000
 Structure written by MMmdl.
 42 42  0  0  0  0  0  0  0  0  2 V2000
  149.7106  126.1673  150.4220 C   0  0  0  0  0  0  0  0  0  0  0  0
  148.9304  126.7193  151.6165 C   0  0  0  0  0  0  0  0  0  0  0  0
  147.7471  126.4187  151.7556 O   0  0  0  0  0  0  0  0  0  0  0  0
  149.5519  127.5279  152.4924 N   0  0  0  0  0  0  0  0  0  0  0  0
  148.9812  128.1523  153.6892 C   0  0  2  0  0  0  0  0  0  0  0  0
  147.5733  128.6751  153.3452 C   0  0  0  0  0  0  0  0  0  0  0  0
  146.6091  128.3974  154.0604 O   0  0  0  0  0  0  0  0  0  0  0  0
  147.4702  129.4144  152.2295 N   0  0  0  0  0  0  0  0  0  0  0  0
  146.2323  129.9877  151.7107 C   0  0  1  0  0  0  0  0  0  0  0  0
  145.1565  128.8921  151.6438 C   0  0  0  0  0  0  0  0  0  0  0  0
  145.8124  131.2013  152.5688 C   0  0  0  0  0  0  0  0  0  0  0  0
  145.3407  132.3346  151.7684 N   0  0  0  0  0  0  0  0  0  0  0  0
  144.1852  133.0539  151.9375 C   0  0  0  0  0  0  0  0  0  0  0  0
  144.1775  134.0156  150.9600 C   0  0  0  0  0  0  0  0  0  0  0  0
  145.3294  133.8457  150.2396 N   0  3  0  0  0  0  0  0  0  0  0  0
  146.0363  132.8243  150.7340 C   0  0  0  0  0  0  0  0  0  0  0  0
  149.8944  129.3394  154.1175 C   0  0  0  0  0  0  0  0  0  0  0  0
  151.1408  128.8553  154.8849 C   0  0  0  0  0  0  0  0  0  0  0  0
  149.1579  130.3949  154.9694 C   0  0  0  0  0  0  0  0  0  0  0  0
  150.0454  126.9767  149.7729 H   0  0  0  0  0  0  0  0  0  0  0  0
  149.0827  125.5015  149.8289 H   0  0  0  0  0  0  0  0  0  0  0  0
  150.5798  125.5985  150.7528 H   0  0  0  0  0  0  0  0  0  0  0  0
  150.5176  127.7511  152.2985 H   0  0  0  0  0  0  0  0  0  0  0  0
  148.9270  127.4319  154.5070 H   0  0  0  0  0  0  0  0  0  0  0  0
  148.3124  129.5922  151.7012 H   0  0  0  0  0  0  0  0  0  0  0  0
  146.4116  130.3281  150.6889 H   0  0  0  0  0  0  0  0  0  0  0  0
  144.2386  129.2597  151.1851 H   0  0  0  0  0  0  0  0  0  0  0  0
  144.9071  128.5190  152.6376 H   0  0  0  0  0  0  0  0  0  0  0  0
  145.4978  128.0456  151.0468 H   0  0  0  0  0  0  0  0  0  0  0  0
  145.0145  130.9241  153.2595 H   0  0  0  0  0  0  0  0  0  0  0  0
  146.6466  131.5546  153.1769 H   0  0  0  0  0  0  0  0  0  0  0  0
  143.4722  132.8332  152.7189 H   0  0  0  0  0  0  0  0  0  0  0  0
  143.4586  134.7889  150.7308 H   0  0  0  0  0  0  0  0  0  0  0  0
  146.9823  132.4649  150.3692 H   0  0  0  0  0  0  0  0  0  0  0  0
  150.2519  129.8435  153.2177 H   0  0  0  0  0  0  0  0  0  0  0  0
  150.8616  128.3130  155.7888 H   0  0  0  0  0  0  0  0  0  0  0  0
  151.7684  129.6954  155.1838 H   0  0  0  0  0  0  0  0  0  0  0  0
  151.7639  128.1957  154.2807 H   0  0  0  0  0  0  0  0  0  0  0  0
  148.7279  129.9476  155.8661 H   0  0  0  0  0  0  0  0  0  0  0  0
  148.3523  130.8814  154.4195 H   0  0  0  0  0  0  0  0  0  0  0  0
  149.8388  131.1844  155.2887 H   0  0  0  0  0  0  0  0  0  0  0  0
  145.6091  134.4121  149.4483 H   0  0  0  0  0  0  0  0  0  0  0  0
  1  2  1  0  0  0  0
  1 20  1  0  0  0  0
  1 21  1  0  0  0  0
  1 22  1  0  0  0  0
  2  3  2  0  0  0  0
  2  4  1  0  0  0  0
  4  5  1  0  0  0  0
  4 23  1  0  0  0  0
  5  6  1  0  0  0  0
  5 17  1  0  0  0  0
  5 24  1  0  0  0  0
  6  7  2  0  0  0  0
  6  8  1  0  0  0  0
  8  9  1  0  0  0  0
  8 25  1  0  0  0  0
  9 10  1  0  0  0  0
  9 11  1  0  0  0  0
  9 26  1  0  0  0  0
 10 27  1  0  0  0  0
 10 28  1  0  0  0  0
 10 29  1  0  0  0  0
 11 12  1  0  0  0  0
 11 30  1  0  0  0  0
 11 31  1  0  0  0  0
 12 16  1  0  0  0  0
 12 13  1  0  0  0  0
 13 14  2  0  0  0  0
 13 32  1  0  0  0  0
 14 15  1  0  0  0  0
 14 33  1  0  0  0  0
 15 16  2  0  0  0  0
 15 42  1  0  0  0  0
 16 34  1  0  0  0  0
 17 18  1  0  0  0  0
 17 19  1  0  0  0  0
 17 35  1  0  0  0  0
 18 36  1  0  0  0  0
 18 37  1  0  0  0  0
 18 38  1  0  0  0  0
 19 39  1  0  0  0  0
 19 40  1  0  0  0  0
 19 41  1  0  0  0  0
M  CHG  1  15   1
M  END
> <s_m_source_file>
AV-unprocessed.smi

> <i_m_source_file_index>
1648

> <i_lp_mmshare_version>
43012

> <i_f3d_flags>
0

> <s_epik_input>
W0NIM11DKD1PKVtOSF1bQ0BASF0oW0NIXShbQ0gzXSlbQ0gzXSlDKD1PKVtOSF1bQ0BIXShbQ0gzXSlbQ0gyXW4xW2NIXVtjSF1uW2NIXTE=

> <s_epik_cmdline>
J2VwaWtfcHl0aG9uJywgJy1waCcsICc3LjAnLCAnLXRuJywgJzgnLCAnLW1hJywgJzIwMCcsICctbWV0YWxfYmluZGluZycsICctaW1hZScsICc8aW5maWxlLm1hZT4nLCAnLW9tYWUnLCAnPG91dGZpbGUubWFlPic=

> <r_lp_tautomer_probability>
1

> <r_epik_Ionization_Penalty>
0.251562

> <r_epik_Ionization_Penalty_Charging>
0

> <r_epik_Ionization_Penalty_Neutral>
0.251562

> <r_epik_State_Penalty>
0.242926

> <r_epik_Charging_Adjusted_Penalty>
0.242926

> <i_epik_Tot_Q>
1

> <i_epik_Tot_abs_Q>
1

> <r_epik_Metal_State_Penalty>
0.53388

> <b_epik_Metal_Only>
0

> <s_lp_Force_Field>
OPLS_2005

> <r_lp_Energy>
11.8238

> <b_lp_Chiralities_Consistent>
1

> <s_lp_Variant>
AV-unprocessed.smi:1648-3

> <Gold.Version>
5.8.1

> <Gold.Id.Protein>
6NUR|6NUR_protein|mol2

> <Gold.PLP.Fitness>
45.2920

> <Gold.PLP.PLP>
-34.0822

> <Gold.PLP.part.hbond>
-3.4217

> <Gold.PLP.part.metal>
0.0000

> <Gold.PLP.part.buried>
-5.2954

> <Gold.PLP.part.nonpolar>
-26.3239

> <Gold.PLP.part.repulsive>
0.2977

> <Gold.PLP.ligand.clash>
0.0000

> <Gold.PLP.ligand.torsion>
1.6282

> <Gold.PLP.Chemscore.Hbond>
2.8160

> <Gold.PLP.Chemscore.CHOScore>
1.9847

> <Gold.PLP.Chemscore.Metal>
0.0000

> <Gold.Chemscore.Hbonds>
donor molecule, donor type, donor heavy atom, donor atom, acceptor molecule, acceptor atom, score
      L1  H     4    23       P1 10737  1.00
      L1  H     8    25       P1 10747  0.82
      L1  H    15    42       P1  7921  1.00
      L1  C    13    32       P1 10957  0.94
      L1  C    16    34       P1 10747  0.94

> <Gold.PLP.Chemscore.Internal.Correction>
0.0642

> <Gold.Rescore>
     Score         DG    S(hbond)    S(metal)    S(lipo)     H(rot)  DE(clash)    DE(int)     intcor
     10.42     -15.78       2.70        0.00      68.18       2.61       1.63       3.73       ----

> <Gold.Chemscore.Fitness>
10.4229

> <Gold.Chemscore.DG>
-15.7788

> <Gold.Chemscore.ZeroCoef>
-5.4800

> <Gold.Chemscore.Hbond>
2.6983

> <Gold.Chemscore.Metal>
0.0000

> <Gold.Chemscore.Lipo>
68.1789

> <Gold.Chemscore.Internal_Hbond>
0.0000

> <Gold.Chemscore.DEClash>
1.6274

> <Gold.Chemscore.DEInternal>
3.7284

> <Gold.Chemscore.Rot>
2.6135

> <Gold.Chemscore.Internal.Correction>
   9.000000E+99

> <Gold.Chemscore.Hbonds>
donor molecule, donor type, donor heavy atom, donor atom, acceptor molecule, acceptor atom, score
      L1  H     4    23       P1 10737  0.99
      L1  H     8    25       P1 10747  0.36
      L1  H    15    42       P1  7921  0.87

> <Gold.Chemscore.Hbond.Weighted>
-9.0125

> <Gold.Chemscore.Metal.Weighted>
-0.0000

> <Gold.Chemscore.Lipo.Weighted>
-7.9769

> <Gold.Chemscore.Internal_Hbond.Weighted>
0.0000

> <Gold.Chemscore.DEClash.Weighted>
1.6274

> <Gold.Chemscore.DEInternal.Weighted>
3.7284

> <Gold.Chemscore.Rot.Weighted>
6.6906

> <Gold.Chemscore.Internal.Correction.Weighted>
   9.000000E+99

> <Gold.Protein.RotatedTorsions>
[ 6907 6896 6895 6894 ] final  -23.45 input  -60.11 | X-H torsion
[ 7974 7965 7964 7962 ] final -159.57 input  175.53 | X-H torsion
[ 8008 7997 7996 7995 ] final  -48.54 input   59.86 | X-H torsion
[ 10167 10162 10161 10158 ] final  -39.52 input  -65.29 | X-H torsion
[ 10718 10713 10712 10709 ] final -159.74 input   66.30 | X-H torsion
[ 10763 10752 10751 10750 ] final  165.29 input  -60.55 | X-H torsion
[ 11005 11000 10999 10996 ] final   40.72 input  -57.11 | X-H torsion

> <Gold.Protein.ActiveResidues>
 VAL166  LYS551  ARG553  GLY616  TRP617  ASP618  TYR619  PRO620  LYS621  CYS622 
 ASP623  PHE694  ASN695  SER759  ASP760  ASP761  ALA762  ILE779  LEU786  VAL792 
 PHE793  MET794  SER795  GLU796  ALA797  LYS798  CYS799  TRP800  GLU811  SER814 

> <Gold.Protein.RotatedAtoms>
  151.2038  135.0453  159.8882 H   0  0  0  0  0  0  0  0  0  0  0  0  # atno 6907 bound_to 6896
  152.5430  134.0821  159.8250 H   0  0  0  0  0  0  0  0  0  0  0  0  # atno 6908 bound_to 6896
  151.0965  133.5228  159.2644 H   0  0  0  0  0  0  0  0  0  0  0  0  # atno 6909 bound_to 6896
  144.7460  140.3667  143.6085 H   0  0  0  0  0  0  0  0  0  0  0  0  # atno 7974 bound_to 7965
  154.4030  140.1319  156.4355 H   0  0  0  0  0  0  0  0  0  0  0  0  # atno 8008 bound_to 7997
  155.7509  140.3488  155.5130 H   0  0  0  0  0  0  0  0  0  0  0  0  # atno 8009 bound_to 7997
  155.8950  140.1009  157.1381 H   0  0  0  0  0  0  0  0  0  0  0  0  # atno 8010 bound_to 7997
  140.7061  143.3209  151.2795 H   0  0  0  0  0  0  0  0  0  0  0  0  # atno 10167 bound_to 10162
  156.5723  130.8694  151.2841 H   0  0  0  0  0  0  0  0  0  0  0  0  # atno 10718 bound_to 10713
  154.3217  135.2756  155.2516 H   0  0  0  0  0  0  0  0  0  0  0  0  # atno 10763 bound_to 10752
  154.4866  135.5844  153.6432 H   0  0  0  0  0  0  0  0  0  0  0  0  # atno 10764 bound_to 10752
  152.9876  135.6124  154.3402 H   0  0  0  0  0  0  0  0  0  0  0  0  # atno 10765 bound_to 10752
  140.1903  134.3995  155.8150 H   0  0  0  0  0  0  0  0  0  0  0  0  # atno 11005 bound_to 11000
  145.7121  139.1687  143.2533 LP  0  0  0  0  0  0  0  0  0  0  0  0  # atno 17320 bound_to 7965
  146.1339  140.7148  142.9399 LP  0  0  0  0  0  0  0  0  0  0  0  0  # atno 17321 bound_to 7965
  139.6662  144.0100  152.2724 LP  0  0  0  0  0  0  0  0  0  0  0  0  # atno 17342 bound_to 10162
  139.9684  144.6510  150.8012 LP  0  0  0  0  0  0  0  0  0  0  0  0  # atno 17343 bound_to 10162
  157.7345  130.9747  150.2034 LP  0  0  0  0  0  0  0  0  0  0  0  0  # atno 17370 bound_to 10713
  156.2703  130.3721  149.8038 LP  0  0  0  0  0  0  0  0  0  0  0  0  # atno 17371 bound_to 10713
  141.2226  133.7043  156.8084 LP  0  0  0  0  0  0  0  0  0  0  0  0  # atno 17394 bound_to 11000
  140.2167  134.8787  157.3333 LP  0  0  0  0  0  0  0  0  0  0  0  0  # atno 17395 bound_to 11000

$$$$
