AV-unprocessed.smi:242|AV-procd|sdf|1847|dock9
  -GOLD-   2262020463D 1   1.00000     0.00000
 Structure written by MMmdl.
 58 61  0  0  0  0  0  0  0  0  2 V2000
  147.6338  130.3175  153.4757 C   0  0  0  0  0  0  0  0  0  0  0  0
  146.3026  130.2913  152.6994 C   0  0  0  0  0  0  0  0  0  0  0  0
  146.1090  128.8963  152.0729 C   0  0  0  0  0  0  0  0  0  0  0  0
  146.2595  131.3691  151.6709 N   0  3  1  0  0  0  0  0  0  0  0  0
  145.0397  131.4104  150.8310 C   0  0  0  0  0  0  0  0  0  0  0  0
  144.9027  132.8629  150.3844 C   0  0  0  0  0  0  0  0  0  0  0  0
  145.3294  133.6189  151.6391 C   0  0  2  0  0  0  0  0  0  0  0  0
  145.6958  135.0196  151.4060 N   0  0  0  0  0  0  0  0  0  0  0  0
  144.8404  135.7947  150.5154 C   0  0  0  0  0  0  0  0  0  0  0  0
  146.0332  135.7451  152.4988 C   0  0  0  0  0  0  0  0  0  0  0  0
  146.0240  135.1708  153.7311 N   0  0  0  0  0  0  0  0  0  0  0  0
  146.3574  135.8915  154.8064 C   0  0  0  0  0  0  0  0  0  0  0  0
  146.7237  137.1735  154.8713 N   0  0  0  0  0  0  0  0  0  0  0  0
  146.7229  137.7537  153.6367 C   0  0  0  0  0  0  0  0  0  0  0  0
  146.3915  137.1161  152.4089 C   0  0  0  0  0  0  0  0  0  0  0  0
  146.5110  138.0136  151.3559 N   0  0  0  0  0  0  0  0  0  0  0  0
  146.8942  139.1220  151.9292 C   0  0  0  0  0  0  0  0  0  0  0  0
  147.0405  139.0571  153.2972 N   0  0  0  0  0  0  0  0  0  0  0  0
  147.4596  140.1350  154.1802 C   0  0  0  0  0  0  0  0  0  0  0  0
  148.9952  140.2660  154.3367 C   0  0  0  0  0  0  0  0  0  0  0  0
  149.5048  140.8421  153.1468 O   0  0  0  0  0  0  0  0  0  0  0  0
  149.3334  141.2025  155.5141 C   0  0  0  0  0  0  0  0  0  0  0  0
  150.8411  141.2299  155.8215 C   0  0  0  0  0  0  0  0  0  0  0  0
  151.3125  139.9093  156.0590 O   0  0  0  0  0  0  0  0  0  0  0  0
  151.1768  139.0652  154.9225 C   0  0  0  0  0  0  0  0  0  0  0  0
  149.6906  138.9047  154.5554 C   0  0  0  0  0  0  0  0  0  0  0  0
  146.4788  132.7472  152.1804 C   0  0  0  0  0  0  0  0  0  0  0  0
  147.6717  129.5131  154.2110 H   0  0  0  0  0  0  0  0  0  0  0  0
  147.7800  131.2487  154.0221 H   0  0  0  0  0  0  0  0  0  0  0  0
  148.4844  130.1898  152.8055 H   0  0  0  0  0  0  0  0  0  0  0  0
  145.4873  130.4625  153.4040 H   0  0  0  0  0  0  0  0  0  0  0  0
  146.1921  128.1149  152.8291 H   0  0  0  0  0  0  0  0  0  0  0  0
  146.8618  128.6960  151.3096 H   0  0  0  0  0  0  0  0  0  0  0  0
  145.1273  128.7837  151.6132 H   0  0  0  0  0  0  0  0  0  0  0  0
  145.1055  130.7219  149.9878 H   0  0  0  0  0  0  0  0  0  0  0  0
  144.1685  131.1348  151.4282 H   0  0  0  0  0  0  0  0  0  0  0  0
  145.5870  133.0682  149.5594 H   0  0  0  0  0  0  0  0  0  0  0  0
  143.8908  133.1078  150.0598 H   0  0  0  0  0  0  0  0  0  0  0  0
  144.5002  133.5854  152.3480 H   0  0  0  0  0  0  0  0  0  0  0  0
  145.1927  136.8224  150.4140 H   0  0  0  0  0  0  0  0  0  0  0  0
  143.8172  135.8197  150.8926 H   0  0  0  0  0  0  0  0  0  0  0  0
  144.8264  135.3562  149.5177 H   0  0  0  0  0  0  0  0  0  0  0  0
  146.3270  135.3666  155.7500 H   0  0  0  0  0  0  0  0  0  0  0  0
  147.0793  140.0255  151.3665 H   0  0  0  0  0  0  0  0  0  0  0  0
  147.0356  141.0683  153.8066 H   0  0  0  0  0  0  0  0  0  0  0  0
  147.0000  139.9642  155.1546 H   0  0  0  0  0  0  0  0  0  0  0  0
  149.3780  140.2305  152.4376 H   0  0  0  0  0  0  0  0  0  0  0  0
  148.9738  142.2129  155.3151 H   0  0  0  0  0  0  0  0  0  0  0  0
  148.8078  140.8626  156.4074 H   0  0  0  0  0  0  0  0  0  0  0  0
  151.4014  141.6879  155.0050 H   0  0  0  0  0  0  0  0  0  0  0  0
  151.0288  141.8339  156.7093 H   0  0  0  0  0  0  0  0  0  0  0  0
  151.7472  139.4694  154.0851 H   0  0  0  0  0  0  0  0  0  0  0  0
  151.6085  138.0920  155.1558 H   0  0  0  0  0  0  0  0  0  0  0  0
  149.1891  138.3721  155.3645 H   0  0  0  0  0  0  0  0  0  0  0  0
  149.6009  138.2739  153.6702 H   0  0  0  0  0  0  0  0  0  0  0  0
  146.5072  132.7970  153.2692 H   0  0  0  0  0  0  0  0  0  0  0  0
  147.4449  133.0892  151.8065 H   0  0  0  0  0  0  0  0  0  0  0  0
  147.0236  131.1902  151.0348 H   0  0  0  0  0  0  0  0  0  0  0  0
  1  2  1  0  0  0  0
  1 28  1  0  0  0  0
  1 29  1  0  0  0  0
  1 30  1  0  0  0  0
  2  3  1  0  0  0  0
  2  4  1  0  0  0  0
  2 31  1  0  0  0  0
  3 32  1  0  0  0  0
  3 33  1  0  0  0  0
  3 34  1  0  0  0  0
  4 27  1  0  0  0  0
  4  5  1  0  0  0  0
  4 58  1  0  0  0  0
  5  6  1  0  0  0  0
  5 35  1  0  0  0  0
  5 36  1  0  0  0  0
  6  7  1  0  0  0  0
  6 37  1  0  0  0  0
  6 38  1  0  0  0  0
  7  8  1  0  0  0  0
  7 27  1  0  0  0  0
  7 39  1  0  0  0  0
  8  9  1  0  0  0  0
  8 10  1  0  0  0  0
  9 40  1  0  0  0  0
  9 41  1  0  0  0  0
  9 42  1  0  0  0  0
 10 15  1  0  0  0  0
 10 11  2  0  0  0  0
 11 12  1  0  0  0  0
 12 13  2  0  0  0  0
 12 43  1  0  0  0  0
 13 14  1  0  0  0  0
 14 18  1  0  0  0  0
 14 15  2  0  0  0  0
 15 16  1  0  0  0  0
 16 17  2  0  0  0  0
 17 18  1  0  0  0  0
 17 44  1  0  0  0  0
 18 19  1  0  0  0  0
 19 20  1  0  0  0  0
 19 45  1  0  0  0  0
 19 46  1  0  0  0  0
 20 26  1  0  0  0  0
 20 21  1  0  0  0  0
 20 22  1  0  0  0  0
 21 47  1  0  0  0  0
 22 23  1  0  0  0  0
 22 48  1  0  0  0  0
 22 49  1  0  0  0  0
 23 24  1  0  0  0  0
 23 50  1  0  0  0  0
 23 51  1  0  0  0  0
 24 25  1  0  0  0  0
 25 26  1  0  0  0  0
 25 52  1  0  0  0  0
 25 53  1  0  0  0  0
 26 54  1  0  0  0  0
 26 55  1  0  0  0  0
 27 56  1  0  0  0  0
 27 57  1  0  0  0  0
M  CHG  1   4   1
M  END
> <s_m_source_file>
AV-unprocessed.smi

> <i_m_source_file_index>
242

> <i_lp_mmshare_version>
43012

> <i_f3d_flags>
0

> <s_epik_input>
W0NIM11bQ0hdKFtDSDNdKU4xW0NIMl1bQ0gyXVtDQEhdKFtDSDJdMSlOKFtDSDNdKWMobltjSF1uMiljKGMyMyluW2NIXW4zW0NIMl1DNChbT0hdKVtDSDJdW0NIMl1PW0NIMl1bQ0gyXTQ=

> <s_epik_cmdline>
J2VwaWtfcHl0aG9uJywgJy1waCcsICc3LjAnLCAnLXRuJywgJzgnLCAnLW1hJywgJzIwMCcsICctbWV0YWxfYmluZGluZycsICctaW1hZScsICc8aW5maWxlLm1hZT4nLCAnLW9tYWUnLCAnPG91dGZpbGUubWFlPic=

> <r_lp_tautomer_probability>
1

> <r_epik_Ionization_Penalty>
0.000825961

> <r_epik_Ionization_Penalty_Charging>
0.00034898

> <r_epik_Ionization_Penalty_Neutral>
0.000476981

> <r_epik_State_Penalty>
-0

> <r_epik_Charging_Adjusted_Penalty>
0.00034898

> <i_epik_Tot_Q>
1

> <i_epik_Tot_abs_Q>
1

> <r_epik_Metal_State_Penalty>
-0

> <b_epik_Metal_Only>
0

> <s_lp_Force_Field>
OPLS_2005

> <r_lp_Energy>
48.0366

> <b_lp_Chiralities_Consistent>
1

> <s_lp_Variant>
AV-unprocessed.smi:242-4

> <Gold.Version>
5.8.1

> <Gold.Id.Protein>
6NUR|6NUR_protein|mol2

> <Gold.PLP.Fitness>
52.1224

> <Gold.PLP.PLP>
-42.6931

> <Gold.PLP.part.hbond>
-3.5431

> <Gold.PLP.part.metal>
0.0000

> <Gold.PLP.part.buried>
-0.6313

> <Gold.PLP.part.nonpolar>
-39.8391

> <Gold.PLP.part.repulsive>
1.3506

> <Gold.PLP.ligand.clash>
0.0000

> <Gold.PLP.ligand.torsion>
0.9302

> <Gold.PLP.Chemscore.Hbond>
3.2665

> <Gold.PLP.Chemscore.CHOScore>
0.3423

> <Gold.PLP.Chemscore.Metal>
0.0000

> <Gold.Chemscore.Hbonds>
donor molecule, donor type, donor heavy atom, donor atom, acceptor molecule, acceptor atom, score
      L1  H     4    58       P1 10747  0.78
      L1  H    21    47       P1  7957  0.39
      P1  H  7954  7966       L1    16  0.47
      P1  H  7989  7998       L1    21  0.15
      P1  H  8011  8017       L1    21  1.00
      L1  C    17    44       P1  7957  0.47

> <Gold.PLP.Chemscore.Internal.Correction>
0.4634

> <Gold.Rescore>
     Score         DG    S(hbond)    S(metal)    S(lipo)     H(rot)  DE(clash)    DE(int)     intcor
     11.66     -17.94       2.14        0.00      99.97       2.50       2.87       3.41       ----

> <Gold.Chemscore.Fitness>
11.6552

> <Gold.Chemscore.DG>
-17.9385

> <Gold.Chemscore.ZeroCoef>
-5.4800

> <Gold.Chemscore.Hbond>
2.1439

> <Gold.Chemscore.Metal>
0.0000

> <Gold.Chemscore.Lipo>
99.9727

> <Gold.Chemscore.Internal_Hbond>
0.0000

> <Gold.Chemscore.DEClash>
2.8730

> <Gold.Chemscore.DEInternal>
3.4103

> <Gold.Chemscore.Rot>
2.4996

> <Gold.Chemscore.Internal.Correction>
   9.000000E+99

> <Gold.Chemscore.Hbonds>
donor molecule, donor type, donor heavy atom, donor atom, acceptor molecule, acceptor atom, score
      L1  H     4    58       P1 10747  0.77
      L1  H    21    47       P1  7957  0.39
      P1  H  7954  7966       L1    16  0.08
      P1  H  7989  7998       L1    21  0.04
      P1  H  8011  8017       L1    21  0.45

> <Gold.Chemscore.Hbond.Weighted>
-7.1607

> <Gold.Chemscore.Metal.Weighted>
-0.0000

> <Gold.Chemscore.Lipo.Weighted>
-11.6968

> <Gold.Chemscore.Internal_Hbond.Weighted>
0.0000

> <Gold.Chemscore.DEClash.Weighted>
2.8730

> <Gold.Chemscore.DEInternal.Weighted>
3.4103

> <Gold.Chemscore.Rot.Weighted>
6.3990

> <Gold.Chemscore.Internal.Correction.Weighted>
   9.000000E+99

> <Gold.Protein.RotatedTorsions>
[ 6907 6896 6895 6894 ] final  128.24 input  -60.11 | X-H torsion
[ 7974 7965 7964 7962 ] final   89.09 input  175.53 | X-H torsion
[ 8008 7997 7996 7995 ] final  -96.68 input   59.86 | X-H torsion
[ 10167 10162 10161 10158 ] final  155.81 input  -65.29 | X-H torsion
[ 10718 10713 10712 10709 ] final -152.64 input   66.30 | X-H torsion
[ 10763 10752 10751 10750 ] final   37.92 input  -60.55 | X-H torsion
[ 11005 11000 10999 10996 ] final  125.00 input  -57.11 | X-H torsion

> <Gold.Protein.ActiveResidues>
 VAL166  LYS551  ARG553  GLY616  TRP617  ASP618  TYR619  PRO620  LYS621  CYS622 
 ASP623  PHE694  ASN695  SER759  ASP760  ASP761  ALA762  ILE779  LEU786  VAL792 
 PHE793  MET794  SER795  GLU796  ALA797  LYS798  CYS799  TRP800  GLU811  SER814 

> <Gold.Protein.RotatedAtoms>
  152.3738  133.6454  159.6107 H   0  0  0  0  0  0  0  0  0  0  0  0  # atno 6907 bound_to 6896
  150.7689  133.9226  159.3411 H   0  0  0  0  0  0  0  0  0  0  0  0  # atno 6908 bound_to 6896
  151.7044  135.0925  160.0308 H   0  0  0  0  0  0  0  0  0  0  0  0  # atno 6909 bound_to 6896
  145.5370  139.2286  143.2587 H   0  0  0  0  0  0  0  0  0  0  0  0  # atno 7974 bound_to 7965
  154.7777  140.0469  157.1102 H   0  0  0  0  0  0  0  0  0  0  0  0  # atno 8008 bound_to 7997
  154.9742  140.3093  155.4955 H   0  0  0  0  0  0  0  0  0  0  0  0  # atno 8009 bound_to 7997
  156.2931  140.2247  156.4837 H   0  0  0  0  0  0  0  0  0  0  0  0  # atno 8010 bound_to 7997
  139.4821  144.5065  151.8090 H   0  0  0  0  0  0  0  0  0  0  0  0  # atno 10167 bound_to 10162
  156.4752  130.8277  151.2506 H   0  0  0  0  0  0  0  0  0  0  0  0  # atno 10718 bound_to 10713
  153.0019  135.6264  154.2222 H   0  0  0  0  0  0  0  0  0  0  0  0  # atno 10763 bound_to 10752
  154.1965  135.2806  155.3006 H   0  0  0  0  0  0  0  0  0  0  0  0  # atno 10764 bound_to 10752
  154.5718  135.5674  153.7161 H   0  0  0  0  0  0  0  0  0  0  0  0  # atno 10765 bound_to 10752
  139.9385  134.9637  156.8493 H   0  0  0  0  0  0  0  0  0  0  0  0  # atno 11005 bound_to 11000
  146.2006  140.6189  142.9104 LP  0  0  0  0  0  0  0  0  0  0  0  0  # atno 17320 bound_to 7965
  144.7596  140.5390  143.6745 LP  0  0  0  0  0  0  0  0  0  0  0  0  # atno 17321 bound_to 7965
  140.4563  144.1784  150.5902 LP  0  0  0  0  0  0  0  0  0  0  0  0  # atno 17342 bound_to 10162
  140.4532  143.2478  151.9320 LP  0  0  0  0  0  0  0  0  0  0  0  0  # atno 17343 bound_to 10162
  157.7488  131.0063  150.3147 LP  0  0  0  0  0  0  0  0  0  0  0  0  # atno 17370 bound_to 10713
  156.3578  130.3842  149.7276 LP  0  0  0  0  0  0  0  0  0  0  0  0  # atno 17371 bound_to 10713
  140.6012  134.0170  155.7538 LP  0  0  0  0  0  0  0  0  0  0  0  0  # atno 17394 bound_to 11000
  141.1010  133.9768  157.3079 LP  0  0  0  0  0  0  0  0  0  0  0  0  # atno 17395 bound_to 11000

$$$$
