AV-unprocessed.smi:1978|AV-procd|sdf|8005|dock2
  -GOLD-   2272010193D 1   1.00000     0.00000
 Structure written by MMmdl.
 44 45  0  0  0  0  0  0  0  0  3 V2000
  146.9736  136.1849  163.0003 C   0  0  0  0  0  0  0  0  0  0  0  0
  147.5042  135.9206  161.6327 C   0  0  0  0  0  0  0  0  0  0  0  0
  147.8326  134.7712  160.9715 C   0  0  0  0  0  0  0  0  0  0  0  0
  148.2800  135.2409  159.7064 C   0  0  0  0  0  0  0  0  0  0  0  0
  148.7052  134.4793  158.6867 N   0  5  0  0  0  0  0  0  0  0  0  0
  148.1733  134.6340  157.4530 C   0  0  0  0  0  0  0  0  0  0  0  0
  147.9667  135.7008  156.8702 O   0  0  0  0  0  0  0  0  0  0  0  0
  147.8609  133.4778  156.8549 N   0  0  0  0  0  0  0  0  0  0  0  0
  147.2727  133.3510  155.5281 C   0  0  0  0  0  0  0  0  0  0  0  0
  148.1292  134.0736  154.4631 C   0  0  1  0  0  0  0  0  0  0  0  0
  149.5062  133.4080  154.2578 C   0  0  0  0  0  0  0  0  0  0  0  0
  147.4090  134.2613  153.1620 N   0  3  1  0  0  0  0  0  0  0  0  0
  147.2602  133.0063  152.3675 C   0  0  0  0  0  0  0  0  0  0  0  0
  146.7735  133.3002  150.9409 C   0  0  0  0  0  0  0  0  0  0  0  0
  145.4453  134.0595  150.9705 C   0  0  0  0  0  0  0  0  0  0  0  0
  145.5978  135.3296  151.8136 C   0  0  0  0  0  0  0  0  0  0  0  0
  146.1139  135.0175  153.2354 C   0  0  2  0  0  0  0  0  0  0  0  0
  146.2072  136.3327  154.0355 C   0  0  0  0  0  0  0  0  0  0  0  0
  148.2117  136.5575  159.6027 N   0  0  0  0  0  0  0  0  0  0  0  0
  147.7216  137.0018  160.8365 O   0  0  0  0  0  0  0  0  0  0  0  0
  145.9546  135.8107  163.0965 H   0  0  0  0  0  0  0  0  0  0  0  0
  146.9636  137.2530  163.2193 H   0  0  0  0  0  0  0  0  0  0  0  0
  147.5883  135.6923  163.7538 H   0  0  0  0  0  0  0  0  0  0  0  0
  147.7671  133.7566  161.3348 H   0  0  0  0  0  0  0  0  0  0  0  0
  148.0435  132.6257  157.3648 H   0  0  0  0  0  0  0  0  0  0  0  0
  147.1781  132.2904  155.2925 H   0  0  0  0  0  0  0  0  0  0  0  0
  146.2647  133.7654  155.5603 H   0  0  0  0  0  0  0  0  0  0  0  0
  148.3754  135.0603  154.8505 H   0  0  0  0  0  0  0  0  0  0  0  0
  150.1263  133.5062  155.1492 H   0  0  0  0  0  0  0  0  0  0  0  0
  150.0517  133.8745  153.4371 H   0  0  0  0  0  0  0  0  0  0  0  0
  149.4231  132.3420  154.0478 H   0  0  0  0  0  0  0  0  0  0  0  0
  148.2062  132.4730  152.2950 H   0  0  0  0  0  0  0  0  0  0  0  0
  146.5569  132.3343  152.8608 H   0  0  0  0  0  0  0  0  0  0  0  0
  147.5235  133.8865  150.4081 H   0  0  0  0  0  0  0  0  0  0  0  0
  146.6567  132.3682  150.3869 H   0  0  0  0  0  0  0  0  0  0  0  0
  145.1314  134.3129  149.9573 H   0  0  0  0  0  0  0  0  0  0  0  0
  144.6641  133.4256  151.3921 H   0  0  0  0  0  0  0  0  0  0  0  0
  146.2842  136.0158  151.3151 H   0  0  0  0  0  0  0  0  0  0  0  0
  144.6364  135.8419  151.8666 H   0  0  0  0  0  0  0  0  0  0  0  0
  145.3743  134.3822  153.7246 H   0  0  0  0  0  0  0  0  0  0  0  0
  145.2859  136.9088  153.9453 H   0  0  0  0  0  0  0  0  0  0  0  0
  147.0233  136.9611  153.6773 H   0  0  0  0  0  0  0  0  0  0  0  0
  146.3500  136.1566  155.1015 H   0  0  0  0  0  0  0  0  0  0  0  0
  148.0229  134.8508  152.6186 H   0  0  0  0  0  0  0  0  0  0  0  0
  1  2  1  0  0  0  0
  1 21  1  0  0  0  0
  1 22  1  0  0  0  0
  1 23  1  0  0  0  0
  2 20  1  0  0  0  0
  2  3  2  0  0  0  0
  3  4  1  0  0  0  0
  3 24  1  0  0  0  0
  4  5  1  0  0  0  0
  4 19  2  0  0  0  0
  5  6  1  0  0  0  0
  6  7  2  0  0  0  0
  6  8  1  0  0  0  0
  8  9  1  0  0  0  0
  8 25  1  0  0  0  0
  9 10  1  0  0  0  0
  9 26  1  0  0  0  0
  9 27  1  0  0  0  0
 10 11  1  0  0  0  0
 10 12  1  0  0  0  0
 10 28  1  0  0  0  0
 11 29  1  0  0  0  0
 11 30  1  0  0  0  0
 11 31  1  0  0  0  0
 12 17  1  0  0  0  0
 12 13  1  0  0  0  0
 12 44  1  0  0  0  0
 13 14  1  0  0  0  0
 13 32  1  0  0  0  0
 13 33  1  0  0  0  0
 14 15  1  0  0  0  0
 14 34  1  0  0  0  0
 14 35  1  0  0  0  0
 15 16  1  0  0  0  0
 15 36  1  0  0  0  0
 15 37  1  0  0  0  0
 16 17  1  0  0  0  0
 16 38  1  0  0  0  0
 16 39  1  0  0  0  0
 17 18  1  0  0  0  0
 17 40  1  0  0  0  0
 18 41  1  0  0  0  0
 18 42  1  0  0  0  0
 18 43  1  0  0  0  0
 19 20  1  0  0  0  0
M  CHG  1   5  -1
M  CHG  1  12   1
M  END
> <s_m_source_file>
AV-unprocessed.smi

> <i_m_source_file_index>
1978

> <i_lp_mmshare_version>
43012

> <i_f3d_flags>
0

> <s_epik_input>
W0NIM11jMVtjSF1jKG5vMSlbTkhdQyg9TylbTkhdW0NIMl1bQ0BIXShbQ0gzXSlOMltDSDJdW0NIMl1bQ0gyXVtDSDJdW0NASF0yW0NIM10=

> <s_epik_cmdline>
J2VwaWtfcHl0aG9uJywgJy1waCcsICc3LjAnLCAnLXRuJywgJzgnLCAnLW1hJywgJzIwMCcsICctbWV0YWxfYmluZGluZycsICctaW1hZScsICc8aW5maWxlLm1hZT4nLCAnLW9tYWUnLCAnPG91dGZpbGUubWFlPic=

> <r_epik_Ionization_Penalty>
6.22372

> <r_epik_Ionization_Penalty_Charging>
6.22362

> <r_epik_Ionization_Penalty_Neutral>
9.65074e-05

> <r_epik_State_Penalty>
6.22363

> <r_epik_Charging_Adjusted_Penalty>
12.4472

> <i_epik_Tot_Q>
0

> <i_epik_Tot_abs_Q>
2

> <r_epik_Metal_State_Penalty>
2.16675

> <b_epik_Metal_Only>
1

> <s_lp_Force_Field>
OPLS_2005

> <r_lp_Energy>
11.9993

> <b_lp_Chiralities_Consistent>
1

> <s_lp_Variant>
AV-unprocessed.smi:1978-14

> <Gold.Version>
5.8.1

> <Gold.Id.Protein>
6NUR|6NUR_protein|mol2

> <Gold.PLP.Fitness>
44.3071

> <Gold.PLP.PLP>
-28.9667

> <Gold.PLP.part.hbond>
-4.0000

> <Gold.PLP.part.metal>
0.0000

> <Gold.PLP.part.buried>
-4.3762

> <Gold.PLP.part.nonpolar>
-21.3282

> <Gold.PLP.part.repulsive>
0.0129

> <Gold.PLP.ligand.clash>
0.0000

> <Gold.PLP.ligand.torsion>
0.9729

> <Gold.PLP.Chemscore.Hbond>
5.6800

> <Gold.PLP.Chemscore.CHOScore>
0.0000

> <Gold.PLP.Chemscore.Metal>
0.0000

> <Gold.Chemscore.Hbonds>
donor molecule, donor type, donor heavy atom, donor atom, acceptor molecule, acceptor atom, score
      L1  H    12    44       P1  7948  2.00
      P1  H  6896  6907       L1     5  1.57
      P1  H  6931  6943       L1    20  0.77
      P1  H  6934  6947       L1    20  0.78

> <Gold.PLP.Chemscore.Internal.Correction>
0.2461

> <Gold.Rescore>
     Score         DG    S(hbond)    S(metal)    S(lipo)     H(rot)  DE(clash)    DE(int)     intcor
     14.22     -17.72       2.62        0.00      63.03       1.52       0.03       3.47       ----

> <Gold.Chemscore.Fitness>
14.2168

> <Gold.Chemscore.DG>
-17.7171

> <Gold.Chemscore.ZeroCoef>
-5.4800

> <Gold.Chemscore.Hbond>
2.6201

> <Gold.Chemscore.Metal>
0.0000

> <Gold.Chemscore.Lipo>
63.0301

> <Gold.Chemscore.Internal_Hbond>
0.0000

> <Gold.Chemscore.DEClash>
0.0268

> <Gold.Chemscore.DEInternal>
3.4735

> <Gold.Chemscore.Rot>
1.5190

> <Gold.Chemscore.Internal.Correction>
   9.000000E+99

> <Gold.Chemscore.Hbonds>
donor molecule, donor type, donor heavy atom, donor atom, acceptor molecule, acceptor atom, score
      L1  H    12    44       P1  7948  0.78
      P1  H  6896  6907       L1     5  0.18
      P1  H  6931  6943       L1    20  0.36
      P1  H  6934  6947       L1    20  0.70

> <Gold.Chemscore.Hbond.Weighted>
-8.7512

> <Gold.Chemscore.Metal.Weighted>
-0.0000

> <Gold.Chemscore.Lipo.Weighted>
-7.3745

> <Gold.Chemscore.Internal_Hbond.Weighted>
0.0000

> <Gold.Chemscore.DEClash.Weighted>
0.0268

> <Gold.Chemscore.DEInternal.Weighted>
3.4735

> <Gold.Chemscore.Rot.Weighted>
3.8886

> <Gold.Chemscore.Internal.Correction.Weighted>
   9.000000E+99

> <Gold.Protein.RotatedTorsions>
[ 6907 6896 6895 6894 ] final -101.34 input  -60.11 | X-H torsion
[ 7974 7965 7964 7962 ] final  -91.59 input  175.53 | X-H torsion
[ 8008 7997 7996 7995 ] final  -49.90 input   59.86 | X-H torsion
[ 10167 10162 10161 10158 ] final  121.30 input  -65.29 | X-H torsion
[ 10718 10713 10712 10709 ] final   48.95 input   66.30 | X-H torsion
[ 10763 10752 10751 10750 ] final  151.65 input  -60.55 | X-H torsion
[ 11005 11000 10999 10996 ] final -154.51 input  -57.11 | X-H torsion

> <Gold.Protein.ActiveResidues>
 VAL166  LYS551  ARG553  GLY616  TRP617  ASP618  TYR619  PRO620  LYS621  CYS622 
 ASP623  PHE694  ASN695  SER759  ASP760  ASP761  ALA762  ILE779  LEU786  VAL792 
 PHE793  MET794  SER795  GLU796  ALA797  LYS798  CYS799  TRP800  GLU811  SER814 

> <Gold.Protein.RotatedAtoms>
  150.7151  134.0748  159.3876 H   0  0  0  0  0  0  0  0  0  0  0  0  # atno 6907 bound_to 6896
  151.8731  135.0479  160.0490 H   0  0  0  0  0  0  0  0  0  0  0  0  # atno 6908 bound_to 6896
  152.2627  133.5276  159.5428 H   0  0  0  0  0  0  0  0  0  0  0  0  # atno 6909 bound_to 6896
  145.4111  140.9545  143.2234 H   0  0  0  0  0  0  0  0  0  0  0  0  # atno 7974 bound_to 7965
  154.4052  140.1285  156.4578 H   0  0  0  0  0  0  0  0  0  0  0  0  # atno 8008 bound_to 7997
  155.7303  140.3491  155.5036 H   0  0  0  0  0  0  0  0  0  0  0  0  # atno 8009 bound_to 7997
  155.9133  140.1039  157.1253 H   0  0  0  0  0  0  0  0  0  0  0  0  # atno 8010 bound_to 7997
  139.5928  144.7031  151.3248 H   0  0  0  0  0  0  0  0  0  0  0  0  # atno 10167 bound_to 10162
  157.4738  130.8272  149.8017 H   0  0  0  0  0  0  0  0  0  0  0  0  # atno 10718 bound_to 10713
  154.1072  135.2841  155.3238 H   0  0  0  0  0  0  0  0  0  0  0  0  # atno 10763 bound_to 10752
  154.6515  135.5367  153.7910 H   0  0  0  0  0  0  0  0  0  0  0  0  # atno 10764 bound_to 10752
  153.0358  135.6511  154.1232 H   0  0  0  0  0  0  0  0  0  0  0  0  # atno 10765 bound_to 10752
  140.6965  134.3984  157.5214 H   0  0  0  0  0  0  0  0  0  0  0  0  # atno 11005 bound_to 11000
  144.8309  139.5631  143.6944 LP  0  0  0  0  0  0  0  0  0  0  0  0  # atno 17320 bound_to 7965
  146.2704  139.6622  142.9300 LP  0  0  0  0  0  0  0  0  0  0  0  0  # atno 17321 bound_to 7965
  140.7187  143.7195  150.7707 LP  0  0  0  0  0  0  0  0  0  0  0  0  # atno 17342 bound_to 10162
  140.0754  143.5020  152.2558 LP  0  0  0  0  0  0  0  0  0  0  0  0  # atno 17343 bound_to 10162
  156.0086  130.3843  150.2341 LP  0  0  0  0  0  0  0  0  0  0  0  0  # atno 17370 bound_to 10713
  157.0525  131.0067  151.3249 LP  0  0  0  0  0  0  0  0  0  0  0  0  # atno 17371 bound_to 10713
  139.8908  134.8794  156.2348 LP  0  0  0  0  0  0  0  0  0  0  0  0  # atno 17394 bound_to 11000
  141.0199  133.7047  156.1250 LP  0  0  0  0  0  0  0  0  0  0  0  0  # atno 17395 bound_to 11000

$$$$
