AV-unprocessed.smi:2423|AV-procd|sdf|9558|dock10
  -GOLD-   2272013193D 1   1.00000     0.00000
 Structure written by MMmdl.
 37 39  0  0  0  0  0  0  0  0  1 V2000
  144.5078  136.9749  152.2410 O   0  0  0  0  0  0  0  0  0  0  0  0
  145.7066  136.7863  152.0474 C   0  0  0  0  0  0  0  0  0  0  0  0
  146.6017  137.7739  152.2213 N   0  0  0  0  0  0  0  0  0  0  0  0
  146.3352  139.1557  152.6227 C   0  0  0  0  0  0  0  0  0  0  0  0
  147.0749  139.5356  153.9193 C   0  0  0  0  0  0  0  0  0  0  0  0
  148.5764  139.3942  153.6495 C   0  0  0  0  0  0  0  0  0  0  0  0
  149.5060  138.4899  154.4253 C   0  0  0  0  0  0  0  0  0  0  0  0
  149.6042  139.9963  154.5743 C   0  0  0  0  0  0  0  0  0  0  0  0
  146.5676  140.8516  154.5600 C   0  0  0  0  0  0  0  0  0  0  0  0
  145.6231  140.0332  155.4391 C   0  0  0  0  0  0  0  0  0  0  0  0
  146.5652  138.8530  155.2077 C   0  0  0  0  0  0  0  0  0  0  0  0
  146.2533  135.6127  151.6731 N   0  0  0  0  0  0  0  0  0  0  0  0
  145.6181  134.3695  151.4050 C   0  0  0  0  0  0  0  0  0  0  0  0
  144.3369  134.2377  150.8164 C   0  0  0  0  0  0  0  0  0  0  0  0
  143.8293  132.9429  150.5886 C   0  0  0  0  0  0  0  0  0  0  0  0
  144.5035  131.8143  150.8948 N   0  0  0  0  0  0  0  0  0  0  0  0
  145.7295  131.9437  151.4444 C   0  0  0  0  0  0  0  0  0  0  0  0
  146.3289  133.1904  151.7137 C   0  0  0  0  0  0  0  0  0  0  0  0
  147.5661  133.2497  152.2637 F   0  0  0  0  0  0  0  0  0  0  0  0
  147.5721  137.5390  152.0698 H   0  0  0  0  0  0  0  0  0  0  0  0
  146.6289  139.8278  151.8146 H   0  0  0  0  0  0  0  0  0  0  0  0
  145.2577  139.2775  152.7441 H   0  0  0  0  0  0  0  0  0  0  0  0
  148.8181  139.4418  152.5894 H   0  0  0  0  0  0  0  0  0  0  0  0
  149.1195  137.9240  155.2684 H   0  0  0  0  0  0  0  0  0  0  0  0
  150.2975  137.9934  153.8675 H   0  0  0  0  0  0  0  0  0  0  0  0
  150.4563  140.4952  154.1176 H   0  0  0  0  0  0  0  0  0  0  0  0
  149.2559  140.4305  155.5092 H   0  0  0  0  0  0  0  0  0  0  0  0
  147.3054  141.3873  155.1556 H   0  0  0  0  0  0  0  0  0  0  0  0
  146.0627  141.5298  153.8713 H   0  0  0  0  0  0  0  0  0  0  0  0
  145.5559  140.3677  156.4746 H   0  0  0  0  0  0  0  0  0  0  0  0
  144.6383  139.8885  154.9925 H   0  0  0  0  0  0  0  0  0  0  0  0
  146.0626  137.8965  155.0605 H   0  0  0  0  0  0  0  0  0  0  0  0
  147.3326  138.7780  155.9803 H   0  0  0  0  0  0  0  0  0  0  0  0
  147.2616  135.5950  151.6263 H   0  0  0  0  0  0  0  0  0  0  0  0
  143.7431  135.0904  150.5267 H   0  0  0  0  0  0  0  0  0  0  0  0
  142.8551  132.8108  150.1414 H   0  0  0  0  0  0  0  0  0  0  0  0
  146.2502  131.0258  151.6746 H   0  0  0  0  0  0  0  0  0  0  0  0
  1  2  2  0  0  0  0
  2  3  1  0  0  0  0
  2 12  1  0  0  0  0
  3  4  1  0  0  0  0
  3 20  1  0  0  0  0
  4  5  1  0  0  0  0
  4 21  1  0  0  0  0
  4 22  1  0  0  0  0
  5 11  1  0  0  0  0
  5  6  1  0  0  0  0
  5  9  1  0  0  0  0
  6  8  1  0  0  0  0
  6  7  1  0  0  0  0
  6 23  1  0  0  0  0
  7  8  1  0  0  0  0
  7 24  1  0  0  0  0
  7 25  1  0  0  0  0
  8 26  1  0  0  0  0
  8 27  1  0  0  0  0
  9 10  1  0  0  0  0
  9 28  1  0  0  0  0
  9 29  1  0  0  0  0
 10 11  1  0  0  0  0
 10 30  1  0  0  0  0
 10 31  1  0  0  0  0
 11 32  1  0  0  0  0
 11 33  1  0  0  0  0
 12 13  1  0  0  0  0
 12 34  1  0  0  0  0
 13 18  1  0  0  0  0
 13 14  2  0  0  0  0
 14 15  1  0  0  0  0
 14 35  1  0  0  0  0
 15 16  2  0  0  0  0
 15 36  1  0  0  0  0
 16 17  1  0  0  0  0
 17 18  2  0  0  0  0
 17 37  1  0  0  0  0
 18 19  1  0  0  0  0
M  END
> <s_m_source_file>
AV-unprocessed.smi

> <i_m_source_file_index>
2423

> <i_lp_mmshare_version>
43012

> <i_f3d_flags>
0

> <s_epik_input>
W0NIMl0xW0NIMl1bQ0hdMUMyKFtDSDJdW0NIMl1bQ0gyXTIpW0NIMl1bTkhdQyg9TylbTkhdYzNbY0hdW2NIXW5bY0hdYzNG

> <s_epik_cmdline>
J2VwaWtfcHl0aG9uJywgJy1waCcsICc3LjAnLCAnLXRuJywgJzgnLCAnLW1hJywgJzIwMCcsICctbWV0YWxfYmluZGluZycsICctaW1hZScsICc8aW5maWxlLm1hZT4nLCAnLW9tYWUnLCAnPG91dGZpbGUubWFlPic=

> <r_epik_Ionization_Penalty>
0.00332314

> <r_epik_Ionization_Penalty_Charging>
0

> <r_epik_Ionization_Penalty_Neutral>
0.00332314

> <r_epik_State_Penalty>
0.00231995

> <r_epik_Charging_Adjusted_Penalty>
0.00231995

> <i_epik_Tot_Q>
0

> <i_epik_Tot_abs_Q>
0

> <r_epik_Metal_State_Penalty>
-0

> <b_epik_Metal_Only>
0

> <s_lp_Force_Field>
OPLS_2005

> <r_lp_Energy>
40.5055

> <b_lp_Chiralities_Consistent>
1

> <s_lp_Variant>
AV-unprocessed.smi:2423-1

> <Gold.Version>
5.8.1

> <Gold.Id.Protein>
6NUR|6NUR_protein|mol2

> <Gold.PLP.Fitness>
35.4515

> <Gold.PLP.PLP>
-27.8981

> <Gold.PLP.part.hbond>
-2.0000

> <Gold.PLP.part.metal>
0.0000

> <Gold.PLP.part.buried>
-1.4578

> <Gold.PLP.part.nonpolar>
-26.8199

> <Gold.PLP.part.repulsive>
1.2403

> <Gold.PLP.ligand.clash>
0.0000

> <Gold.PLP.ligand.torsion>
1.5695

> <Gold.PLP.Chemscore.Hbond>
2.0000

> <Gold.PLP.Chemscore.CHOScore>
0.9988

> <Gold.PLP.Chemscore.Metal>
0.0000

> <Gold.Chemscore.Hbonds>
donor molecule, donor type, donor heavy atom, donor atom, acceptor molecule, acceptor atom, score
      L1  H     3    20       P1  7948  1.00
      L1  H    12    34       P1  7948  1.00
      L1  C    15    36       P1 10186  1.00

> <Gold.PLP.Chemscore.Internal.Correction>
1.6960

> <Gold.Rescore>
     Score         DG    S(hbond)    S(metal)    S(lipo)     H(rot)  DE(clash)    DE(int)     intcor
     14.55     -16.04       1.91        0.00      66.39       1.40       0.03       1.45       ----

> <Gold.Chemscore.Fitness>
14.5514

> <Gold.Chemscore.DG>
-16.0354

> <Gold.Chemscore.ZeroCoef>
-5.4800

> <Gold.Chemscore.Hbond>
1.9069

> <Gold.Chemscore.Metal>
0.0000

> <Gold.Chemscore.Lipo>
66.3907

> <Gold.Chemscore.Internal_Hbond>
0.0000

> <Gold.Chemscore.DEClash>
0.0311

> <Gold.Chemscore.DEInternal>
1.4528

> <Gold.Chemscore.Rot>
1.3990

> <Gold.Chemscore.Internal.Correction>
   9.000000E+99

> <Gold.Chemscore.Hbonds>
donor molecule, donor type, donor heavy atom, donor atom, acceptor molecule, acceptor atom, score
      L1  H     3    20       P1  7948  0.95
      L1  H    12    34       P1  7948  0.98

> <Gold.Chemscore.Hbond.Weighted>
-6.3690

> <Gold.Chemscore.Metal.Weighted>
-0.0000

> <Gold.Chemscore.Lipo.Weighted>
-7.7677

> <Gold.Chemscore.Internal_Hbond.Weighted>
0.0000

> <Gold.Chemscore.DEClash.Weighted>
0.0311

> <Gold.Chemscore.DEInternal.Weighted>
1.4528

> <Gold.Chemscore.Rot.Weighted>
3.5814

> <Gold.Chemscore.Internal.Correction.Weighted>
   9.000000E+99

> <Gold.Protein.RotatedTorsions>
[ 6907 6896 6895 6894 ] final -164.04 input  -60.11 | X-H torsion
[ 7974 7965 7964 7962 ] final -142.72 input  175.53 | X-H torsion
[ 8008 7997 7996 7995 ] final -140.26 input   59.86 | X-H torsion
[ 10167 10162 10161 10158 ] final   22.61 input  -65.29 | X-H torsion
[ 10718 10713 10712 10709 ] final  -35.03 input   66.30 | X-H torsion
[ 10763 10752 10751 10750 ] final -121.71 input  -60.55 | X-H torsion
[ 11005 11000 10999 10996 ] final -116.07 input  -57.11 | X-H torsion

> <Gold.Protein.ActiveResidues>
 VAL166  LYS551  ARG553  GLY616  TRP617  ASP618  TYR619  PRO620  LYS621  CYS622 
 ASP623  PHE694  ASN695  SER759  ASP760  ASP761  ALA762  ILE779  LEU786  VAL792 
 PHE793  MET794  SER795  GLU796  ALA797  LYS798  CYS799  TRP800  GLU811  SER814 

> <Gold.Protein.RotatedAtoms>
  151.4055  133.3744  159.2737 H   0  0  0  0  0  0  0  0  0  0  0  0  # atno 6907 bound_to 6896
  150.9401  134.8812  159.7617 H   0  0  0  0  0  0  0  0  0  0  0  0  # atno 6908 bound_to 6896
  152.5067  134.4005  159.9467 H   0  0  0  0  0  0  0  0  0  0  0  0  # atno 6909 bound_to 6896
  144.8422  140.5923  143.5445 H   0  0  0  0  0  0  0  0  0  0  0  0  # atno 7974 bound_to 7965
  155.4584  140.0544  157.2993 H   0  0  0  0  0  0  0  0  0  0  0  0  # atno 8008 bound_to 7997
  154.4747  140.2056  155.9862 H   0  0  0  0  0  0  0  0  0  0  0  0  # atno 8009 bound_to 7997
  156.1113  140.3203  155.8082 H   0  0  0  0  0  0  0  0  0  0  0  0  # atno 8010 bound_to 7997
  140.5335  143.9801  150.6478 H   0  0  0  0  0  0  0  0  0  0  0  0  # atno 10167 bound_to 10162
  156.3435  130.4297  149.7766 H   0  0  0  0  0  0  0  0  0  0  0  0  # atno 10718 bound_to 10713
  154.8674  135.4158  154.2664 H   0  0  0  0  0  0  0  0  0  0  0  0  # atno 10763 bound_to 10752
  153.3582  135.7002  153.6739 H   0  0  0  0  0  0  0  0  0  0  0  0  # atno 10764 bound_to 10752
  153.5651  135.3602  155.2787 H   0  0  0  0  0  0  0  0  0  0  0  0  # atno 10765 bound_to 10752
  141.0446  133.9782  157.2939 H   0  0  0  0  0  0  0  0  0  0  0  0  # atno 11005 bound_to 11000
  145.4670  139.1507  143.3835 LP  0  0  0  0  0  0  0  0  0  0  0  0  # atno 17320 bound_to 7965
  146.2713  140.4802  142.8813 LP  0  0  0  0  0  0  0  0  0  0  0  0  # atno 17321 bound_to 7965
  140.3182  143.3154  152.0811 LP  0  0  0  0  0  0  0  0  0  0  0  0  # atno 17342 bound_to 10162
  139.4962  144.6591  151.6505 LP  0  0  0  0  0  0  0  0  0  0  0  0  # atno 17343 bound_to 10162
  156.4994  130.8122  151.3126 LP  0  0  0  0  0  0  0  0  0  0  0  0  # atno 17370 bound_to 10713
  157.7450  130.9949  150.2726 LP  0  0  0  0  0  0  0  0  0  0  0  0  # atno 17371 bound_to 10713
  139.9302  135.0200  156.8373 LP  0  0  0  0  0  0  0  0  0  0  0  0  # atno 17394 bound_to 11000
  140.6170  134.0029  155.7602 LP  0  0  0  0  0  0  0  0  0  0  0  0  # atno 17395 bound_to 11000

$$$$
