AV-unprocessed.smi:290|AV-procd|sdf|2221|dock3
  -GOLD-   2262022 63D 1   1.00000     0.00000
 Structure written by MMmdl.
 59 62  0  0  0  0  0  0  0  0  2 V2000
  151.0158  145.3622  159.6808 C   0  0  0  0  0  0  0  0  0  0  0  0
  151.1535  143.8413  159.4971 C   0  0  2  0  0  0  0  0  0  0  0  0
  151.6642  143.2452  160.6891 O   0  0  0  0  0  0  0  0  0  0  0  0
  152.8813  142.5690  160.4123 C   0  0  0  0  0  0  0  0  0  0  0  0
  152.7500  142.1548  158.9529 C   0  0  0  0  0  0  0  0  0  0  0  0
  152.0510  143.3545  158.3311 C   0  0  2  0  0  0  0  0  0  0  0  0
  153.0399  144.3205  158.0095 O   0  0  0  0  0  0  0  0  0  0  0  0
  151.2846  142.9866  157.0379 C   0  0  0  0  0  0  0  0  0  0  0  0
  150.3858  141.8539  157.1962 N   0  0  0  0  0  0  0  0  0  0  0  0
  149.6188  141.5575  158.3015 C   0  0  0  0  0  0  0  0  0  0  0  0
  148.8858  140.4818  158.2008 N   0  0  0  0  0  0  0  0  0  0  0  0
  149.1673  140.0040  156.9282 C   0  0  0  0  0  0  0  0  0  0  0  0
  148.7186  138.8897  156.1735 C   0  0  0  0  0  0  0  0  0  0  0  0
  147.8150  138.0142  156.6694 N   0  0  0  0  0  0  0  0  0  0  0  0
  146.4908  138.5735  156.8618 C   0  0  0  0  0  0  0  0  0  0  0  0
  145.7720  137.6181  157.8157 C   0  0  0  0  0  0  0  0  0  0  0  0
  146.8569  136.6805  158.3873 C   0  0  2  0  0  0  0  0  0  0  0  0
  146.6974  136.5060  159.8663 N   0  3  1  0  0  0  0  0  0  0  0  0
  145.3565  135.9563  160.1960 C   0  0  0  0  0  0  0  0  0  0  0  0
  147.7976  135.7627  160.5447 C   0  0  0  0  0  0  0  0  0  0  0  0
  147.7294  135.8027  162.0834 C   0  0  0  0  0  0  0  0  0  0  0  0
  147.9158  137.1229  162.5489 O   0  0  0  0  0  0  0  0  0  0  0  0
  148.1783  137.3235  157.9012 C   0  0  1  0  0  0  0  0  0  0  0  0
  149.3138  136.3143  157.6186 C   0  0  0  0  0  0  0  0  0  0  0  0
  149.2172  138.7259  154.9195 N   0  0  0  0  0  0  0  0  0  0  0  0
  150.1006  139.6042  154.4345 C   0  0  0  0  0  0  0  0  0  0  0  0
  150.6036  140.6930  155.0210 N   0  0  0  0  0  0  0  0  0  0  0  0
  150.1050  140.8549  156.2803 C   0  0  0  0  0  0  0  0  0  0  0  0
  146.7591  135.7051  157.9061 H   0  0  0  0  0  0  0  0  0  0  0  0
  148.5090  138.0633  158.6317 H   0  0  0  0  0  0  0  0  0  0  0  0
  150.6407  145.8401  158.7759 H   0  0  0  0  0  0  0  0  0  0  0  0
  151.9700  145.8236  159.9357 H   0  0  0  0  0  0  0  0  0  0  0  0
  150.3178  145.5892  160.4866 H   0  0  0  0  0  0  0  0  0  0  0  0
  150.1560  143.4199  159.3739 H   0  0  0  0  0  0  0  0  0  0  0  0
  153.7143  143.2610  160.5444 H   0  0  0  0  0  0  0  0  0  0  0  0
  153.0308  141.7210  161.0809 H   0  0  0  0  0  0  0  0  0  0  0  0
  153.7064  141.9118  158.4879 H   0  0  0  0  0  0  0  0  0  0  0  0
  152.1145  141.2701  158.8898 H   0  0  0  0  0  0  0  0  0  0  0  0
  153.1296  144.9131  158.7399 H   0  0  0  0  0  0  0  0  0  0  0  0
  150.7014  143.8393  156.6875 H   0  0  0  0  0  0  0  0  0  0  0  0
  151.9878  142.7525  156.2376 H   0  0  0  0  0  0  0  0  0  0  0  0
  149.6231  142.1678  159.1929 H   0  0  0  0  0  0  0  0  0  0  0  0
  146.5490  139.5721  157.2983 H   0  0  0  0  0  0  0  0  0  0  0  0
  145.9659  138.6538  155.9092 H   0  0  0  0  0  0  0  0  0  0  0  0
  145.2649  138.1926  158.5922 H   0  0  0  0  0  0  0  0  0  0  0  0
  145.0113  137.0409  157.2887 H   0  0  0  0  0  0  0  0  0  0  0  0
  145.2988  134.8962  159.9461 H   0  0  0  0  0  0  0  0  0  0  0  0
  144.5628  136.4686  159.6529 H   0  0  0  0  0  0  0  0  0  0  0  0
  145.1228  136.0754  161.2529 H   0  0  0  0  0  0  0  0  0  0  0  0
  147.7931  134.7268  160.2030 H   0  0  0  0  0  0  0  0  0  0  0  0
  148.7618  136.1870  160.2708 H   0  0  0  0  0  0  0  0  0  0  0  0
  146.7969  135.3956  162.4719 H   0  0  0  0  0  0  0  0  0  0  0  0
  148.5248  135.1839  162.4997 H   0  0  0  0  0  0  0  0  0  0  0  0
  147.3253  137.2767  163.2714 H   0  0  0  0  0  0  0  0  0  0  0  0
  149.5921  135.7275  158.4908 H   0  0  0  0  0  0  0  0  0  0  0  0
  150.2168  136.8238  157.2808 H   0  0  0  0  0  0  0  0  0  0  0  0
  149.0256  135.6108  156.8366 H   0  0  0  0  0  0  0  0  0  0  0  0
  150.4545  139.4075  153.4331 H   0  0  0  0  0  0  0  0  0  0  0  0
  146.7277  137.4386  160.2537 H   0  0  0  0  0  0  0  0  0  0  0  0
  1  2  1  0  0  0  0
  1 31  1  0  0  0  0
  1 32  1  0  0  0  0
  1 33  1  0  0  0  0
  2  6  1  0  0  0  0
  2  3  1  0  0  0  0
  2 34  1  0  0  0  0
  3  4  1  0  0  0  0
  4  5  1  0  0  0  0
  4 35  1  0  0  0  0
  4 36  1  0  0  0  0
  5  6  1  0  0  0  0
  5 37  1  0  0  0  0
  5 38  1  0  0  0  0
  6  7  1  0  0  0  0
  6  8  1  0  0  0  0
  7 39  1  0  0  0  0
  8  9  1  0  0  0  0
  8 40  1  0  0  0  0
  8 41  1  0  0  0  0
  9 28  1  0  0  0  0
  9 10  1  0  0  0  0
 10 11  2  0  0  0  0
 10 42  1  0  0  0  0
 11 12  1  0  0  0  0
 12 28  2  0  0  0  0
 12 13  1  0  0  0  0
 13 14  1  0  0  0  0
 13 25  2  0  0  0  0
 14 23  1  0  0  0  0
 14 15  1  0  0  0  0
 15 16  1  0  0  0  0
 15 43  1  0  0  0  0
 15 44  1  0  0  0  0
 16 17  1  0  0  0  0
 16 45  1  0  0  0  0
 16 46  1  0  0  0  0
 17 29  1  0  0  0  0
 17 18  1  0  0  0  0
 17 23  1  0  0  0  0
 18 19  1  0  0  0  0
 18 20  1  0  0  0  0
 18 59  1  0  0  0  0
 19 47  1  0  0  0  0
 19 48  1  0  0  0  0
 19 49  1  0  0  0  0
 20 21  1  0  0  0  0
 20 50  1  0  0  0  0
 20 51  1  0  0  0  0
 21 22  1  0  0  0  0
 21 52  1  0  0  0  0
 21 53  1  0  0  0  0
 22 54  1  0  0  0  0
 23 30  1  0  0  0  0
 23 24  1  0  0  0  0
 24 55  1  0  0  0  0
 24 56  1  0  0  0  0
 24 57  1  0  0  0  0
 25 26  1  0  0  0  0
 26 27  2  0  0  0  0
 26 58  1  0  0  0  0
 27 28  1  0  0  0  0
M  CHG  1  18   1
M  END
> <s_m_source_file>
AV-unprocessed.smi

> <i_m_source_file_index>
290

> <i_lp_mmshare_version>
43012

> <i_f3d_flags>
0

> <s_epik_input>
W0NIMl0xW0NIMl1PW0NAQEhdKFtDSDNdKVtDQEBdMShbT0hdKVtDSDJdbihbY0hdbjIpYyhjMjMpbltjSF1uYzNONFtDSDJdW0NIMl1bQ0BIXShbQ0BIXTRbQ0gzXSlOKFtDSDNdKVtDSDJdW0NIMl1bT0hd

> <s_epik_cmdline>
J2VwaWtfcHl0aG9uJywgJy1waCcsICc3LjAnLCAnLXRuJywgJzgnLCAnLW1hJywgJzIwMCcsICctbWV0YWxfYmluZGluZycsICctaW1hZScsICc8aW5maWxlLm1hZT4nLCAnLW9tYWUnLCAnPG91dGZpbGUubWFlPic=

> <r_lp_tautomer_probability>
1

> <r_epik_Ionization_Penalty>
0.0036983

> <r_epik_Ionization_Penalty_Charging>
0.0032725

> <r_epik_Ionization_Penalty_Neutral>
0.000425798

> <r_epik_State_Penalty>
-0

> <r_epik_Charging_Adjusted_Penalty>
0.0032725

> <i_epik_Tot_Q>
1

> <i_epik_Tot_abs_Q>
1

> <r_epik_Metal_State_Penalty>
-0

> <b_epik_Metal_Only>
0

> <s_lp_Force_Field>
OPLS_2005

> <r_lp_Energy>
65.2566

> <b_lp_Chiralities_Consistent>
1

> <s_lp_Variant>
AV-unprocessed.smi:290-7

> <Gold.Version>
5.8.1

> <Gold.Id.Protein>
6NUR|6NUR_protein|mol2

> <Gold.PLP.Fitness>
44.4682

> <Gold.PLP.PLP>
-38.5189

> <Gold.PLP.part.hbond>
-3.5457

> <Gold.PLP.part.metal>
0.0000

> <Gold.PLP.part.buried>
-5.0062

> <Gold.PLP.part.nonpolar>
-29.8202

> <Gold.PLP.part.repulsive>
0.3764

> <Gold.PLP.ligand.clash>
0.0000

> <Gold.PLP.ligand.torsion>
0.4830

> <Gold.PLP.Chemscore.Hbond>
1.2152

> <Gold.PLP.Chemscore.CHOScore>
1.0000

> <Gold.PLP.Chemscore.Metal>
0.0000

> <Gold.Chemscore.Hbonds>
donor molecule, donor type, donor heavy atom, donor atom, acceptor molecule, acceptor atom, score
      P1  H  6931  6943       L1    22  0.91
      P1  H  7989  7998       L1    27  0.27
      L1  C    26    58       P1  7957  1.00

> <Gold.PLP.Chemscore.Internal.Correction>
0.2698

> <Gold.Rescore>
     Score         DG    S(hbond)    S(metal)    S(lipo)     H(rot)  DE(clash)    DE(int)     intcor
      8.22      -9.08       0.93        0.00      84.52       3.67       0.28       0.58       ----

> <Gold.Chemscore.Fitness>
8.2184

> <Gold.Chemscore.DG>
-9.0838

> <Gold.Chemscore.ZeroCoef>
-5.4800

> <Gold.Chemscore.Hbond>
0.9279

> <Gold.Chemscore.Metal>
0.0000

> <Gold.Chemscore.Lipo>
84.5219

> <Gold.Chemscore.Internal_Hbond>
0.0000

> <Gold.Chemscore.DEClash>
0.2845

> <Gold.Chemscore.DEInternal>
0.5809

> <Gold.Chemscore.Rot>
3.6658

> <Gold.Chemscore.Internal.Correction>
   9.000000E+99

> <Gold.Chemscore.Hbonds>
donor molecule, donor type, donor heavy atom, donor atom, acceptor molecule, acceptor atom, score
      P1  H  6931  6943       L1    22  0.89

> <Gold.Chemscore.Hbond.Weighted>
-3.0992

> <Gold.Chemscore.Metal.Weighted>
-0.0000

> <Gold.Chemscore.Lipo.Weighted>
-9.8891

> <Gold.Chemscore.Internal_Hbond.Weighted>
0.0000

> <Gold.Chemscore.DEClash.Weighted>
0.2845

> <Gold.Chemscore.DEInternal.Weighted>
0.5809

> <Gold.Chemscore.Rot.Weighted>
9.3844

> <Gold.Chemscore.Internal.Correction.Weighted>
   9.000000E+99

> <Gold.Protein.RotatedTorsions>
[ 6907 6896 6895 6894 ] final  -27.56 input  -60.11 | X-H torsion
[ 7974 7965 7964 7962 ] final   51.44 input  175.53 | X-H torsion
[ 8008 7997 7996 7995 ] final  130.28 input   59.86 | X-H torsion
[ 10167 10162 10161 10158 ] final   15.48 input  -65.29 | X-H torsion
[ 10718 10713 10712 10709 ] final  -20.82 input   66.30 | X-H torsion
[ 10763 10752 10751 10750 ] final  115.97 input  -60.55 | X-H torsion
[ 11005 11000 10999 10996 ] final   30.85 input  -57.11 | X-H torsion

> <Gold.Protein.ActiveResidues>
 VAL166  LYS551  ARG553  GLY616  TRP617  ASP618  TYR619  PRO620  LYS621  CYS622 
 ASP623  PHE694  ASN695  SER759  ASP760  ASP761  ALA762  ILE779  LEU786  VAL792 
 PHE793  MET794  SER795  GLU796  ALA797  LYS798  CYS799  TRP800  GLU811  SER814 

> <Gold.Protein.RotatedAtoms>
  151.1453  135.0200  159.8643 H   0  0  0  0  0  0  0  0  0  0  0  0  # atno 6907 bound_to 6896
  152.5453  134.1452  159.8505 H   0  0  0  0  0  0  0  0  0  0  0  0  # atno 6908 bound_to 6896
  151.1532  133.4848  159.2628 H   0  0  0  0  0  0  0  0  0  0  0  0  # atno 6909 bound_to 6896
  145.9913  139.4342  143.0072 H   0  0  0  0  0  0  0  0  0  0  0  0  # atno 7974 bound_to 7965
  156.2952  140.2600  156.2736 H   0  0  0  0  0  0  0  0  0  0  0  0  # atno 8008 bound_to 7997
  154.9670  140.0391  157.2235 H   0  0  0  0  0  0  0  0  0  0  0  0  # atno 8009 bound_to 7997
  154.7893  140.2809  155.6008 H   0  0  0  0  0  0  0  0  0  0  0  0  # atno 8010 bound_to 7997
  140.5864  143.8880  150.6834 H   0  0  0  0  0  0  0  0  0  0  0  0  # atno 10167 bound_to 10162
  156.5266  130.4645  149.6569 H   0  0  0  0  0  0  0  0  0  0  0  0  # atno 10718 bound_to 10713
  153.5302  135.3580  155.2672 H   0  0  0  0  0  0  0  0  0  0  0  0  # atno 10763 bound_to 10752
  154.8727  135.4066  154.3160 H   0  0  0  0  0  0  0  0  0  0  0  0  # atno 10764 bound_to 10752
  153.3848  135.7069  153.6606 H   0  0  0  0  0  0  0  0  0  0  0  0  # atno 10765 bound_to 10752
  140.2901  134.2874  155.7778 H   0  0  0  0  0  0  0  0  0  0  0  0  # atno 11005 bound_to 11000
  145.7625  140.9929  143.1192 LP  0  0  0  0  0  0  0  0  0  0  0  0  # atno 17320 bound_to 7965
  144.6890  139.9348  143.7473 LP  0  0  0  0  0  0  0  0  0  0  0  0  # atno 17321 bound_to 7965
  140.2392  143.3676  152.1500 LP  0  0  0  0  0  0  0  0  0  0  0  0  # atno 17342 bound_to 10162
  139.5200  144.7028  151.5444 LP  0  0  0  0  0  0  0  0  0  0  0  0  # atno 17343 bound_to 10162
  156.3099  130.7223  151.2113 LP  0  0  0  0  0  0  0  0  0  0  0  0  # atno 17370 bound_to 10713
  157.7428  131.0484  150.4993 LP  0  0  0  0  0  0  0  0  0  0  0  0  # atno 17371 bound_to 10713
  141.2148  133.7580  156.9611 LP  0  0  0  0  0  0  0  0  0  0  0  0  # atno 17394 bound_to 11000
  140.1203  134.9421  157.2194 LP  0  0  0  0  0  0  0  0  0  0  0  0  # atno 17395 bound_to 11000

$$$$
