AV-unprocessed.smi:37|AV-procd|sdf|306|dock10
  -GOLD-   2262016113D 1   1.00000     0.00000
 Structure written by MMmdl.
 44 45  0  0  0  0  0  0  0  0  1 V2000
  151.4077  130.1316  155.5879 C   0  0  0  0  0  0  0  0  0  0  0  0
  150.7797  131.5263  155.7249 C   0  0  0  0  0  0  0  0  0  0  0  0
  150.4593  131.9141  157.1698 C   0  0  0  0  0  0  0  0  0  0  0  0
  151.3281  132.0093  158.0384 O   0  0  0  0  0  0  0  0  0  0  0  0
  149.1484  132.1196  157.3512 O   0  0  0  0  0  0  0  0  0  0  0  0
  148.7050  132.9901  158.3786 C   0  0  0  0  0  0  0  0  0  0  0  0
  148.8315  134.4608  157.9439 C   0  0  1  0  0  0  0  0  0  0  0  0
  148.0919  134.6546  156.7362 O   0  0  0  0  0  0  0  0  0  0  0  0
  147.4522  135.8962  156.7496 C   0  0  2  0  0  0  0  0  0  0  0  0
  148.3528  136.9658  156.1487 N   0  0  0  0  0  0  0  0  0  0  0  0
  149.5847  136.6743  155.5697 C   0  0  0  0  0  0  0  0  0  0  0  0
  150.3788  137.6155  155.0065 C   0  0  0  0  0  0  0  0  0  0  0  0
  151.5560  137.2539  154.4683 F   0  0  0  0  0  0  0  0  0  0  0  0
  149.9623  139.0130  154.9612 C   0  0  0  0  0  0  0  0  0  0  0  0
  150.6179  139.9380  154.4863 O   0  0  0  0  0  0  0  0  0  0  0  0
  148.6993  139.2541  155.5072 N   0  0  0  0  0  0  0  0  0  0  0  0
  147.8664  138.2920  156.0800 C   0  0  0  0  0  0  0  0  0  0  0  0
  146.7540  138.6153  156.4944 O   0  0  0  0  0  0  0  0  0  0  0  0
  147.1485  136.1720  158.2293 C   0  0  1  0  0  0  0  0  0  0  0  0
  145.4435  135.2543  158.7157 Br  0  0  0  0  0  0  0  0  0  0  0  0
  148.3450  135.5430  158.9310 C   0  0  1  0  0  0  0  0  0  0  0  0
  148.0078  135.0945  160.2394 O   0  0  0  0  0  0  0  0  0  0  0  0
  147.7104  135.9795  161.2083 C   0  0  0  0  0  0  0  0  0  0  0  0
  147.5858  137.1952  161.0606 O   0  0  0  0  0  0  0  0  0  0  0  0
  147.5250  135.3210  162.5739 C   0  0  0  0  0  0  0  0  0  0  0  0
  146.4261  134.2496  162.5634 C   0  0  0  0  0  0  0  0  0  0  0  0
  148.3559  140.2031  155.4737 H   0  0  0  0  0  0  0  0  0  0  0  0
  151.6103  129.9040  154.5413 H   0  0  0  0  0  0  0  0  0  0  0  0
  150.7429  129.3563  155.9710 H   0  0  0  0  0  0  0  0  0  0  0  0
  152.3529  130.0658  156.1280 H   0  0  0  0  0  0  0  0  0  0  0  0
  151.4527  132.2755  155.3074 H   0  0  0  0  0  0  0  0  0  0  0  0
  149.8590  131.5719  155.1427 H   0  0  0  0  0  0  0  0  0  0  0  0
  147.6666  132.7694  158.6293 H   0  0  0  0  0  0  0  0  0  0  0  0
  149.2958  132.8158  159.2786 H   0  0  0  0  0  0  0  0  0  0  0  0
  149.8854  134.6484  157.7390 H   0  0  0  0  0  0  0  0  0  0  0  0
  146.5710  135.8865  156.1056 H   0  0  0  0  0  0  0  0  0  0  0  0
  149.9489  135.6595  155.5389 H   0  0  0  0  0  0  0  0  0  0  0  0
  147.0302  137.2294  158.4607 H   0  0  0  0  0  0  0  0  0  0  0  0
  149.1176  136.3117  158.9925 H   0  0  0  0  0  0  0  0  0  0  0  0
  148.4718  134.8725  162.8761 H   0  0  0  0  0  0  0  0  0  0  0  0
  147.2909  136.0910  163.3092 H   0  0  0  0  0  0  0  0  0  0  0  0
  146.3780  133.7394  163.5255 H   0  0  0  0  0  0  0  0  0  0  0  0
  146.6117  133.4949  161.7984 H   0  0  0  0  0  0  0  0  0  0  0  0
  145.4454  134.6878  162.3757 H   0  0  0  0  0  0  0  0  0  0  0  0
  1  2  1  0  0  0  0
  1 28  1  0  0  0  0
  1 29  1  0  0  0  0
  1 30  1  0  0  0  0
  2  3  1  0  0  0  0
  2 31  1  0  0  0  0
  2 32  1  0  0  0  0
  3  4  2  0  0  0  0
  3  5  1  0  0  0  0
  5  6  1  0  0  0  0
  6  7  1  0  0  0  0
  6 33  1  0  0  0  0
  6 34  1  0  0  0  0
  7 21  1  0  0  0  0
  7  8  1  0  0  0  0
  7 35  1  0  0  0  0
  8  9  1  0  0  0  0
  9 10  1  0  0  0  0
  9 19  1  0  0  0  0
  9 36  1  0  0  0  0
 10 17  1  0  0  0  0
 10 11  1  0  0  0  0
 11 12  2  0  0  0  0
 11 37  1  0  0  0  0
 12 13  1  0  0  0  0
 12 14  1  0  0  0  0
 14 15  2  0  0  0  0
 14 16  1  0  0  0  0
 16 27  1  0  0  0  0
 16 17  1  0  0  0  0
 17 18  2  0  0  0  0
 19 20  1  0  0  0  0
 19 21  1  0  0  0  0
 19 38  1  0  0  0  0
 21 22  1  0  0  0  0
 21 39  1  0  0  0  0
 22 23  1  0  0  0  0
 23 24  2  0  0  0  0
 23 25  1  0  0  0  0
 25 26  1  0  0  0  0
 25 40  1  0  0  0  0
 25 41  1  0  0  0  0
 26 42  1  0  0  0  0
 26 43  1  0  0  0  0
 26 44  1  0  0  0  0
M  END
> <s_m_source_file>
AV-unprocessed.smi

> <i_m_source_file_index>
37

> <i_lp_mmshare_version>
43012

> <i_f3d_flags>
0

> <s_epik_input>
W0NIM11bQ0gyXUMoPU8pT1tDSDJdW0NAQEhdMU9bQ0BASF0objJbY0hdYyhGKWMoPU8pW25IXWMyPU8pW0NAQEhdKEJyKVtDQEhdMU9DKD1PKVtDSDJdW0NIM10=

> <s_epik_cmdline>
J2VwaWtfcHl0aG9uJywgJy1waCcsICc3LjAnLCAnLXRuJywgJzgnLCAnLW1hJywgJzIwMCcsICctbWV0YWxfYmluZGluZycsICctaW1hZScsICc8aW5maWxlLm1hZT4nLCAnLW9tYWUnLCAnPG91dGZpbGUubWFlPic=

> <r_lp_tautomer_probability>
0.999537

> <r_epik_Ionization_Penalty>
0.104106

> <r_epik_Ionization_Penalty_Charging>
0.104106

> <r_epik_Ionization_Penalty_Neutral>
3.94675e-16

> <r_epik_State_Penalty>
0.0940182

> <r_epik_Charging_Adjusted_Penalty>
0.198124

> <i_epik_Tot_Q>
0

> <i_epik_Tot_abs_Q>
0

> <r_epik_Metal_State_Penalty>
3.05314

> <b_epik_Metal_Only>
0

> <s_epik_Chemistry_Notes>
This compound has an ester and may undergo hydrolysis at high or low pH. This compound contains an acetal/aminal-like group ( X-CH(R)-Y where X, Y are N, S, or O) that may be acid/base labile, releasing an aldehyde.

> <s_lp_Force_Field>
OPLS_2005

> <r_lp_Energy>
23.6922

> <b_lp_Chiralities_Consistent>
1

> <s_lp_Variant>
AV-unprocessed.smi:37-4

> <Gold.Version>
5.8.1

> <Gold.Id.Protein>
6NUR|6NUR_protein|mol2

> <Gold.PLP.Fitness>
41.5635

> <Gold.PLP.PLP>
-31.0093

> <Gold.PLP.part.hbond>
-4.0000

> <Gold.PLP.part.metal>
0.0000

> <Gold.PLP.part.buried>
-4.8366

> <Gold.PLP.part.nonpolar>
-23.2976

> <Gold.PLP.part.repulsive>
0.0970

> <Gold.PLP.ligand.clash>
0.0000

> <Gold.PLP.ligand.torsion>
0.5528

> <Gold.PLP.Chemscore.Hbond>
3.8400

> <Gold.PLP.Chemscore.CHOScore>
0.0000

> <Gold.PLP.Chemscore.Metal>
0.0000

> <Gold.Chemscore.Hbonds>
donor molecule, donor type, donor heavy atom, donor atom, acceptor molecule, acceptor atom, score
      P1  H  6896  6909       L1     4  1.00
      P1  H  6931  6943       L1    24  0.88
      P1  H  6934  6947       L1    24  0.94
      P1  H  7989  7998       L1    15  1.00

> <Gold.PLP.Chemscore.Internal.Correction>
0.1399

> <Gold.Rescore>
     Score         DG    S(hbond)    S(metal)    S(lipo)     H(rot)  DE(clash)    DE(int)     intcor
     14.47     -14.77       3.74        0.00      45.37       3.33       0.00       0.30       ----

> <Gold.Chemscore.Fitness>
14.4703

> <Gold.Chemscore.DG>
-14.7713

> <Gold.Chemscore.ZeroCoef>
-5.4800

> <Gold.Chemscore.Hbond>
3.7449

> <Gold.Chemscore.Metal>
0.0000

> <Gold.Chemscore.Lipo>
45.3745

> <Gold.Chemscore.Internal_Hbond>
0.0000

> <Gold.Chemscore.DEClash>
0.0000

> <Gold.Chemscore.DEInternal>
0.3010

> <Gold.Chemscore.Rot>
3.3303

> <Gold.Chemscore.Internal.Correction>
   9.000000E+99

> <Gold.Chemscore.Hbonds>
donor molecule, donor type, donor heavy atom, donor atom, acceptor molecule, acceptor atom, score
      P1  H  6896  6909       L1     4  1.00
      P1  H  6931  6943       L1    24  0.75
      P1  H  6934  6947       L1    24  0.91
      P1  H  7989  7998       L1    15  1.00

> <Gold.Chemscore.Hbond.Weighted>
-12.5081

> <Gold.Chemscore.Metal.Weighted>
-0.0000

> <Gold.Chemscore.Lipo.Weighted>
-5.3088

> <Gold.Chemscore.Internal_Hbond.Weighted>
0.0000

> <Gold.Chemscore.DEClash.Weighted>
0.0000

> <Gold.Chemscore.DEInternal.Weighted>
0.3010

> <Gold.Chemscore.Rot.Weighted>
8.5256

> <Gold.Chemscore.Internal.Correction.Weighted>
   9.000000E+99

> <Gold.Protein.RotatedTorsions>
[ 6907 6896 6895 6894 ] final  -48.84 input  -60.11 | X-H torsion
[ 7974 7965 7964 7962 ] final -178.07 input  175.53 | X-H torsion
[ 8008 7997 7996 7995 ] final -116.93 input   59.86 | X-H torsion
[ 10167 10162 10161 10158 ] final   12.97 input  -65.29 | X-H torsion
[ 10718 10713 10712 10709 ] final   85.66 input   66.30 | X-H torsion
[ 10763 10752 10751 10750 ] final  -28.59 input  -60.55 | X-H torsion
[ 11005 11000 10999 10996 ] final -168.79 input  -57.11 | X-H torsion

> <Gold.Protein.ActiveResidues>
 VAL166  LYS551  ARG553  GLY616  TRP617  ASP618  TYR619  PRO620  LYS621  CYS622 
 ASP623  PHE694  ASN695  SER759  ASP760  ASP761  ALA762  ILE779  LEU786  VAL792 
 PHE793  MET794  SER795  GLU796  ALA797  LYS798  CYS799  TRP800  GLU811  SER814 

> <Gold.Protein.RotatedAtoms>
  150.8865  134.8263  159.7262 H   0  0  0  0  0  0  0  0  0  0  0  0  # atno 6907 bound_to 6896
  152.4811  134.4715  159.9647 H   0  0  0  0  0  0  0  0  0  0  0  0  # atno 6908 bound_to 6896
  151.4783  133.3514  159.2869 H   0  0  0  0  0  0  0  0  0  0  0  0  # atno 6909 bound_to 6896
  144.7129  140.0923  143.6420 H   0  0  0  0  0  0  0  0  0  0  0  0  # atno 7974 bound_to 7965
  155.0756  140.0394  157.2623 H   0  0  0  0  0  0  0  0  0  0  0  0  # atno 8008 bound_to 7997
  154.6948  140.2661  155.6753 H   0  0  0  0  0  0  0  0  0  0  0  0  # atno 8009 bound_to 7997
  156.2741  140.2752  156.1538 H   0  0  0  0  0  0  0  0  0  0  0  0  # atno 8010 bound_to 7997
  140.6033  143.8559  150.6988 H   0  0  0  0  0  0  0  0  0  0  0  0  # atno 10167 bound_to 10162
  157.6918  131.0184  150.2855 H   0  0  0  0  0  0  0  0  0  0  0  0  # atno 10718 bound_to 10713
  153.7508  135.6926  153.4946 H   0  0  0  0  0  0  0  0  0  0  0  0  # atno 10763 bound_to 10752
  153.2004  135.4438  155.0258 H   0  0  0  0  0  0  0  0  0  0  0  0  # atno 10764 bound_to 10752
  154.8188  135.3411  154.7029 H   0  0  0  0  0  0  0  0  0  0  0  0  # atno 10765 bound_to 10752
  140.5381  134.5550  157.5092 H   0  0  0  0  0  0  0  0  0  0  0  0  # atno 11005 bound_to 11000
  145.9609  139.2800  143.1156 LP  0  0  0  0  0  0  0  0  0  0  0  0  # atno 17320 bound_to 7965
  145.9221  140.9108  143.0399 LP  0  0  0  0  0  0  0  0  0  0  0  0  # atno 17321 bound_to 7965
  140.2110  143.3883  152.1718 LP  0  0  0  0  0  0  0  0  0  0  0  0  # atno 17342 bound_to 10162
  139.5307  144.7155  151.5067 LP  0  0  0  0  0  0  0  0  0  0  0  0  # atno 17343 bound_to 10162
  156.3395  130.3813  149.7421 LP  0  0  0  0  0  0  0  0  0  0  0  0  # atno 17370 bound_to 10713
  156.4935  130.8096  151.3104 LP  0  0  0  0  0  0  0  0  0  0  0  0  # atno 17371 bound_to 10713
  139.9518  134.7603  156.0430 LP  0  0  0  0  0  0  0  0  0  0  0  0  # atno 17394 bound_to 11000
  141.1243  133.6604  156.3296 LP  0  0  0  0  0  0  0  0  0  0  0  0  # atno 17395 bound_to 11000

$$$$
