AV-unprocessed.smi:3255|AV-procd|sdf|12460|dock4
  -GOLD-   2272018353D 1   1.00000     0.00000
 Structure written by MMmdl.
 39 40  0  0  0  0  0  0  0  0  2 V2000
  149.7854  135.4088  156.8490 C   0  0  0  0  0  0  0  0  0  0  0  0
  150.4566  135.6080  155.4787 C   0  0  1  0  0  0  0  0  0  0  0  0
  149.5277  135.2329  154.4159 N   0  0  0  0  0  0  0  0  0  0  0  0
  148.7999  134.1085  154.3849 C   0  0  0  0  0  0  0  0  0  0  0  0
  148.8056  133.2550  155.2725 O   0  0  0  0  0  0  0  0  0  0  0  0
  148.0654  134.0212  153.2673 N   0  0  0  0  0  0  0  0  0  0  0  0
  147.1723  132.9148  152.9459 C   0  0  0  0  0  0  0  0  0  0  0  0
  146.8468  132.8696  151.4435 C   0  0  0  0  0  0  0  0  0  0  0  0
  145.7506  133.7756  151.1001 N   0  0  0  0  0  0  0  0  0  0  0  0
  145.7392  135.1420  151.2107 C   0  0  0  0  0  0  0  0  0  0  0  0
  144.5099  135.5588  150.7689 C   0  0  0  0  0  0  0  0  0  0  0  0
  143.8247  134.4298  150.4066 N   0  3  0  0  0  0  0  0  0  0  0  0
  144.5813  133.3460  150.6092 C   0  0  0  0  0  0  0  0  0  0  0  0
  150.9106  137.0632  155.2581 C   0  0  1  0  0  0  0  0  0  0  0  0
  151.4872  137.7510  156.4974 C   0  0  0  0  0  0  0  0  0  0  0  0
  152.4317  138.7985  155.9268 C   0  0  0  0  0  0  0  0  0  0  0  0
  152.5712  138.4140  154.4519 C   0  0  0  0  0  0  0  0  0  0  0  0
  152.0074  137.1143  154.3580 O   0  0  0  0  0  0  0  0  0  0  0  0
  150.4673  135.6508  157.6643 H   0  0  0  0  0  0  0  0  0  0  0  0
  149.4718  134.3738  156.9887 H   0  0  0  0  0  0  0  0  0  0  0  0
  148.9030  136.0409  156.9541 H   0  0  0  0  0  0  0  0  0  0  0  0
  151.3368  134.9643  155.4243 H   0  0  0  0  0  0  0  0  0  0  0  0
  149.4547  135.8689  153.6354 H   0  0  0  0  0  0  0  0  0  0  0  0
  148.1279  134.7717  152.5948 H   0  0  0  0  0  0  0  0  0  0  0  0
  147.6188  131.9729  153.2699 H   0  0  0  0  0  0  0  0  0  0  0  0
  146.2557  133.0390  153.5232 H   0  0  0  0  0  0  0  0  0  0  0  0
  147.7186  133.1423  150.8468 H   0  0  0  0  0  0  0  0  0  0  0  0
  146.5506  131.8652  151.1378 H   0  0  0  0  0  0  0  0  0  0  0  0
  146.5851  135.7006  151.5854 H   0  0  0  0  0  0  0  0  0  0  0  0
  144.0836  136.5480  150.6868 H   0  0  0  0  0  0  0  0  0  0  0  0
  144.3026  132.3257  150.4130 H   0  0  0  0  0  0  0  0  0  0  0  0
  150.0930  137.6608  154.8492 H   0  0  0  0  0  0  0  0  0  0  0  0
  150.7151  138.1820  157.1356 H   0  0  0  0  0  0  0  0  0  0  0  0
  152.0564  137.0376  157.0952 H   0  0  0  0  0  0  0  0  0  0  0  0
  152.0255  139.8056  156.0268 H   0  0  0  0  0  0  0  0  0  0  0  0
  153.3931  138.7712  156.4407 H   0  0  0  0  0  0  0  0  0  0  0  0
  152.0007  139.0978  153.8217 H   0  0  0  0  0  0  0  0  0  0  0  0
  153.6068  138.4211  154.1114 H   0  0  0  0  0  0  0  0  0  0  0  0
  142.8822  134.4144  150.0375 H   0  0  0  0  0  0  0  0  0  0  0  0
  1  2  1  0  0  0  0
  1 19  1  0  0  0  0
  1 20  1  0  0  0  0
  1 21  1  0  0  0  0
  2  3  1  0  0  0  0
  2 14  1  0  0  0  0
  2 22  1  0  0  0  0
  3  4  1  0  0  0  0
  3 23  1  0  0  0  0
  4  5  2  0  0  0  0
  4  6  1  0  0  0  0
  6  7  1  0  0  0  0
  6 24  1  0  0  0  0
  7  8  1  0  0  0  0
  7 25  1  0  0  0  0
  7 26  1  0  0  0  0
  8  9  1  0  0  0  0
  8 27  1  0  0  0  0
  8 28  1  0  0  0  0
  9 13  1  0  0  0  0
  9 10  1  0  0  0  0
 10 11  2  0  0  0  0
 10 29  1  0  0  0  0
 11 12  1  0  0  0  0
 11 30  1  0  0  0  0
 12 13  2  0  0  0  0
 12 39  1  0  0  0  0
 13 31  1  0  0  0  0
 14 18  1  0  0  0  0
 14 15  1  0  0  0  0
 14 32  1  0  0  0  0
 15 16  1  0  0  0  0
 15 33  1  0  0  0  0
 15 34  1  0  0  0  0
 16 17  1  0  0  0  0
 16 35  1  0  0  0  0
 16 36  1  0  0  0  0
 17 18  1  0  0  0  0
 17 37  1  0  0  0  0
 17 38  1  0  0  0  0
M  CHG  1  12   1
M  END
> <s_m_source_file>
AV-unprocessed.smi

> <i_m_source_file_index>
3255

> <i_lp_mmshare_version>
43012

> <i_f3d_flags>
0

> <s_epik_input>
TzFbQ0gyXVtDSDJdW0NIMl1bQ0BIXTFbQ0BIXShbQ0gzXSlbTkhdQyg9TylbTkhdW0NIMl1bQ0gyXW4yW2NIXVtjSF1uW2NIXTI=

> <s_epik_cmdline>
J2VwaWtfcHl0aG9uJywgJy1waCcsICc3LjAnLCAnLXRuJywgJzgnLCAnLW1hJywgJzIwMCcsICctbWV0YWxfYmluZGluZycsICctaW1hZScsICc8aW5maWxlLm1hZT4nLCAnLW9tYWUnLCAnPG91dGZpbGUubWFlPic=

> <r_lp_tautomer_probability>
1

> <r_epik_Ionization_Penalty>
0.256241

> <r_epik_Ionization_Penalty_Charging>
0

> <r_epik_Ionization_Penalty_Neutral>
0.256241

> <r_epik_State_Penalty>
0.247735

> <r_epik_Charging_Adjusted_Penalty>
0.247735

> <i_epik_Tot_Q>
1

> <i_epik_Tot_abs_Q>
1

> <r_epik_Metal_State_Penalty>
0.537184

> <b_epik_Metal_Only>
0

> <s_lp_Force_Field>
OPLS_2005

> <r_lp_Energy>
17.8763

> <b_lp_Chiralities_Consistent>
1

> <s_lp_Variant>
AV-unprocessed.smi:3255-4

> <Gold.Version>
5.8.1

> <Gold.Id.Protein>
6NUR|6NUR_protein|mol2

> <Gold.PLP.Fitness>
47.4195

> <Gold.PLP.PLP>
-31.1274

> <Gold.PLP.part.hbond>
-4.0000

> <Gold.PLP.part.metal>
0.0000

> <Gold.PLP.part.buried>
-4.4034

> <Gold.PLP.part.nonpolar>
-22.6000

> <Gold.PLP.part.repulsive>
0.2315

> <Gold.PLP.ligand.clash>
0.0000

> <Gold.PLP.ligand.torsion>
0.8772

> <Gold.PLP.Chemscore.Hbond>
4.9920

> <Gold.PLP.Chemscore.CHOScore>
1.0000

> <Gold.PLP.Chemscore.Metal>
0.0000

> <Gold.Chemscore.Hbonds>
donor molecule, donor type, donor heavy atom, donor atom, acceptor molecule, acceptor atom, score
      L1  H     3    23       P1  7948  1.00
      L1  H     6    24       P1  7948  1.00
      L1  H    12    39       P1 10186  2.00
      P1  H 10752 10765       L1    18  0.99
      L1  C    10    29       P1  7948  1.00

> <Gold.PLP.Chemscore.Internal.Correction>
0.0704

> <Gold.Rescore>
     Score         DG    S(hbond)    S(metal)    S(lipo)     H(rot)  DE(clash)    DE(int)     intcor
     15.69     -17.88       3.44        0.00      57.22       2.26       0.14       2.05       ----

> <Gold.Chemscore.Fitness>
15.6901

> <Gold.Chemscore.DG>
-17.8797

> <Gold.Chemscore.ZeroCoef>
-5.4800

> <Gold.Chemscore.Hbond>
3.4432

> <Gold.Chemscore.Metal>
0.0000

> <Gold.Chemscore.Lipo>
57.2241

> <Gold.Chemscore.Internal_Hbond>
0.0000

> <Gold.Chemscore.DEClash>
0.1419

> <Gold.Chemscore.DEInternal>
2.0477

> <Gold.Chemscore.Rot>
2.2640

> <Gold.Chemscore.Internal.Correction>
   9.000000E+99

> <Gold.Chemscore.Hbonds>
donor molecule, donor type, donor heavy atom, donor atom, acceptor molecule, acceptor atom, score
      L1  H     3    23       P1  7948  0.42
      L1  H     6    24       P1  7948  0.58
      L1  H    12    39       P1 10186  0.90
      P1  H 10752 10765       L1    18  0.88

> <Gold.Chemscore.Hbond.Weighted>
-11.5002

> <Gold.Chemscore.Metal.Weighted>
-0.0000

> <Gold.Chemscore.Lipo.Weighted>
-6.6952

> <Gold.Chemscore.Internal_Hbond.Weighted>
0.0000

> <Gold.Chemscore.DEClash.Weighted>
0.1419

> <Gold.Chemscore.DEInternal.Weighted>
2.0477

> <Gold.Chemscore.Rot.Weighted>
5.7958

> <Gold.Chemscore.Internal.Correction.Weighted>
   9.000000E+99

> <Gold.Protein.RotatedTorsions>
[ 6907 6896 6895 6894 ] final -144.57 input  -60.11 | X-H torsion
[ 7974 7965 7964 7962 ] final   79.94 input  175.53 | X-H torsion
[ 8008 7997 7996 7995 ] final  100.68 input   59.86 | X-H torsion
[ 10167 10162 10161 10158 ] final -165.09 input  -65.29 | X-H torsion
[ 10718 10713 10712 10709 ] final   84.61 input   66.30 | X-H torsion
[ 10763 10752 10751 10750 ] final  155.29 input  -60.55 | X-H torsion
[ 11005 11000 10999 10996 ] final -161.38 input  -57.11 | X-H torsion

> <Gold.Protein.ActiveResidues>
 VAL166  LYS551  ARG553  GLY616  TRP617  ASP618  TYR619  PRO620  LYS621  CYS622 
 ASP623  PHE694  ASN695  SER759  ASP760  ASP761  ALA762  ILE779  LEU786  VAL792 
 PHE793  MET794  SER795  GLU796  ALA797  LYS798  CYS799  TRP800  GLU811  SER814 

> <Gold.Protein.RotatedAtoms>
  151.1158  133.5139  159.2603 H   0  0  0  0  0  0  0  0  0  0  0  0  # atno 6907 bound_to 6896
  151.1916  135.0404  159.8845 H   0  0  0  0  0  0  0  0  0  0  0  0  # atno 6908 bound_to 6896
  152.5453  134.0998  159.8366 H   0  0  0  0  0  0  0  0  0  0  0  0  # atno 6909 bound_to 6896
  145.6576  139.2463  143.1941 H   0  0  0  0  0  0  0  0  0  0  0  0  # atno 7974 bound_to 7965
  156.1226  140.3209  155.8231 H   0  0  0  0  0  0  0  0  0  0  0  0  # atno 8008 bound_to 7997
  155.4477  140.0530  157.3021 H   0  0  0  0  0  0  0  0  0  0  0  0  # atno 8009 bound_to 7997
  154.4839  140.2064  155.9714 H   0  0  0  0  0  0  0  0  0  0  0  0  # atno 8010 bound_to 7997
  139.6206  144.0633  152.1929 H   0  0  0  0  0  0  0  0  0  0  0  0  # atno 10167 bound_to 10162
  157.6901  131.0140  150.2698 H   0  0  0  0  0  0  0  0  0  0  0  0  # atno 10718 bound_to 10713
  154.1660  135.2807  155.3095 H   0  0  0  0  0  0  0  0  0  0  0  0  # atno 10763 bound_to 10752
  154.6111  135.5498  153.7477 H   0  0  0  0  0  0  0  0  0  0  0  0  # atno 10764 bound_to 10752
  153.0178  135.6415  154.1801 H   0  0  0  0  0  0  0  0  0  0  0  0  # atno 10765 bound_to 10752
  140.6210  134.4750  157.5223 H   0  0  0  0  0  0  0  0  0  0  0  0  # atno 11005 bound_to 11000
  146.1152  140.7379  142.9484 LP  0  0  0  0  0  0  0  0  0  0  0  0  # atno 17320 bound_to 7965
  144.7100  140.4003  143.7088 LP  0  0  0  0  0  0  0  0  0  0  0  0  # atno 17321 bound_to 7965
  140.0274  144.6107  150.7516 LP  0  0  0  0  0  0  0  0  0  0  0  0  # atno 17342 bound_to 10162
  140.7379  143.2771  151.3708 LP  0  0  0  0  0  0  0  0  0  0  0  0  # atno 17343 bound_to 10162
  156.3262  130.3793  149.7531 LP  0  0  0  0  0  0  0  0  0  0  0  0  # atno 17370 bound_to 10713
  156.5085  130.8161  151.3160 LP  0  0  0  0  0  0  0  0  0  0  0  0  # atno 17371 bound_to 10713
  139.9153  134.8259  156.1387 LP  0  0  0  0  0  0  0  0  0  0  0  0  # atno 17394 bound_to 11000
  141.0742  133.6783  156.2202 LP  0  0  0  0  0  0  0  0  0  0  0  0  # atno 17395 bound_to 11000

$$$$
