AV-unprocessed.smi:1127|AV-procd|sdf|4841|dock8
  -GOLD-   22720 3403D 1   1.00000     0.00000
 Structure written by MMmdl.
 42 43  0  0  0  0  0  0  0  0  1 V2000
  146.3205  142.9361  156.4185 C   0  0  0  0  0  0  0  0  0  0  0  0
  147.3502  141.7323  157.3827 S   0  0  1  0  0  0  0  0  0  0  0  0
  146.4272  141.0676  158.4056 O   0  0  0  0  0  0  0  0  0  0  0  0
  147.4691  140.5183  156.0228 C   0  0  0  0  0  0  0  0  0  0  0  0
  146.7308  139.4067  155.9505 N   0  0  0  0  0  0  0  0  0  0  0  0
  147.1256  138.7932  154.7767 N   0  0  0  0  0  0  0  0  0  0  0  0
  148.0590  139.6008  154.2688 C   0  0  0  0  0  0  0  0  0  0  0  0
  148.3228  140.6972  154.9971 N   0  0  0  0  0  0  0  0  0  0  0  0
  149.2716  141.7646  154.7260 C   0  0  0  0  0  0  0  0  0  0  0  0
  150.5125  141.6607  155.6171 C   0  0  0  0  0  0  0  0  0  0  0  0
  151.2303  140.6616  155.5700 O   0  0  0  0  0  0  0  0  0  0  0  0
  150.7602  142.7139  156.4108 N   0  0  0  0  0  0  0  0  0  0  0  0
  151.9129  142.8623  157.2961 C   0  0  0  0  0  0  0  0  0  0  0  0
  151.6830  142.0269  158.5740 C   0  0  0  0  0  0  0  0  0  0  0  0
  152.6972  142.2607  159.7118 C   0  0  0  0  0  0  0  0  0  0  0  0
  152.1735  143.1386  160.8671 C   0  0  0  0  0  0  0  0  0  0  0  0
  151.9460  144.6333  160.5603 C   0  0  0  0  0  0  0  0  0  0  0  0
  150.7714  144.9253  159.6045 C   0  0  0  0  0  0  0  0  0  0  0  0
  151.1648  145.2441  158.1494 C   0  0  0  0  0  0  0  0  0  0  0  0
  152.2501  144.3564  157.5081 C   0  0  0  0  0  0  0  0  0  0  0  0
  146.6449  142.9799  155.3785 H   0  0  0  0  0  0  0  0  0  0  0  0
  146.4090  143.9334  156.8480 H   0  0  0  0  0  0  0  0  0  0  0  0
  145.2715  142.6411  156.4437 H   0  0  0  0  0  0  0  0  0  0  0  0
  148.5629  139.3856  153.3379 H   0  0  0  0  0  0  0  0  0  0  0  0
  149.5453  141.7285  153.6704 H   0  0  0  0  0  0  0  0  0  0  0  0
  148.7853  142.7248  154.9010 H   0  0  0  0  0  0  0  0  0  0  0  0
  150.1124  143.4882  156.3812 H   0  0  0  0  0  0  0  0  0  0  0  0
  152.7822  142.4210  156.8049 H   0  0  0  0  0  0  0  0  0  0  0  0
  150.6658  142.1434  158.9453 H   0  0  0  0  0  0  0  0  0  0  0  0
  151.7414  140.9770  158.2832 H   0  0  0  0  0  0  0  0  0  0  0  0
  152.9371  141.2869  160.1407 H   0  0  0  0  0  0  0  0  0  0  0  0
  153.6460  142.6380  159.3306 H   0  0  0  0  0  0  0  0  0  0  0  0
  151.2548  142.7057  161.2646 H   0  0  0  0  0  0  0  0  0  0  0  0
  152.8957  143.0760  161.6819 H   0  0  0  0  0  0  0  0  0  0  0  0
  151.7208  145.1184  161.5110 H   0  0  0  0  0  0  0  0  0  0  0  0
  152.8653  145.1076  160.2169 H   0  0  0  0  0  0  0  0  0  0  0  0
  150.0405  144.1191  159.6386 H   0  0  0  0  0  0  0  0  0  0  0  0
  150.2294  145.7919  159.9848 H   0  0  0  0  0  0  0  0  0  0  0  0
  150.2679  145.2404  157.5301 H   0  0  0  0  0  0  0  0  0  0  0  0
  151.5299  146.2714  158.1216 H   0  0  0  0  0  0  0  0  0  0  0  0
  153.1836  144.4544  158.0594 H   0  0  0  0  0  0  0  0  0  0  0  0
  152.4801  144.7834  156.5312 H   0  0  0  0  0  0  0  0  0  0  0  0
  1  2  1  0  0  0  0
  1 21  1  0  0  0  0
  1 22  1  0  0  0  0
  1 23  1  0  0  0  0
  2  3  2  0  0  0  0
  2  4  1  0  0  0  0
  4  8  1  0  0  0  0
  4  5  2  0  0  0  0
  5  6  1  0  0  0  0
  6  7  2  0  0  0  0
  7  8  1  0  0  0  0
  7 24  1  0  0  0  0
  8  9  1  0  0  0  0
  9 10  1  0  0  0  0
  9 25  1  0  0  0  0
  9 26  1  0  0  0  0
 10 11  2  0  0  0  0
 10 12  1  0  0  0  0
 12 13  1  0  0  0  0
 12 27  1  0  0  0  0
 13 20  1  0  0  0  0
 13 14  1  0  0  0  0
 13 28  1  0  0  0  0
 14 15  1  0  0  0  0
 14 29  1  0  0  0  0
 14 30  1  0  0  0  0
 15 16  1  0  0  0  0
 15 31  1  0  0  0  0
 15 32  1  0  0  0  0
 16 17  1  0  0  0  0
 16 33  1  0  0  0  0
 16 34  1  0  0  0  0
 17 18  1  0  0  0  0
 17 35  1  0  0  0  0
 17 36  1  0  0  0  0
 18 19  1  0  0  0  0
 18 37  1  0  0  0  0
 18 38  1  0  0  0  0
 19 20  1  0  0  0  0
 19 39  1  0  0  0  0
 19 40  1  0  0  0  0
 20 41  1  0  0  0  0
 20 42  1  0  0  0  0
M  END
> <s_m_source_file>
AV-unprocessed.smi

> <i_m_source_file_index>
1127

> <i_lp_mmshare_version>
43012

> <i_f3d_flags>
0

> <s_epik_input>
W0NIM11bU0BdKD1PKWMxbm5bY0hdbjFbQ0gyXUMoPU8pW05IXVtDSF0yW0NIMl1bQ0gyXVtDSDJdW0NIMl1bQ0gyXVtDSDJdW0NIMl0y

> <s_epik_cmdline>
J2VwaWtfcHl0aG9uJywgJy1waCcsICc3LjAnLCAnLXRuJywgJzgnLCAnLW1hJywgJzIwMCcsICctbWV0YWxfYmluZGluZycsICctaW1hZScsICc8aW5maWxlLm1hZT4nLCAnLW9tYWUnLCAnPG91dGZpbGUubWFlPic=

> <r_lp_tautomer_probability>
1

> <r_epik_Ionization_Penalty>
7.34999e-08

> <r_epik_Ionization_Penalty_Charging>
0

> <r_epik_Ionization_Penalty_Neutral>
7.34999e-08

> <r_epik_State_Penalty>
-0

> <r_epik_Charging_Adjusted_Penalty>
0

> <i_epik_Tot_Q>
0

> <i_epik_Tot_abs_Q>
0

> <r_epik_Metal_State_Penalty>
-0

> <b_epik_Metal_Only>
0

> <s_lp_Force_Field>
OPLS_2005

> <r_lp_Energy>
17.4242

> <b_lp_Chiralities_Consistent>
1

> <s_lp_Variant>
AV-unprocessed.smi:1127-2

> <Gold.Version>
5.8.1

> <Gold.Id.Protein>
6NUR|6NUR_protein|mol2

> <Gold.PLP.Fitness>
43.6781

> <Gold.PLP.PLP>
-36.3005

> <Gold.PLP.part.hbond>
-3.0000

> <Gold.PLP.part.metal>
0.0000

> <Gold.PLP.part.buried>
-4.6356

> <Gold.PLP.part.nonpolar>
-27.8154

> <Gold.PLP.part.repulsive>
0.1885

> <Gold.PLP.ligand.clash>
0.0000

> <Gold.PLP.ligand.torsion>
1.2340

> <Gold.PLP.Chemscore.Hbond>
1.9285

> <Gold.PLP.Chemscore.CHOScore>
1.0000

> <Gold.PLP.Chemscore.Metal>
0.0000

> <Gold.Chemscore.Hbonds>
donor molecule, donor type, donor heavy atom, donor atom, acceptor molecule, acceptor atom, score
      L1  H    12    27       P1  8028  1.00
      P1  H  6934  6946       L1     3  0.09
      P1  H  7989  7998       L1    11  0.45
      L1  C     7    24       P1  7957  1.00

> <Gold.PLP.Chemscore.Internal.Correction>
1.0601

> <Gold.Rescore>
     Score         DG    S(hbond)    S(metal)    S(lipo)     H(rot)  DE(clash)    DE(int)     intcor
     15.12     -17.38       1.45        0.00      97.48       1.70       1.05       1.21       ----

> <Gold.Chemscore.Fitness>
15.1237

> <Gold.Chemscore.DG>
-17.3776

> <Gold.Chemscore.ZeroCoef>
-5.4800

> <Gold.Chemscore.Hbond>
1.4537

> <Gold.Chemscore.Metal>
0.0000

> <Gold.Chemscore.Lipo>
97.4806

> <Gold.Chemscore.Internal_Hbond>
0.0000

> <Gold.Chemscore.DEClash>
1.0474

> <Gold.Chemscore.DEInternal>
1.2065

> <Gold.Chemscore.Rot>
1.7044

> <Gold.Chemscore.Internal.Correction>
   9.000000E+99

> <Gold.Chemscore.Hbonds>
donor molecule, donor type, donor heavy atom, donor atom, acceptor molecule, acceptor atom, score
      L1  H    12    27       P1  8028  0.99
      P1  H  6934  6946       L1     3  0.10
      P1  H  7989  7998       L1    11  0.05

> <Gold.Chemscore.Hbond.Weighted>
-4.8555

> <Gold.Chemscore.Metal.Weighted>
-0.0000

> <Gold.Chemscore.Lipo.Weighted>
-11.4052

> <Gold.Chemscore.Internal_Hbond.Weighted>
0.0000

> <Gold.Chemscore.DEClash.Weighted>
1.0474

> <Gold.Chemscore.DEInternal.Weighted>
1.2065

> <Gold.Chemscore.Rot.Weighted>
4.3631

> <Gold.Chemscore.Internal.Correction.Weighted>
   9.000000E+99

> <Gold.Protein.RotatedTorsions>
[ 6907 6896 6895 6894 ] final -162.41 input  -60.11 | X-H torsion
[ 7974 7965 7964 7962 ] final  -50.73 input  175.53 | X-H torsion
[ 8008 7997 7996 7995 ] final  179.94 input   59.86 | X-H torsion
[ 10167 10162 10161 10158 ] final  -42.56 input  -65.29 | X-H torsion
[ 10718 10713 10712 10709 ] final  -53.60 input   66.30 | X-H torsion
[ 10763 10752 10751 10750 ] final -137.95 input  -60.55 | X-H torsion
[ 11005 11000 10999 10996 ] final   -3.07 input  -57.11 | X-H torsion

> <Gold.Protein.ActiveResidues>
 VAL166  LYS551  ARG553  GLY616  TRP617  ASP618  TYR619  PRO620  LYS621  CYS622 
 ASP623  PHE694  ASN695  SER759  ASP760  ASP761  ALA762  ILE779  LEU786  VAL792 
 PHE793  MET794  SER795  GLU796  ALA797  LYS798  CYS799  TRP800  GLU811  SER814 

> <Gold.Protein.RotatedAtoms>
  151.3798  133.3825  159.2708 H   0  0  0  0  0  0  0  0  0  0  0  0  # atno 6907 bound_to 6896
  150.9586  134.8978  159.7727 H   0  0  0  0  0  0  0  0  0  0  0  0  # atno 6908 bound_to 6896
  152.5140  134.3756  159.9386 H   0  0  0  0  0  0  0  0  0  0  0  0  # atno 6909 bound_to 6896
  145.9266  140.7786  142.9620 H   0  0  0  0  0  0  0  0  0  0  0  0  # atno 7974 bound_to 7965
  156.0376  140.1296  157.0191 H   0  0  0  0  0  0  0  0  0  0  0  0  # atno 8008 bound_to 7997
  154.4377  140.1037  156.6261 H   0  0  0  0  0  0  0  0  0  0  0  0  # atno 8009 bound_to 7997
  155.5714  140.3466  155.4518 H   0  0  0  0  0  0  0  0  0  0  0  0  # atno 8010 bound_to 7997
  140.6965  143.3031  151.3227 H   0  0  0  0  0  0  0  0  0  0  0  0  # atno 10167 bound_to 10162
  156.1522  130.4151  149.9927 H   0  0  0  0  0  0  0  0  0  0  0  0  # atno 10718 bound_to 10713
  154.8649  135.3627  154.5306 H   0  0  0  0  0  0  0  0  0  0  0  0  # atno 10763 bound_to 10752
  153.5932  135.7015  153.5419 H   0  0  0  0  0  0  0  0  0  0  0  0  # atno 10764 bound_to 10752
  153.3355  135.4112  155.1492 H   0  0  0  0  0  0  0  0  0  0  0  0  # atno 10765 bound_to 10752
  140.6653  133.9284  155.8461 H   0  0  0  0  0  0  0  0  0  0  0  0  # atno 11005 bound_to 11000
  144.6759  140.2061  143.7382 LP  0  0  0  0  0  0  0  0  0  0  0  0  # atno 17320 bound_to 7965
  145.8480  139.2162  143.1788 LP  0  0  0  0  0  0  0  0  0  0  0  0  # atno 17321 bound_to 7965
  139.6426  144.0511  152.2566 LP  0  0  0  0  0  0  0  0  0  0  0  0  # atno 17342 bound_to 10162
  140.0021  144.6286  150.7721 LP  0  0  0  0  0  0  0  0  0  0  0  0  # atno 17343 bound_to 10162
  156.7782  130.9211  151.3645 LP  0  0  0  0  0  0  0  0  0  0  0  0  # atno 17370 bound_to 10713
  157.6666  130.9013  149.9945 LP  0  0  0  0  0  0  0  0  0  0  0  0  # atno 17371 bound_to 10713
  141.0434  134.0589  157.3874 LP  0  0  0  0  0  0  0  0  0  0  0  0  # atno 17394 bound_to 11000
  139.8999  135.0160  156.7218 LP  0  0  0  0  0  0  0  0  0  0  0  0  # atno 17395 bound_to 11000

$$$$
