AV-unprocessed.smi:1033|AV-procd|sdf|4495|dock1
  -GOLD-   22720 2483D 1   1.00000     0.00000
 Structure written by MMmdl.
 56 58  0  0  0  0  0  0  0  0  2 V2000
  153.6953  142.5173  161.8430 C   0  0  0  0  0  0  0  0  0  0  0  0
  153.0167  142.2263  160.5158 C   0  0  0  0  0  0  0  0  0  0  0  0
  153.3743  141.0599  159.8029 C   0  0  0  0  0  0  0  0  0  0  0  0
  152.7694  140.7542  158.5641 C   0  0  0  0  0  0  0  0  0  0  0  0
  152.9652  139.6845  157.7076 N   0  0  0  0  0  0  0  0  0  0  0  0
  152.1136  139.9671  156.7263 C   0  0  0  0  0  0  0  0  0  0  0  0
  151.3904  141.0977  156.8440 N   0  0  0  0  0  0  0  0  0  0  0  0
  150.4085  141.6115  155.9062 C   0  0  0  0  0  0  0  0  0  0  0  0
  148.9675  141.2568  156.3213 C   0  0  1  0  0  0  0  0  0  0  0  0
  148.0461  142.1486  155.7259 O   0  0  0  0  0  0  0  0  0  0  0  0
  148.5110  139.8041  156.0569 C   0  0  0  0  0  0  0  0  0  0  0  0
  148.7233  139.2859  154.6969 N   0  0  0  0  0  0  0  0  0  0  0  0
  150.1276  139.0565  154.3367 C   0  0  0  0  0  0  0  0  0  0  0  0
  150.7661  137.8460  155.0513 C   0  0  0  0  0  0  0  0  0  0  0  0
  149.9689  136.6153  154.8048 N   0  3  0  0  0  0  0  0  0  0  0  0
  150.5450  135.3955  155.4252 C   0  0  0  0  0  0  0  0  0  0  0  0
  149.6445  134.1551  155.2574 C   0  0  2  0  0  0  0  0  0  0  0  0
  150.2758  132.8710  155.8151 C   0  0  0  0  0  0  0  0  0  0  0  0
  149.4028  133.9639  153.8797 O   0  0  0  0  0  0  0  0  0  0  0  0
  148.5515  136.8317  155.1888 C   0  0  0  0  0  0  0  0  0  0  0  0
  147.9816  138.0513  154.4397 C   0  0  0  0  0  0  0  0  0  0  0  0
  151.7889  141.6547  158.0541 C   0  0  0  0  0  0  0  0  0  0  0  0
  151.4228  142.8171  158.7549 C   0  0  0  0  0  0  0  0  0  0  0  0
  152.0378  143.1080  159.9908 C   0  0  0  0  0  0  0  0  0  0  0  0
  151.6374  144.3669  160.7392 C   0  0  0  0  0  0  0  0  0  0  0  0
  154.3940  141.7254  162.1147 H   0  0  0  0  0  0  0  0  0  0  0  0
  152.9571  142.5991  162.6412 H   0  0  0  0  0  0  0  0  0  0  0  0
  154.2533  143.4522  161.7890 H   0  0  0  0  0  0  0  0  0  0  0  0
  154.1200  140.3881  160.2023 H   0  0  0  0  0  0  0  0  0  0  0  0
  152.0119  139.3169  155.8694 H   0  0  0  0  0  0  0  0  0  0  0  0
  150.5370  142.6923  155.8465 H   0  0  0  0  0  0  0  0  0  0  0  0
  150.6326  141.2017  154.9207 H   0  0  0  0  0  0  0  0  0  0  0  0
  148.8855  141.4140  157.3975 H   0  0  0  0  0  0  0  0  0  0  0  0
  148.5121  142.9247  155.4538 H   0  0  0  0  0  0  0  0  0  0  0  0
  148.9673  139.1422  156.7919 H   0  0  0  0  0  0  0  0  0  0  0  0
  147.4441  139.7758  156.2831 H   0  0  0  0  0  0  0  0  0  0  0  0
  150.1890  138.8943  153.2596 H   0  0  0  0  0  0  0  0  0  0  0  0
  150.7308  139.9394  154.5289 H   0  0  0  0  0  0  0  0  0  0  0  0
  151.7806  137.7173  154.6767 H   0  0  0  0  0  0  0  0  0  0  0  0
  150.8534  138.0253  156.1232 H   0  0  0  0  0  0  0  0  0  0  0  0
  151.5340  135.2121  155.0016 H   0  0  0  0  0  0  0  0  0  0  0  0
  150.6978  135.5693  156.4917 H   0  0  0  0  0  0  0  0  0  0  0  0
  148.6752  134.3175  155.7274 H   0  0  0  0  0  0  0  0  0  0  0  0
  150.4436  132.9464  156.8897 H   0  0  0  0  0  0  0  0  0  0  0  0
  151.2358  132.6600  155.3425 H   0  0  0  0  0  0  0  0  0  0  0  0
  149.6269  132.0106  155.6473 H   0  0  0  0  0  0  0  0  0  0  0  0
  149.1503  134.7902  153.4959 H   0  0  0  0  0  0  0  0  0  0  0  0
  147.9639  135.9486  154.9349 H   0  0  0  0  0  0  0  0  0  0  0  0
  148.4728  136.9659  156.2688 H   0  0  0  0  0  0  0  0  0  0  0  0
  146.9307  138.1885  154.6978 H   0  0  0  0  0  0  0  0  0  0  0  0
  147.9951  137.8456  153.3682 H   0  0  0  0  0  0  0  0  0  0  0  0
  150.6761  143.4800  158.3436 H   0  0  0  0  0  0  0  0  0  0  0  0
  150.8876  144.9355  160.1884 H   0  0  0  0  0  0  0  0  0  0  0  0
  152.5019  145.0133  160.8918 H   0  0  0  0  0  0  0  0  0  0  0  0
  151.2166  144.1142  161.7125 H   0  0  0  0  0  0  0  0  0  0  0  0
  149.9672  136.4590  153.8068 H   0  0  0  0  0  0  0  0  0  0  0  0
  1  2  1  0  0  0  0
  1 26  1  0  0  0  0
  1 27  1  0  0  0  0
  1 28  1  0  0  0  0
  2 24  1  0  0  0  0
  2  3  2  0  0  0  0
  3  4  1  0  0  0  0
  3 29  1  0  0  0  0
  4 22  2  0  0  0  0
  4  5  1  0  0  0  0
  5  6  2  0  0  0  0
  6  7  1  0  0  0  0
  6 30  1  0  0  0  0
  7  8  1  0  0  0  0
  7 22  1  0  0  0  0
  8  9  1  0  0  0  0
  8 31  1  0  0  0  0
  8 32  1  0  0  0  0
  9 10  1  0  0  0  0
  9 11  1  0  0  0  0
  9 33  1  0  0  0  0
 10 34  1  0  0  0  0
 11 12  1  0  0  0  0
 11 35  1  0  0  0  0
 11 36  1  0  0  0  0
 12 21  1  0  0  0  0
 12 13  1  0  0  0  0
 13 14  1  0  0  0  0
 13 37  1  0  0  0  0
 13 38  1  0  0  0  0
 14 15  1  0  0  0  0
 14 39  1  0  0  0  0
 14 40  1  0  0  0  0
 15 16  1  0  0  0  0
 15 20  1  0  0  0  0
 15 56  1  0  0  0  0
 16 17  1  0  0  0  0
 16 41  1  0  0  0  0
 16 42  1  0  0  0  0
 17 18  1  0  0  0  0
 17 19  1  0  0  0  0
 17 43  1  0  0  0  0
 18 44  1  0  0  0  0
 18 45  1  0  0  0  0
 18 46  1  0  0  0  0
 19 47  1  0  0  0  0
 20 21  1  0  0  0  0
 20 48  1  0  0  0  0
 20 49  1  0  0  0  0
 21 50  1  0  0  0  0
 21 51  1  0  0  0  0
 22 23  1  0  0  0  0
 23 24  2  0  0  0  0
 23 52  1  0  0  0  0
 24 25  1  0  0  0  0
 25 53  1  0  0  0  0
 25 54  1  0  0  0  0
 25 55  1  0  0  0  0
M  CHG  1  15   1
M  END
> <s_m_source_file>
AV-unprocessed.smi

> <i_m_source_file_index>
1033

> <i_lp_mmshare_version>
43012

> <i_f3d_flags>
0

> <s_epik_input>
W0NIM11jKFtjSF0xKWMoW0NIM10pW2NIXWMoYzEyKW4oW2NIXW4yKVtDSDJdW0NASF0oW09IXSlbQ0gyXU4zW0NIMl1bQ0gyXU4oW0NIMl1bQ0gyXTMpW0NIMl1bQ0BIXShbQ0gzXSlbT0hd

> <s_epik_cmdline>
J2VwaWtfcHl0aG9uJywgJy1waCcsICc3LjAnLCAnLXRuJywgJzgnLCAnLW1hJywgJzIwMCcsICctbWV0YWxfYmluZGluZycsICctaW1hZScsICc8aW5maWxlLm1hZT4nLCAnLW9tYWUnLCAnPG91dGZpbGUubWFlPic=

> <r_epik_Ionization_Penalty>
0.129152

> <r_epik_Ionization_Penalty_Charging>
0.00083231

> <r_epik_Ionization_Penalty_Neutral>
0.128319

> <r_epik_State_Penalty>
0.556973

> <r_epik_Charging_Adjusted_Penalty>
0.557805

> <i_epik_Tot_Q>
1

> <i_epik_Tot_abs_Q>
1

> <r_epik_Metal_State_Penalty>
0.490047

> <b_epik_Metal_Only>
0

> <s_lp_Force_Field>
OPLS_2005

> <r_lp_Energy>
40.305

> <b_lp_Chiralities_Consistent>
1

> <s_lp_Variant>
AV-unprocessed.smi:1033-6

> <Gold.Version>
5.8.1

> <Gold.Id.Protein>
6NUR|6NUR_protein|mol2

> <Gold.PLP.Fitness>
59.8204

> <Gold.PLP.PLP>
-45.9016

> <Gold.PLP.part.hbond>
-4.0000

> <Gold.PLP.part.metal>
0.0000

> <Gold.PLP.part.buried>
-5.8514

> <Gold.PLP.part.nonpolar>
-36.9907

> <Gold.PLP.part.repulsive>
0.1460

> <Gold.PLP.ligand.clash>
0.0000

> <Gold.PLP.ligand.torsion>
0.6792

> <Gold.PLP.Chemscore.Hbond>
5.0000

> <Gold.PLP.Chemscore.CHOScore>
0.0000

> <Gold.PLP.Chemscore.Metal>
0.0000

> <Gold.Chemscore.Hbonds>
donor molecule, donor type, donor heavy atom, donor atom, acceptor molecule, acceptor atom, score
      L1  H    10    34       P1  8028  0.99
      L1  H    15    56       P1  7948  1.33
      L1  H    19    47       P1  7948  0.57
      P1  H  7997  8008       L1     5  1.00

> <Gold.PLP.Chemscore.Internal.Correction>
0.2771

> <Gold.Rescore>
     Score         DG    S(hbond)    S(metal)    S(lipo)     H(rot)  DE(clash)    DE(int)     intcor
     22.16     -23.27       3.46        0.00     120.33       3.07       0.06       1.05       ----

> <Gold.Chemscore.Fitness>
22.1572

> <Gold.Chemscore.DG>
-23.2694

> <Gold.Chemscore.ZeroCoef>
-5.4800

> <Gold.Chemscore.Hbond>
3.4603

> <Gold.Chemscore.Metal>
0.0000

> <Gold.Chemscore.Lipo>
120.3283

> <Gold.Chemscore.Internal_Hbond>
0.0000

> <Gold.Chemscore.DEClash>
0.0580

> <Gold.Chemscore.DEInternal>
1.0541

> <Gold.Chemscore.Rot>
3.0650

> <Gold.Chemscore.Internal.Correction>
   9.000000E+99

> <Gold.Chemscore.Hbonds>
donor molecule, donor type, donor heavy atom, donor atom, acceptor molecule, acceptor atom, score
      L1  H    10    34       P1  8028  0.94
      L1  H    15    56       P1  7948  0.17
      L1  H    19    47       P1  7948  0.08
      P1  H  7997  8008       L1     5  0.13

> <Gold.Chemscore.Hbond.Weighted>
-11.5574

> <Gold.Chemscore.Metal.Weighted>
-0.0000

> <Gold.Chemscore.Lipo.Weighted>
-14.0784

> <Gold.Chemscore.Internal_Hbond.Weighted>
0.0000

> <Gold.Chemscore.DEClash.Weighted>
0.0580

> <Gold.Chemscore.DEInternal.Weighted>
1.0541

> <Gold.Chemscore.Rot.Weighted>
7.8465

> <Gold.Chemscore.Internal.Correction.Weighted>
   9.000000E+99

> <Gold.Protein.RotatedTorsions>
[ 6907 6896 6895 6894 ] final  164.31 input  -60.11 | X-H torsion
[ 7974 7965 7964 7962 ] final  143.73 input  175.53 | X-H torsion
[ 8008 7997 7996 7995 ] final  -78.15 input   59.86 | X-H torsion
[ 10167 10162 10161 10158 ] final  -60.18 input  -65.29 | X-H torsion
[ 10718 10713 10712 10709 ] final   95.74 input   66.30 | X-H torsion
[ 10763 10752 10751 10750 ] final   19.97 input  -60.55 | X-H torsion
[ 11005 11000 10999 10996 ] final  177.74 input  -57.11 | X-H torsion

> <Gold.Protein.ActiveResidues>
 VAL166  LYS551  ARG553  GLY616  TRP617  ASP618  TYR619  PRO620  LYS621  CYS622 
 ASP623  PHE694  ASN695  SER759  ASP760  ASP761  ALA762  ILE779  LEU786  VAL792 
 PHE793  MET794  SER795  GLU796  ALA797  LYS798  CYS799  TRP800  GLU811  SER814 

> <Gold.Protein.RotatedAtoms>
  151.9119  133.3563  159.3866 H   0  0  0  0  0  0  0  0  0  0  0  0  # atno 6907 bound_to 6896
  150.7056  134.4723  159.5441 H   0  0  0  0  0  0  0  0  0  0  0  0  # atno 6908 bound_to 6896
  152.2331  134.8302  160.0521 H   0  0  0  0  0  0  0  0  0  0  0  0  # atno 6909 bound_to 6896
  144.8896  139.5578  143.5804 H   0  0  0  0  0  0  0  0  0  0  0  0  # atno 7974 bound_to 7965
  154.5662  140.0699  156.8896 H   0  0  0  0  0  0  0  0  0  0  0  0  # atno 8008 bound_to 7997
  155.2718  140.3365  155.4246 H   0  0  0  0  0  0  0  0  0  0  0  0  # atno 8009 bound_to 7997
  156.2083  140.1749  156.7738 H   0  0  0  0  0  0  0  0  0  0  0  0  # atno 8010 bound_to 7997
  140.6088  143.2381  151.5759 H   0  0  0  0  0  0  0  0  0  0  0  0  # atno 10167 bound_to 10162
  157.6935  131.0555  150.4385 H   0  0  0  0  0  0  0  0  0  0  0  0  # atno 10718 bound_to 10713
  153.1117  135.6698  153.9489 H   0  0  0  0  0  0  0  0  0  0  0  0  # atno 10763 bound_to 10752
  153.9031  135.3033  155.3450 H   0  0  0  0  0  0  0  0  0  0  0  0  # atno 10764 bound_to 10752
  154.7536  135.5023  153.9411 H   0  0  0  0  0  0  0  0  0  0  0  0  # atno 10765 bound_to 10752
  140.3875  134.6892  157.4487 H   0  0  0  0  0  0  0  0  0  0  0  0  # atno 11005 bound_to 11000
  146.3045  139.7536  142.9066 LP  0  0  0  0  0  0  0  0  0  0  0  0  # atno 17320 bound_to 7965
  145.3807  141.0358  143.3179 LP  0  0  0  0  0  0  0  0  0  0  0  0  # atno 17321 bound_to 7965
  139.5345  144.2821  152.1221 LP  0  0  0  0  0  0  0  0  0  0  0  0  # atno 17342 bound_to 10162
  140.2015  144.4653  150.6429 LP  0  0  0  0  0  0  0  0  0  0  0  0  # atno 17343 bound_to 10162
  156.4746  130.4060  149.6498 LP  0  0  0  0  0  0  0  0  0  0  0  0  # atno 17370 bound_to 10713
  156.3566  130.7459  151.2426 LP  0  0  0  0  0  0  0  0  0  0  0  0  # atno 17371 bound_to 10713
  140.0432  134.6237  155.8954 LP  0  0  0  0  0  0  0  0  0  0  0  0  # atno 17394 bound_to 11000
  141.1902  133.6568  156.5403 LP  0  0  0  0  0  0  0  0  0  0  0  0  # atno 17395 bound_to 11000

$$$$
