AV-unprocessed.smi:658|AV-procd|sdf|3236|dock3
  -GOLD-   22720 0183D 1   1.00000     0.00000
 Structure written by MMmdl.
 37 37  0  0  0  0  0  0  0  0  3 V2000
  149.8066  143.0003  158.5833 C   0  0  0  0  0  0  0  0  0  0  0  0
  151.0434  143.1619  157.6810 C   0  0  2  0  0  0  0  0  0  0  0  0
  151.4059  141.8377  157.1272 N   0  3  0  0  0  0  0  0  0  0  0  0
  150.3904  141.2395  156.2376 C   0  0  0  0  0  0  0  0  0  0  0  0
  150.9741  140.0565  155.4594 C   0  0  0  0  0  0  0  0  0  0  0  0
  151.6849  139.0521  156.3740 C   0  0  0  0  0  0  0  0  0  0  0  0
  152.8893  138.0372  155.4220 S   0  0  0  0  0  0  0  0  0  0  0  0
  153.8515  139.1867  154.8277 N   0  5  0  0  0  0  0  0  0  0  0  0
  153.5659  137.1880  156.4144 O   0  0  0  0  0  0  0  0  0  0  0  0
  152.1074  137.3615  154.3759 O   0  0  0  0  0  0  0  0  0  0  0  0
  152.2527  143.7965  158.4208 C   0  0  1  0  0  0  0  0  0  0  0  0
  151.9746  145.2286  158.9172 C   0  0  0  0  0  0  0  0  0  0  0  0
  152.7087  142.9654  159.5279 N   0  0  0  0  0  0  0  0  0  0  0  0
  152.7990  143.2961  160.8646 C   0  0  0  0  0  0  0  0  0  0  0  0
  153.2788  142.2012  161.5244 C   0  0  0  0  0  0  0  0  0  0  0  0
  153.4549  141.2353  160.4952 C   0  0  0  0  0  0  0  0  0  0  0  0
  153.1155  141.6955  159.3021 N   0  0  0  0  0  0  0  0  0  0  0  0
  149.4264  143.9626  158.9270 H   0  0  0  0  0  0  0  0  0  0  0  0
  150.0336  142.3981  159.4637 H   0  0  0  0  0  0  0  0  0  0  0  0
  148.9933  142.5101  158.0469 H   0  0  0  0  0  0  0  0  0  0  0  0
  150.7528  143.8209  156.8605 H   0  0  0  0  0  0  0  0  0  0  0  0
  152.2734  141.9276  156.6181 H   0  0  0  0  0  0  0  0  0  0  0  0
  149.5403  140.9102  156.8366 H   0  0  0  0  0  0  0  0  0  0  0  0
  150.0219  141.9939  155.5417 H   0  0  0  0  0  0  0  0  0  0  0  0
  150.1761  139.5487  154.9162 H   0  0  0  0  0  0  0  0  0  0  0  0
  151.6760  140.4222  154.7088 H   0  0  0  0  0  0  0  0  0  0  0  0
  152.2289  139.5652  157.1674 H   0  0  0  0  0  0  0  0  0  0  0  0
  150.9699  138.3755  156.8425 H   0  0  0  0  0  0  0  0  0  0  0  0
  154.5034  138.7474  154.1668 H   0  0  0  0  0  0  0  0  0  0  0  0
  153.0828  143.8537  157.7147 H   0  0  0  0  0  0  0  0  0  0  0  0
  151.7924  145.9116  158.0877 H   0  0  0  0  0  0  0  0  0  0  0  0
  152.8265  145.6216  159.4730 H   0  0  0  0  0  0  0  0  0  0  0  0
  151.1051  145.2643  159.5744 H   0  0  0  0  0  0  0  0  0  0  0  0
  152.5179  144.2722  161.2316 H   0  0  0  0  0  0  0  0  0  0  0  0
  153.4732  142.1038  162.5823 H   0  0  0  0  0  0  0  0  0  0  0  0
  153.8165  140.2212  160.5791 H   0  0  0  0  0  0  0  0  0  0  0  0
  151.5530  141.2010  157.8974 H   0  0  0  0  0  0  0  0  0  0  0  0
  1  2  1  0  0  0  0
  1 18  1  0  0  0  0
  1 19  1  0  0  0  0
  1 20  1  0  0  0  0
  2  3  1  0  0  0  0
  2 11  1  0  0  0  0
  2 21  1  0  0  0  0
  3  4  1  0  0  0  0
  3 22  1  0  0  0  0
  3 37  1  0  0  0  0
  4  5  1  0  0  0  0
  4 23  1  0  0  0  0
  4 24  1  0  0  0  0
  5  6  1  0  0  0  0
  5 25  1  0  0  0  0
  5 26  1  0  0  0  0
  6  7  1  0  0  0  0
  6 27  1  0  0  0  0
  6 28  1  0  0  0  0
  7  8  1  0  0  0  0
  7  9  2  0  0  0  0
  7 10  2  0  0  0  0
  8 29  1  0  0  0  0
 11 12  1  0  0  0  0
 11 13  1  0  0  0  0
 11 30  1  0  0  0  0
 12 31  1  0  0  0  0
 12 32  1  0  0  0  0
 12 33  1  0  0  0  0
 13 17  1  0  0  0  0
 13 14  1  0  0  0  0
 14 15  2  0  0  0  0
 14 34  1  0  0  0  0
 15 16  1  0  0  0  0
 15 35  1  0  0  0  0
 16 17  2  0  0  0  0
 16 36  1  0  0  0  0
M  CHG  1   3   1
M  CHG  1   8  -1
M  END
> <s_m_source_file>
AV-unprocessed.smi

> <i_m_source_file_index>
658

> <i_lp_mmshare_version>
43012

> <i_f3d_flags>
0

> <s_epik_input>
bjFbY0hdW2NIXVtjSF1uMVtDQEBIXShbQ0gzXSlbQ0BIXShbQ0gzXSlbTkhdW0NIMl1bQ0gyXVtDSDJdUyg9TykoPU8pW05IMl0=

> <s_epik_cmdline>
J2VwaWtfcHl0aG9uJywgJy1waCcsICc3LjAnLCAnLXRuJywgJzgnLCAnLW1hJywgJzIwMCcsICctbWV0YWxfYmluZGluZycsICctaW1hZScsICc8aW5maWxlLm1hZT4nLCAnLW9tYWUnLCAnPG91dGZpbGUubWFlPic=

> <r_lp_tautomer_probability>
1

> <r_epik_Ionization_Penalty>
4.63642

> <r_epik_Ionization_Penalty_Charging>
4.63641

> <r_epik_Ionization_Penalty_Neutral>
1.08396e-05

> <r_epik_State_Penalty>
4.63466

> <r_epik_Charging_Adjusted_Penalty>
9.27106

> <i_epik_Tot_Q>
0

> <i_epik_Tot_abs_Q>
2

> <r_epik_Metal_State_Penalty>
0.890424

> <b_epik_Metal_Only>
1

> <s_lp_Force_Field>
OPLS_2005

> <r_lp_Energy>
-1.73265

> <b_lp_Chiralities_Consistent>
1

> <s_lp_Variant>
AV-unprocessed.smi:658-7

> <Gold.Version>
5.8.1

> <Gold.Id.Protein>
6NUR|6NUR_protein|mol2

> <Gold.PLP.Fitness>
50.3355

> <Gold.PLP.PLP>
-41.1598

> <Gold.PLP.part.hbond>
-2.9959

> <Gold.PLP.part.metal>
0.0000

> <Gold.PLP.part.buried>
-3.2337

> <Gold.PLP.part.nonpolar>
-35.6732

> <Gold.PLP.part.repulsive>
0.2432

> <Gold.PLP.ligand.clash>
0.0000

> <Gold.PLP.ligand.torsion>
0.2461

> <Gold.PLP.Chemscore.Hbond>
3.1768

> <Gold.PLP.Chemscore.CHOScore>
0.0000

> <Gold.PLP.Chemscore.Metal>
0.0000

> <Gold.Chemscore.Hbonds>
donor molecule, donor type, donor heavy atom, donor atom, acceptor molecule, acceptor atom, score
      P1  H  7997  8010       L1     8  2.00
      P1  H 10752 10763       L1    10  0.75
      P1  H 10752 10764       L1     9  0.38

> <Gold.PLP.Chemscore.Internal.Correction>
0.1377

> <Gold.Rescore>
     Score         DG    S(hbond)    S(metal)    S(lipo)     H(rot)  DE(clash)    DE(int)     intcor
     11.52     -13.40       1.47        0.00      92.38       3.04       0.20       1.67       ----

> <Gold.Chemscore.Fitness>
11.5209

> <Gold.Chemscore.DG>
-13.3983

> <Gold.Chemscore.ZeroCoef>
-5.4800

> <Gold.Chemscore.Hbond>
1.4654

> <Gold.Chemscore.Metal>
0.0000

> <Gold.Chemscore.Lipo>
92.3828

> <Gold.Chemscore.Internal_Hbond>
0.0000

> <Gold.Chemscore.DEClash>
0.2037

> <Gold.Chemscore.DEInternal>
1.6737

> <Gold.Chemscore.Rot>
3.0409

> <Gold.Chemscore.Internal.Correction>
   9.000000E+99

> <Gold.Chemscore.Hbonds>
donor molecule, donor type, donor heavy atom, donor atom, acceptor molecule, acceptor atom, score
      P1  H  7997  8010       L1     8  0.76
      P1  H 10752 10763       L1    10  0.42
      P1  H 10752 10764       L1     9  0.17

> <Gold.Chemscore.Hbond.Weighted>
-4.8943

> <Gold.Chemscore.Metal.Weighted>
-0.0000

> <Gold.Chemscore.Lipo.Weighted>
-10.8088

> <Gold.Chemscore.Internal_Hbond.Weighted>
0.0000

> <Gold.Chemscore.DEClash.Weighted>
0.2037

> <Gold.Chemscore.DEInternal.Weighted>
1.6737

> <Gold.Chemscore.Rot.Weighted>
7.7848

> <Gold.Chemscore.Internal.Correction.Weighted>
   9.000000E+99

> <Gold.Protein.RotatedTorsions>
[ 6907 6896 6895 6894 ] final   -2.34 input  -60.11 | X-H torsion
[ 7974 7965 7964 7962 ] final  147.76 input  175.53 | X-H torsion
[ 8008 7997 7996 7995 ] final  111.15 input   59.86 | X-H torsion
[ 10167 10162 10161 10158 ] final  127.61 input  -65.29 | X-H torsion
[ 10718 10713 10712 10709 ] final  125.17 input   66.30 | X-H torsion
[ 10763 10752 10751 10750 ] final   22.19 input  -60.55 | X-H torsion
[ 11005 11000 10999 10996 ] final   95.02 input  -57.11 | X-H torsion

> <Gold.Protein.ActiveResidues>
 VAL166  LYS551  ARG553  GLY616  TRP617  ASP618  TYR619  PRO620  LYS621  CYS622 
 ASP623  PHE694  ASN695  SER759  ASP760  ASP761  ALA762  ILE779  LEU786  VAL792 
 PHE793  MET794  SER795  GLU796  ALA797  LYS798  CYS799  TRP800  GLU811  SER814 

> <Gold.Protein.RotatedAtoms>
  151.5316  135.1068  159.9903 H   0  0  0  0  0  0  0  0  0  0  0  0  # atno 6907 bound_to 6896
  152.4576  133.7751  159.6830 H   0  0  0  0  0  0  0  0  0  0  0  0  # atno 6908 bound_to 6896
  150.8525  133.7699  159.3045 H   0  0  0  0  0  0  0  0  0  0  0  0  # atno 6909 bound_to 6896
  144.8566  139.6069  143.5949 H   0  0  0  0  0  0  0  0  0  0  0  0  # atno 7974 bound_to 7965
  156.2104  140.3025  155.9720 H   0  0  0  0  0  0  0  0  0  0  0  0  # atno 8008 bound_to 7997
  155.2738  140.0435  157.3026 H   0  0  0  0  0  0  0  0  0  0  0  0  # atno 8009 bound_to 7997
  154.5691  140.2343  155.8227 H   0  0  0  0  0  0  0  0  0  0  0  0  # atno 8010 bound_to 7997
  139.5570  144.6855  151.4155 H   0  0  0  0  0  0  0  0  0  0  0  0  # atno 10167 bound_to 10162
  157.5525  131.1093  150.8677 H   0  0  0  0  0  0  0  0  0  0  0  0  # atno 10718 bound_to 10713
  153.0935  135.6653  153.9808 H   0  0  0  0  0  0  0  0  0  0  0  0  # atno 10763 bound_to 10752
  153.9398  135.2995  155.3444 H   0  0  0  0  0  0  0  0  0  0  0  0  # atno 10764 bound_to 10752
  154.7352  135.5105  153.9103 H   0  0  0  0  0  0  0  0  0  0  0  0  # atno 10765 bound_to 10752
  139.8793  134.8877  156.3950 H   0  0  0  0  0  0  0  0  0  0  0  0  # atno 11005 bound_to 11000
  146.2828  139.6922  142.9217 LP  0  0  0  0  0  0  0  0  0  0  0  0  # atno 17320 bound_to 7965
  145.4394  141.0421  143.2866 LP  0  0  0  0  0  0  0  0  0  0  0  0  # atno 17321 bound_to 7965
  140.6844  143.8008  150.7165 LP  0  0  0  0  0  0  0  0  0  0  0  0  # atno 17342 bound_to 10162
  140.1471  143.4390  152.2155 LP  0  0  0  0  0  0  0  0  0  0  0  0  # atno 17343 bound_to 10162
  156.9198  130.5311  149.5279 LP  0  0  0  0  0  0  0  0  0  0  0  0  # atno 17370 bound_to 10713
  156.0589  130.5646  150.9151 LP  0  0  0  0  0  0  0  0  0  0  0  0  # atno 17371 bound_to 10713
  140.9307  133.7581  156.0021 LP  0  0  0  0  0  0  0  0  0  0  0  0  # atno 17394 bound_to 11000
  140.8334  134.3151  157.5340 LP  0  0  0  0  0  0  0  0  0  0  0  0  # atno 17395 bound_to 11000

$$$$
