AV-unprocessed.smi:280|AV-procd|sdf|2097|dock7
  -GOLD-   2262021383D 1   1.00000     0.00000
 Structure written by MMmdl.
 59 62  0  0  0  0  0  0  0  0  2 V2000
  153.5279  141.8269  160.9808 C   0  0  0  0  0  0  0  0  0  0  0  0
  153.5330  140.7708  159.8569 C   0  0  2  0  0  0  0  0  0  0  0  0
  152.1062  140.1756  159.7532 C   0  0  0  0  0  0  0  0  0  0  0  0
  152.0272  139.0517  158.8245 N   0  0  0  0  0  0  0  0  0  0  0  0
  151.7809  139.2902  157.5084 C   0  0  0  0  0  0  0  0  0  0  0  0
  152.5799  138.7357  156.5580 N   0  0  0  0  0  0  0  0  0  0  0  0
  152.3398  138.9491  155.2613 C   0  0  0  0  0  0  0  0  0  0  0  0
  151.3698  139.6731  154.7018 N   0  0  0  0  0  0  0  0  0  0  0  0
  150.5675  140.2408  155.6471 C   0  0  0  0  0  0  0  0  0  0  0  0
  150.7058  140.1089  157.0582 C   0  0  0  0  0  0  0  0  0  0  0  0
  149.7238  140.8549  157.6987 N   0  0  0  0  0  0  0  0  0  0  0  0
  149.0379  141.3853  156.7239 C   0  0  0  0  0  0  0  0  0  0  0  0
  149.4617  141.0523  155.4567 N   0  0  0  0  0  0  0  0  0  0  0  0
  148.8835  141.4954  154.1950 C   0  0  0  0  0  0  0  0  0  0  0  0
  147.4263  141.0328  153.9493 C   0  0  0  0  0  0  0  0  0  0  0  0
  146.4991  141.9109  154.8006 C   0  0  0  0  0  0  0  0  0  0  0  0
  145.1528  141.4968  154.6863 O   0  0  0  0  0  0  0  0  0  0  0  0
  146.9893  140.7959  152.4930 C   0  0  0  0  0  0  0  0  0  0  0  0
  147.1669  139.3692  152.6176 O   0  0  0  0  0  0  0  0  0  0  0  0
  147.1703  139.5194  154.0527 C   0  0  0  0  0  0  0  0  0  0  0  0
  152.9849  137.9950  159.1199 C   0  0  0  0  0  0  0  0  0  0  0  0
  154.4105  138.5621  159.1217 C   0  0  0  0  0  0  0  0  0  0  0  0
  154.5573  139.6990  160.0730 N   0  3  1  0  0  0  0  0  0  0  0  0
  155.9676  140.1855  160.1135 C   0  0  0  0  0  0  0  0  0  0  0  0
  156.8348  139.4379  161.1559 C   0  0  0  0  0  0  0  0  0  0  0  0
  156.6999  137.9181  160.9606 C   0  0  0  0  0  0  0  0  0  0  0  0
  158.3180  139.8469  161.1065 C   0  0  0  0  0  0  0  0  0  0  0  0
  156.3439  139.7221  162.4508 O   0  0  0  0  0  0  0  0  0  0  0  0
  152.7364  142.5585  160.8153 H   0  0  0  0  0  0  0  0  0  0  0  0
  154.4572  142.3902  161.0456 H   0  0  0  0  0  0  0  0  0  0  0  0
  153.3464  141.3688  161.9534 H   0  0  0  0  0  0  0  0  0  0  0  0
  153.7741  141.2693  158.9171 H   0  0  0  0  0  0  0  0  0  0  0  0
  151.7943  139.8088  160.7321 H   0  0  0  0  0  0  0  0  0  0  0  0
  151.3835  140.9468  159.4833 H   0  0  0  0  0  0  0  0  0  0  0  0
  153.0210  138.4696  154.5739 H   0  0  0  0  0  0  0  0  0  0  0  0
  148.1964  142.0374  156.9065 H   0  0  0  0  0  0  0  0  0  0  0  0
  148.9412  142.5844  154.1711 H   0  0  0  0  0  0  0  0  0  0  0  0
  149.5398  141.1484  153.3964 H   0  0  0  0  0  0  0  0  0  0  0  0
  146.7741  141.8623  155.8548 H   0  0  0  0  0  0  0  0  0  0  0  0
  146.5718  142.9591  154.5088 H   0  0  0  0  0  0  0  0  0  0  0  0
  144.9932  141.2358  153.7921 H   0  0  0  0  0  0  0  0  0  0  0  0
  145.9469  141.0546  152.2988 H   0  0  0  0  0  0  0  0  0  0  0  0
  147.6373  141.2425  151.7410 H   0  0  0  0  0  0  0  0  0  0  0  0
  147.9625  138.9532  154.5401 H   0  0  0  0  0  0  0  0  0  0  0  0
  146.2012  139.2618  154.4834 H   0  0  0  0  0  0  0  0  0  0  0  0
  152.7493  137.5747  160.0984 H   0  0  0  0  0  0  0  0  0  0  0  0
  152.9188  137.1715  158.4104 H   0  0  0  0  0  0  0  0  0  0  0  0
  155.1113  137.7678  159.3784 H   0  0  0  0  0  0  0  0  0  0  0  0
  154.6692  138.8963  158.1155 H   0  0  0  0  0  0  0  0  0  0  0  0
  156.4224  140.0941  159.1253 H   0  0  0  0  0  0  0  0  0  0  0  0
  156.0073  141.2535  160.3210 H   0  0  0  0  0  0  0  0  0  0  0  0
  157.0682  137.6132  159.9804 H   0  0  0  0  0  0  0  0  0  0  0  0
  155.6606  137.5955  161.0361 H   0  0  0  0  0  0  0  0  0  0  0  0
  157.2695  137.3667  161.7094 H   0  0  0  0  0  0  0  0  0  0  0  0
  158.7503  139.6457  160.1259 H   0  0  0  0  0  0  0  0  0  0  0  0
  158.9052  139.2937  161.8407 H   0  0  0  0  0  0  0  0  0  0  0  0
  158.4542  140.9077  161.3189 H   0  0  0  0  0  0  0  0  0  0  0  0
  155.5772  139.1911  162.6063 H   0  0  0  0  0  0  0  0  0  0  0  0
  154.3664  139.3211  160.9898 H   0  0  0  0  0  0  0  0  0  0  0  0
  1  2  1  0  0  0  0
  1 29  1  0  0  0  0
  1 30  1  0  0  0  0
  1 31  1  0  0  0  0
  2 23  1  0  0  0  0
  2  3  1  0  0  0  0
  2 32  1  0  0  0  0
  3  4  1  0  0  0  0
  3 33  1  0  0  0  0
  3 34  1  0  0  0  0
  4  5  1  0  0  0  0
  4 21  1  0  0  0  0
  5 10  1  0  0  0  0
  5  6  2  0  0  0  0
  6  7  1  0  0  0  0
  7  8  2  0  0  0  0
  7 35  1  0  0  0  0
  8  9  1  0  0  0  0
  9 13  1  0  0  0  0
  9 10  2  0  0  0  0
 10 11  1  0  0  0  0
 11 12  2  0  0  0  0
 12 13  1  0  0  0  0
 12 36  1  0  0  0  0
 13 14  1  0  0  0  0
 14 15  1  0  0  0  0
 14 37  1  0  0  0  0
 14 38  1  0  0  0  0
 15 20  1  0  0  0  0
 15 16  1  0  0  0  0
 15 18  1  0  0  0  0
 16 17  1  0  0  0  0
 16 39  1  0  0  0  0
 16 40  1  0  0  0  0
 17 41  1  0  0  0  0
 18 19  1  0  0  0  0
 18 42  1  0  0  0  0
 18 43  1  0  0  0  0
 19 20  1  0  0  0  0
 20 44  1  0  0  0  0
 20 45  1  0  0  0  0
 21 22  1  0  0  0  0
 21 46  1  0  0  0  0
 21 47  1  0  0  0  0
 22 23  1  0  0  0  0
 22 48  1  0  0  0  0
 22 49  1  0  0  0  0
 23 24  1  0  0  0  0
 23 59  1  0  0  0  0
 24 25  1  0  0  0  0
 24 50  1  0  0  0  0
 24 51  1  0  0  0  0
 25 26  1  0  0  0  0
 25 27  1  0  0  0  0
 25 28  1  0  0  0  0
 26 52  1  0  0  0  0
 26 53  1  0  0  0  0
 26 54  1  0  0  0  0
 27 55  1  0  0  0  0
 27 56  1  0  0  0  0
 27 57  1  0  0  0  0
 28 58  1  0  0  0  0
M  CHG  1  23   1
M  END
> <s_m_source_file>
AV-unprocessed.smi

> <i_m_source_file_index>
280

> <i_lp_mmshare_version>
43012

> <i_f3d_flags>
0

> <s_epik_input>
W0NIM11DKFtDSDNdKShbT0hdKVtDSDJdTjFbQ0gyXVtDSDJdTihbQ0gyXVtDQEhdMVtDSDNdKWMobltjSF1uMiljKGMyMyluW2NIXW4zW0NIMl1DNChbQ0gyXVtPSF0pW0NIMl1PW0NIMl00

> <s_epik_cmdline>
J2VwaWtfcHl0aG9uJywgJy1waCcsICc3LjAnLCAnLXRuJywgJzgnLCAnLW1hJywgJzIwMCcsICctbWV0YWxfYmluZGluZycsICctaW1hZScsICc8aW5maWxlLm1hZT4nLCAnLW9tYWUnLCAnPG91dGZpbGUubWFlPic=

> <r_lp_tautomer_probability>
1

> <r_epik_Ionization_Penalty>
0.00179402

> <r_epik_Ionization_Penalty_Charging>
0.00173996

> <r_epik_Ionization_Penalty_Neutral>
5.40607e-05

> <r_epik_State_Penalty>
-0

> <r_epik_Charging_Adjusted_Penalty>
0.00173996

> <i_epik_Tot_Q>
1

> <i_epik_Tot_abs_Q>
1

> <r_epik_Metal_State_Penalty>
-0

> <b_epik_Metal_Only>
0

> <s_lp_Force_Field>
OPLS_2005

> <r_lp_Energy>
49.5757

> <b_lp_Chiralities_Consistent>
1

> <s_lp_Variant>
AV-unprocessed.smi:280-1

> <Gold.Version>
5.8.1

> <Gold.Id.Protein>
6NUR|6NUR_protein|mol2

> <Gold.PLP.Fitness>
48.4215

> <Gold.PLP.PLP>
-40.2308

> <Gold.PLP.part.hbond>
-3.6861

> <Gold.PLP.part.metal>
0.0000

> <Gold.PLP.part.buried>
-3.5780

> <Gold.PLP.part.nonpolar>
-33.4795

> <Gold.PLP.part.repulsive>
0.8950

> <Gold.PLP.ligand.clash>
0.0000

> <Gold.PLP.ligand.torsion>
1.0478

> <Gold.PLP.Chemscore.Hbond>
2.6705

> <Gold.PLP.Chemscore.CHOScore>
0.3500

> <Gold.PLP.Chemscore.Metal>
0.0000

> <Gold.Chemscore.Hbonds>
donor molecule, donor type, donor heavy atom, donor atom, acceptor molecule, acceptor atom, score
      L1  H    17    41       P1 10175  0.93
      P1  H  7989  7998       L1     8  1.00
      P1  H  7997  8008       L1     6  0.34

> <Gold.PLP.Chemscore.Internal.Correction>
1.2248

> <Gold.Rescore>
     Score         DG    S(hbond)    S(metal)    S(lipo)     H(rot)  DE(clash)    DE(int)     intcor
     11.95     -13.25       2.09        0.00      86.05       3.63       0.17       1.13       ----

> <Gold.Chemscore.Fitness>
11.9483

> <Gold.Chemscore.DG>
-13.2470

> <Gold.Chemscore.ZeroCoef>
-5.4800

> <Gold.Chemscore.Hbond>
2.0902

> <Gold.Chemscore.Metal>
0.0000

> <Gold.Chemscore.Lipo>
86.0521

> <Gold.Chemscore.Internal_Hbond>
0.0000

> <Gold.Chemscore.DEClash>
0.1711

> <Gold.Chemscore.DEInternal>
1.1276

> <Gold.Chemscore.Rot>
3.6260

> <Gold.Chemscore.Internal.Correction>
   9.000000E+99

> <Gold.Chemscore.Hbonds>
donor molecule, donor type, donor heavy atom, donor atom, acceptor molecule, acceptor atom, score
      L1  H    17    41       P1 10175  0.44
      P1  H  7989  7998       L1     8  0.60
      P1  H  7997  8008       L1     6  0.01

> <Gold.Chemscore.Hbond.Weighted>
-6.9814

> <Gold.Chemscore.Metal.Weighted>
-0.0000

> <Gold.Chemscore.Lipo.Weighted>
-10.0681

> <Gold.Chemscore.Internal_Hbond.Weighted>
0.0000

> <Gold.Chemscore.DEClash.Weighted>
0.1711

> <Gold.Chemscore.DEInternal.Weighted>
1.1276

> <Gold.Chemscore.Rot.Weighted>
9.2825

> <Gold.Chemscore.Internal.Correction.Weighted>
   9.000000E+99

> <Gold.Protein.RotatedTorsions>
[ 6907 6896 6895 6894 ] final -171.87 input  -60.11 | X-H torsion
[ 7974 7965 7964 7962 ] final -119.67 input  175.53 | X-H torsion
[ 8008 7997 7996 7995 ] final  -62.35 input   59.86 | X-H torsion
[ 10167 10162 10161 10158 ] final -114.94 input  -65.29 | X-H torsion
[ 10718 10713 10712 10709 ] final  -14.60 input   66.30 | X-H torsion
[ 10763 10752 10751 10750 ] final  138.31 input  -60.55 | X-H torsion
[ 11005 11000 10999 10996 ] final  -27.31 input  -57.11 | X-H torsion

> <Gold.Protein.ActiveResidues>
 VAL166  LYS551  ARG553  GLY616  TRP617  ASP618  TYR619  PRO620  LYS621  CYS622 
 ASP623  PHE694  ASN695  SER759  ASP760  ASP761  ALA762  ILE779  LEU786  VAL792 
 PHE793  MET794  SER795  GLU796  ALA797  LYS798  CYS799  TRP800  GLU811  SER814 

> <Gold.Protein.RotatedAtoms>
  151.5309  133.3449  159.2917 H   0  0  0  0  0  0  0  0  0  0  0  0  # atno 6907 bound_to 6896
  150.8594  134.7945  159.7082 H   0  0  0  0  0  0  0  0  0  0  0  0  # atno 6908 bound_to 6896
  152.4618  134.5175  159.9824 H   0  0  0  0  0  0  0  0  0  0  0  0  # atno 6909 bound_to 6896
  145.0599  140.8282  143.4159 H   0  0  0  0  0  0  0  0  0  0  0  0  # atno 7974 bound_to 7965
  154.4495  140.0998  156.6573 H   0  0  0  0  0  0  0  0  0  0  0  0  # atno 8008 bound_to 7997
  155.5331  140.3482  155.4412 H   0  0  0  0  0  0  0  0  0  0  0  0  # atno 8009 bound_to 7997
  156.0650  140.1335  156.9885 H   0  0  0  0  0  0  0  0  0  0  0  0  # atno 8010 bound_to 7997
  140.0955  143.4661  152.1844 H   0  0  0  0  0  0  0  0  0  0  0  0  # atno 10167 bound_to 10162
  156.6137  130.4856  149.6191 H   0  0  0  0  0  0  0  0  0  0  0  0  # atno 10718 bound_to 10713
  153.8875  135.3037  155.3447 H   0  0  0  0  0  0  0  0  0  0  0  0  # atno 10763 bound_to 10752
  154.7732  135.4875  153.9694 H   0  0  0  0  0  0  0  0  0  0  0  0  # atno 10764 bound_to 10752
  153.1316  135.6805  153.9267 H   0  0  0  0  0  0  0  0  0  0  0  0  # atno 10765 bound_to 10752
  140.9108  133.7462  156.0668 H   0  0  0  0  0  0  0  0  0  0  0  0  # atno 11005 bound_to 11000
  145.1422  139.2565  143.5484 LP  0  0  0  0  0  0  0  0  0  0  0  0  # atno 17320 bound_to 7965
  146.3523  140.1102  142.8604 LP  0  0  0  0  0  0  0  0  0  0  0  0  # atno 17321 bound_to 7965
  139.5701  144.7457  151.3915 LP  0  0  0  0  0  0  0  0  0  0  0  0  # atno 17342 bound_to 10162
  140.7006  143.7641  150.7397 LP  0  0  0  0  0  0  0  0  0  0  0  0  # atno 17343 bound_to 10162
  156.2369  130.6828  151.1518 LP  0  0  0  0  0  0  0  0  0  0  0  0  # atno 17370 bound_to 10713
  157.7247  131.0658  150.5984 LP  0  0  0  0  0  0  0  0  0  0  0  0  # atno 17371 bound_to 10713
  140.8112  134.3397  157.5411 LP  0  0  0  0  0  0  0  0  0  0  0  0  # atno 17394 bound_to 11000
  139.8757  134.9255  156.3377 LP  0  0  0  0  0  0  0  0  0  0  0  0  # atno 17395 bound_to 11000

$$$$
