AV-unprocessed.smi:1213|AV-procd|sdf|5085|dock2
  -GOLD-   22720 4133D 1   1.00000     0.00000
 Structure written by MMmdl.
 37 38  0  0  0  0  0  0  0  0  2 V2000
  144.5607  138.1506  152.5629 N   0  0  0  0  0  0  0  0  0  0  0  0
  145.7802  137.6303  152.4095 C   0  0  0  0  0  0  0  0  0  0  0  0
  146.0746  136.5138  152.8328 O   0  0  0  0  0  0  0  0  0  0  0  0
  146.8182  138.4998  151.6930 C   0  0  0  0  0  0  0  0  0  0  0  0
  147.4907  139.4645  152.6009 N   0  3  2  0  0  0  0  0  0  0  0  0
  147.9991  138.8210  153.8389 C   0  0  0  0  0  0  0  0  0  0  0  0
  148.8194  139.8121  154.6818 C   0  0  0  0  0  0  0  0  0  0  0  0
  147.9982  141.0660  155.0237 C   0  0  1  0  0  0  0  0  0  0  0  0
  148.8308  142.0221  155.7478 N   0  0  0  0  0  0  0  0  0  0  0  0
  149.6751  141.7106  156.7423 C   0  0  0  0  0  0  0  0  0  0  0  0
  149.8364  140.5632  157.1590 O   0  0  0  0  0  0  0  0  0  0  0  0
  150.3031  142.8040  157.2092 N   0  0  0  0  0  0  0  0  0  0  0  0
  151.2651  142.8859  158.2500 C   0  0  0  0  0  0  0  0  0  0  0  0
  151.4366  141.9534  159.1944 N   0  0  0  0  0  0  0  0  0  0  0  0
  152.4543  142.2942  160.0890 C   0  0  0  0  0  0  0  0  0  0  0  0
  153.0500  143.4989  159.8096 C   0  0  0  0  0  0  0  0  0  0  0  0
  152.3544  144.2568  158.4020 S   0  0  0  0  0  0  0  0  0  0  0  0
  147.4455  141.6890  153.7284 C   0  0  0  0  0  0  0  0  0  0  0  0
  146.6552  140.6559  152.9090 C   0  0  0  0  0  0  0  0  0  0  0  0
  143.8437  137.6148  153.0314 H   0  0  0  0  0  0  0  0  0  0  0  0
  144.3546  139.0760  152.2149 H   0  0  0  0  0  0  0  0  0  0  0  0
  147.5608  137.8776  151.1904 H   0  0  0  0  0  0  0  0  0  0  0  0
  146.2833  139.0420  150.9120 H   0  0  0  0  0  0  0  0  0  0  0  0
  147.1608  138.4333  154.4201 H   0  0  0  0  0  0  0  0  0  0  0  0
  148.6278  137.9682  153.5801 H   0  0  0  0  0  0  0  0  0  0  0  0
  149.1573  139.3247  155.5974 H   0  0  0  0  0  0  0  0  0  0  0  0
  149.7187  140.0949  154.1321 H   0  0  0  0  0  0  0  0  0  0  0  0
  147.1637  140.7654  155.6604 H   0  0  0  0  0  0  0  0  0  0  0  0
  148.7619  142.9902  155.4694 H   0  0  0  0  0  0  0  0  0  0  0  0
  150.0676  143.6809  156.7689 H   0  0  0  0  0  0  0  0  0  0  0  0
  152.6891  141.6193  160.8986 H   0  0  0  0  0  0  0  0  0  0  0  0
  153.8531  143.9842  160.3442 H   0  0  0  0  0  0  0  0  0  0  0  0
  146.8021  142.5382  153.9617 H   0  0  0  0  0  0  0  0  0  0  0  0
  148.2654  142.0800  153.1238 H   0  0  0  0  0  0  0  0  0  0  0  0
  146.3090  141.1227  151.9866 H   0  0  0  0  0  0  0  0  0  0  0  0
  145.7645  140.3460  153.4582 H   0  0  0  0  0  0  0  0  0  0  0  0
  148.3030  139.7967  152.1001 H   0  0  0  0  0  0  0  0  0  0  0  0
  1  2  1  0  0  0  0
  1 20  1  0  0  0  0
  1 21  1  0  0  0  0
  2  3  2  0  0  0  0
  2  4  1  0  0  0  0
  4  5  1  0  0  0  0
  4 22  1  0  0  0  0
  4 23  1  0  0  0  0
  5 19  1  0  0  0  0
  5  6  1  0  0  0  0
  5 37  1  0  0  0  0
  6  7  1  0  0  0  0
  6 24  1  0  0  0  0
  6 25  1  0  0  0  0
  7  8  1  0  0  0  0
  7 26  1  0  0  0  0
  7 27  1  0  0  0  0
  8  9  1  0  0  0  0
  8 18  1  0  0  0  0
  8 28  1  0  0  0  0
  9 10  1  0  0  0  0
  9 29  1  0  0  0  0
 10 11  2  0  0  0  0
 10 12  1  0  0  0  0
 12 13  1  0  0  0  0
 12 30  1  0  0  0  0
 13 17  1  0  0  0  0
 13 14  2  0  0  0  0
 14 15  1  0  0  0  0
 15 16  2  0  0  0  0
 15 31  1  0  0  0  0
 16 17  1  0  0  0  0
 16 32  1  0  0  0  0
 18 19  1  0  0  0  0
 18 33  1  0  0  0  0
 18 34  1  0  0  0  0
 19 35  1  0  0  0  0
 19 36  1  0  0  0  0
M  CHG  1   5   1
M  END
> <s_m_source_file>
AV-unprocessed.smi

> <i_m_source_file_index>
1213

> <i_lp_mmshare_version>
43012

> <i_f3d_flags>
0

> <s_epik_input>
W05IMl1DKD1PKVtDSDJdTjFbQ0gyXVtDSDJdW0NIXShbQ0gyXVtDSDJdMSlbTkhdQyg9TylbTkhdYzJuW2NIXVtjSF1zMg==

> <s_epik_cmdline>
J2VwaWtfcHl0aG9uJywgJy1waCcsICc3LjAnLCAnLXRuJywgJzgnLCAnLW1hJywgJzIwMCcsICctbWV0YWxfYmluZGluZycsICctaW1hZScsICc8aW5maWxlLm1hZT4nLCAnLW9tYWUnLCAnPG91dGZpbGUubWFlPic=

> <r_lp_tautomer_probability>
0.999

> <r_epik_Ionization_Penalty>
0.86253

> <r_epik_Ionization_Penalty_Charging>
0.862349

> <r_epik_Ionization_Penalty_Neutral>
0.000180085

> <r_epik_State_Penalty>
0.898939

> <r_epik_Charging_Adjusted_Penalty>
1.76129

> <i_epik_Tot_Q>
1

> <i_epik_Tot_abs_Q>
1

> <r_epik_Metal_State_Penalty>
0.948529

> <b_epik_Metal_Only>
0

> <s_lp_Force_Field>
OPLS_2005

> <r_lp_Energy>
9.96379

> <b_lp_Chiralities_Consistent>
1

> <s_lp_Variant>
AV-unprocessed.smi:1213-2

> <Gold.Version>
5.8.1

> <Gold.Id.Protein>
6NUR|6NUR_protein|mol2

> <Gold.PLP.Fitness>
47.0534

> <Gold.PLP.PLP>
-36.4966

> <Gold.PLP.part.hbond>
-4.8253

> <Gold.PLP.part.metal>
0.0000

> <Gold.PLP.part.buried>
-3.1459

> <Gold.PLP.part.nonpolar>
-30.8236

> <Gold.PLP.part.repulsive>
1.0389

> <Gold.PLP.ligand.clash>
0.0000

> <Gold.PLP.ligand.torsion>
0.7360

> <Gold.PLP.Chemscore.Hbond>
4.0000

> <Gold.PLP.Chemscore.CHOScore>
0.0000

> <Gold.PLP.Chemscore.Metal>
0.0000

> <Gold.Chemscore.Hbonds>
donor molecule, donor type, donor heavy atom, donor atom, acceptor molecule, acceptor atom, score
      L1  H     1    21       P1 10175  0.96
      L1  H     5    37       P1  7957  1.00
      L1  H     9    29       P1  8028  1.00
      L1  H    12    30       P1  8028  1.00

> <Gold.PLP.Chemscore.Internal.Correction>
0.0287

> <Gold.Rescore>
     Score         DG    S(hbond)    S(metal)    S(lipo)     H(rot)  DE(clash)    DE(int)     intcor
     18.45     -22.35       3.95        0.00      76.52       2.06       0.73       3.16       ----

> <Gold.Chemscore.Fitness>
18.4534

> <Gold.Chemscore.DG>
-22.3467

> <Gold.Chemscore.ZeroCoef>
-5.4800

> <Gold.Chemscore.Hbond>
3.9506

> <Gold.Chemscore.Metal>
0.0000

> <Gold.Chemscore.Lipo>
76.5249

> <Gold.Chemscore.Internal_Hbond>
0.0000

> <Gold.Chemscore.DEClash>
0.7309

> <Gold.Chemscore.DEInternal>
3.1624

> <Gold.Chemscore.Rot>
2.0631

> <Gold.Chemscore.Internal.Correction>
   9.000000E+99

> <Gold.Chemscore.Hbonds>
donor molecule, donor type, donor heavy atom, donor atom, acceptor molecule, acceptor atom, score
      L1  H     1    21       P1 10175  0.88
      L1  H     5    37       P1  7957  0.99
      L1  H     9    29       P1  8028  0.99
      L1  H    12    30       P1  8028  0.95

> <Gold.Chemscore.Hbond.Weighted>
-13.1949

> <Gold.Chemscore.Metal.Weighted>
-0.0000

> <Gold.Chemscore.Lipo.Weighted>
-8.9534

> <Gold.Chemscore.Internal_Hbond.Weighted>
0.0000

> <Gold.Chemscore.DEClash.Weighted>
0.7309

> <Gold.Chemscore.DEInternal.Weighted>
3.1624

> <Gold.Chemscore.Rot.Weighted>
5.2816

> <Gold.Chemscore.Internal.Correction.Weighted>
   9.000000E+99

> <Gold.Protein.RotatedTorsions>
[ 6907 6896 6895 6894 ] final  113.98 input  -60.11 | X-H torsion
[ 7974 7965 7964 7962 ] final  138.37 input  175.53 | X-H torsion
[ 8008 7997 7996 7995 ] final -176.09 input   59.86 | X-H torsion
[ 10167 10162 10161 10158 ] final   29.25 input  -65.29 | X-H torsion
[ 10718 10713 10712 10709 ] final   68.02 input   66.30 | X-H torsion
[ 10763 10752 10751 10750 ] final   -5.36 input  -60.55 | X-H torsion
[ 11005 11000 10999 10996 ] final -165.11 input  -57.11 | X-H torsion

> <Gold.Protein.ActiveResidues>
 VAL166  LYS551  ARG553  GLY616  TRP617  ASP618  TYR619  PRO620  LYS621  CYS622 
 ASP623  PHE694  ASN695  SER759  ASP760  ASP761  ALA762  ILE779  LEU786  VAL792 
 PHE793  MET794  SER795  GLU796  ALA797  LYS798  CYS799  TRP800  GLU811  SER814 

> <Gold.Protein.RotatedAtoms>
  152.4829  133.8300  159.7097 H   0  0  0  0  0  0  0  0  0  0  0  0  # atno 6907 bound_to 6896
  150.8893  133.7256  159.2916 H   0  0  0  0  0  0  0  0  0  0  0  0  # atno 6908 bound_to 6896
  151.4734  135.1051  159.9810 H   0  0  0  0  0  0  0  0  0  0  0  0  # atno 6909 bound_to 6896
  144.9379  139.4967  143.5586 H   0  0  0  0  0  0  0  0  0  0  0  0  # atno 7974 bound_to 7965
  155.9906  140.1200  157.0642 H   0  0  0  0  0  0  0  0  0  0  0  0  # atno 8008 bound_to 7997
  154.4210  140.1126  156.5629 H   0  0  0  0  0  0  0  0  0  0  0  0  # atno 8009 bound_to 7997
  155.6348  140.3473  155.4697 H   0  0  0  0  0  0  0  0  0  0  0  0  # atno 8010 bound_to 7997
  140.4782  144.0658  150.6257 H   0  0  0  0  0  0  0  0  0  0  0  0  # atno 10167 bound_to 10162
  157.6265  130.9351  150.0321 H   0  0  0  0  0  0  0  0  0  0  0  0  # atno 10718 bound_to 10713
  153.3974  135.7004  153.6450 H   0  0  0  0  0  0  0  0  0  0  0  0  # atno 10763 bound_to 10752
  153.4998  135.3654  155.2534 H   0  0  0  0  0  0  0  0  0  0  0  0  # atno 10764 bound_to 10752
  154.8707  135.4109  154.3303 H   0  0  0  0  0  0  0  0  0  0  0  0  # atno 10765 bound_to 10752
  140.5794  134.5157  157.5176 H   0  0  0  0  0  0  0  0  0  0  0  0  # atno 11005 bound_to 11000
  146.3274  139.8376  142.8896 LP  0  0  0  0  0  0  0  0  0  0  0  0  # atno 17320 bound_to 7965
  145.3038  141.0201  143.3593 LP  0  0  0  0  0  0  0  0  0  0  0  0  # atno 17321 bound_to 7965
  140.3892  143.2761  152.0080 LP  0  0  0  0  0  0  0  0  0  0  0  0  # atno 17342 bound_to 10162
  139.4829  144.6091  151.7466 LP  0  0  0  0  0  0  0  0  0  0  0  0  # atno 17343 bound_to 10162
  156.1440  130.3642  149.9539 LP  0  0  0  0  0  0  0  0  0  0  0  0  # atno 17370 bound_to 10713
  156.7573  130.9138  151.3640 LP  0  0  0  0  0  0  0  0  0  0  0  0  # atno 17371 bound_to 10713
  139.9324  134.7938  156.0894 LP  0  0  0  0  0  0  0  0  0  0  0  0  # atno 17394 bound_to 11000
  141.1006  133.6679  156.2745 LP  0  0  0  0  0  0  0  0  0  0  0  0  # atno 17395 bound_to 11000

$$$$
