AV-unprocessed.smi:1383|AV-procd|sdf|5622|dock1
  -GOLD-   22720 5233D 1   1.00000     0.00000
 Structure written by MMmdl.
 31 31  0  0  0  0  0  0  0  0  1 V2000
  152.2327  144.9641  159.7088 C   0  0  0  0  0  0  0  0  0  0  0  0
  152.5499  143.7708  158.7937 C   0  0  0  0  0  0  0  0  0  0  0  0
  152.1505  142.3981  159.3785 C   0  0  2  0  0  0  0  0  0  0  0  0
  153.1602  141.9402  160.4452 C   0  0  0  0  0  0  0  0  0  0  0  0
  152.0131  141.3270  158.2851 C   0  0  0  0  0  0  0  0  0  0  0  0
  152.7453  140.3368  158.3071 O   0  0  0  0  0  0  0  0  0  0  0  0
  151.0725  141.5607  157.3505 N   0  0  0  0  0  0  0  0  0  0  0  0
  150.7252  140.7607  156.2311 C   0  0  0  0  0  0  0  0  0  0  0  0
  151.0699  139.4766  156.0848 N   0  0  0  0  0  0  0  0  0  0  0  0
  150.5874  138.9303  154.8905 C   0  0  0  0  0  0  0  0  0  0  0  0
  150.8717  137.4949  154.5512 C   0  0  0  0  0  0  0  0  0  0  0  0
  150.0241  136.5548  155.4125 C   0  0  0  0  0  0  0  0  0  0  0  0
  149.1231  135.7924  154.7858 N   0  0  0  0  0  0  0  0  0  0  0  0
  150.1880  136.5077  156.6296 O   0  0  0  0  0  0  0  0  0  0  0  0
  149.8814  139.8318  154.1303 C   0  0  0  0  0  0  0  0  0  0  0  0
  149.7833  141.3965  154.8923 S   0  0  0  0  0  0  0  0  0  0  0  0
  152.5947  145.8935  159.2689 H   0  0  0  0  0  0  0  0  0  0  0  0
  152.7095  144.8510  160.6828 H   0  0  0  0  0  0  0  0  0  0  0  0
  151.1603  145.0759  159.8699 H   0  0  0  0  0  0  0  0  0  0  0  0
  152.0680  143.9204  157.8264 H   0  0  0  0  0  0  0  0  0  0  0  0
  153.6220  143.7705  158.5937 H   0  0  0  0  0  0  0  0  0  0  0  0
  151.1842  142.5113  159.8734 H   0  0  0  0  0  0  0  0  0  0  0  0
  152.9003  140.9589  160.8447 H   0  0  0  0  0  0  0  0  0  0  0  0
  153.1834  142.6364  161.2840 H   0  0  0  0  0  0  0  0  0  0  0  0
  154.1713  141.8778  160.0409 H   0  0  0  0  0  0  0  0  0  0  0  0
  150.5449  142.4150  157.4535 H   0  0  0  0  0  0  0  0  0  0  0  0
  150.6632  137.2977  153.4988 H   0  0  0  0  0  0  0  0  0  0  0  0
  151.9280  137.2680  154.7019 H   0  0  0  0  0  0  0  0  0  0  0  0
  148.5488  135.1513  155.3132 H   0  0  0  0  0  0  0  0  0  0  0  0
  149.0271  135.8549  153.7825 H   0  0  0  0  0  0  0  0  0  0  0  0
  149.4120  139.6694  153.1715 H   0  0  0  0  0  0  0  0  0  0  0  0
  1  2  1  0  0  0  0
  1 17  1  0  0  0  0
  1 18  1  0  0  0  0
  1 19  1  0  0  0  0
  2  3  1  0  0  0  0
  2 20  1  0  0  0  0
  2 21  1  0  0  0  0
  3  4  1  0  0  0  0
  3  5  1  0  0  0  0
  3 22  1  0  0  0  0
  4 23  1  0  0  0  0
  4 24  1  0  0  0  0
  4 25  1  0  0  0  0
  5  6  2  0  0  0  0
  5  7  1  0  0  0  0
  7  8  1  0  0  0  0
  7 26  1  0  0  0  0
  8 16  1  0  0  0  0
  8  9  2  0  0  0  0
  9 10  1  0  0  0  0
 10 11  1  0  0  0  0
 10 15  2  0  0  0  0
 11 12  1  0  0  0  0
 11 27  1  0  0  0  0
 11 28  1  0  0  0  0
 12 13  1  0  0  0  0
 12 14  2  0  0  0  0
 13 29  1  0  0  0  0
 13 30  1  0  0  0  0
 15 16  1  0  0  0  0
 15 31  1  0  0  0  0
M  END
> <s_m_source_file>
AV-unprocessed.smi

> <i_m_source_file_index>
1383

> <i_lp_mmshare_version>
43012

> <i_f3d_flags>
0

> <s_epik_input>
W0NIM11bQ0gyXVtDQEhdKFtDSDNdKUMoPU8pW05IXWMxbmMoW2NIXXMxKVtDSDJdQyg9TylbTkgyXQ==

> <s_epik_cmdline>
J2VwaWtfcHl0aG9uJywgJy1waCcsICc3LjAnLCAnLXRuJywgJzgnLCAnLW1hJywgJzIwMCcsICctbWV0YWxfYmluZGluZycsICctaW1hZScsICc8aW5maWxlLm1hZT4nLCAnLW9tYWUnLCAnPG91dGZpbGUubWFlPic=

> <r_lp_tautomer_probability>
1

> <r_epik_Ionization_Penalty>
0.00017492

> <r_epik_Ionization_Penalty_Charging>
0

> <r_epik_Ionization_Penalty_Neutral>
0.00017492

> <r_epik_State_Penalty>
-0

> <r_epik_Charging_Adjusted_Penalty>
0

> <i_epik_Tot_Q>
0

> <i_epik_Tot_abs_Q>
0

> <r_epik_Metal_State_Penalty>
0.109333

> <b_epik_Metal_Only>
0

> <s_lp_Force_Field>
OPLS_2005

> <r_lp_Energy>
2.98053

> <b_lp_Chiralities_Consistent>
1

> <s_lp_Variant>
AV-unprocessed.smi:1383-1

> <Gold.Version>
5.8.1

> <Gold.Id.Protein>
6NUR|6NUR_protein|mol2

> <Gold.PLP.Fitness>
41.7243

> <Gold.PLP.PLP>
-34.0269

> <Gold.PLP.part.hbond>
-2.0000

> <Gold.PLP.part.metal>
0.0000

> <Gold.PLP.part.buried>
-1.3971

> <Gold.PLP.part.nonpolar>
-30.7977

> <Gold.PLP.part.repulsive>
0.0896

> <Gold.PLP.ligand.clash>
0.0000

> <Gold.PLP.ligand.torsion>
0.4337

> <Gold.PLP.Chemscore.Hbond>
1.8112

> <Gold.PLP.Chemscore.CHOScore>
1.0000

> <Gold.PLP.Chemscore.Metal>
0.0000

> <Gold.Chemscore.Hbonds>
donor molecule, donor type, donor heavy atom, donor atom, acceptor molecule, acceptor atom, score
      L1  H    13    30       P1  7948  1.00
      P1  H  7997  8008       L1     6  0.41
      L1  C    15    31       P1  7957  1.00

> <Gold.PLP.Chemscore.Internal.Correction>
0.1312

> <Gold.Rescore>
     Score         DG    S(hbond)    S(metal)    S(lipo)     H(rot)  DE(clash)    DE(int)     intcor
     12.71     -14.90       1.84        0.00      76.13       2.19       0.44       1.75       ----

> <Gold.Chemscore.Fitness>
12.7100

> <Gold.Chemscore.DG>
-14.9027

> <Gold.Chemscore.ZeroCoef>
-5.4800

> <Gold.Chemscore.Hbond>
1.8367

> <Gold.Chemscore.Metal>
0.0000

> <Gold.Chemscore.Lipo>
76.1270

> <Gold.Chemscore.Internal_Hbond>
0.0000

> <Gold.Chemscore.DEClash>
0.4447

> <Gold.Chemscore.DEInternal>
1.7481

> <Gold.Chemscore.Rot>
2.1948

> <Gold.Chemscore.Internal.Correction>
   9.000000E+99

> <Gold.Chemscore.Hbonds>
donor molecule, donor type, donor heavy atom, donor atom, acceptor molecule, acceptor atom, score
      L1  H    13    30       P1  7948  0.92
      P1  H  7997  8008       L1     6  0.39

> <Gold.Chemscore.Hbond.Weighted>
-6.1345

> <Gold.Chemscore.Metal.Weighted>
-0.0000

> <Gold.Chemscore.Lipo.Weighted>
-8.9069

> <Gold.Chemscore.Internal_Hbond.Weighted>
0.0000

> <Gold.Chemscore.DEClash.Weighted>
0.4447

> <Gold.Chemscore.DEInternal.Weighted>
1.7481

> <Gold.Chemscore.Rot.Weighted>
5.6186

> <Gold.Chemscore.Internal.Correction.Weighted>
   9.000000E+99

> <Gold.Protein.RotatedTorsions>
[ 6907 6896 6895 6894 ] final  -28.02 input  -60.11 | X-H torsion
[ 7974 7965 7964 7962 ] final  112.97 input  175.53 | X-H torsion
[ 8008 7997 7996 7995 ] final  -79.60 input   59.86 | X-H torsion
[ 10167 10162 10161 10158 ] final -130.59 input  -65.29 | X-H torsion
[ 10718 10713 10712 10709 ] final   12.96 input   66.30 | X-H torsion
[ 10763 10752 10751 10750 ] final  173.45 input  -60.55 | X-H torsion
[ 11005 11000 10999 10996 ] final   -1.66 input  -57.11 | X-H torsion

> <Gold.Protein.ActiveResidues>
 VAL166  LYS551  ARG553  GLY616  TRP617  ASP618  TYR619  PRO620  LYS621  CYS622 
 ASP623  PHE694  ASN695  SER759  ASP760  ASP761  ALA762  ILE779  LEU786  VAL792 
 PHE793  MET794  SER795  GLU796  ALA797  LYS798  CYS799  TRP800  GLU811  SER814 

> <Gold.Protein.RotatedAtoms>
  151.1388  135.0169  159.8615 H   0  0  0  0  0  0  0  0  0  0  0  0  # atno 6907 bound_to 6896
  152.5452  134.1524  159.8534 H   0  0  0  0  0  0  0  0  0  0  0  0  # atno 6908 bound_to 6896
  151.1597  133.4807  159.2627 H   0  0  0  0  0  0  0  0  0  0  0  0  # atno 6909 bound_to 6896
  145.2229  139.2854  143.4209 H   0  0  0  0  0  0  0  0  0  0  0  0  # atno 7974 bound_to 7965
  154.5801  140.0676  156.9091 H   0  0  0  0  0  0  0  0  0  0  0  0  # atno 8008 bound_to 7997
  155.2478  140.3349  155.4267 H   0  0  0  0  0  0  0  0  0  0  0  0  # atno 8009 bound_to 7997
  156.2183  140.1788  156.7522 H   0  0  0  0  0  0  0  0  0  0  0  0  # atno 8010 bound_to 7997
  139.9277  143.6308  152.2538 H   0  0  0  0  0  0  0  0  0  0  0  0  # atno 10167 bound_to 10162
  157.0178  130.6142  149.5717 H   0  0  0  0  0  0  0  0  0  0  0  0  # atno 10718 bound_to 10713
  154.4403  135.2762  155.1852 H   0  0  0  0  0  0  0  0  0  0  0  0  # atno 10763 bound_to 10752
  154.3721  135.6106  153.5749 H   0  0  0  0  0  0  0  0  0  0  0  0  # atno 10764 bound_to 10752
  152.9840  135.5860  154.4729 H   0  0  0  0  0  0  0  0  0  0  0  0  # atno 10765 bound_to 10752
  140.6498  133.9415  155.8373 H   0  0  0  0  0  0  0  0  0  0  0  0  # atno 11005 bound_to 11000
  146.3372  140.2540  142.8599 LP  0  0  0  0  0  0  0  0  0  0  0  0  # atno 17320 bound_to 7965
  144.9749  140.8404  143.5433 LP  0  0  0  0  0  0  0  0  0  0  0  0  # atno 17321 bound_to 7965
  139.6808  144.7655  151.1612 LP  0  0  0  0  0  0  0  0  0  0  0  0  # atno 17342 bound_to 10162
  140.7646  143.5727  150.8978 LP  0  0  0  0  0  0  0  0  0  0  0  0  # atno 17343 bound_to 10162
  156.0113  130.5205  150.7997 LP  0  0  0  0  0  0  0  0  0  0  0  0  # atno 17370 bound_to 10713
  157.5273  131.0935  151.0002 LP  0  0  0  0  0  0  0  0  0  0  0  0  # atno 17371 bound_to 10713
  141.0545  134.0436  157.3740 LP  0  0  0  0  0  0  0  0  0  0  0  0  # atno 17394 bound_to 11000
  139.9050  135.0177  156.7444 LP  0  0  0  0  0  0  0  0  0  0  0  0  # atno 17395 bound_to 11000

$$$$
