AV-unprocessed.smi:258|AV-procd|sdf|1965|dock2
  -GOLD-   2262021113D 1   1.00000     0.00000
 Structure written by MMmdl.
 57 60  0  0  0  0  0  0  0  0  1 V2000
  145.5359  132.8764  149.6618 O   0  0  0  0  0  0  0  0  0  0  0  0
  146.1820  133.5638  150.7122 C   0  0  0  0  0  0  0  0  0  0  0  0
  146.3378  132.6442  151.9293 C   0  0  0  0  0  0  0  0  0  0  0  0
  146.6382  133.4336  153.0715 O   0  0  0  0  0  0  0  0  0  0  0  0
  148.0121  133.4424  153.4368 C   0  0  2  0  0  0  0  0  0  0  0  0
  148.5042  132.0236  153.7912 C   0  0  0  0  0  0  0  0  0  0  0  0
  149.9400  132.0768  154.3375 C   0  0  0  0  0  0  0  0  0  0  0  0
  150.0391  133.0479  155.5248 C   0  0  0  0  0  0  0  0  0  0  0  0
  149.5302  134.3651  155.1542 N   0  0  0  0  0  0  0  0  0  0  0  0
  149.7691  135.3158  156.0808 C   0  0  0  0  0  0  0  0  0  0  0  0
  148.9689  135.3292  157.1747 N   0  0  0  0  0  0  0  0  0  0  0  0
  149.1582  136.2464  158.1285 C   0  0  0  0  0  0  0  0  0  0  0  0
  150.0708  137.2195  158.1829 N   0  0  0  0  0  0  0  0  0  0  0  0
  150.8751  137.2066  157.0814 C   0  0  0  0  0  0  0  0  0  0  0  0
  150.7958  136.2974  155.9898 C   0  0  0  0  0  0  0  0  0  0  0  0
  151.7794  136.5930  155.0534 N   0  0  0  0  0  0  0  0  0  0  0  0
  152.4050  137.6193  155.5626 C   0  0  0  0  0  0  0  0  0  0  0  0
  151.9241  138.0548  156.7771 N   0  0  0  0  0  0  0  0  0  0  0  0
  152.4261  139.1652  157.5671 C   0  0  0  0  0  0  0  0  0  0  0  0
  151.3823  140.2906  157.7757 C   0  0  2  0  0  0  0  0  0  0  0  0
  150.5273  140.5550  156.5126 C   0  0  0  0  0  0  0  0  0  0  0  0
  151.2875  140.4005  155.3317 O   0  0  0  0  0  0  0  0  0  0  0  0
  152.0401  141.5824  158.3232 C   0  0  2  0  0  0  0  0  0  0  0  0
  152.7495  141.4190  159.6561 C   0  0  0  0  0  0  0  0  0  0  0  0
  152.8621  142.8598  160.1428 C   0  0  0  0  0  0  0  0  0  0  0  0
  151.7231  143.5348  159.6202 O   0  0  0  0  0  0  0  0  0  0  0  0
  151.0584  142.7060  158.6716 C   0  0  0  0  0  0  0  0  0  0  0  0
  148.1581  134.3729  154.6538 C   0  0  0  0  0  0  0  0  0  0  0  0
  145.6367  133.3783  148.8673 H   0  0  0  0  0  0  0  0  0  0  0  0
  147.1651  133.8674  150.3514 H   0  0  0  0  0  0  0  0  0  0  0  0
  145.6364  134.4728  150.9672 H   0  0  0  0  0  0  0  0  0  0  0  0
  145.4453  132.0341  152.0713 H   0  0  0  0  0  0  0  0  0  0  0  0
  147.1703  131.9620  151.7519 H   0  0  0  0  0  0  0  0  0  0  0  0
  148.6133  133.8493  152.6215 H   0  0  0  0  0  0  0  0  0  0  0  0
  147.8449  131.5827  154.5401 H   0  0  0  0  0  0  0  0  0  0  0  0
  148.4710  131.3685  152.9214 H   0  0  0  0  0  0  0  0  0  0  0  0
  150.2644  131.0812  154.6405 H   0  0  0  0  0  0  0  0  0  0  0  0
  150.6188  132.3982  153.5465 H   0  0  0  0  0  0  0  0  0  0  0  0
  149.4670  132.6570  156.3672 H   0  0  0  0  0  0  0  0  0  0  0  0
  151.0767  133.1300  155.8518 H   0  0  0  0  0  0  0  0  0  0  0  0
  148.4808  136.1939  158.9681 H   0  0  0  0  0  0  0  0  0  0  0  0
  153.2355  138.0941  155.0604 H   0  0  0  0  0  0  0  0  0  0  0  0
  152.7545  138.7635  158.5258 H   0  0  0  0  0  0  0  0  0  0  0  0
  153.3169  139.5616  157.0782 H   0  0  0  0  0  0  0  0  0  0  0  0
  150.6893  139.9381  158.5411 H   0  0  0  0  0  0  0  0  0  0  0  0
  149.6739  139.8782  156.4695 H   0  0  0  0  0  0  0  0  0  0  0  0
  150.1082  141.5610  156.5297 H   0  0  0  0  0  0  0  0  0  0  0  0
  152.0553  139.8879  155.5338 H   0  0  0  0  0  0  0  0  0  0  0  0
  152.7602  141.9634  157.5973 H   0  0  0  0  0  0  0  0  0  0  0  0
  152.1356  140.8391  160.3471 H   0  0  0  0  0  0  0  0  0  0  0  0
  153.7214  140.9321  159.5719 H   0  0  0  0  0  0  0  0  0  0  0  0
  152.9048  142.9297  161.2299 H   0  0  0  0  0  0  0  0  0  0  0  0
  153.7594  143.3292  159.7375 H   0  0  0  0  0  0  0  0  0  0  0  0
  150.7534  143.2810  157.7969 H   0  0  0  0  0  0  0  0  0  0  0  0
  150.1595  142.3036  159.1407 H   0  0  0  0  0  0  0  0  0  0  0  0
  147.8710  135.3890  154.3792 H   0  0  0  0  0  0  0  0  0  0  0  0
  147.4799  134.0524  155.4457 H   0  0  0  0  0  0  0  0  0  0  0  0
  1  2  1  0  0  0  0
  1 29  1  0  0  0  0
  2  3  1  0  0  0  0
  2 30  1  0  0  0  0
  2 31  1  0  0  0  0
  3  4  1  0  0  0  0
  3 32  1  0  0  0  0
  3 33  1  0  0  0  0
  4  5  1  0  0  0  0
  5 28  1  0  0  0  0
  5  6  1  0  0  0  0
  5 34  1  0  0  0  0
  6  7  1  0  0  0  0
  6 35  1  0  0  0  0
  6 36  1  0  0  0  0
  7  8  1  0  0  0  0
  7 37  1  0  0  0  0
  7 38  1  0  0  0  0
  8  9  1  0  0  0  0
  8 39  1  0  0  0  0
  8 40  1  0  0  0  0
  9 10  1  0  0  0  0
  9 28  1  0  0  0  0
 10 15  1  0  0  0  0
 10 11  2  0  0  0  0
 11 12  1  0  0  0  0
 12 13  2  0  0  0  0
 12 41  1  0  0  0  0
 13 14  1  0  0  0  0
 14 18  1  0  0  0  0
 14 15  2  0  0  0  0
 15 16  1  0  0  0  0
 16 17  2  0  0  0  0
 17 18  1  0  0  0  0
 17 42  1  0  0  0  0
 18 19  1  0  0  0  0
 19 20  1  0  0  0  0
 19 43  1  0  0  0  0
 19 44  1  0  0  0  0
 20 21  1  0  0  0  0
 20 23  1  0  0  0  0
 20 45  1  0  0  0  0
 21 22  1  0  0  0  0
 21 46  1  0  0  0  0
 21 47  1  0  0  0  0
 22 48  1  0  0  0  0
 23 27  1  0  0  0  0
 23 24  1  0  0  0  0
 23 49  1  0  0  0  0
 24 25  1  0  0  0  0
 24 50  1  0  0  0  0
 24 51  1  0  0  0  0
 25 26  1  0  0  0  0
 25 52  1  0  0  0  0
 25 53  1  0  0  0  0
 26 27  1  0  0  0  0
 27 54  1  0  0  0  0
 27 55  1  0  0  0  0
 28 56  1  0  0  0  0
 28 57  1  0  0  0  0
M  END
> <s_m_source_file>
AV-unprocessed.smi

> <i_m_source_file_index>
258

> <i_lp_mmshare_version>
43012

> <i_f3d_flags>
0

> <s_epik_input>
W09IXVtDSDJdW0NIMl1PW0NAQEhdMVtDSDJdW0NIMl1bQ0gyXU4oW0NIMl0xKWMobltjSF1uMiljKGMyMyluW2NIXW4zW0NIMl1bQ0BIXShbQ0gyXVtPSF0pW0NAQEhdNFtDSDJdW0NIMl1PW0NIMl00

> <s_epik_cmdline>
J2VwaWtfcHl0aG9uJywgJy1waCcsICc3LjAnLCAnLXRuJywgJzgnLCAnLW1hJywgJzIwMCcsICctbWV0YWxfYmluZGluZycsICctaW1hZScsICc8aW5maWxlLm1hZT4nLCAnLW9tYWUnLCAnPG91dGZpbGUubWFlPic=

> <r_lp_tautomer_probability>
1

> <r_epik_Ionization_Penalty>
0.00349036

> <r_epik_Ionization_Penalty_Charging>
0

> <r_epik_Ionization_Penalty_Neutral>
0.00349036

> <r_epik_State_Penalty>
0.00229798

> <r_epik_Charging_Adjusted_Penalty>
0.00229798

> <i_epik_Tot_Q>
0

> <i_epik_Tot_abs_Q>
0

> <r_epik_Metal_State_Penalty>
-0

> <b_epik_Metal_Only>
0

> <s_lp_Force_Field>
OPLS_2005

> <r_lp_Energy>
47.3811

> <b_lp_Chiralities_Consistent>
1

> <s_lp_Variant>
AV-unprocessed.smi:258-1

> <Gold.Version>
5.8.1

> <Gold.Id.Protein>
6NUR|6NUR_protein|mol2

> <Gold.PLP.Fitness>
45.6744

> <Gold.PLP.PLP>
-38.8514

> <Gold.PLP.part.hbond>
-3.0000

> <Gold.PLP.part.metal>
0.0000

> <Gold.PLP.part.buried>
-5.6384

> <Gold.PLP.part.nonpolar>
-29.7718

> <Gold.PLP.part.repulsive>
0.3141

> <Gold.PLP.ligand.clash>
0.0000

> <Gold.PLP.ligand.torsion>
1.1113

> <Gold.PLP.Chemscore.Hbond>
2.8800

> <Gold.PLP.Chemscore.CHOScore>
0.0000

> <Gold.PLP.Chemscore.Metal>
0.0000

> <Gold.Chemscore.Hbonds>
donor molecule, donor type, donor heavy atom, donor atom, acceptor molecule, acceptor atom, score
      L1  H     1    29       P1  7921  0.75
      P1  H  7989  7998       L1    22  0.94
      P1  H 10752 10763       L1    16  1.00

> <Gold.PLP.Chemscore.Internal.Correction>
0.4055

> <Gold.Rescore>
     Score         DG    S(hbond)    S(metal)    S(lipo)     H(rot)  DE(clash)    DE(int)     intcor
      8.97     -11.97       1.93        0.00      92.67       4.22       0.68       2.31       ----

> <Gold.Chemscore.Fitness>
8.9712

> <Gold.Chemscore.DG>
-11.9670

> <Gold.Chemscore.ZeroCoef>
-5.4800

> <Gold.Chemscore.Hbond>
1.9339

> <Gold.Chemscore.Metal>
0.0000

> <Gold.Chemscore.Lipo>
92.6710

> <Gold.Chemscore.Internal_Hbond>
0.0000

> <Gold.Chemscore.DEClash>
0.6848

> <Gold.Chemscore.DEInternal>
2.3111

> <Gold.Chemscore.Rot>
4.2246

> <Gold.Chemscore.Internal.Correction>
   9.000000E+99

> <Gold.Chemscore.Hbonds>
donor molecule, donor type, donor heavy atom, donor atom, acceptor molecule, acceptor atom, score
      L1  H     1    29       P1  7921  0.09
      P1  H  7989  7998       L1    22  0.28
      P1  H 10752 10763       L1    16  0.53

> <Gold.Chemscore.Hbond.Weighted>
-6.4594

> <Gold.Chemscore.Metal.Weighted>
-0.0000

> <Gold.Chemscore.Lipo.Weighted>
-10.8425

> <Gold.Chemscore.Internal_Hbond.Weighted>
0.0000

> <Gold.Chemscore.DEClash.Weighted>
0.6848

> <Gold.Chemscore.DEInternal.Weighted>
2.3111

> <Gold.Chemscore.Rot.Weighted>
10.8149

> <Gold.Chemscore.Internal.Correction.Weighted>
   9.000000E+99

> <Gold.Protein.RotatedTorsions>
[ 6907 6896 6895 6894 ] final  -96.49 input  -60.11 | X-H torsion
[ 7974 7965 7964 7962 ] final  -97.89 input  175.53 | X-H torsion
[ 8008 7997 7996 7995 ] final   74.82 input   59.86 | X-H torsion
[ 10167 10162 10161 10158 ] final -155.90 input  -65.29 | X-H torsion
[ 10718 10713 10712 10709 ] final   24.69 input   66.30 | X-H torsion
[ 10763 10752 10751 10750 ] final   45.29 input  -60.55 | X-H torsion
[ 11005 11000 10999 10996 ] final   44.06 input  -57.11 | X-H torsion

> <Gold.Protein.ActiveResidues>
 VAL166  LYS551  ARG553  GLY616  TRP617  ASP618  TYR619  PRO620  LYS621  CYS622 
 ASP623  PHE694  ASN695  SER759  ASP760  ASP761  ALA762  ILE779  LEU786  VAL792 
 PHE793  MET794  SER795  GLU796  ALA797  LYS798  CYS799  TRP800  GLU811  SER814 

> <Gold.Protein.RotatedAtoms>
  150.6990  134.1496  159.4134 H   0  0  0  0  0  0  0  0  0  0  0  0  # atno 6907 bound_to 6896
  151.9478  135.0181  160.0549 H   0  0  0  0  0  0  0  0  0  0  0  0  # atno 6908 bound_to 6896
  152.2037  133.4824  159.5109 H   0  0  0  0  0  0  0  0  0  0  0  0  # atno 6909 bound_to 6896
  145.3278  140.9435  143.2679 H   0  0  0  0  0  0  0  0  0  0  0  0  # atno 7974 bound_to 7965
  155.8040  140.3475  155.5419 H   0  0  0  0  0  0  0  0  0  0  0  0  # atno 8008 bound_to 7997
  155.8509  140.0956  157.1695 H   0  0  0  0  0  0  0  0  0  0  0  0  # atno 8009 bound_to 7997
  154.4008  140.1376  156.3831 H   0  0  0  0  0  0  0  0  0  0  0  0  # atno 8010 bound_to 7997
  139.6893  143.9447  152.2377 H   0  0  0  0  0  0  0  0  0  0  0  0  # atno 10167 bound_to 10162
  157.1832  130.6812  149.6121 H   0  0  0  0  0  0  0  0  0  0  0  0  # atno 10718 bound_to 10713
  152.9827  135.6044  154.3412 H   0  0  0  0  0  0  0  0  0  0  0  0  # atno 10763 bound_to 10752
  154.3109  135.2771  155.2568 H   0  0  0  0  0  0  0  0  0  0  0  0  # atno 10764 bound_to 10752
  154.4778  135.5925  153.6423 H   0  0  0  0  0  0  0  0  0  0  0  0  # atno 10765 bound_to 10752
  140.1587  134.4369  155.8332 H   0  0  0  0  0  0  0  0  0  0  0  0  # atno 11005 bound_to 11000
  144.8888  139.4803  143.6688 LP  0  0  0  0  0  0  0  0  0  0  0  0  # atno 17320 bound_to 7965
  146.3057  139.7573  142.9058 LP  0  0  0  0  0  0  0  0  0  0  0  0  # atno 17321 bound_to 7965
  139.9259  144.6771  150.8413 LP  0  0  0  0  0  0  0  0  0  0  0  0  # atno 17342 bound_to 10162
  140.7678  143.3342  151.2344 LP  0  0  0  0  0  0  0  0  0  0  0  0  # atno 17343 bound_to 10162
  155.9721  130.4639  150.6200 LP  0  0  0  0  0  0  0  0  0  0  0  0  # atno 17370 bound_to 10713
  157.3932  131.0799  151.1375 LP  0  0  0  0  0  0  0  0  0  0  0  0  # atno 17371 bound_to 10713
  141.2207  133.6903  156.7554 LP  0  0  0  0  0  0  0  0  0  0  0  0  # atno 17394 bound_to 11000
  140.2516  134.8536  157.3673 LP  0  0  0  0  0  0  0  0  0  0  0  0  # atno 17395 bound_to 11000

$$$$
