AV-unprocessed.smi:3188|AV-procd|sdf|12183|dock7
  -GOLD-   2272018 23D 1   1.00000     0.00000
 Structure written by MMmdl.
 40 41  0  0  0  0  0  0  0  0  2 V2000
  148.0302  139.6580  153.5257 C   0  0  0  0  0  0  0  0  0  0  0  0
  149.2470  139.9264  154.3960 C   0  0  0  0  0  0  0  0  0  0  0  0
  149.3088  141.0259  155.1731 C   0  0  0  0  0  0  0  0  0  0  0  0
  150.4997  141.4154  156.0312 C   0  0  0  0  0  0  0  0  0  0  0  0
  151.5867  140.3294  156.0848 C   0  0  0  0  0  0  0  0  0  0  0  0
  151.7388  139.6182  154.7290 C   0  0  1  0  0  0  0  0  0  0  0  0
  152.9727  138.6998  154.6929 C   0  0  0  0  0  0  0  0  0  0  0  0
  150.4097  138.9280  154.3093 C   0  0  1  0  0  0  0  0  0  0  0  0
  150.1283  137.6254  155.1041 C   0  0  0  0  0  0  0  0  0  0  0  0
  148.8511  136.9857  154.7316 N   0  3  0  0  0  0  0  0  0  0  0  0
  148.6074  135.6934  155.4009 C   0  0  0  0  0  0  0  0  0  0  0  0
  149.8161  134.7588  155.2506 C   0  0  0  0  0  0  0  0  0  0  0  0
  149.4454  133.4946  154.6451 N   0  0  0  0  0  0  0  0  0  0  0  0
  148.7350  133.2718  153.4837 C   0  0  0  0  0  0  0  0  0  0  0  0
  148.6833  131.9095  153.4003 C   0  0  0  0  0  0  0  0  0  0  0  0
  149.3536  131.3692  154.4965 N   0  0  0  0  0  0  0  0  0  0  0  0
  149.8044  132.3312  155.2385 N   0  0  0  0  0  0  0  0  0  0  0  0
  148.3331  139.4243  152.5047 H   0  0  0  0  0  0  0  0  0  0  0  0
  147.3789  140.5319  153.4843 H   0  0  0  0  0  0  0  0  0  0  0  0
  147.4356  138.8320  153.9121 H   0  0  0  0  0  0  0  0  0  0  0  0
  148.4794  141.7182  155.1859 H   0  0  0  0  0  0  0  0  0  0  0  0
  150.9176  142.3308  155.6110 H   0  0  0  0  0  0  0  0  0  0  0  0
  150.1604  141.6580  157.0385 H   0  0  0  0  0  0  0  0  0  0  0  0
  152.5320  140.7814  156.3875 H   0  0  0  0  0  0  0  0  0  0  0  0
  151.3405  139.6013  156.8580 H   0  0  0  0  0  0  0  0  0  0  0  0
  151.9325  140.3958  153.9877 H   0  0  0  0  0  0  0  0  0  0  0  0
  152.9592  137.9632  155.4961 H   0  0  0  0  0  0  0  0  0  0  0  0
  153.8881  139.2809  154.8086 H   0  0  0  0  0  0  0  0  0  0  0  0
  153.0415  138.1682  153.7435 H   0  0  0  0  0  0  0  0  0  0  0  0
  150.5214  138.6579  153.2580 H   0  0  0  0  0  0  0  0  0  0  0  0
  150.9103  136.8889  154.9244 H   0  0  0  0  0  0  0  0  0  0  0  0
  150.1231  137.8301  156.1751 H   0  0  0  0  0  0  0  0  0  0  0  0
  148.0988  137.6165  154.9691 H   0  0  0  0  0  0  0  0  0  0  0  0
  148.4010  135.8683  156.4578 H   0  0  0  0  0  0  0  0  0  0  0  0
  147.7178  135.2311  154.9702 H   0  0  0  0  0  0  0  0  0  0  0  0
  150.5888  135.2251  154.6371 H   0  0  0  0  0  0  0  0  0  0  0  0
  150.2634  134.5573  156.2250 H   0  0  0  0  0  0  0  0  0  0  0  0
  148.3486  134.0582  152.8520 H   0  0  0  0  0  0  0  0  0  0  0  0
  148.2251  131.2794  152.6520 H   0  0  0  0  0  0  0  0  0  0  0  0
  148.8458  136.8378  153.7324 H   0  0  0  0  0  0  0  0  0  0  0  0
  1  2  1  0  0  0  0
  1 18  1  0  0  0  0
  1 19  1  0  0  0  0
  1 20  1  0  0  0  0
  2  8  1  0  0  0  0
  2  3  2  0  0  0  0
  3  4  1  0  0  0  0
  3 21  1  0  0  0  0
  4  5  1  0  0  0  0
  4 22  1  0  0  0  0
  4 23  1  0  0  0  0
  5  6  1  0  0  0  0
  5 24  1  0  0  0  0
  5 25  1  0  0  0  0
  6  7  1  0  0  0  0
  6  8  1  0  0  0  0
  6 26  1  0  0  0  0
  7 27  1  0  0  0  0
  7 28  1  0  0  0  0
  7 29  1  0  0  0  0
  8  9  1  0  0  0  0
  8 30  1  0  0  0  0
  9 10  1  0  0  0  0
  9 31  1  0  0  0  0
  9 32  1  0  0  0  0
 10 11  1  0  0  0  0
 10 33  1  0  0  0  0
 10 40  1  0  0  0  0
 11 12  1  0  0  0  0
 11 34  1  0  0  0  0
 11 35  1  0  0  0  0
 12 13  1  0  0  0  0
 12 36  1  0  0  0  0
 12 37  1  0  0  0  0
 13 17  1  0  0  0  0
 13 14  1  0  0  0  0
 14 15  2  0  0  0  0
 14 38  1  0  0  0  0
 15 16  1  0  0  0  0
 15 39  1  0  0  0  0
 16 17  2  0  0  0  0
M  CHG  1  10   1
M  END
> <s_m_source_file>
AV-unprocessed.smi

> <i_m_source_file_index>
3188

> <i_lp_mmshare_version>
43012

> <i_f3d_flags>
0

> <s_epik_input>
W0NIM11DMT1bQ0hdW0NIMl1bQ0gyXVtDQEBIXShbQ0gzXSlbQ0BIXTFbQ0gyXVtOSF1bQ0gyXVtDSDJdbjJbY0hdW2NIXW5uMg==

> <s_epik_cmdline>
J2VwaWtfcHl0aG9uJywgJy1waCcsICc3LjAnLCAnLXRuJywgJzgnLCAnLW1hJywgJzIwMCcsICctbWV0YWxfYmluZGluZycsICctaW1hZScsICc8aW5maWxlLm1hZT4nLCAnLW9tYWUnLCAnPG91dGZpbGUubWFlPic=

> <r_lp_tautomer_probability>
1

> <r_epik_Ionization_Penalty>
0.007268

> <r_epik_Ionization_Penalty_Charging>
0.00726786

> <r_epik_Ionization_Penalty_Neutral>
1.34882e-07

> <r_epik_State_Penalty>
0.00542069

> <r_epik_Charging_Adjusted_Penalty>
0.0126886

> <i_epik_Tot_Q>
1

> <i_epik_Tot_abs_Q>
1

> <r_epik_Metal_State_Penalty>
-0

> <b_epik_Metal_Only>
0

> <s_lp_Force_Field>
OPLS_2005

> <r_lp_Energy>
14.7496

> <b_lp_Chiralities_Consistent>
1

> <s_lp_Variant>
AV-unprocessed.smi:3188-1

> <Gold.Version>
5.8.1

> <Gold.Id.Protein>
6NUR|6NUR_protein|mol2

> <Gold.PLP.Fitness>
43.1346

> <Gold.PLP.PLP>
-32.7828

> <Gold.PLP.part.hbond>
-1.0000

> <Gold.PLP.part.metal>
0.0000

> <Gold.PLP.part.buried>
1.3026

> <Gold.PLP.part.nonpolar>
-33.0720

> <Gold.PLP.part.repulsive>
0.0388

> <Gold.PLP.ligand.clash>
0.0000

> <Gold.PLP.ligand.torsion>
0.4847

> <Gold.PLP.Chemscore.Hbond>
2.0000

> <Gold.PLP.Chemscore.CHOScore>
1.7561

> <Gold.PLP.Chemscore.Metal>
0.0000

> <Gold.Chemscore.Hbonds>
donor molecule, donor type, donor heavy atom, donor atom, acceptor molecule, acceptor atom, score
      L1  H    10    40       P1  7948  2.00
      L1  C    14    38       P1  7948  0.80
      L1  C    15    39       P1 10747  0.96

> <Gold.PLP.Chemscore.Internal.Correction>
0.0529

> <Gold.Rescore>
     Score         DG    S(hbond)    S(metal)    S(lipo)     H(rot)  DE(clash)    DE(int)     intcor
     12.88     -13.38       1.00        0.00      78.02       1.78       0.12       0.38       ----

> <Gold.Chemscore.Fitness>
12.8792

> <Gold.Chemscore.DG>
-13.3767

> <Gold.Chemscore.ZeroCoef>
-5.4800

> <Gold.Chemscore.Hbond>
0.9962

> <Gold.Chemscore.Metal>
0.0000

> <Gold.Chemscore.Lipo>
78.0205

> <Gold.Chemscore.Internal_Hbond>
0.0000

> <Gold.Chemscore.DEClash>
0.1198

> <Gold.Chemscore.DEInternal>
0.3777

> <Gold.Chemscore.Rot>
1.7809

> <Gold.Chemscore.Internal.Correction>
   9.000000E+99

> <Gold.Chemscore.Hbonds>
donor molecule, donor type, donor heavy atom, donor atom, acceptor molecule, acceptor atom, score
      L1  H    10    40       P1  7948  0.99

> <Gold.Chemscore.Hbond.Weighted>
-3.3273

> <Gold.Chemscore.Metal.Weighted>
-0.0000

> <Gold.Chemscore.Lipo.Weighted>
-9.1284

> <Gold.Chemscore.Internal_Hbond.Weighted>
0.0000

> <Gold.Chemscore.DEClash.Weighted>
0.1198

> <Gold.Chemscore.DEInternal.Weighted>
0.3777

> <Gold.Chemscore.Rot.Weighted>
4.5590

> <Gold.Chemscore.Internal.Correction.Weighted>
   9.000000E+99

> <Gold.Protein.RotatedTorsions>
[ 6907 6896 6895 6894 ] final   22.59 input  -60.11 | X-H torsion
[ 7974 7965 7964 7962 ] final  115.87 input  175.53 | X-H torsion
[ 8008 7997 7996 7995 ] final -101.00 input   59.86 | X-H torsion
[ 10167 10162 10161 10158 ] final  126.75 input  -65.29 | X-H torsion
[ 10718 10713 10712 10709 ] final -138.56 input   66.30 | X-H torsion
[ 10763 10752 10751 10750 ] final  170.63 input  -60.55 | X-H torsion
[ 11005 11000 10999 10996 ] final -123.95 input  -57.11 | X-H torsion

> <Gold.Protein.ActiveResidues>
 VAL166  LYS551  ARG553  GLY616  TRP617  ASP618  TYR619  PRO620  LYS621  CYS622 
 ASP623  PHE694  ASN695  SER759  ASP760  ASP761  ALA762  ILE779  LEU786  VAL792 
 PHE793  MET794  SER795  GLU796  ALA797  LYS798  CYS799  TRP800  GLU811  SER814 

> <Gold.Protein.RotatedAtoms>
  151.9294  135.0263  160.0527 H   0  0  0  0  0  0  0  0  0  0  0  0  # atno 6907 bound_to 6896
  152.2131  133.4921  159.5129 H   0  0  0  0  0  0  0  0  0  0  0  0  # atno 6908 bound_to 6896
  150.6981  134.1358  159.4129 H   0  0  0  0  0  0  0  0  0  0  0  0  # atno 6909 bound_to 6896
  145.1866  139.3022  143.4390 H   0  0  0  0  0  0  0  0  0  0  0  0  # atno 7974 bound_to 7965
  154.8364  140.0437  157.1512 H   0  0  0  0  0  0  0  0  0  0  0  0  # atno 8008 bound_to 7997
  154.9095  140.3011  155.5253 H   0  0  0  0  0  0  0  0  0  0  0  0  # atno 8009 bound_to 7997
  156.2990  140.2361  156.4133 H   0  0  0  0  0  0  0  0  0  0  0  0  # atno 8010 bound_to 7997
  139.5614  144.6884  151.4031 H   0  0  0  0  0  0  0  0  0  0  0  0  # atno 10167 bound_to 10162
  156.3007  130.7427  151.1478 H   0  0  0  0  0  0  0  0  0  0  0  0  # atno 10718 bound_to 10713
  154.4004  135.2755  155.2100 H   0  0  0  0  0  0  0  0  0  0  0  0  # atno 10763 bound_to 10752
  154.4128  135.6018  153.5967 H   0  0  0  0  0  0  0  0  0  0  0  0  # atno 10764 bound_to 10752
  152.9831  135.5953  154.4271 H   0  0  0  0  0  0  0  0  0  0  0  0  # atno 10765 bound_to 10752
  140.9879  134.0580  157.3689 H   0  0  0  0  0  0  0  0  0  0  0  0  # atno 11005 bound_to 11000
  146.3444  140.2065  142.8589 LP  0  0  0  0  0  0  0  0  0  0  0  0  # atno 17320 bound_to 7965
  145.0082  140.8691  143.5240 LP  0  0  0  0  0  0  0  0  0  0  0  0  # atno 17321 bound_to 7965
  140.6894  143.7896  150.7233 LP  0  0  0  0  0  0  0  0  0  0  0  0  # atno 17342 bound_to 10162
  140.1374  143.4471  152.2215 LP  0  0  0  0  0  0  0  0  0  0  0  0  # atno 17343 bound_to 10162
  157.7367  131.0559  150.5398 LP  0  0  0  0  0  0  0  0  0  0  0  0  # atno 17370 bound_to 10713
  156.5525  130.4235  149.6101 LP  0  0  0  0  0  0  0  0  0  0  0  0  # atno 17371 bound_to 10713
  139.8979  135.0152  156.7122 LP  0  0  0  0  0  0  0  0  0  0  0  0  # atno 17394 bound_to 11000
  140.7086  133.9243  155.8069 LP  0  0  0  0  0  0  0  0  0  0  0  0  # atno 17395 bound_to 11000

$$$$
