AV-unprocessed.smi:3343|AV-procd|sdf|12896|dock9
  -GOLD-   2272019303D 1   1.00000     0.00000
 Structure written by MMmdl.
 42 43  0  0  0  0  0  0  0  0  2 V2000
  143.0082  134.4882  152.2773 C   0  0  0  0  0  0  0  0  0  0  0  0
  144.0459  134.8016  151.1833 C   0  0  1  0  0  0  0  0  0  0  0  0
  145.2798  135.5341  151.7314 C   0  0  0  0  0  0  0  0  0  0  0  0
  146.1542  134.9213  152.3457 O   0  0  0  0  0  0  0  0  0  0  0  0
  145.3390  136.8548  151.4985 N   0  0  0  0  0  0  0  0  0  0  0  0
  146.4244  137.7322  151.9205 C   0  0  0  0  0  0  0  0  0  0  0  0
  146.5152  137.8227  153.4560 C   0  0  0  0  0  0  0  0  0  0  0  0
  147.9132  137.7352  153.9457 N   0  3  0  0  0  0  0  0  0  0  0  0
  148.0331  136.9144  155.1751 C   0  0  0  0  0  0  0  0  0  0  0  0
  149.5124  136.7704  155.5910 C   0  0  0  0  0  0  0  0  0  0  0  0
  150.1568  138.0688  155.7946 N   0  0  0  0  0  0  0  0  0  0  0  0
  149.7019  138.7520  157.0007 C   0  0  0  0  0  0  0  0  0  0  0  0
  150.0264  138.8849  154.5864 C   0  0  0  0  0  0  0  0  0  0  0  0
  148.5547  139.0576  154.1545 C   0  0  0  0  0  0  0  0  0  0  0  0
  144.4510  133.5933  150.4791 N   0  0  0  0  0  0  0  0  0  0  0  0
  143.7290  132.6559  149.8583 C   0  0  0  0  0  0  0  0  0  0  0  0
  144.4540  131.6758  149.3382 N   0  0  0  0  0  0  0  0  0  0  0  0
  145.7014  132.0975  149.7021 C   0  0  0  0  0  0  0  0  0  0  0  0
  145.7552  133.2372  150.3918 N   0  0  0  0  0  0  0  0  0  0  0  0
  142.6995  135.3945  152.7998 H   0  0  0  0  0  0  0  0  0  0  0  0
  143.3974  133.7921  153.0213 H   0  0  0  0  0  0  0  0  0  0  0  0
  142.1130  134.0405  151.8447 H   0  0  0  0  0  0  0  0  0  0  0  0
  143.5642  135.4655  150.4624 H   0  0  0  0  0  0  0  0  0  0  0  0
  144.5828  137.2778  150.9790 H   0  0  0  0  0  0  0  0  0  0  0  0
  147.3696  137.3835  151.5008 H   0  0  0  0  0  0  0  0  0  0  0  0
  146.2340  138.7122  151.4845 H   0  0  0  0  0  0  0  0  0  0  0  0
  146.0511  138.7409  153.8195 H   0  0  0  0  0  0  0  0  0  0  0  0
  145.9423  136.9988  153.8843 H   0  0  0  0  0  0  0  0  0  0  0  0
  147.4380  137.3517  155.9777 H   0  0  0  0  0  0  0  0  0  0  0  0
  147.6216  135.9216  154.9896 H   0  0  0  0  0  0  0  0  0  0  0  0
  149.5967  136.1724  156.4993 H   0  0  0  0  0  0  0  0  0  0  0  0
  150.0578  136.2310  154.8153 H   0  0  0  0  0  0  0  0  0  0  0  0
  150.2559  139.6810  157.1387 H   0  0  0  0  0  0  0  0  0  0  0  0
  149.8811  138.1283  157.8770 H   0  0  0  0  0  0  0  0  0  0  0  0
  148.6405  138.9944  156.9713 H   0  0  0  0  0  0  0  0  0  0  0  0
  150.4921  139.8575  154.7495 H   0  0  0  0  0  0  0  0  0  0  0  0
  150.5873  138.4056  153.7828 H   0  0  0  0  0  0  0  0  0  0  0  0
  148.5314  139.6341  153.2304 H   0  0  0  0  0  0  0  0  0  0  0  0
  147.9949  139.6342  154.8920 H   0  0  0  0  0  0  0  0  0  0  0  0
  142.6515  132.6905  149.7873 H   0  0  0  0  0  0  0  0  0  0  0  0
  146.5965  131.5460  149.4544 H   0  0  0  0  0  0  0  0  0  0  0  0
  148.4435  137.2550  153.2328 H   0  0  0  0  0  0  0  0  0  0  0  0
  1  2  1  0  0  0  0
  1 20  1  0  0  0  0
  1 21  1  0  0  0  0
  1 22  1  0  0  0  0
  2  3  1  0  0  0  0
  2 15  1  0  0  0  0
  2 23  1  0  0  0  0
  3  4  2  0  0  0  0
  3  5  1  0  0  0  0
  5  6  1  0  0  0  0
  5 24  1  0  0  0  0
  6  7  1  0  0  0  0
  6 25  1  0  0  0  0
  6 26  1  0  0  0  0
  7  8  1  0  0  0  0
  7 27  1  0  0  0  0
  7 28  1  0  0  0  0
  8 14  1  0  0  0  0
  8  9  1  0  0  0  0
  8 42  1  0  0  0  0
  9 10  1  0  0  0  0
  9 29  1  0  0  0  0
  9 30  1  0  0  0  0
 10 11  1  0  0  0  0
 10 31  1  0  0  0  0
 10 32  1  0  0  0  0
 11 12  1  0  0  0  0
 11 13  1  0  0  0  0
 12 33  1  0  0  0  0
 12 34  1  0  0  0  0
 12 35  1  0  0  0  0
 13 14  1  0  0  0  0
 13 36  1  0  0  0  0
 13 37  1  0  0  0  0
 14 38  1  0  0  0  0
 14 39  1  0  0  0  0
 15 19  1  0  0  0  0
 15 16  1  0  0  0  0
 16 17  2  0  0  0  0
 16 40  1  0  0  0  0
 17 18  1  0  0  0  0
 18 19  2  0  0  0  0
 18 41  1  0  0  0  0
M  CHG  1   8   1
M  END
> <s_m_source_file>
AV-unprocessed.smi

> <i_m_source_file_index>
3343

> <i_lp_mmshare_version>
43012

> <i_f3d_flags>
0

> <s_epik_input>
bjFbY0hdbltjSF1uMVtDQEhdKFtDSDNdKUMoPU8pW05IXVtDSDJdW0NIMl1OMltDSDJdW0NIMl1OKFtDSDNdKVtDSDJdW0NIMl0y

> <s_epik_cmdline>
J2VwaWtfcHl0aG9uJywgJy1waCcsICc3LjAnLCAnLXRuJywgJzgnLCAnLW1hJywgJzIwMCcsICctbWV0YWxfYmluZGluZycsICctaW1hZScsICc8aW5maWxlLm1hZT4nLCAnLW9tYWUnLCAnPG91dGZpbGUubWFlPic=

> <r_epik_Ionization_Penalty>
0.559944

> <r_epik_Ionization_Penalty_Charging>
0.558624

> <r_epik_Ionization_Penalty_Neutral>
0.00131959

> <r_epik_State_Penalty>
2.08679

> <r_epik_Charging_Adjusted_Penalty>
2.64542

> <i_epik_Tot_Q>
1

> <i_epik_Tot_abs_Q>
1

> <r_epik_Metal_State_Penalty>
2.0868

> <b_epik_Metal_Only>
0

> <s_lp_Force_Field>
OPLS_2005

> <r_lp_Energy>
21.6118

> <b_lp_Chiralities_Consistent>
1

> <s_lp_Variant>
AV-unprocessed.smi:3343-6

> <Gold.Version>
5.8.1

> <Gold.Id.Protein>
6NUR|6NUR_protein|mol2

> <Gold.PLP.Fitness>
42.0902

> <Gold.PLP.PLP>
-28.5509

> <Gold.PLP.part.hbond>
-3.0000

> <Gold.PLP.part.metal>
0.0000

> <Gold.PLP.part.buried>
-3.1894

> <Gold.PLP.part.nonpolar>
-24.4328

> <Gold.PLP.part.repulsive>
1.3899

> <Gold.PLP.ligand.clash>
0.0000

> <Gold.PLP.ligand.torsion>
1.2370

> <Gold.PLP.Chemscore.Hbond>
3.3058

> <Gold.PLP.Chemscore.CHOScore>
2.0000

> <Gold.PLP.Chemscore.Metal>
0.0000

> <Gold.Chemscore.Hbonds>
donor molecule, donor type, donor heavy atom, donor atom, acceptor molecule, acceptor atom, score
      L1  H     5    24       P1 10171  1.00
      L1  H     8    42       P1  7948  2.00
      P1  H 10785 10796       L1    17  0.44
      L1  C    16    40       P1 10186  1.00
      L1  C    18    41       P1 10747  0.86

> <Gold.PLP.Chemscore.Internal.Correction>
0.0961

> <Gold.Rescore>
     Score         DG    S(hbond)    S(metal)    S(lipo)     H(rot)  DE(clash)    DE(int)     intcor
      8.90     -12.89       2.66        0.00      44.96       2.63       1.18       2.81       ----

> <Gold.Chemscore.Fitness>
8.8958

> <Gold.Chemscore.DG>
-12.8885

> <Gold.Chemscore.ZeroCoef>
-5.4800

> <Gold.Chemscore.Hbond>
2.6574

> <Gold.Chemscore.Metal>
0.0000

> <Gold.Chemscore.Lipo>
44.9575

> <Gold.Chemscore.Internal_Hbond>
0.0000

> <Gold.Chemscore.DEClash>
1.1817

> <Gold.Chemscore.DEInternal>
2.8110

> <Gold.Chemscore.Rot>
2.6278

> <Gold.Chemscore.Internal.Correction>
   9.000000E+99

> <Gold.Chemscore.Hbonds>
donor molecule, donor type, donor heavy atom, donor atom, acceptor molecule, acceptor atom, score
      L1  H     5    24       P1 10171  0.97
      L1  H     8    42       P1  7948  1.00
      P1  H 10785 10796       L1    17  0.31

> <Gold.Chemscore.Hbond.Weighted>
-8.8756

> <Gold.Chemscore.Metal.Weighted>
-0.0000

> <Gold.Chemscore.Lipo.Weighted>
-5.2600

> <Gold.Chemscore.Internal_Hbond.Weighted>
0.0000

> <Gold.Chemscore.DEClash.Weighted>
1.1817

> <Gold.Chemscore.DEInternal.Weighted>
2.8110

> <Gold.Chemscore.Rot.Weighted>
6.7271

> <Gold.Chemscore.Internal.Correction.Weighted>
   9.000000E+99

> <Gold.Protein.RotatedTorsions>
[ 6907 6896 6895 6894 ] final   -0.60 input  -60.11 | X-H torsion
[ 7974 7965 7964 7962 ] final  149.08 input  175.53 | X-H torsion
[ 8008 7997 7996 7995 ] final   -8.00 input   59.86 | X-H torsion
[ 10167 10162 10161 10158 ] final -104.88 input  -65.29 | X-H torsion
[ 10718 10713 10712 10709 ] final -129.63 input   66.30 | X-H torsion
[ 10763 10752 10751 10750 ] final  -10.95 input  -60.55 | X-H torsion
[ 11005 11000 10999 10996 ] final  142.03 input  -57.11 | X-H torsion

> <Gold.Protein.ActiveResidues>
 VAL166  LYS551  ARG553  GLY616  TRP617  ASP618  TYR619  PRO620  LYS621  CYS622 
 ASP623  PHE694  ASN695  SER759  ASP760  ASP761  ALA762  ILE779  LEU786  VAL792 
 PHE793  MET794  SER795  GLU796  ALA797  LYS798  CYS799  TRP800  GLU811  SER814 

> <Gold.Protein.RotatedAtoms>
  151.5596  135.1066  159.9969 H   0  0  0  0  0  0  0  0  0  0  0  0  # atno 6907 bound_to 6896
  152.4453  133.7520  159.6710 H   0  0  0  0  0  0  0  0  0  0  0  0  # atno 6908 bound_to 6896
  150.8367  133.7934  159.3100 H   0  0  0  0  0  0  0  0  0  0  0  0  # atno 6909 bound_to 6896
  144.8465  139.6235  143.5993 H   0  0  0  0  0  0  0  0  0  0  0  0  # atno 7974 bound_to 7965
  154.5783  140.2392  155.8090 H   0  0  0  0  0  0  0  0  0  0  0  0  # atno 8008 bound_to 7997
  156.2160  140.3012  155.9798 H   0  0  0  0  0  0  0  0  0  0  0  0  # atno 8009 bound_to 7997
  155.2586  140.0413  157.2985 H   0  0  0  0  0  0  0  0  0  0  0  0  # atno 8010 bound_to 7997
  140.2046  143.3793  152.1101 H   0  0  0  0  0  0  0  0  0  0  0  0  # atno 10167 bound_to 10162
  156.2065  130.6891  151.0601 H   0  0  0  0  0  0  0  0  0  0  0  0  # atno 10718 bound_to 10713
  153.4766  135.7017  153.5962 H   0  0  0  0  0  0  0  0  0  0  0  0  # atno 10763 bound_to 10752
  153.4193  135.3829  155.2101 H   0  0  0  0  0  0  0  0  0  0  0  0  # atno 10764 bound_to 10752
  154.8723  135.3924  154.4211 H   0  0  0  0  0  0  0  0  0  0  0  0  # atno 10765 bound_to 10752
  140.0446  134.9287  157.0905 H   0  0  0  0  0  0  0  0  0  0  0  0  # atno 11005 bound_to 11000
  146.2748  139.6726  142.9270 LP  0  0  0  0  0  0  0  0  0  0  0  0  # atno 17320 bound_to 7965
  145.4587  141.0432  143.2764 LP  0  0  0  0  0  0  0  0  0  0  0  0  # atno 17321 bound_to 7965
  139.5204  144.7032  151.5432 LP  0  0  0  0  0  0  0  0  0  0  0  0  # atno 17342 bound_to 10162
  140.6367  143.8971  150.6653 LP  0  0  0  0  0  0  0  0  0  0  0  0  # atno 17343 bound_to 10162
  157.7015  131.0774  150.6804 LP  0  0  0  0  0  0  0  0  0  0  0  0  # atno 17370 bound_to 10713
  156.6863  130.4582  149.5613 LP  0  0  0  0  0  0  0  0  0  0  0  0  # atno 17371 bound_to 10713
  140.4015  134.2078  155.7163 LP  0  0  0  0  0  0  0  0  0  0  0  0  # atno 17394 bound_to 11000
  141.1900  133.8226  157.0934 LP  0  0  0  0  0  0  0  0  0  0  0  0  # atno 17395 bound_to 11000

$$$$
