AV-unprocessed.smi:1539|AV-procd|sdf|6197|dock9
  -GOLD-   22720 6363D 1   1.00000     0.00000
 Structure written by MMmdl.
 41 42  0  0  0  0  0  0  0  0  1 V2000
  147.8123  139.8346  154.5420 C   0  0  0  0  0  0  0  0  0  0  0  0
  149.3035  140.1196  154.3475 C   0  0  0  0  0  0  0  0  0  0  0  0
  149.6279  141.1926  153.8380 O   0  0  0  0  0  0  0  0  0  0  0  0
  150.2120  139.1870  154.7261 N   0  0  0  0  0  0  0  0  0  0  0  0
  149.8022  137.9347  155.3792 C   0  0  0  0  0  0  0  0  0  0  0  0
  149.6645  138.1143  156.9062 C   0  0  0  0  0  0  0  0  0  0  0  0
  150.9620  138.5996  157.5905 C   0  0  0  0  0  0  0  0  0  0  0  0
  151.3808  139.9218  157.0865 N   0  0  0  0  0  0  0  0  0  0  0  0
  150.9162  141.1132  157.5462 C   0  0  0  0  0  0  0  0  0  0  0  0
  149.8934  141.2248  158.2239 O   0  0  0  0  0  0  0  0  0  0  0  0
  151.6768  142.1743  157.2252 N   0  0  0  0  0  0  0  0  0  0  0  0
  151.4070  143.5510  157.6212 C   0  0  0  0  0  0  0  0  0  0  0  0
  152.5428  144.1174  158.4879 C   0  0  0  0  0  0  0  0  0  0  0  0
  152.7312  143.3358  159.6928 N   0  0  0  0  0  0  0  0  0  0  0  0
  153.7929  142.4898  159.9838 C   0  0  0  0  0  0  0  0  0  0  0  0
  153.5473  141.9667  161.2332 C   0  0  0  0  0  0  0  0  0  0  0  0
  152.3481  142.4754  161.7272 N   0  0  0  0  0  0  0  0  0  0  0  0
  151.9230  143.2784  160.7601 C   0  0  0  0  0  0  0  0  0  0  0  0
  152.3255  139.8456  155.9567 C   0  0  0  0  0  0  0  0  0  0  0  0
  151.6724  139.3623  154.6331 C   0  0  0  0  0  0  0  0  0  0  0  0
  147.5315  138.8863  154.0839 H   0  0  0  0  0  0  0  0  0  0  0  0
  147.2090  140.6167  154.0798 H   0  0  0  0  0  0  0  0  0  0  0  0
  147.5626  139.8029  155.6027 H   0  0  0  0  0  0  0  0  0  0  0  0
  148.8604  137.5726  154.9630 H   0  0  0  0  0  0  0  0  0  0  0  0
  150.5233  137.1434  155.1723 H   0  0  0  0  0  0  0  0  0  0  0  0
  148.8497  138.8066  157.1211 H   0  0  0  0  0  0  0  0  0  0  0  0
  149.3678  137.1620  157.3462 H   0  0  0  0  0  0  0  0  0  0  0  0
  150.8339  138.6158  158.6738 H   0  0  0  0  0  0  0  0  0  0  0  0
  151.7504  137.8660  157.4177 H   0  0  0  0  0  0  0  0  0  0  0  0
  152.5088  142.0107  156.6768 H   0  0  0  0  0  0  0  0  0  0  0  0
  151.2515  144.1723  156.7372 H   0  0  0  0  0  0  0  0  0  0  0  0
  150.4696  143.5657  158.1781 H   0  0  0  0  0  0  0  0  0  0  0  0
  153.4805  144.1290  157.9305 H   0  0  0  0  0  0  0  0  0  0  0  0
  152.3318  145.1481  158.7764 H   0  0  0  0  0  0  0  0  0  0  0  0
  154.6121  142.3351  159.2969 H   0  0  0  0  0  0  0  0  0  0  0  0
  154.1371  141.2698  161.8105 H   0  0  0  0  0  0  0  0  0  0  0  0
  151.0026  143.8397  160.8308 H   0  0  0  0  0  0  0  0  0  0  0  0
  152.8124  140.8050  155.7760 H   0  0  0  0  0  0  0  0  0  0  0  0
  153.1469  139.1787  156.2224 H   0  0  0  0  0  0  0  0  0  0  0  0
  152.1238  138.4111  154.3483 H   0  0  0  0  0  0  0  0  0  0  0  0
  151.9521  140.0299  153.8185 H   0  0  0  0  0  0  0  0  0  0  0  0
  1  2  1  0  0  0  0
  1 21  1  0  0  0  0
  1 22  1  0  0  0  0
  1 23  1  0  0  0  0
  2  3  2  0  0  0  0
  2  4  1  0  0  0  0
  4 20  1  0  0  0  0
  4  5  1  0  0  0  0
  5  6  1  0  0  0  0
  5 24  1  0  0  0  0
  5 25  1  0  0  0  0
  6  7  1  0  0  0  0
  6 26  1  0  0  0  0
  6 27  1  0  0  0  0
  7  8  1  0  0  0  0
  7 28  1  0  0  0  0
  7 29  1  0  0  0  0
  8  9  1  0  0  0  0
  8 19  1  0  0  0  0
  9 10  2  0  0  0  0
  9 11  1  0  0  0  0
 11 12  1  0  0  0  0
 11 30  1  0  0  0  0
 12 13  1  0  0  0  0
 12 31  1  0  0  0  0
 12 32  1  0  0  0  0
 13 14  1  0  0  0  0
 13 33  1  0  0  0  0
 13 34  1  0  0  0  0
 14 18  1  0  0  0  0
 14 15  1  0  0  0  0
 15 16  2  0  0  0  0
 15 35  1  0  0  0  0
 16 17  1  0  0  0  0
 16 36  1  0  0  0  0
 17 18  2  0  0  0  0
 18 37  1  0  0  0  0
 19 20  1  0  0  0  0
 19 38  1  0  0  0  0
 19 39  1  0  0  0  0
 20 40  1  0  0  0  0
 20 41  1  0  0  0  0
M  END
> <s_m_source_file>
AV-unprocessed.smi

> <i_m_source_file_index>
1539

> <i_lp_mmshare_version>
43012

> <i_f3d_flags>
0

> <s_epik_input>
W0NIM11DKD1PKU4xW0NIMl1bQ0gyXVtDSDJdTihbQ0gyXVtDSDJdMSlDKD1PKVtOSF1bQ0gyXVtDSDJdbjJbY0hdW2NIXW5bY0hdMg==

> <s_epik_cmdline>
J2VwaWtfcHl0aG9uJywgJy1waCcsICc3LjAnLCAnLXRuJywgJzgnLCAnLW1hJywgJzIwMCcsICctbWV0YWxfYmluZGluZycsICctaW1hZScsICc8aW5maWxlLm1hZT4nLCAnLW9tYWUnLCAnPG91dGZpbGUubWFlPic=

> <r_lp_tautomer_probability>
1

> <r_epik_Ionization_Penalty>
0.624284

> <r_epik_Ionization_Penalty_Charging>
0.624238

> <r_epik_Ionization_Penalty_Neutral>
4.66445e-05

> <r_epik_State_Penalty>
0.64053

> <r_epik_Charging_Adjusted_Penalty>
1.26477

> <i_epik_Tot_Q>
0

> <i_epik_Tot_abs_Q>
0

> <r_epik_Metal_State_Penalty>
0.307534

> <b_epik_Metal_Only>
0

> <s_lp_Force_Field>
OPLS_2005

> <r_lp_Energy>
41.7081

> <b_lp_Chiralities_Consistent>
1

> <s_lp_Variant>
AV-unprocessed.smi:1539-2

> <Gold.Version>
5.8.1

> <Gold.Id.Protein>
6NUR|6NUR_protein|mol2

> <Gold.PLP.Fitness>
42.5980

> <Gold.PLP.PLP>
-38.4581

> <Gold.PLP.part.hbond>
-3.0000

> <Gold.PLP.part.metal>
0.0000

> <Gold.PLP.part.buried>
-3.4059

> <Gold.PLP.part.nonpolar>
-35.3792

> <Gold.PLP.part.repulsive>
1.3626

> <Gold.PLP.ligand.clash>
0.7276

> <Gold.PLP.ligand.torsion>
0.2788

> <Gold.PLP.Chemscore.Hbond>
1.8034

> <Gold.PLP.Chemscore.CHOScore>
0.0000

> <Gold.PLP.Chemscore.Metal>
0.0000

> <Gold.Chemscore.Hbonds>
donor molecule, donor type, donor heavy atom, donor atom, acceptor molecule, acceptor atom, score
      P1  H  7989  7998       L1     3  0.30
      P1  H  8011  8017       L1     3  0.85

> <Gold.PLP.Chemscore.Internal.Correction>
0.0147

> <Gold.Rescore>
     Score         DG    S(hbond)    S(metal)    S(lipo)     H(rot)  DE(clash)    DE(int)     intcor
     12.78     -13.36       1.06        0.00      73.17       1.65       0.47       0.11       ----

> <Gold.Chemscore.Fitness>
12.7825

> <Gold.Chemscore.DG>
-13.3619

> <Gold.Chemscore.ZeroCoef>
-5.4800

> <Gold.Chemscore.Hbond>
1.0627

> <Gold.Chemscore.Metal>
0.0000

> <Gold.Chemscore.Lipo>
73.1668

> <Gold.Chemscore.Internal_Hbond>
0.0000

> <Gold.Chemscore.DEClash>
0.4727

> <Gold.Chemscore.DEInternal>
0.1067

> <Gold.Chemscore.Rot>
1.6516

> <Gold.Chemscore.Internal.Correction>
   9.000000E+99

> <Gold.Chemscore.Hbonds>
donor molecule, donor type, donor heavy atom, donor atom, acceptor molecule, acceptor atom, score
      P1  H  7989  7998       L1     3  0.10
      P1  H  8011  8017       L1     3  0.84

> <Gold.Chemscore.Hbond.Weighted>
-3.5495

> <Gold.Chemscore.Metal.Weighted>
-0.0000

> <Gold.Chemscore.Lipo.Weighted>
-8.5605

> <Gold.Chemscore.Internal_Hbond.Weighted>
0.0000

> <Gold.Chemscore.DEClash.Weighted>
0.4727

> <Gold.Chemscore.DEInternal.Weighted>
0.1067

> <Gold.Chemscore.Rot.Weighted>
4.2280

> <Gold.Chemscore.Internal.Correction.Weighted>
   9.000000E+99

> <Gold.Protein.RotatedTorsions>
[ 6907 6896 6895 6894 ] final  107.86 input  -60.11 | X-H torsion
[ 7974 7965 7964 7962 ] final   76.29 input  175.53 | X-H torsion
[ 8008 7997 7996 7995 ] final  157.33 input   59.86 | X-H torsion
[ 10167 10162 10161 10158 ] final   46.56 input  -65.29 | X-H torsion
[ 10718 10713 10712 10709 ] final   43.38 input   66.30 | X-H torsion
[ 10763 10752 10751 10750 ] final   53.67 input  -60.55 | X-H torsion
[ 11005 11000 10999 10996 ] final  -87.42 input  -57.11 | X-H torsion

> <Gold.Protein.ActiveResidues>
 VAL166  LYS551  ARG553  GLY616  TRP617  ASP618  TYR619  PRO620  LYS621  CYS622 
 ASP623  PHE694  ASN695  SER759  ASP760  ASP761  ALA762  ILE779  LEU786  VAL792 
 PHE793  MET794  SER795  GLU796  ALA797  LYS798  CYS799  TRP800  GLU811  SER814 

> <Gold.Protein.RotatedAtoms>
  152.5136  133.9172  159.7516 H   0  0  0  0  0  0  0  0  0  0  0  0  # atno 6907 bound_to 6896
  150.9552  133.6497  159.2771 H   0  0  0  0  0  0  0  0  0  0  0  0  # atno 6908 bound_to 6896
  151.3761  135.0936  159.9534 H   0  0  0  0  0  0  0  0  0  0  0  0  # atno 6909 bound_to 6896
  145.7048  139.2594  143.1685 H   0  0  0  0  0  0  0  0  0  0  0  0  # atno 7974 bound_to 7965
  156.2370  140.1888  156.7092 H   0  0  0  0  0  0  0  0  0  0  0  0  # atno 8008 bound_to 7997
  154.6125  140.0620  156.9539 H   0  0  0  0  0  0  0  0  0  0  0  0  # atno 8009 bound_to 7997
  155.1993  140.3291  155.4348 H   0  0  0  0  0  0  0  0  0  0  0  0  # atno 8010 bound_to 7997
  140.3126  144.2801  150.6197 H   0  0  0  0  0  0  0  0  0  0  0  0  # atno 10167 bound_to 10162
  157.4153  130.7937  149.7466 H   0  0  0  0  0  0  0  0  0  0  0  0  # atno 10718 bound_to 10713
  152.9797  135.5771  154.4779 H   0  0  0  0  0  0  0  0  0  0  0  0  # atno 10763 bound_to 10752
  154.4332  135.2774  155.1900 H   0  0  0  0  0  0  0  0  0  0  0  0  # atno 10764 bound_to 10752
  154.3599  135.6191  153.5739 H   0  0  0  0  0  0  0  0  0  0  0  0  # atno 10765 bound_to 10752
  141.1617  133.7510  156.9304 H   0  0  0  0  0  0  0  0  0  0  0  0  # atno 11005 bound_to 11000
  146.0766  140.7811  142.9662 LP  0  0  0  0  0  0  0  0  0  0  0  0  # atno 17320 bound_to 7965
  144.6958  140.3423  143.7197 LP  0  0  0  0  0  0  0  0  0  0  0  0  # atno 17321 bound_to 7965
  140.5554  143.2200  151.7856 LP  0  0  0  0  0  0  0  0  0  0  0  0  # atno 17342 bound_to 10162
  139.4890  144.4420  151.9753 LP  0  0  0  0  0  0  0  0  0  0  0  0  # atno 17343 bound_to 10162
  155.9863  130.3976  150.3219 LP  0  0  0  0  0  0  0  0  0  0  0  0  # atno 17370 bound_to 10713
  157.1361  131.0284  151.2948 LP  0  0  0  0  0  0  0  0  0  0  0  0  # atno 17371 bound_to 10713
  140.1390  134.9306  157.2441 LP  0  0  0  0  0  0  0  0  0  0  0  0  # atno 17394 bound_to 11000
  140.2860  134.3295  155.7329 LP  0  0  0  0  0  0  0  0  0  0  0  0  # atno 17395 bound_to 11000

$$$$
