AV-unprocessed.smi:2699|AV-procd|sdf|10423|dock7
  -GOLD-   2272014463D 1   1.00000     0.00000
 Structure written by MMmdl.
 42 44  0  0  0  0  0  0  0  0  2 V2000
  149.1471  137.0451  155.0863 C   0  0  0  0  0  0  0  0  0  0  0  0
  150.1861  138.0158  155.6362 C   0  0  0  0  0  0  0  0  0  0  0  0
  151.2616  138.3596  154.8942 C   0  0  0  0  0  0  0  0  0  0  0  0
  152.2095  139.2636  155.3556 C   0  0  0  0  0  0  0  0  0  0  0  0
  153.2086  139.5829  154.6742 O   0  5  0  0  0  0  0  0  0  0  0  0
  151.9769  139.7944  156.6177 C   0  0  0  0  0  0  0  0  0  0  0  0
  150.8340  139.4677  157.4618 C   0  0  0  0  0  0  0  0  0  0  0  0
  150.6718  139.9799  158.5708 O   0  0  0  0  0  0  0  0  0  0  0  0
  149.9718  138.5542  156.9333 N   0  0  0  0  0  0  0  0  0  0  0  0
  148.8110  138.1200  157.7444 C   0  0  0  0  0  0  0  0  0  0  0  0
  149.1945  137.2727  158.9745 C   0  0  0  0  0  0  0  0  0  0  0  0
  150.3264  136.8039  159.0858 O   0  0  0  0  0  0  0  0  0  0  0  0
  148.2718  137.0668  159.9269 N   0  0  0  0  0  0  0  0  0  0  0  0
  148.4494  136.2972  161.1541 C   0  0  0  0  0  0  0  0  0  0  0  0
  147.1088  135.7676  161.6954 C   0  0  0  0  0  0  0  0  0  0  0  0
  146.1041  136.9222  161.6473 C   0  0  0  0  0  0  0  0  0  0  0  0
  145.9219  137.8746  162.8047 C   0  0  0  0  0  0  0  0  0  0  0  0
  144.7982  136.9382  162.4076 C   0  0  0  0  0  0  0  0  0  0  0  0
  146.6231  134.4587  161.0376 C   0  0  0  0  0  0  0  0  0  0  0  0
  147.3057  133.6650  162.1505 C   0  0  0  0  0  0  0  0  0  0  0  0
  147.2187  134.9338  162.9970 C   0  0  0  0  0  0  0  0  0  0  0  0
  149.2760  136.9114  154.0119 H   0  0  0  0  0  0  0  0  0  0  0  0
  148.1298  137.4054  155.2361 H   0  0  0  0  0  0  0  0  0  0  0  0
  149.2523  136.0663  155.5546 H   0  0  0  0  0  0  0  0  0  0  0  0
  151.3839  137.9214  153.9139 H   0  0  0  0  0  0  0  0  0  0  0  0
  152.6882  140.5044  157.0148 H   0  0  0  0  0  0  0  0  0  0  0  0
  148.2089  138.9684  158.0646 H   0  0  0  0  0  0  0  0  0  0  0  0
  148.1222  137.5417  157.1266 H   0  0  0  0  0  0  0  0  0  0  0  0
  147.3616  137.4805  159.7856 H   0  0  0  0  0  0  0  0  0  0  0  0
  149.1337  135.4681  160.9672 H   0  0  0  0  0  0  0  0  0  0  0  0
  148.9364  136.9344  161.8934 H   0  0  0  0  0  0  0  0  0  0  0  0
  146.0374  137.3713  160.6577 H   0  0  0  0  0  0  0  0  0  0  0  0
  146.4505  137.6594  163.7314 H   0  0  0  0  0  0  0  0  0  0  0  0
  145.8069  138.9305  162.5691 H   0  0  0  0  0  0  0  0  0  0  0  0
  143.9366  137.3774  161.9088 H   0  0  0  0  0  0  0  0  0  0  0  0
  144.5679  136.1121  163.0755 H   0  0  0  0  0  0  0  0  0  0  0  0
  145.5375  134.3477  161.0572 H   0  0  0  0  0  0  0  0  0  0  0  0
  147.0192  134.2722  160.0388 H   0  0  0  0  0  0  0  0  0  0  0  0
  146.7289  132.8212  162.5296 H   0  0  0  0  0  0  0  0  0  0  0  0
  148.3308  133.3811  161.9077 H   0  0  0  0  0  0  0  0  0  0  0  0
  148.1084  135.1319  163.5956 H   0  0  0  0  0  0  0  0  0  0  0  0
  146.3251  134.9444  163.6202 H   0  0  0  0  0  0  0  0  0  0  0  0
  1  2  1  0  0  0  0
  1 22  1  0  0  0  0
  1 23  1  0  0  0  0
  1 24  1  0  0  0  0
  2  9  1  0  0  0  0
  2  3  2  0  0  0  0
  3  4  1  0  0  0  0
  3 25  1  0  0  0  0
  4  5  1  0  0  0  0
  4  6  2  0  0  0  0
  6  7  1  0  0  0  0
  6 26  1  0  0  0  0
  7  8  2  0  0  0  0
  7  9  1  0  0  0  0
  9 10  1  0  0  0  0
 10 11  1  0  0  0  0
 10 27  1  0  0  0  0
 10 28  1  0  0  0  0
 11 12  2  0  0  0  0
 11 13  1  0  0  0  0
 13 14  1  0  0  0  0
 13 29  1  0  0  0  0
 14 15  1  0  0  0  0
 14 30  1  0  0  0  0
 14 31  1  0  0  0  0
 15 21  1  0  0  0  0
 15 16  1  0  0  0  0
 15 19  1  0  0  0  0
 16 18  1  0  0  0  0
 16 17  1  0  0  0  0
 16 32  1  0  0  0  0
 17 18  1  0  0  0  0
 17 33  1  0  0  0  0
 17 34  1  0  0  0  0
 18 35  1  0  0  0  0
 18 36  1  0  0  0  0
 19 20  1  0  0  0  0
 19 37  1  0  0  0  0
 19 38  1  0  0  0  0
 20 21  1  0  0  0  0
 20 39  1  0  0  0  0
 20 40  1  0  0  0  0
 21 41  1  0  0  0  0
 21 42  1  0  0  0  0
M  CHG  1   5  -1
M  END
> <s_m_source_file>
AV-unprocessed.smi

> <i_m_source_file_index>
2699

> <i_lp_mmshare_version>
43012

> <i_f3d_flags>
0

> <s_epik_input>
W0NIM11jMVtjSF1jKFtPSF0pW2NIXWMoPU8pbjFbQ0gyXUMoPU8pW05IXVtDSDJdQzIoW0NIXTNbQ0gyXVtDSDJdMylbQ0gyXVtDSDJdW0NIMl0y

> <s_epik_cmdline>
J2VwaWtfcHl0aG9uJywgJy1waCcsICc3LjAnLCAnLXRuJywgJzgnLCAnLW1hJywgJzIwMCcsICctbWV0YWxfYmluZGluZycsICctaW1hZScsICc8aW5maWxlLm1hZT4nLCAnLW9tYWUnLCAnPG91dGZpbGUubWFlPic=

> <r_lp_tautomer_probability>
1

> <r_epik_Ionization_Penalty>
0.201472

> <r_epik_Ionization_Penalty_Charging>
0.201472

> <r_epik_Ionization_Penalty_Neutral>
1.82775e-08

> <r_epik_State_Penalty>
0.183831

> <r_epik_Charging_Adjusted_Penalty>
0.385303

> <i_epik_Tot_Q>
-1

> <i_epik_Tot_abs_Q>
1

> <r_epik_Metal_State_Penalty>
0.183831

> <b_epik_Metal_Only>
0

> <s_lp_Force_Field>
OPLS_2005

> <r_lp_Energy>
45.0719

> <b_lp_Chiralities_Consistent>
1

> <s_lp_Variant>
AV-unprocessed.smi:2699-1

> <Gold.Version>
5.8.1

> <Gold.Id.Protein>
6NUR|6NUR_protein|mol2

> <Gold.PLP.Fitness>
43.1824

> <Gold.PLP.PLP>
-35.2034

> <Gold.PLP.part.hbond>
-3.0000

> <Gold.PLP.part.metal>
0.0000

> <Gold.PLP.part.buried>
-4.1712

> <Gold.PLP.part.nonpolar>
-28.0458

> <Gold.PLP.part.repulsive>
0.2454

> <Gold.PLP.ligand.clash>
0.0000

> <Gold.PLP.ligand.torsion>
1.3669

> <Gold.PLP.Chemscore.Hbond>
3.0004

> <Gold.PLP.Chemscore.CHOScore>
0.0000

> <Gold.PLP.Chemscore.Metal>
0.0000

> <Gold.Chemscore.Hbonds>
donor molecule, donor type, donor heavy atom, donor atom, acceptor molecule, acceptor atom, score
      P1  H  6896  6909       L1    12  0.94
      P1  H  7989  7998       L1     5  0.02
      P1  H  7997  8010       L1     5  2.00

> <Gold.PLP.Chemscore.Internal.Correction>
1.7117

> <Gold.Rescore>
     Score         DG    S(hbond)    S(metal)    S(lipo)     H(rot)  DE(clash)    DE(int)     intcor
     16.21     -17.72       1.92        0.00      87.29       1.71       0.01       1.50       ----

> <Gold.Chemscore.Fitness>
16.2102

> <Gold.Chemscore.DG>
-17.7218

> <Gold.Chemscore.ZeroCoef>
-5.4800

> <Gold.Chemscore.Hbond>
1.9175

> <Gold.Chemscore.Metal>
0.0000

> <Gold.Chemscore.Lipo>
87.2947

> <Gold.Chemscore.Internal_Hbond>
0.0000

> <Gold.Chemscore.DEClash>
0.0087

> <Gold.Chemscore.DEInternal>
1.5029

> <Gold.Chemscore.Rot>
1.7094

> <Gold.Chemscore.Internal.Correction>
   9.000000E+99

> <Gold.Chemscore.Hbonds>
donor molecule, donor type, donor heavy atom, donor atom, acceptor molecule, acceptor atom, score
      P1  H  6896  6909       L1    12  0.90
      P1  H  7997  8010       L1     5  0.95

> <Gold.Chemscore.Hbond.Weighted>
-6.4044

> <Gold.Chemscore.Metal.Weighted>
-0.0000

> <Gold.Chemscore.Lipo.Weighted>
-10.2135

> <Gold.Chemscore.Internal_Hbond.Weighted>
0.0000

> <Gold.Chemscore.DEClash.Weighted>
0.0087

> <Gold.Chemscore.DEInternal.Weighted>
1.5029

> <Gold.Chemscore.Rot.Weighted>
4.3760

> <Gold.Chemscore.Internal.Correction.Weighted>
   9.000000E+99

> <Gold.Protein.RotatedTorsions>
[ 6907 6896 6895 6894 ] final   78.48 input  -60.11 | X-H torsion
[ 7974 7965 7964 7962 ] final  178.49 input  175.53 | X-H torsion
[ 8008 7997 7996 7995 ] final  128.69 input   59.86 | X-H torsion
[ 10167 10162 10161 10158 ] final   50.39 input  -65.29 | X-H torsion
[ 10718 10713 10712 10709 ] final  104.95 input   66.30 | X-H torsion
[ 10763 10752 10751 10750 ] final  -53.76 input  -60.55 | X-H torsion
[ 11005 11000 10999 10996 ] final  112.34 input  -57.11 | X-H torsion

> <Gold.Protein.ActiveResidues>
 VAL166  LYS551  ARG553  GLY616  TRP617  ASP618  TYR619  PRO620  LYS621  CYS622 
 ASP623  PHE694  ASN695  SER759  ASP760  ASP761  ALA762  ILE779  LEU786  VAL792 
 PHE793  MET794  SER795  GLU796  ALA797  LYS798  CYS799  TRP800  GLU811  SER814 

> <Gold.Protein.RotatedAtoms>
  152.5161  134.3657  159.9300 H   0  0  0  0  0  0  0  0  0  0  0  0  # atno 6907 bound_to 6896
  151.3610  133.3883  159.2697 H   0  0  0  0  0  0  0  0  0  0  0  0  # atno 6908 bound_to 6896
  150.9652  134.9053  159.7813 H   0  0  0  0  0  0  0  0  0  0  0  0  # atno 6909 bound_to 6896
  144.7155  140.0405  143.6437 H   0  0  0  0  0  0  0  0  0  0  0  0  # atno 7974 bound_to 7965
  156.2920  140.2639  156.2476 H   0  0  0  0  0  0  0  0  0  0  0  0  # atno 8008 bound_to 7997
  154.9914  140.0388  157.2339 H   0  0  0  0  0  0  0  0  0  0  0  0  # atno 8009 bound_to 7997
  154.7682  140.2773  155.6164 H   0  0  0  0  0  0  0  0  0  0  0  0  # atno 8010 bound_to 7997
  140.2729  144.3244  150.6285 H   0  0  0  0  0  0  0  0  0  0  0  0  # atno 10167 bound_to 10162
  157.6723  131.0816  150.5783 H   0  0  0  0  0  0  0  0  0  0  0  0  # atno 10718 bound_to 10713
  154.1640  135.6470  153.4993 H   0  0  0  0  0  0  0  0  0  0  0  0  # atno 10763 bound_to 10752
  153.0102  135.5367  154.6681 H   0  0  0  0  0  0  0  0  0  0  0  0  # atno 10764 bound_to 10752
  154.6002  135.2943  155.0515 H   0  0  0  0  0  0  0  0  0  0  0  0  # atno 10765 bound_to 10752
  139.8925  134.9528  156.6571 H   0  0  0  0  0  0  0  0  0  0  0  0  # atno 11005 bound_to 11000
  146.0027  139.3104  143.0918 LP  0  0  0  0  0  0  0  0  0  0  0  0  # atno 17320 bound_to 7965
  145.8774  140.9383  143.0619 LP  0  0  0  0  0  0  0  0  0  0  0  0  # atno 17321 bound_to 7965
  140.5875  143.2169  151.7315 LP  0  0  0  0  0  0  0  0  0  0  0  0  # atno 17342 bound_to 10162
  139.4984  144.3989  152.0202 LP  0  0  0  0  0  0  0  0  0  0  0  0  # atno 17343 bound_to 10162
  156.6084  130.4373  149.5869 LP  0  0  0  0  0  0  0  0  0  0  0  0  # atno 17370 bound_to 10713
  156.2450  130.6874  151.1592 LP  0  0  0  0  0  0  0  0  0  0  0  0  # atno 17371 bound_to 10713
  140.7476  133.8925  155.8323 LP  0  0  0  0  0  0  0  0  0  0  0  0  # atno 17394 bound_to 11000
  141.0027  134.1128  157.4301 LP  0  0  0  0  0  0  0  0  0  0  0  0  # atno 17395 bound_to 11000

$$$$
