AV-unprocessed.smi:1669|AV-procd|sdf|6692|dock3
  -GOLD-   22720 7423D 1   1.00000     0.00000
 Structure written by MMmdl.
 49 51  0  0  0  0  0  0  0  0  3 V2000
  143.6633  140.2030  155.8388 C   0  0  0  0  0  0  0  0  0  0  0  0
  144.2148  139.1435  154.9617 N   0  3  2  0  0  0  0  0  0  0  0  0
  143.6747  137.7971  155.2829 C   0  0  0  0  0  0  0  0  0  0  0  0
  142.2042  137.6788  154.9262 C   0  0  0  0  0  0  0  0  0  0  0  0
  141.8018  137.7357  153.5749 C   0  0  0  0  0  0  0  0  0  0  0  0
  140.4385  137.6281  153.2375 C   0  0  0  0  0  0  0  0  0  0  0  0
  139.4733  137.4618  154.2493 C   0  0  0  0  0  0  0  0  0  0  0  0
  139.8714  137.4022  155.5988 C   0  0  0  0  0  0  0  0  0  0  0  0
  141.2344  137.5091  155.9373 C   0  0  0  0  0  0  0  0  0  0  0  0
  145.6987  139.1771  154.9105 C   0  0  0  0  0  0  0  0  0  0  0  0
  146.2443  138.7684  153.5276 C   0  0  1  0  0  0  0  0  0  0  0  0
  145.1662  138.3176  152.7310 O   0  0  0  0  0  0  0  0  0  0  0  0
  146.9443  139.9459  152.8204 C   0  0  0  0  0  0  0  0  0  0  0  0
  147.6868  140.8149  153.7468 N   0  0  0  0  0  0  0  0  0  0  0  0
  147.4107  142.0756  154.1911 C   0  0  0  0  0  0  0  0  0  0  0  0
  146.2277  142.9129  153.8198 C   0  0  0  0  0  0  0  0  0  0  0  0
  144.9971  142.3444  154.2148 O   0  0  0  0  0  0  0  0  0  0  0  0
  148.4169  142.4298  155.0413 N   0  3  0  0  0  0  0  0  0  0  0  0
  149.3388  141.3881  155.1466 C   0  0  0  0  0  0  0  0  0  0  0  0
  150.5134  141.2809  155.8846 C   0  0  0  0  0  0  0  0  0  0  0  0
  151.2248  140.0686  155.7688 C   0  0  0  0  0  0  0  0  0  0  0  0
  150.7627  139.0219  154.9443 C   0  0  0  0  0  0  0  0  0  0  0  0
  149.5706  139.1429  154.1997 C   0  0  0  0  0  0  0  0  0  0  0  0
  148.8742  140.3452  154.3197 C   0  0  0  0  0  0  0  0  0  0  0  0
  143.9640  140.0476  156.8757 H   0  0  0  0  0  0  0  0  0  0  0  0
  142.5744  140.2243  155.7971 H   0  0  0  0  0  0  0  0  0  0  0  0
  144.0159  141.1860  155.5246 H   0  0  0  0  0  0  0  0  0  0  0  0
  144.2077  137.0249  154.7283 H   0  0  0  0  0  0  0  0  0  0  0  0
  143.8321  137.5725  156.3391 H   0  0  0  0  0  0  0  0  0  0  0  0
  142.5371  137.8640  152.7938 H   0  0  0  0  0  0  0  0  0  0  0  0
  140.1326  137.6726  152.2025 H   0  0  0  0  0  0  0  0  0  0  0  0
  138.4278  137.3797  153.9905 H   0  0  0  0  0  0  0  0  0  0  0  0
  139.1307  137.2740  156.3745 H   0  0  0  0  0  0  0  0  0  0  0  0
  141.5312  137.4624  156.9750 H   0  0  0  0  0  0  0  0  0  0  0  0
  146.0599  140.1811  155.1401 H   0  0  0  0  0  0  0  0  0  0  0  0
  146.0985  138.5273  155.6907 H   0  0  0  0  0  0  0  0  0  0  0  0
  146.9515  137.9456  153.6258 H   0  0  0  0  0  0  0  0  0  0  0  0
  144.4490  138.9269  152.8226 H   0  0  0  0  0  0  0  0  0  0  0  0
  147.6497  139.5755  152.0754 H   0  0  0  0  0  0  0  0  0  0  0  0
  146.2229  140.5594  152.2791 H   0  0  0  0  0  0  0  0  0  0  0  0
  146.3234  143.8963  154.2802 H   0  0  0  0  0  0  0  0  0  0  0  0
  146.2193  143.0596  152.7396 H   0  0  0  0  0  0  0  0  0  0  0  0
  144.8722  141.5362  153.7404 H   0  0  0  0  0  0  0  0  0  0  0  0
  150.8684  142.0809  156.5179 H   0  0  0  0  0  0  0  0  0  0  0  0
  152.1423  139.9385  156.3247 H   0  0  0  0  0  0  0  0  0  0  0  0
  151.3340  138.1068  154.8829 H   0  0  0  0  0  0  0  0  0  0  0  0
  149.2255  138.3344  153.5727 H   0  0  0  0  0  0  0  0  0  0  0  0
  143.9058  139.3663  154.0260 H   0  0  0  0  0  0  0  0  0  0  0  0
  148.4617  143.3233  155.5148 H   0  0  0  0  0  0  0  0  0  0  0  0
  1  2  1  0  0  0  0
  1 25  1  0  0  0  0
  1 26  1  0  0  0  0
  1 27  1  0  0  0  0
  2  3  1  0  0  0  0
  2 10  1  0  0  0  0
  2 48  1  0  0  0  0
  3  4  1  0  0  0  0
  3 28  1  0  0  0  0
  3 29  1  0  0  0  0
  4  9  1  0  0  0  0
  4  5  2  0  0  0  0
  5  6  1  0  0  0  0
  5 30  1  0  0  0  0
  6  7  2  0  0  0  0
  6 31  1  0  0  0  0
  7  8  1  0  0  0  0
  7 32  1  0  0  0  0
  8  9  2  0  0  0  0
  8 33  1  0  0  0  0
  9 34  1  0  0  0  0
 10 11  1  0  0  0  0
 10 35  1  0  0  0  0
 10 36  1  0  0  0  0
 11 12  1  0  0  0  0
 11 13  1  0  0  0  0
 11 37  1  0  0  0  0
 12 38  1  0  0  0  0
 13 14  1  0  0  0  0
 13 39  1  0  0  0  0
 13 40  1  0  0  0  0
 14 24  1  0  0  0  0
 14 15  1  0  0  0  0
 15 16  1  0  0  0  0
 15 18  2  0  0  0  0
 16 17  1  0  0  0  0
 16 41  1  0  0  0  0
 16 42  1  0  0  0  0
 17 43  1  0  0  0  0
 18 19  1  0  0  0  0
 18 49  1  0  0  0  0
 19 24  2  0  0  0  0
 19 20  1  0  0  0  0
 20 21  2  0  0  0  0
 20 44  1  0  0  0  0
 21 22  1  0  0  0  0
 21 45  1  0  0  0  0
 22 23  2  0  0  0  0
 22 46  1  0  0  0  0
 23 24  1  0  0  0  0
 23 47  1  0  0  0  0
M  CHG  1   2   1
M  CHG  1  18   1
M  END
> <s_m_source_file>
AV-unprocessed.smi

> <i_m_source_file_index>
1669

> <i_lp_mmshare_version>
43012

> <i_f3d_flags>
0

> <s_epik_input>
W2NIXTFbY0hdW2NIXVtjSF1bY0hdYzFbQ0gyXU4oW0NIM10pW0NIMl1bQ0BIXShbT0hdKVtDSDJdbihjKG4yKVtDSDJdW09IXSljKGMyMylbY0hdW2NIXVtjSF1bY0hdMw==

> <s_epik_cmdline>
J2VwaWtfcHl0aG9uJywgJy1waCcsICc3LjAnLCAnLXRuJywgJzgnLCAnLW1hJywgJzIwMCcsICctbWV0YWxfYmluZGluZycsICctaW1hZScsICc8aW5maWxlLm1hZT4nLCAnLW9tYWUnLCAnPG91dGZpbGUubWFlPic=

> <r_epik_Ionization_Penalty>
1.57484

> <r_epik_Ionization_Penalty_Charging>
1.57398

> <r_epik_Ionization_Penalty_Neutral>
0.000858917

> <r_epik_State_Penalty>
1.64997

> <r_epik_Charging_Adjusted_Penalty>
3.22395

> <i_epik_Tot_Q>
2

> <i_epik_Tot_abs_Q>
2

> <r_epik_Metal_State_Penalty>
5.70481

> <b_epik_Metal_Only>
0

> <s_lp_Force_Field>
OPLS_2005

> <r_lp_Energy>
22.4556

> <b_lp_Chiralities_Consistent>
1

> <s_lp_Variant>
AV-unprocessed.smi:1669-10

> <Gold.Version>
5.8.1

> <Gold.Id.Protein>
6NUR|6NUR_protein|mol2

> <Gold.PLP.Fitness>
57.2567

> <Gold.PLP.PLP>
-42.7115

> <Gold.PLP.part.hbond>
-4.8955

> <Gold.PLP.part.metal>
0.0000

> <Gold.PLP.part.buried>
-2.8272

> <Gold.PLP.part.nonpolar>
-36.7753

> <Gold.PLP.part.repulsive>
0.1835

> <Gold.PLP.ligand.clash>
0.0000

> <Gold.PLP.ligand.torsion>
1.6144

> <Gold.PLP.Chemscore.Hbond>
5.7336

> <Gold.PLP.Chemscore.CHOScore>
0.0000

> <Gold.PLP.Chemscore.Metal>
0.0000

> <Gold.Chemscore.Hbonds>
donor molecule, donor type, donor heavy atom, donor atom, acceptor molecule, acceptor atom, score
      L1  H     2    48       P1 10175  2.00
      L1  H    12    38       P1 10175  1.00
      L1  H    17    43       P1 10175  0.76
      L1  H    18    49       P1  8028  1.59

> <Gold.PLP.Chemscore.Internal.Correction>
0.5732

> <Gold.Rescore>
     Score         DG    S(hbond)    S(metal)    S(lipo)     H(rot)  DE(clash)    DE(int)     intcor
     14.92     -18.12       3.02        0.00      93.31       3.27       0.38       2.82       ----

> <Gold.Chemscore.Fitness>
14.9185

> <Gold.Chemscore.DG>
-18.1191

> <Gold.Chemscore.ZeroCoef>
-5.4800

> <Gold.Chemscore.Hbond>
3.0233

> <Gold.Chemscore.Metal>
0.0000

> <Gold.Chemscore.Lipo>
93.3076

> <Gold.Chemscore.Internal_Hbond>
0.0000

> <Gold.Chemscore.DEClash>
0.3778

> <Gold.Chemscore.DEInternal>
2.8228

> <Gold.Chemscore.Rot>
3.2718

> <Gold.Chemscore.Internal.Correction>
   9.000000E+99

> <Gold.Chemscore.Hbonds>
donor molecule, donor type, donor heavy atom, donor atom, acceptor molecule, acceptor atom, score
      L1  H     2    48       P1 10175  0.98
      L1  H    12    38       P1 10175  0.96
      L1  H    17    43       P1 10175  0.12
      L1  H    18    49       P1  8028  0.76

> <Gold.Chemscore.Hbond.Weighted>
-10.0980

> <Gold.Chemscore.Metal.Weighted>
-0.0000

> <Gold.Chemscore.Lipo.Weighted>
-10.9170

> <Gold.Chemscore.Internal_Hbond.Weighted>
0.0000

> <Gold.Chemscore.DEClash.Weighted>
0.3778

> <Gold.Chemscore.DEInternal.Weighted>
2.8228

> <Gold.Chemscore.Rot.Weighted>
8.3759

> <Gold.Chemscore.Internal.Correction.Weighted>
   9.000000E+99

> <Gold.Protein.RotatedTorsions>
[ 6907 6896 6895 6894 ] final  133.56 input  -60.11 | X-H torsion
[ 7974 7965 7964 7962 ] final -166.37 input  175.53 | X-H torsion
[ 8008 7997 7996 7995 ] final  -94.26 input   59.86 | X-H torsion
[ 10167 10162 10161 10158 ] final   73.86 input  -65.29 | X-H torsion
[ 10718 10713 10712 10709 ] final  130.23 input   66.30 | X-H torsion
[ 10763 10752 10751 10750 ] final   59.93 input  -60.55 | X-H torsion
[ 11005 11000 10999 10996 ] final   37.95 input  -57.11 | X-H torsion

> <Gold.Protein.ActiveResidues>
 VAL166  LYS551  ARG553  GLY616  TRP617  ASP618  TYR619  PRO620  LYS621  CYS622 
 ASP623  PHE694  ASN695  SER759  ASP760  ASP761  ALA762  ILE779  LEU786  VAL792 
 PHE793  MET794  SER795  GLU796  ALA797  LYS798  CYS799  TRP800  GLU811  SER814 

> <Gold.Protein.RotatedAtoms>
  152.3207  133.5850  159.5742 H   0  0  0  0  0  0  0  0  0  0  0  0  # atno 6907 bound_to 6896
  150.7370  134.0016  159.3649 H   0  0  0  0  0  0  0  0  0  0  0  0  # atno 6908 bound_to 6896
  151.7900  135.0739  160.0437 H   0  0  0  0  0  0  0  0  0  0  0  0  # atno 6909 bound_to 6896
  144.7247  140.2677  143.6255 H   0  0  0  0  0  0  0  0  0  0  0  0  # atno 7974 bound_to 7965
  154.7462  140.0491  157.0854 H   0  0  0  0  0  0  0  0  0  0  0  0  # atno 8008 bound_to 7997
  155.0116  140.3136  155.4808 H   0  0  0  0  0  0  0  0  0  0  0  0  # atno 8009 bound_to 7997
  156.2875  140.2183  156.5230 H   0  0  0  0  0  0  0  0  0  0  0  0  # atno 8010 bound_to 7997
  140.0199  144.5549  150.7590 H   0  0  0  0  0  0  0  0  0  0  0  0  # atno 10167 bound_to 10162
  157.5081  131.1096  150.9332 H   0  0  0  0  0  0  0  0  0  0  0  0  # atno 10718 bound_to 10713
  152.9907  135.5554  154.5793 H   0  0  0  0  0  0  0  0  0  0  0  0  # atno 10763 bound_to 10752
  154.5177  135.2806  155.1291 H   0  0  0  0  0  0  0  0  0  0  0  0  # atno 10764 bound_to 10752
  154.2657  135.6372  153.5344 H   0  0  0  0  0  0  0  0  0  0  0  0  # atno 10765 bound_to 10752
  140.2174  134.3682  155.8020 H   0  0  0  0  0  0  0  0  0  0  0  0  # atno 11005 bound_to 11000
  145.8074  139.1989  143.2013 LP  0  0  0  0  0  0  0  0  0  0  0  0  # atno 17320 bound_to 7965
  146.0625  140.7955  142.9728 LP  0  0  0  0  0  0  0  0  0  0  0  0  # atno 17321 bound_to 7965
  140.7347  143.2732  151.3824 LP  0  0  0  0  0  0  0  0  0  0  0  0  # atno 17342 bound_to 10162
  139.6147  144.1027  152.2334 LP  0  0  0  0  0  0  0  0  0  0  0  0  # atno 17343 bound_to 10162
  156.9982  130.5589  149.5309 LP  0  0  0  0  0  0  0  0  0  0  0  0  # atno 17370 bound_to 10713
  156.0271  130.5364  150.8436 LP  0  0  0  0  0  0  0  0  0  0  0  0  # atno 17371 bound_to 10713
  141.2224  133.7175  156.8519 LP  0  0  0  0  0  0  0  0  0  0  0  0  # atno 17394 bound_to 11000
  140.1886  134.8982  157.3033 LP  0  0  0  0  0  0  0  0  0  0  0  0  # atno 17395 bound_to 11000

$$$$
