AV-unprocessed.smi:2001|AV-procd|sdf|8104|dock2
  -GOLD-   2272010333D 1   1.00000     0.00000
 Structure written by MMmdl.
 50 51  0  0  0  0  0  0  0  0  1 V2000
  149.5592  141.4908  154.8433 C   0  0  0  0  0  0  0  0  0  0  0  0
  150.7161  140.7340  155.1539 O   0  0  0  0  0  0  0  0  0  0  0  0
  151.5160  141.3499  156.1488 C   0  0  0  0  0  0  0  0  0  0  0  0
  150.6514  141.6067  157.3919 C   0  0  0  0  0  0  0  0  0  0  0  0
  151.4604  142.0643  158.5263 N   0  0  0  0  0  0  0  0  0  0  0  0
  152.4085  141.1481  158.9505 N   0  0  0  0  0  0  0  0  0  0  0  0
  153.1890  141.4326  159.9427 C   0  0  0  0  0  0  0  0  0  0  0  0
  154.2273  140.4797  160.4243 C   0  0  0  0  0  0  0  0  0  0  0  0
  155.3980  140.8252  160.5927 O   0  0  0  0  0  0  0  0  0  0  0  0
  153.7978  139.2257  160.6557 N   0  0  0  0  0  0  0  0  0  0  0  0
  154.6372  138.1200  161.1010 C   0  0  0  0  0  0  0  0  0  0  0  0
  154.0534  137.4311  162.3491 C   0  0  0  0  0  0  0  0  0  0  0  0
  154.6672  136.1471  162.6817 N   0  0  0  0  0  0  0  0  0  0  0  0
  154.6957  135.2252  161.5483 C   0  0  0  0  0  0  0  0  0  0  0  0
  155.3212  133.8612  161.9056 C   0  0  1  0  0  0  0  0  0  0  0  0
  156.8509  133.9150  162.0586 C   0  0  0  0  0  0  0  0  0  0  0  0
  154.6916  133.3135  163.0652 O   0  0  0  0  0  0  0  0  0  0  0  0
  154.6422  134.1803  164.1971 C   0  0  2  0  0  0  0  0  0  0  0  0
  153.8738  133.4652  165.3132 C   0  0  0  0  0  0  0  0  0  0  0  0
  153.9759  135.5080  163.7940 C   0  0  0  0  0  0  0  0  0  0  0  0
  153.0837  142.7086  160.6303 C   0  0  0  0  0  0  0  0  0  0  0  0
  152.1496  143.5892  160.2091 C   0  0  0  0  0  0  0  0  0  0  0  0
  151.2542  143.2926  159.0901 C   0  0  0  0  0  0  0  0  0  0  0  0
  150.3918  144.0753  158.6927 O   0  0  0  0  0  0  0  0  0  0  0  0
  148.9799  140.9769  154.0763 H   0  0  0  0  0  0  0  0  0  0  0  0
  149.8243  142.4769  154.4598 H   0  0  0  0  0  0  0  0  0  0  0  0
  148.9221  141.6149  155.7199 H   0  0  0  0  0  0  0  0  0  0  0  0
  152.3599  140.7046  156.3982 H   0  0  0  0  0  0  0  0  0  0  0  0
  151.9201  142.2910  155.7718 H   0  0  0  0  0  0  0  0  0  0  0  0
  149.8890  142.3511  157.1551 H   0  0  0  0  0  0  0  0  0  0  0  0
  150.1004  140.7026  157.6577 H   0  0  0  0  0  0  0  0  0  0  0  0
  152.8215  139.0230  160.4950 H   0  0  0  0  0  0  0  0  0  0  0  0
  154.7132  137.4175  160.2718 H   0  0  0  0  0  0  0  0  0  0  0  0
  155.6481  138.4791  161.3007 H   0  0  0  0  0  0  0  0  0  0  0  0
  154.1846  138.1058  163.1962 H   0  0  0  0  0  0  0  0  0  0  0  0
  152.9758  137.3074  162.2310 H   0  0  0  0  0  0  0  0  0  0  0  0
  153.6780  135.0623  161.1903 H   0  0  0  0  0  0  0  0  0  0  0  0
  155.2485  135.6578  160.7154 H   0  0  0  0  0  0  0  0  0  0  0  0
  155.1087  133.1713  161.0884 H   0  0  0  0  0  0  0  0  0  0  0  0
  157.3224  134.2283  161.1270 H   0  0  0  0  0  0  0  0  0  0  0  0
  157.2506  132.9343  162.3171 H   0  0  0  0  0  0  0  0  0  0  0  0
  157.1618  134.6169  162.8321 H   0  0  0  0  0  0  0  0  0  0  0  0
  155.6557  134.3740  164.5497 H   0  0  0  0  0  0  0  0  0  0  0  0
  153.8171  134.0844  166.2087 H   0  0  0  0  0  0  0  0  0  0  0  0
  154.3638  132.5304  165.5865 H   0  0  0  0  0  0  0  0  0  0  0  0
  152.8555  133.2297  165.0031 H   0  0  0  0  0  0  0  0  0  0  0  0
  153.9654  136.1776  164.6547 H   0  0  0  0  0  0  0  0  0  0  0  0
  152.9335  135.3285  163.5260 H   0  0  0  0  0  0  0  0  0  0  0  0
  153.7312  142.9543  161.4594 H   0  0  0  0  0  0  0  0  0  0  0  0
  152.0593  144.5411  160.7117 H   0  0  0  0  0  0  0  0  0  0  0  0
  1  2  1  0  0  0  0
  1 25  1  0  0  0  0
  1 26  1  0  0  0  0
  1 27  1  0  0  0  0
  2  3  1  0  0  0  0
  3  4  1  0  0  0  0
  3 28  1  0  0  0  0
  3 29  1  0  0  0  0
  4  5  1  0  0  0  0
  4 30  1  0  0  0  0
  4 31  1  0  0  0  0
  5 23  1  0  0  0  0
  5  6  1  0  0  0  0
  6  7  2  0  0  0  0
  7  8  1  0  0  0  0
  7 21  1  0  0  0  0
  8  9  2  0  0  0  0
  8 10  1  0  0  0  0
 10 11  1  0  0  0  0
 10 32  1  0  0  0  0
 11 12  1  0  0  0  0
 11 33  1  0  0  0  0
 11 34  1  0  0  0  0
 12 13  1  0  0  0  0
 12 35  1  0  0  0  0
 12 36  1  0  0  0  0
 13 20  1  0  0  0  0
 13 14  1  0  0  0  0
 14 15  1  0  0  0  0
 14 37  1  0  0  0  0
 14 38  1  0  0  0  0
 15 16  1  0  0  0  0
 15 17  1  0  0  0  0
 15 39  1  0  0  0  0
 16 40  1  0  0  0  0
 16 41  1  0  0  0  0
 16 42  1  0  0  0  0
 17 18  1  0  0  0  0
 18 19  1  0  0  0  0
 18 20  1  0  0  0  0
 18 43  1  0  0  0  0
 19 44  1  0  0  0  0
 19 45  1  0  0  0  0
 19 46  1  0  0  0  0
 20 47  1  0  0  0  0
 20 48  1  0  0  0  0
 21 22  2  0  0  0  0
 21 49  1  0  0  0  0
 22 23  1  0  0  0  0
 22 50  1  0  0  0  0
 23 24  2  0  0  0  0
M  END
> <s_m_source_file>
AV-unprocessed.smi

> <i_m_source_file_index>
2001

> <i_lp_mmshare_version>
43012

> <i_f3d_flags>
0

> <s_epik_input>
W0NIM11PW0NIMl1bQ0gyXW4xbmMoW2NIXVtjSF1jMT1PKUMoPU8pW05IXVtDSDJdW0NIMl1OMltDSDJdW0NAQEhdKFtDSDNdKU9bQ0BASF0oW0NIM10pW0NIMl0y

> <s_epik_cmdline>
J2VwaWtfcHl0aG9uJywgJy1waCcsICc3LjAnLCAnLXRuJywgJzgnLCAnLW1hJywgJzIwMCcsICctbWV0YWxfYmluZGluZycsICctaW1hZScsICc8aW5maWxlLm1hZT4nLCAnLW9tYWUnLCAnPG91dGZpbGUubWFlPic=

> <r_lp_tautomer_probability>
1

> <r_epik_Ionization_Penalty>
0.206669

> <r_epik_Ionization_Penalty_Charging>
5.55992e-09

> <r_epik_Ionization_Penalty_Neutral>
0.206669

> <r_epik_State_Penalty>
0.196651

> <r_epik_Charging_Adjusted_Penalty>
0.196651

> <i_epik_Tot_Q>
0

> <i_epik_Tot_abs_Q>
0

> <r_epik_Metal_State_Penalty>
0.198372

> <b_epik_Metal_Only>
0

> <s_lp_Force_Field>
OPLS_2005

> <r_lp_Energy>
41.2012

> <b_lp_Chiralities_Consistent>
1

> <s_lp_Variant>
AV-unprocessed.smi:2001-3

> <Gold.Version>
5.8.1

> <Gold.Id.Protein>
6NUR|6NUR_protein|mol2

> <Gold.PLP.Fitness>
44.3761

> <Gold.PLP.PLP>
-43.3670

> <Gold.PLP.part.hbond>
-1.9375

> <Gold.PLP.part.metal>
0.0000

> <Gold.PLP.part.buried>
-5.8489

> <Gold.PLP.part.nonpolar>
-36.3673

> <Gold.PLP.part.repulsive>
0.2756

> <Gold.PLP.ligand.clash>
0.0000

> <Gold.PLP.ligand.torsion>
0.9976

> <Gold.PLP.Chemscore.Hbond>
0.9280

> <Gold.PLP.Chemscore.CHOScore>
0.0000

> <Gold.PLP.Chemscore.Metal>
0.0000

> <Gold.Chemscore.Hbonds>
donor molecule, donor type, donor heavy atom, donor atom, acceptor molecule, acceptor atom, score
      P1  H  7989  7998       L1     2  0.84

> <Gold.PLP.Chemscore.Internal.Correction>
0.2203

> <Gold.Rescore>
     Score         DG    S(hbond)    S(metal)    S(lipo)     H(rot)  DE(clash)    DE(int)     intcor
     11.72     -12.89       0.42        0.00      95.13       2.00       0.09       1.08       ----

> <Gold.Chemscore.Fitness>
11.7185

> <Gold.Chemscore.DG>
-12.8892

> <Gold.Chemscore.ZeroCoef>
-5.4800

> <Gold.Chemscore.Hbond>
0.4205

> <Gold.Chemscore.Metal>
0.0000

> <Gold.Chemscore.Lipo>
95.1272

> <Gold.Chemscore.Internal_Hbond>
0.0000

> <Gold.Chemscore.DEClash>
0.0927

> <Gold.Chemscore.DEInternal>
1.0780

> <Gold.Chemscore.Rot>
2.0020

> <Gold.Chemscore.Internal.Correction>
   9.000000E+99

> <Gold.Chemscore.Hbonds>
donor molecule, donor type, donor heavy atom, donor atom, acceptor molecule, acceptor atom, score
      P1  H  7989  7998       L1     2  0.11

> <Gold.Chemscore.Hbond.Weighted>
-1.4045

> <Gold.Chemscore.Metal.Weighted>
-0.0000

> <Gold.Chemscore.Lipo.Weighted>
-11.1299

> <Gold.Chemscore.Internal_Hbond.Weighted>
0.0000

> <Gold.Chemscore.DEClash.Weighted>
0.0927

> <Gold.Chemscore.DEInternal.Weighted>
1.0780

> <Gold.Chemscore.Rot.Weighted>
5.1252

> <Gold.Chemscore.Internal.Correction.Weighted>
   9.000000E+99

> <Gold.Protein.RotatedTorsions>
[ 6907 6896 6895 6894 ] final -141.11 input  -60.11 | X-H torsion
[ 7974 7965 7964 7962 ] final   85.97 input  175.53 | X-H torsion
[ 8008 7997 7996 7995 ] final    4.45 input   59.86 | X-H torsion
[ 10167 10162 10161 10158 ] final    3.62 input  -65.29 | X-H torsion
[ 10718 10713 10712 10709 ] final  109.40 input   66.30 | X-H torsion
[ 10763 10752 10751 10750 ] final   24.82 input  -60.55 | X-H torsion
[ 11005 11000 10999 10996 ] final  121.02 input  -57.11 | X-H torsion

> <Gold.Protein.ActiveResidues>
 VAL166  LYS551  ARG553  GLY616  TRP617  ASP618  TYR619  PRO620  LYS621  CYS622 
 ASP623  PHE694  ASN695  SER759  ASP760  ASP761  ALA762  ILE779  LEU786  VAL792 
 PHE793  MET794  SER795  GLU796  ALA797  LYS798  CYS799  TRP800  GLU811  SER814 

> <Gold.Protein.RotatedAtoms>
  151.0695  133.5478  159.2627 H   0  0  0  0  0  0  0  0  0  0  0  0  # atno 6907 bound_to 6896
  151.2423  135.0592  159.9039 H   0  0  0  0  0  0  0  0  0  0  0  0  # atno 6908 bound_to 6896
  152.5409  134.0468  159.8146 H   0  0  0  0  0  0  0  0  0  0  0  0  # atno 6909 bound_to 6896
  145.5784  139.2322  143.2367 H   0  0  0  0  0  0  0  0  0  0  0  0  # atno 7974 bound_to 7965
  154.7161  140.2702  155.6584 H   0  0  0  0  0  0  0  0  0  0  0  0  # atno 8008 bound_to 7997
  156.2810  140.2743  156.1742 H   0  0  0  0  0  0  0  0  0  0  0  0  # atno 8009 bound_to 7997
  155.0570  140.0371  157.2553 H   0  0  0  0  0  0  0  0  0  0  0  0  # atno 8010 bound_to 7997
  140.6576  143.7386  150.7682 H   0  0  0  0  0  0  0  0  0  0  0  0  # atno 10167 bound_to 10162
  157.6543  131.0913  150.6448 H   0  0  0  0  0  0  0  0  0  0  0  0  # atno 10718 bound_to 10713
  153.0736  135.6597  154.0194 H   0  0  0  0  0  0  0  0  0  0  0  0  # atno 10763 bound_to 10752
  153.9834  135.2953  155.3419 H   0  0  0  0  0  0  0  0  0  0  0  0  # atno 10764 bound_to 10752
  154.7118  135.5202  153.8747 H   0  0  0  0  0  0  0  0  0  0  0  0  # atno 10765 bound_to 10752
  139.9209  134.9637  156.7895 H   0  0  0  0  0  0  0  0  0  0  0  0  # atno 11005 bound_to 11000
  146.1734  140.6610  142.9222 LP  0  0  0  0  0  0  0  0  0  0  0  0  # atno 17320 bound_to 7965
  144.7405  140.4929  143.6872 LP  0  0  0  0  0  0  0  0  0  0  0  0  # atno 17321 bound_to 7965
  140.1049  143.4753  152.2404 LP  0  0  0  0  0  0  0  0  0  0  0  0  # atno 17342 bound_to 10162
  139.5802  144.7507  151.3659 LP  0  0  0  0  0  0  0  0  0  0  0  0  # atno 17343 bound_to 10162
  156.6756  130.4552  149.5643 LP  0  0  0  0  0  0  0  0  0  0  0  0  # atno 17370 bound_to 10713
  156.1966  130.6593  151.1121 LP  0  0  0  0  0  0  0  0  0  0  0  0  # atno 17371 bound_to 10713
  140.6478  133.9759  155.7740 LP  0  0  0  0  0  0  0  0  0  0  0  0  # atno 17394 bound_to 11000
  141.0728  134.0180  157.3501 LP  0  0  0  0  0  0  0  0  0  0  0  0  # atno 17395 bound_to 11000

$$$$
