AV-unprocessed.smi:211|AV-procd|sdf|1615|dock8
  -GOLD-   2262019543D 1   1.00000     0.00000
 Structure written by MMmdl.
 59 62  0  0  0  0  0  0  0  0  1 V2000
  145.8374  143.0510  157.4334 C   0  0  0  0  0  0  0  0  0  0  0  0
  146.9814  142.1825  157.9452 C   0  0  0  0  0  0  0  0  0  0  0  0
  146.8146  141.4551  158.9237 O   0  0  0  0  0  0  0  0  0  0  0  0
  148.1378  142.2712  157.2707 N   0  0  0  0  0  0  0  0  0  0  0  0
  149.3610  141.5282  157.5714 C   0  0  2  0  0  0  0  0  0  0  0  0
  150.5605  142.3023  156.9927 C   0  0  0  0  0  0  0  0  0  0  0  0
  149.2471  140.0757  157.0364 C   0  0  0  0  0  0  0  0  0  0  0  0
  149.1020  140.0275  155.4963 C   0  0  0  0  0  0  0  0  0  0  0  0
  148.9706  138.5869  154.9780 C   0  0  0  0  0  0  0  0  0  0  0  0
  147.8685  137.8923  155.6386 N   0  0  0  0  0  0  0  0  0  0  0  0
  147.4753  136.7502  155.0186 C   0  0  0  0  0  0  0  0  0  0  0  0
  147.7808  135.5416  155.5629 N   0  0  0  0  0  0  0  0  0  0  0  0
  147.4170  134.4123  154.9485 C   0  0  0  0  0  0  0  0  0  0  0  0
  146.7484  134.2639  153.8036 N   0  0  0  0  0  0  0  0  0  0  0  0
  146.4264  135.4716  153.2584 C   0  0  0  0  0  0  0  0  0  0  0  0
  146.7513  136.7508  153.7926 C   0  0  0  0  0  0  0  0  0  0  0  0
  146.2627  137.7487  152.9572 N   0  0  0  0  0  0  0  0  0  0  0  0
  145.6977  137.0970  151.9777 C   0  0  0  0  0  0  0  0  0  0  0  0
  145.7255  135.7254  152.0922 N   0  0  0  0  0  0  0  0  0  0  0  0
  145.2201  134.7734  151.1472 C   0  0  0  0  0  0  0  0  0  0  0  0
  144.4549  133.5277  151.6026 C   0  0  0  0  0  0  0  0  0  0  0  0
  145.0236  132.7484  150.3946 C   0  0  0  0  0  0  0  0  0  0  0  0
  145.4323  131.2984  150.7082 C   0  0  0  0  0  0  0  0  0  0  0  0
  146.5889  131.2374  151.5171 O   0  0  0  0  0  0  0  0  0  0  0  0
  144.1057  132.7627  149.1536 C   0  0  0  0  0  0  0  0  0  0  0  0
  142.9269  132.0094  149.3503 O   0  0  0  0  0  0  0  0  0  0  0  0
  146.1556  133.8012  150.4262 C   0  0  0  0  0  0  0  0  0  0  0  0
  147.9491  137.8773  157.0989 C   0  0  0  0  0  0  0  0  0  0  0  0
  148.0626  139.3039  157.6607 C   0  0  0  0  0  0  0  0  0  0  0  0
  146.1563  144.0899  157.3417 H   0  0  0  0  0  0  0  0  0  0  0  0
  144.9874  143.0147  158.1156 H   0  0  0  0  0  0  0  0  0  0  0  0
  145.5060  142.7025  156.4548 H   0  0  0  0  0  0  0  0  0  0  0  0
  148.1740  142.8995  156.4808 H   0  0  0  0  0  0  0  0  0  0  0  0
  149.4830  141.4741  158.6551 H   0  0  0  0  0  0  0  0  0  0  0  0
  151.5110  141.8631  157.2928 H   0  0  0  0  0  0  0  0  0  0  0  0
  150.5692  143.3343  157.3450 H   0  0  0  0  0  0  0  0  0  0  0  0
  150.5291  142.3261  155.9029 H   0  0  0  0  0  0  0  0  0  0  0  0
  150.1650  139.5476  157.3001 H   0  0  0  0  0  0  0  0  0  0  0  0
  148.2261  140.6021  155.1919 H   0  0  0  0  0  0  0  0  0  0  0  0
  149.9589  140.4924  155.0087 H   0  0  0  0  0  0  0  0  0  0  0  0
  148.8382  138.6071  153.8969 H   0  0  0  0  0  0  0  0  0  0  0  0
  149.8941  138.0384  155.1680 H   0  0  0  0  0  0  0  0  0  0  0  0
  147.7027  133.4964  155.4448 H   0  0  0  0  0  0  0  0  0  0  0  0
  145.2372  137.6048  151.1428 H   0  0  0  0  0  0  0  0  0  0  0  0
  144.6339  135.3473  150.4275 H   0  0  0  0  0  0  0  0  0  0  0  0
  144.8111  133.1507  152.5633 H   0  0  0  0  0  0  0  0  0  0  0  0
  143.3704  133.6415  151.6086 H   0  0  0  0  0  0  0  0  0  0  0  0
  144.6362  130.7792  151.2424 H   0  0  0  0  0  0  0  0  0  0  0  0
  145.6087  130.7293  149.7949 H   0  0  0  0  0  0  0  0  0  0  0  0
  147.3162  130.9604  150.9816 H   0  0  0  0  0  0  0  0  0  0  0  0
  143.8278  133.7815  148.8819 H   0  0  0  0  0  0  0  0  0  0  0  0
  144.6144  132.3486  148.2827 H   0  0  0  0  0  0  0  0  0  0  0  0
  142.1899  132.6006  149.3605 H   0  0  0  0  0  0  0  0  0  0  0  0
  146.4968  134.1461  149.4496 H   0  0  0  0  0  0  0  0  0  0  0  0
  147.0003  133.4969  151.0472 H   0  0  0  0  0  0  0  0  0  0  0  0
  147.0641  137.3948  157.5162 H   0  0  0  0  0  0  0  0  0  0  0  0
  148.8139  137.2877  157.4068 H   0  0  0  0  0  0  0  0  0  0  0  0
  148.1698  139.2371  158.7427 H   0  0  0  0  0  0  0  0  0  0  0  0
  147.1330  139.8430  157.4733 H   0  0  0  0  0  0  0  0  0  0  0  0
  1  2  1  0  0  0  0
  1 30  1  0  0  0  0
  1 31  1  0  0  0  0
  1 32  1  0  0  0  0
  2  3  2  0  0  0  0
  2  4  1  0  0  0  0
  4  5  1  0  0  0  0
  4 33  1  0  0  0  0
  5  6  1  0  0  0  0
  5  7  1  0  0  0  0
  5 34  1  0  0  0  0
  6 35  1  0  0  0  0
  6 36  1  0  0  0  0
  6 37  1  0  0  0  0
  7 29  1  0  0  0  0
  7  8  1  0  0  0  0
  7 38  1  0  0  0  0
  8  9  1  0  0  0  0
  8 39  1  0  0  0  0
  8 40  1  0  0  0  0
  9 10  1  0  0  0  0
  9 41  1  0  0  0  0
  9 42  1  0  0  0  0
 10 11  1  0  0  0  0
 10 28  1  0  0  0  0
 11 16  1  0  0  0  0
 11 12  2  0  0  0  0
 12 13  1  0  0  0  0
 13 14  2  0  0  0  0
 13 43  1  0  0  0  0
 14 15  1  0  0  0  0
 15 19  1  0  0  0  0
 15 16  2  0  0  0  0
 16 17  1  0  0  0  0
 17 18  2  0  0  0  0
 18 19  1  0  0  0  0
 18 44  1  0  0  0  0
 19 20  1  0  0  0  0
 20 27  1  0  0  0  0
 20 21  1  0  0  0  0
 20 45  1  0  0  0  0
 21 22  1  0  0  0  0
 21 46  1  0  0  0  0
 21 47  1  0  0  0  0
 22 23  1  0  0  0  0
 22 25  1  0  0  0  0
 22 27  1  0  0  0  0
 23 24  1  0  0  0  0
 23 48  1  0  0  0  0
 23 49  1  0  0  0  0
 24 50  1  0  0  0  0
 25 26  1  0  0  0  0
 25 51  1  0  0  0  0
 25 52  1  0  0  0  0
 26 53  1  0  0  0  0
 27 54  1  0  0  0  0
 27 55  1  0  0  0  0
 28 29  1  0  0  0  0
 28 56  1  0  0  0  0
 28 57  1  0  0  0  0
 29 58  1  0  0  0  0
 29 59  1  0  0  0  0
M  END
> <s_m_source_file>
AV-unprocessed.smi

> <i_m_source_file_index>
211

> <i_lp_mmshare_version>
43012

> <i_f3d_flags>
0

> <s_epik_input>
W0NIM11DKD1PKVtOSF1bQ0BIXShbQ0gzXSlbQ0hdMVtDSDJdW0NIMl1OKFtDSDJdW0NIMl0xKWMobltjSF1uMiljKGMyMyluW2NIXW4zW0NIXShbQ0gyXTQpW0NIMl1DNChbQ0gyXVtPSF0pW0NIMl1bT0hd

> <s_epik_cmdline>
J2VwaWtfcHl0aG9uJywgJy1waCcsICc3LjAnLCAnLXRuJywgJzgnLCAnLW1hJywgJzIwMCcsICctbWV0YWxfYmluZGluZycsICctaW1hZScsICc8aW5maWxlLm1hZT4nLCAnLW9tYWUnLCAnPG91dGZpbGUubWFlPic=

> <r_lp_tautomer_probability>
1

> <r_epik_Ionization_Penalty>
0.00335435

> <r_epik_Ionization_Penalty_Charging>
0

> <r_epik_Ionization_Penalty_Neutral>
0.00335435

> <r_epik_State_Penalty>
0.00231338

> <r_epik_Charging_Adjusted_Penalty>
0.00231338

> <i_epik_Tot_Q>
0

> <i_epik_Tot_abs_Q>
0

> <r_epik_Metal_State_Penalty>
-0

> <b_epik_Metal_Only>
0

> <s_lp_Force_Field>
OPLS_2005

> <r_lp_Energy>
41.9303

> <b_lp_Chiralities_Consistent>
1

> <s_lp_Variant>
AV-unprocessed.smi:211-1

> <Gold.Version>
5.8.1

> <Gold.Id.Protein>
6NUR|6NUR_protein|mol2

> <Gold.PLP.Fitness>
48.5937

> <Gold.PLP.PLP>
-34.3859

> <Gold.PLP.part.hbond>
-5.9231

> <Gold.PLP.part.metal>
0.0000

> <Gold.PLP.part.buried>
-2.0592

> <Gold.PLP.part.nonpolar>
-25.7429

> <Gold.PLP.part.repulsive>
0.4563

> <Gold.PLP.ligand.clash>
0.0000

> <Gold.PLP.ligand.torsion>
1.4554

> <Gold.PLP.Chemscore.Hbond>
4.4043

> <Gold.PLP.Chemscore.CHOScore>
1.0000

> <Gold.PLP.Chemscore.Metal>
0.0000

> <Gold.Chemscore.Hbonds>
donor molecule, donor type, donor heavy atom, donor atom, acceptor molecule, acceptor atom, score
      L1  H     4    33       P1  8028  0.79
      L1  H    24    50       P1 10747  1.00
      L1  H    26    53       P1 10186  0.67
      P1  H  6934  6946       L1     3  0.53
      P1  H 10785 10796       L1    26  1.00
      L1  C    18    44       P1 10171  1.00

> <Gold.PLP.Chemscore.Internal.Correction>
0.9059

> <Gold.Rescore>
     Score         DG    S(hbond)    S(metal)    S(lipo)     H(rot)  DE(clash)    DE(int)     intcor
     12.69     -16.25       3.69        0.00      72.49       3.92       0.74       2.82       ----

> <Gold.Chemscore.Fitness>
12.6884

> <Gold.Chemscore.DG>
-16.2514

> <Gold.Chemscore.ZeroCoef>
-5.4800

> <Gold.Chemscore.Hbond>
3.6868

> <Gold.Chemscore.Metal>
0.0000

> <Gold.Chemscore.Lipo>
72.4884

> <Gold.Chemscore.Internal_Hbond>
0.0000

> <Gold.Chemscore.DEClash>
0.7432

> <Gold.Chemscore.DEInternal>
2.8198

> <Gold.Chemscore.Rot>
3.9155

> <Gold.Chemscore.Internal.Correction>
   9.000000E+99

> <Gold.Chemscore.Hbonds>
donor molecule, donor type, donor heavy atom, donor atom, acceptor molecule, acceptor atom, score
      L1  H     4    33       P1  8028  0.45
      L1  H    24    50       P1 10747  1.00
      L1  H    26    53       P1 10186  0.67
      P1  H  6934  6946       L1     3  0.52
      P1  H 10785 10796       L1    26  0.72

> <Gold.Chemscore.Hbond.Weighted>
-12.3139

> <Gold.Chemscore.Metal.Weighted>
-0.0000

> <Gold.Chemscore.Lipo.Weighted>
-8.4811

> <Gold.Chemscore.Internal_Hbond.Weighted>
0.0000

> <Gold.Chemscore.DEClash.Weighted>
0.7432

> <Gold.Chemscore.DEInternal.Weighted>
2.8198

> <Gold.Chemscore.Rot.Weighted>
10.0236

> <Gold.Chemscore.Internal.Correction.Weighted>
   9.000000E+99

> <Gold.Protein.RotatedTorsions>
[ 6907 6896 6895 6894 ] final  -52.43 input  -60.11 | X-H torsion
[ 7974 7965 7964 7962 ] final -162.79 input  175.53 | X-H torsion
[ 8008 7997 7996 7995 ] final -110.12 input   59.86 | X-H torsion
[ 10167 10162 10161 10158 ] final  169.43 input  -65.29 | X-H torsion
[ 10718 10713 10712 10709 ] final  110.85 input   66.30 | X-H torsion
[ 10763 10752 10751 10750 ] final -156.67 input  -60.55 | X-H torsion
[ 11005 11000 10999 10996 ] final -178.81 input  -57.11 | X-H torsion

> <Gold.Protein.ActiveResidues>
 VAL166  LYS551  ARG553  GLY616  TRP617  ASP618  TYR619  PRO620  LYS621  CYS622 
 ASP623  PHE694  ASN695  SER759  ASP760  ASP761  ALA762  ILE779  LEU786  VAL792 
 PHE793  MET794  SER795  GLU796  ALA797  LYS798  CYS799  TRP800  GLU811  SER814 

> <Gold.Protein.RotatedAtoms>
  150.8518  134.7846  159.7014 H   0  0  0  0  0  0  0  0  0  0  0  0  # atno 6907 bound_to 6896
  152.4581  134.5243  159.9802 H   0  0  0  0  0  0  0  0  0  0  0  0  # atno 6908 bound_to 6896
  151.5363  133.3402  159.2963 H   0  0  0  0  0  0  0  0  0  0  0  0  # atno 6909 bound_to 6896
  144.7346  140.3201  143.6172 H   0  0  0  0  0  0  0  0  0  0  0  0  # atno 7974 bound_to 7965
  154.9696  140.0398  157.2228 H   0  0  0  0  0  0  0  0  0  0  0  0  # atno 8008 bound_to 7997
  154.7813  140.2819  155.6039 H   0  0  0  0  0  0  0  0  0  0  0  0  # atno 8009 bound_to 7997
  156.2936  140.2591  156.2639 H   0  0  0  0  0  0  0  0  0  0  0  0  # atno 8010 bound_to 7997
  139.4992  144.3707  151.9728 H   0  0  0  0  0  0  0  0  0  0  0  0  # atno 10167 bound_to 10162
  157.6474  131.0940  150.6662 H   0  0  0  0  0  0  0  0  0  0  0  0  # atno 10718 bound_to 10713
  154.7695  135.3141  154.8218 H   0  0  0  0  0  0  0  0  0  0  0  0  # atno 10763 bound_to 10752
  153.8957  135.6821  153.4762 H   0  0  0  0  0  0  0  0  0  0  0  0  # atno 10764 bound_to 10752
  153.1306  135.4781  154.9277 H   0  0  0  0  0  0  0  0  0  0  0  0  # atno 10765 bound_to 10752
  140.4256  134.6566  157.4686 H   0  0  0  0  0  0  0  0  0  0  0  0  # atno 11005 bound_to 11000
  145.7578  139.1814  143.2285 LP  0  0  0  0  0  0  0  0  0  0  0  0  # atno 17320 bound_to 7965
  146.1011  140.7543  142.9549 LP  0  0  0  0  0  0  0  0  0  0  0  0  # atno 17321 bound_to 7965
  140.3143  144.3502  150.6026 LP  0  0  0  0  0  0  0  0  0  0  0  0  # atno 17342 bound_to 10162
  140.5774  143.2175  151.7491 LP  0  0  0  0  0  0  0  0  0  0  0  0  # atno 17343 bound_to 10162
  156.6977  130.4614  149.5581 LP  0  0  0  0  0  0  0  0  0  0  0  0  # atno 17370 bound_to 10713
  156.1817  130.6503  151.0959 LP  0  0  0  0  0  0  0  0  0  0  0  0  # atno 17371 bound_to 10713
  140.0170  134.6605  155.9296 LP  0  0  0  0  0  0  0  0  0  0  0  0  # atno 17394 bound_to 11000
  141.1766  133.6541  156.4855 LP  0  0  0  0  0  0  0  0  0  0  0  0  # atno 17395 bound_to 11000

$$$$
