AV-unprocessed.smi:160|AV-procd|sdf|1368|dock2
  -GOLD-   2262019 83D 1   1.00000     0.00000
 Structure written by MMmdl.
 28 29  0  0  0  0  0  0  0  0  2 V2000
  147.9653  137.2113  160.4176 N   0  5  0  0  0  0  0  0  0  0  0  0
  148.6203  137.0628  159.2453 C   0  0  0  0  0  0  0  0  0  0  0  0
  149.3856  136.1452  158.9507 O   0  0  0  0  0  0  0  0  0  0  0  0
  148.3524  138.1540  158.2357 C   0  0  0  0  0  0  0  0  0  0  0  0
  147.4470  139.1435  158.5024 N   0  0  0  0  0  0  0  0  0  0  0  0
  147.5455  139.8320  157.3731 C   0  0  0  0  0  0  0  0  0  0  0  0
  148.4328  139.3355  156.5034 N   0  0  0  0  0  0  0  0  0  0  0  0
  148.8131  139.7664  155.1193 C   0  0  1  0  0  0  0  0  0  0  0  0
  148.2611  138.8711  154.2054 O   0  0  0  0  0  0  0  0  0  0  0  0
  146.9546  139.3078  153.8557 C   0  0  2  0  0  0  0  0  0  0  0  0
  146.5235  138.6582  152.5316 C   0  0  0  0  0  0  0  0  0  0  0  0
  147.6376  138.5026  151.6786 O   0  0  0  0  0  0  0  0  0  0  0  0
  147.1325  140.8281  153.7603 C   0  0  1  0  0  0  0  0  0  0  0  0
  145.9217  141.4799  154.0869 O   0  0  0  0  0  0  0  0  0  0  0  0
  148.2116  141.1473  154.7967 C   0  0  2  0  0  0  0  0  0  0  0  0
  149.1823  142.0175  154.2512 O   0  0  0  0  0  0  0  0  0  0  0  0
  148.9620  138.2128  157.0475 N   0  0  0  0  0  0  0  0  0  0  0  0
  149.9033  139.7276  155.1179 H   0  0  0  0  0  0  0  0  0  0  0  0
  146.2563  139.0621  154.6586 H   0  0  0  0  0  0  0  0  0  0  0  0
  147.4567  141.1114  152.7572 H   0  0  0  0  0  0  0  0  0  0  0  0
  147.7940  141.6012  155.6970 H   0  0  0  0  0  0  0  0  0  0  0  0
  147.2083  136.5543  160.6405 H   0  0  0  0  0  0  0  0  0  0  0  0
  146.9555  140.7152  157.1773 H   0  0  0  0  0  0  0  0  0  0  0  0
  146.1150  137.6645  152.7185 H   0  0  0  0  0  0  0  0  0  0  0  0
  145.7452  139.2414  152.0387 H   0  0  0  0  0  0  0  0  0  0  0  0
  148.2574  139.1910  151.8659 H   0  0  0  0  0  0  0  0  0  0  0  0
  145.2600  141.2054  153.4703 H   0  0  0  0  0  0  0  0  0  0  0  0
  149.1367  142.8406  154.7140 H   0  0  0  0  0  0  0  0  0  0  0  0
  1  2  1  0  0  0  0
  1 22  1  0  0  0  0
  2  3  2  0  0  0  0
  2  4  1  0  0  0  0
  4 17  2  0  0  0  0
  4  5  1  0  0  0  0
  5  6  2  0  0  0  0
  6  7  1  0  0  0  0
  6 23  1  0  0  0  0
  7  8  1  0  0  0  0
  7 17  1  0  0  0  0
  8 18  1  0  0  0  0
  8 15  1  0  0  0  0
  8  9  1  0  0  0  0
  9 10  1  0  0  0  0
 10 19  1  0  0  0  0
 10 11  1  0  0  0  0
 10 13  1  0  0  0  0
 11 12  1  0  0  0  0
 11 24  1  0  0  0  0
 11 25  1  0  0  0  0
 12 26  1  0  0  0  0
 13 20  1  0  0  0  0
 13 14  1  0  0  0  0
 13 15  1  0  0  0  0
 14 27  1  0  0  0  0
 15 21  1  0  0  0  0
 15 16  1  0  0  0  0
 16 28  1  0  0  0  0
M  CHG  1   1  -1
M  END
> <s_m_source_file>
AV-unprocessed.smi

> <i_m_source_file_index>
160

> <i_lp_mmshare_version>
43012

> <i_f3d_flags>
0

> <s_epik_input>
W05IMl1DKD1PKWMxbltjSF1uKG4xKVtDQEBIXTJPW0NASF0oW0NIMl1bT0hdKVtDQEBIXShbT0hdKVtDQEhdMltPSF0=

> <s_epik_cmdline>
J2VwaWtfcHl0aG9uJywgJy1waCcsICc3LjAnLCAnLXRuJywgJzgnLCAnLW1hJywgJzIwMCcsICctbWV0YWxfYmluZGluZycsICctaW1hZScsICc8aW5maWxlLm1hZT4nLCAnLW9tYWUnLCAnPG91dGZpbGUubWFlPic=

> <r_lp_tautomer_probability>
1

> <r_epik_Ionization_Penalty>
6.6993

> <r_epik_Ionization_Penalty_Charging>
6.6993

> <r_epik_Ionization_Penalty_Neutral>
6.01698e-06

> <r_epik_State_Penalty>
6.69929

> <r_epik_Charging_Adjusted_Penalty>
13.3986

> <i_epik_Tot_Q>
-1

> <i_epik_Tot_abs_Q>
1

> <r_epik_Metal_State_Penalty>
2.62798

> <b_epik_Metal_Only>
1

> <s_epik_Chemistry_Notes>
This compound contains an acetal/aminal-like group ( X-CH(R)-Y where X, Y are N, S, or O) that may be acid/base labile, releasing an aldehyde.

> <s_lp_Force_Field>
OPLS_2005

> <r_lp_Energy>
37.5232

> <b_lp_Chiralities_Consistent>
1

> <s_lp_Variant>
AV-unprocessed.smi:160-26

> <Gold.Version>
5.8.1

> <Gold.Id.Protein>
6NUR|6NUR_protein|mol2

> <Gold.PLP.Fitness>
46.2923

> <Gold.PLP.PLP>
-23.4565

> <Gold.PLP.part.hbond>
-10.3803

> <Gold.PLP.part.metal>
0.0000

> <Gold.PLP.part.buried>
-3.1785

> <Gold.PLP.part.nonpolar>
-10.8571

> <Gold.PLP.part.repulsive>
0.1543

> <Gold.PLP.ligand.clash>
0.0000

> <Gold.PLP.ligand.torsion>
0.4540

> <Gold.PLP.Chemscore.Hbond>
7.9002

> <Gold.PLP.Chemscore.CHOScore>
0.0000

> <Gold.PLP.Chemscore.Metal>
0.0000

> <Gold.Chemscore.Hbonds>
donor molecule, donor type, donor heavy atom, donor atom, acceptor molecule, acceptor atom, score
      L1  H    12    26       P1  7957  0.80
      L1  H    14    27       P1 10175  1.00
      L1  H    16    28       P1  8028  0.83
      P1  H  6896  6907       L1     3  0.91
      P1  H  6931  6943       L1     1  1.19
      P1  H  6934  6947       L1     1  1.52
      P1  H  7954  7966       L1    12  1.00
      P1  H  8011  8017       L1    16  0.36

> <Gold.PLP.Chemscore.Internal.Correction>
0.0434

> <Gold.Rescore>
     Score         DG    S(hbond)    S(metal)    S(lipo)     H(rot)  DE(clash)    DE(int)     intcor
     15.25     -15.81       5.34        0.00      24.25       4.04       0.18       0.38       ----

> <Gold.Chemscore.Fitness>
15.2458

> <Gold.Chemscore.DG>
-15.8070

> <Gold.Chemscore.ZeroCoef>
-5.4800

> <Gold.Chemscore.Hbond>
5.3393

> <Gold.Chemscore.Metal>
0.0000

> <Gold.Chemscore.Lipo>
24.2473

> <Gold.Chemscore.Internal_Hbond>
0.0000

> <Gold.Chemscore.DEClash>
0.1831

> <Gold.Chemscore.DEInternal>
0.3781

> <Gold.Chemscore.Rot>
4.0403

> <Gold.Chemscore.Internal.Correction>
   9.000000E+99

> <Gold.Chemscore.Hbonds>
donor molecule, donor type, donor heavy atom, donor atom, acceptor molecule, acceptor atom, score
      L1  H    12    26       P1  7957  0.79
      L1  H    14    27       P1 10175  0.34
      L1  H    16    28       P1  8028  0.80
      P1  H  6896  6907       L1     3  0.87
      P1  H  6931  6943       L1     1  0.52
      P1  H  6934  6947       L1     1  0.31
      P1  H  7954  7966       L1    12  0.37
      P1  H  8011  8017       L1    16  0.21

> <Gold.Chemscore.Hbond.Weighted>
-17.8331

> <Gold.Chemscore.Metal.Weighted>
-0.0000

> <Gold.Chemscore.Lipo.Weighted>
-2.8369

> <Gold.Chemscore.Internal_Hbond.Weighted>
0.0000

> <Gold.Chemscore.DEClash.Weighted>
0.1831

> <Gold.Chemscore.DEInternal.Weighted>
0.3781

> <Gold.Chemscore.Rot.Weighted>
10.3431

> <Gold.Chemscore.Internal.Correction.Weighted>
   9.000000E+99

> <Gold.Protein.RotatedTorsions>
[ 6907 6896 6895 6894 ] final  -59.60 input  -60.11 | X-H torsion
[ 7974 7965 7964 7962 ] final   59.52 input  175.53 | X-H torsion
[ 8008 7997 7996 7995 ] final -138.81 input   59.86 | X-H torsion
[ 10167 10162 10161 10158 ] final  -13.36 input  -65.29 | X-H torsion
[ 10718 10713 10712 10709 ] final  173.14 input   66.30 | X-H torsion
[ 10763 10752 10751 10750 ] final -145.33 input  -60.55 | X-H torsion
[ 11005 11000 10999 10996 ] final -179.89 input  -57.11 | X-H torsion

> <Gold.Protein.ActiveResidues>
 VAL166  LYS551  ARG553  GLY616  TRP617  ASP618  TYR619  PRO620  LYS621  CYS622 
 ASP623  PHE694  ASN695  SER759  ASP760  ASP761  ALA762  ILE779  LEU786  VAL792 
 PHE793  MET794  SER795  GLU796  ALA797  LYS798  CYS799  TRP800  GLU811  SER814 

> <Gold.Protein.RotatedAtoms>
  150.7918  134.6948  159.6516 H   0  0  0  0  0  0  0  0  0  0  0  0  # atno 6907 bound_to 6896
  152.4025  134.6259  160.0073 H   0  0  0  0  0  0  0  0  0  0  0  0  # atno 6908 bound_to 6896
  151.6526  133.3283  159.3191 H   0  0  0  0  0  0  0  0  0  0  0  0  # atno 6909 bound_to 6896
  145.9063  139.3619  143.0562 H   0  0  0  0  0  0  0  0  0  0  0  0  # atno 7974 bound_to 7965
  155.4345  140.0527  157.3016 H   0  0  0  0  0  0  0  0  0  0  0  0  # atno 8008 bound_to 7997
  154.4845  140.2095  155.9644 H   0  0  0  0  0  0  0  0  0  0  0  0  # atno 8009 bound_to 7997
  156.1255  140.3181  155.8275 H   0  0  0  0  0  0  0  0  0  0  0  0  # atno 8010 bound_to 7997
  140.7180  143.5435  150.9382 H   0  0  0  0  0  0  0  0  0  0  0  0  # atno 10167 bound_to 10162
  156.9686  131.0083  151.2910 H   0  0  0  0  0  0  0  0  0  0  0  0  # atno 10718 bound_to 10713
  154.8388  135.3416  154.6488 H   0  0  0  0  0  0  0  0  0  0  0  0  # atno 10763 bound_to 10752
  153.7100  135.6964  153.5044 H   0  0  0  0  0  0  0  0  0  0  0  0  # atno 10764 bound_to 10752
  153.2458  135.4369  155.0700 H   0  0  0  0  0  0  0  0  0  0  0  0  # atno 10765 bound_to 10752
  140.4136  134.6670  157.4627 H   0  0  0  0  0  0  0  0  0  0  0  0  # atno 11005 bound_to 11000
  145.8728  140.9409  143.0641 LP  0  0  0  0  0  0  0  0  0  0  0  0  # atno 17320 bound_to 7965
  144.6739  140.0677  143.7474 LP  0  0  0  0  0  0  0  0  0  0  0  0  # atno 17321 bound_to 7965
  139.9158  143.6665  152.3106 LP  0  0  0  0  0  0  0  0  0  0  0  0  # atno 17342 bound_to 10162
  139.7065  144.7627  151.1185 LP  0  0  0  0  0  0  0  0  0  0  0  0  # atno 17343 bound_to 10162
  157.5608  130.8244  149.8263 LP  0  0  0  0  0  0  0  0  0  0  0  0  # atno 17370 bound_to 10713
  156.0292  130.3770  150.1736 LP  0  0  0  0  0  0  0  0  0  0  0  0  # atno 17371 bound_to 10713
  140.0250  134.6491  155.9186 LP  0  0  0  0  0  0  0  0  0  0  0  0  # atno 17394 bound_to 11000
  141.1812  133.6547  156.5026 LP  0  0  0  0  0  0  0  0  0  0  0  0  # atno 17395 bound_to 11000

$$$$
