AV-unprocessed.smi:1829|AV-procd|sdf|7431|dock7
  -GOLD-   22720 9113D 1   1.00000     0.00000
 Structure written by MMmdl.
 46 48  0  0  0  0  0  0  0  0  2 V2000
  148.3556  133.1372  153.4372 C   0  0  0  0  0  0  0  0  0  0  0  0
  149.6658  133.1315  154.2395 C   0  0  0  0  0  0  0  0  0  0  0  0
  149.7762  131.8901  155.1393 C   0  0  0  0  0  0  0  0  0  0  0  0
  149.8389  134.4220  155.0299 C   0  0  0  0  0  0  0  0  0  0  0  0
  151.0301  134.6560  155.7493 C   0  0  0  0  0  0  0  0  0  0  0  0
  151.2045  135.8545  156.4676 C   0  0  0  0  0  0  0  0  0  0  0  0
  150.1873  136.8335  156.4772 C   0  0  0  0  0  0  0  0  0  0  0  0
  150.3805  138.1556  157.2076 C   0  0  1  0  0  0  0  0  0  0  0  0
  150.8576  137.9820  158.5258 O   0  0  0  0  0  0  0  0  0  0  0  0
  151.3414  139.1069  156.4644 C   0  0  0  0  0  0  0  0  0  0  0  0
  150.9359  140.5184  156.5716 N   0  0  0  0  0  0  0  0  0  0  0  0
  150.0448  141.2331  155.8252 C   0  0  0  0  0  0  0  0  0  0  0  0
  149.2198  140.7340  154.6849 C   0  0  0  0  0  0  0  0  0  0  0  0
  149.7763  141.0736  153.4346 O   0  0  0  0  0  0  0  0  0  0  0  0
  150.0341  142.5041  156.3159 N   0  3  0  0  0  0  0  0  0  0  0  0
  150.9267  142.6070  157.3830 C   0  0  0  0  0  0  0  0  0  0  0  0
  151.2616  143.6917  158.1875 C   0  0  0  0  0  0  0  0  0  0  0  0
  152.2227  143.4610  159.1933 C   0  0  0  0  0  0  0  0  0  0  0  0
  152.8080  142.1910  159.3713 C   0  0  0  0  0  0  0  0  0  0  0  0
  152.4554  141.0976  158.5536 C   0  0  0  0  0  0  0  0  0  0  0  0
  151.5076  141.3338  157.5573 C   0  0  0  0  0  0  0  0  0  0  0  0
  148.9921  136.5953  155.7665 C   0  0  0  0  0  0  0  0  0  0  0  0
  148.8202  135.3994  155.0445 C   0  0  0  0  0  0  0  0  0  0  0  0
  148.3133  133.9931  152.7628 H   0  0  0  0  0  0  0  0  0  0  0  0
  147.4838  133.1841  154.0904 H   0  0  0  0  0  0  0  0  0  0  0  0
  148.2648  132.2359  152.8299 H   0  0  0  0  0  0  0  0  0  0  0  0
  150.4824  133.0740  153.5184 H   0  0  0  0  0  0  0  0  0  0  0  0
  150.7318  131.8716  155.6642 H   0  0  0  0  0  0  0  0  0  0  0  0
  149.7072  130.9739  154.5520 H   0  0  0  0  0  0  0  0  0  0  0  0
  148.9838  131.8602  155.8875 H   0  0  0  0  0  0  0  0  0  0  0  0
  151.8207  133.9199  155.7478 H   0  0  0  0  0  0  0  0  0  0  0  0
  152.1295  136.0226  156.9995 H   0  0  0  0  0  0  0  0  0  0  0  0
  149.4061  138.6371  157.3017 H   0  0  0  0  0  0  0  0  0  0  0  0
  151.7885  138.1438  158.5331 H   0  0  0  0  0  0  0  0  0  0  0  0
  152.3414  139.0349  156.8942 H   0  0  0  0  0  0  0  0  0  0  0  0
  151.4457  138.8326  155.4145 H   0  0  0  0  0  0  0  0  0  0  0  0
  149.1304  139.6494  154.7519 H   0  0  0  0  0  0  0  0  0  0  0  0
  148.2112  141.1418  154.7487 H   0  0  0  0  0  0  0  0  0  0  0  0
  149.5762  140.3848  152.8190 H   0  0  0  0  0  0  0  0  0  0  0  0
  150.8146  144.6658  158.0527 H   0  0  0  0  0  0  0  0  0  0  0  0
  152.5170  144.2743  159.8409 H   0  0  0  0  0  0  0  0  0  0  0  0
  153.5433  142.0516  160.1504 H   0  0  0  0  0  0  0  0  0  0  0  0
  152.9153  140.1320  158.6998 H   0  0  0  0  0  0  0  0  0  0  0  0
  148.2087  137.3390  155.7575 H   0  0  0  0  0  0  0  0  0  0  0  0
  147.9037  135.2395  154.4960 H   0  0  0  0  0  0  0  0  0  0  0  0
  149.4538  143.2455  155.9452 H   0  0  0  0  0  0  0  0  0  0  0  0
  1  2  1  0  0  0  0
  1 24  1  0  0  0  0
  1 25  1  0  0  0  0
  1 26  1  0  0  0  0
  2  3  1  0  0  0  0
  2  4  1  0  0  0  0
  2 27  1  0  0  0  0
  3 28  1  0  0  0  0
  3 29  1  0  0  0  0
  3 30  1  0  0  0  0
  4 23  1  0  0  0  0
  4  5  2  0  0  0  0
  5  6  1  0  0  0  0
  5 31  1  0  0  0  0
  6  7  2  0  0  0  0
  6 32  1  0  0  0  0
  7  8  1  0  0  0  0
  7 22  1  0  0  0  0
  8  9  1  0  0  0  0
  8 10  1  0  0  0  0
  8 33  1  0  0  0  0
  9 34  1  0  0  0  0
 10 11  1  0  0  0  0
 10 35  1  0  0  0  0
 10 36  1  0  0  0  0
 11 21  1  0  0  0  0
 11 12  1  0  0  0  0
 12 13  1  0  0  0  0
 12 15  2  0  0  0  0
 13 14  1  0  0  0  0
 13 37  1  0  0  0  0
 13 38  1  0  0  0  0
 14 39  1  0  0  0  0
 15 16  1  0  0  0  0
 15 46  1  0  0  0  0
 16 21  2  0  0  0  0
 16 17  1  0  0  0  0
 17 18  2  0  0  0  0
 17 40  1  0  0  0  0
 18 19  1  0  0  0  0
 18 41  1  0  0  0  0
 19 20  2  0  0  0  0
 19 42  1  0  0  0  0
 20 21  1  0  0  0  0
 20 43  1  0  0  0  0
 22 23  2  0  0  0  0
 22 44  1  0  0  0  0
 23 45  1  0  0  0  0
M  CHG  1  15   1
M  END
> <s_m_source_file>
AV-unprocessed.smi

> <i_m_source_file_index>
1829

> <i_lp_mmshare_version>
43012

> <i_f3d_flags>
0

> <s_epik_input>
W0NIM11bQ0hdKFtDSDNdKWMxW2NIXVtjSF1jKFtjSF1bY0hdMSlbQ0BIXShbT0hdKVtDSDJdbihjKG4yKVtDSDJdW09IXSljKGMyMylbY0hdW2NIXVtjSF1bY0hdMw==

> <s_epik_cmdline>
J2VwaWtfcHl0aG9uJywgJy1waCcsICc3LjAnLCAnLXRuJywgJzgnLCAnLW1hJywgJzIwMCcsICctbWV0YWxfYmluZGluZycsICctaW1hZScsICc8aW5maWxlLm1hZT4nLCAnLW9tYWUnLCAnPG91dGZpbGUubWFlPic=

> <r_epik_Ionization_Penalty>
1.35642

> <r_epik_Ionization_Penalty_Charging>
1.35557

> <r_epik_Ionization_Penalty_Neutral>
0.000856322

> <r_epik_State_Penalty>
1.43401

> <r_epik_Charging_Adjusted_Penalty>
2.78958

> <i_epik_Tot_Q>
1

> <i_epik_Tot_abs_Q>
1

> <r_epik_Metal_State_Penalty>
5.47166

> <b_epik_Metal_Only>
0

> <s_lp_Force_Field>
OPLS_2005

> <r_lp_Energy>
15.3906

> <b_lp_Chiralities_Consistent>
1

> <s_lp_Variant>
AV-unprocessed.smi:1829-4

> <Gold.Version>
5.8.1

> <Gold.Id.Protein>
6NUR|6NUR_protein|mol2

> <Gold.PLP.Fitness>
51.6185

> <Gold.PLP.PLP>
-42.4810

> <Gold.PLP.part.hbond>
-4.0000

> <Gold.PLP.part.metal>
0.0000

> <Gold.PLP.part.buried>
-4.8621

> <Gold.PLP.part.nonpolar>
-34.2995

> <Gold.PLP.part.repulsive>
0.0863

> <Gold.PLP.ligand.clash>
0.0000

> <Gold.PLP.ligand.torsion>
1.4159

> <Gold.PLP.Chemscore.Hbond>
3.9600

> <Gold.PLP.Chemscore.CHOScore>
0.0000

> <Gold.PLP.Chemscore.Metal>
0.0000

> <Gold.Chemscore.Hbonds>
donor molecule, donor type, donor heavy atom, donor atom, acceptor molecule, acceptor atom, score
      L1  H    14    39       P1  7957  0.82
      L1  H    15    46       P1  8028  2.00
      P1  H  7989  7998       L1    14  0.20
      P1  H  8011  8017       L1    14  0.95

> <Gold.PLP.Chemscore.Internal.Correction>
0.0893

> <Gold.Rescore>
     Score         DG    S(hbond)    S(metal)    S(lipo)     H(rot)  DE(clash)    DE(int)     intcor
     18.38     -19.74       2.44        0.00     112.57       2.75       0.11       1.25       ----

> <Gold.Chemscore.Fitness>
18.3769

> <Gold.Chemscore.DG>
-19.7373

> <Gold.Chemscore.ZeroCoef>
-5.4800

> <Gold.Chemscore.Hbond>
2.4371

> <Gold.Chemscore.Metal>
0.0000

> <Gold.Chemscore.Lipo>
112.5650

> <Gold.Chemscore.Internal_Hbond>
0.0000

> <Gold.Chemscore.DEClash>
0.1148

> <Gold.Chemscore.DEInternal>
1.2456

> <Gold.Chemscore.Rot>
2.7550

> <Gold.Chemscore.Internal.Correction>
   9.000000E+99

> <Gold.Chemscore.Hbonds>
donor molecule, donor type, donor heavy atom, donor atom, acceptor molecule, acceptor atom, score
      L1  H    14    39       P1  7957  0.81
      L1  H    15    46       P1  8028  0.98
      P1  H  7989  7998       L1    14  0.03
      P1  H  8011  8017       L1    14  0.21

> <Gold.Chemscore.Hbond.Weighted>
-8.1399

> <Gold.Chemscore.Metal.Weighted>
-0.0000

> <Gold.Chemscore.Lipo.Weighted>
-13.1701

> <Gold.Chemscore.Internal_Hbond.Weighted>
0.0000

> <Gold.Chemscore.DEClash.Weighted>
0.1148

> <Gold.Chemscore.DEInternal.Weighted>
1.2456

> <Gold.Chemscore.Rot.Weighted>
7.0527

> <Gold.Chemscore.Internal.Correction.Weighted>
   9.000000E+99

> <Gold.Protein.RotatedTorsions>
[ 6907 6896 6895 6894 ] final -132.92 input  -60.11 | X-H torsion
[ 7974 7965 7964 7962 ] final  110.18 input  175.53 | X-H torsion
[ 8008 7997 7996 7995 ] final   95.85 input   59.86 | X-H torsion
[ 10167 10162 10161 10158 ] final -130.16 input  -65.29 | X-H torsion
[ 10718 10713 10712 10709 ] final  126.43 input   66.30 | X-H torsion
[ 10763 10752 10751 10750 ] final  -11.36 input  -60.55 | X-H torsion
[ 11005 11000 10999 10996 ] final   53.86 input  -57.11 | X-H torsion

> <Gold.Protein.ActiveResidues>
 VAL166  LYS551  ARG553  GLY616  TRP617  ASP618  TYR619  PRO620  LYS621  CYS622 
 ASP623  PHE694  ASN695  SER759  ASP760  ASP761  ALA762  ILE779  LEU786  VAL792 
 PHE793  MET794  SER795  GLU796  ALA797  LYS798  CYS799  TRP800  GLU811  SER814 

> <Gold.Protein.RotatedAtoms>
  150.9680  133.6374  159.2742 H   0  0  0  0  0  0  0  0  0  0  0  0  # atno 6907 bound_to 6896
  151.3674  135.0915  159.9464 H   0  0  0  0  0  0  0  0  0  0  0  0  # atno 6908 bound_to 6896
  152.5172  133.9241  159.7603 H   0  0  0  0  0  0  0  0  0  0  0  0  # atno 6909 bound_to 6896
  145.2582  139.2712  143.4031 H   0  0  0  0  0  0  0  0  0  0  0  0  # atno 7974 bound_to 7965
  156.0733  140.3281  155.7603 H   0  0  0  0  0  0  0  0  0  0  0  0  # atno 8008 bound_to 7997
  155.5270  140.0590  157.2913 H   0  0  0  0  0  0  0  0  0  0  0  0  # atno 8009 bound_to 7997
  154.4542  140.1934  156.0446 H   0  0  0  0  0  0  0  0  0  0  0  0  # atno 8010 bound_to 7997
  139.9322  143.6258  152.2526 H   0  0  0  0  0  0  0  0  0  0  0  0  # atno 10167 bound_to 10162
  157.5419  131.1096  150.8844 H   0  0  0  0  0  0  0  0  0  0  0  0  # atno 10718 bound_to 10713
  153.4826  135.7017  153.5929 H   0  0  0  0  0  0  0  0  0  0  0  0  # atno 10763 bound_to 10752
  153.4136  135.3842  155.2066 H   0  0  0  0  0  0  0  0  0  0  0  0  # atno 10764 bound_to 10752
  154.8721  135.3910  154.4277 H   0  0  0  0  0  0  0  0  0  0  0  0  # atno 10765 bound_to 10752
  140.0733  134.5439  155.9023 H   0  0  0  0  0  0  0  0  0  0  0  0  # atno 11005 bound_to 11000
  146.3283  140.2992  142.8619 LP  0  0  0  0  0  0  0  0  0  0  0  0  # atno 17320 bound_to 7965
  144.9442  140.8110  143.5612 LP  0  0  0  0  0  0  0  0  0  0  0  0  # atno 17321 bound_to 7965
  139.6772  144.7658  151.1674 LP  0  0  0  0  0  0  0  0  0  0  0  0  # atno 17342 bound_to 10162
  140.7634  143.5777  150.8928 LP  0  0  0  0  0  0  0  0  0  0  0  0  # atno 17343 bound_to 10162
  156.9394  130.5379  149.5280 LP  0  0  0  0  0  0  0  0  0  0  0  0  # atno 17370 bound_to 10713
  156.0504  130.5574  150.8976 LP  0  0  0  0  0  0  0  0  0  0  0  0  # atno 17371 bound_to 10713
  141.2020  133.6622  156.5982 LP  0  0  0  0  0  0  0  0  0  0  0  0  # atno 17394 bound_to 11000
  140.3595  134.7700  157.4524 LP  0  0  0  0  0  0  0  0  0  0  0  0  # atno 17395 bound_to 11000

$$$$
