AV-unprocessed.smi:2003|AV-procd|sdf|8120|dock2
  -GOLD-   2272010353D 1   1.00000     0.00000
 Structure written by MMmdl.
 44 45  0  0  0  0  0  0  0  0  2 V2000
  150.9410  142.1301  156.7912 C   0  0  0  0  0  0  0  0  0  0  0  0
  150.6569  140.9803  155.8706 C   0  0  0  0  0  0  0  0  0  0  0  0
  149.4775  140.7367  155.1083 C   0  0  0  0  0  0  0  0  0  0  0  0
  149.7707  139.5646  154.4661 C   0  0  0  0  0  0  0  0  0  0  0  0
  149.0063  138.8503  153.5977 N   0  0  0  0  0  0  0  0  0  0  0  0
  147.6772  138.9097  153.4036 C   0  0  0  0  0  0  0  0  0  0  0  0
  146.9022  139.6644  153.9911 O   0  0  0  0  0  0  0  0  0  0  0  0
  147.2830  138.0219  152.4784 N   0  0  0  0  0  0  0  0  0  0  0  0
  145.9079  137.8258  152.0233 C   0  0  0  0  0  0  0  0  0  0  0  0
  145.2536  136.5395  152.5939 C   0  0  1  0  0  0  0  0  0  0  0  0
  143.7373  136.5038  152.2794 C   0  0  0  0  0  0  0  0  0  0  0  0
  145.9914  135.3286  152.1025 N   0  3  0  0  0  0  0  0  0  0  0  0
  146.0893  134.2588  153.1330 C   0  0  0  0  0  0  0  0  0  0  0  0
  146.9354  133.0787  152.6282 C   0  0  0  0  0  0  0  0  0  0  0  0
  146.3638  132.5628  151.4355 O   0  0  0  0  0  0  0  0  0  0  0  0
  146.3519  133.5356  150.4014 C   0  0  0  0  0  0  0  0  0  0  0  0
  145.4970  134.7423  150.8256 C   0  0  0  0  0  0  0  0  0  0  0  0
  151.0340  139.1590  154.8355 N   0  0  0  0  0  0  0  0  0  0  0  0
  151.7836  137.9877  154.4245 C   0  0  0  0  0  0  0  0  0  0  0  0
  151.5791  140.0392  155.7027 N   0  0  0  0  0  0  0  0  0  0  0  0
  150.0947  142.8159  156.8379 H   0  0  0  0  0  0  0  0  0  0  0  0
  151.8090  142.6977  156.4549 H   0  0  0  0  0  0  0  0  0  0  0  0
  151.1411  141.7816  157.8048 H   0  0  0  0  0  0  0  0  0  0  0  0
  148.5804  141.3349  155.0575 H   0  0  0  0  0  0  0  0  0  0  0  0
  149.5098  138.1818  153.0337 H   0  0  0  0  0  0  0  0  0  0  0  0
  147.9894  137.4410  152.0502 H   0  0  0  0  0  0  0  0  0  0  0  0
  145.2902  138.6938  152.2609 H   0  0  0  0  0  0  0  0  0  0  0  0
  145.9602  137.7900  150.9368 H   0  0  0  0  0  0  0  0  0  0  0  0
  145.3426  136.5616  153.6815 H   0  0  0  0  0  0  0  0  0  0  0  0
  143.2257  137.3922  152.6477 H   0  0  0  0  0  0  0  0  0  0  0  0
  143.2365  135.6655  152.7635 H   0  0  0  0  0  0  0  0  0  0  0  0
  143.5534  136.4416  151.2063 H   0  0  0  0  0  0  0  0  0  0  0  0
  146.5373  134.6342  154.0511 H   0  0  0  0  0  0  0  0  0  0  0  0
  145.0884  133.9090  153.3911 H   0  0  0  0  0  0  0  0  0  0  0  0
  147.9688  133.3829  152.4541 H   0  0  0  0  0  0  0  0  0  0  0  0
  146.9586  132.2868  153.3771 H   0  0  0  0  0  0  0  0  0  0  0  0
  147.3711  133.8448  150.1636 H   0  0  0  0  0  0  0  0  0  0  0  0
  145.9396  133.0842  149.4988 H   0  0  0  0  0  0  0  0  0  0  0  0
  144.4541  134.4420  150.9384 H   0  0  0  0  0  0  0  0  0  0  0  0
  145.5448  135.4714  150.0173 H   0  0  0  0  0  0  0  0  0  0  0  0
  151.1531  137.1014  154.4996 H   0  0  0  0  0  0  0  0  0  0  0  0
  152.6591  137.8502  155.0609 H   0  0  0  0  0  0  0  0  0  0  0  0
  152.1102  138.1076  153.3912 H   0  0  0  0  0  0  0  0  0  0  0  0
  146.9341  135.6367  151.9106 H   0  0  0  0  0  0  0  0  0  0  0  0
  1  2  1  0  0  0  0
  1 21  1  0  0  0  0
  1 22  1  0  0  0  0
  1 23  1  0  0  0  0
  2 20  2  0  0  0  0
  2  3  1  0  0  0  0
  3  4  2  0  0  0  0
  3 24  1  0  0  0  0
  4  5  1  0  0  0  0
  4 18  1  0  0  0  0
  5  6  1  0  0  0  0
  5 25  1  0  0  0  0
  6  7  2  0  0  0  0
  6  8  1  0  0  0  0
  8  9  1  0  0  0  0
  8 26  1  0  0  0  0
  9 10  1  0  0  0  0
  9 27  1  0  0  0  0
  9 28  1  0  0  0  0
 10 11  1  0  0  0  0
 10 12  1  0  0  0  0
 10 29  1  0  0  0  0
 11 30  1  0  0  0  0
 11 31  1  0  0  0  0
 11 32  1  0  0  0  0
 12 17  1  0  0  0  0
 12 13  1  0  0  0  0
 12 44  1  0  0  0  0
 13 14  1  0  0  0  0
 13 33  1  0  0  0  0
 13 34  1  0  0  0  0
 14 15  1  0  0  0  0
 14 35  1  0  0  0  0
 14 36  1  0  0  0  0
 15 16  1  0  0  0  0
 16 17  1  0  0  0  0
 16 37  1  0  0  0  0
 16 38  1  0  0  0  0
 17 39  1  0  0  0  0
 17 40  1  0  0  0  0
 18 19  1  0  0  0  0
 18 20  1  0  0  0  0
 19 41  1  0  0  0  0
 19 42  1  0  0  0  0
 19 43  1  0  0  0  0
M  CHG  1  12   1
M  END
> <s_m_source_file>
AV-unprocessed.smi

> <i_m_source_file_index>
2003

> <i_lp_mmshare_version>
43012

> <i_f3d_flags>
0

> <s_epik_input>
W0NIM11jMVtjSF1jKG4objEpW0NIM10pW05IXUMoPU8pW05IXVtDSDJdW0NASF0oW0NIM10pTjJbQ0gyXVtDSDJdT1tDSDJdW0NIMl0y

> <s_epik_cmdline>
J2VwaWtfcHl0aG9uJywgJy1waCcsICc3LjAnLCAnLXRuJywgJzgnLCAnLW1hJywgJzIwMCcsICctbWV0YWxfYmluZGluZycsICctaW1hZScsICc8aW5maWxlLm1hZT4nLCAnLW9tYWUnLCAnPG91dGZpbGUubWFlPic=

> <r_lp_tautomer_probability>
1

> <r_epik_Ionization_Penalty>
0.663903

> <r_epik_Ionization_Penalty_Charging>
0.663826

> <r_epik_Ionization_Penalty_Neutral>
7.78239e-05

> <r_epik_State_Penalty>
0.683414

> <r_epik_Charging_Adjusted_Penalty>
1.34724

> <i_epik_Tot_Q>
1

> <i_epik_Tot_abs_Q>
1

> <r_epik_Metal_State_Penalty>
0.683419

> <b_epik_Metal_Only>
0

> <s_lp_Force_Field>
OPLS_2005

> <r_lp_Energy>
22.6974

> <b_lp_Chiralities_Consistent>
1

> <s_lp_Variant>
AV-unprocessed.smi:2003-4

> <Gold.Version>
5.8.1

> <Gold.Id.Protein>
6NUR|6NUR_protein|mol2

> <Gold.PLP.Fitness>
44.6377

> <Gold.PLP.PLP>
-37.1594

> <Gold.PLP.part.hbond>
-4.4152

> <Gold.PLP.part.metal>
0.0000

> <Gold.PLP.part.buried>
-2.7056

> <Gold.PLP.part.nonpolar>
-30.2536

> <Gold.PLP.part.repulsive>
0.4487

> <Gold.PLP.ligand.clash>
0.0000

> <Gold.PLP.ligand.torsion>
1.0004

> <Gold.PLP.Chemscore.Hbond>
3.1226

> <Gold.PLP.Chemscore.CHOScore>
0.0000

> <Gold.PLP.Chemscore.Metal>
0.0000

> <Gold.Chemscore.Hbonds>
donor molecule, donor type, donor heavy atom, donor atom, acceptor molecule, acceptor atom, score
      L1  H     5    25       P1  7948  0.24
      L1  H     8    26       P1  7948  1.00
      L1  H    12    44       P1  7948  1.79

> <Gold.PLP.Chemscore.Internal.Correction>
0.1115

> <Gold.Rescore>
     Score         DG    S(hbond)    S(metal)    S(lipo)     H(rot)  DE(clash)    DE(int)     intcor
     14.40     -16.02       1.98        0.00      67.25       1.54       0.06       1.56       ----

> <Gold.Chemscore.Fitness>
14.4008

> <Gold.Chemscore.DG>
-16.0197

> <Gold.Chemscore.ZeroCoef>
-5.4800

> <Gold.Chemscore.Hbond>
1.9802

> <Gold.Chemscore.Metal>
0.0000

> <Gold.Chemscore.Lipo>
67.2455

> <Gold.Chemscore.Internal_Hbond>
0.0000

> <Gold.Chemscore.DEClash>
0.0573

> <Gold.Chemscore.DEInternal>
1.5616

> <Gold.Chemscore.Rot>
1.5398

> <Gold.Chemscore.Internal.Correction>
   9.000000E+99

> <Gold.Chemscore.Hbonds>
donor molecule, donor type, donor heavy atom, donor atom, acceptor molecule, acceptor atom, score
      L1  H     5    25       P1  7948  0.22
      L1  H     8    26       P1  7948  0.93
      L1  H    12    44       P1  7948  0.86

> <Gold.Chemscore.Hbond.Weighted>
-6.6140

> <Gold.Chemscore.Metal.Weighted>
-0.0000

> <Gold.Chemscore.Lipo.Weighted>
-7.8677

> <Gold.Chemscore.Internal_Hbond.Weighted>
0.0000

> <Gold.Chemscore.DEClash.Weighted>
0.0573

> <Gold.Chemscore.DEInternal.Weighted>
1.5616

> <Gold.Chemscore.Rot.Weighted>
3.9420

> <Gold.Chemscore.Internal.Correction.Weighted>
   9.000000E+99

> <Gold.Protein.RotatedTorsions>
[ 6907 6896 6895 6894 ] final   34.21 input  -60.11 | X-H torsion
[ 7974 7965 7964 7962 ] final -136.36 input  175.53 | X-H torsion
[ 8008 7997 7996 7995 ] final  141.70 input   59.86 | X-H torsion
[ 10167 10162 10161 10158 ] final  -82.43 input  -65.29 | X-H torsion
[ 10718 10713 10712 10709 ] final -156.85 input   66.30 | X-H torsion
[ 10763 10752 10751 10750 ] final   37.39 input  -60.55 | X-H torsion
[ 11005 11000 10999 10996 ] final -173.16 input  -57.11 | X-H torsion

> <Gold.Protein.ActiveResidues>
 VAL166  LYS551  ARG553  GLY616  TRP617  ASP618  TYR619  PRO620  LYS621  CYS622 
 ASP623  PHE694  ASN695  SER759  ASP760  ASP761  ALA762  ILE779  LEU786  VAL792 
 PHE793  MET794  SER795  GLU796  ALA797  LYS798  CYS799  TRP800  GLU811  SER814 

> <Gold.Protein.RotatedAtoms>
  152.0992  134.9354  160.0569 H   0  0  0  0  0  0  0  0  0  0  0  0  # atno 6907 bound_to 6896
  152.0575  133.4042  159.4411 H   0  0  0  0  0  0  0  0  0  0  0  0  # atno 6908 bound_to 6896
  150.6839  134.3158  159.4809 H   0  0  0  0  0  0  0  0  0  0  0  0  # atno 6909 bound_to 6896
  144.8933  140.6672  143.5131 H   0  0  0  0  0  0  0  0  0  0  0  0  # atno 7974 bound_to 7965
  156.2961  140.2308  156.4608 H   0  0  0  0  0  0  0  0  0  0  0  0  # atno 8008 bound_to 7997
  154.8020  140.0448  157.1300 H   0  0  0  0  0  0  0  0  0  0  0  0  # atno 8009 bound_to 7997
  154.9522  140.3043  155.5073 H   0  0  0  0  0  0  0  0  0  0  0  0  # atno 8010 bound_to 7997
  140.4320  143.2545  151.8745 H   0  0  0  0  0  0  0  0  0  0  0  0  # atno 10167 bound_to 10162
  156.5322  130.8526  151.2720 H   0  0  0  0  0  0  0  0  0  0  0  0  # atno 10718 bound_to 10713
  153.0039  135.6279  154.2137 H   0  0  0  0  0  0  0  0  0  0  0  0  # atno 10763 bound_to 10752
  154.1881  135.2810  155.3032 H   0  0  0  0  0  0  0  0  0  0  0  0  # atno 10764 bound_to 10752
  154.5781  135.5656  153.7219 H   0  0  0  0  0  0  0  0  0  0  0  0  # atno 10765 bound_to 10752
  140.4889  134.6004  157.4947 H   0  0  0  0  0  0  0  0  0  0  0  0  # atno 11005 bound_to 11000
  145.3744  139.1651  143.4314 LP  0  0  0  0  0  0  0  0  0  0  0  0  # atno 17320 bound_to 7965
  146.3067  140.3819  142.8685 LP  0  0  0  0  0  0  0  0  0  0  0  0  # atno 17321 bound_to 7965
  139.4785  144.5324  151.8648 LP  0  0  0  0  0  0  0  0  0  0  0  0  # atno 17342 bound_to 10162
  140.4416  144.1979  150.5891 LP  0  0  0  0  0  0  0  0  0  0  0  0  # atno 17343 bound_to 10162
  157.7420  130.9881  150.2482 LP  0  0  0  0  0  0  0  0  0  0  0  0  # atno 17370 bound_to 10713
  156.3049  130.3763  149.7716 LP  0  0  0  0  0  0  0  0  0  0  0  0  # atno 17371 bound_to 10713
  139.9781  134.7182  155.9911 LP  0  0  0  0  0  0  0  0  0  0  0  0  # atno 17394 bound_to 11000
  141.1494  133.6551  156.3967 LP  0  0  0  0  0  0  0  0  0  0  0  0  # atno 17395 bound_to 11000

$$$$
