AV-unprocessed.smi:1047|AV-procd|sdf|4584|dock4
  -GOLD-   22720 3 53D 1   1.00000     0.00000
 Structure written by MMmdl.
 58 60  0  0  0  0  0  0  0  0  4 V2000
  148.7537  132.2459  153.0292 C   0  0  0  0  0  0  0  0  0  0  0  0
  148.8086  131.7799  154.4910 C   0  0  0  0  0  0  0  0  0  0  0  0
  149.5262  132.7390  155.3682 N   0  3  1  0  0  0  0  0  0  0  0  0
  150.9725  132.4318  155.4723 C   0  0  0  0  0  0  0  0  0  0  0  0
  151.6650  133.4103  156.4354 C   0  0  0  0  0  0  0  0  0  0  0  0
  151.4582  134.7464  155.9926 O   0  0  0  0  0  0  0  0  0  0  0  0
  150.0783  135.0946  155.9560 C   0  0  1  0  0  0  0  0  0  0  0  0
  149.9522  136.5844  155.5930 C   0  0  0  0  0  0  0  0  0  0  0  0
  150.6257  136.9052  154.3173 N   0  3  0  0  0  0  0  0  0  0  0  0
  151.0697  138.3090  154.2033 C   0  0  0  0  0  0  0  0  0  0  0  0
  152.1064  138.6574  155.2846 C   0  0  1  0  0  0  0  0  0  0  0  0
  152.9193  139.7118  154.8067 O   0  0  0  0  0  0  0  0  0  0  0  0
  151.4346  139.0768  156.6074 C   0  0  0  0  0  0  0  0  0  0  0  0
  151.0177  140.4870  156.6199 N   0  0  0  0  0  0  0  0  0  0  0  0
  150.2893  141.1849  155.7059 C   0  0  0  0  0  0  0  0  0  0  0  0
  150.1766  142.4639  156.1592 N   0  3  0  0  0  0  0  0  0  0  0  0
  150.8438  142.5866  157.3795 C   0  0  0  0  0  0  0  0  0  0  0  0
  151.0077  143.6810  158.2202 C   0  0  0  0  0  0  0  0  0  0  0  0
  151.7466  143.4775  159.4074 C   0  0  0  0  0  0  0  0  0  0  0  0
  151.9418  144.6523  160.3506 C   0  0  0  0  0  0  0  0  0  0  0  0
  152.2951  142.2059  159.7168 C   0  0  0  0  0  0  0  0  0  0  0  0
  153.0834  141.9977  160.9986 C   0  0  0  0  0  0  0  0  0  0  0  0
  152.1208  141.1063  158.8463 C   0  0  0  0  0  0  0  0  0  0  0  0
  151.3880  141.3227  157.6813 C   0  0  0  0  0  0  0  0  0  0  0  0
  149.3259  134.1591  154.9853 C   0  0  0  0  0  0  0  0  0  0  0  0
  148.1438  131.5657  152.4340 H   0  0  0  0  0  0  0  0  0  0  0  0
  149.7418  132.2757  152.5708 H   0  0  0  0  0  0  0  0  0  0  0  0
  148.3124  133.2397  152.9479 H   0  0  0  0  0  0  0  0  0  0  0  0
  147.7822  131.6732  154.8452 H   0  0  0  0  0  0  0  0  0  0  0  0
  149.2641  130.7910  154.5623 H   0  0  0  0  0  0  0  0  0  0  0  0
  151.1097  131.4104  155.8296 H   0  0  0  0  0  0  0  0  0  0  0  0
  151.4324  132.4903  154.4845 H   0  0  0  0  0  0  0  0  0  0  0  0
  151.2895  133.2879  157.4526 H   0  0  0  0  0  0  0  0  0  0  0  0
  152.7362  133.2116  156.4664 H   0  0  0  0  0  0  0  0  0  0  0  0
  149.6640  134.9646  156.9577 H   0  0  0  0  0  0  0  0  0  0  0  0
  148.8990  136.8599  155.5246 H   0  0  0  0  0  0  0  0  0  0  0  0
  150.3888  137.1934  156.3856 H   0  0  0  0  0  0  0  0  0  0  0  0
  151.4308  136.3034  154.2171 H   0  0  0  0  0  0  0  0  0  0  0  0
  151.4832  138.4857  153.2092 H   0  0  0  0  0  0  0  0  0  0  0  0
  150.1977  138.9564  154.3061 H   0  0  0  0  0  0  0  0  0  0  0  0
  152.7440  137.7915  155.4694 H   0  0  0  0  0  0  0  0  0  0  0  0
  152.3670  140.4562  154.6193 H   0  0  0  0  0  0  0  0  0  0  0  0
  150.5753  138.4457  156.8356 H   0  0  0  0  0  0  0  0  0  0  0  0
  152.1342  138.9463  157.4342 H   0  0  0  0  0  0  0  0  0  0  0  0
  149.8778  140.7970  154.7850 H   0  0  0  0  0  0  0  0  0  0  0  0
  150.5870  144.6463  157.9782 H   0  0  0  0  0  0  0  0  0  0  0  0
  153.0030  144.8608  160.4889 H   0  0  0  0  0  0  0  0  0  0  0  0
  151.5004  144.4391  161.3246 H   0  0  0  0  0  0  0  0  0  0  0  0
  151.4725  145.5573  159.9630 H   0  0  0  0  0  0  0  0  0  0  0  0
  153.4297  140.9679  161.0926 H   0  0  0  0  0  0  0  0  0  0  0  0
  152.4651  142.2211  161.8684 H   0  0  0  0  0  0  0  0  0  0  0  0
  153.9592  142.6464  161.0199 H   0  0  0  0  0  0  0  0  0  0  0  0
  152.5373  140.1392  159.0862 H   0  0  0  0  0  0  0  0  0  0  0  0
  149.6761  134.3062  153.9626 H   0  0  0  0  0  0  0  0  0  0  0  0
  148.2649  134.4071  154.9984 H   0  0  0  0  0  0  0  0  0  0  0  0
  149.9877  136.7187  153.5566 H   0  0  0  0  0  0  0  0  0  0  0  0
  149.1441  132.6221  156.2963 H   0  0  0  0  0  0  0  0  0  0  0  0
  149.6827  143.1985  155.6681 H   0  0  0  0  0  0  0  0  0  0  0  0
  1  2  1  0  0  0  0
  1 26  1  0  0  0  0
  1 27  1  0  0  0  0
  1 28  1  0  0  0  0
  2  3  1  0  0  0  0
  2 29  1  0  0  0  0
  2 30  1  0  0  0  0
  3 25  1  0  0  0  0
  3  4  1  0  0  0  0
  3 57  1  0  0  0  0
  4  5  1  0  0  0  0
  4 31  1  0  0  0  0
  4 32  1  0  0  0  0
  5  6  1  0  0  0  0
  5 33  1  0  0  0  0
  5 34  1  0  0  0  0
  6  7  1  0  0  0  0
  7  8  1  0  0  0  0
  7 25  1  0  0  0  0
  7 35  1  0  0  0  0
  8  9  1  0  0  0  0
  8 36  1  0  0  0  0
  8 37  1  0  0  0  0
  9 10  1  0  0  0  0
  9 38  1  0  0  0  0
  9 56  1  0  0  0  0
 10 11  1  0  0  0  0
 10 39  1  0  0  0  0
 10 40  1  0  0  0  0
 11 12  1  0  0  0  0
 11 13  1  0  0  0  0
 11 41  1  0  0  0  0
 12 42  1  0  0  0  0
 13 14  1  0  0  0  0
 13 43  1  0  0  0  0
 13 44  1  0  0  0  0
 14 24  1  0  0  0  0
 14 15  1  0  0  0  0
 15 16  2  0  0  0  0
 15 45  1  0  0  0  0
 16 17  1  0  0  0  0
 16 58  1  0  0  0  0
 17 24  2  0  0  0  0
 17 18  1  0  0  0  0
 18 19  2  0  0  0  0
 18 46  1  0  0  0  0
 19 20  1  0  0  0  0
 19 21  1  0  0  0  0
 20 47  1  0  0  0  0
 20 48  1  0  0  0  0
 20 49  1  0  0  0  0
 21 22  1  0  0  0  0
 21 23  2  0  0  0  0
 22 50  1  0  0  0  0
 22 51  1  0  0  0  0
 22 52  1  0  0  0  0
 23 24  1  0  0  0  0
 23 53  1  0  0  0  0
 25 54  1  0  0  0  0
 25 55  1  0  0  0  0
M  CHG  1   3   1
M  CHG  1   9   1
M  CHG  1  16   1
M  END
> <s_m_source_file>
AV-unprocessed.smi

> <i_m_source_file_index>
1047

> <i_lp_mmshare_version>
43012

> <i_f3d_flags>
0

> <s_epik_input>
W0NIM11bQ0gyXU4xW0NIMl1bQ0gyXU9bQ0BIXShbQ0gyXTEpW0NIMl1bTkhdW0NIMl1bQ0BIXShbT0hdKVtDSDJdbihbY0hdbjIpYyhjMjMpW2NIXWMoW0NIM10pYyhbY0hdMylbQ0gzXQ==

> <s_epik_cmdline>
J2VwaWtfcHl0aG9uJywgJy1waCcsICc3LjAnLCAnLXRuJywgJzgnLCAnLW1hJywgJzIwMCcsICctbWV0YWxfYmluZGluZycsICctaW1hZScsICc8aW5maWxlLm1hZT4nLCAnLW9tYWUnLCAnPG91dGZpbGUubWFlPic=

> <r_epik_Ionization_Penalty>
1.6114

> <r_epik_Ionization_Penalty_Charging>
1.61139

> <r_epik_Ionization_Penalty_Neutral>
5.04732e-06

> <r_epik_State_Penalty>
1.63724

> <r_epik_Charging_Adjusted_Penalty>
3.24864

> <i_epik_Tot_Q>
3

> <i_epik_Tot_abs_Q>
3

> <r_epik_Metal_State_Penalty>
5.64594

> <b_epik_Metal_Only>
0

> <s_lp_Force_Field>
OPLS_2005

> <r_lp_Energy>
40.2566

> <b_lp_Chiralities_Consistent>
1

> <s_lp_Variant>
AV-unprocessed.smi:1047-25

> <Gold.Version>
5.8.1

> <Gold.Id.Protein>
6NUR|6NUR_protein|mol2

> <Gold.PLP.Fitness>
68.7243

> <Gold.PLP.PLP>
-53.4078

> <Gold.PLP.part.hbond>
-5.9145

> <Gold.PLP.part.metal>
0.0000

> <Gold.PLP.part.buried>
-6.0573

> <Gold.PLP.part.nonpolar>
-41.7725

> <Gold.PLP.part.repulsive>
0.2076

> <Gold.PLP.ligand.clash>
0.0000

> <Gold.PLP.ligand.torsion>
1.1045

> <Gold.PLP.Chemscore.Hbond>
5.7848

> <Gold.PLP.Chemscore.CHOScore>
0.0000

> <Gold.PLP.Chemscore.Metal>
0.0000

> <Gold.Chemscore.Hbonds>
donor molecule, donor type, donor heavy atom, donor atom, acceptor molecule, acceptor atom, score
      L1  H     9    56       P1  7948  1.90
      L1  H    16    58       P1  8028  2.00
      P1  H  7997  8009       L1    12  1.00
      P1  H 10752 10763       L1     6  0.84

> <Gold.PLP.Chemscore.Internal.Correction>
0.1712

> <Gold.Rescore>
     Score         DG    S(hbond)    S(metal)    S(lipo)     H(rot)  DE(clash)    DE(int)     intcor
     21.68     -23.59       2.82        0.00     135.23       2.78       0.13       1.77       ----

> <Gold.Chemscore.Fitness>
21.6821

> <Gold.Chemscore.DG>
-23.5898

> <Gold.Chemscore.ZeroCoef>
-5.4800

> <Gold.Chemscore.Hbond>
2.8194

> <Gold.Chemscore.Metal>
0.0000

> <Gold.Chemscore.Lipo>
135.2304

> <Gold.Chemscore.Internal_Hbond>
0.0000

> <Gold.Chemscore.DEClash>
0.1343

> <Gold.Chemscore.DEInternal>
1.7734

> <Gold.Chemscore.Rot>
2.7848

> <Gold.Chemscore.Internal.Correction>
   9.000000E+99

> <Gold.Chemscore.Hbonds>
donor molecule, donor type, donor heavy atom, donor atom, acceptor molecule, acceptor atom, score
      L1  H     9    56       P1  7948  0.21
      L1  H    16    58       P1  8028  0.95
      P1  H  7997  8009       L1    12  0.77
      P1  H 10752 10763       L1     6  0.60

> <Gold.Chemscore.Hbond.Weighted>
-9.4169

> <Gold.Chemscore.Metal.Weighted>
-0.0000

> <Gold.Chemscore.Lipo.Weighted>
-15.8220

> <Gold.Chemscore.Internal_Hbond.Weighted>
0.0000

> <Gold.Chemscore.DEClash.Weighted>
0.1343

> <Gold.Chemscore.DEInternal.Weighted>
1.7734

> <Gold.Chemscore.Rot.Weighted>
7.1291

> <Gold.Chemscore.Internal.Correction.Weighted>
   9.000000E+99

> <Gold.Protein.RotatedTorsions>
[ 6907 6896 6895 6894 ] final -105.27 input  -60.11 | X-H torsion
[ 7974 7965 7964 7962 ] final  179.25 input  175.53 | X-H torsion
[ 8008 7997 7996 7995 ] final -135.73 input   59.86 | X-H torsion
[ 10167 10162 10161 10158 ] final  122.26 input  -65.29 | X-H torsion
[ 10718 10713 10712 10709 ] final   91.08 input   66.30 | X-H torsion
[ 10763 10752 10751 10750 ] final   85.06 input  -60.55 | X-H torsion
[ 11005 11000 10999 10996 ] final  135.84 input  -57.11 | X-H torsion

> <Gold.Protein.ActiveResidues>
 VAL166  LYS551  ARG553  GLY616  TRP617  ASP618  TYR619  PRO620  LYS621  CYS622 
 ASP623  PHE694  ASN695  SER759  ASP760  ASP761  ALA762  ILE779  LEU786  VAL792 
 PHE793  MET794  SER795  GLU796  ALA797  LYS798  CYS799  TRP800  GLU811  SER814 

> <Gold.Protein.RotatedAtoms>
  150.7328  134.0152  159.3682 H   0  0  0  0  0  0  0  0  0  0  0  0  # atno 6907 bound_to 6896
  151.8114  135.0677  160.0422 H   0  0  0  0  0  0  0  0  0  0  0  0  # atno 6908 bound_to 6896
  152.3070  133.5677  159.5692 H   0  0  0  0  0  0  0  0  0  0  0  0  # atno 6909 bound_to 6896
  144.7147  140.0519  143.6435 H   0  0  0  0  0  0  0  0  0  0  0  0  # atno 7974 bound_to 7965
  155.3836  140.0495  157.3043 H   0  0  0  0  0  0  0  0  0  0  0  0  # atno 8008 bound_to 7997
  154.5070  140.2178  155.9192 H   0  0  0  0  0  0  0  0  0  0  0  0  # atno 8009 bound_to 7997
  156.1538  140.3130  155.8697 H   0  0  0  0  0  0  0  0  0  0  0  0  # atno 8010 bound_to 7997
  139.5870  144.7010  151.3385 H   0  0  0  0  0  0  0  0  0  0  0  0  # atno 10167 bound_to 10162
  157.6960  131.0394  150.3675 H   0  0  0  0  0  0  0  0  0  0  0  0  # atno 10718 bound_to 10713
  153.1439  135.4631  154.9537 H   0  0  0  0  0  0  0  0  0  0  0  0  # atno 10763 bound_to 10752
  154.7770  135.3176  154.8073 H   0  0  0  0  0  0  0  0  0  0  0  0  # atno 10764 bound_to 10752
  153.8590  135.6914  153.4839 H   0  0  0  0  0  0  0  0  0  0  0  0  # atno 10765 bound_to 10752
  140.0006  134.9480  157.0064 H   0  0  0  0  0  0  0  0  0  0  0  0  # atno 11005 bound_to 11000
  145.9937  139.3035  143.0970 LP  0  0  0  0  0  0  0  0  0  0  0  0  # atno 17320 bound_to 7965
  145.8874  140.9325  143.0570 LP  0  0  0  0  0  0  0  0  0  0  0  0  # atno 17321 bound_to 7965
  140.7140  143.7316  150.7619 LP  0  0  0  0  0  0  0  0  0  0  0  0  # atno 17342 bound_to 10162
  140.0863  143.4920  152.2503 LP  0  0  0  0  0  0  0  0  0  0  0  0  # atno 17343 bound_to 10162
  156.4104  130.3933  149.6896 LP  0  0  0  0  0  0  0  0  0  0  0  0  # atno 17370 bound_to 10713
  156.4182  130.7755  151.2772 LP  0  0  0  0  0  0  0  0  0  0  0  0  # atno 17371 bound_to 10713
  140.4734  134.1363  155.7206 LP  0  0  0  0  0  0  0  0  0  0  0  0  # atno 17394 bound_to 11000
  141.1639  133.8740  157.1770 LP  0  0  0  0  0  0  0  0  0  0  0  0  # atno 17395 bound_to 11000

$$$$
