AV-unprocessed.smi:1741|AV-procd|sdf|7018|dock3
  -GOLD-   22720 8233D 1   1.00000     0.00000
 Structure written by MMmdl.
 38 39  0  0  0  0  0  0  0  0  1 V2000
  145.9588  143.0993  153.6929 C   0  0  0  0  0  0  0  0  0  0  0  0
  147.2679  142.6192  154.3313 C   0  0  0  0  0  0  0  0  0  0  0  0
  147.5488  141.2339  154.0079 N   0  0  0  0  0  0  0  0  0  0  0  0
  146.8252  140.3832  153.1956 C   0  0  0  0  0  0  0  0  0  0  0  0
  147.4983  139.1943  153.2134 C   0  0  0  0  0  0  0  0  0  0  0  0
  147.1929  137.9766  152.5542 N   0  0  0  0  0  0  0  0  0  0  0  0
  145.9760  137.4645  152.3077 C   0  0  0  0  0  0  0  0  0  0  0  0
  144.9097  138.0056  152.6007 O   0  0  0  0  0  0  0  0  0  0  0  0
  146.0679  136.2745  151.6967 N   0  0  0  0  0  0  0  0  0  0  0  0
  144.9463  135.4318  151.2870 C   0  0  2  0  0  0  0  0  0  0  0  0
  144.0567  135.1684  152.5118 C   0  0  0  0  0  0  0  0  0  0  0  0
  145.4840  134.1297  150.6618 C   0  0  1  0  0  0  0  0  0  0  0  0
  146.0886  133.1420  151.6608 C   0  0  0  0  0  0  0  0  0  0  0  0
  145.9350  131.7943  150.9737 C   0  0  0  0  0  0  0  0  0  0  0  0
  144.9284  132.0600  149.8510 C   0  0  0  0  0  0  0  0  0  0  0  0
  144.4267  133.3648  150.1032 O   0  0  0  0  0  0  0  0  0  0  0  0
  148.6203  139.3974  154.0581 C   0  0  0  0  0  0  0  0  0  0  0  0
  148.6442  140.6326  154.5350 N   0  0  0  0  0  0  0  0  0  0  0  0
  145.7593  144.1385  153.9540 H   0  0  0  0  0  0  0  0  0  0  0  0
  145.1125  142.5019  154.0335 H   0  0  0  0  0  0  0  0  0  0  0  0
  146.0008  143.0328  152.6054 H   0  0  0  0  0  0  0  0  0  0  0  0
  148.1028  143.2353  153.9948 H   0  0  0  0  0  0  0  0  0  0  0  0
  147.2162  142.7206  155.4159 H   0  0  0  0  0  0  0  0  0  0  0  0
  145.9220  140.6986  152.6946 H   0  0  0  0  0  0  0  0  0  0  0  0
  147.9858  137.4303  152.2511 H   0  0  0  0  0  0  0  0  0  0  0  0
  146.9914  135.9208  151.4945 H   0  0  0  0  0  0  0  0  0  0  0  0
  144.3394  135.9472  150.5405 H   0  0  0  0  0  0  0  0  0  0  0  0
  143.1757  134.5846  152.2450 H   0  0  0  0  0  0  0  0  0  0  0  0
  143.7051  136.1036  152.9488 H   0  0  0  0  0  0  0  0  0  0  0  0
  144.5968  134.6210  153.2851 H   0  0  0  0  0  0  0  0  0  0  0  0
  146.2095  134.3535  149.8767 H   0  0  0  0  0  0  0  0  0  0  0  0
  147.1249  133.3739  151.9077 H   0  0  0  0  0  0  0  0  0  0  0  0
  145.5138  133.1448  152.5880 H   0  0  0  0  0  0  0  0  0  0  0  0
  146.8829  131.4440  150.5636 H   0  0  0  0  0  0  0  0  0  0  0  0
  145.5715  131.0402  151.6727 H   0  0  0  0  0  0  0  0  0  0  0  0
  145.4261  132.0478  148.8803 H   0  0  0  0  0  0  0  0  0  0  0  0
  144.1213  131.3273  149.8290 H   0  0  0  0  0  0  0  0  0  0  0  0
  149.4010  138.7049  154.3362 H   0  0  0  0  0  0  0  0  0  0  0  0
  1  2  1  0  0  0  0
  1 19  1  0  0  0  0
  1 20  1  0  0  0  0
  1 21  1  0  0  0  0
  2  3  1  0  0  0  0
  2 22  1  0  0  0  0
  2 23  1  0  0  0  0
  3 18  1  0  0  0  0
  3  4  1  0  0  0  0
  4  5  2  0  0  0  0
  4 24  1  0  0  0  0
  5  6  1  0  0  0  0
  5 17  1  0  0  0  0
  6  7  1  0  0  0  0
  6 25  1  0  0  0  0
  7  8  2  0  0  0  0
  7  9  1  0  0  0  0
  9 10  1  0  0  0  0
  9 26  1  0  0  0  0
 10 11  1  0  0  0  0
 10 12  1  0  0  0  0
 10 27  1  0  0  0  0
 11 28  1  0  0  0  0
 11 29  1  0  0  0  0
 11 30  1  0  0  0  0
 12 16  1  0  0  0  0
 12 13  1  0  0  0  0
 12 31  1  0  0  0  0
 13 14  1  0  0  0  0
 13 32  1  0  0  0  0
 13 33  1  0  0  0  0
 14 15  1  0  0  0  0
 14 34  1  0  0  0  0
 14 35  1  0  0  0  0
 15 16  1  0  0  0  0
 15 36  1  0  0  0  0
 15 37  1  0  0  0  0
 17 18  2  0  0  0  0
 17 38  1  0  0  0  0
M  END
> <s_m_source_file>
AV-unprocessed.smi

> <i_m_source_file_index>
1741

> <i_lp_mmshare_version>
43012

> <i_f3d_flags>
0

> <s_epik_input>
W0NIM11bQ0gyXW4xW2NIXWMoW2NIXW4xKVtOSF1DKD1PKVtOSF1bQ0BIXShbQ0gzXSlbQ0BASF0yW0NIMl1bQ0gyXVtDSDJdTzI=

> <s_epik_cmdline>
J2VwaWtfcHl0aG9uJywgJy1waCcsICc3LjAnLCAnLXRuJywgJzgnLCAnLW1hJywgJzIwMCcsICctbWV0YWxfYmluZGluZycsICctaW1hZScsICc8aW5maWxlLm1hZT4nLCAnLW9tYWUnLCAnPG91dGZpbGUubWFlPic=

> <r_lp_tautomer_probability>
1

> <r_epik_Ionization_Penalty>
0.000179292

> <r_epik_Ionization_Penalty_Charging>
0

> <r_epik_Ionization_Penalty_Neutral>
0.000179292

> <r_epik_State_Penalty>
-0

> <r_epik_Charging_Adjusted_Penalty>
0

> <i_epik_Tot_Q>
0

> <i_epik_Tot_abs_Q>
0

> <r_epik_Metal_State_Penalty>
-0

> <b_epik_Metal_Only>
0

> <s_lp_Force_Field>
OPLS_2005

> <r_lp_Energy>
22.1528

> <b_lp_Chiralities_Consistent>
1

> <s_lp_Variant>
AV-unprocessed.smi:1741-3

> <Gold.Version>
5.8.1

> <Gold.Id.Protein>
6NUR|6NUR_protein|mol2

> <Gold.PLP.Fitness>
38.7148

> <Gold.PLP.PLP>
-30.7227

> <Gold.PLP.part.hbond>
-2.0000

> <Gold.PLP.part.metal>
0.0000

> <Gold.PLP.part.buried>
-1.8583

> <Gold.PLP.part.nonpolar>
-29.8986

> <Gold.PLP.part.repulsive>
3.4745

> <Gold.PLP.ligand.clash>
0.0000

> <Gold.PLP.ligand.torsion>
0.3647

> <Gold.PLP.Chemscore.Hbond>
1.8960

> <Gold.PLP.Chemscore.CHOScore>
1.0000

> <Gold.PLP.Chemscore.Metal>
0.0000

> <Gold.Chemscore.Hbonds>
donor molecule, donor type, donor heavy atom, donor atom, acceptor molecule, acceptor atom, score
      L1  H     6    25       P1  7948  1.00
      L1  H     9    26       P1  7948  0.90
      L1  C     4    24       P1 10175  1.00

> <Gold.PLP.Chemscore.Internal.Correction>
0.0335

> <Gold.Rescore>
     Score         DG    S(hbond)    S(metal)    S(lipo)     H(rot)  DE(clash)    DE(int)     intcor
     13.44     -16.91       1.93        0.00      72.80       1.38       1.88       1.58       ----

> <Gold.Chemscore.Fitness>
13.4416

> <Gold.Chemscore.DG>
-16.9053

> <Gold.Chemscore.ZeroCoef>
-5.4800

> <Gold.Chemscore.Hbond>
1.9274

> <Gold.Chemscore.Metal>
0.0000

> <Gold.Chemscore.Lipo>
72.8034

> <Gold.Chemscore.Internal_Hbond>
0.0000

> <Gold.Chemscore.DEClash>
1.8838

> <Gold.Chemscore.DEInternal>
1.5799

> <Gold.Chemscore.Rot>
1.3790

> <Gold.Chemscore.Internal.Correction>
   9.000000E+99

> <Gold.Chemscore.Hbonds>
donor molecule, donor type, donor heavy atom, donor atom, acceptor molecule, acceptor atom, score
      L1  H     6    25       P1  7948  0.97
      L1  H     9    26       P1  7948  0.84

> <Gold.Chemscore.Hbond.Weighted>
-6.4374

> <Gold.Chemscore.Metal.Weighted>
-0.0000

> <Gold.Chemscore.Lipo.Weighted>
-8.5180

> <Gold.Chemscore.Internal_Hbond.Weighted>
0.0000

> <Gold.Chemscore.DEClash.Weighted>
1.8838

> <Gold.Chemscore.DEInternal.Weighted>
1.5799

> <Gold.Chemscore.Rot.Weighted>
3.5302

> <Gold.Chemscore.Internal.Correction.Weighted>
   9.000000E+99

> <Gold.Protein.RotatedTorsions>
[ 6907 6896 6895 6894 ] final  179.46 input  -60.11 | X-H torsion
[ 7974 7965 7964 7962 ] final   38.97 input  175.53 | X-H torsion
[ 8008 7997 7996 7995 ] final -114.14 input   59.86 | X-H torsion
[ 10167 10162 10161 10158 ] final   65.90 input  -65.29 | X-H torsion
[ 10718 10713 10712 10709 ] final -127.10 input   66.30 | X-H torsion
[ 10763 10752 10751 10750 ] final  -55.53 input  -60.55 | X-H torsion
[ 11005 11000 10999 10996 ] final  -85.26 input  -57.11 | X-H torsion

> <Gold.Protein.ActiveResidues>
 VAL166  LYS551  ARG553  GLY616  TRP617  ASP618  TYR619  PRO620  LYS621  CYS622 
 ASP623  PHE694  ASN695  SER759  ASP760  ASP761  ALA762  ILE779  LEU786  VAL792 
 PHE793  MET794  SER795  GLU796  ALA797  LYS798  CYS799  TRP800  GLU811  SER814 

> <Gold.Protein.RotatedAtoms>
  151.6713  133.3314  159.3196 H   0  0  0  0  0  0  0  0  0  0  0  0  # atno 6907 bound_to 6896
  150.7866  134.6860  159.6480 H   0  0  0  0  0  0  0  0  0  0  0  0  # atno 6908 bound_to 6896
  152.3937  134.6403  160.0149 H   0  0  0  0  0  0  0  0  0  0  0  0  # atno 6909 bound_to 6896
  146.1020  139.5707  142.9408 H   0  0  0  0  0  0  0  0  0  0  0  0  # atno 7974 bound_to 7965
  155.0316  140.0393  157.2476 H   0  0  0  0  0  0  0  0  0  0  0  0  # atno 8008 bound_to 7997
  154.7291  140.2727  155.6448 H   0  0  0  0  0  0  0  0  0  0  0  0  # atno 8009 bound_to 7997
  156.2837  140.2687  156.1986 H   0  0  0  0  0  0  0  0  0  0  0  0  # atno 8010 bound_to 7997
  140.1062  144.4859  150.7006 H   0  0  0  0  0  0  0  0  0  0  0  0  # atno 10167 bound_to 10162
  156.1826  130.6742  151.0323 H   0  0  0  0  0  0  0  0  0  0  0  0  # atno 10718 bound_to 10713
  154.1923  135.6425  153.5063 H   0  0  0  0  0  0  0  0  0  0  0  0  # atno 10763 bound_to 10752
  153.0032  135.5431  154.6402 H   0  0  0  0  0  0  0  0  0  0  0  0  # atno 10764 bound_to 10752
  154.5794  135.2924  155.0721 H   0  0  0  0  0  0  0  0  0  0  0  0  # atno 10765 bound_to 10752
  141.1643  133.7390  156.8988 H   0  0  0  0  0  0  0  0  0  0  0  0  # atno 11005 bound_to 11000
  145.5835  141.0379  143.2109 LP  0  0  0  0  0  0  0  0  0  0  0  0  # atno 17320 bound_to 7965
  144.7440  139.7369  143.7299 LP  0  0  0  0  0  0  0  0  0  0  0  0  # atno 17321 bound_to 7965
  140.6951  143.2399  151.5024 LP  0  0  0  0  0  0  0  0  0  0  0  0  # atno 17342 bound_to 10162
  139.5644  144.2078  152.1742 LP  0  0  0  0  0  0  0  0  0  0  0  0  # atno 17343 bound_to 10162
  157.6878  131.0819  150.7194 LP  0  0  0  0  0  0  0  0  0  0  0  0  # atno 17370 bound_to 10713
  156.7251  130.4692  149.5513 LP  0  0  0  0  0  0  0  0  0  0  0  0  # atno 17371 bound_to 10713
  140.1597  134.9174  157.2698 LP  0  0  0  0  0  0  0  0  0  0  0  0  # atno 17394 bound_to 11000
  140.2626  134.3553  155.7401 LP  0  0  0  0  0  0  0  0  0  0  0  0  # atno 17395 bound_to 11000

$$$$
