AV-unprocessed.smi:3187|AV-procd|sdf|12177|dock6
  -GOLD-   2272018 13D 1   1.00000     0.00000
 Structure written by MMmdl.
 41 42  0  0  0  0  0  0  0  0  2 V2000
  151.5794  137.8883  154.1885 C   0  0  0  0  0  0  0  0  0  0  0  0
  151.0227  139.1068  154.9064 C   0  0  0  0  0  0  0  0  0  0  0  0
  151.6740  139.6078  155.9735 C   0  0  0  0  0  0  0  0  0  0  0  0
  151.2575  140.8545  156.7192 C   0  0  0  0  0  0  0  0  0  0  0  0
  150.3465  141.7320  155.8576 C   0  0  0  0  0  0  0  0  0  0  0  0
  149.2025  140.9141  155.2361 C   0  0  1  0  0  0  0  0  0  0  0  0
  148.2611  141.8585  154.4633 C   0  0  0  0  0  0  0  0  0  0  0  0
  149.7275  139.7386  154.3548 C   0  0  2  0  0  0  0  0  0  0  0  0
  148.6004  138.6963  154.1262 C   0  0  0  0  0  0  0  0  0  0  0  0
  148.1885  138.5960  152.7108 N   0  3  0  0  0  0  0  0  0  0  0  0
  146.7536  138.8491  152.4796 C   0  0  0  0  0  0  0  0  0  0  0  0
  145.8878  137.8320  153.2349 C   0  0  0  0  0  0  0  0  0  0  0  0
  145.7840  136.5816  152.5106 N   0  0  0  0  0  0  0  0  0  0  0  0
  145.5145  136.4167  151.1582 C   0  0  0  0  0  0  0  0  0  0  0  0
  145.5185  135.0609  150.9193 C   0  0  0  0  0  0  0  0  0  0  0  0
  145.7888  134.3776  152.1027 N   0  0  0  0  0  0  0  0  0  0  0  0
  145.9328  135.3433  153.0008 C   0  0  0  0  0  0  0  0  0  0  0  0
  151.6615  138.0796  153.1183 H   0  0  0  0  0  0  0  0  0  0  0  0
  150.9435  137.0179  154.3477 H   0  0  0  0  0  0  0  0  0  0  0  0
  152.5746  137.6333  154.5548 H   0  0  0  0  0  0  0  0  0  0  0  0
  152.5660  139.1195  156.3390 H   0  0  0  0  0  0  0  0  0  0  0  0
  150.7557  140.5599  157.6412 H   0  0  0  0  0  0  0  0  0  0  0  0
  152.1480  141.4161  157.0032 H   0  0  0  0  0  0  0  0  0  0  0  0
  149.9496  142.5456  156.4661 H   0  0  0  0  0  0  0  0  0  0  0  0
  150.9339  142.1984  155.0650 H   0  0  0  0  0  0  0  0  0  0  0  0
  148.6350  140.4874  156.0650 H   0  0  0  0  0  0  0  0  0  0  0  0
  148.7649  142.3029  153.6044 H   0  0  0  0  0  0  0  0  0  0  0  0
  147.9201  142.6752  155.1003 H   0  0  0  0  0  0  0  0  0  0  0  0
  147.3687  141.3527  154.0982 H   0  0  0  0  0  0  0  0  0  0  0  0
  150.0020  140.1615  153.3870 H   0  0  0  0  0  0  0  0  0  0  0  0
  148.9257  137.7186  154.4851 H   0  0  0  0  0  0  0  0  0  0  0  0
  147.7084  138.9485  154.6972 H   0  0  0  0  0  0  0  0  0  0  0  0
  148.7260  139.2597  152.1714 H   0  0  0  0  0  0  0  0  0  0  0  0
  146.5112  139.8610  152.8078 H   0  0  0  0  0  0  0  0  0  0  0  0
  146.5470  138.7975  151.4095 H   0  0  0  0  0  0  0  0  0  0  0  0
  146.3066  137.6288  154.2216 H   0  0  0  0  0  0  0  0  0  0  0  0
  144.8826  138.2261  153.3903 H   0  0  0  0  0  0  0  0  0  0  0  0
  145.3465  137.2527  150.4950 H   0  0  0  0  0  0  0  0  0  0  0  0
  145.3504  134.5289  149.9946 H   0  0  0  0  0  0  0  0  0  0  0  0
  146.1540  135.1444  154.0393 H   0  0  0  0  0  0  0  0  0  0  0  0
  148.4046  137.6648  152.3842 H   0  0  0  0  0  0  0  0  0  0  0  0
  1  2  1  0  0  0  0
  1 18  1  0  0  0  0
  1 19  1  0  0  0  0
  1 20  1  0  0  0  0
  2  8  1  0  0  0  0
  2  3  2  0  0  0  0
  3  4  1  0  0  0  0
  3 21  1  0  0  0  0
  4  5  1  0  0  0  0
  4 22  1  0  0  0  0
  4 23  1  0  0  0  0
  5  6  1  0  0  0  0
  5 24  1  0  0  0  0
  5 25  1  0  0  0  0
  6  7  1  0  0  0  0
  6  8  1  0  0  0  0
  6 26  1  0  0  0  0
  7 27  1  0  0  0  0
  7 28  1  0  0  0  0
  7 29  1  0  0  0  0
  8  9  1  0  0  0  0
  8 30  1  0  0  0  0
  9 10  1  0  0  0  0
  9 31  1  0  0  0  0
  9 32  1  0  0  0  0
 10 11  1  0  0  0  0
 10 33  1  0  0  0  0
 10 41  1  0  0  0  0
 11 12  1  0  0  0  0
 11 34  1  0  0  0  0
 11 35  1  0  0  0  0
 12 13  1  0  0  0  0
 12 36  1  0  0  0  0
 12 37  1  0  0  0  0
 13 17  1  0  0  0  0
 13 14  1  0  0  0  0
 14 15  2  0  0  0  0
 14 38  1  0  0  0  0
 15 16  1  0  0  0  0
 15 39  1  0  0  0  0
 16 17  2  0  0  0  0
 17 40  1  0  0  0  0
M  CHG  1  10   1
M  END
> <s_m_source_file>
AV-unprocessed.smi

> <i_m_source_file_index>
3187

> <i_lp_mmshare_version>
43012

> <i_f3d_flags>
0

> <s_epik_input>
W0NIM11DMT1bQ0hdW0NIMl1bQ0gyXVtDQEBIXShbQ0gzXSlbQ0BIXTFbQ0gyXVtOSF1bQ0gyXVtDSDJdbjJbY0hdW2NIXW5bY0hdMg==

> <s_epik_cmdline>
J2VwaWtfcHl0aG9uJywgJy1waCcsICc3LjAnLCAnLXRuJywgJzgnLCAnLW1hJywgJzIwMCcsICctbWV0YWxfYmluZGluZycsICctaW1hZScsICc8aW5maWxlLm1hZT4nLCAnLW9tYWUnLCAnPG91dGZpbGUubWFlPic=

> <r_lp_tautomer_probability>
1

> <r_epik_Ionization_Penalty>
0.0501625

> <r_epik_Ionization_Penalty_Charging>
0.0501625

> <r_epik_Ionization_Penalty_Neutral>
0

> <r_epik_State_Penalty>
0.0972392

> <r_epik_Charging_Adjusted_Penalty>
0.147402

> <i_epik_Tot_Q>
1

> <i_epik_Tot_abs_Q>
1

> <r_epik_Metal_State_Penalty>
0.000104376

> <b_epik_Metal_Only>
0

> <s_lp_Force_Field>
OPLS_2005

> <r_lp_Energy>
17.2086

> <b_lp_Chiralities_Consistent>
1

> <s_lp_Variant>
AV-unprocessed.smi:3187-3

> <Gold.Version>
5.8.1

> <Gold.Id.Protein>
6NUR|6NUR_protein|mol2

> <Gold.PLP.Fitness>
48.1682

> <Gold.PLP.PLP>
-35.8858

> <Gold.PLP.part.hbond>
-2.0000

> <Gold.PLP.part.metal>
0.0000

> <Gold.PLP.part.buried>
-1.6864

> <Gold.PLP.part.nonpolar>
-33.4236

> <Gold.PLP.part.repulsive>
0.1725

> <Gold.PLP.ligand.clash>
0.0000

> <Gold.PLP.ligand.torsion>
1.3787

> <Gold.PLP.Chemscore.Hbond>
3.0000

> <Gold.PLP.Chemscore.CHOScore>
2.0000

> <Gold.PLP.Chemscore.Metal>
0.0000

> <Gold.Chemscore.Hbonds>
donor molecule, donor type, donor heavy atom, donor atom, acceptor molecule, acceptor atom, score
      L1  H    10    33       P1  7957  1.00
      L1  H    10    41       P1  7948  2.00
      L1  C    14    38       P1 10171  1.00
      L1  C    15    39       P1  7921  1.00

> <Gold.PLP.Chemscore.Internal.Correction>
0.0398

> <Gold.Rescore>
     Score         DG    S(hbond)    S(metal)    S(lipo)     H(rot)  DE(clash)    DE(int)     intcor
     16.25     -17.67       1.96        0.00      89.38       1.89       0.03       1.40       ----

> <Gold.Chemscore.Fitness>
16.2453

> <Gold.Chemscore.DG>
-17.6744

> <Gold.Chemscore.ZeroCoef>
-5.4800

> <Gold.Chemscore.Hbond>
1.9649

> <Gold.Chemscore.Metal>
0.0000

> <Gold.Chemscore.Lipo>
89.3838

> <Gold.Chemscore.Internal_Hbond>
0.0000

> <Gold.Chemscore.DEClash>
0.0279

> <Gold.Chemscore.DEInternal>
1.4013

> <Gold.Chemscore.Rot>
1.8853

> <Gold.Chemscore.Internal.Correction>
   9.000000E+99

> <Gold.Chemscore.Hbonds>
donor molecule, donor type, donor heavy atom, donor atom, acceptor molecule, acceptor atom, score
      L1  H    10    33       P1  7957  0.93
      L1  H    10    41       P1  7948  0.98

> <Gold.Chemscore.Hbond.Weighted>
-6.5627

> <Gold.Chemscore.Metal.Weighted>
-0.0000

> <Gold.Chemscore.Lipo.Weighted>
-10.4579

> <Gold.Chemscore.Internal_Hbond.Weighted>
0.0000

> <Gold.Chemscore.DEClash.Weighted>
0.0279

> <Gold.Chemscore.DEInternal.Weighted>
1.4013

> <Gold.Chemscore.Rot.Weighted>
4.8263

> <Gold.Chemscore.Internal.Correction.Weighted>
   9.000000E+99

> <Gold.Protein.RotatedTorsions>
[ 6907 6896 6895 6894 ] final -155.92 input  -60.11 | X-H torsion
[ 7974 7965 7964 7962 ] final   55.93 input  175.53 | X-H torsion
[ 8008 7997 7996 7995 ] final    1.94 input   59.86 | X-H torsion
[ 10167 10162 10161 10158 ] final  -59.61 input  -65.29 | X-H torsion
[ 10718 10713 10712 10709 ] final   91.71 input   66.30 | X-H torsion
[ 10763 10752 10751 10750 ] final  -77.41 input  -60.55 | X-H torsion
[ 11005 11000 10999 10996 ] final -105.65 input  -57.11 | X-H torsion

> <Gold.Protein.ActiveResidues>
 VAL166  LYS551  ARG553  GLY616  TRP617  ASP618  TYR619  PRO620  LYS621  CYS622 
 ASP623  PHE694  ASN695  SER759  ASP760  ASP761  ALA762  ILE779  LEU786  VAL792 
 PHE793  MET794  SER795  GLU796  ALA797  LYS798  CYS799  TRP800  GLU811  SER814 

> <Gold.Protein.RotatedAtoms>
  151.2798  133.4215  159.2625 H   0  0  0  0  0  0  0  0  0  0  0  0  # atno 6907 bound_to 6896
  151.0371  134.9581  159.8152 H   0  0  0  0  0  0  0  0  0  0  0  0  # atno 6908 bound_to 6896
  152.5357  134.2757  159.9041 H   0  0  0  0  0  0  0  0  0  0  0  0  # atno 6909 bound_to 6896
  145.9452  139.3923  143.0339 H   0  0  0  0  0  0  0  0  0  0  0  0  # atno 7974 bound_to 7965
  154.6857  140.2642  155.6863 H   0  0  0  0  0  0  0  0  0  0  0  0  # atno 8008 bound_to 7997
  156.2713  140.2801  156.1340 H   0  0  0  0  0  0  0  0  0  0  0  0  # atno 8009 bound_to 7997
  155.0968  140.0374  157.2675 H   0  0  0  0  0  0  0  0  0  0  0  0  # atno 8010 bound_to 7997
  140.6124  143.2391  151.5678 H   0  0  0  0  0  0  0  0  0  0  0  0  # atno 10167 bound_to 10162
  157.6960  131.0417  150.3771 H   0  0  0  0  0  0  0  0  0  0  0  0  # atno 10718 bound_to 10713
  154.5125  135.5765  153.6616 H   0  0  0  0  0  0  0  0  0  0  0  0  # atno 10763 bound_to 10752
  152.9900  135.6162  154.2860 H   0  0  0  0  0  0  0  0  0  0  0  0  # atno 10764 bound_to 10752
  154.2775  135.2852  155.2691 H   0  0  0  0  0  0  0  0  0  0  0  0  # atno 10765 bound_to 10752
  141.1043  133.8825  157.1759 H   0  0  0  0  0  0  0  0  0  0  0  0  # atno 11005 bound_to 11000
  145.8246  140.9662  143.0881 LP  0  0  0  0  0  0  0  0  0  0  0  0  # atno 17320 bound_to 7965
  144.6786  140.0084  143.7484 LP  0  0  0  0  0  0  0  0  0  0  0  0  # atno 17321 bound_to 7965
  139.5371  144.2749  152.1275 LP  0  0  0  0  0  0  0  0  0  0  0  0  # atno 17342 bound_to 10162
  140.1951  144.4713  150.6459 LP  0  0  0  0  0  0  0  0  0  0  0  0  # atno 17343 bound_to 10162
  156.4189  130.3949  149.6839 LP  0  0  0  0  0  0  0  0  0  0  0  0  # atno 17370 bound_to 10713
  156.4096  130.7715  151.2728 LP  0  0  0  0  0  0  0  0  0  0  0  0  # atno 17371 bound_to 10713
  139.9907  135.0065  156.9968 LP  0  0  0  0  0  0  0  0  0  0  0  0  # atno 17394 bound_to 11000
  140.4942  134.1163  155.7238 LP  0  0  0  0  0  0  0  0  0  0  0  0  # atno 17395 bound_to 11000

$$$$
