AV-unprocessed.smi:1963|AV-procd|sdf|7927|dock6
  -GOLD-   2272010 93D 1   1.00000     0.00000
 Structure written by MMmdl.
 47 48  0  0  0  0  0  0  0  0  1 V2000
  146.5462  135.7588  154.0247 C   0  0  0  0  0  0  0  0  0  0  0  0
  147.7040  135.2855  154.8964 C   0  0  0  0  0  0  0  0  0  0  0  0
  147.5300  135.0764  156.0967 O   0  0  0  0  0  0  0  0  0  0  0  0
  148.8835  135.1216  154.2775 N   0  0  0  0  0  0  0  0  0  0  0  0
  150.1218  134.6660  154.9138 C   0  0  1  0  0  0  0  0  0  0  0  0
  150.5544  135.7080  155.9644 C   0  0  0  0  0  0  0  0  0  0  0  0
  150.7703  135.3574  157.1254 O   0  0  0  0  0  0  0  0  0  0  0  0
  150.7079  136.9643  155.5066 N   0  0  0  0  0  0  0  0  0  0  0  0
  151.1140  138.1229  156.2211 C   0  0  0  0  0  0  0  0  0  0  0  0
  150.7207  138.2427  157.5677 C   0  0  0  0  0  0  0  0  0  0  0  0
  151.1190  139.3745  158.3037 C   0  0  0  0  0  0  0  0  0  0  0  0
  151.9130  140.3622  157.6749 C   0  0  0  0  0  0  0  0  0  0  0  0
  152.3189  141.5097  158.3909 N   0  0  0  0  0  0  0  0  0  0  0  0
  152.4720  141.3354  159.8334 C   0  0  0  0  0  0  0  0  0  0  0  0
  153.2033  142.5429  160.4451 C   0  0  0  0  0  0  0  0  0  0  0  0
  152.5223  143.7454  160.1023 O   0  0  0  0  0  0  0  0  0  0  0  0
  152.4856  143.9492  158.6939 C   0  0  0  0  0  0  0  0  0  0  0  0
  151.7241  142.7936  158.0231 C   0  0  0  0  0  0  0  0  0  0  0  0
  152.3120  140.2336  156.3855 N   0  0  0  0  0  0  0  0  0  0  0  0
  151.9262  139.1480  155.6820 C   0  0  0  0  0  0  0  0  0  0  0  0
  149.8585  133.2925  155.6004 C   0  0  0  0  0  0  0  0  0  0  0  0
  151.1185  132.6919  156.2587 C   0  0  0  0  0  0  0  0  0  0  0  0
  149.2677  132.2636  154.6163 C   0  0  0  0  0  0  0  0  0  0  0  0
  146.3561  135.0436  153.2241 H   0  0  0  0  0  0  0  0  0  0  0  0
  146.7770  136.7262  153.5778 H   0  0  0  0  0  0  0  0  0  0  0  0
  145.6341  135.8634  154.6134 H   0  0  0  0  0  0  0  0  0  0  0  0
  148.9279  135.3111  153.2867 H   0  0  0  0  0  0  0  0  0  0  0  0
  150.9020  134.5500  154.1582 H   0  0  0  0  0  0  0  0  0  0  0  0
  150.5798  137.0899  154.5130 H   0  0  0  0  0  0  0  0  0  0  0  0
  150.1167  137.4788  158.0351 H   0  0  0  0  0  0  0  0  0  0  0  0
  150.8250  139.4632  159.3387 H   0  0  0  0  0  0  0  0  0  0  0  0
  151.4827  141.2334  160.2816 H   0  0  0  0  0  0  0  0  0  0  0  0
  153.0240  140.4284  160.0756 H   0  0  0  0  0  0  0  0  0  0  0  0
  153.2349  142.4510  161.5309 H   0  0  0  0  0  0  0  0  0  0  0  0
  154.2375  142.5864  160.0993 H   0  0  0  0  0  0  0  0  0  0  0  0
  151.9888  144.8966  158.4850 H   0  0  0  0  0  0  0  0  0  0  0  0
  153.5001  144.0275  158.2998 H   0  0  0  0  0  0  0  0  0  0  0  0
  151.7487  142.9258  156.9406 H   0  0  0  0  0  0  0  0  0  0  0  0
  150.6777  142.8080  158.3309 H   0  0  0  0  0  0  0  0  0  0  0  0
  152.3027  139.1078  154.6718 H   0  0  0  0  0  0  0  0  0  0  0  0
  149.1200  133.4370  156.3911 H   0  0  0  0  0  0  0  0  0  0  0  0
  151.9246  132.5744  155.5339 H   0  0  0  0  0  0  0  0  0  0  0  0
  150.9090  131.7089  156.6815 H   0  0  0  0  0  0  0  0  0  0  0  0
  151.4909  133.3100  157.0756 H   0  0  0  0  0  0  0  0  0  0  0  0
  149.9397  132.0916  153.7748 H   0  0  0  0  0  0  0  0  0  0  0  0
  148.3068  132.5859  154.2145 H   0  0  0  0  0  0  0  0  0  0  0  0
  149.0989  131.3042  155.1062 H   0  0  0  0  0  0  0  0  0  0  0  0
  1  2  1  0  0  0  0
  1 24  1  0  0  0  0
  1 25  1  0  0  0  0
  1 26  1  0  0  0  0
  2  3  2  0  0  0  0
  2  4  1  0  0  0  0
  4  5  1  0  0  0  0
  4 27  1  0  0  0  0
  5  6  1  0  0  0  0
  5 21  1  0  0  0  0
  5 28  1  0  0  0  0
  6  7  2  0  0  0  0
  6  8  1  0  0  0  0
  8  9  1  0  0  0  0
  8 29  1  0  0  0  0
  9 20  1  0  0  0  0
  9 10  2  0  0  0  0
 10 11  1  0  0  0  0
 10 30  1  0  0  0  0
 11 12  2  0  0  0  0
 11 31  1  0  0  0  0
 12 13  1  0  0  0  0
 12 19  1  0  0  0  0
 13 18  1  0  0  0  0
 13 14  1  0  0  0  0
 14 15  1  0  0  0  0
 14 32  1  0  0  0  0
 14 33  1  0  0  0  0
 15 16  1  0  0  0  0
 15 34  1  0  0  0  0
 15 35  1  0  0  0  0
 16 17  1  0  0  0  0
 17 18  1  0  0  0  0
 17 36  1  0  0  0  0
 17 37  1  0  0  0  0
 18 38  1  0  0  0  0
 18 39  1  0  0  0  0
 19 20  2  0  0  0  0
 20 40  1  0  0  0  0
 21 22  1  0  0  0  0
 21 23  1  0  0  0  0
 21 41  1  0  0  0  0
 22 42  1  0  0  0  0
 22 43  1  0  0  0  0
 22 44  1  0  0  0  0
 23 45  1  0  0  0  0
 23 46  1  0  0  0  0
 23 47  1  0  0  0  0
M  END
> <s_m_source_file>
AV-unprocessed.smi

> <i_m_source_file_index>
1963

> <i_lp_mmshare_version>
43012

> <i_f3d_flags>
0

> <s_epik_input>
W0NIM11DKD1PKVtOSF1bQ0BASF0oW0NIXShbQ0gzXSlbQ0gzXSlDKD1PKVtOSF1jMVtjSF1bY0hdYyhuW2NIXTEpTjJbQ0gyXVtDSDJdT1tDSDJdW0NIMl0y

> <s_epik_cmdline>
J2VwaWtfcHl0aG9uJywgJy1waCcsICc3LjAnLCAnLXRuJywgJzgnLCAnLW1hJywgJzIwMCcsICctbWV0YWxfYmluZGluZycsICctaW1hZScsICc8aW5maWxlLm1hZT4nLCAnLW9tYWUnLCAnPG91dGZpbGUubWFlPic=

> <r_lp_tautomer_probability>
1

> <r_epik_Ionization_Penalty>
0.00051446

> <r_epik_Ionization_Penalty_Charging>
0

> <r_epik_Ionization_Penalty_Neutral>
0.00051446

> <r_epik_State_Penalty>
0.00031949

> <r_epik_Charging_Adjusted_Penalty>
0.00031949

> <i_epik_Tot_Q>
0

> <i_epik_Tot_abs_Q>
0

> <r_epik_Metal_State_Penalty>
-0

> <b_epik_Metal_Only>
0

> <s_lp_Force_Field>
OPLS_2005

> <r_lp_Energy>
25.5716

> <b_lp_Chiralities_Consistent>
1

> <s_lp_Variant>
AV-unprocessed.smi:1963-2

> <Gold.Version>
5.8.1

> <Gold.Id.Protein>
6NUR|6NUR_protein|mol2

> <Gold.PLP.Fitness>
39.2942

> <Gold.PLP.PLP>
-34.5732

> <Gold.PLP.part.hbond>
-2.7980

> <Gold.PLP.part.metal>
0.0000

> <Gold.PLP.part.buried>
-4.9297

> <Gold.PLP.part.nonpolar>
-27.0464

> <Gold.PLP.part.repulsive>
0.1016

> <Gold.PLP.ligand.clash>
0.0000

> <Gold.PLP.ligand.torsion>
0.8297

> <Gold.PLP.Chemscore.Hbond>
2.0000

> <Gold.PLP.Chemscore.CHOScore>
0.0000

> <Gold.PLP.Chemscore.Metal>
0.0000

> <Gold.Chemscore.Hbonds>
donor molecule, donor type, donor heavy atom, donor atom, acceptor molecule, acceptor atom, score
      L1  H     4    27       P1  7948  1.00
      P1  H  7997  8009       L1    19  1.00

> <Gold.PLP.Chemscore.Internal.Correction>
0.3803

> <Gold.Rescore>
     Score         DG    S(hbond)    S(metal)    S(lipo)     H(rot)  DE(clash)    DE(int)     intcor
     12.10     -16.70       1.87        0.00      80.55       1.74       0.00       4.60       ----

> <Gold.Chemscore.Fitness>
12.0965

> <Gold.Chemscore.DG>
-16.6976

> <Gold.Chemscore.ZeroCoef>
-5.4800

> <Gold.Chemscore.Hbond>
1.8699

> <Gold.Chemscore.Metal>
0.0000

> <Gold.Chemscore.Lipo>
80.5536

> <Gold.Chemscore.Internal_Hbond>
0.0000

> <Gold.Chemscore.DEClash>
0.0004

> <Gold.Chemscore.DEInternal>
4.6007

> <Gold.Chemscore.Rot>
1.7394

> <Gold.Chemscore.Internal.Correction>
   9.000000E+99

> <Gold.Chemscore.Hbonds>
donor molecule, donor type, donor heavy atom, donor atom, acceptor molecule, acceptor atom, score
      L1  H     4    27       P1  7948  0.55
      P1  H  7997  8009       L1    19  0.27

> <Gold.Chemscore.Hbond.Weighted>
-6.2456

> <Gold.Chemscore.Metal.Weighted>
-0.0000

> <Gold.Chemscore.Lipo.Weighted>
-9.4248

> <Gold.Chemscore.Internal_Hbond.Weighted>
0.0000

> <Gold.Chemscore.DEClash.Weighted>
0.0004

> <Gold.Chemscore.DEInternal.Weighted>
4.6007

> <Gold.Chemscore.Rot.Weighted>
4.4528

> <Gold.Chemscore.Internal.Correction.Weighted>
   9.000000E+99

> <Gold.Protein.RotatedTorsions>
[ 6907 6896 6895 6894 ] final  -15.54 input  -60.11 | X-H torsion
[ 7974 7965 7964 7962 ] final   28.39 input  175.53 | X-H torsion
[ 8008 7997 7996 7995 ] final -164.54 input   59.86 | X-H torsion
[ 10167 10162 10161 10158 ] final  150.76 input  -65.29 | X-H torsion
[ 10718 10713 10712 10709 ] final   25.20 input   66.30 | X-H torsion
[ 10763 10752 10751 10750 ] final   70.69 input  -60.55 | X-H torsion
[ 11005 11000 10999 10996 ] final -140.17 input  -57.11 | X-H torsion

> <Gold.Protein.ActiveResidues>
 VAL166  LYS551  ARG553  GLY616  TRP617  ASP618  TYR619  PRO620  LYS621  CYS622 
 ASP623  PHE694  ASN695  SER759  ASP760  ASP761  ALA762  ILE779  LEU786  VAL792 
 PHE793  MET794  SER795  GLU796  ALA797  LYS798  CYS799  TRP800  GLU811  SER814 

> <Gold.Protein.RotatedAtoms>
  151.3224  135.0822  159.9310 H   0  0  0  0  0  0  0  0  0  0  0  0  # atno 6907 bound_to 6896
  152.5253  133.9625  159.7734 H   0  0  0  0  0  0  0  0  0  0  0  0  # atno 6908 bound_to 6896
  150.9949  133.6061  159.2733 H   0  0  0  0  0  0  0  0  0  0  0  0  # atno 6909 bound_to 6896
  146.1731  139.7062  142.8953 H   0  0  0  0  0  0  0  0  0  0  0  0  # atno 7974 bound_to 7965
  155.8371  140.0942  157.1757 H   0  0  0  0  0  0  0  0  0  0  0  0  # atno 8008 bound_to 7997
  154.3981  140.1408  156.3744 H   0  0  0  0  0  0  0  0  0  0  0  0  # atno 8009 bound_to 7997
  155.8104  140.3450  155.5457 H   0  0  0  0  0  0  0  0  0  0  0  0  # atno 8010 bound_to 7997
  139.4847  144.5496  151.7424 H   0  0  0  0  0  0  0  0  0  0  0  0  # atno 10167 bound_to 10162
  157.1902  130.6842  149.6147 H   0  0  0  0  0  0  0  0  0  0  0  0  # atno 10718 bound_to 10713
  153.0356  135.5164  154.7479 H   0  0  0  0  0  0  0  0  0  0  0  0  # atno 10763 bound_to 10752
  154.6459  135.2918  155.0049 H   0  0  0  0  0  0  0  0  0  0  0  0  # atno 10764 bound_to 10752
  154.0951  135.6644  153.4911 H   0  0  0  0  0  0  0  0  0  0  0  0  # atno 10765 bound_to 10752
  140.8448  134.2358  157.4791 H   0  0  0  0  0  0  0  0  0  0  0  0  # atno 11005 bound_to 11000
  145.4285  141.0413  143.2924 LP  0  0  0  0  0  0  0  0  0  0  0  0  # atno 17320 bound_to 7965
  144.8194  139.5818  143.6993 LP  0  0  0  0  0  0  0  0  0  0  0  0  # atno 17321 bound_to 7965
  140.5048  144.1115  150.5980 LP  0  0  0  0  0  0  0  0  0  0  0  0  # atno 17342 bound_to 10162
  140.4020  143.2699  151.9936 LP  0  0  0  0  0  0  0  0  0  0  0  0  # atno 17343 bound_to 10162
  155.9713  130.4617  150.6119 LP  0  0  0  0  0  0  0  0  0  0  0  0  # atno 17370 bound_to 10713
  157.3868  131.0789  151.1429 LP  0  0  0  0  0  0  0  0  0  0  0  0  # atno 17371 bound_to 10713
  139.8703  134.9654  156.4526 LP  0  0  0  0  0  0  0  0  0  0  0  0  # atno 17394 bound_to 11000
  140.8855  133.7886  155.9514 LP  0  0  0  0  0  0  0  0  0  0  0  0  # atno 17395 bound_to 11000

$$$$
