AV-unprocessed.smi:2706|AV-procd|sdf|10452|dock3
  -GOLD-   2272014493D 1   1.00000     0.00000
 Structure written by MMmdl.
 43 46  0  0  0  0  0  0  0  0  1 V2000
  147.5455  138.9371  153.5281 C   0  0  0  0  0  0  0  0  0  0  0  0
  148.6044  139.1775  154.5032 N   0  0  0  0  0  0  0  0  0  0  0  0
  149.2219  140.4958  154.4143 C   0  0  0  0  0  0  0  0  0  0  0  0
  149.0409  138.2255  155.4263 C   0  0  0  0  0  0  0  0  0  0  0  0
  148.4912  136.9909  155.4665 C   0  0  0  0  0  0  0  0  0  0  0  0
  148.9636  136.0151  156.4270 C   0  0  0  0  0  0  0  0  0  0  0  0
  149.9451  136.3138  157.3005 C   0  0  0  0  0  0  0  0  0  0  0  0
  150.5555  137.6300  157.3104 C   0  0  0  0  0  0  0  0  0  0  0  0
  151.5115  137.9028  158.1535 N   0  0  0  0  0  0  0  0  0  0  0  0
  152.0668  139.1743  158.2964 C   0  0  0  0  0  0  0  0  0  0  0  0
  153.1649  139.3619  158.8190 O   0  0  0  0  0  0  0  0  0  0  0  0
  151.2816  140.2089  157.9308 N   0  0  0  0  0  0  0  0  0  0  0  0
  151.6249  141.5915  158.0123 C   0  0  2  0  0  0  0  0  0  0  0  0
  152.1327  142.1021  159.3444 C   0  0  1  0  0  0  0  0  0  0  0  0
  152.7675  143.4622  159.6251 C   0  0  1  0  0  0  0  0  0  0  0  0
  153.0457  144.2315  158.3166 C   0  0  0  0  0  0  0  0  0  0  0  0
  151.6237  144.6015  157.8386 C   0  0  0  0  0  0  0  0  0  0  0  0
  150.7331  143.9905  158.9400 C   0  0  2  0  0  0  0  0  0  0  0  0
  151.5860  144.2533  160.1774 C   0  0  0  0  0  0  0  0  0  0  0  0
  150.7350  142.4651  158.8725 C   0  0  1  0  0  0  0  0  0  0  0  0
  150.0614  138.5182  156.3357 N   0  0  0  0  0  0  0  0  0  0  0  0
  146.5810  138.8563  154.0301 H   0  0  0  0  0  0  0  0  0  0  0  0
  147.7303  138.0101  152.9847 H   0  0  0  0  0  0  0  0  0  0  0  0
  147.4753  139.7370  152.7906 H   0  0  0  0  0  0  0  0  0  0  0  0
  150.1521  140.4380  153.8485 H   0  0  0  0  0  0  0  0  0  0  0  0
  149.4481  140.8866  155.4060 H   0  0  0  0  0  0  0  0  0  0  0  0
  148.5683  141.2188  153.9254 H   0  0  0  0  0  0  0  0  0  0  0  0
  147.6964  136.7023  154.7952 H   0  0  0  0  0  0  0  0  0  0  0  0
  148.5235  135.0291  156.4397 H   0  0  0  0  0  0  0  0  0  0  0  0
  150.2564  135.5435  157.9915 H   0  0  0  0  0  0  0  0  0  0  0  0
  150.3667  139.9928  157.5617 H   0  0  0  0  0  0  0  0  0  0  0  0
  152.0359  142.0352  157.1089 H   0  0  0  0  0  0  0  0  0  0  0  0
  152.1814  141.3965  160.1723 H   0  0  0  0  0  0  0  0  0  0  0  0
  153.6252  143.3884  160.2941 H   0  0  0  0  0  0  0  0  0  0  0  0
  153.6267  145.1329  158.5152 H   0  0  0  0  0  0  0  0  0  0  0  0
  153.6009  143.6376  157.5900 H   0  0  0  0  0  0  0  0  0  0  0  0
  151.5045  145.6851  157.8036 H   0  0  0  0  0  0  0  0  0  0  0  0
  151.3897  144.2141  156.8466 H   0  0  0  0  0  0  0  0  0  0  0  0
  149.7237  144.4010  158.9802 H   0  0  0  0  0  0  0  0  0  0  0  0
  151.1665  143.8226  161.0884 H   0  0  0  0  0  0  0  0  0  0  0  0
  151.8035  145.3096  160.3467 H   0  0  0  0  0  0  0  0  0  0  0  0
  149.9217  141.9855  159.4142 H   0  0  0  0  0  0  0  0  0  0  0  0
  150.4516  139.4461  156.2578 H   0  0  0  0  0  0  0  0  0  0  0  0
  1  2  1  0  0  0  0
  1 22  1  0  0  0  0
  1 23  1  0  0  0  0
  1 24  1  0  0  0  0
  2  3  1  0  0  0  0
  2  4  1  0  0  0  0
  3 25  1  0  0  0  0
  3 26  1  0  0  0  0
  3 27  1  0  0  0  0
  4 21  1  0  0  0  0
  4  5  2  0  0  0  0
  5  6  1  0  0  0  0
  5 28  1  0  0  0  0
  6  7  2  0  0  0  0
  6 29  1  0  0  0  0
  7  8  1  0  0  0  0
  7 30  1  0  0  0  0
  8  9  2  0  0  0  0
  8 21  1  0  0  0  0
  9 10  1  0  0  0  0
 10 11  2  0  0  0  0
 10 12  1  0  0  0  0
 12 13  1  0  0  0  0
 12 31  1  0  0  0  0
 13 20  1  0  0  0  0
 13 14  1  0  0  0  0
 13 32  1  0  0  0  0
 14 20  1  0  0  0  0
 14 15  1  0  0  0  0
 14 33  1  0  0  0  0
 15 19  1  0  0  0  0
 15 16  1  0  0  0  0
 15 34  1  0  0  0  0
 16 17  1  0  0  0  0
 16 35  1  0  0  0  0
 16 36  1  0  0  0  0
 17 18  1  0  0  0  0
 17 37  1  0  0  0  0
 17 38  1  0  0  0  0
 18 19  1  0  0  0  0
 18 20  1  0  0  0  0
 18 39  1  0  0  0  0
 19 40  1  0  0  0  0
 19 41  1  0  0  0  0
 20 42  1  0  0  0  0
 21 43  1  0  0  0  0
M  END
> <s_m_source_file>
AV-unprocessed.smi

> <i_m_source_file_index>
2706

> <i_lp_mmshare_version>
43012

> <i_f3d_flags>
0

> <s_epik_input>
W0NIM11OKFtDSDNdKWMxW2NIXVtjSF1bY0hdYyhuMSlbTkhdQyg9TylbTkhdW0NASF0yW0NAQEhdM1tDQEBIXShbQ0gyXTQpW0NIMl1bQ0gyXVtDQEBIXTRbQ0BIXTIz

> <s_epik_cmdline>
J2VwaWtfcHl0aG9uJywgJy1waCcsICc3LjAnLCAnLXRuJywgJzgnLCAnLW1hJywgJzIwMCcsICctbWV0YWxfYmluZGluZycsICctaW1hZScsICc8aW5maWxlLm1hZT4nLCAnLW9tYWUnLCAnPG91dGZpbGUubWFlPic=

> <r_lp_tautomer_probability>
0.999994

> <r_epik_Ionization_Penalty>
2.07242

> <r_epik_Ionization_Penalty_Charging>
2.07242

> <r_epik_Ionization_Penalty_Neutral>
9.73808e-07

> <r_epik_State_Penalty>
3.96009

> <r_epik_Charging_Adjusted_Penalty>
6.03251

> <i_epik_Tot_Q>
0

> <i_epik_Tot_abs_Q>
0

> <r_epik_Metal_State_Penalty>
3.98849

> <b_epik_Metal_Only>
1

> <s_lp_Force_Field>
OPLS_2005

> <r_lp_Energy>
91.2091

> <b_lp_Chiralities_Consistent>
1

> <s_lp_Variant>
AV-unprocessed.smi:2706-9

> <Gold.Version>
5.8.1

> <Gold.Id.Protein>
6NUR|6NUR_protein|mol2

> <Gold.PLP.Fitness>
38.1521

> <Gold.PLP.PLP>
-35.3859

> <Gold.PLP.part.hbond>
-1.0000

> <Gold.PLP.part.metal>
0.0000

> <Gold.PLP.part.buried>
-4.0554

> <Gold.PLP.part.nonpolar>
-29.0819

> <Gold.PLP.part.repulsive>
0.0830

> <Gold.PLP.ligand.clash>
0.0000

> <Gold.PLP.ligand.torsion>
0.1381

> <Gold.PLP.Chemscore.Hbond>
1.0000

> <Gold.PLP.Chemscore.CHOScore>
0.0000

> <Gold.PLP.Chemscore.Metal>
0.0000

> <Gold.Chemscore.Hbonds>
donor molecule, donor type, donor heavy atom, donor atom, acceptor molecule, acceptor atom, score
      P1  H  7997  8010       L1    11  0.13

> <Gold.PLP.Chemscore.Internal.Correction>
0.0423

> <Gold.Rescore>
     Score         DG    S(hbond)    S(metal)    S(lipo)     H(rot)  DE(clash)    DE(int)     intcor
     16.97     -18.83       0.98        0.00     108.17       1.00       0.05       1.81       ----

> <Gold.Chemscore.Fitness>
16.9655

> <Gold.Chemscore.DG>
-18.8346

> <Gold.Chemscore.ZeroCoef>
-5.4800

> <Gold.Chemscore.Hbond>
0.9757

> <Gold.Chemscore.Metal>
0.0000

> <Gold.Chemscore.Lipo>
108.1688

> <Gold.Chemscore.Internal_Hbond>
0.0000

> <Gold.Chemscore.DEClash>
0.0543

> <Gold.Chemscore.DEInternal>
1.8148

> <Gold.Chemscore.Rot>
1.0000

> <Gold.Chemscore.Internal.Correction>
   9.000000E+99

> <Gold.Chemscore.Hbonds>
donor molecule, donor type, donor heavy atom, donor atom, acceptor molecule, acceptor atom, score
      P1  H  7997  8010       L1    11  0.11

> <Gold.Chemscore.Hbond.Weighted>
-3.2588

> <Gold.Chemscore.Metal.Weighted>
-0.0000

> <Gold.Chemscore.Lipo.Weighted>
-12.6558

> <Gold.Chemscore.Internal_Hbond.Weighted>
0.0000

> <Gold.Chemscore.DEClash.Weighted>
0.0543

> <Gold.Chemscore.DEInternal.Weighted>
1.8148

> <Gold.Chemscore.Rot.Weighted>
2.5600

> <Gold.Chemscore.Internal.Correction.Weighted>
   9.000000E+99

> <Gold.Protein.RotatedTorsions>
[ 6907 6896 6895 6894 ] final   13.82 input  -60.11 | X-H torsion
[ 7974 7965 7964 7962 ] final  113.35 input  175.53 | X-H torsion
[ 8008 7997 7996 7995 ] final   23.87 input   59.86 | X-H torsion
[ 10167 10162 10161 10158 ] final  154.83 input  -65.29 | X-H torsion
[ 10718 10713 10712 10709 ] final  163.53 input   66.30 | X-H torsion
[ 10763 10752 10751 10750 ] final  124.81 input  -60.55 | X-H torsion
[ 11005 11000 10999 10996 ] final  -60.97 input  -57.11 | X-H torsion

> <Gold.Protein.ActiveResidues>
 VAL166  LYS551  ARG553  GLY616  TRP617  ASP618  TYR619  PRO620  LYS621  CYS622 
 ASP623  PHE694  ASN695  SER759  ASP760  ASP761  ALA762  ILE779  LEU786  VAL792 
 PHE793  MET794  SER795  GLU796  ALA797  LYS798  CYS799  TRP800  GLU811  SER814 

> <Gold.Protein.RotatedAtoms>
  151.7923  135.0732  160.0388 H   0  0  0  0  0  0  0  0  0  0  0  0  # atno 6907 bound_to 6896
  152.3147  133.5786  159.5713 H   0  0  0  0  0  0  0  0  0  0  0  0  # atno 6908 bound_to 6896
  150.7338  134.0016  159.3682 H   0  0  0  0  0  0  0  0  0  0  0  0  # atno 6909 bound_to 6896
  145.2181  139.2875  143.4233 H   0  0  0  0  0  0  0  0  0  0  0  0  # atno 7974 bound_to 7965
  154.9876  140.3110  155.4920 H   0  0  0  0  0  0  0  0  0  0  0  0  # atno 8008 bound_to 7997
  156.2944  140.2255  156.4919 H   0  0  0  0  0  0  0  0  0  0  0  0  # atno 8009 bound_to 7997
  154.7732  140.0451  157.1056 H   0  0  0  0  0  0  0  0  0  0  0  0  # atno 8010 bound_to 7997
  139.4822  144.5152  151.7963 H   0  0  0  0  0  0  0  0  0  0  0  0  # atno 10167 bound_to 10162
  157.1071  131.0458  151.2473 H   0  0  0  0  0  0  0  0  0  0  0  0  # atno 10718 bound_to 10713
  153.6673  135.3336  155.3143 H   0  0  0  0  0  0  0  0  0  0  0  0  # atno 10763 bound_to 10752
  154.8500  135.4378  154.1742 H   0  0  0  0  0  0  0  0  0  0  0  0  # atno 10764 bound_to 10752
  153.2724  135.7001  153.7543 H   0  0  0  0  0  0  0  0  0  0  0  0  # atno 10765 bound_to 10752
  141.1307  133.6626  156.5304 H   0  0  0  0  0  0  0  0  0  0  0  0  # atno 11005 bound_to 11000
  146.3382  140.2478  142.8597 LP  0  0  0  0  0  0  0  0  0  0  0  0  # atno 17320 bound_to 7965
  144.9792  140.8443  143.5408 LP  0  0  0  0  0  0  0  0  0  0  0  0  # atno 17321 bound_to 7965
  140.4659  144.1656  150.5912 LP  0  0  0  0  0  0  0  0  0  0  0  0  # atno 17342 bound_to 10162
  140.4434  143.2517  151.9443 LP  0  0  0  0  0  0  0  0  0  0  0  0  # atno 17343 bound_to 10162
  157.4591  130.7642  149.7219 LP  0  0  0  0  0  0  0  0  0  0  0  0  # atno 17370 bound_to 10713
  155.9859  130.3979  150.3238 LP  0  0  0  0  0  0  0  0  0  0  0  0  # atno 17371 bound_to 10713
  140.4220  134.7179  157.4895 LP  0  0  0  0  0  0  0  0  0  0  0  0  # atno 17394 bound_to 11000
  140.0353  134.6346  155.9052 LP  0  0  0  0  0  0  0  0  0  0  0  0  # atno 17395 bound_to 11000

$$$$
