AV-unprocessed.smi:2047|AV-procd|sdf|8316|dock2
  -GOLD-   2272010583D 1   1.00000     0.00000
 Structure written by MMmdl.
 42 44  0  0  0  0  0  0  0  0  1 V2000
  150.3458  134.4846  155.7050 O   0  0  0  0  0  0  0  0  0  0  0  0
  149.7443  135.0136  154.7704 C   0  0  0  0  0  0  0  0  0  0  0  0
  148.9828  134.3678  153.8714 N   0  0  0  0  0  0  0  0  0  0  0  0
  148.7366  132.9693  153.7649 C   0  0  0  0  0  0  0  0  0  0  0  0
  149.5433  132.0181  154.4370 C   0  0  0  0  0  0  0  0  0  0  0  0
  149.2169  130.6537  154.3529 C   0  0  0  0  0  0  0  0  0  0  0  0
  148.0823  130.2864  153.6112 C   0  0  0  0  0  0  0  0  0  0  0  0
  147.2955  131.1793  152.9786 N   0  0  0  0  0  0  0  0  0  0  0  0
  147.6053  132.4980  153.0383 C   0  0  0  0  0  0  0  0  0  0  0  0
  146.7527  133.3867  152.3439 N   0  0  0  0  0  0  0  0  0  0  0  0
  145.4048  133.6537  152.8345 C   0  0  0  0  0  0  0  0  0  0  0  0
  144.6820  134.3122  151.6632 C   0  0  0  0  0  0  0  0  0  0  0  0
  145.2793  133.5846  150.4626 C   0  0  0  0  0  0  0  0  0  0  0  0
  146.7269  133.3124  150.8858 C   0  0  0  0  0  0  0  0  0  0  0  0
  149.7869  136.3282  154.5124 N   0  0  0  0  0  0  0  0  0  0  0  0
  150.5277  137.3117  155.2964 C   0  0  1  0  0  0  0  0  0  0  0  0
  151.7499  137.8678  154.5362 C   0  0  0  0  0  0  0  0  0  0  0  0
  152.2408  139.1337  155.2500 C   0  0  0  0  0  0  0  0  0  0  0  0
  150.7615  139.8915  156.0234 S   0  0  0  0  0  0  0  0  0  0  0  0
  150.9794  139.9860  157.4747 O   0  0  0  0  0  0  0  0  0  0  0  0
  150.3413  141.0647  155.2426 O   0  0  0  0  0  0  0  0  0  0  0  0
  149.6271  138.4972  155.6683 C   0  0  0  0  0  0  0  0  0  0  0  0
  148.6226  134.9263  153.1114 H   0  0  0  0  0  0  0  0  0  0  0  0
  150.3921  132.3126  155.0347 H   0  0  0  0  0  0  0  0  0  0  0  0
  149.8151  129.9087  154.8561 H   0  0  0  0  0  0  0  0  0  0  0  0
  147.7941  129.2491  153.5286 H   0  0  0  0  0  0  0  0  0  0  0  0
  144.8960  132.7253  153.0977 H   0  0  0  0  0  0  0  0  0  0  0  0
  145.4222  134.2974  153.7143 H   0  0  0  0  0  0  0  0  0  0  0  0
  143.5976  134.2178  151.7258 H   0  0  0  0  0  0  0  0  0  0  0  0
  144.9307  135.3734  151.6183 H   0  0  0  0  0  0  0  0  0  0  0  0
  144.7571  132.6385  150.3126 H   0  0  0  0  0  0  0  0  0  0  0  0
  145.2086  134.1582  149.5380 H   0  0  0  0  0  0  0  0  0  0  0  0
  147.3813  134.0853  150.4828 H   0  0  0  0  0  0  0  0  0  0  0  0
  147.0749  132.3468  150.5161 H   0  0  0  0  0  0  0  0  0  0  0  0
  149.2652  136.6747  153.7208 H   0  0  0  0  0  0  0  0  0  0  0  0
  150.8758  136.8495  156.2222 H   0  0  0  0  0  0  0  0  0  0  0  0
  152.5468  137.1289  154.4475 H   0  0  0  0  0  0  0  0  0  0  0  0
  151.4500  138.1335  153.5214 H   0  0  0  0  0  0  0  0  0  0  0  0
  152.9423  138.8811  156.0454 H   0  0  0  0  0  0  0  0  0  0  0  0
  152.7202  139.8433  154.5754 H   0  0  0  0  0  0  0  0  0  0  0  0
  148.9943  138.7924  154.8307 H   0  0  0  0  0  0  0  0  0  0  0  0
  148.9927  138.2985  156.5322 H   0  0  0  0  0  0  0  0  0  0  0  0
  1  2  2  0  0  0  0
  2  3  1  0  0  0  0
  2 15  1  0  0  0  0
  3  4  1  0  0  0  0
  3 23  1  0  0  0  0
  4  9  1  0  0  0  0
  4  5  2  0  0  0  0
  5  6  1  0  0  0  0
  5 24  1  0  0  0  0
  6  7  2  0  0  0  0
  6 25  1  0  0  0  0
  7  8  1  0  0  0  0
  7 26  1  0  0  0  0
  8  9  2  0  0  0  0
  9 10  1  0  0  0  0
 10 14  1  0  0  0  0
 10 11  1  0  0  0  0
 11 12  1  0  0  0  0
 11 27  1  0  0  0  0
 11 28  1  0  0  0  0
 12 13  1  0  0  0  0
 12 29  1  0  0  0  0
 12 30  1  0  0  0  0
 13 14  1  0  0  0  0
 13 31  1  0  0  0  0
 13 32  1  0  0  0  0
 14 33  1  0  0  0  0
 14 34  1  0  0  0  0
 15 16  1  0  0  0  0
 15 35  1  0  0  0  0
 16 22  1  0  0  0  0
 16 17  1  0  0  0  0
 16 36  1  0  0  0  0
 17 18  1  0  0  0  0
 17 37  1  0  0  0  0
 17 38  1  0  0  0  0
 18 19  1  0  0  0  0
 18 39  1  0  0  0  0
 18 40  1  0  0  0  0
 19 20  2  0  0  0  0
 19 21  2  0  0  0  0
 19 22  1  0  0  0  0
 22 41  1  0  0  0  0
 22 42  1  0  0  0  0
M  END
> <s_m_source_file>
AV-unprocessed.smi

> <i_m_source_file_index>
2047

> <i_lp_mmshare_version>
43012

> <i_f3d_flags>
0

> <s_epik_input>
Tz1TMSg9TylbQ0gyXVtDSDJdW0NASF0oW0NIMl0xKVtOSF1DKD1PKVtOSF1jMltjSF1bY0hdW2NIXW5jMk4zW0NIMl1bQ0gyXVtDSDJdW0NIMl0z

> <s_epik_cmdline>
J2VwaWtfcHl0aG9uJywgJy1waCcsICc3LjAnLCAnLXRuJywgJzgnLCAnLW1hJywgJzIwMCcsICctbWV0YWxfYmluZGluZycsICctaW1hZScsICc8aW5maWxlLm1hZT4nLCAnLW9tYWUnLCAnPG91dGZpbGUubWFlPic=

> <r_lp_tautomer_probability>
1

> <r_epik_Ionization_Penalty>
0.0840625

> <r_epik_Ionization_Penalty_Charging>
0

> <r_epik_Ionization_Penalty_Neutral>
0.0840625

> <r_epik_State_Penalty>
0.0741601

> <r_epik_Charging_Adjusted_Penalty>
0.0741601

> <i_epik_Tot_Q>
0

> <i_epik_Tot_abs_Q>
0

> <r_epik_Metal_State_Penalty>
0.0657339

> <b_epik_Metal_Only>
0

> <s_lp_Force_Field>
OPLS_2005

> <r_lp_Energy>
33.4382

> <b_lp_Chiralities_Consistent>
1

> <s_lp_Variant>
AV-unprocessed.smi:2047-2

> <Gold.Version>
5.8.1

> <Gold.Id.Protein>
6NUR|6NUR_protein|mol2

> <Gold.PLP.Fitness>
42.5993

> <Gold.PLP.PLP>
-35.4903

> <Gold.PLP.part.hbond>
-3.4077

> <Gold.PLP.part.metal>
0.0000

> <Gold.PLP.part.buried>
-2.4894

> <Gold.PLP.part.nonpolar>
-29.6110

> <Gold.PLP.part.repulsive>
0.4463

> <Gold.PLP.ligand.clash>
0.0000

> <Gold.PLP.ligand.torsion>
0.3244

> <Gold.PLP.Chemscore.Hbond>
2.4800

> <Gold.PLP.Chemscore.CHOScore>
0.0000

> <Gold.PLP.Chemscore.Metal>
0.0000

> <Gold.Chemscore.Hbonds>
donor molecule, donor type, donor heavy atom, donor atom, acceptor molecule, acceptor atom, score
      L1  H     3    23       P1  7948  0.93
      L1  H    15    35       P1  7948  0.77
      P1  H  7989  7998       L1    21  0.46

> <Gold.PLP.Chemscore.Internal.Correction>
0.3178

> <Gold.Rescore>
     Score         DG    S(hbond)    S(metal)    S(lipo)     H(rot)  DE(clash)    DE(int)     intcor
     14.92     -16.66       1.98        0.00      66.33       1.25       0.06       1.67       ----

> <Gold.Chemscore.Fitness>
14.9214

> <Gold.Chemscore.DG>
-16.6552

> <Gold.Chemscore.ZeroCoef>
-5.4800

> <Gold.Chemscore.Hbond>
1.9787

> <Gold.Chemscore.Metal>
0.0000

> <Gold.Chemscore.Lipo>
66.3331

> <Gold.Chemscore.Internal_Hbond>
0.0000

> <Gold.Chemscore.DEClash>
0.0630

> <Gold.Chemscore.DEInternal>
1.6708

> <Gold.Chemscore.Rot>
1.2480

> <Gold.Chemscore.Internal.Correction>
   9.000000E+99

> <Gold.Chemscore.Hbonds>
donor molecule, donor type, donor heavy atom, donor atom, acceptor molecule, acceptor atom, score
      L1  H     3    23       P1  7948  0.45
      L1  H    15    35       P1  7948  0.73
      P1  H  7989  7998       L1    21  0.16

> <Gold.Chemscore.Hbond.Weighted>
-6.6090

> <Gold.Chemscore.Metal.Weighted>
-0.0000

> <Gold.Chemscore.Lipo.Weighted>
-7.7610

> <Gold.Chemscore.Internal_Hbond.Weighted>
0.0000

> <Gold.Chemscore.DEClash.Weighted>
0.0630

> <Gold.Chemscore.DEInternal.Weighted>
1.6708

> <Gold.Chemscore.Rot.Weighted>
3.1948

> <Gold.Chemscore.Internal.Correction.Weighted>
   9.000000E+99

> <Gold.Protein.RotatedTorsions>
[ 6907 6896 6895 6894 ] final  -36.07 input  -60.11 | X-H torsion
[ 7974 7965 7964 7962 ] final  -49.41 input  175.53 | X-H torsion
[ 8008 7997 7996 7995 ] final  143.92 input   59.86 | X-H torsion
[ 10167 10162 10161 10158 ] final   82.83 input  -65.29 | X-H torsion
[ 10718 10713 10712 10709 ] final   26.60 input   66.30 | X-H torsion
[ 10763 10752 10751 10750 ] final -148.05 input  -60.55 | X-H torsion
[ 11005 11000 10999 10996 ] final  -21.98 input  -57.11 | X-H torsion

> <Gold.Protein.ActiveResidues>
 VAL166  LYS551  ARG553  GLY616  TRP617  ASP618  TYR619  PRO620  LYS621  CYS622 
 ASP623  PHE694  ASN695  SER759  ASP760  ASP761  ALA762  ILE779  LEU786  VAL792 
 PHE793  MET794  SER795  GLU796  ALA797  LYS798  CYS799  TRP800  GLU811  SER814 

> <Gold.Protein.RotatedAtoms>
  151.0318  134.9544  159.8114 H   0  0  0  0  0  0  0  0  0  0  0  0  # atno 6907 bound_to 6896
  152.5347  134.2771  159.9003 H   0  0  0  0  0  0  0  0  0  0  0  0  # atno 6908 bound_to 6896
  151.2780  133.4181  159.2659 H   0  0  0  0  0  0  0  0  0  0  0  0  # atno 6909 bound_to 6896
  145.9409  140.7663  142.9553 H   0  0  0  0  0  0  0  0  0  0  0  0  # atno 7974 bound_to 7965
  156.2920  140.2249  156.4969 H   0  0  0  0  0  0  0  0  0  0  0  0  # atno 8008 bound_to 7997
  154.7723  140.0466  157.1082 H   0  0  0  0  0  0  0  0  0  0  0  0  # atno 8009 bound_to 7997
  154.9859  140.3084  155.4930 H   0  0  0  0  0  0  0  0  0  0  0  0  # atno 8010 bound_to 7997
  139.9247  144.6190  150.8404 H   0  0  0  0  0  0  0  0  0  0  0  0  # atno 10167 bound_to 10162
  157.2091  130.6925  149.6220 H   0  0  0  0  0  0  0  0  0  0  0  0  # atno 10718 bound_to 10713
  154.8254  135.3344  154.6913 H   0  0  0  0  0  0  0  0  0  0  0  0  # atno 10763 bound_to 10752
  153.7540  135.6937  153.4944 H   0  0  0  0  0  0  0  0  0  0  0  0  # atno 10764 bound_to 10752
  153.2157  135.4466  155.0381 H   0  0  0  0  0  0  0  0  0  0  0  0  # atno 10765 bound_to 10752
  140.8613  133.7786  156.0078 H   0  0  0  0  0  0  0  0  0  0  0  0  # atno 11005 bound_to 11000
  144.6779  140.2278  143.7359 LP  0  0  0  0  0  0  0  0  0  0  0  0  # atno 17320 bound_to 7965
  145.8301  139.2082  143.1887 LP  0  0  0  0  0  0  0  0  0  0  0  0  # atno 17321 bound_to 7965
  140.7653  143.3272  151.2490 LP  0  0  0  0  0  0  0  0  0  0  0  0  # atno 17342 bound_to 10162
  139.6832  143.9819  152.2820 LP  0  0  0  0  0  0  0  0  0  0  0  0  # atno 17343 bound_to 10162
  155.9692  130.4557  150.5898 LP  0  0  0  0  0  0  0  0  0  0  0  0  # atno 17370 bound_to 10713
  157.3691  131.0762  151.1573 LP  0  0  0  0  0  0  0  0  0  0  0  0  # atno 17371 bound_to 10713
  140.8679  134.2762  157.5204 LP  0  0  0  0  0  0  0  0  0  0  0  0  # atno 17394 bound_to 11000
  139.8707  134.9552  156.4199 LP  0  0  0  0  0  0  0  0  0  0  0  0  # atno 17395 bound_to 11000

$$$$
