AV-unprocessed.smi:2281|AV-procd|sdf|9194|dock9
  -GOLD-   2272012413D 1   1.00000     0.00000
 Structure written by MMmdl.
 40 41  0  0  0  0  0  0  0  0  1 V2000
  147.8339  136.7431  154.9416 C   0  0  0  0  0  0  0  0  0  0  0  0
  148.7219  137.9451  155.2097 C   0  0  0  0  0  0  0  0  0  0  0  0
  149.5926  137.8228  156.2956 N   0  0  0  0  0  0  0  0  0  0  0  0
  150.4021  138.7882  156.5847 C   0  0  0  0  0  0  0  0  0  0  0  0
  150.4393  139.9757  155.8303 N   0  0  0  0  0  0  0  0  0  0  0  0
  151.4231  141.0022  156.2378 C   0  0  0  0  0  0  0  0  0  0  0  0
  150.8280  142.1999  157.0399 C   0  0  2  0  0  0  0  0  0  0  0  0
  149.3039  142.0185  157.2028 C   0  0  0  0  0  0  0  0  0  0  0  0
  150.9113  143.3417  156.2052 O   0  0  0  0  0  0  0  0  0  0  0  0
  151.5113  142.4140  158.3994 C   0  0  0  0  0  0  0  0  0  0  0  0
  151.2161  143.5460  159.1956 C   0  0  0  0  0  0  0  0  0  0  0  0
  151.8714  143.7466  160.4247 C   0  0  0  0  0  0  0  0  0  0  0  0
  152.8308  142.8212  160.8744 C   0  0  0  0  0  0  0  0  0  0  0  0
  153.1410  141.6877  160.0933 C   0  0  0  0  0  0  0  0  0  0  0  0
  154.1845  140.6785  160.5476 C   0  0  0  0  0  0  0  0  0  0  0  0
  153.7074  139.4422  160.4035 F   0  0  0  0  0  0  0  0  0  0  0  0
  155.2774  140.8071  159.7959 F   0  0  0  0  0  0  0  0  0  0  0  0
  154.5232  140.8526  161.8255 F   0  0  0  0  0  0  0  0  0  0  0  0
  152.4818  141.4949  158.8614 C   0  0  0  0  0  0  0  0  0  0  0  0
  149.5880  140.1934  154.7860 C   0  0  0  0  0  0  0  0  0  0  0  0
  149.5828  141.2578  154.1653 O   0  0  0  0  0  0  0  0  0  0  0  0
  148.6886  139.0767  154.4546 C   0  0  0  0  0  0  0  0  0  0  0  0
  147.7666  139.2642  153.2560 C   0  0  0  0  0  0  0  0  0  0  0  0
  146.7821  137.0236  155.0032 H   0  0  0  0  0  0  0  0  0  0  0  0
  148.0103  135.9488  155.6682 H   0  0  0  0  0  0  0  0  0  0  0  0
  148.0301  136.3377  153.9488 H   0  0  0  0  0  0  0  0  0  0  0  0
  151.1049  138.7355  157.4179 H   0  0  0  0  0  0  0  0  0  0  0  0
  152.2518  140.5453  156.7829 H   0  0  0  0  0  0  0  0  0  0  0  0
  151.9016  141.4010  155.3409 H   0  0  0  0  0  0  0  0  0  0  0  0
  149.0519  141.1209  157.7668 H   0  0  0  0  0  0  0  0  0  0  0  0
  148.8083  141.9283  156.2349 H   0  0  0  0  0  0  0  0  0  0  0  0
  148.8567  142.8674  157.7223 H   0  0  0  0  0  0  0  0  0  0  0  0
  150.1309  143.8610  156.3254 H   0  0  0  0  0  0  0  0  0  0  0  0
  150.4945  144.2803  158.8698 H   0  0  0  0  0  0  0  0  0  0  0  0
  151.6400  144.6161  161.0221 H   0  0  0  0  0  0  0  0  0  0  0  0
  153.3272  142.9936  161.8178 H   0  0  0  0  0  0  0  0  0  0  0  0
  152.7447  140.6361  158.2627 H   0  0  0  0  0  0  0  0  0  0  0  0
  148.3552  139.4294  152.3529 H   0  0  0  0  0  0  0  0  0  0  0  0
  147.1254  140.1335  153.4061 H   0  0  0  0  0  0  0  0  0  0  0  0
  147.1192  138.4082  153.0729 H   0  0  0  0  0  0  0  0  0  0  0  0
  1  2  1  0  0  0  0
  1 24  1  0  0  0  0
  1 25  1  0  0  0  0
  1 26  1  0  0  0  0
  2 22  2  0  0  0  0
  2  3  1  0  0  0  0
  3  4  2  0  0  0  0
  4  5  1  0  0  0  0
  4 27  1  0  0  0  0
  5  6  1  0  0  0  0
  5 20  1  0  0  0  0
  6  7  1  0  0  0  0
  6 28  1  0  0  0  0
  6 29  1  0  0  0  0
  7  8  1  0  0  0  0
  7  9  1  0  0  0  0
  7 10  1  0  0  0  0
  8 30  1  0  0  0  0
  8 31  1  0  0  0  0
  8 32  1  0  0  0  0
  9 33  1  0  0  0  0
 10 19  1  0  0  0  0
 10 11  2  0  0  0  0
 11 12  1  0  0  0  0
 11 34  1  0  0  0  0
 12 13  2  0  0  0  0
 12 35  1  0  0  0  0
 13 14  1  0  0  0  0
 13 36  1  0  0  0  0
 14 15  1  0  0  0  0
 14 19  2  0  0  0  0
 15 16  1  0  0  0  0
 15 17  1  0  0  0  0
 15 18  1  0  0  0  0
 19 37  1  0  0  0  0
 20 21  2  0  0  0  0
 20 22  1  0  0  0  0
 22 23  1  0  0  0  0
 23 38  1  0  0  0  0
 23 39  1  0  0  0  0
 23 40  1  0  0  0  0
M  END
> <s_m_source_file>
AV-unprocessed.smi

> <i_m_source_file_index>
2281

> <i_lp_mmshare_version>
43012

> <i_f3d_flags>
0

> <s_epik_input>
W0NIM11jMW5bY0hdbihjKD1PKWMxW0NIM10pW0NIMl1bQ0BAXShbQ0gzXSkoW09IXSljMltjSF1bY0hdW2NIXWMoQyhGKShGKUYpW2NIXTI=

> <s_epik_cmdline>
J2VwaWtfcHl0aG9uJywgJy1waCcsICc3LjAnLCAnLXRuJywgJzgnLCAnLW1hJywgJzIwMCcsICctbWV0YWxfYmluZGluZycsICctaW1hZScsICc8aW5maWxlLm1hZT4nLCAnLW9tYWUnLCAnPG91dGZpbGUubWFlPic=

> <r_lp_tautomer_probability>
1

> <r_epik_Ionization_Penalty>
5.68222e-05

> <r_epik_Ionization_Penalty_Charging>
9.07816e-08

> <r_epik_Ionization_Penalty_Neutral>
5.67314e-05

> <r_epik_State_Penalty>
-0

> <r_epik_Charging_Adjusted_Penalty>
9.07816e-08

> <i_epik_Tot_Q>
0

> <i_epik_Tot_abs_Q>
0

> <r_epik_Metal_State_Penalty>
-0

> <b_epik_Metal_Only>
0

> <s_lp_Force_Field>
OPLS_2005

> <r_lp_Energy>
21.2776

> <b_lp_Chiralities_Consistent>
1

> <s_lp_Variant>
AV-unprocessed.smi:2281-2

> <Gold.Version>
5.8.1

> <Gold.Id.Protein>
6NUR|6NUR_protein|mol2

> <Gold.PLP.Fitness>
43.0274

> <Gold.PLP.PLP>
-41.6197

> <Gold.PLP.part.hbond>
-2.9088

> <Gold.PLP.part.metal>
0.0000

> <Gold.PLP.part.buried>
-0.2640

> <Gold.PLP.part.nonpolar>
-37.7663

> <Gold.PLP.part.repulsive>
0.1900

> <Gold.PLP.ligand.clash>
0.0000

> <Gold.PLP.ligand.torsion>
1.8578

> <Gold.PLP.Chemscore.Hbond>
1.6157

> <Gold.PLP.Chemscore.CHOScore>
0.0000

> <Gold.PLP.Chemscore.Metal>
0.0000

> <Gold.Chemscore.Hbonds>
donor molecule, donor type, donor heavy atom, donor atom, acceptor molecule, acceptor atom, score
      L1  H     9    33       P1  8028  0.98
      P1  H  7989  7998       L1    21  0.14
      P1  H  8011  8017       L1    21  0.46

> <Gold.PLP.Chemscore.Internal.Correction>
0.2763

> <Gold.Rescore>
     Score         DG    S(hbond)    S(metal)    S(lipo)     H(rot)  DE(clash)    DE(int)     intcor
     14.12     -18.15       1.66        0.00     106.65       2.09       2.20       1.83       ----

> <Gold.Chemscore.Fitness>
14.1246

> <Gold.Chemscore.DG>
-18.1506

> <Gold.Chemscore.ZeroCoef>
-5.4800

> <Gold.Chemscore.Hbond>
1.6564

> <Gold.Chemscore.Metal>
0.0000

> <Gold.Chemscore.Lipo>
106.6525

> <Gold.Chemscore.Internal_Hbond>
0.0000

> <Gold.Chemscore.DEClash>
2.1999

> <Gold.Chemscore.DEInternal>
1.8261

> <Gold.Chemscore.Rot>
2.0860

> <Gold.Chemscore.Internal.Correction>
   9.000000E+99

> <Gold.Chemscore.Hbonds>
donor molecule, donor type, donor heavy atom, donor atom, acceptor molecule, acceptor atom, score
      L1  H     9    33       P1  8028  0.93
      P1  H  7989  7998       L1    21  0.01
      P1  H  8011  8017       L1    21  0.46

> <Gold.Chemscore.Hbond.Weighted>
-5.5324

> <Gold.Chemscore.Metal.Weighted>
-0.0000

> <Gold.Chemscore.Lipo.Weighted>
-12.4783

> <Gold.Chemscore.Internal_Hbond.Weighted>
0.0000

> <Gold.Chemscore.DEClash.Weighted>
2.1999

> <Gold.Chemscore.DEInternal.Weighted>
1.8261

> <Gold.Chemscore.Rot.Weighted>
5.3402

> <Gold.Chemscore.Internal.Correction.Weighted>
   9.000000E+99

> <Gold.Protein.RotatedTorsions>
[ 6907 6896 6895 6894 ] final   40.25 input  -60.11 | X-H torsion
[ 7974 7965 7964 7962 ] final   79.84 input  175.53 | X-H torsion
[ 8008 7997 7996 7995 ] final   -2.18 input   59.86 | X-H torsion
[ 10167 10162 10161 10158 ] final  -66.77 input  -65.29 | X-H torsion
[ 10718 10713 10712 10709 ] final   59.91 input   66.30 | X-H torsion
[ 10763 10752 10751 10750 ] final  -75.36 input  -60.55 | X-H torsion
[ 11005 11000 10999 10996 ] final   -0.40 input  -57.11 | X-H torsion

> <Gold.Protein.ActiveResidues>
 VAL166  LYS551  ARG553  GLY616  TRP617  ASP618  TYR619  PRO620  LYS621  CYS622 
 ASP623  PHE694  ASN695  SER759  ASP760  ASP761  ALA762  ILE779  LEU786  VAL792 
 PHE793  MET794  SER795  GLU796  ALA797  LYS798  CYS799  TRP800  GLU811  SER814 

> <Gold.Protein.RotatedAtoms>
  152.1800  134.8762  160.0526 H   0  0  0  0  0  0  0  0  0  0  0  0  # atno 6907 bound_to 6896
  151.9690  133.3714  159.4072 H   0  0  0  0  0  0  0  0  0  0  0  0  # atno 6908 bound_to 6896
  150.6916  134.4084  159.5194 H   0  0  0  0  0  0  0  0  0  0  0  0  # atno 6909 bound_to 6896
  145.6589  139.2466  143.1934 H   0  0  0  0  0  0  0  0  0  0  0  0  # atno 7974 bound_to 7965
  154.6386  140.2541  155.7349 H   0  0  0  0  0  0  0  0  0  0  0  0  # atno 8008 bound_to 7997
  156.2517  140.2892  156.0690 H   0  0  0  0  0  0  0  0  0  0  0  0  # atno 8009 bound_to 7997
  155.1632  140.0385  157.2837 H   0  0  0  0  0  0  0  0  0  0  0  0  # atno 8010 bound_to 7997
  140.5632  143.2313  151.6686 H   0  0  0  0  0  0  0  0  0  0  0  0  # atno 10167 bound_to 10162
  157.5712  130.8909  149.9270 H   0  0  0  0  0  0  0  0  0  0  0  0  # atno 10718 bound_to 10713
  154.4855  135.5834  153.6420 H   0  0  0  0  0  0  0  0  0  0  0  0  # atno 10763 bound_to 10752
  152.9854  135.6100  154.3192 H   0  0  0  0  0  0  0  0  0  0  0  0  # atno 10764 bound_to 10752
  154.3087  135.2845  155.2556 H   0  0  0  0  0  0  0  0  0  0  0  0  # atno 10765 bound_to 10752
  140.6358  133.9534  155.8299 H   0  0  0  0  0  0  0  0  0  0  0  0  # atno 11005 bound_to 11000
  146.1141  140.7391  142.9489 LP  0  0  0  0  0  0  0  0  0  0  0  0  # atno 17320 bound_to 7965
  144.7096  140.3987  143.7091 LP  0  0  0  0  0  0  0  0  0  0  0  0  # atno 17321 bound_to 7965
  139.5080  144.3625  152.0548 LP  0  0  0  0  0  0  0  0  0  0  0  0  # atno 17342 bound_to 10162
  140.2754  144.3918  150.6137 LP  0  0  0  0  0  0  0  0  0  0  0  0  # atno 17343 bound_to 10162
  156.0758  130.3679  150.0681 LP  0  0  0  0  0  0  0  0  0  0  0  0  # atno 17370 bound_to 10713
  156.8834  130.9564  151.3597 LP  0  0  0  0  0  0  0  0  0  0  0  0  # atno 17371 bound_to 10713
  141.0642  134.0301  157.3616 LP  0  0  0  0  0  0  0  0  0  0  0  0  # atno 17394 bound_to 11000
  139.9098  135.0188  156.7645 LP  0  0  0  0  0  0  0  0  0  0  0  0  # atno 17395 bound_to 11000

$$$$
