AV-unprocessed.smi:1721|AV-procd|sdf|6935|dock6
  -GOLD-   22720 8143D 1   1.00000     0.00000
 Structure written by MMmdl.
 44 46  0  0  0  0  0  0  0  0  2 V2000
  151.4828  138.1694  154.6304 C   0  0  0  0  0  0  0  0  0  0  0  0
  150.1884  138.1763  154.0381 O   0  0  0  0  0  0  0  0  0  0  0  0
  149.4390  139.3361  154.1009 C   0  0  0  0  0  0  0  0  0  0  0  0
  150.0038  140.4371  154.6570 N   0  0  0  0  0  0  0  0  0  0  0  0
  149.2758  141.5699  154.7220 C   0  0  0  0  0  0  0  0  0  0  0  0
  147.9575  141.6651  154.2416 C   0  0  0  0  0  0  0  0  0  0  0  0
  147.3689  140.5252  153.6639 C   0  0  0  0  0  0  0  0  0  0  0  0
  148.1209  139.3261  153.5856 C   0  0  0  0  0  0  0  0  0  0  0  0
  147.6424  138.1058  153.0267 N   0  0  0  0  0  0  0  0  0  0  0  0
  146.3825  137.6986  152.7944 C   0  0  0  0  0  0  0  0  0  0  0  0
  145.3618  138.3404  153.0374 O   0  0  0  0  0  0  0  0  0  0  0  0
  146.3674  136.4754  152.2461 N   0  0  0  0  0  0  0  0  0  0  0  0
  145.1651  135.7352  151.8729 C   0  0  2  0  0  0  0  0  0  0  0  0
  144.0105  135.9399  152.8465 C   0  0  0  0  0  0  0  0  0  0  0  0
  143.1109  134.7421  152.5367 C   0  0  0  0  0  0  0  0  0  0  0  0
  144.0200  133.6347  152.1606 N   0  3  1  0  0  0  0  0  0  0  0  0
  143.4930  132.7389  151.1020 C   0  0  0  0  0  0  0  0  0  0  0  0
  144.4920  131.6072  150.7963 C   0  0  0  0  0  0  0  0  0  0  0  0
  145.9307  132.1150  150.5652 C   0  0  0  0  0  0  0  0  0  0  0  0
  146.0262  133.6477  150.6167 C   0  0  0  0  0  0  0  0  0  0  0  0
  145.3697  134.2108  151.8983 C   0  0  1  0  0  0  0  0  0  0  0  0
  151.9338  137.1860  154.4989 H   0  0  0  0  0  0  0  0  0  0  0  0
  151.4333  138.3692  155.7018 H   0  0  0  0  0  0  0  0  0  0  0  0
  152.1409  138.9006  154.1591 H   0  0  0  0  0  0  0  0  0  0  0  0
  149.7579  142.4255  155.1711 H   0  0  0  0  0  0  0  0  0  0  0  0
  147.4091  142.5926  154.3151 H   0  0  0  0  0  0  0  0  0  0  0  0
  146.3576  140.6053  153.3008 H   0  0  0  0  0  0  0  0  0  0  0  0
  148.3674  137.4551  152.7608 H   0  0  0  0  0  0  0  0  0  0  0  0
  147.2533  136.0199  152.0812 H   0  0  0  0  0  0  0  0  0  0  0  0
  144.8228  136.0454  150.8830 H   0  0  0  0  0  0  0  0  0  0  0  0
  144.3637  135.8846  153.8774 H   0  0  0  0  0  0  0  0  0  0  0  0
  143.5034  136.8959  152.7112 H   0  0  0  0  0  0  0  0  0  0  0  0
  142.4761  134.4678  153.3795 H   0  0  0  0  0  0  0  0  0  0  0  0
  142.4598  134.9916  151.6971 H   0  0  0  0  0  0  0  0  0  0  0  0
  142.5392  132.3181  151.4223 H   0  0  0  0  0  0  0  0  0  0  0  0
  143.2927  133.3167  150.1983 H   0  0  0  0  0  0  0  0  0  0  0  0
  144.4950  130.8957  151.6230 H   0  0  0  0  0  0  0  0  0  0  0  0
  144.1500  131.0493  149.9240 H   0  0  0  0  0  0  0  0  0  0  0  0
  146.5854  131.6923  151.3283 H   0  0  0  0  0  0  0  0  0  0  0  0
  146.3088  131.7518  149.6089 H   0  0  0  0  0  0  0  0  0  0  0  0
  147.0712  133.9538  150.5637 H   0  0  0  0  0  0  0  0  0  0  0  0
  145.5449  134.0676  149.7324 H   0  0  0  0  0  0  0  0  0  0  0  0
  145.9836  133.9422  152.7597 H   0  0  0  0  0  0  0  0  0  0  0  0
  144.1294  133.0607  152.9844 H   0  0  0  0  0  0  0  0  0  0  0  0
  1  2  1  0  0  0  0
  1 22  1  0  0  0  0
  1 23  1  0  0  0  0
  1 24  1  0  0  0  0
  2  3  1  0  0  0  0
  3  8  1  0  0  0  0
  3  4  2  0  0  0  0
  4  5  1  0  0  0  0
  5  6  2  0  0  0  0
  5 25  1  0  0  0  0
  6  7  1  0  0  0  0
  6 26  1  0  0  0  0
  7  8  2  0  0  0  0
  7 27  1  0  0  0  0
  8  9  1  0  0  0  0
  9 10  1  0  0  0  0
  9 28  1  0  0  0  0
 10 11  2  0  0  0  0
 10 12  1  0  0  0  0
 12 13  1  0  0  0  0
 12 29  1  0  0  0  0
 13 21  1  0  0  0  0
 13 14  1  0  0  0  0
 13 30  1  0  0  0  0
 14 15  1  0  0  0  0
 14 31  1  0  0  0  0
 14 32  1  0  0  0  0
 15 16  1  0  0  0  0
 15 33  1  0  0  0  0
 15 34  1  0  0  0  0
 16 21  1  0  0  0  0
 16 17  1  0  0  0  0
 16 44  1  0  0  0  0
 17 18  1  0  0  0  0
 17 35  1  0  0  0  0
 17 36  1  0  0  0  0
 18 19  1  0  0  0  0
 18 37  1  0  0  0  0
 18 38  1  0  0  0  0
 19 20  1  0  0  0  0
 19 39  1  0  0  0  0
 19 40  1  0  0  0  0
 20 21  1  0  0  0  0
 20 41  1  0  0  0  0
 20 42  1  0  0  0  0
 21 43  1  0  0  0  0
M  CHG  1  16   1
M  END
> <s_m_source_file>
AV-unprocessed.smi

> <i_m_source_file_index>
1721

> <i_lp_mmshare_version>
43012

> <i_f3d_flags>
0

> <s_epik_input>
W0NIM11PYzFuW2NIXVtjSF1bY0hdYzFbTkhdQyg9TylbTkhdW0NASF0oW0NIMl1bQ0gyXTIpW0NAQEhdKE4yMylbQ0gyXVtDSDJdW0NIMl1bQ0gyXTM=

> <s_epik_cmdline>
J2VwaWtfcHl0aG9uJywgJy1waCcsICc3LjAnLCAnLXRuJywgJzgnLCAnLW1hJywgJzIwMCcsICctbWV0YWxfYmluZGluZycsICctaW1hZScsICc8aW5maWxlLm1hZT4nLCAnLW9tYWUnLCAnPG91dGZpbGUubWFlPic=

> <r_lp_tautomer_probability>
1

> <r_epik_Ionization_Penalty>
0.00104793

> <r_epik_Ionization_Penalty_Charging>
0.000974069

> <r_epik_Ionization_Penalty_Neutral>
7.38649e-05

> <r_epik_State_Penalty>
0.000633842

> <r_epik_Charging_Adjusted_Penalty>
0.00160791

> <i_epik_Tot_Q>
1

> <i_epik_Tot_abs_Q>
1

> <r_epik_Metal_State_Penalty>
-0

> <b_epik_Metal_Only>
0

> <s_lp_Force_Field>
OPLS_2005

> <r_lp_Energy>
42.7216

> <b_lp_Chiralities_Consistent>
1

> <s_lp_Variant>
AV-unprocessed.smi:1721-1

> <Gold.Version>
5.8.1

> <Gold.Id.Protein>
6NUR|6NUR_protein|mol2

> <Gold.PLP.Fitness>
47.1432

> <Gold.PLP.PLP>
-36.4523

> <Gold.PLP.part.hbond>
-3.0421

> <Gold.PLP.part.metal>
0.0000

> <Gold.PLP.part.buried>
-3.0178

> <Gold.PLP.part.nonpolar>
-33.7423

> <Gold.PLP.part.repulsive>
2.8654

> <Gold.PLP.ligand.clash>
0.0000

> <Gold.PLP.ligand.torsion>
0.4423

> <Gold.PLP.Chemscore.Hbond>
2.8560

> <Gold.PLP.Chemscore.CHOScore>
1.0000

> <Gold.PLP.Chemscore.Metal>
0.0000

> <Gold.Chemscore.Hbonds>
donor molecule, donor type, donor heavy atom, donor atom, acceptor molecule, acceptor atom, score
      L1  H     9    28       P1  7948  1.00
      L1  H    12    29       P1  7948  0.93
      P1  H  7989  7998       L1     4  0.92
      L1  C     5    25       P1  8028  1.00

> <Gold.PLP.Chemscore.Internal.Correction>
0.0075

> <Gold.Rescore>
     Score         DG    S(hbond)    S(metal)    S(lipo)     H(rot)  DE(clash)    DE(int)     intcor
     16.20     -19.80       2.34        0.00      82.87       1.25       0.84       2.77       ----

> <Gold.Chemscore.Fitness>
16.1952

> <Gold.Chemscore.DG>
-19.8040

> <Gold.Chemscore.ZeroCoef>
-5.4800

> <Gold.Chemscore.Hbond>
2.3419

> <Gold.Chemscore.Metal>
0.0000

> <Gold.Chemscore.Lipo>
82.8673

> <Gold.Chemscore.Internal_Hbond>
0.0000

> <Gold.Chemscore.DEClash>
0.8418

> <Gold.Chemscore.DEInternal>
2.7670

> <Gold.Chemscore.Rot>
1.2474

> <Gold.Chemscore.Internal.Correction>
   9.000000E+99

> <Gold.Chemscore.Hbonds>
donor molecule, donor type, donor heavy atom, donor atom, acceptor molecule, acceptor atom, score
      L1  H     9    28       P1  7948  0.96
      L1  H    12    29       P1  7948  0.91
      P1  H  7989  7998       L1     4  0.23

> <Gold.Chemscore.Hbond.Weighted>
-7.8220

> <Gold.Chemscore.Metal.Weighted>
-0.0000

> <Gold.Chemscore.Lipo.Weighted>
-9.6955

> <Gold.Chemscore.Internal_Hbond.Weighted>
0.0000

> <Gold.Chemscore.DEClash.Weighted>
0.8418

> <Gold.Chemscore.DEInternal.Weighted>
2.7670

> <Gold.Chemscore.Rot.Weighted>
3.1934

> <Gold.Chemscore.Internal.Correction.Weighted>
   9.000000E+99

> <Gold.Protein.RotatedTorsions>
[ 6907 6896 6895 6894 ] final   55.60 input  -60.11 | X-H torsion
[ 7974 7965 7964 7962 ] final  145.30 input  175.53 | X-H torsion
[ 8008 7997 7996 7995 ] final   47.71 input   59.86 | X-H torsion
[ 10167 10162 10161 10158 ] final   65.12 input  -65.29 | X-H torsion
[ 10718 10713 10712 10709 ] final  110.51 input   66.30 | X-H torsion
[ 10763 10752 10751 10750 ] final  -68.70 input  -60.55 | X-H torsion
[ 11005 11000 10999 10996 ] final   26.48 input  -57.11 | X-H torsion

> <Gold.Protein.ActiveResidues>
 VAL166  LYS551  ARG553  GLY616  TRP617  ASP618  TYR619  PRO620  LYS621  CYS622 
 ASP623  PHE694  ASN695  SER759  ASP760  ASP761  ALA762  ILE779  LEU786  VAL792 
 PHE793  MET794  SER795  GLU796  ALA797  LYS798  CYS799  TRP800  GLU811  SER814 

> <Gold.Protein.RotatedAtoms>
  152.3554  134.6947  160.0223 H   0  0  0  0  0  0  0  0  0  0  0  0  # atno 6907 bound_to 6896
  151.7287  133.3311  159.3342 H   0  0  0  0  0  0  0  0  0  0  0  0  # atno 6908 bound_to 6896
  150.7568  134.6316  159.6234 H   0  0  0  0  0  0  0  0  0  0  0  0  # atno 6909 bound_to 6896
  144.8763  139.5767  143.5863 H   0  0  0  0  0  0  0  0  0  0  0  0  # atno 7974 bound_to 7965
  155.3736  140.3425  155.4244 H   0  0  0  0  0  0  0  0  0  0  0  0  # atno 8008 bound_to 7997
  156.1649  140.1613  156.8582 H   0  0  0  0  0  0  0  0  0  0  0  0  # atno 8009 bound_to 7997
  154.5175  140.0775  156.8092 H   0  0  0  0  0  0  0  0  0  0  0  0  # atno 8010 bound_to 7997
  140.1148  144.4785  150.6956 H   0  0  0  0  0  0  0  0  0  0  0  0  # atno 10167 bound_to 10162
  157.6491  131.0934  150.6612 H   0  0  0  0  0  0  0  0  0  0  0  0  # atno 10718 bound_to 10713
  154.3928  135.6048  153.5853 H   0  0  0  0  0  0  0  0  0  0  0  0  # atno 10763 bound_to 10752
  152.9787  135.5888  154.4277 H   0  0  0  0  0  0  0  0  0  0  0  0  # atno 10764 bound_to 10752
  154.4063  135.2843  155.2043 H   0  0  0  0  0  0  0  0  0  0  0  0  # atno 10765 bound_to 10752
  140.3366  134.2379  155.7695 H   0  0  0  0  0  0  0  0  0  0  0  0  # atno 11005 bound_to 11000
  146.2965  139.7294  142.9123 LP  0  0  0  0  0  0  0  0  0  0  0  0  # atno 17320 bound_to 7965
  145.4036  141.0388  143.3057 LP  0  0  0  0  0  0  0  0  0  0  0  0  # atno 17321 bound_to 7965
  140.6905  143.2373  151.5143 LP  0  0  0  0  0  0  0  0  0  0  0  0  # atno 17342 bound_to 10162
  139.5600  144.2180  152.1676 LP  0  0  0  0  0  0  0  0  0  0  0  0  # atno 17343 bound_to 10162
  156.6925  130.4599  149.5595 LP  0  0  0  0  0  0  0  0  0  0  0  0  # atno 17370 bound_to 10713
  156.1851  130.6524  151.0997 LP  0  0  0  0  0  0  0  0  0  0  0  0  # atno 17371 bound_to 10713
  141.2049  133.7873  157.0259 LP  0  0  0  0  0  0  0  0  0  0  0  0  # atno 17394 bound_to 11000
  140.0816  134.9645  157.1633 LP  0  0  0  0  0  0  0  0  0  0  0  0  # atno 17395 bound_to 11000

$$$$
