AV-unprocessed.smi:2276|AV-procd|sdf|9176|dock3
  -GOLD-   2272012393D 1   1.00000     0.00000
 Structure written by MMmdl.
 52 53  0  0  0  0  0  0  0  0  1 V2000
  151.9621  145.8851  160.2901 C   0  0  0  0  0  0  0  0  0  0  0  0
  152.0039  144.5164  159.6437 C   0  0  0  0  0  0  0  0  0  0  0  0
  152.7988  143.4862  160.1822 C   0  0  0  0  0  0  0  0  0  0  0  0
  152.7949  142.2358  159.5335 C   0  0  0  0  0  0  0  0  0  0  0  0
  153.6169  141.0800  160.0637 C   0  0  0  0  0  0  0  0  0  0  0  0
  152.0665  141.9834  158.4253 N   0  0  0  0  0  0  0  0  0  0  0  0
  151.2970  142.9676  157.8981 C   0  0  0  0  0  0  0  0  0  0  0  0
  150.4855  142.7989  156.7450 N   0  0  0  0  0  0  0  0  0  0  0  0
  150.2474  141.6688  156.0564 C   0  0  0  0  0  0  0  0  0  0  0  0
  150.7722  140.5765  156.2757 O   0  0  0  0  0  0  0  0  0  0  0  0
  149.3531  141.8758  155.0787 N   0  0  0  0  0  0  0  0  0  0  0  0
  148.8531  140.8531  154.1638 C   0  0  0  0  0  0  0  0  0  0  0  0
  147.3146  140.8700  154.0203 C   0  0  2  0  0  0  0  0  0  0  0  0
  146.8542  139.6929  153.1454 C   0  0  0  0  0  0  0  0  0  0  0  0
  146.8012  142.2177  153.4578 C   0  0  0  0  0  0  0  0  0  0  0  0
  145.6652  142.8104  154.1653 N   0  0  0  0  0  0  0  0  0  0  0  0
  145.3384  144.1264  153.6133 C   0  0  0  0  0  0  0  0  0  0  0  0
  144.1329  144.7622  154.3305 C   0  0  0  0  0  0  0  0  0  0  0  0
  144.3862  144.9131  155.7612 N   0  0  0  0  0  0  0  0  0  0  0  0
  143.2546  145.5201  156.4447 C   0  0  0  0  0  0  0  0  0  0  0  0
  144.7140  143.6049  156.3231 C   0  0  0  0  0  0  0  0  0  0  0  0
  145.9160  142.9661  155.6026 C   0  0  0  0  0  0  0  0  0  0  0  0
  151.2435  144.2509  158.4871 C   0  0  0  0  0  0  0  0  0  0  0  0
  152.5104  145.8951  161.2325 H   0  0  0  0  0  0  0  0  0  0  0  0
  150.9317  146.1782  160.4930 H   0  0  0  0  0  0  0  0  0  0  0  0
  152.4071  146.6275  159.6274 H   0  0  0  0  0  0  0  0  0  0  0  0
  153.3938  143.6487  161.0692 H   0  0  0  0  0  0  0  0  0  0  0  0
  154.3510  141.4207  160.7943 H   0  0  0  0  0  0  0  0  0  0  0  0
  154.1508  140.5841  159.2524 H   0  0  0  0  0  0  0  0  0  0  0  0
  152.9684  140.3480  160.5455 H   0  0  0  0  0  0  0  0  0  0  0  0
  150.0097  143.6291  156.4246 H   0  0  0  0  0  0  0  0  0  0  0  0
  148.9787  142.8064  154.9661 H   0  0  0  0  0  0  0  0  0  0  0  0
  149.3187  141.0170  153.1915 H   0  0  0  0  0  0  0  0  0  0  0  0
  149.1920  139.8732  154.5042 H   0  0  0  0  0  0  0  0  0  0  0  0
  146.9014  140.7131  155.0154 H   0  0  0  0  0  0  0  0  0  0  0  0
  147.2412  139.7785  152.1296 H   0  0  0  0  0  0  0  0  0  0  0  0
  145.7667  139.6448  153.0847 H   0  0  0  0  0  0  0  0  0  0  0  0
  147.1982  138.7424  153.5541 H   0  0  0  0  0  0  0  0  0  0  0  0
  147.6134  142.9452  153.4363 H   0  0  0  0  0  0  0  0  0  0  0  0
  146.5261  142.0570  152.4145 H   0  0  0  0  0  0  0  0  0  0  0  0
  146.2018  144.7895  153.6911 H   0  0  0  0  0  0  0  0  0  0  0  0
  145.1122  144.0341  152.5507 H   0  0  0  0  0  0  0  0  0  0  0  0
  143.9231  145.7370  153.8888 H   0  0  0  0  0  0  0  0  0  0  0  0
  143.2452  144.1485  154.1692 H   0  0  0  0  0  0  0  0  0  0  0  0
  143.4680  145.6472  157.5065 H   0  0  0  0  0  0  0  0  0  0  0  0
  142.3593  144.9043  156.3495 H   0  0  0  0  0  0  0  0  0  0  0  0
  143.0365  146.5046  156.0299 H   0  0  0  0  0  0  0  0  0  0  0  0
  144.9427  143.7070  157.3843 H   0  0  0  0  0  0  0  0  0  0  0  0
  143.8513  142.9406  156.2527 H   0  0  0  0  0  0  0  0  0  0  0  0
  146.1124  141.9986  156.0621 H   0  0  0  0  0  0  0  0  0  0  0  0
  146.8071  143.5748  155.7644 H   0  0  0  0  0  0  0  0  0  0  0  0
  150.6244  145.0261  158.0589 H   0  0  0  0  0  0  0  0  0  0  0  0
  1  2  1  0  0  0  0
  1 24  1  0  0  0  0
  1 25  1  0  0  0  0
  1 26  1  0  0  0  0
  2 23  1  0  0  0  0
  2  3  2  0  0  0  0
  3  4  1  0  0  0  0
  3 27  1  0  0  0  0
  4  5  1  0  0  0  0
  4  6  2  0  0  0  0
  5 28  1  0  0  0  0
  5 29  1  0  0  0  0
  5 30  1  0  0  0  0
  6  7  1  0  0  0  0
  7  8  1  0  0  0  0
  7 23  2  0  0  0  0
  8  9  1  0  0  0  0
  8 31  1  0  0  0  0
  9 10  2  0  0  0  0
  9 11  1  0  0  0  0
 11 12  1  0  0  0  0
 11 32  1  0  0  0  0
 12 13  1  0  0  0  0
 12 33  1  0  0  0  0
 12 34  1  0  0  0  0
 13 14  1  0  0  0  0
 13 15  1  0  0  0  0
 13 35  1  0  0  0  0
 14 36  1  0  0  0  0
 14 37  1  0  0  0  0
 14 38  1  0  0  0  0
 15 16  1  0  0  0  0
 15 39  1  0  0  0  0
 15 40  1  0  0  0  0
 16 22  1  0  0  0  0
 16 17  1  0  0  0  0
 17 18  1  0  0  0  0
 17 41  1  0  0  0  0
 17 42  1  0  0  0  0
 18 19  1  0  0  0  0
 18 43  1  0  0  0  0
 18 44  1  0  0  0  0
 19 20  1  0  0  0  0
 19 21  1  0  0  0  0
 20 45  1  0  0  0  0
 20 46  1  0  0  0  0
 20 47  1  0  0  0  0
 21 22  1  0  0  0  0
 21 48  1  0  0  0  0
 21 49  1  0  0  0  0
 22 50  1  0  0  0  0
 22 51  1  0  0  0  0
 23 52  1  0  0  0  0
M  END
> <s_m_source_file>
AV-unprocessed.smi

> <i_m_source_file_index>
2276

> <i_lp_mmshare_version>
43012

> <i_f3d_flags>
0

> <s_epik_input>
W0NIM11jMVtjSF1jKFtDSDNdKW5jKFtjSF0xKVtOSF1DKD1PKVtOSF1bQ0gyXVtDQEhdKFtDSDNdKVtDSDJdTjJbQ0gyXVtDSDJdTihbQ0gzXSlbQ0gyXVtDSDJdMg==

> <s_epik_cmdline>
J2VwaWtfcHl0aG9uJywgJy1waCcsICc3LjAnLCAnLXRuJywgJzgnLCAnLW1hJywgJzIwMCcsICctbWV0YWxfYmluZGluZycsICctaW1hZScsICc8aW5maWxlLm1hZT4nLCAnLW9tYWUnLCAnPG91dGZpbGUubWFlPic=

> <r_epik_Ionization_Penalty>
3.46991

> <r_epik_Ionization_Penalty_Charging>
0

> <r_epik_Ionization_Penalty_Neutral>
3.46991

> <r_epik_State_Penalty>
2.28006

> <r_epik_Charging_Adjusted_Penalty>
2.28006

> <i_epik_Tot_Q>
0

> <i_epik_Tot_abs_Q>
0

> <r_epik_Metal_State_Penalty>
2.28005

> <b_epik_Metal_Only>
0

> <s_lp_Force_Field>
OPLS_2005

> <r_lp_Energy>
36.9952

> <b_lp_Chiralities_Consistent>
1

> <s_lp_Variant>
AV-unprocessed.smi:2276-5

> <Gold.Version>
5.8.1

> <Gold.Id.Protein>
6NUR|6NUR_protein|mol2

> <Gold.PLP.Fitness>
54.5115

> <Gold.PLP.PLP>
-50.0166

> <Gold.PLP.part.hbond>
-2.0000

> <Gold.PLP.part.metal>
0.0000

> <Gold.PLP.part.buried>
-9.0370

> <Gold.PLP.part.nonpolar>
-41.2433

> <Gold.PLP.part.repulsive>
0.5791

> <Gold.PLP.ligand.clash>
0.0000

> <Gold.PLP.ligand.torsion>
0.7407

> <Gold.PLP.Chemscore.Hbond>
1.9760

> <Gold.PLP.Chemscore.CHOScore>
0.0000

> <Gold.PLP.Chemscore.Metal>
0.0000

> <Gold.Chemscore.Hbonds>
donor molecule, donor type, donor heavy atom, donor atom, acceptor molecule, acceptor atom, score
      L1  H     8    31       P1  8028  1.00
      L1  H    11    32       P1  8028  0.98

> <Gold.PLP.Chemscore.Internal.Correction>
0.0484

> <Gold.Rescore>
     Score         DG    S(hbond)    S(metal)    S(lipo)     H(rot)  DE(clash)    DE(int)     intcor
     19.86     -22.08       1.95        0.00     120.76       1.57       0.23       1.99       ----

> <Gold.Chemscore.Fitness>
19.8577

> <Gold.Chemscore.DG>
-22.0839

> <Gold.Chemscore.ZeroCoef>
-5.4800

> <Gold.Chemscore.Hbond>
1.9456

> <Gold.Chemscore.Metal>
0.0000

> <Gold.Chemscore.Lipo>
120.7589

> <Gold.Chemscore.Internal_Hbond>
0.0000

> <Gold.Chemscore.DEClash>
0.2335

> <Gold.Chemscore.DEInternal>
1.9928

> <Gold.Chemscore.Rot>
1.5715

> <Gold.Chemscore.Internal.Correction>
   9.000000E+99

> <Gold.Chemscore.Hbonds>
donor molecule, donor type, donor heavy atom, donor atom, acceptor molecule, acceptor atom, score
      L1  H     8    31       P1  8028  1.00
      L1  H    11    32       P1  8028  0.87

> <Gold.Chemscore.Hbond.Weighted>
-6.4983

> <Gold.Chemscore.Metal.Weighted>
-0.0000

> <Gold.Chemscore.Lipo.Weighted>
-14.1288

> <Gold.Chemscore.Internal_Hbond.Weighted>
0.0000

> <Gold.Chemscore.DEClash.Weighted>
0.2335

> <Gold.Chemscore.DEInternal.Weighted>
1.9928

> <Gold.Chemscore.Rot.Weighted>
4.0231

> <Gold.Chemscore.Internal.Correction.Weighted>
   9.000000E+99

> <Gold.Protein.RotatedTorsions>
[ 6907 6896 6895 6894 ] final   11.23 input  -60.11 | X-H torsion
[ 7974 7965 7964 7962 ] final -120.73 input  175.53 | X-H torsion
[ 8008 7997 7996 7995 ] final  -59.15 input   59.86 | X-H torsion
[ 10167 10162 10161 10158 ] final -148.04 input  -65.29 | X-H torsion
[ 10718 10713 10712 10709 ] final -141.20 input   66.30 | X-H torsion
[ 10763 10752 10751 10750 ] final  -13.52 input  -60.55 | X-H torsion
[ 11005 11000 10999 10996 ] final  101.51 input  -57.11 | X-H torsion

> <Gold.Protein.ActiveResidues>
 VAL166  LYS551  ARG553  GLY616  TRP617  ASP618  TYR619  PRO620  LYS621  CYS622 
 ASP623  PHE694  ASN695  SER759  ASP760  ASP761  ALA762  ILE779  LEU786  VAL792 
 PHE793  MET794  SER795  GLU796  ALA797  LYS798  CYS799  TRP800  GLU811  SER814 

> <Gold.Protein.RotatedAtoms>
  151.7510  135.0832  160.0330 H   0  0  0  0  0  0  0  0  0  0  0  0  # atno 6907 bound_to 6896
  152.3416  133.6070  159.5889 H   0  0  0  0  0  0  0  0  0  0  0  0  # atno 6908 bound_to 6896
  150.7483  133.9629  159.3563 H   0  0  0  0  0  0  0  0  0  0  0  0  # atno 6909 bound_to 6896
  145.0481  140.8197  143.4226 H   0  0  0  0  0  0  0  0  0  0  0  0  # atno 7974 bound_to 7965
  154.4339  140.1068  156.6070 H   0  0  0  0  0  0  0  0  0  0  0  0  # atno 8008 bound_to 7997
  155.5850  140.3491  155.4532 H   0  0  0  0  0  0  0  0  0  0  0  0  # atno 8009 bound_to 7997
  156.0289  140.1256  157.0268 H   0  0  0  0  0  0  0  0  0  0  0  0  # atno 8010 bound_to 7997
  139.7567  143.8437  152.2598 H   0  0  0  0  0  0  0  0  0  0  0  0  # atno 10167 bound_to 10162
  156.3313  130.7587  151.1706 H   0  0  0  0  0  0  0  0  0  0  0  0  # atno 10718 bound_to 10713
  153.5145  135.7016  153.5763 H   0  0  0  0  0  0  0  0  0  0  0  0  # atno 10763 bound_to 10752
  153.3839  135.3913  155.1876 H   0  0  0  0  0  0  0  0  0  0  0  0  # atno 10764 bound_to 10752
  154.8700  135.3842  154.4628 H   0  0  0  0  0  0  0  0  0  0  0  0  # atno 10765 bound_to 10752
  139.8773  134.9186  156.4917 H   0  0  0  0  0  0  0  0  0  0  0  0  # atno 11005 bound_to 11000
  145.1562  139.2485  143.5415 LP  0  0  0  0  0  0  0  0  0  0  0  0  # atno 17320 bound_to 7965
  146.3515  140.1277  142.8598 LP  0  0  0  0  0  0  0  0  0  0  0  0  # atno 17321 bound_to 7965
  139.8431  144.7200  150.9306 LP  0  0  0  0  0  0  0  0  0  0  0  0  # atno 17342 bound_to 10162
  140.7803  143.3965  151.1220 LP  0  0  0  0  0  0  0  0  0  0  0  0  # atno 17343 bound_to 10162
  157.7431  131.0480  150.4975 LP  0  0  0  0  0  0  0  0  0  0  0  0  # atno 17370 bound_to 10713
  156.5141  130.4146  149.6285 LP  0  0  0  0  0  0  0  0  0  0  0  0  # atno 17371 bound_to 10713
  140.8653  133.8029  155.9308 LP  0  0  0  0  0  0  0  0  0  0  0  0  # atno 17394 bound_to 11000
  140.9008  134.2381  157.5043 LP  0  0  0  0  0  0  0  0  0  0  0  0  # atno 17395 bound_to 11000

$$$$
