AV-unprocessed.smi:720|AV-procd|sdf|3502|dock10
  -GOLD-   22720 0493D 1   1.00000     0.00000
 Structure written by MMmdl.
 46 48  0  0  0  0  0  0  0  0  1 V2000
  151.6625  141.7295  158.1951 C   0  0  0  0  0  0  0  0  0  0  0  0
  151.3203  140.4576  157.5699 N   0  0  0  0  0  0  0  0  0  0  0  0
  152.3233  139.4750  157.9591 C   0  0  0  0  0  0  0  0  0  0  0  0
  151.2925  140.5529  156.1093 C   0  0  0  0  0  0  0  0  0  0  0  0
  150.3094  141.6166  155.5752 C   0  0  0  0  0  0  0  0  0  0  0  0
  149.2295  141.0573  154.7802 N   0  0  0  0  0  0  0  0  0  0  0  0
  148.1129  141.6977  154.2791 C   0  0  0  0  0  0  0  0  0  0  0  0
  147.3920  140.7778  153.5724 C   0  0  0  0  0  0  0  0  0  0  0  0
  148.1674  139.5926  153.6939 C   0  0  0  0  0  0  0  0  0  0  0  0
  147.7412  138.3859  153.0845 N   0  0  0  0  0  0  0  0  0  0  0  0
  146.4991  137.8644  153.0644 C   0  0  0  0  0  0  0  0  0  0  0  0
  145.5165  138.3787  153.5957 O   0  0  0  0  0  0  0  0  0  0  0  0
  146.3998  136.7046  152.3904 N   0  0  0  0  0  0  0  0  0  0  0  0
  145.2036  135.8845  152.1799 C   0  0  1  0  0  0  0  0  0  0  0  0
  144.9546  135.6379  150.6755 C   0  0  0  0  0  0  0  0  0  0  0  0
  144.9565  134.1019  150.5677 C   0  0  1  0  0  0  0  0  0  0  0  0
  146.3911  133.5730  150.7569 C   0  0  0  0  0  0  0  0  0  0  0  0
  146.6283  133.7640  152.2668 C   0  0  0  0  0  0  0  0  0  0  0  0
  145.3197  134.4389  152.7309 C   0  0  2  0  0  0  0  0  0  0  0  0
  144.2941  133.6992  151.8784 C   0  0  0  0  0  0  0  0  0  0  0  0
  149.2745  139.7607  154.4032 N   0  0  0  0  0  0  0  0  0  0  0  0
  150.8770  142.4665  158.0407 H   0  0  0  0  0  0  0  0  0  0  0  0
  152.5968  142.1305  157.8004 H   0  0  0  0  0  0  0  0  0  0  0  0
  151.7717  141.6085  159.2735 H   0  0  0  0  0  0  0  0  0  0  0  0
  152.0874  138.4967  157.5388 H   0  0  0  0  0  0  0  0  0  0  0  0
  152.3544  139.3654  159.0437 H   0  0  0  0  0  0  0  0  0  0  0  0
  153.3180  139.7639  157.6162 H   0  0  0  0  0  0  0  0  0  0  0  0
  152.2967  140.6989  155.7087 H   0  0  0  0  0  0  0  0  0  0  0  0
  150.9528  139.5894  155.7268 H   0  0  0  0  0  0  0  0  0  0  0  0
  149.8468  142.1279  156.4201 H   0  0  0  0  0  0  0  0  0  0  0  0
  150.8354  142.3844  155.0052 H   0  0  0  0  0  0  0  0  0  0  0  0
  147.9254  142.7445  154.4677 H   0  0  0  0  0  0  0  0  0  0  0  0
  146.4586  140.9306  153.0512 H   0  0  0  0  0  0  0  0  0  0  0  0
  148.4549  137.8658  152.5959 H   0  0  0  0  0  0  0  0  0  0  0  0
  147.2488  136.3575  151.9678 H   0  0  0  0  0  0  0  0  0  0  0  0
  144.3308  136.3832  152.6061 H   0  0  0  0  0  0  0  0  0  0  0  0
  143.9857  136.0428  150.3803 H   0  0  0  0  0  0  0  0  0  0  0  0
  145.7086  136.0916  150.0305 H   0  0  0  0  0  0  0  0  0  0  0  0
  144.4672  133.7270  149.6683 H   0  0  0  0  0  0  0  0  0  0  0  0
  146.4579  132.5180  150.4889 H   0  0  0  0  0  0  0  0  0  0  0  0
  147.1145  134.1195  150.1508 H   0  0  0  0  0  0  0  0  0  0  0  0
  146.7492  132.7960  152.7546 H   0  0  0  0  0  0  0  0  0  0  0  0
  147.5229  134.3479  152.4831 H   0  0  0  0  0  0  0  0  0  0  0  0
  145.1528  134.3649  153.8059 H   0  0  0  0  0  0  0  0  0  0  0  0
  143.2797  134.0866  151.9879 H   0  0  0  0  0  0  0  0  0  0  0  0
  144.2850  132.6205  152.0460 H   0  0  0  0  0  0  0  0  0  0  0  0
  1  2  1  0  0  0  0
  1 22  1  0  0  0  0
  1 23  1  0  0  0  0
  1 24  1  0  0  0  0
  2  3  1  0  0  0  0
  2  4  1  0  0  0  0
  3 25  1  0  0  0  0
  3 26  1  0  0  0  0
  3 27  1  0  0  0  0
  4  5  1  0  0  0  0
  4 28  1  0  0  0  0
  4 29  1  0  0  0  0
  5  6  1  0  0  0  0
  5 30  1  0  0  0  0
  5 31  1  0  0  0  0
  6 21  1  0  0  0  0
  6  7  1  0  0  0  0
  7  8  2  0  0  0  0
  7 32  1  0  0  0  0
  8  9  1  0  0  0  0
  8 33  1  0  0  0  0
  9 10  1  0  0  0  0
  9 21  2  0  0  0  0
 10 11  1  0  0  0  0
 10 34  1  0  0  0  0
 11 12  2  0  0  0  0
 11 13  1  0  0  0  0
 13 14  1  0  0  0  0
 13 35  1  0  0  0  0
 14 19  1  0  0  0  0
 14 15  1  0  0  0  0
 14 36  1  0  0  0  0
 15 16  1  0  0  0  0
 15 37  1  0  0  0  0
 15 38  1  0  0  0  0
 16 20  1  0  0  0  0
 16 17  1  0  0  0  0
 16 39  1  0  0  0  0
 17 18  1  0  0  0  0
 17 40  1  0  0  0  0
 17 41  1  0  0  0  0
 18 19  1  0  0  0  0
 18 42  1  0  0  0  0
 18 43  1  0  0  0  0
 19 20  1  0  0  0  0
 19 44  1  0  0  0  0
 20 45  1  0  0  0  0
 20 46  1  0  0  0  0
M  END
> <s_m_source_file>
AV-unprocessed.smi

> <i_m_source_file_index>
720

> <i_lp_mmshare_version>
43012

> <i_f3d_flags>
0

> <s_epik_input>
W0NIM11OKFtDSDNdKVtDSDJdW0NIMl1uMVtjSF1bY0hdYyhuMSlbTkhdQyg9TylbTkhdW0NASF0oW0NIMl1bQ0BIXTIzKVtDQEhdKFtDSDJdMylbQ0gyXVtDSDJdMg==

> <s_epik_cmdline>
J2VwaWtfcHl0aG9uJywgJy1waCcsICc3LjAnLCAnLXRuJywgJzgnLCAnLW1hJywgJzIwMCcsICctbWV0YWxfYmluZGluZycsICctaW1hZScsICc8aW5maWxlLm1hZT4nLCAnLW9tYWUnLCAnPG91dGZpbGUubWFlPic=

> <r_lp_tautomer_probability>
1

> <r_epik_Ionization_Penalty>
1.83819

> <r_epik_Ionization_Penalty_Charging>
0

> <r_epik_Ionization_Penalty_Neutral>
1.83819

> <r_epik_State_Penalty>
1.95467

> <r_epik_Charging_Adjusted_Penalty>
1.95467

> <i_epik_Tot_Q>
0

> <i_epik_Tot_abs_Q>
0

> <r_epik_Metal_State_Penalty>
1.95467

> <b_epik_Metal_Only>
0

> <s_lp_Force_Field>
OPLS_2005

> <r_lp_Energy>
62.953

> <b_lp_Chiralities_Consistent>
1

> <s_lp_Variant>
AV-unprocessed.smi:720-8

> <Gold.Version>
5.8.1

> <Gold.Id.Protein>
6NUR|6NUR_protein|mol2

> <Gold.PLP.Fitness>
43.5502

> <Gold.PLP.PLP>
-36.2108

> <Gold.PLP.part.hbond>
-2.6559

> <Gold.PLP.part.metal>
0.0000

> <Gold.PLP.part.buried>
-3.0587

> <Gold.PLP.part.nonpolar>
-31.4714

> <Gold.PLP.part.repulsive>
1.4450

> <Gold.PLP.ligand.clash>
0.0000

> <Gold.PLP.ligand.torsion>
0.8132

> <Gold.PLP.Chemscore.Hbond>
1.9760

> <Gold.PLP.Chemscore.CHOScore>
1.0000

> <Gold.PLP.Chemscore.Metal>
0.0000

> <Gold.Chemscore.Hbonds>
donor molecule, donor type, donor heavy atom, donor atom, acceptor molecule, acceptor atom, score
      L1  H    10    34       P1  7948  0.96
      L1  H    13    35       P1  7948  1.00
      L1  C     7    32       P1  8028  1.00

> <Gold.PLP.Chemscore.Internal.Correction>
0.0378

> <Gold.Rescore>
     Score         DG    S(hbond)    S(metal)    S(lipo)     H(rot)  DE(clash)    DE(int)     intcor
     15.89     -16.86       1.93        0.00      75.58       1.53       0.10       0.88       ----

> <Gold.Chemscore.Fitness>
15.8892

> <Gold.Chemscore.DG>
-16.8638

> <Gold.Chemscore.ZeroCoef>
-5.4800

> <Gold.Chemscore.Hbond>
1.9344

> <Gold.Chemscore.Metal>
0.0000

> <Gold.Chemscore.Lipo>
75.5792

> <Gold.Chemscore.Internal_Hbond>
0.0000

> <Gold.Chemscore.DEClash>
0.0982

> <Gold.Chemscore.DEInternal>
0.8763

> <Gold.Chemscore.Rot>
1.5312

> <Gold.Chemscore.Internal.Correction>
   9.000000E+99

> <Gold.Chemscore.Hbonds>
donor molecule, donor type, donor heavy atom, donor atom, acceptor molecule, acceptor atom, score
      L1  H    10    34       P1  7948  0.92
      L1  H    13    35       P1  7948  0.98

> <Gold.Chemscore.Hbond.Weighted>
-6.4609

> <Gold.Chemscore.Metal.Weighted>
-0.0000

> <Gold.Chemscore.Lipo.Weighted>
-8.8428

> <Gold.Chemscore.Internal_Hbond.Weighted>
0.0000

> <Gold.Chemscore.DEClash.Weighted>
0.0982

> <Gold.Chemscore.DEInternal.Weighted>
0.8763

> <Gold.Chemscore.Rot.Weighted>
3.9199

> <Gold.Chemscore.Internal.Correction.Weighted>
   9.000000E+99

> <Gold.Protein.RotatedTorsions>
[ 6907 6896 6895 6894 ] final  -59.32 input  -60.11 | X-H torsion
[ 7974 7965 7964 7962 ] final   75.63 input  175.53 | X-H torsion
[ 8008 7997 7996 7995 ] final  159.55 input   59.86 | X-H torsion
[ 10167 10162 10161 10158 ] final  -39.22 input  -65.29 | X-H torsion
[ 10718 10713 10712 10709 ] final   57.20 input   66.30 | X-H torsion
[ 10763 10752 10751 10750 ] final -165.33 input  -60.55 | X-H torsion
[ 11005 11000 10999 10996 ] final -149.58 input  -57.11 | X-H torsion

> <Gold.Protein.ActiveResidues>
 VAL166  LYS551  ARG553  GLY616  TRP617  ASP618  TYR619  PRO620  LYS621  CYS622 
 ASP623  PHE694  ASN695  SER759  ASP760  ASP761  ALA762  ILE779  LEU786  VAL792 
 PHE793  MET794  SER795  GLU796  ALA797  LYS798  CYS799  TRP800  GLU811  SER814 

> <Gold.Protein.RotatedAtoms>
  150.7939  134.6984  159.6535 H   0  0  0  0  0  0  0  0  0  0  0  0  # atno 6907 bound_to 6896
  152.4049  134.6221  160.0063 H   0  0  0  0  0  0  0  0  0  0  0  0  # atno 6908 bound_to 6896
  151.6482  133.3285  159.3182 H   0  0  0  0  0  0  0  0  0  0  0  0  # atno 6909 bound_to 6896
  145.7131  139.2621  143.1639 H   0  0  0  0  0  0  0  0  0  0  0  0  # atno 7974 bound_to 7965
  156.2231  140.1828  156.7428 H   0  0  0  0  0  0  0  0  0  0  0  0  # atno 8008 bound_to 7997
  154.5898  140.0652  156.9251 H   0  0  0  0  0  0  0  0  0  0  0  0  # atno 8009 bound_to 7997
  155.2356  140.3318  155.4300 H   0  0  0  0  0  0  0  0  0  0  0  0  # atno 8010 bound_to 7997
  140.7070  143.3228  151.2751 H   0  0  0  0  0  0  0  0  0  0  0  0  # atno 10167 bound_to 10162
  157.5495  130.8755  149.8941 H   0  0  0  0  0  0  0  0  0  0  0  0  # atno 10718 bound_to 10713
  154.6942  135.2976  154.9435 H   0  0  0  0  0  0  0  0  0  0  0  0  # atno 10763 bound_to 10752
  154.0388  135.6660  153.4792 H   0  0  0  0  0  0  0  0  0  0  0  0  # atno 10764 bound_to 10752
  153.0634  135.5102  154.8051 H   0  0  0  0  0  0  0  0  0  0  0  0  # atno 10765 bound_to 10752
  140.7492  134.3426  157.5130 H   0  0  0  0  0  0  0  0  0  0  0  0  # atno 11005 bound_to 11000
  146.0694  140.7885  142.9695 LP  0  0  0  0  0  0  0  0  0  0  0  0  # atno 17320 bound_to 7965
  144.6936  140.3319  143.7214 LP  0  0  0  0  0  0  0  0  0  0  0  0  # atno 17321 bound_to 7965
  139.6687  144.0059  152.2739 LP  0  0  0  0  0  0  0  0  0  0  0  0  # atno 17342 bound_to 10162
  139.9650  144.6532  150.8043 LP  0  0  0  0  0  0  0  0  0  0  0  0  # atno 17343 bound_to 10162
  156.0564  130.3707  150.1082 LP  0  0  0  0  0  0  0  0  0  0  0  0  # atno 17370 bound_to 10713
  156.9256  130.9697  151.3541 LP  0  0  0  0  0  0  0  0  0  0  0  0  # atno 17371 bound_to 10713
  139.8791  134.9131  156.3076 LP  0  0  0  0  0  0  0  0  0  0  0  0  # atno 17394 bound_to 11000
  140.9766  133.7293  156.0611 LP  0  0  0  0  0  0  0  0  0  0  0  0  # atno 17395 bound_to 11000

$$$$
