AV-unprocessed.smi:738|AV-procd|sdf|3539|dock4
  -GOLD-   22720 0533D 1   1.00000     0.00000
 Structure written by MMmdl.
 35 37  0  0  0  0  0  0  0  0  1 V2000
  150.0844  137.8184  153.8359 N   0  0  0  0  0  0  0  0  0  0  0  0
  151.3081  137.7699  154.3713 C   0  0  0  0  0  0  0  0  0  0  0  0
  152.2399  137.1755  153.8329 O   0  0  0  0  0  0  0  0  0  0  0  0
  151.5070  138.5427  155.6431 C   0  0  0  0  0  0  0  0  0  0  0  0
  151.6965  139.9417  155.6111 C   0  0  0  0  0  0  0  0  0  0  0  0
  151.9001  140.6921  156.7144 N   0  0  0  0  0  0  0  0  0  0  0  0
  151.9370  140.0748  157.9197 C   0  0  0  0  0  0  0  0  0  0  0  0
  152.1471  140.8682  159.0597 N   0  0  0  0  0  0  0  0  0  0  0  0
  153.3449  140.4862  159.8092 C   0  0  0  0  0  0  0  0  0  0  0  0
  153.5102  141.3536  161.0816 C   0  0  0  0  0  0  0  0  0  0  0  0
  153.4576  142.7487  160.7657 O   0  0  0  0  0  0  0  0  0  0  0  0
  152.2272  143.0554  160.1244 C   0  0  1  0  0  0  0  0  0  0  0  0
  152.0277  144.5036  159.6863 C   0  0  0  0  0  0  0  0  0  0  0  0
  151.0095  144.4067  158.5297 C   0  0  0  0  0  0  0  0  0  0  0  0
  150.9321  142.9171  158.1348 C   0  0  0  0  0  0  0  0  0  0  0  0
  152.1630  142.3025  158.8041 C   0  0  2  0  0  0  0  0  0  0  0  0
  151.7710  138.6771  158.0585 C   0  0  0  0  0  0  0  0  0  0  0  0
  151.8223  137.9092  159.6066 Cl  0  0  0  0  0  0  0  0  0  0  0  0
  151.5573  137.9028  156.9017 C   0  0  0  0  0  0  0  0  0  0  0  0
  149.8950  137.3218  152.9772 H   0  0  0  0  0  0  0  0  0  0  0  0
  149.3556  138.3532  154.2849 H   0  0  0  0  0  0  0  0  0  0  0  0
  151.6801  140.4829  154.6763 H   0  0  0  0  0  0  0  0  0  0  0  0
  153.2875  139.4315  160.0812 H   0  0  0  0  0  0  0  0  0  0  0  0
  154.2258  140.6049  159.1765 H   0  0  0  0  0  0  0  0  0  0  0  0
  152.7323  141.1135  161.8082 H   0  0  0  0  0  0  0  0  0  0  0  0
  154.4639  141.1350  161.5617 H   0  0  0  0  0  0  0  0  0  0  0  0
  151.3928  142.7686  160.7693 H   0  0  0  0  0  0  0  0  0  0  0  0
  151.6838  145.1417  160.5007 H   0  0  0  0  0  0  0  0  0  0  0  0
  152.9685  144.9130  159.3158 H   0  0  0  0  0  0  0  0  0  0  0  0
  150.0279  144.7684  158.8375 H   0  0  0  0  0  0  0  0  0  0  0  0
  151.3334  145.0203  157.6884 H   0  0  0  0  0  0  0  0  0  0  0  0
  150.0205  142.4747  158.5399 H   0  0  0  0  0  0  0  0  0  0  0  0
  150.9252  142.7688  157.0546 H   0  0  0  0  0  0  0  0  0  0  0  0
  153.0461  142.5501  158.2112 H   0  0  0  0  0  0  0  0  0  0  0  0
  151.4377  136.8328  156.9898 H   0  0  0  0  0  0  0  0  0  0  0  0
  1  2  1  0  0  0  0
  1 20  1  0  0  0  0
  1 21  1  0  0  0  0
  2  3  2  0  0  0  0
  2  4  1  0  0  0  0
  4 19  1  0  0  0  0
  4  5  2  0  0  0  0
  5  6  1  0  0  0  0
  5 22  1  0  0  0  0
  6  7  2  0  0  0  0
  7  8  1  0  0  0  0
  7 17  1  0  0  0  0
  8 16  1  0  0  0  0
  8  9  1  0  0  0  0
  9 10  1  0  0  0  0
  9 23  1  0  0  0  0
  9 24  1  0  0  0  0
 10 11  1  0  0  0  0
 10 25  1  0  0  0  0
 10 26  1  0  0  0  0
 11 12  1  0  0  0  0
 12 16  1  0  0  0  0
 12 13  1  0  0  0  0
 12 27  1  0  0  0  0
 13 14  1  0  0  0  0
 13 28  1  0  0  0  0
 13 29  1  0  0  0  0
 14 15  1  0  0  0  0
 14 30  1  0  0  0  0
 14 31  1  0  0  0  0
 15 16  1  0  0  0  0
 15 32  1  0  0  0  0
 15 33  1  0  0  0  0
 16 34  1  0  0  0  0
 17 18  1  0  0  0  0
 17 19  2  0  0  0  0
 19 35  1  0  0  0  0
M  END
> <s_m_source_file>
AV-unprocessed.smi

> <i_m_source_file_index>
738

> <i_lp_mmshare_version>
43012

> <i_f3d_flags>
0

> <s_epik_input>
W05IMl1DKD1PKWMxW2NIXW5jKGMoQ2wpW2NIXTEpTihbQ0gyXVtDSDJdTzIpW0NASF0oW0NASF0yMylbQ0gyXVtDSDJdW0NIMl0z

> <s_epik_cmdline>
J2VwaWtfcHl0aG9uJywgJy1waCcsICc3LjAnLCAnLXRuJywgJzgnLCAnLW1hJywgJzIwMCcsICctbWV0YWxfYmluZGluZycsICctaW1hZScsICc8aW5maWxlLm1hZT4nLCAnLW9tYWUnLCAnPG91dGZpbGUubWFlPic=

> <r_lp_tautomer_probability>
1

> <r_epik_Ionization_Penalty>
6.75978e-06

> <r_epik_Ionization_Penalty_Charging>
0

> <r_epik_Ionization_Penalty_Neutral>
6.75978e-06

> <r_epik_State_Penalty>
-0

> <r_epik_Charging_Adjusted_Penalty>
0

> <i_epik_Tot_Q>
0

> <i_epik_Tot_abs_Q>
0

> <r_epik_Metal_State_Penalty>
-0

> <b_epik_Metal_Only>
0

> <s_lp_Force_Field>
OPLS_2005

> <r_lp_Energy>
40.6009

> <b_lp_Chiralities_Consistent>
1

> <s_lp_Variant>
AV-unprocessed.smi:738-2

> <Gold.Version>
5.8.1

> <Gold.Id.Protein>
6NUR|6NUR_protein|mol2

> <Gold.PLP.Fitness>
38.1163

> <Gold.PLP.PLP>
-35.2062

> <Gold.PLP.part.hbond>
-2.5698

> <Gold.PLP.part.metal>
0.0000

> <Gold.PLP.part.buried>
-3.6313

> <Gold.PLP.part.nonpolar>
-31.4882

> <Gold.PLP.part.repulsive>
2.1172

> <Gold.PLP.ligand.clash>
0.0000

> <Gold.PLP.ligand.torsion>
1.4851

> <Gold.PLP.Chemscore.Hbond>
1.9440

> <Gold.PLP.Chemscore.CHOScore>
0.0000

> <Gold.PLP.Chemscore.Metal>
0.0000

> <Gold.Chemscore.Hbonds>
donor molecule, donor type, donor heavy atom, donor atom, acceptor molecule, acceptor atom, score
      L1  H     1    20       P1  7948  1.00
      P1  H 10752 10764       L1     3  0.93

> <Gold.PLP.Chemscore.Internal.Correction>
0.0482

> <Gold.Rescore>
     Score         DG    S(hbond)    S(metal)    S(lipo)     H(rot)  DE(clash)    DE(int)     intcor
     16.47     -21.05       1.97        0.00      98.70       1.00       1.65       2.93       ----

> <Gold.Chemscore.Fitness>
16.4680

> <Gold.Chemscore.DG>
-21.0468

> <Gold.Chemscore.ZeroCoef>
-5.4800

> <Gold.Chemscore.Hbond>
1.9698

> <Gold.Chemscore.Metal>
0.0000

> <Gold.Chemscore.Lipo>
98.6987

> <Gold.Chemscore.Internal_Hbond>
0.0000

> <Gold.Chemscore.DEClash>
1.6473

> <Gold.Chemscore.DEInternal>
2.9314

> <Gold.Chemscore.Rot>
1.0000

> <Gold.Chemscore.Internal.Correction>
   9.000000E+99

> <Gold.Chemscore.Hbonds>
donor molecule, donor type, donor heavy atom, donor atom, acceptor molecule, acceptor atom, score
      L1  H     1    20       P1  7948  0.25
      P1  H 10752 10764       L1     3  0.91

> <Gold.Chemscore.Hbond.Weighted>
-6.5790

> <Gold.Chemscore.Metal.Weighted>
-0.0000

> <Gold.Chemscore.Lipo.Weighted>
-11.5477

> <Gold.Chemscore.Internal_Hbond.Weighted>
0.0000

> <Gold.Chemscore.DEClash.Weighted>
1.6473

> <Gold.Chemscore.DEInternal.Weighted>
2.9314

> <Gold.Chemscore.Rot.Weighted>
2.5600

> <Gold.Chemscore.Internal.Correction.Weighted>
   9.000000E+99

> <Gold.Protein.RotatedTorsions>
[ 6907 6896 6895 6894 ] final -128.20 input  -60.11 | X-H torsion
[ 7974 7965 7964 7962 ] final  -77.87 input  175.53 | X-H torsion
[ 8008 7997 7996 7995 ] final  156.80 input   59.86 | X-H torsion
[ 10167 10162 10161 10158 ] final  -94.00 input  -65.29 | X-H torsion
[ 10718 10713 10712 10709 ] final  -20.61 input   66.30 | X-H torsion
[ 10763 10752 10751 10750 ] final -102.28 input  -60.55 | X-H torsion
[ 11005 11000 10999 10996 ] final   -9.88 input  -57.11 | X-H torsion

> <Gold.Protein.ActiveResidues>
 VAL166  LYS551  ARG553  GLY616  TRP617  ASP618  TYR619  PRO620  LYS621  CYS622 
 ASP623  PHE694  ASN695  SER759  ASP760  ASP761  ALA762  ILE779  LEU786  VAL792 
 PHE793  MET794  SER795  GLU796  ALA797  LYS798  CYS799  TRP800  GLU811  SER814 

> <Gold.Protein.RotatedAtoms>
  150.9153  133.6946  159.2844 H   0  0  0  0  0  0  0  0  0  0  0  0  # atno 6907 bound_to 6896
  151.4419  135.1020  159.9682 H   0  0  0  0  0  0  0  0  0  0  0  0  # atno 6908 bound_to 6896
  152.4951  133.8559  159.7281 H   0  0  0  0  0  0  0  0  0  0  0  0  # atno 6909 bound_to 6896
  145.5939  140.9423  143.1277 H   0  0  0  0  0  0  0  0  0  0  0  0  # atno 7974 bound_to 7965
  156.2402  140.1902  156.7010 H   0  0  0  0  0  0  0  0  0  0  0  0  # atno 8008 bound_to 7997
  154.6182  140.0612  156.9607 H   0  0  0  0  0  0  0  0  0  0  0  0  # atno 8009 bound_to 7997
  155.1905  140.3284  155.4362 H   0  0  0  0  0  0  0  0  0  0  0  0  # atno 8010 bound_to 7997
  140.3189  143.3061  152.0068 H   0  0  0  0  0  0  0  0  0  0  0  0  # atno 10167 bound_to 10162
  156.5294  130.4651  149.6555 H   0  0  0  0  0  0  0  0  0  0  0  0  # atno 10718 bound_to 10713
  154.7721  135.4866  153.9671 H   0  0  0  0  0  0  0  0  0  0  0  0  # atno 10763 bound_to 10752
  153.1382  135.6767  153.9077 H   0  0  0  0  0  0  0  0  0  0  0  0  # atno 10764 bound_to 10752
  153.8760  135.3138  155.3422 H   0  0  0  0  0  0  0  0  0  0  0  0  # atno 10765 bound_to 10752
  140.7388  133.8687  155.8951 H   0  0  0  0  0  0  0  0  0  0  0  0  # atno 11005 bound_to 11000
  144.7339  139.7643  143.7337 LP  0  0  0  0  0  0  0  0  0  0  0  0  # atno 17320 bound_to 7965
  146.1626  139.4746  142.9978 LP  0  0  0  0  0  0  0  0  0  0  0  0  # atno 17321 bound_to 7965
  139.4878  144.6327  151.7038 LP  0  0  0  0  0  0  0  0  0  0  0  0  # atno 17342 bound_to 10162
  140.5502  144.0438  150.6123 LP  0  0  0  0  0  0  0  0  0  0  0  0  # atno 17343 bound_to 10162
  156.3074  130.7210  151.2095 LP  0  0  0  0  0  0  0  0  0  0  0  0  # atno 17370 bound_to 10713
  157.7424  131.0490  150.5026 LP  0  0  0  0  0  0  0  0  0  0  0  0  # atno 17371 bound_to 10713
  140.9855  134.1348  157.4456 LP  0  0  0  0  0  0  0  0  0  0  0  0  # atno 17394 bound_to 11000
  139.8810  135.0024  156.6125 LP  0  0  0  0  0  0  0  0  0  0  0  0  # atno 17395 bound_to 11000

$$$$
