AV-unprocessed.smi:903|AV-procd|sdf|4095|dock8
  -GOLD-   22720 1583D 1   1.00000     0.00000
 Structure written by MMmdl.
 28 29  0  0  0  0  0  0  0  0  2 V2000
  153.6826  138.4356  157.0299 O   0  0  0  0  0  0  0  0  0  0  0  0
  152.6205  138.1471  156.4371 C   0  0  0  0  0  0  0  0  0  0  0  0
  152.3223  136.9551  156.1931 O   0  5  0  0  0  0  0  0  0  0  0  0
  151.6630  139.2344  155.9965 C   0  0  0  0  0  0  0  0  0  0  0  0
  151.7576  140.3973  156.6891 N   0  0  0  0  0  0  0  0  0  0  0  0
  150.9492  141.4380  156.3811 C   0  0  0  0  0  0  0  0  0  0  0  0
  151.0637  142.6089  157.1018 O   0  0  0  0  0  0  0  0  0  0  0  0
  151.8941  142.6132  158.2594 C   0  0  0  0  0  0  0  0  0  0  0  0
  151.4394  143.7440  159.1897 C   0  0  2  0  0  0  0  0  0  0  0  0
  152.1207  145.0805  158.9046 C   0  0  0  0  0  0  0  0  0  0  0  0
  151.9671  145.7882  160.2314 C   0  0  0  0  0  0  0  0  0  0  0  0
  152.1667  144.6460  161.2244 C   0  0  0  0  0  0  0  0  0  0  0  0
  151.7893  143.4530  160.5403 O   0  0  0  0  0  0  0  0  0  0  0  0
  149.9952  141.3695  155.3515 C   0  0  0  0  0  0  0  0  0  0  0  0
  149.8826  140.1729  154.6235 C   0  0  0  0  0  0  0  0  0  0  0  0
  150.7185  139.0825  154.9366 C   0  0  0  0  0  0  0  0  0  0  0  0
  150.5203  137.6423  153.9946 Cl  0  0  0  0  0  0  0  0  0  0  0  0
  151.8504  141.6559  158.7819 H   0  0  0  0  0  0  0  0  0  0  0  0
  152.9291  142.7860  157.9593 H   0  0  0  0  0  0  0  0  0  0  0  0
  150.3577  143.8757  159.1300 H   0  0  0  0  0  0  0  0  0  0  0  0
  153.1783  144.9336  158.6797 H   0  0  0  0  0  0  0  0  0  0  0  0
  151.6658  145.6220  158.0749 H   0  0  0  0  0  0  0  0  0  0  0  0
  152.6774  146.6036  160.3696 H   0  0  0  0  0  0  0  0  0  0  0  0
  150.9584  146.1934  160.3230 H   0  0  0  0  0  0  0  0  0  0  0  0
  153.2162  144.5634  161.5088 H   0  0  0  0  0  0  0  0  0  0  0  0
  151.5799  144.7839  162.1329 H   0  0  0  0  0  0  0  0  0  0  0  0
  149.3626  142.2150  155.1260 H   0  0  0  0  0  0  0  0  0  0  0  0
  149.1565  140.0924  153.8278 H   0  0  0  0  0  0  0  0  0  0  0  0
  1  2  2  0  0  0  0
  2  3  1  0  0  0  0
  2  4  1  0  0  0  0
  4 16  1  0  0  0  0
  4  5  2  0  0  0  0
  5  6  1  0  0  0  0
  6  7  1  0  0  0  0
  6 14  2  0  0  0  0
  7  8  1  0  0  0  0
  8  9  1  0  0  0  0
  8 18  1  0  0  0  0
  8 19  1  0  0  0  0
  9 13  1  0  0  0  0
  9 10  1  0  0  0  0
  9 20  1  0  0  0  0
 10 11  1  0  0  0  0
 10 21  1  0  0  0  0
 10 22  1  0  0  0  0
 11 12  1  0  0  0  0
 11 23  1  0  0  0  0
 11 24  1  0  0  0  0
 12 13  1  0  0  0  0
 12 25  1  0  0  0  0
 12 26  1  0  0  0  0
 14 15  1  0  0  0  0
 14 27  1  0  0  0  0
 15 16  2  0  0  0  0
 15 28  1  0  0  0  0
 16 17  1  0  0  0  0
M  CHG  1   3  -1
M  END
> <s_m_source_file>
AV-unprocessed.smi

> <i_m_source_file_index>
903

> <i_lp_mmshare_version>
43012

> <i_f3d_flags>
0

> <s_epik_input>
Tz1DKFtPSF0pYzFuYyhbY0hdW2NIXWMxQ2wpT1tDSDJdW0NAQEhdMltDSDJdW0NIMl1bQ0gyXU8y

> <s_epik_cmdline>
J2VwaWtfcHl0aG9uJywgJy1waCcsICc3LjAnLCAnLXRuJywgJzgnLCAnLW1hJywgJzIwMCcsICctbWV0YWxfYmluZGluZycsICctaW1hZScsICc8aW5maWxlLm1hZT4nLCAnLW9tYWUnLCAnPG91dGZpbGUubWFlPic=

> <r_lp_tautomer_probability>
1

> <r_epik_Ionization_Penalty>
1.22588e-05

> <r_epik_Ionization_Penalty_Charging>
1.01343e-05

> <r_epik_Ionization_Penalty_Neutral>
2.12445e-06

> <r_epik_State_Penalty>
-0

> <r_epik_Charging_Adjusted_Penalty>
1.01343e-05

> <i_epik_Tot_Q>
-1

> <i_epik_Tot_abs_Q>
1

> <r_epik_Metal_State_Penalty>
-0

> <b_epik_Metal_Only>
0

> <s_lp_Force_Field>
OPLS_2005

> <r_lp_Energy>
26.032

> <b_lp_Chiralities_Consistent>
1

> <s_lp_Variant>
AV-unprocessed.smi:903-1

> <Gold.Version>
5.8.1

> <Gold.Id.Protein>
6NUR|6NUR_protein|mol2

> <Gold.PLP.Fitness>
42.6049

> <Gold.PLP.PLP>
-32.8745

> <Gold.PLP.part.hbond>
-2.0000

> <Gold.PLP.part.metal>
0.0000

> <Gold.PLP.part.buried>
-0.7544

> <Gold.PLP.part.nonpolar>
-31.6872

> <Gold.PLP.part.repulsive>
0.1928

> <Gold.PLP.ligand.clash>
0.0000

> <Gold.PLP.ligand.torsion>
0.7542

> <Gold.PLP.Chemscore.Hbond>
3.7440

> <Gold.PLP.Chemscore.CHOScore>
0.0000

> <Gold.PLP.Chemscore.Metal>
0.0000

> <Gold.Chemscore.Hbonds>
donor molecule, donor type, donor heavy atom, donor atom, acceptor molecule, acceptor atom, score
      P1  H  7997  8008       L1     1  1.70
      P1  H 10752 10764       L1     3  1.87

> <Gold.PLP.Chemscore.Internal.Correction>
0.0069

> <Gold.Rescore>
     Score         DG    S(hbond)    S(metal)    S(lipo)     H(rot)  DE(clash)    DE(int)     intcor
     15.84     -17.94       1.75        0.00      89.73       1.51       0.16       1.95       ----

> <Gold.Chemscore.Fitness>
15.8374

> <Gold.Chemscore.DG>
-17.9443

> <Gold.Chemscore.ZeroCoef>
-5.4800

> <Gold.Chemscore.Hbond>
1.7456

> <Gold.Chemscore.Metal>
0.0000

> <Gold.Chemscore.Lipo>
89.7284

> <Gold.Chemscore.Internal_Hbond>
0.0000

> <Gold.Chemscore.DEClash>
0.1569

> <Gold.Chemscore.DEInternal>
1.9500

> <Gold.Chemscore.Rot>
1.5094

> <Gold.Chemscore.Internal.Correction>
   9.000000E+99

> <Gold.Chemscore.Hbonds>
donor molecule, donor type, donor heavy atom, donor atom, acceptor molecule, acceptor atom, score
      P1  H  7997  8008       L1     1  0.82
      P1  H 10752 10764       L1     3  0.85

> <Gold.Chemscore.Hbond.Weighted>
-5.8301

> <Gold.Chemscore.Metal.Weighted>
-0.0000

> <Gold.Chemscore.Lipo.Weighted>
-10.4982

> <Gold.Chemscore.Internal_Hbond.Weighted>
0.0000

> <Gold.Chemscore.DEClash.Weighted>
0.1569

> <Gold.Chemscore.DEInternal.Weighted>
1.9500

> <Gold.Chemscore.Rot.Weighted>
3.8641

> <Gold.Chemscore.Internal.Correction.Weighted>
   9.000000E+99

> <Gold.Protein.RotatedTorsions>
[ 6907 6896 6895 6894 ] final   91.09 input  -60.11 | X-H torsion
[ 7974 7965 7964 7962 ] final   81.35 input  175.53 | X-H torsion
[ 8008 7997 7996 7995 ] final  -67.10 input   59.86 | X-H torsion
[ 10167 10162 10161 10158 ] final  165.08 input  -65.29 | X-H torsion
[ 10718 10713 10712 10709 ] final  -92.94 input   66.30 | X-H torsion
[ 10763 10752 10751 10750 ] final  -35.74 input  -60.55 | X-H torsion
[ 11005 11000 10999 10996 ] final -137.28 input  -57.11 | X-H torsion

> <Gold.Protein.ActiveResidues>
 VAL166  LYS551  ARG553  GLY616  TRP617  ASP618  TYR619  PRO620  LYS621  CYS622 
 ASP623  PHE694  ASN695  SER759  ASP760  ASP761  ALA762  ILE779  LEU786  VAL792 
 PHE793  MET794  SER795  GLU796  ALA797  LYS798  CYS799  TRP800  GLU811  SER814 

> <Gold.Protein.RotatedAtoms>
  152.5448  134.1711  159.8596 H   0  0  0  0  0  0  0  0  0  0  0  0  # atno 6907 bound_to 6896
  151.1721  133.4771  159.2601 H   0  0  0  0  0  0  0  0  0  0  0  0  # atno 6908 bound_to 6896
  151.1264  135.0118  159.8617 H   0  0  0  0  0  0  0  0  0  0  0  0  # atno 6909 bound_to 6896
  145.6393  139.2422  143.2040 H   0  0  0  0  0  0  0  0  0  0  0  0  # atno 7974 bound_to 7965
  154.4777  140.0899  156.7303 H   0  0  0  0  0  0  0  0  0  0  0  0  # atno 8008 bound_to 7997
  155.4552  140.3459  155.4287 H   0  0  0  0  0  0  0  0  0  0  0  0  # atno 8009 bound_to 7997
  156.1143  140.1456  156.9283 H   0  0  0  0  0  0  0  0  0  0  0  0  # atno 8010 bound_to 7997
  139.4900  144.4168  151.9234 H   0  0  0  0  0  0  0  0  0  0  0  0  # atno 10167 bound_to 10162
  156.0007  130.5007  150.5701 H   0  0  0  0  0  0  0  0  0  0  0  0  # atno 10718 bound_to 10713
  153.8682  135.6833  153.4777 H   0  0  0  0  0  0  0  0  0  0  0  0  # atno 10763 bound_to 10752
  153.1303  135.4701  154.9335 H   0  0  0  0  0  0  0  0  0  0  0  0  # atno 10764 bound_to 10752
  154.7727  135.3243  154.8107 H   0  0  0  0  0  0  0  0  0  0  0  0  # atno 10765 bound_to 10752
  140.8726  134.2032  157.4642 H   0  0  0  0  0  0  0  0  0  0  0  0  # atno 11005 bound_to 11000
  146.1294  140.7205  142.9419 LP  0  0  0  0  0  0  0  0  0  0  0  0  # atno 17320 bound_to 7965
  144.7164  140.4222  143.7041 LP  0  0  0  0  0  0  0  0  0  0  0  0  # atno 17321 bound_to 7965
  140.3611  144.2971  150.5933 LP  0  0  0  0  0  0  0  0  0  0  0  0  # atno 17342 bound_to 10162
  140.5402  143.2225  151.8098 LP  0  0  0  0  0  0  0  0  0  0  0  0  # atno 17343 bound_to 10162
  157.3597  131.0748  151.1646 LP  0  0  0  0  0  0  0  0  0  0  0  0  # atno 17370 bound_to 10713
  157.2435  130.6580  149.5900 LP  0  0  0  0  0  0  0  0  0  0  0  0  # atno 17371 bound_to 10713
  139.8713  134.9781  156.4984 LP  0  0  0  0  0  0  0  0  0  0  0  0  # atno 17394 bound_to 11000
  140.8556  133.8099  155.9212 LP  0  0  0  0  0  0  0  0  0  0  0  0  # atno 17395 bound_to 11000

$$$$
