AV-unprocessed.smi:2556|AV-procd|sdf|10023|dock5
  -GOLD-   2272014 63D 1   1.00000     0.00000
 Structure written by MMmdl.
 35 37  0  0  0  0  0  0  0  0  1 V2000
  149.0007  133.9126  156.8224 C   0  0  0  0  0  0  0  0  0  0  0  0
  149.6768  135.0515  156.1980 N   0  0  0  0  0  0  0  0  0  0  0  0
  149.9696  135.0766  154.8563 C   0  0  0  0  0  0  0  0  0  0  0  0
  149.6803  134.1534  154.0957 O   0  0  0  0  0  0  0  0  0  0  0  0
  150.6099  136.1824  154.3655 N   0  0  0  0  0  0  0  0  0  0  0  0
  151.0022  137.2825  155.0534 C   0  0  0  0  0  0  0  0  0  0  0  0
  151.5760  138.2388  154.5367 O   0  0  0  0  0  0  0  0  0  0  0  0
  150.6691  137.2126  156.4805 C   0  0  0  0  0  0  0  0  0  0  0  0
  150.0328  136.1466  157.0330 C   0  0  0  0  0  0  0  0  0  0  0  0
  149.8315  136.3318  158.3962 N   0  0  0  0  0  0  0  0  0  0  0  0
  150.3724  137.5351  158.5964 C   0  0  0  0  0  0  0  0  0  0  0  0
  150.8953  138.1299  157.5043 N   0  0  0  0  0  0  0  0  0  0  0  0
  151.5380  139.4343  157.4610 C   0  0  0  0  0  0  0  0  0  0  0  0
  150.5717  140.5863  157.8033 C   0  0  2  0  0  0  0  0  0  0  0  0
  149.6564  140.7910  156.7446 O   0  0  0  0  0  0  0  0  0  0  0  0
  151.3314  141.8555  158.1546 C   0  0  0  0  0  0  0  0  0  0  0  0
  152.1998  141.8748  159.2672 C   0  0  0  0  0  0  0  0  0  0  0  0
  152.9126  143.0459  159.5906 C   0  0  0  0  0  0  0  0  0  0  0  0
  152.7630  144.2030  158.8023 C   0  0  0  0  0  0  0  0  0  0  0  0
  151.9010  144.1885  157.6891 C   0  0  0  0  0  0  0  0  0  0  0  0
  151.1872  143.0181  157.3658 C   0  0  0  0  0  0  0  0  0  0  0  0
  150.8130  136.1780  153.3767 H   0  0  0  0  0  0  0  0  0  0  0  0
  148.7003  133.1343  156.1203 H   0  0  0  0  0  0  0  0  0  0  0  0
  148.1000  134.2497  157.3364 H   0  0  0  0  0  0  0  0  0  0  0  0
  149.6561  133.4524  157.5622 H   0  0  0  0  0  0  0  0  0  0  0  0
  150.3888  138.0006  159.5711 H   0  0  0  0  0  0  0  0  0  0  0  0
  152.3616  139.4235  158.1762 H   0  0  0  0  0  0  0  0  0  0  0  0
  151.9950  139.5812  156.4828 H   0  0  0  0  0  0  0  0  0  0  0  0
  149.9773  140.2939  158.6700 H   0  0  0  0  0  0  0  0  0  0  0  0
  149.3953  139.9477  156.4076 H   0  0  0  0  0  0  0  0  0  0  0  0
  152.3241  140.9919  159.8772 H   0  0  0  0  0  0  0  0  0  0  0  0
  153.5755  143.0563  160.4432 H   0  0  0  0  0  0  0  0  0  0  0  0
  153.3106  145.1003  159.0501 H   0  0  0  0  0  0  0  0  0  0  0  0
  151.7884  145.0745  157.0820 H   0  0  0  0  0  0  0  0  0  0  0  0
  150.5305  143.0142  156.5079 H   0  0  0  0  0  0  0  0  0  0  0  0
  1  2  1  0  0  0  0
  1 23  1  0  0  0  0
  1 24  1  0  0  0  0
  1 25  1  0  0  0  0
  2  9  1  0  0  0  0
  2  3  1  0  0  0  0
  3  4  2  0  0  0  0
  3  5  1  0  0  0  0
  5 22  1  0  0  0  0
  5  6  1  0  0  0  0
  6  7  2  0  0  0  0
  6  8  1  0  0  0  0
  8 12  1  0  0  0  0
  8  9  2  0  0  0  0
  9 10  1  0  0  0  0
 10 11  2  0  0  0  0
 11 12  1  0  0  0  0
 11 26  1  0  0  0  0
 12 13  1  0  0  0  0
 13 14  1  0  0  0  0
 13 27  1  0  0  0  0
 13 28  1  0  0  0  0
 14 15  1  0  0  0  0
 14 16  1  0  0  0  0
 14 29  1  0  0  0  0
 15 30  1  0  0  0  0
 16 21  1  0  0  0  0
 16 17  2  0  0  0  0
 17 18  1  0  0  0  0
 17 31  1  0  0  0  0
 18 19  2  0  0  0  0
 18 32  1  0  0  0  0
 19 20  1  0  0  0  0
 19 33  1  0  0  0  0
 20 21  2  0  0  0  0
 20 34  1  0  0  0  0
 21 35  1  0  0  0  0
M  END
> <s_m_source_file>
AV-unprocessed.smi

> <i_m_source_file_index>
2556

> <i_lp_mmshare_version>
43012

> <i_f3d_flags>
0

> <s_epik_input>
Tz1jMVtuSF1jKD1PKW4oW0NIM10pYyhjMTIpbltjSF1uMltDSDJdW0NASF0oW09IXSljM1tjSF1bY0hdW2NIXVtjSF1bY0hdMw==

> <s_epik_cmdline>
J2VwaWtfcHl0aG9uJywgJy1waCcsICc3LjAnLCAnLXRuJywgJzgnLCAnLW1hJywgJzIwMCcsICctbWV0YWxfYmluZGluZycsICctaW1hZScsICc8aW5maWxlLm1hZT4nLCAnLW9tYWUnLCAnPG91dGZpbGUubWFlPic=

> <r_lp_tautomer_probability>
1

> <r_epik_Ionization_Penalty>
0.000177505

> <r_epik_Ionization_Penalty_Charging>
0.000176585

> <r_epik_Ionization_Penalty_Neutral>
9.19728e-07

> <r_epik_State_Penalty>
-0

> <r_epik_Charging_Adjusted_Penalty>
0.000176585

> <i_epik_Tot_Q>
0

> <i_epik_Tot_abs_Q>
0

> <r_epik_Metal_State_Penalty>
0.122509

> <b_epik_Metal_Only>
0

> <s_lp_Force_Field>
OPLS_2005

> <r_lp_Energy>
28.9299

> <b_lp_Chiralities_Consistent>
1

> <s_lp_Variant>
AV-unprocessed.smi:2556-1

> <Gold.Version>
5.8.1

> <Gold.Id.Protein>
6NUR|6NUR_protein|mol2

> <Gold.PLP.Fitness>
40.8220

> <Gold.PLP.PLP>
-35.8875

> <Gold.PLP.part.hbond>
-3.0000

> <Gold.PLP.part.metal>
0.0000

> <Gold.PLP.part.buried>
-5.4673

> <Gold.PLP.part.nonpolar>
-28.3061

> <Gold.PLP.part.repulsive>
0.4041

> <Gold.PLP.ligand.clash>
0.0000

> <Gold.PLP.ligand.torsion>
0.1698

> <Gold.PLP.Chemscore.Hbond>
1.7500

> <Gold.PLP.Chemscore.CHOScore>
0.0000

> <Gold.PLP.Chemscore.Metal>
0.0000

> <Gold.Chemscore.Hbonds>
donor molecule, donor type, donor heavy atom, donor atom, acceptor molecule, acceptor atom, score
      L1  H     5    22       P1  7949  0.65
      P1  H  6896  6909       L1    10  0.59

> <Gold.PLP.Chemscore.Internal.Correction>
0.0241

> <Gold.Rescore>
     Score         DG    S(hbond)    S(metal)    S(lipo)     H(rot)  DE(clash)    DE(int)     intcor
     15.53     -15.74       1.94        0.00      82.93       2.31       0.07       0.14       ----

> <Gold.Chemscore.Fitness>
15.5274

> <Gold.Chemscore.DG>
-15.7362

> <Gold.Chemscore.ZeroCoef>
-5.4800

> <Gold.Chemscore.Hbond>
1.9372

> <Gold.Chemscore.Metal>
0.0000

> <Gold.Chemscore.Lipo>
82.9337

> <Gold.Chemscore.Internal_Hbond>
0.0000

> <Gold.Chemscore.DEClash>
0.0708

> <Gold.Chemscore.DEInternal>
0.1380

> <Gold.Chemscore.Rot>
2.3115

> <Gold.Chemscore.Internal.Correction>
   9.000000E+99

> <Gold.Chemscore.Hbonds>
donor molecule, donor type, donor heavy atom, donor atom, acceptor molecule, acceptor atom, score
      L1  H     5    22       P1  7949  0.06
      P1  H  6896  6909       L1    10  0.38

> <Gold.Chemscore.Hbond.Weighted>
-6.4704

> <Gold.Chemscore.Metal.Weighted>
-0.0000

> <Gold.Chemscore.Lipo.Weighted>
-9.7032

> <Gold.Chemscore.Internal_Hbond.Weighted>
0.0000

> <Gold.Chemscore.DEClash.Weighted>
0.0708

> <Gold.Chemscore.DEInternal.Weighted>
0.1380

> <Gold.Chemscore.Rot.Weighted>
5.9174

> <Gold.Chemscore.Internal.Correction.Weighted>
   9.000000E+99

> <Gold.Protein.RotatedTorsions>
[ 6907 6896 6895 6894 ] final   67.90 input  -60.11 | X-H torsion
[ 7974 7965 7964 7962 ] final -113.61 input  175.53 | X-H torsion
[ 8008 7997 7996 7995 ] final   10.79 input   59.86 | X-H torsion
[ 10167 10162 10161 10158 ] final   78.50 input  -65.29 | X-H torsion
[ 10718 10713 10712 10709 ] final   61.81 input   66.30 | X-H torsion
[ 10763 10752 10751 10750 ] final   45.57 input  -60.55 | X-H torsion
[ 11005 11000 10999 10996 ] final  173.13 input  -57.11 | X-H torsion

> <Gold.Protein.ActiveResidues>
 VAL166  LYS551  ARG553  GLY616  TRP617  ASP618  TYR619  PRO620  LYS621  CYS622 
 ASP623  PHE694  ASN695  SER759  ASP760  ASP761  ALA762  ILE779  LEU786  VAL792 
 PHE793  MET794  SER795  GLU796  ALA797  LYS798  CYS799  TRP800  GLU811  SER814 

> <Gold.Protein.RotatedAtoms>
  152.4584  134.5240  159.9790 H   0  0  0  0  0  0  0  0  0  0  0  0  # atno 6907 bound_to 6896
  151.5295  133.3446  159.2923 H   0  0  0  0  0  0  0  0  0  0  0  0  # atno 6908 bound_to 6896
  150.8537  134.7899  159.7091 H   0  0  0  0  0  0  0  0  0  0  0  0  # atno 6909 bound_to 6896
  145.1300  140.8719  143.3763 H   0  0  0  0  0  0  0  0  0  0  0  0  # atno 7974 bound_to 7965
  154.7981  140.2847  155.5942 H   0  0  0  0  0  0  0  0  0  0  0  0  # atno 8008 bound_to 7997
  156.2973  140.2592  156.2772 H   0  0  0  0  0  0  0  0  0  0  0  0  # atno 8009 bound_to 7997
  154.9591  140.0378  157.2170 H   0  0  0  0  0  0  0  0  0  0  0  0  # atno 8010 bound_to 7997
  139.9703  144.5899  150.7991 H   0  0  0  0  0  0  0  0  0  0  0  0  # atno 10167 bound_to 10162
  157.5855  130.9015  149.9508 H   0  0  0  0  0  0  0  0  0  0  0  0  # atno 10718 bound_to 10713
  152.9823  135.6035  154.3457 H   0  0  0  0  0  0  0  0  0  0  0  0  # atno 10763 bound_to 10752
  154.3151  135.2770  155.2549 H   0  0  0  0  0  0  0  0  0  0  0  0  # atno 10764 bound_to 10752
  154.4741  135.5934  153.6398 H   0  0  0  0  0  0  0  0  0  0  0  0  # atno 10765 bound_to 10752
  140.3372  134.7307  157.4177 H   0  0  0  0  0  0  0  0  0  0  0  0  # atno 11005 bound_to 11000
  145.0645  139.3079  143.5863 LP  0  0  0  0  0  0  0  0  0  0  0  0  # atno 17320 bound_to 7965
  146.3514  140.0099  142.8668 LP  0  0  0  0  0  0  0  0  0  0  0  0  # atno 17321 bound_to 7965
  140.7524  143.2990  151.3130 LP  0  0  0  0  0  0  0  0  0  0  0  0  # atno 17342 bound_to 10162
  139.6486  144.0404  152.2609 LP  0  0  0  0  0  0  0  0  0  0  0  0  # atno 17343 bound_to 10162
  156.0904  130.3664  150.0406 LP  0  0  0  0  0  0  0  0  0  0  0  0  # atno 17370 bound_to 10713
  156.8538  130.9468  151.3623 LP  0  0  0  0  0  0  0  0  0  0  0  0  # atno 17371 bound_to 10713
  140.0811  134.5730  155.8539 LP  0  0  0  0  0  0  0  0  0  0  0  0  # atno 17394 bound_to 11000
  141.2048  133.6642  156.6143 LP  0  0  0  0  0  0  0  0  0  0  0  0  # atno 17395 bound_to 11000

$$$$
