AV-unprocessed.smi:507|AV-procd|sdf|2756|dock2
  -GOLD-   2262023223D 1   1.00000     0.00000
 Structure written by MMmdl.
 33 34  0  0  0  0  0  0  0  0  1 V2000
  153.4546  142.3066  161.4601 C   0  0  0  0  0  0  0  0  0  0  0  0
  152.7192  142.0651  160.1535 C   0  0  0  0  0  0  0  0  0  0  0  0
  152.6565  140.7532  159.6318 C   0  0  0  0  0  0  0  0  0  0  0  0
  151.9838  140.4874  158.4190 C   0  0  0  0  0  0  0  0  0  0  0  0
  151.8014  139.2981  157.7344 N   0  0  0  0  0  0  0  0  0  0  0  0
  151.0993  139.7016  156.6793 C   0  0  0  0  0  0  0  0  0  0  0  0
  150.8050  141.0135  156.5991 N   0  0  0  0  0  0  0  0  0  0  0  0
  150.0641  141.6841  155.5450 C   0  0  0  0  0  0  0  0  0  0  0  0
  149.3260  140.6990  154.6173 C   0  0  2  0  0  0  0  0  0  0  0  0
  150.2763  140.0441  153.7996 O   0  0  0  0  0  0  0  0  0  0  0  0
  148.3139  141.4205  153.7097 C   0  0  0  0  0  0  0  0  0  0  0  0
  147.6111  140.5021  152.8020 N   0  0  0  0  0  0  0  0  0  0  0  0
  151.3724  141.5790  157.7356 C   0  0  0  0  0  0  0  0  0  0  0  0
  151.4271  142.8884  158.2446 C   0  0  0  0  0  0  0  0  0  0  0  0
  152.1013  143.1361  159.4589 C   0  0  0  0  0  0  0  0  0  0  0  0
  152.1519  144.5530  160.0024 C   0  0  0  0  0  0  0  0  0  0  0  0
  153.8629  141.3802  161.8650 H   0  0  0  0  0  0  0  0  0  0  0  0
  152.7810  142.7284  162.2062 H   0  0  0  0  0  0  0  0  0  0  0  0
  154.2833  142.9990  161.3098 H   0  0  0  0  0  0  0  0  0  0  0  0
  153.1264  139.9368  160.1604 H   0  0  0  0  0  0  0  0  0  0  0  0
  150.7795  139.0029  155.9200 H   0  0  0  0  0  0  0  0  0  0  0  0
  149.3517  142.3623  156.0160 H   0  0  0  0  0  0  0  0  0  0  0  0
  150.7539  142.3059  154.9719 H   0  0  0  0  0  0  0  0  0  0  0  0
  148.8152  139.9537  155.2288 H   0  0  0  0  0  0  0  0  0  0  0  0
  149.9102  139.9420  152.9345 H   0  0  0  0  0  0  0  0  0  0  0  0
  147.5674  141.9089  154.3370 H   0  0  0  0  0  0  0  0  0  0  0  0
  148.7991  142.2206  153.1493 H   0  0  0  0  0  0  0  0  0  0  0  0
  146.7615  140.9352  152.4428 H   0  0  0  0  0  0  0  0  0  0  0  0
  148.1955  140.2768  151.9982 H   0  0  0  0  0  0  0  0  0  0  0  0
  150.9517  143.6940  157.7050 H   0  0  0  0  0  0  0  0  0  0  0  0
  151.6259  145.2487  159.3481 H   0  0  0  0  0  0  0  0  0  0  0  0
  153.1844  144.8916  160.0909 H   0  0  0  0  0  0  0  0  0  0  0  0
  151.6853  144.6010  160.9864 H   0  0  0  0  0  0  0  0  0  0  0  0
  1  2  1  0  0  0  0
  1 17  1  0  0  0  0
  1 18  1  0  0  0  0
  1 19  1  0  0  0  0
  2 15  1  0  0  0  0
  2  3  2  0  0  0  0
  3  4  1  0  0  0  0
  3 20  1  0  0  0  0
  4 13  2  0  0  0  0
  4  5  1  0  0  0  0
  5  6  2  0  0  0  0
  6  7  1  0  0  0  0
  6 21  1  0  0  0  0
  7  8  1  0  0  0  0
  7 13  1  0  0  0  0
  8  9  1  0  0  0  0
  8 22  1  0  0  0  0
  8 23  1  0  0  0  0
  9 10  1  0  0  0  0
  9 11  1  0  0  0  0
  9 24  1  0  0  0  0
 10 25  1  0  0  0  0
 11 12  1  0  0  0  0
 11 26  1  0  0  0  0
 11 27  1  0  0  0  0
 12 28  1  0  0  0  0
 12 29  1  0  0  0  0
 13 14  1  0  0  0  0
 14 15  2  0  0  0  0
 14 30  1  0  0  0  0
 15 16  1  0  0  0  0
 16 31  1  0  0  0  0
 16 32  1  0  0  0  0
 16 33  1  0  0  0  0
M  END
> <s_m_source_file>
AV-unprocessed.smi

> <i_m_source_file_index>
507

> <i_lp_mmshare_version>
43012

> <i_f3d_flags>
0

> <s_epik_input>
W0NIM11jKFtjSF0xKWMoW0NIM10pW2NIXWMoYzEyKW4oW2NIXW4yKVtDSDJdW0NASF0oW09IXSlbQ0gyXVtOSDJd

> <s_epik_cmdline>
J2VwaWtfcHl0aG9uJywgJy1waCcsICc3LjAnLCAnLXRuJywgJzgnLCAnLW1hJywgJzIwMCcsICctbWV0YWxfYmluZGluZycsICctaW1hZScsICc8aW5maWxlLm1hZT4nLCAnLW9tYWUnLCAnPG91dGZpbGUubWFlPic=

> <r_epik_Ionization_Penalty>
2.36719

> <r_epik_Ionization_Penalty_Charging>
0

> <r_epik_Ionization_Penalty_Neutral>
2.36719

> <r_epik_State_Penalty>
2.51088

> <r_epik_Charging_Adjusted_Penalty>
2.51088

> <i_epik_Tot_Q>
0

> <i_epik_Tot_abs_Q>
0

> <r_epik_Metal_State_Penalty>
2.40105

> <b_epik_Metal_Only>
0

> <s_lp_Force_Field>
OPLS_2005

> <r_lp_Energy>
13.3161

> <b_lp_Chiralities_Consistent>
1

> <s_lp_Variant>
AV-unprocessed.smi:507-5

> <Gold.Version>
5.8.1

> <Gold.Id.Protein>
6NUR|6NUR_protein|mol2

> <Gold.PLP.Fitness>
47.6962

> <Gold.PLP.PLP>
-39.4553

> <Gold.PLP.part.hbond>
-3.0000

> <Gold.PLP.part.metal>
0.0000

> <Gold.PLP.part.buried>
-4.3141

> <Gold.PLP.part.nonpolar>
-31.9348

> <Gold.PLP.part.repulsive>
0.0000

> <Gold.PLP.ligand.clash>
0.0000

> <Gold.PLP.ligand.torsion>
0.2271

> <Gold.PLP.Chemscore.Hbond>
2.8960

> <Gold.PLP.Chemscore.CHOScore>
0.0000

> <Gold.PLP.Chemscore.Metal>
0.0000

> <Gold.Chemscore.Hbonds>
donor molecule, donor type, donor heavy atom, donor atom, acceptor molecule, acceptor atom, score
      L1  H    10    25       P1  7957  1.00
      L1  H    12    29       P1  7957  1.00
      P1  H  7989  7998       L1    10  0.88

> <Gold.PLP.Chemscore.Internal.Correction>
0.0070

> <Gold.Rescore>
     Score         DG    S(hbond)    S(metal)    S(lipo)     H(rot)  DE(clash)    DE(int)     intcor
     19.57     -19.77       2.57        0.00      97.01       2.20       0.02       0.17       ----

> <Gold.Chemscore.Fitness>
19.5742

> <Gold.Chemscore.DG>
-19.7713

> <Gold.Chemscore.ZeroCoef>
-5.4800

> <Gold.Chemscore.Hbond>
2.5687

> <Gold.Chemscore.Metal>
0.0000

> <Gold.Chemscore.Lipo>
97.0102

> <Gold.Chemscore.Internal_Hbond>
0.0000

> <Gold.Chemscore.DEClash>
0.0237

> <Gold.Chemscore.DEInternal>
0.1734

> <Gold.Chemscore.Rot>
2.2025

> <Gold.Chemscore.Internal.Correction>
   9.000000E+99

> <Gold.Chemscore.Hbonds>
donor molecule, donor type, donor heavy atom, donor atom, acceptor molecule, acceptor atom, score
      L1  H    10    25       P1  7957  1.00
      L1  H    12    29       P1  7957  0.99
      P1  H  7989  7998       L1    10  0.24

> <Gold.Chemscore.Hbond.Weighted>
-8.5794

> <Gold.Chemscore.Metal.Weighted>
-0.0000

> <Gold.Chemscore.Lipo.Weighted>
-11.3502

> <Gold.Chemscore.Internal_Hbond.Weighted>
0.0000

> <Gold.Chemscore.DEClash.Weighted>
0.0237

> <Gold.Chemscore.DEInternal.Weighted>
0.1734

> <Gold.Chemscore.Rot.Weighted>
5.6383

> <Gold.Chemscore.Internal.Correction.Weighted>
   9.000000E+99

> <Gold.Protein.RotatedTorsions>
[ 6907 6896 6895 6894 ] final  -74.27 input  -60.11 | X-H torsion
[ 7974 7965 7964 7962 ] final  -44.37 input  175.53 | X-H torsion
[ 8008 7997 7996 7995 ] final  -43.61 input   59.86 | X-H torsion
[ 10167 10162 10161 10158 ] final  -57.74 input  -65.29 | X-H torsion
[ 10718 10713 10712 10709 ] final   93.78 input   66.30 | X-H torsion
[ 10763 10752 10751 10750 ] final  110.51 input  -60.55 | X-H torsion
[ 11005 11000 10999 10996 ] final -139.99 input  -57.11 | X-H torsion

> <Gold.Protein.ActiveResidues>
 VAL166  LYS551  ARG553  GLY616  TRP617  ASP618  TYR619  PRO620  LYS621  CYS622 
 ASP623  PHE694  ASN695  SER759  ASP760  ASP761  ALA762  ILE779  LEU786  VAL792 
 PHE793  MET794  SER795  GLU796  ALA797  LYS798  CYS799  TRP800  GLU811  SER814 

> <Gold.Protein.RotatedAtoms>
  150.7099  134.4894  159.5507 H   0  0  0  0  0  0  0  0  0  0  0  0  # atno 6907 bound_to 6896
  152.2514  134.8125  160.0454 H   0  0  0  0  0  0  0  0  0  0  0  0  # atno 6908 bound_to 6896
  151.8871  133.3473  159.3822 H   0  0  0  0  0  0  0  0  0  0  0  0  # atno 6909 bound_to 6896
  145.9927  140.7163  142.9309 H   0  0  0  0  0  0  0  0  0  0  0  0  # atno 7974 bound_to 7965
  154.3997  140.1443  156.3548 H   0  0  0  0  0  0  0  0  0  0  0  0  # atno 8008 bound_to 7997
  155.8236  140.3468  155.5508 H   0  0  0  0  0  0  0  0  0  0  0  0  # atno 8009 bound_to 7997
  155.8262  140.0905  157.1810 H   0  0  0  0  0  0  0  0  0  0  0  0  # atno 8010 bound_to 7997
  140.6240  143.2430  151.5410 H   0  0  0  0  0  0  0  0  0  0  0  0  # atno 10167 bound_to 10162
  157.6952  131.0490  150.4085 H   0  0  0  0  0  0  0  0  0  0  0  0  # atno 10718 bound_to 10713
  153.4500  135.3746  155.2278 H   0  0  0  0  0  0  0  0  0  0  0  0  # atno 10763 bound_to 10752
  154.8756  135.3883  154.4050 H   0  0  0  0  0  0  0  0  0  0  0  0  # atno 10764 bound_to 10752
  153.4607  135.7086  153.6116 H   0  0  0  0  0  0  0  0  0  0  0  0  # atno 10765 bound_to 10752
  140.8466  134.2337  157.4782 H   0  0  0  0  0  0  0  0  0  0  0  0  # atno 11005 bound_to 11000
  144.6894  140.3098  143.7250 LP  0  0  0  0  0  0  0  0  0  0  0  0  # atno 17320 bound_to 7965
  145.7606  139.1823  143.2269 LP  0  0  0  0  0  0  0  0  0  0  0  0  # atno 17321 bound_to 7965
  139.5463  144.2512  152.1448 LP  0  0  0  0  0  0  0  0  0  0  0  0  # atno 17342 bound_to 10162
  140.1739  144.4909  150.6564 LP  0  0  0  0  0  0  0  0  0  0  0  0  # atno 17343 bound_to 10162
  156.4472  130.4004  149.6659 LP  0  0  0  0  0  0  0  0  0  0  0  0  # atno 17370 bound_to 10713
  156.3822  130.7584  151.2578 LP  0  0  0  0  0  0  0  0  0  0  0  0  # atno 17371 bound_to 10713
  139.8703  134.9662  156.4556 LP  0  0  0  0  0  0  0  0  0  0  0  0  # atno 17394 bound_to 11000
  140.8836  133.7899  155.9494 LP  0  0  0  0  0  0  0  0  0  0  0  0  # atno 17395 bound_to 11000

$$$$
