AV-unprocessed.smi:1484|AV-procd|sdf|5996|dock5
  -GOLD-   22720 6 93D 1   1.00000     0.00000
 Structure written by MMmdl.
 37 38  0  0  0  0  0  0  0  0  2 V2000
  152.5412  143.3435  162.5184 C   0  0  0  0  0  0  0  0  0  0  0  0
  152.1232  143.4400  161.0445 C   0  0  1  0  0  0  0  0  0  0  0  0
  151.8051  144.8933  160.6431 C   0  0  0  0  0  0  0  0  0  0  0  0
  151.3964  144.9977  159.1651 C   0  0  0  0  0  0  0  0  0  0  0  0
  152.4731  144.3978  158.2429 C   0  0  0  0  0  0  0  0  0  0  0  0
  152.8118  142.9435  158.6223 C   0  0  2  0  0  0  0  0  0  0  0  0
  151.6742  142.0813  158.3223 N   0  0  0  0  0  0  0  0  0  0  0  0
  151.7128  140.7759  158.0103 C   0  0  0  0  0  0  0  0  0  0  0  0
  152.7629  140.1420  157.9079 O   0  0  0  0  0  0  0  0  0  0  0  0
  150.3689  140.0605  157.7821 C   0  0  0  0  0  0  0  0  0  0  0  0
  149.6609  140.4745  156.5585 N   0  0  0  0  0  0  0  0  0  0  0  0
  148.3301  141.0251  156.8040 N   0  5  0  0  0  0  0  0  0  0  0  0
  147.6314  141.5566  155.7663 C   0  0  0  0  0  0  0  0  0  0  0  0
  146.5293  142.0819  155.9042 O   0  0  0  0  0  0  0  0  0  0  0  0
  148.2216  141.4901  154.4397 C   0  0  0  0  0  0  0  0  0  0  0  0
  149.4355  140.9412  154.2362 C   0  0  0  0  0  0  0  0  0  0  0  0
  150.2382  140.3983  155.3254 C   0  0  0  0  0  0  0  0  0  0  0  0
  151.3620  139.9270  155.1509 O   0  0  0  0  0  0  0  0  0  0  0  0
  153.2011  142.8450  160.1130 C   0  0  0  0  0  0  0  0  0  0  0  0
  153.4507  143.9131  162.7113 H   0  0  0  0  0  0  0  0  0  0  0  0
  152.7286  142.3084  162.8051 H   0  0  0  0  0  0  0  0  0  0  0  0
  151.7600  143.7296  163.1739 H   0  0  0  0  0  0  0  0  0  0  0  0
  151.2105  142.8528  160.9291 H   0  0  0  0  0  0  0  0  0  0  0  0
  151.0046  145.2863  161.2707 H   0  0  0  0  0  0  0  0  0  0  0  0
  152.6766  145.5244  160.8228 H   0  0  0  0  0  0  0  0  0  0  0  0
  150.4467  144.4828  159.0114 H   0  0  0  0  0  0  0  0  0  0  0  0
  151.2233  146.0414  158.9019 H   0  0  0  0  0  0  0  0  0  0  0  0
  152.1453  144.4497  157.2037 H   0  0  0  0  0  0  0  0  0  0  0  0
  153.3767  145.0049  158.3069 H   0  0  0  0  0  0  0  0  0  0  0  0
  153.6578  142.6206  158.0132 H   0  0  0  0  0  0  0  0  0  0  0  0
  150.7591  142.5037  158.3950 H   0  0  0  0  0  0  0  0  0  0  0  0
  150.5414  138.9829  157.7778 H   0  0  0  0  0  0  0  0  0  0  0  0
  149.7372  140.2464  158.6525 H   0  0  0  0  0  0  0  0  0  0  0  0
  147.6721  141.8845  153.5976 H   0  0  0  0  0  0  0  0  0  0  0  0
  149.8334  140.9100  153.2328 H   0  0  0  0  0  0  0  0  0  0  0  0
  154.1420  143.3745  160.2681 H   0  0  0  0  0  0  0  0  0  0  0  0
  153.3944  141.8055  160.3810 H   0  0  0  0  0  0  0  0  0  0  0  0
  1  2  1  0  0  0  0
  1 20  1  0  0  0  0
  1 21  1  0  0  0  0
  1 22  1  0  0  0  0
  2 19  1  0  0  0  0
  2  3  1  0  0  0  0
  2 23  1  0  0  0  0
  3  4  1  0  0  0  0
  3 24  1  0  0  0  0
  3 25  1  0  0  0  0
  4  5  1  0  0  0  0
  4 26  1  0  0  0  0
  4 27  1  0  0  0  0
  5  6  1  0  0  0  0
  5 28  1  0  0  0  0
  5 29  1  0  0  0  0
  6  7  1  0  0  0  0
  6 19  1  0  0  0  0
  6 30  1  0  0  0  0
  7  8  1  0  0  0  0
  7 31  1  0  0  0  0
  8  9  2  0  0  0  0
  8 10  1  0  0  0  0
 10 32  1  0  0  0  0
 10 33  1  0  0  0  0
 10 11  1  0  0  0  0
 11 12  1  0  0  0  0
 11 17  1  0  0  0  0
 12 13  1  0  0  0  0
 13 14  2  0  0  0  0
 13 15  1  0  0  0  0
 15 34  1  0  0  0  0
 15 16  2  0  0  0  0
 16 35  1  0  0  0  0
 16 17  1  0  0  0  0
 17 18  2  0  0  0  0
 19 36  1  0  0  0  0
 19 37  1  0  0  0  0
M  CHG  1  12  -1
M  END
> <s_m_source_file>
AV-unprocessed.smi

> <i_m_source_file_index>
1484

> <i_lp_mmshare_version>
43012

> <i_f3d_flags>
0

> <s_epik_input>
W0NIM11bQ0BASF0xW0NIMl1bQ0gyXVtDSDJdW0NASF0oW0NIMl0xKVtOSF1DKD1PKVtDSDJdbjJbbkhdYyg9TylbY0hdW2NIXWMyPU8=

> <s_epik_cmdline>
J2VwaWtfcHl0aG9uJywgJy1waCcsICc3LjAnLCAnLXRuJywgJzgnLCAnLW1hJywgJzIwMCcsICctbWV0YWxfYmluZGluZycsICctaW1hZScsICc8aW5maWxlLm1hZT4nLCAnLW9tYWUnLCAnPG91dGZpbGUubWFlPic=

> <r_lp_tautomer_probability>
1

> <r_epik_Ionization_Penalty>
0.101352

> <r_epik_Ionization_Penalty_Charging>
0.101352

> <r_epik_Ionization_Penalty_Neutral>
1.90469e-08

> <r_epik_State_Penalty>
0.0358555

> <r_epik_Charging_Adjusted_Penalty>
0.137208

> <i_epik_Tot_Q>
-1

> <i_epik_Tot_abs_Q>
1

> <r_epik_Metal_State_Penalty>
0.0358555

> <b_epik_Metal_Only>
0

> <s_lp_Force_Field>
OPLS_2005

> <r_lp_Energy>
21.3013

> <b_lp_Chiralities_Consistent>
1

> <s_lp_Variant>
AV-unprocessed.smi:1484-4

> <Gold.Version>
5.8.1

> <Gold.Id.Protein>
6NUR|6NUR_protein|mol2

> <Gold.PLP.Fitness>
48.9196

> <Gold.PLP.PLP>
-43.8331

> <Gold.PLP.part.hbond>
-2.0000

> <Gold.PLP.part.metal>
0.0000

> <Gold.PLP.part.buried>
-4.2229

> <Gold.PLP.part.nonpolar>
-37.5462

> <Gold.PLP.part.repulsive>
0.2869

> <Gold.PLP.ligand.clash>
0.0000

> <Gold.PLP.ligand.torsion>
0.4503

> <Gold.PLP.Chemscore.Hbond>
1.9920

> <Gold.PLP.Chemscore.CHOScore>
0.0000

> <Gold.PLP.Chemscore.Metal>
0.0000

> <Gold.Chemscore.Hbonds>
donor molecule, donor type, donor heavy atom, donor atom, acceptor molecule, acceptor atom, score
      P1  H  7989  7998       L1    18  0.70
      P1  H  7997  8008       L1     9  1.00

> <Gold.PLP.Chemscore.Internal.Correction>
0.0111

> <Gold.Rescore>
     Score         DG    S(hbond)    S(metal)    S(lipo)     H(rot)  DE(clash)    DE(int)     intcor
     19.38     -19.86       1.92        0.00     104.31       1.65       0.10       0.38       ----

> <Gold.Chemscore.Fitness>
19.3816

> <Gold.Chemscore.DG>
-19.8567

> <Gold.Chemscore.ZeroCoef>
-5.4800

> <Gold.Chemscore.Hbond>
1.9187

> <Gold.Chemscore.Metal>
0.0000

> <Gold.Chemscore.Lipo>
104.3135

> <Gold.Chemscore.Internal_Hbond>
0.0000

> <Gold.Chemscore.DEClash>
0.0990

> <Gold.Chemscore.DEInternal>
0.3761

> <Gold.Chemscore.Rot>
1.6549

> <Gold.Chemscore.Internal.Correction>
   9.000000E+99

> <Gold.Chemscore.Hbonds>
donor molecule, donor type, donor heavy atom, donor atom, acceptor molecule, acceptor atom, score
      P1  H  7989  7998       L1    18  0.07
      P1  H  7997  8008       L1     9  0.92

> <Gold.Chemscore.Hbond.Weighted>
-6.4085

> <Gold.Chemscore.Metal.Weighted>
-0.0000

> <Gold.Chemscore.Lipo.Weighted>
-12.2047

> <Gold.Chemscore.Internal_Hbond.Weighted>
0.0000

> <Gold.Chemscore.DEClash.Weighted>
0.0990

> <Gold.Chemscore.DEInternal.Weighted>
0.3761

> <Gold.Chemscore.Rot.Weighted>
4.2364

> <Gold.Chemscore.Internal.Correction.Weighted>
   9.000000E+99

> <Gold.Protein.RotatedTorsions>
[ 6907 6896 6895 6894 ] final  -76.39 input  -60.11 | X-H torsion
[ 7974 7965 7964 7962 ] final  -94.96 input  175.53 | X-H torsion
[ 8008 7997 7996 7995 ] final  -76.26 input   59.86 | X-H torsion
[ 10167 10162 10161 10158 ] final  128.63 input  -65.29 | X-H torsion
[ 10718 10713 10712 10709 ] final  148.06 input   66.30 | X-H torsion
[ 10763 10752 10751 10750 ] final   86.97 input  -60.55 | X-H torsion
[ 11005 11000 10999 10996 ] final -122.11 input  -57.11 | X-H torsion

> <Gold.Protein.ActiveResidues>
 VAL166  LYS551  ARG553  GLY616  TRP617  ASP618  TYR619  PRO620  LYS621  CYS622 
 ASP623  PHE694  ASN695  SER759  ASP760  ASP761  ALA762  ILE779  LEU786  VAL792 
 PHE793  MET794  SER795  GLU796  ALA797  LYS798  CYS799  TRP800  GLU811  SER814 

> <Gold.Protein.RotatedAtoms>
  150.7029  134.4579  159.5366 H   0  0  0  0  0  0  0  0  0  0  0  0  # atno 6907 bound_to 6896
  152.2259  134.8366  160.0489 H   0  0  0  0  0  0  0  0  0  0  0  0  # atno 6908 bound_to 6896
  151.9199  133.3548  159.3930 H   0  0  0  0  0  0  0  0  0  0  0  0  # atno 6909 bound_to 6896
  145.3663  140.9499  143.2472 H   0  0  0  0  0  0  0  0  0  0  0  0  # atno 7974 bound_to 7965
  154.5490  140.0730  156.8636 H   0  0  0  0  0  0  0  0  0  0  0  0  # atno 8008 bound_to 7997
  155.3031  140.3385  155.4228 H   0  0  0  0  0  0  0  0  0  0  0  0  # atno 8009 bound_to 7997
  156.1944  140.1698  156.8014 H   0  0  0  0  0  0  0  0  0  0  0  0  # atno 8010 bound_to 7997
  139.5517  144.6818  151.4303 H   0  0  0  0  0  0  0  0  0  0  0  0  # atno 10167 bound_to 10162
  157.3133  131.0891  151.1299 H   0  0  0  0  0  0  0  0  0  0  0  0  # atno 10718 bound_to 10713
  153.1622  135.4561  154.9788 H   0  0  0  0  0  0  0  0  0  0  0  0  # atno 10763 bound_to 10752
  154.7906  135.3219  154.7788 H   0  0  0  0  0  0  0  0  0  0  0  0  # atno 10764 bound_to 10752
  153.8276  135.6941  153.4873 H   0  0  0  0  0  0  0  0  0  0  0  0  # atno 10765 bound_to 10752
  141.0020  134.0389  157.3526 H   0  0  0  0  0  0  0  0  0  0  0  0  # atno 11005 bound_to 11000
  144.8609  139.5179  143.6813 LP  0  0  0  0  0  0  0  0  0  0  0  0  # atno 17320 bound_to 7965
  146.2905  139.7126  142.9164 LP  0  0  0  0  0  0  0  0  0  0  0  0  # atno 17321 bound_to 7965
  140.6781  143.8143  150.7085 LP  0  0  0  0  0  0  0  0  0  0  0  0  # atno 17342 bound_to 10162
  140.1588  143.4293  152.2081 LP  0  0  0  0  0  0  0  0  0  0  0  0  # atno 17343 bound_to 10162
  157.2612  130.6660  149.5975 LP  0  0  0  0  0  0  0  0  0  0  0  0  # atno 17370 bound_to 10713
  155.9679  130.4508  150.5711 LP  0  0  0  0  0  0  0  0  0  0  0  0  # atno 17371 bound_to 10713
  139.9043  135.0175  156.7416 LP  0  0  0  0  0  0  0  0  0  0  0  0  # atno 17394 bound_to 11000
  140.6874  133.9420  155.7946 LP  0  0  0  0  0  0  0  0  0  0  0  0  # atno 17395 bound_to 11000

$$$$
