AV-unprocessed.smi:1190|AV-procd|sdf|4981|dock9
  -GOLD-   22720 3583D 1   1.00000     0.00000
 Structure written by MMmdl.
 43 44  0  0  0  0  0  0  0  0  1 V2000
  135.5535  137.2337  153.7773 C   0  0  0  0  0  0  0  0  0  0  0  0
  136.3181  138.4262  153.9161 O   0  0  0  0  0  0  0  0  0  0  0  0
  137.6738  138.3678  153.6657 C   0  0  0  0  0  0  0  0  0  0  0  0
  138.4584  139.5070  153.9329 C   0  0  0  0  0  0  0  0  0  0  0  0
  139.8410  139.4534  153.6756 C   0  0  0  0  0  0  0  0  0  0  0  0
  140.3987  138.2699  153.1518 C   0  0  0  0  0  0  0  0  0  0  0  0
  141.8001  138.2428  152.9165 N   0  0  0  0  0  0  0  0  0  0  0  0
  142.6389  137.1936  152.9646 C   0  0  0  0  0  0  0  0  0  0  0  0
  142.3131  136.0322  153.2078 O   0  0  0  0  0  0  0  0  0  0  0  0
  143.8974  137.5716  152.6975 N   0  0  0  0  0  0  0  0  0  0  0  0
  145.0623  136.6900  152.6588 C   0  0  0  0  0  0  0  0  0  0  0  0
  145.0500  135.7211  151.4424 C   0  0  1  0  0  0  0  0  0  0  0  0
  146.0111  136.2622  150.3531 C   0  0  0  0  0  0  0  0  0  0  0  0
  145.3402  134.3155  151.8127 N   0  0  0  0  0  0  0  0  0  0  0  0
  144.9880  133.3619  150.7538 C   0  0  0  0  0  0  0  0  0  0  0  0
  145.3168  131.9057  151.1260 C   0  0  0  0  0  0  0  0  0  0  0  0
  146.6967  131.7922  151.4441 O   0  0  0  0  0  0  0  0  0  0  0  0
  147.0654  132.6414  152.5217 C   0  0  0  0  0  0  0  0  0  0  0  0
  146.7504  134.1033  152.1607 C   0  0  0  0  0  0  0  0  0  0  0  0
  139.5288  137.1742  152.9302 C   0  0  0  0  0  0  0  0  0  0  0  0
  138.2021  137.2188  153.1767 N   0  0  0  0  0  0  0  0  0  0  0  0
  134.5083  137.4479  153.9997 H   0  0  0  0  0  0  0  0  0  0  0  0
  135.8882  136.4619  154.4720 H   0  0  0  0  0  0  0  0  0  0  0  0
  135.6016  136.8445  152.7591 H   0  0  0  0  0  0  0  0  0  0  0  0
  138.0076  140.4053  154.3280 H   0  0  0  0  0  0  0  0  0  0  0  0
  140.4622  140.3144  153.8750 H   0  0  0  0  0  0  0  0  0  0  0  0
  142.2059  139.1209  152.6283 H   0  0  0  0  0  0  0  0  0  0  0  0
  144.0661  138.5483  152.5065 H   0  0  0  0  0  0  0  0  0  0  0  0
  145.9957  137.2555  152.6761 H   0  0  0  0  0  0  0  0  0  0  0  0
  145.0191  136.1432  153.5986 H   0  0  0  0  0  0  0  0  0  0  0  0
  144.0440  135.7551  151.0210 H   0  0  0  0  0  0  0  0  0  0  0  0
  145.8101  137.3022  150.1006 H   0  0  0  0  0  0  0  0  0  0  0  0
  145.9184  135.7243  149.4110 H   0  0  0  0  0  0  0  0  0  0  0  0
  147.0500  136.1989  150.6784 H   0  0  0  0  0  0  0  0  0  0  0  0
  143.9214  133.3975  150.5418 H   0  0  0  0  0  0  0  0  0  0  0  0
  145.5063  133.6254  149.8305 H   0  0  0  0  0  0  0  0  0  0  0  0
  144.7111  131.5768  151.9718 H   0  0  0  0  0  0  0  0  0  0  0  0
  145.0885  131.2416  150.2923 H   0  0  0  0  0  0  0  0  0  0  0  0
  146.5361  132.3443  153.4285 H   0  0  0  0  0  0  0  0  0  0  0  0
  148.1307  132.5222  152.7195 H   0  0  0  0  0  0  0  0  0  0  0  0
  147.3869  134.4160  151.3316 H   0  0  0  0  0  0  0  0  0  0  0  0
  147.0300  134.7085  153.0208 H   0  0  0  0  0  0  0  0  0  0  0  0
  139.8848  136.2231  152.5670 H   0  0  0  0  0  0  0  0  0  0  0  0
  1  2  1  0  0  0  0
  1 22  1  0  0  0  0
  1 23  1  0  0  0  0
  1 24  1  0  0  0  0
  2  3  1  0  0  0  0
  3 21  1  0  0  0  0
  3  4  2  0  0  0  0
  4  5  1  0  0  0  0
  4 25  1  0  0  0  0
  5  6  2  0  0  0  0
  5 26  1  0  0  0  0
  6  7  1  0  0  0  0
  6 20  1  0  0  0  0
  7  8  1  0  0  0  0
  7 27  1  0  0  0  0
  8  9  2  0  0  0  0
  8 10  1  0  0  0  0
 10 11  1  0  0  0  0
 10 28  1  0  0  0  0
 11 12  1  0  0  0  0
 11 29  1  0  0  0  0
 11 30  1  0  0  0  0
 12 13  1  0  0  0  0
 12 14  1  0  0  0  0
 12 31  1  0  0  0  0
 13 32  1  0  0  0  0
 13 33  1  0  0  0  0
 13 34  1  0  0  0  0
 14 19  1  0  0  0  0
 14 15  1  0  0  0  0
 15 16  1  0  0  0  0
 15 35  1  0  0  0  0
 15 36  1  0  0  0  0
 16 17  1  0  0  0  0
 16 37  1  0  0  0  0
 16 38  1  0  0  0  0
 17 18  1  0  0  0  0
 18 19  1  0  0  0  0
 18 39  1  0  0  0  0
 18 40  1  0  0  0  0
 19 41  1  0  0  0  0
 19 42  1  0  0  0  0
 20 21  2  0  0  0  0
 20 43  1  0  0  0  0
M  END
> <s_m_source_file>
AV-unprocessed.smi

> <i_m_source_file_index>
1190

> <i_lp_mmshare_version>
43012

> <i_f3d_flags>
0

> <s_epik_input>
W0NIM11PYzFbY0hdW2NIXWMoW2NIXW4xKVtOSF1DKD1PKVtOSF1bQ0gyXVtDQEhdKFtDSDNdKU4yW0NIMl1bQ0gyXU9bQ0gyXVtDSDJdMg==

> <s_epik_cmdline>
J2VwaWtfcHl0aG9uJywgJy1waCcsICc3LjAnLCAnLXRuJywgJzgnLCAnLW1hJywgJzIwMCcsICctbWV0YWxfYmluZGluZycsICctaW1hZScsICc8aW5maWxlLm1hZT4nLCAnLW9tYWUnLCAnPG91dGZpbGUubWFlPic=

> <r_lp_tautomer_probability>
1

> <r_epik_Ionization_Penalty>
0.266084

> <r_epik_Ionization_Penalty_Charging>
0

> <r_epik_Ionization_Penalty_Neutral>
0.266084

> <r_epik_State_Penalty>
0.257924

> <r_epik_Charging_Adjusted_Penalty>
0.257924

> <i_epik_Tot_Q>
0

> <i_epik_Tot_abs_Q>
0

> <r_epik_Metal_State_Penalty>
0.257922

> <b_epik_Metal_Only>
0

> <s_lp_Force_Field>
OPLS_2005

> <r_lp_Energy>
31.4194

> <b_lp_Chiralities_Consistent>
1

> <s_lp_Variant>
AV-unprocessed.smi:1190-2

> <Gold.Version>
5.8.1

> <Gold.Id.Protein>
6NUR|6NUR_protein|mol2

> <Gold.PLP.Fitness>
38.8827

> <Gold.PLP.PLP>
-31.9000

> <Gold.PLP.part.hbond>
-2.8608

> <Gold.PLP.part.metal>
0.0000

> <Gold.PLP.part.buried>
-3.1613

> <Gold.PLP.part.nonpolar>
-26.2957

> <Gold.PLP.part.repulsive>
0.5037

> <Gold.PLP.ligand.clash>
0.0000

> <Gold.PLP.ligand.torsion>
1.0391

> <Gold.PLP.Chemscore.Hbond>
2.0000

> <Gold.PLP.Chemscore.CHOScore>
0.9997

> <Gold.PLP.Chemscore.Metal>
0.0000

> <Gold.Chemscore.Hbonds>
donor molecule, donor type, donor heavy atom, donor atom, acceptor molecule, acceptor atom, score
      L1  H     7    27       P1 10175  1.00
      L1  H    10    28       P1 10175  1.00
      L1  C    20    43       P1 10187  0.69

> <Gold.PLP.Chemscore.Internal.Correction>
0.0617

> <Gold.Rescore>
     Score         DG    S(hbond)    S(metal)    S(lipo)     H(rot)  DE(clash)    DE(int)     intcor
     13.89     -15.74       1.90        0.00      71.29       1.73       0.02       1.83       ----

> <Gold.Chemscore.Fitness>
13.8900

> <Gold.Chemscore.DG>
-15.7404

> <Gold.Chemscore.ZeroCoef>
-5.4800

> <Gold.Chemscore.Hbond>
1.9000

> <Gold.Chemscore.Metal>
0.0000

> <Gold.Chemscore.Lipo>
71.2918

> <Gold.Chemscore.Internal_Hbond>
0.0000

> <Gold.Chemscore.DEClash>
0.0238

> <Gold.Chemscore.DEInternal>
1.8266

> <Gold.Chemscore.Rot>
1.7292

> <Gold.Chemscore.Internal.Correction>
   9.000000E+99

> <Gold.Chemscore.Hbonds>
donor molecule, donor type, donor heavy atom, donor atom, acceptor molecule, acceptor atom, score
      L1  H     7    27       P1 10175  0.89
      L1  H    10    28       P1 10175  0.98

> <Gold.Chemscore.Hbond.Weighted>
-6.3461

> <Gold.Chemscore.Metal.Weighted>
-0.0000

> <Gold.Chemscore.Lipo.Weighted>
-8.3411

> <Gold.Chemscore.Internal_Hbond.Weighted>
0.0000

> <Gold.Chemscore.DEClash.Weighted>
0.0238

> <Gold.Chemscore.DEInternal.Weighted>
1.8266

> <Gold.Chemscore.Rot.Weighted>
4.4268

> <Gold.Chemscore.Internal.Correction.Weighted>
   9.000000E+99

> <Gold.Protein.RotatedTorsions>
[ 6907 6896 6895 6894 ] final -118.71 input  -60.11 | X-H torsion
[ 7974 7965 7964 7962 ] final -157.31 input  175.53 | X-H torsion
[ 8008 7997 7996 7995 ] final  -49.64 input   59.86 | X-H torsion
[ 10167 10162 10161 10158 ] final  -64.26 input  -65.29 | X-H torsion
[ 10718 10713 10712 10709 ] final  -27.02 input   66.30 | X-H torsion
[ 10763 10752 10751 10750 ] final   62.53 input  -60.55 | X-H torsion
[ 11005 11000 10999 10996 ] final  116.38 input  -57.11 | X-H torsion

> <Gold.Protein.ActiveResidues>
 VAL166  LYS551  ARG553  GLY616  TRP617  ASP618  TYR619  PRO620  LYS621  CYS622 
 ASP623  PHE694  ASN695  SER759  ASP760  ASP761  ALA762  ILE779  LEU786  VAL792 
 PHE793  MET794  SER795  GLU796  ALA797  LYS798  CYS799  TRP800  GLU811  SER814 

> <Gold.Protein.RotatedAtoms>
  150.8243  133.8199  159.3125 H   0  0  0  0  0  0  0  0  0  0  0  0  # atno 6907 bound_to 6896
  151.5947  135.1049  160.0056 H   0  0  0  0  0  0  0  0  0  0  0  0  # atno 6908 bound_to 6896
  152.4329  133.7269  159.6622 H   0  0  0  0  0  0  0  0  0  0  0  0  # atno 6909 bound_to 6896
  144.7554  140.3986  143.6016 H   0  0  0  0  0  0  0  0  0  0  0  0  # atno 7974 bound_to 7965
  154.4047  140.1292  156.4536 H   0  0  0  0  0  0  0  0  0  0  0  0  # atno 8008 bound_to 7997
  155.7342  140.3491  155.5054 H   0  0  0  0  0  0  0  0  0  0  0  0  # atno 8009 bound_to 7997
  155.9099  140.1034  157.1277 H   0  0  0  0  0  0  0  0  0  0  0  0  # atno 8010 bound_to 7997
  140.5813  143.2328  151.6335 H   0  0  0  0  0  0  0  0  0  0  0  0  # atno 10167 bound_to 10162
  156.4436  130.4469  149.7036 H   0  0  0  0  0  0  0  0  0  0  0  0  # atno 10718 bound_to 10713
  152.9986  135.5462  154.6207 H   0  0  0  0  0  0  0  0  0  0  0  0  # atno 10763 bound_to 10752
  154.5507  135.2826  155.1013 H   0  0  0  0  0  0  0  0  0  0  0  0  # atno 10764 bound_to 10752
  154.2254  135.6443  153.5210 H   0  0  0  0  0  0  0  0  0  0  0  0  # atno 10765 bound_to 10752
  139.9039  134.9597  156.7190 H   0  0  0  0  0  0  0  0  0  0  0  0  # atno 11005 bound_to 11000
  145.6799  139.1616  143.2707 LP  0  0  0  0  0  0  0  0  0  0  0  0  # atno 17320 bound_to 7965
  146.1557  140.6861  142.9301 LP  0  0  0  0  0  0  0  0  0  0  0  0  # atno 17321 bound_to 7965
  139.5172  144.3324  152.0814 LP  0  0  0  0  0  0  0  0  0  0  0  0  # atno 17342 bound_to 10162
  140.2474  144.4205  150.6235 LP  0  0  0  0  0  0  0  0  0  0  0  0  # atno 17343 bound_to 10162
  156.3891  130.7618  151.2617 LP  0  0  0  0  0  0  0  0  0  0  0  0  # atno 17370 bound_to 10713
  157.7505  131.0273  150.4000 LP  0  0  0  0  0  0  0  0  0  0  0  0  # atno 17371 bound_to 10713
  140.7016  133.9301  155.8028 LP  0  0  0  0  0  0  0  0  0  0  0  0  # atno 17394 bound_to 11000
  141.0367  134.0679  157.3950 LP  0  0  0  0  0  0  0  0  0  0  0  0  # atno 17395 bound_to 11000

$$$$
