AV-unprocessed.smi:525|AV-procd|sdf|2807|dock10
  -GOLD-   2262023283D 1   1.00000     0.00000
 Structure written by MMmdl.
 43 45  0  0  0  0  0  0  0  0  1 V2000
  151.5328  145.5925  159.7793 C   0  0  0  0  0  0  0  0  0  0  0  0
  151.6770  144.7516  160.9107 O   0  0  0  0  0  0  0  0  0  0  0  0
  151.4903  143.3838  160.5928 C   0  0  0  0  0  0  0  0  0  0  0  0
  152.8253  142.7868  160.1319 C   0  0  0  0  0  0  0  0  0  0  0  0
  152.7150  141.3576  159.8857 N   0  0  0  0  0  0  0  0  0  0  0  0
  152.0627  140.7347  158.8744 C   0  0  0  0  0  0  0  0  0  0  0  0
  151.2040  141.6318  157.6246 S   0  0  0  0  0  0  0  0  0  0  0  0
  150.4720  140.2254  156.7206 C   0  0  2  0  0  0  0  0  0  0  0  0
  151.4924  139.5151  155.8162 C   0  0  0  0  0  0  0  0  0  0  0  0
  152.5258  138.9296  156.4276 N   0  0  0  0  0  0  0  0  0  0  0  0
  151.3559  139.4708  154.5942 O   0  0  0  0  0  0  0  0  0  0  0  0
  149.2364  140.6947  155.9541 C   0  0  0  0  0  0  0  0  0  0  0  0
  147.9341  140.3684  156.3985 C   0  0  0  0  0  0  0  0  0  0  0  0
  146.8058  140.7902  155.6693 C   0  0  0  0  0  0  0  0  0  0  0  0
  146.9693  141.5430  154.4911 C   0  0  0  0  0  0  0  0  0  0  0  0
  148.2622  141.8736  154.0430 C   0  0  0  0  0  0  0  0  0  0  0  0
  149.3911  141.4518  154.7718 C   0  0  0  0  0  0  0  0  0  0  0  0
  152.1166  139.4026  158.8837 N   0  0  0  0  0  0  0  0  0  0  0  0
  152.8675  139.1367  160.0122 C   0  0  0  0  0  0  0  0  0  0  0  0
  153.2766  137.9062  160.5743 C   0  0  0  0  0  0  0  0  0  0  0  0
  154.0495  137.8827  161.7539 C   0  0  0  0  0  0  0  0  0  0  0  0
  154.4224  139.0858  162.3874 C   0  0  0  0  0  0  0  0  0  0  0  0
  154.0257  140.3226  161.8435 C   0  0  0  0  0  0  0  0  0  0  0  0
  153.2562  140.3407  160.6649 C   0  0  0  0  0  0  0  0  0  0  0  0
  151.6768  146.6320  160.0736 H   0  0  0  0  0  0  0  0  0  0  0  0
  150.5371  145.5004  159.3435 H   0  0  0  0  0  0  0  0  0  0  0  0
  152.2729  145.3546  159.0144 H   0  0  0  0  0  0  0  0  0  0  0  0
  151.1158  142.8443  161.4644 H   0  0  0  0  0  0  0  0  0  0  0  0
  150.7464  143.2886  159.8027 H   0  0  0  0  0  0  0  0  0  0  0  0
  153.1746  143.2815  159.2254 H   0  0  0  0  0  0  0  0  0  0  0  0
  153.5927  142.9549  160.8880 H   0  0  0  0  0  0  0  0  0  0  0  0
  150.1443  139.4820  157.4480 H   0  0  0  0  0  0  0  0  0  0  0  0
  153.2247  138.4451  155.8824 H   0  0  0  0  0  0  0  0  0  0  0  0
  152.6023  138.9705  157.4335 H   0  0  0  0  0  0  0  0  0  0  0  0
  147.7958  139.7923  157.3018 H   0  0  0  0  0  0  0  0  0  0  0  0
  145.8146  140.5360  156.0148 H   0  0  0  0  0  0  0  0  0  0  0  0
  146.1036  141.8661  153.9320 H   0  0  0  0  0  0  0  0  0  0  0  0
  148.3887  142.4504  153.1387 H   0  0  0  0  0  0  0  0  0  0  0  0
  150.3776  141.7096  154.4151 H   0  0  0  0  0  0  0  0  0  0  0  0
  152.9954  136.9788  160.0974 H   0  0  0  0  0  0  0  0  0  0  0  0
  154.3574  136.9367  162.1750 H   0  0  0  0  0  0  0  0  0  0  0  0
  155.0136  139.0591  163.2910 H   0  0  0  0  0  0  0  0  0  0  0  0
  154.3096  141.2456  162.3269 H   0  0  0  0  0  0  0  0  0  0  0  0
  1  2  1  0  0  0  0
  1 25  1  0  0  0  0
  1 26  1  0  0  0  0
  1 27  1  0  0  0  0
  2  3  1  0  0  0  0
  3  4  1  0  0  0  0
  3 28  1  0  0  0  0
  3 29  1  0  0  0  0
  4  5  1  0  0  0  0
  4 30  1  0  0  0  0
  4 31  1  0  0  0  0
  5 24  1  0  0  0  0
  5  6  1  0  0  0  0
  6  7  1  0  0  0  0
  6 18  2  0  0  0  0
  7  8  1  0  0  0  0
  8  9  1  0  0  0  0
  8 12  1  0  0  0  0
  8 32  1  0  0  0  0
  9 10  1  0  0  0  0
  9 11  2  0  0  0  0
 10 33  1  0  0  0  0
 10 34  1  0  0  0  0
 12 17  1  0  0  0  0
 12 13  2  0  0  0  0
 13 14  1  0  0  0  0
 13 35  1  0  0  0  0
 14 15  2  0  0  0  0
 14 36  1  0  0  0  0
 15 16  1  0  0  0  0
 15 37  1  0  0  0  0
 16 17  2  0  0  0  0
 16 38  1  0  0  0  0
 17 39  1  0  0  0  0
 18 19  1  0  0  0  0
 19 24  2  0  0  0  0
 19 20  1  0  0  0  0
 20 21  2  0  0  0  0
 20 40  1  0  0  0  0
 21 22  1  0  0  0  0
 21 41  1  0  0  0  0
 22 23  2  0  0  0  0
 22 42  1  0  0  0  0
 23 24  1  0  0  0  0
 23 43  1  0  0  0  0
M  END
> <s_m_source_file>
AV-unprocessed.smi

> <i_m_source_file_index>
525

> <i_lp_mmshare_version>
43012

> <i_f3d_flags>
0

> <s_epik_input>
W2NIXTFbY0hdW2NIXVtjSF1jKGMxMiluKFtDSDJdW0NIMl1PW0NIM10pYyhuMilTW0NASF0oQyg9TylbTkgyXSljM1tjSF1bY0hdW2NIXVtjSF1bY0hdMw==

> <s_epik_cmdline>
J2VwaWtfcHl0aG9uJywgJy1waCcsICc3LjAnLCAnLXRuJywgJzgnLCAnLW1hJywgJzIwMCcsICctbWV0YWxfYmluZGluZycsICctaW1hZScsICc8aW5maWxlLm1hZT4nLCAnLW9tYWUnLCAnPG91dGZpbGUubWFlPic=

> <r_epik_Ionization_Penalty>
0.0706634

> <r_epik_Ionization_Penalty_Charging>
0

> <r_epik_Ionization_Penalty_Neutral>
0.0706634

> <r_epik_State_Penalty>
0.0619781

> <r_epik_Charging_Adjusted_Penalty>
0.0619781

> <i_epik_Tot_Q>
0

> <i_epik_Tot_abs_Q>
0

> <r_epik_Metal_State_Penalty>
0.0552401

> <b_epik_Metal_Only>
0

> <s_lp_Force_Field>
OPLS_2005

> <r_lp_Energy>
11.715

> <b_lp_Chiralities_Consistent>
1

> <s_lp_Variant>
AV-unprocessed.smi:525-1

> <Gold.Version>
5.8.1

> <Gold.Id.Protein>
6NUR|6NUR_protein|mol2

> <Gold.PLP.Fitness>
47.3153

> <Gold.PLP.PLP>
-45.7603

> <Gold.PLP.part.hbond>
-1.0000

> <Gold.PLP.part.metal>
0.0000

> <Gold.PLP.part.buried>
-4.3241

> <Gold.PLP.part.nonpolar>
-40.3932

> <Gold.PLP.part.repulsive>
0.4254

> <Gold.PLP.ligand.clash>
0.0000

> <Gold.PLP.ligand.torsion>
0.8114

> <Gold.PLP.Chemscore.Hbond>
1.0000

> <Gold.PLP.Chemscore.CHOScore>
0.0000

> <Gold.PLP.Chemscore.Metal>
0.0000

> <Gold.Chemscore.Hbonds>
donor molecule, donor type, donor heavy atom, donor atom, acceptor molecule, acceptor atom, score
      P1  H  7989  7998       L1    11  1.00

> <Gold.PLP.Chemscore.Internal.Correction>
0.1779

> <Gold.Rescore>
     Score         DG    S(hbond)    S(metal)    S(lipo)     H(rot)  DE(clash)    DE(int)     intcor
     13.22     -15.82       0.97        0.00     113.92       2.44       0.05       2.55       ----

> <Gold.Chemscore.Fitness>
13.2172

> <Gold.Chemscore.DG>
-15.8175

> <Gold.Chemscore.ZeroCoef>
-5.4800

> <Gold.Chemscore.Hbond>
0.9743

> <Gold.Chemscore.Metal>
0.0000

> <Gold.Chemscore.Lipo>
113.9205

> <Gold.Chemscore.Internal_Hbond>
0.0000

> <Gold.Chemscore.DEClash>
0.0510

> <Gold.Chemscore.DEInternal>
2.5493

> <Gold.Chemscore.Rot>
2.4396

> <Gold.Chemscore.Internal.Correction>
   9.000000E+99

> <Gold.Chemscore.Hbonds>
donor molecule, donor type, donor heavy atom, donor atom, acceptor molecule, acceptor atom, score
      P1  H  7989  7998       L1    11  0.99

> <Gold.Chemscore.Hbond.Weighted>
-3.2542

> <Gold.Chemscore.Metal.Weighted>
-0.0000

> <Gold.Chemscore.Lipo.Weighted>
-13.3287

> <Gold.Chemscore.Internal_Hbond.Weighted>
0.0000

> <Gold.Chemscore.DEClash.Weighted>
0.0510

> <Gold.Chemscore.DEInternal.Weighted>
2.5493

> <Gold.Chemscore.Rot.Weighted>
6.2454

> <Gold.Chemscore.Internal.Correction.Weighted>
   9.000000E+99

> <Gold.Protein.RotatedTorsions>
[ 6907 6896 6895 6894 ] final -113.95 input  -60.11 | X-H torsion
[ 7974 7965 7964 7962 ] final -111.11 input  175.53 | X-H torsion
[ 8008 7997 7996 7995 ] final  -65.67 input   59.86 | X-H torsion
[ 10167 10162 10161 10158 ] final  -13.57 input  -65.29 | X-H torsion
[ 10718 10713 10712 10709 ] final  131.08 input   66.30 | X-H torsion
[ 10763 10752 10751 10750 ] final  -21.68 input  -60.55 | X-H torsion
[ 11005 11000 10999 10996 ] final   -5.66 input  -57.11 | X-H torsion

> <Gold.Protein.ActiveResidues>
 VAL166  LYS551  ARG553  GLY616  TRP617  ASP618  TYR619  PRO620  LYS621  CYS622 
 ASP623  PHE694  ASN695  SER759  ASP760  ASP761  ALA762  ILE779  LEU786  VAL792 
 PHE793  MET794  SER795  GLU796  ALA797  LYS798  CYS799  TRP800  GLU811  SER814 

> <Gold.Protein.RotatedAtoms>
  150.7866  133.8871  159.3302 H   0  0  0  0  0  0  0  0  0  0  0  0  # atno 6907 bound_to 6896
  151.6720  135.0973  160.0209 H   0  0  0  0  0  0  0  0  0  0  0  0  # atno 6908 bound_to 6896
  152.3931  133.6669  159.6289 H   0  0  0  0  0  0  0  0  0  0  0  0  # atno 6909 bound_to 6896
  145.1601  140.8874  143.3596 H   0  0  0  0  0  0  0  0  0  0  0  0  # atno 7974 bound_to 7965
  154.4686  140.0928  156.7085 H   0  0  0  0  0  0  0  0  0  0  0  0  # atno 8008 bound_to 7997
  155.4788  140.3467  155.4318 H   0  0  0  0  0  0  0  0  0  0  0  0  # atno 8009 bound_to 7997
  156.1000  140.1419  156.9469 H   0  0  0  0  0  0  0  0  0  0  0  0  # atno 8010 bound_to 7997
  140.7185  143.5412  150.9407 H   0  0  0  0  0  0  0  0  0  0  0  0  # atno 10167 bound_to 10162
  157.5001  131.1094  150.9438 H   0  0  0  0  0  0  0  0  0  0  0  0  # atno 10718 bound_to 10713
  153.6400  135.6985  153.5245 H   0  0  0  0  0  0  0  0  0  0  0  0  # atno 10763 bound_to 10752
  153.2790  135.4191  155.1060 H   0  0  0  0  0  0  0  0  0  0  0  0  # atno 10764 bound_to 10752
  154.8502  135.3597  154.5944 H   0  0  0  0  0  0  0  0  0  0  0  0  # atno 10765 bound_to 10752
  140.6936  133.9050  155.8635 H   0  0  0  0  0  0  0  0  0  0  0  0  # atno 11005 bound_to 11000
  145.0340  139.3316  143.6010 LP  0  0  0  0  0  0  0  0  0  0  0  0  # atno 17320 bound_to 7965
  146.3483  139.9688  142.8708 LP  0  0  0  0  0  0  0  0  0  0  0  0  # atno 17321 bound_to 7965
  139.9135  143.6691  152.3110 LP  0  0  0  0  0  0  0  0  0  0  0  0  # atno 17342 bound_to 10162
  139.7083  144.7624  151.1155 LP  0  0  0  0  0  0  0  0  0  0  0  0  # atno 17343 bound_to 10162
  157.0112  130.5637  149.5321 LP  0  0  0  0  0  0  0  0  0  0  0  0  # atno 17370 bound_to 10713
  156.0224  130.5319  150.8313 LP  0  0  0  0  0  0  0  0  0  0  0  0  # atno 17371 bound_to 10713
  141.0221  134.0874  157.4109 LP  0  0  0  0  0  0  0  0  0  0  0  0  # atno 17394 bound_to 11000
  139.8916  135.0120  156.6802 LP  0  0  0  0  0  0  0  0  0  0  0  0  # atno 17395 bound_to 11000

$$$$
