AV-unprocessed.smi:2823|AV-procd|sdf|10884|dock1
  -GOLD-   2272015323D 1   1.00000     0.00000
 Structure written by MMmdl.
 42 43  0  0  0  0  0  0  0  0  1 V2000
  143.8300  142.7508  161.7738 C   0  0  0  0  0  0  0  0  0  0  0  0
  144.8912  143.3810  160.9386 C   0  0  0  0  0  0  0  0  0  0  0  0
  145.1808  144.6717  161.0599 N   0  0  0  0  0  0  0  0  0  0  0  0
  146.2076  144.8639  160.1236 O   0  0  0  0  0  0  0  0  0  0  0  0
  146.4076  143.6510  159.5518 C   0  0  0  0  0  0  0  0  0  0  0  0
  147.3730  143.4169  158.5432 N   0  0  0  0  0  0  0  0  0  0  0  0
  147.6826  142.2371  157.9828 C   0  0  0  0  0  0  0  0  0  0  0  0
  147.1615  141.1596  158.2717 O   0  0  0  0  0  0  0  0  0  0  0  0
  148.6370  142.3759  157.0513 N   0  0  0  0  0  0  0  0  0  0  0  0
  149.1869  141.3011  156.2236 C   0  0  0  0  0  0  0  0  0  0  0  0
  150.3682  140.5418  156.9027 C   0  0  0  0  0  0  0  0  0  0  0  0
  151.1506  139.6522  155.8762 C   0  0  0  0  0  0  0  0  0  0  0  0
  152.3495  139.8892  155.7078 O   0  0  0  0  0  0  0  0  0  0  0  0
  150.5625  138.6407  155.1809 N   0  0  0  0  0  0  0  0  0  0  0  0
  149.1538  138.3178  155.4323 C   0  0  0  0  0  0  0  0  0  0  0  0
  151.1561  137.7876  154.1474 C   0  0  0  0  0  0  0  0  0  0  0  0
  151.3046  141.4574  157.7330 C   0  0  0  0  0  0  0  0  0  0  0  0
  151.9335  140.5800  158.8234 C   0  0  0  0  0  0  0  0  0  0  0  0
  150.9626  139.4160  159.0339 C   0  0  0  0  0  0  0  0  0  0  0  0
  149.8044  139.6776  158.0656 C   0  0  0  0  0  0  0  0  0  0  0  0
  145.6171  142.6888  160.0167 N   0  0  0  0  0  0  0  0  0  0  0  0
  142.8657  143.2191  161.5753 H   0  0  0  0  0  0  0  0  0  0  0  0
  144.0630  142.8687  162.8325 H   0  0  0  0  0  0  0  0  0  0  0  0
  143.7474  141.6856  161.5555 H   0  0  0  0  0  0  0  0  0  0  0  0
  147.8711  144.2299  158.2126 H   0  0  0  0  0  0  0  0  0  0  0  0
  149.0036  143.3020  156.8866 H   0  0  0  0  0  0  0  0  0  0  0  0
  148.3595  140.6406  155.9820 H   0  0  0  0  0  0  0  0  0  0  0  0
  149.5035  141.6976  155.2573 H   0  0  0  0  0  0  0  0  0  0  0  0
  148.9795  138.1306  156.4932 H   0  0  0  0  0  0  0  0  0  0  0  0
  148.8284  137.4262  154.8944 H   0  0  0  0  0  0  0  0  0  0  0  0
  148.5111  139.1421  155.1200 H   0  0  0  0  0  0  0  0  0  0  0  0
  152.1239  138.1052  153.7775 H   0  0  0  0  0  0  0  0  0  0  0  0
  150.4994  137.7389  153.2780 H   0  0  0  0  0  0  0  0  0  0  0  0
  151.2720  136.7736  154.5313 H   0  0  0  0  0  0  0  0  0  0  0  0
  152.0825  141.9693  157.1737 H   0  0  0  0  0  0  0  0  0  0  0  0
  150.7114  142.2395  158.2092 H   0  0  0  0  0  0  0  0  0  0  0  0
  152.8999  140.1989  158.4908 H   0  0  0  0  0  0  0  0  0  0  0  0
  152.1023  141.1445  159.7408 H   0  0  0  0  0  0  0  0  0  0  0  0
  151.4537  138.4721  158.7943 H   0  0  0  0  0  0  0  0  0  0  0  0
  150.6139  139.3520  160.0652 H   0  0  0  0  0  0  0  0  0  0  0  0
  149.0380  140.2407  158.6007 H   0  0  0  0  0  0  0  0  0  0  0  0
  149.3200  138.7534  157.7475 H   0  0  0  0  0  0  0  0  0  0  0  0
  1  2  1  0  0  0  0
  1 22  1  0  0  0  0
  1 23  1  0  0  0  0
  1 24  1  0  0  0  0
  2 21  1  0  0  0  0
  2  3  2  0  0  0  0
  3  4  1  0  0  0  0
  4  5  1  0  0  0  0
  5  6  1  0  0  0  0
  5 21  2  0  0  0  0
  6  7  1  0  0  0  0
  6 25  1  0  0  0  0
  7  8  2  0  0  0  0
  7  9  1  0  0  0  0
  9 10  1  0  0  0  0
  9 26  1  0  0  0  0
 10 11  1  0  0  0  0
 10 27  1  0  0  0  0
 10 28  1  0  0  0  0
 11 20  1  0  0  0  0
 11 12  1  0  0  0  0
 11 17  1  0  0  0  0
 12 13  2  0  0  0  0
 12 14  1  0  0  0  0
 14 15  1  0  0  0  0
 14 16  1  0  0  0  0
 15 29  1  0  0  0  0
 15 30  1  0  0  0  0
 15 31  1  0  0  0  0
 16 32  1  0  0  0  0
 16 33  1  0  0  0  0
 16 34  1  0  0  0  0
 17 18  1  0  0  0  0
 17 35  1  0  0  0  0
 17 36  1  0  0  0  0
 18 19  1  0  0  0  0
 18 37  1  0  0  0  0
 18 38  1  0  0  0  0
 19 20  1  0  0  0  0
 19 39  1  0  0  0  0
 19 40  1  0  0  0  0
 20 41  1  0  0  0  0
 20 42  1  0  0  0  0
M  END
> <s_m_source_file>
AV-unprocessed.smi

> <i_m_source_file_index>
2823

> <i_lp_mmshare_version>
43012

> <i_f3d_flags>
0

> <s_epik_input>
W0NIM11jMW5vYyhuMSlbTkhdQyg9TylbTkhdW0NIMl1DMihDKD1PKU4oW0NIM10pW0NIM10pW0NIMl1bQ0gyXVtDSDJdW0NIMl0y

> <s_epik_cmdline>
J2VwaWtfcHl0aG9uJywgJy1waCcsICc3LjAnLCAnLXRuJywgJzgnLCAnLW1hJywgJzIwMCcsICctbWV0YWxfYmluZGluZycsICctaW1hZScsICc8aW5maWxlLm1hZT4nLCAnLW9tYWUnLCAnPG91dGZpbGUubWFlPic=

> <r_lp_tautomer_probability>
1

> <r_epik_Ionization_Penalty>
4.1201e-05

> <r_epik_Ionization_Penalty_Charging>
0

> <r_epik_Ionization_Penalty_Neutral>
4.1201e-05

> <r_epik_State_Penalty>
-0

> <r_epik_Charging_Adjusted_Penalty>
0

> <i_epik_Tot_Q>
0

> <i_epik_Tot_abs_Q>
0

> <r_epik_Metal_State_Penalty>
0.0212056

> <b_epik_Metal_Only>
0

> <s_lp_Force_Field>
OPLS_2005

> <r_lp_Energy>
33.0432

> <b_lp_Chiralities_Consistent>
1

> <s_lp_Variant>
AV-unprocessed.smi:2823-1

> <Gold.Version>
5.8.1

> <Gold.Id.Protein>
6NUR|6NUR_protein|mol2

> <Gold.PLP.Fitness>
40.0991

> <Gold.PLP.PLP>
-28.4779

> <Gold.PLP.part.hbond>
-6.0700

> <Gold.PLP.part.metal>
0.0000

> <Gold.PLP.part.buried>
-2.0945

> <Gold.PLP.part.nonpolar>
-21.4985

> <Gold.PLP.part.repulsive>
0.3811

> <Gold.PLP.ligand.clash>
0.0000

> <Gold.PLP.ligand.torsion>
0.4773

> <Gold.PLP.Chemscore.Hbond>
4.1235

> <Gold.PLP.Chemscore.CHOScore>
0.0000

> <Gold.PLP.Chemscore.Metal>
0.0000

> <Gold.Chemscore.Hbonds>
donor molecule, donor type, donor heavy atom, donor atom, acceptor molecule, acceptor atom, score
      L1  H     6    25       P1  8029  0.99
      L1  H     9    26       P1  8028  0.82
      P1  H  6934  6946       L1    21  0.21
      P1  H  7997  8009       L1    13  0.73

> <Gold.PLP.Chemscore.Internal.Correction>
0.2053

> <Gold.Rescore>
     Score         DG    S(hbond)    S(metal)    S(lipo)     H(rot)  DE(clash)    DE(int)     intcor
     13.17     -16.79       2.88        0.00      52.50       1.74       0.72       2.90       ----

> <Gold.Chemscore.Fitness>
13.1725

> <Gold.Chemscore.DG>
-16.7947

> <Gold.Chemscore.ZeroCoef>
-5.4800

> <Gold.Chemscore.Hbond>
2.8790

> <Gold.Chemscore.Metal>
0.0000

> <Gold.Chemscore.Lipo>
52.5034

> <Gold.Chemscore.Internal_Hbond>
0.0000

> <Gold.Chemscore.DEClash>
0.7211

> <Gold.Chemscore.DEInternal>
2.9010

> <Gold.Chemscore.Rot>
1.7360

> <Gold.Chemscore.Internal.Correction>
   9.000000E+99

> <Gold.Chemscore.Hbonds>
donor molecule, donor type, donor heavy atom, donor atom, acceptor molecule, acceptor atom, score
      L1  H     6    25       P1  8029  0.42
      L1  H     9    26       P1  8028  0.69
      P1  H  6934  6946       L1    21  0.17
      P1  H  7997  8009       L1    13  0.69

> <Gold.Chemscore.Hbond.Weighted>
-9.6160

> <Gold.Chemscore.Metal.Weighted>
-0.0000

> <Gold.Chemscore.Lipo.Weighted>
-6.1429

> <Gold.Chemscore.Internal_Hbond.Weighted>
0.0000

> <Gold.Chemscore.DEClash.Weighted>
0.7211

> <Gold.Chemscore.DEInternal.Weighted>
2.9010

> <Gold.Chemscore.Rot.Weighted>
4.4443

> <Gold.Chemscore.Internal.Correction.Weighted>
   9.000000E+99

> <Gold.Protein.RotatedTorsions>
[ 6907 6896 6895 6894 ] final  -92.47 input  -60.11 | X-H torsion
[ 7974 7965 7964 7962 ] final  -98.16 input  175.53 | X-H torsion
[ 8008 7997 7996 7995 ] final -133.94 input   59.86 | X-H torsion
[ 10167 10162 10161 10158 ] final -138.50 input  -65.29 | X-H torsion
[ 10718 10713 10712 10709 ] final -137.00 input   66.30 | X-H torsion
[ 10763 10752 10751 10750 ] final   64.54 input  -60.55 | X-H torsion
[ 11005 11000 10999 10996 ] final  -80.70 input  -57.11 | X-H torsion

> <Gold.Protein.ActiveResidues>
 VAL166  LYS551  ARG553  GLY616  TRP617  ASP618  TYR619  PRO620  LYS621  CYS622 
 ASP623  PHE694  ASN695  SER759  ASP760  ASP761  ALA762  ILE779  LEU786  VAL792 
 PHE793  MET794  SER795  GLU796  ALA797  LYS798  CYS799  TRP800  GLU811  SER814 

> <Gold.Protein.RotatedAtoms>
  150.6907  134.2117  159.4361 H   0  0  0  0  0  0  0  0  0  0  0  0  # atno 6907 bound_to 6896
  152.0078  134.9890  160.0576 H   0  0  0  0  0  0  0  0  0  0  0  0  # atno 6908 bound_to 6896
  152.1517  133.4491  159.4853 H   0  0  0  0  0  0  0  0  0  0  0  0  # atno 6909 bound_to 6896
  145.3243  140.9428  143.2698 H   0  0  0  0  0  0  0  0  0  0  0  0  # atno 7974 bound_to 7965
  155.3539  140.0479  157.3046 H   0  0  0  0  0  0  0  0  0  0  0  0  # atno 8008 bound_to 7997
  154.5213  140.2226  155.8935 H   0  0  0  0  0  0  0  0  0  0  0  0  # atno 8009 bound_to 7997
  156.1692  140.3099  155.8949 H   0  0  0  0  0  0  0  0  0  0  0  0  # atno 8010 bound_to 7997
  139.8472  143.7245  152.2660 H   0  0  0  0  0  0  0  0  0  0  0  0  # atno 10167 bound_to 10162
  156.2832  130.7333  151.1336 H   0  0  0  0  0  0  0  0  0  0  0  0  # atno 10718 bound_to 10713
  153.0060  135.5389  154.6526 H   0  0  0  0  0  0  0  0  0  0  0  0  # atno 10763 bound_to 10752
  154.5755  135.2845  155.0787 H   0  0  0  0  0  0  0  0  0  0  0  0  # atno 10764 bound_to 10752
  154.1937  135.6496  153.5119 H   0  0  0  0  0  0  0  0  0  0  0  0  # atno 10765 bound_to 10752
  141.1667  133.7162  156.8311 H   0  0  0  0  0  0  0  0  0  0  0  0  # atno 11005 bound_to 11000
  144.8915  139.4769  143.6676 LP  0  0  0  0  0  0  0  0  0  0  0  0  # atno 17320 bound_to 7965
  146.3070  139.7615  142.9048 LP  0  0  0  0  0  0  0  0  0  0  0  0  # atno 17321 bound_to 7965
  139.7501  144.7536  151.0520 LP  0  0  0  0  0  0  0  0  0  0  0  0  # atno 17342 bound_to 10162
  140.7791  143.4870  150.9942 LP  0  0  0  0  0  0  0  0  0  0  0  0  # atno 17343 bound_to 10162
  157.7321  131.0603  150.5646 LP  0  0  0  0  0  0  0  0  0  0  0  0  # atno 17370 bound_to 10713
  156.5755  130.4290  149.6000 LP  0  0  0  0  0  0  0  0  0  0  0  0  # atno 17371 bound_to 10713
  140.2050  134.8869  157.3211 LP  0  0  0  0  0  0  0  0  0  0  0  0  # atno 17394 bound_to 11000
  140.2147  134.4096  155.7595 LP  0  0  0  0  0  0  0  0  0  0  0  0  # atno 17395 bound_to 11000

$$$$
