AV-unprocessed.smi:2505|AV-procd|sdf|9860|dock5
  -GOLD-   2272013493D 1   1.00000     0.00000
 Structure written by MMmdl.
 48 52  0  0  0  0  0  0  0  0  1 V2000
  146.8738  136.7374  155.6007 O   0  0  0  0  0  0  0  0  0  0  0  0
  147.5133  136.6245  154.5578 C   0  0  0  0  0  0  0  0  0  0  0  0
  148.5726  137.3828  154.2188 N   0  0  0  0  0  0  0  0  0  0  0  0
  149.0688  138.5569  154.8452 C   0  0  0  0  0  0  0  0  0  0  0  0
  148.6422  139.0635  156.0978 C   0  0  0  0  0  0  0  0  0  0  0  0
  149.1553  140.2009  156.6143 N   0  0  0  0  0  0  0  0  0  0  0  0
  150.0748  140.8384  155.8849 C   0  0  0  0  0  0  0  0  0  0  0  0
  150.6713  142.0733  156.4857 C   0  0  0  0  0  0  0  0  0  0  0  0
  151.4393  142.0089  157.7903 C   0  0  0  0  0  0  0  0  0  0  0  0
  150.0938  142.6781  157.7490 C   0  0  0  0  0  0  0  0  0  0  0  0
  150.5546  140.4561  154.6982 N   0  0  0  0  0  0  0  0  0  0  0  0
  150.0473  139.3198  154.1743 C   0  0  0  0  0  0  0  0  0  0  0  0
  147.2064  135.6799  153.6528 N   0  0  0  0  0  0  0  0  0  0  0  0
  146.1244  134.6952  153.7081 C   0  0  1  0  0  0  0  0  0  0  0  0
  145.5174  134.4501  152.3263 C   0  0  2  0  0  0  0  0  0  0  0  0
  144.2067  134.7582  151.6959 C   0  0  0  0  0  0  0  0  0  0  0  0
  143.9484  133.3703  151.0530 C   0  0  0  0  0  0  0  0  0  0  0  0
  144.9464  132.4815  151.6120 O   0  0  0  0  0  0  0  0  0  0  0  0
  145.2567  133.0600  152.8639 C   0  0  1  0  0  0  0  0  0  0  0  0
  146.5932  133.1886  153.6230 C   0  0  0  0  0  0  0  0  0  0  0  0
  147.8943  132.8256  152.8841 C   0  0  0  0  0  0  0  0  0  0  0  0
  148.9246  132.4634  153.9491 C   0  0  0  0  0  0  0  0  0  0  0  0
  148.1056  131.8084  155.0542 C   0  0  0  0  0  0  0  0  0  0  0  0
  146.7001  132.4103  154.9422 C   0  0  0  0  0  0  0  0  0  0  0  0
  149.0541  137.1096  153.3744 H   0  0  0  0  0  0  0  0  0  0  0  0
  147.8837  138.5875  156.6982 H   0  0  0  0  0  0  0  0  0  0  0  0
  151.0318  142.7529  155.7160 H   0  0  0  0  0  0  0  0  0  0  0  0
  151.5043  141.0472  158.2956 H   0  0  0  0  0  0  0  0  0  0  0  0
  152.3163  142.6455  157.8865 H   0  0  0  0  0  0  0  0  0  0  0  0
  150.0694  143.7636  157.8182 H   0  0  0  0  0  0  0  0  0  0  0  0
  149.2633  142.1618  158.2267 H   0  0  0  0  0  0  0  0  0  0  0  0
  150.4281  139.0173  153.2096 H   0  0  0  0  0  0  0  0  0  0  0  0
  147.8055  135.6250  152.8419 H   0  0  0  0  0  0  0  0  0  0  0  0
  145.3734  134.8955  154.4779 H   0  0  0  0  0  0  0  0  0  0  0  0
  146.2991  134.4609  151.5606 H   0  0  0  0  0  0  0  0  0  0  0  0
  143.4478  135.0138  152.4365 H   0  0  0  0  0  0  0  0  0  0  0  0
  144.2688  135.5575  150.9569 H   0  0  0  0  0  0  0  0  0  0  0  0
  142.9448  133.0136  151.2875 H   0  0  0  0  0  0  0  0  0  0  0  0
  144.0535  133.3985  149.9682 H   0  0  0  0  0  0  0  0  0  0  0  0
  144.3986  132.9990  153.5432 H   0  0  0  0  0  0  0  0  0  0  0  0
  147.7231  131.9614  152.2410 H   0  0  0  0  0  0  0  0  0  0  0  0
  148.2715  133.6217  152.2424 H   0  0  0  0  0  0  0  0  0  0  0  0
  149.7141  131.8149  153.5686 H   0  0  0  0  0  0  0  0  0  0  0  0
  149.3955  133.3701  154.3299 H   0  0  0  0  0  0  0  0  0  0  0  0
  148.0556  130.7324  154.8827 H   0  0  0  0  0  0  0  0  0  0  0  0
  148.5471  131.9643  156.0391 H   0  0  0  0  0  0  0  0  0  0  0  0
  146.5041  133.0604  155.7944 H   0  0  0  0  0  0  0  0  0  0  0  0
  145.9545  131.6159  154.9936 H   0  0  0  0  0  0  0  0  0  0  0  0
  1  2  2  0  0  0  0
  2  3  1  0  0  0  0
  2 13  1  0  0  0  0
  3  4  1  0  0  0  0
  3 25  1  0  0  0  0
  4 12  1  0  0  0  0
  4  5  2  0  0  0  0
  5  6  1  0  0  0  0
  5 26  1  0  0  0  0
  6  7  2  0  0  0  0
  7  8  1  0  0  0  0
  7 11  1  0  0  0  0
  8 10  1  0  0  0  0
  8  9  1  0  0  0  0
  8 27  1  0  0  0  0
  9 10  1  0  0  0  0
  9 28  1  0  0  0  0
  9 29  1  0  0  0  0
 10 30  1  0  0  0  0
 10 31  1  0  0  0  0
 11 12  2  0  0  0  0
 12 32  1  0  0  0  0
 13 14  1  0  0  0  0
 13 33  1  0  0  0  0
 14 20  1  0  0  0  0
 14 15  1  0  0  0  0
 14 34  1  0  0  0  0
 15 19  1  0  0  0  0
 15 16  1  0  0  0  0
 15 35  1  0  0  0  0
 16 17  1  0  0  0  0
 16 36  1  0  0  0  0
 16 37  1  0  0  0  0
 17 18  1  0  0  0  0
 17 38  1  0  0  0  0
 17 39  1  0  0  0  0
 18 19  1  0  0  0  0
 19 20  1  0  0  0  0
 19 40  1  0  0  0  0
 20 24  1  0  0  0  0
 20 21  1  0  0  0  0
 21 22  1  0  0  0  0
 21 41  1  0  0  0  0
 21 42  1  0  0  0  0
 22 23  1  0  0  0  0
 22 43  1  0  0  0  0
 22 44  1  0  0  0  0
 23 24  1  0  0  0  0
 23 45  1  0  0  0  0
 23 46  1  0  0  0  0
 24 47  1  0  0  0  0
 24 48  1  0  0  0  0
M  END
> <s_m_source_file>
AV-unprocessed.smi

> <i_m_source_file_index>
2505

> <i_lp_mmshare_version>
43012

> <i_f3d_flags>
0

> <s_epik_input>
W0NIMl0xW0NIMl1bQ0hdMWMobltjSF0yKW5bY0hdYzJbTkhdQyg9TylbTkhdW0NAQEhdM1tDQEBIXShbQ0gyXVtDSDJdTzQpW0NASF00QzM1W0NIMl1bQ0gyXVtDSDJdW0NIMl01

> <s_epik_cmdline>
J2VwaWtfcHl0aG9uJywgJy1waCcsICc3LjAnLCAnLXRuJywgJzgnLCAnLW1hJywgJzIwMCcsICctbWV0YWxfYmluZGluZycsICctaW1hZScsICc8aW5maWxlLm1hZT4nLCAnLW9tYWUnLCAnPG91dGZpbGUubWFlPic=

> <r_lp_tautomer_probability>
1

> <r_epik_Ionization_Penalty>
2.6075e-05

> <r_epik_Ionization_Penalty_Charging>
0

> <r_epik_Ionization_Penalty_Neutral>
2.6075e-05

> <r_epik_State_Penalty>
-0

> <r_epik_Charging_Adjusted_Penalty>
0

> <i_epik_Tot_Q>
0

> <i_epik_Tot_abs_Q>
0

> <r_epik_Metal_State_Penalty>
-0

> <b_epik_Metal_Only>
0

> <s_lp_Force_Field>
OPLS_2005

> <r_lp_Energy>
84.9225

> <b_lp_Chiralities_Consistent>
1

> <s_lp_Variant>
AV-unprocessed.smi:2505-8

> <Gold.Version>
5.8.1

> <Gold.Id.Protein>
6NUR|6NUR_protein|mol2

> <Gold.PLP.Fitness>
42.6046

> <Gold.PLP.PLP>
-31.0075

> <Gold.PLP.part.hbond>
-2.9526

> <Gold.PLP.part.metal>
0.0000

> <Gold.PLP.part.buried>
-3.3467

> <Gold.PLP.part.nonpolar>
-25.4528

> <Gold.PLP.part.repulsive>
0.2304

> <Gold.PLP.ligand.clash>
0.0000

> <Gold.PLP.ligand.torsion>
0.2664

> <Gold.PLP.Chemscore.Hbond>
2.9600

> <Gold.PLP.Chemscore.CHOScore>
0.9496

> <Gold.PLP.Chemscore.Metal>
0.0000

> <Gold.Chemscore.Hbonds>
donor molecule, donor type, donor heavy atom, donor atom, acceptor molecule, acceptor atom, score
      L1  H     3    25       P1  7948  0.96
      L1  H    13    33       P1  7948  1.00
      P1  H  7989  7998       L1    11  1.00
      L1  C    12    32       P1  7957  0.84

> <Gold.PLP.Chemscore.Internal.Correction>
0.4013

> <Gold.Rescore>
     Score         DG    S(hbond)    S(metal)    S(lipo)     H(rot)  DE(clash)    DE(int)     intcor
     18.50     -20.01       2.65        0.00      74.21       1.17       0.06       1.45       ----

> <Gold.Chemscore.Fitness>
18.5025

> <Gold.Chemscore.DG>
-20.0086

> <Gold.Chemscore.ZeroCoef>
-5.4800

> <Gold.Chemscore.Hbond>
2.6504

> <Gold.Chemscore.Metal>
0.0000

> <Gold.Chemscore.Lipo>
74.2120

> <Gold.Chemscore.Internal_Hbond>
0.0000

> <Gold.Chemscore.DEClash>
0.0581

> <Gold.Chemscore.DEInternal>
1.4480

> <Gold.Chemscore.Rot>
1.1744

> <Gold.Chemscore.Internal.Correction>
   9.000000E+99

> <Gold.Chemscore.Hbonds>
donor molecule, donor type, donor heavy atom, donor atom, acceptor molecule, acceptor atom, score
      L1  H     3    25       P1  7948  0.92
      L1  H    13    33       P1  7948  0.96
      P1  H  7989  7998       L1    11  0.25

> <Gold.Chemscore.Hbond.Weighted>
-8.8522

> <Gold.Chemscore.Metal.Weighted>
-0.0000

> <Gold.Chemscore.Lipo.Weighted>
-8.6828

> <Gold.Chemscore.Internal_Hbond.Weighted>
0.0000

> <Gold.Chemscore.DEClash.Weighted>
0.0581

> <Gold.Chemscore.DEInternal.Weighted>
1.4480

> <Gold.Chemscore.Rot.Weighted>
3.0064

> <Gold.Chemscore.Internal.Correction.Weighted>
   9.000000E+99

> <Gold.Protein.RotatedTorsions>
[ 6907 6896 6895 6894 ] final   93.31 input  -60.11 | X-H torsion
[ 7974 7965 7964 7962 ] final   50.79 input  175.53 | X-H torsion
[ 8008 7997 7996 7995 ] final  172.42 input   59.86 | X-H torsion
[ 10167 10162 10161 10158 ] final  121.40 input  -65.29 | X-H torsion
[ 10718 10713 10712 10709 ] final -175.60 input   66.30 | X-H torsion
[ 10763 10752 10751 10750 ] final -141.67 input  -60.55 | X-H torsion
[ 11005 11000 10999 10996 ] final   -6.10 input  -57.11 | X-H torsion

> <Gold.Protein.ActiveResidues>
 VAL166  LYS551  ARG553  GLY616  TRP617  ASP618  TYR619  PRO620  LYS621  CYS622 
 ASP623  PHE694  ASN695  SER759  ASP760  ASP761  ALA762  ILE779  LEU786  VAL792 
 PHE793  MET794  SER795  GLU796  ALA797  LYS798  CYS799  TRP800  GLU811  SER814 

> <Gold.Protein.RotatedAtoms>
  152.5452  134.1367  159.8461 H   0  0  0  0  0  0  0  0  0  0  0  0  # atno 6907 bound_to 6896
  151.1407  133.4966  159.2604 H   0  0  0  0  0  0  0  0  0  0  0  0  # atno 6908 bound_to 6896
  151.1576  135.0268  159.8750 H   0  0  0  0  0  0  0  0  0  0  0  0  # atno 6909 bound_to 6896
  145.9977  139.4406  143.0034 H   0  0  0  0  0  0  0  0  0  0  0  0  # atno 7974 bound_to 7965
  156.1176  140.1486  156.9251 H   0  0  0  0  0  0  0  0  0  0  0  0  # atno 8008 bound_to 7997
  154.4812  140.0879  156.7423 H   0  0  0  0  0  0  0  0  0  0  0  0  # atno 8009 bound_to 7997
  155.4486  140.3434  155.4300 H   0  0  0  0  0  0  0  0  0  0  0  0  # atno 8010 bound_to 7997
  139.5922  144.7029  151.3263 H   0  0  0  0  0  0  0  0  0  0  0  0  # atno 10167 bound_to 10162
  156.8023  130.9557  151.3118 H   0  0  0  0  0  0  0  0  0  0  0  0  # atno 10718 bound_to 10713
  154.8537  135.3518  154.5905 H   0  0  0  0  0  0  0  0  0  0  0  0  # atno 10763 bound_to 10752
  153.6514  135.6994  153.5212 H   0  0  0  0  0  0  0  0  0  0  0  0  # atno 10764 bound_to 10752
  153.2891  135.4240  155.1108 H   0  0  0  0  0  0  0  0  0  0  0  0  # atno 10765 bound_to 10752
  140.6983  133.9012  155.8665 H   0  0  0  0  0  0  0  0  0  0  0  0  # atno 11005 bound_to 11000
  145.7534  140.9963  143.1238 LP  0  0  0  0  0  0  0  0  0  0  0  0  # atno 17320 bound_to 7965
  144.6909  139.9242  143.7469 LP  0  0  0  0  0  0  0  0  0  0  0  0  # atno 17321 bound_to 7965
  140.7182  143.7208  150.7697 LP  0  0  0  0  0  0  0  0  0  0  0  0  # atno 17342 bound_to 10162
  140.0766  143.5009  152.2552 LP  0  0  0  0  0  0  0  0  0  0  0  0  # atno 17343 bound_to 10162
  157.6547  130.8914  149.9705 LP  0  0  0  0  0  0  0  0  0  0  0  0  # atno 17370 bound_to 10713
  156.1093  130.3651  150.0077 LP  0  0  0  0  0  0  0  0  0  0  0  0  # atno 17371 bound_to 10713
  141.0185  134.0922  157.4146 LP  0  0  0  0  0  0  0  0  0  0  0  0  # atno 17394 bound_to 11000
  139.8904  135.0111  156.6733 LP  0  0  0  0  0  0  0  0  0  0  0  0  # atno 17395 bound_to 11000

$$$$
