AV-unprocessed.smi:1976|AV-procd|sdf|7989|dock2
  -GOLD-   2272010173D 1   1.00000     0.00000
 Structure written by MMmdl.
 45 47  0  0  0  0  0  0  0  0  2 V2000
  155.1718  136.6609  156.1260 O   0  0  0  0  0  0  0  0  0  0  0  0
  156.0992  136.9872  156.8682 C   0  0  0  0  0  0  0  0  0  0  0  0
  157.4220  137.5234  156.3023 C   0  0  0  0  0  0  0  0  0  0  0  0
  157.5305  137.3979  154.8390 N   0  0  0  0  0  0  0  0  0  0  0  0
  158.4758  136.4761  154.3479 C   0  0  0  0  0  0  0  0  0  0  0  0
  158.6820  136.2676  153.0335 C   0  0  0  0  0  0  0  0  0  0  0  0
  159.6665  135.2212  152.5350 C   0  0  0  0  0  0  0  0  0  0  0  0
  160.8970  135.4660  152.9863 F   0  0  0  0  0  0  0  0  0  0  0  0
  159.2996  134.0140  152.9635 F   0  0  0  0  0  0  0  0  0  0  0  0
  159.7069  135.1937  151.2022 F   0  0  0  0  0  0  0  0  0  0  0  0
  157.8481  137.0260  152.1217 C   0  0  0  0  0  0  0  0  0  0  0  0
  156.9297  137.9017  152.5751 C   0  0  0  0  0  0  0  0  0  0  0  0
  156.7297  138.1300  154.0080 C   0  0  0  0  0  0  0  0  0  0  0  0
  155.8931  138.9262  154.4346 O   0  0  0  0  0  0  0  0  0  0  0  0
  156.0345  136.8891  158.2049 N   0  0  0  0  0  0  0  0  0  0  0  0
  154.8785  136.4104  158.9610 C   0  0  2  0  0  0  0  0  0  0  0  0
  153.6560  137.3405  158.8430 C   0  0  0  0  0  0  0  0  0  0  0  0
  153.0506  137.3651  160.2502 C   0  0  0  0  0  0  0  0  0  0  0  0
  154.2296  137.2443  161.1155 N   0  3  1  0  0  0  0  0  0  0  0  0
  154.0272  136.9868  162.5555 C   0  0  0  0  0  0  0  0  0  0  0  0
  155.3940  137.0937  163.2658 C   0  0  0  0  0  0  0  0  0  0  0  0
  156.4694  136.2030  162.6030 C   0  0  0  0  0  0  0  0  0  0  0  0
  156.5402  136.4278  161.0769 C   0  0  0  0  0  0  0  0  0  0  0  0
  155.1296  136.2651  160.4816 C   0  0  2  0  0  0  0  0  0  0  0  0
  157.5389  138.5637  156.6109 H   0  0  0  0  0  0  0  0  0  0  0  0
  158.2452  136.9914  156.7820 H   0  0  0  0  0  0  0  0  0  0  0  0
  159.0184  135.9400  155.1131 H   0  0  0  0  0  0  0  0  0  0  0  0
  157.9631  136.8926  151.0560 H   0  0  0  0  0  0  0  0  0  0  0  0
  156.3269  138.4507  151.8664 H   0  0  0  0  0  0  0  0  0  0  0  0
  156.8417  137.1792  158.7380 H   0  0  0  0  0  0  0  0  0  0  0  0
  154.5882  135.4331  158.5698 H   0  0  0  0  0  0  0  0  0  0  0  0
  153.9722  138.3492  158.5718 H   0  0  0  0  0  0  0  0  0  0  0  0
  152.9436  137.0055  158.0882 H   0  0  0  0  0  0  0  0  0  0  0  0
  152.4877  138.2772  160.4509 H   0  0  0  0  0  0  0  0  0  0  0  0
  152.3915  136.5084  160.4009 H   0  0  0  0  0  0  0  0  0  0  0  0
  153.3309  137.7184  162.9670 H   0  0  0  0  0  0  0  0  0  0  0  0
  153.5862  135.9999  162.7033 H   0  0  0  0  0  0  0  0  0  0  0  0
  155.7287  138.1316  163.2400 H   0  0  0  0  0  0  0  0  0  0  0  0
  155.2897  136.8331  164.3194 H   0  0  0  0  0  0  0  0  0  0  0  0
  157.4434  136.3909  163.0554 H   0  0  0  0  0  0  0  0  0  0  0  0
  156.2378  135.1555  162.8008 H   0  0  0  0  0  0  0  0  0  0  0  0
  156.9329  137.4225  160.8618 H   0  0  0  0  0  0  0  0  0  0  0  0
  157.2305  135.7091  160.6343 H   0  0  0  0  0  0  0  0  0  0  0  0
  154.7699  135.2698  160.7520 H   0  0  0  0  0  0  0  0  0  0  0  0
  154.6993  138.1361  161.0501 H   0  0  0  0  0  0  0  0  0  0  0  0
  1  2  2  0  0  0  0
  2  3  1  0  0  0  0
  2 15  1  0  0  0  0
  3  4  1  0  0  0  0
  3 25  1  0  0  0  0
  3 26  1  0  0  0  0
  4 13  1  0  0  0  0
  4  5  1  0  0  0  0
  5  6  2  0  0  0  0
  5 27  1  0  0  0  0
  6  7  1  0  0  0  0
  6 11  1  0  0  0  0
  7  8  1  0  0  0  0
  7  9  1  0  0  0  0
  7 10  1  0  0  0  0
 11 12  2  0  0  0  0
 11 28  1  0  0  0  0
 12 13  1  0  0  0  0
 12 29  1  0  0  0  0
 13 14  2  0  0  0  0
 15 16  1  0  0  0  0
 15 30  1  0  0  0  0
 16 24  1  0  0  0  0
 16 17  1  0  0  0  0
 16 31  1  0  0  0  0
 17 18  1  0  0  0  0
 17 32  1  0  0  0  0
 17 33  1  0  0  0  0
 18 19  1  0  0  0  0
 18 34  1  0  0  0  0
 18 35  1  0  0  0  0
 19 24  1  0  0  0  0
 19 20  1  0  0  0  0
 19 45  1  0  0  0  0
 20 21  1  0  0  0  0
 20 36  1  0  0  0  0
 20 37  1  0  0  0  0
 21 22  1  0  0  0  0
 21 38  1  0  0  0  0
 21 39  1  0  0  0  0
 22 23  1  0  0  0  0
 22 40  1  0  0  0  0
 22 41  1  0  0  0  0
 23 24  1  0  0  0  0
 23 42  1  0  0  0  0
 23 43  1  0  0  0  0
 24 44  1  0  0  0  0
M  CHG  1  19   1
M  END
> <s_m_source_file>
AV-unprocessed.smi

> <i_m_source_file_index>
1976

> <i_lp_mmshare_version>
43012

> <i_f3d_flags>
0

> <s_epik_input>
W0NIMl0xW0NIMl1bQ0gyXVtDSDJdW0NASF0oTjEyKVtDQEBIXShbQ0gyXVtDSDJdMilbTkhdQyg9TylbQ0gyXW4zW2NIXWMoQyhGKShGKUYpW2NIXVtjSF1jMz1P

> <s_epik_cmdline>
J2VwaWtfcHl0aG9uJywgJy1waCcsICc3LjAnLCAnLXRuJywgJzgnLCAnLW1hJywgJzIwMCcsICctbWV0YWxfYmluZGluZycsICctaW1hZScsICc8aW5maWxlLm1hZT4nLCAnLW9tYWUnLCAnPG91dGZpbGUubWFlPic=

> <r_lp_tautomer_probability>
1

> <r_epik_Ionization_Penalty>
0.00171506

> <r_epik_Ionization_Penalty_Charging>
0.00171498

> <r_epik_Ionization_Penalty_Neutral>
7.81737e-08

> <r_epik_State_Penalty>
0.00115937

> <r_epik_Charging_Adjusted_Penalty>
0.00287436

> <i_epik_Tot_Q>
1

> <i_epik_Tot_abs_Q>
1

> <r_epik_Metal_State_Penalty>
-0

> <b_epik_Metal_Only>
0

> <s_lp_Force_Field>
OPLS_2005

> <r_lp_Energy>
53.4145

> <b_lp_Chiralities_Consistent>
1

> <s_lp_Variant>
AV-unprocessed.smi:1976-7

> <Gold.Version>
5.8.1

> <Gold.Id.Protein>
6NUR|6NUR_protein|mol2

> <Gold.PLP.Fitness>
42.3975

> <Gold.PLP.PLP>
-38.4815

> <Gold.PLP.part.hbond>
-2.0000

> <Gold.PLP.part.metal>
0.0000

> <Gold.PLP.part.buried>
-5.0061

> <Gold.PLP.part.nonpolar>
-31.7293

> <Gold.PLP.part.repulsive>
0.1163

> <Gold.PLP.ligand.clash>
0.0000

> <Gold.PLP.ligand.torsion>
0.2219

> <Gold.PLP.Chemscore.Hbond>
1.4400

> <Gold.PLP.Chemscore.CHOScore>
0.0000

> <Gold.PLP.Chemscore.Metal>
0.0000

> <Gold.Chemscore.Hbonds>
donor molecule, donor type, donor heavy atom, donor atom, acceptor molecule, acceptor atom, score
      P1  H  7997  8008       L1    14  0.72
      P1  H 10752 10763       L1     1  0.74

> <Gold.PLP.Chemscore.Internal.Correction>
0.0398

> <Gold.Rescore>
     Score         DG    S(hbond)    S(metal)    S(lipo)     H(rot)  DE(clash)    DE(int)     intcor
     17.34     -17.71       1.55        0.00      94.90       1.58       0.04       0.33       ----

> <Gold.Chemscore.Fitness>
17.3407

> <Gold.Chemscore.DG>
-17.7096

> <Gold.Chemscore.ZeroCoef>
-5.4800

> <Gold.Chemscore.Hbond>
1.5506

> <Gold.Chemscore.Metal>
0.0000

> <Gold.Chemscore.Lipo>
94.8967

> <Gold.Chemscore.Internal_Hbond>
0.0000

> <Gold.Chemscore.DEClash>
0.0427

> <Gold.Chemscore.DEInternal>
0.3263

> <Gold.Chemscore.Rot>
1.5830

> <Gold.Chemscore.Internal.Correction>
   9.000000E+99

> <Gold.Chemscore.Hbonds>
donor molecule, donor type, donor heavy atom, donor atom, acceptor molecule, acceptor atom, score
      P1  H  7997  8008       L1    14  0.72
      P1  H 10752 10763       L1     1  0.74

> <Gold.Chemscore.Hbond.Weighted>
-5.1791

> <Gold.Chemscore.Metal.Weighted>
-0.0000

> <Gold.Chemscore.Lipo.Weighted>
-11.1029

> <Gold.Chemscore.Internal_Hbond.Weighted>
0.0000

> <Gold.Chemscore.DEClash.Weighted>
0.0427

> <Gold.Chemscore.DEInternal.Weighted>
0.3263

> <Gold.Chemscore.Rot.Weighted>
4.0524

> <Gold.Chemscore.Internal.Correction.Weighted>
   9.000000E+99

> <Gold.Protein.RotatedTorsions>
[ 6907 6896 6895 6894 ] final  116.76 input  -60.11 | X-H torsion
[ 7974 7965 7964 7962 ] final  -54.27 input  175.53 | X-H torsion
[ 8008 7997 7996 7995 ] final   55.15 input   59.86 | X-H torsion
[ 10167 10162 10161 10158 ] final   68.93 input  -65.29 | X-H torsion
[ 10718 10713 10712 10709 ] final   99.26 input   66.30 | X-H torsion
[ 10763 10752 10751 10750 ] final  174.72 input  -60.55 | X-H torsion
[ 11005 11000 10999 10996 ] final  -33.97 input  -57.11 | X-H torsion

> <Gold.Protein.ActiveResidues>
 VAL166  LYS551  ARG553  GLY616  TRP617  ASP618  TYR619  PRO620  LYS621  CYS622 
 ASP623  PHE694  ASN695  SER759  ASP760  ASP761  ALA762  ILE779  LEU786  VAL792 
 PHE793  MET794  SER795  GLU796  ALA797  LYS798  CYS799  TRP800  GLU811  SER814 

> <Gold.Protein.RotatedAtoms>
  152.4657  133.7917  159.6905 H   0  0  0  0  0  0  0  0  0  0  0  0  # atno 6907 bound_to 6896
  150.8620  133.7620  159.2995 H   0  0  0  0  0  0  0  0  0  0  0  0  # atno 6908 bound_to 6896
  151.5182  135.1070  159.9923 H   0  0  0  0  0  0  0  0  0  0  0  0  # atno 6909 bound_to 6896
  145.8874  140.8097  142.9808 H   0  0  0  0  0  0  0  0  0  0  0  0  # atno 7974 bound_to 7965
  155.4964  140.3473  155.4363 H   0  0  0  0  0  0  0  0  0  0  0  0  # atno 8008 bound_to 7997
  156.0943  140.1419  156.9579 H   0  0  0  0  0  0  0  0  0  0  0  0  # atno 8009 bound_to 7997
  154.4654  140.0919  156.6983 H   0  0  0  0  0  0  0  0  0  0  0  0  # atno 8010 bound_to 7997
  140.0733  144.5133  150.7212 H   0  0  0  0  0  0  0  0  0  0  0  0  # atno 10167 bound_to 10162
  157.6879  131.0664  150.4921 H   0  0  0  0  0  0  0  0  0  0  0  0  # atno 10718 bound_to 10713
  154.4578  135.2766  155.1735 H   0  0  0  0  0  0  0  0  0  0  0  0  # atno 10763 bound_to 10752
  154.3536  135.6144  153.5658 H   0  0  0  0  0  0  0  0  0  0  0  0  # atno 10764 bound_to 10752
  152.9852  135.5817  154.4934 H   0  0  0  0  0  0  0  0  0  0  0  0  # atno 10765 bound_to 10752
  140.9679  133.7126  156.1475 H   0  0  0  0  0  0  0  0  0  0  0  0  # atno 11005 bound_to 11000
  144.6729  140.1477  143.7432 LP  0  0  0  0  0  0  0  0  0  0  0  0  # atno 17320 bound_to 7965
  145.8949  139.2397  143.1527 LP  0  0  0  0  0  0  0  0  0  0  0  0  # atno 17321 bound_to 7965
  140.7114  143.2508  151.4568 LP  0  0  0  0  0  0  0  0  0  0  0  0  # atno 17342 bound_to 10162
  139.5823  144.1683  152.1983 LP  0  0  0  0  0  0  0  0  0  0  0  0  # atno 17343 bound_to 10162
  156.5247  130.4170  149.6232 LP  0  0  0  0  0  0  0  0  0  0  0  0  # atno 17370 bound_to 10713
  156.3123  130.7235  151.2130 LP  0  0  0  0  0  0  0  0  0  0  0  0  # atno 17371 bound_to 10713
  140.7373  134.4189  157.5559 LP  0  0  0  0  0  0  0  0  0  0  0  0  # atno 17394 bound_to 11000
  139.8901  134.8813  156.2387 LP  0  0  0  0  0  0  0  0  0  0  0  0  # atno 17395 bound_to 11000

$$$$
