AV-unprocessed.smi:1197|AV-procd|sdf|5009|dock5
  -GOLD-   22720 4 23D 1   1.00000     0.00000
 Structure written by MMmdl.
 41 42  0  0  0  0  0  0  0  0  2 V2000
  135.8437  139.0640  154.0724 C   0  0  0  0  0  0  0  0  0  0  0  0
  136.6246  137.9093  154.3599 O   0  0  0  0  0  0  0  0  0  0  0  0
  137.9578  137.9148  154.0048 C   0  0  0  0  0  0  0  0  0  0  0  0
  138.7119  136.7405  154.1987 C   0  0  0  0  0  0  0  0  0  0  0  0
  140.0733  136.7378  153.8396 C   0  0  0  0  0  0  0  0  0  0  0  0
  140.6414  137.9175  153.3027 C   0  0  0  0  0  0  0  0  0  0  0  0
  141.9943  138.0318  152.8833 N   0  0  0  0  0  0  0  0  0  0  0  0
  142.9481  137.0851  152.8828 C   0  0  0  0  0  0  0  0  0  0  0  0
  142.8068  135.9354  153.2988 O   0  0  0  0  0  0  0  0  0  0  0  0
  144.1000  137.5577  152.3853 N   0  0  0  0  0  0  0  0  0  0  0  0
  145.3404  136.7998  152.2565 C   0  0  0  0  0  0  0  0  0  0  0  0
  145.6523  136.5247  150.7764 C   0  0  0  0  0  0  0  0  0  0  0  0
  145.5041  135.0891  150.4283 N   0  3  0  0  0  0  0  0  0  0  0  0
  146.5183  134.2348  151.0912 C   0  0  0  0  0  0  0  0  0  0  0  0
  146.3552  132.7681  150.6565 C   0  0  0  0  0  0  0  0  0  0  0  0
  145.0361  132.3260  150.9503 O   0  0  0  0  0  0  0  0  0  0  0  0
  144.0535  133.0818  150.2535 C   0  0  0  0  0  0  0  0  0  0  0  0
  144.1408  134.5576  150.6772 C   0  0  0  0  0  0  0  0  0  0  0  0
  139.7973  139.0345  153.1342 C   0  0  0  0  0  0  0  0  0  0  0  0
  138.4921  139.0445  153.4779 N   0  0  0  0  0  0  0  0  0  0  0  0
  134.8188  138.8974  154.4031 H   0  0  0  0  0  0  0  0  0  0  0  0
  135.8158  139.2713  153.0018 H   0  0  0  0  0  0  0  0  0  0  0  0
  136.2222  139.9419  154.5980 H   0  0  0  0  0  0  0  0  0  0  0  0
  138.2528  135.8542  154.6110 H   0  0  0  0  0  0  0  0  0  0  0  0
  140.6461  135.8323  153.9680 H   0  0  0  0  0  0  0  0  0  0  0  0
  142.2822  138.9569  152.5993 H   0  0  0  0  0  0  0  0  0  0  0  0
  144.1187  138.5162  152.0688 H   0  0  0  0  0  0  0  0  0  0  0  0
  146.1687  137.3290  152.7277 H   0  0  0  0  0  0  0  0  0  0  0  0
  145.2243  135.8594  152.7960 H   0  0  0  0  0  0  0  0  0  0  0  0
  144.9621  137.1134  150.1701 H   0  0  0  0  0  0  0  0  0  0  0  0
  146.6564  136.8665  150.5191 H   0  0  0  0  0  0  0  0  0  0  0  0
  147.5201  134.5814  150.8352 H   0  0  0  0  0  0  0  0  0  0  0  0
  146.4164  134.3180  152.1744 H   0  0  0  0  0  0  0  0  0  0  0  0
  146.5631  132.6510  149.5917 H   0  0  0  0  0  0  0  0  0  0  0  0
  147.0659  132.1369  151.1904 H   0  0  0  0  0  0  0  0  0  0  0  0
  144.1906  132.9769  149.1761 H   0  0  0  0  0  0  0  0  0  0  0  0
  143.0672  132.6815  150.4892 H   0  0  0  0  0  0  0  0  0  0  0  0
  143.8976  134.6533  151.7367 H   0  0  0  0  0  0  0  0  0  0  0  0
  143.3975  135.1333  150.1272 H   0  0  0  0  0  0  0  0  0  0  0  0
  140.1811  139.9527  152.7139 H   0  0  0  0  0  0  0  0  0  0  0  0
  145.6766  135.0123  149.4359 H   0  0  0  0  0  0  0  0  0  0  0  0
  1  2  1  0  0  0  0
  1 21  1  0  0  0  0
  1 22  1  0  0  0  0
  1 23  1  0  0  0  0
  2  3  1  0  0  0  0
  3 20  1  0  0  0  0
  3  4  2  0  0  0  0
  4  5  1  0  0  0  0
  4 24  1  0  0  0  0
  5  6  2  0  0  0  0
  5 25  1  0  0  0  0
  6  7  1  0  0  0  0
  6 19  1  0  0  0  0
  7  8  1  0  0  0  0
  7 26  1  0  0  0  0
  8  9  2  0  0  0  0
  8 10  1  0  0  0  0
 10 11  1  0  0  0  0
 10 27  1  0  0  0  0
 11 12  1  0  0  0  0
 11 28  1  0  0  0  0
 11 29  1  0  0  0  0
 12 13  1  0  0  0  0
 12 30  1  0  0  0  0
 12 31  1  0  0  0  0
 13 18  1  0  0  0  0
 13 14  1  0  0  0  0
 13 41  1  0  0  0  0
 14 15  1  0  0  0  0
 14 32  1  0  0  0  0
 14 33  1  0  0  0  0
 15 16  1  0  0  0  0
 15 34  1  0  0  0  0
 15 35  1  0  0  0  0
 16 17  1  0  0  0  0
 17 18  1  0  0  0  0
 17 36  1  0  0  0  0
 17 37  1  0  0  0  0
 18 38  1  0  0  0  0
 18 39  1  0  0  0  0
 19 20  2  0  0  0  0
 19 40  1  0  0  0  0
M  CHG  1  13   1
M  END
> <s_m_source_file>
AV-unprocessed.smi

> <i_m_source_file_index>
1197

> <i_lp_mmshare_version>
43012

> <i_f3d_flags>
0

> <s_epik_input>
W0NIM11PYzFbY0hdW2NIXWMoW2NIXW4xKVtOSF1DKD1PKVtOSF1bQ0gyXVtDSDJdTjJbQ0gyXVtDSDJdT1tDSDJdW0NIMl0y

> <s_epik_cmdline>
J2VwaWtfcHl0aG9uJywgJy1waCcsICc3LjAnLCAnLXRuJywgJzgnLCAnLW1hJywgJzIwMCcsICctbWV0YWxfYmluZGluZycsICctaW1hZScsICc8aW5maWxlLm1hZT4nLCAnLW9tYWUnLCAnPG91dGZpbGUubWFlPic=

> <r_lp_tautomer_probability>
1

> <r_epik_Ionization_Penalty>
0.602607

> <r_epik_Ionization_Penalty_Charging>
0.602531

> <r_epik_Ionization_Penalty_Neutral>
7.65795e-05

> <r_epik_State_Penalty>
0.617039

> <r_epik_Charging_Adjusted_Penalty>
1.21957

> <i_epik_Tot_Q>
1

> <i_epik_Tot_abs_Q>
1

> <r_epik_Metal_State_Penalty>
0.617043

> <b_epik_Metal_Only>
0

> <s_lp_Force_Field>
OPLS_2005

> <r_lp_Energy>
19.492

> <b_lp_Chiralities_Consistent>
1

> <s_lp_Variant>
AV-unprocessed.smi:1197-2

> <Gold.Version>
5.8.1

> <Gold.Id.Protein>
6NUR|6NUR_protein|mol2

> <Gold.PLP.Fitness>
45.4572

> <Gold.PLP.PLP>
-34.5036

> <Gold.PLP.part.hbond>
-4.0000

> <Gold.PLP.part.metal>
0.0000

> <Gold.PLP.part.buried>
-3.0284

> <Gold.PLP.part.nonpolar>
-28.1550

> <Gold.PLP.part.repulsive>
0.4617

> <Gold.PLP.ligand.clash>
0.0000

> <Gold.PLP.ligand.torsion>
0.4322

> <Gold.PLP.Chemscore.Hbond>
2.9280

> <Gold.PLP.Chemscore.CHOScore>
1.0000

> <Gold.PLP.Chemscore.Metal>
0.0000

> <Gold.Chemscore.Hbonds>
donor molecule, donor type, donor heavy atom, donor atom, acceptor molecule, acceptor atom, score
      L1  H     7    26       P1 10175  1.00
      L1  H    10    27       P1 10175  0.96
      L1  H    13    41       P1  7921  1.00
      L1  C    19    40       P1 10160  0.81

> <Gold.PLP.Chemscore.Internal.Correction>
0.0341

> <Gold.Rescore>
     Score         DG    S(hbond)    S(metal)    S(lipo)     H(rot)  DE(clash)    DE(int)     intcor
     16.17     -19.21       2.80        0.00      77.46       1.83       1.37       1.68       ----

> <Gold.Chemscore.Fitness>
16.1653

> <Gold.Chemscore.DG>
-19.2147

> <Gold.Chemscore.ZeroCoef>
-5.4800

> <Gold.Chemscore.Hbond>
2.7981

> <Gold.Chemscore.Metal>
0.0000

> <Gold.Chemscore.Lipo>
77.4645

> <Gold.Chemscore.Internal_Hbond>
0.0000

> <Gold.Chemscore.DEClash>
1.3663

> <Gold.Chemscore.DEInternal>
1.6831

> <Gold.Chemscore.Rot>
1.8260

> <Gold.Chemscore.Internal.Correction>
   9.000000E+99

> <Gold.Chemscore.Hbonds>
donor molecule, donor type, donor heavy atom, donor atom, acceptor molecule, acceptor atom, score
      L1  H     7    26       P1 10175  0.91
      L1  H    10    27       P1 10175  0.88
      L1  H    13    41       P1  7921  0.98

> <Gold.Chemscore.Hbond.Weighted>
-9.3457

> <Gold.Chemscore.Metal.Weighted>
-0.0000

> <Gold.Chemscore.Lipo.Weighted>
-9.0634

> <Gold.Chemscore.Internal_Hbond.Weighted>
0.0000

> <Gold.Chemscore.DEClash.Weighted>
1.3663

> <Gold.Chemscore.DEInternal.Weighted>
1.6831

> <Gold.Chemscore.Rot.Weighted>
4.6744

> <Gold.Chemscore.Internal.Correction.Weighted>
   9.000000E+99

> <Gold.Protein.RotatedTorsions>
[ 6907 6896 6895 6894 ] final   82.47 input  -60.11 | X-H torsion
[ 7974 7965 7964 7962 ] final -149.50 input  175.53 | X-H torsion
[ 8008 7997 7996 7995 ] final  154.62 input   59.86 | X-H torsion
[ 10167 10162 10161 10158 ] final  -78.72 input  -65.29 | X-H torsion
[ 10718 10713 10712 10709 ] final  155.53 input   66.30 | X-H torsion
[ 10763 10752 10751 10750 ] final  -68.42 input  -60.55 | X-H torsion
[ 11005 11000 10999 10996 ] final  124.78 input  -57.11 | X-H torsion

> <Gold.Protein.ActiveResidues>
 VAL166  LYS551  ARG553  GLY616  TRP617  ASP618  TYR619  PRO620  LYS621  CYS622 
 ASP623  PHE694  ASN695  SER759  ASP760  ASP761  ALA762  ILE779  LEU786  VAL792 
 PHE793  MET794  SER795  GLU796  ALA797  LYS798  CYS799  TRP800  GLU811  SER814 

> <Gold.Protein.RotatedAtoms>
  152.5300  134.3045  159.9090 H   0  0  0  0  0  0  0  0  0  0  0  0  # atno 6907 bound_to 6896
  151.2996  133.4122  159.2646 H   0  0  0  0  0  0  0  0  0  0  0  0  # atno 6908 bound_to 6896
  151.0131  134.9428  159.8075 H   0  0  0  0  0  0  0  0  0  0  0  0  # atno 6909 bound_to 6896
  144.7963  140.5056  143.5737 H   0  0  0  0  0  0  0  0  0  0  0  0  # atno 7974 bound_to 7965
  156.2521  140.1961  156.6675 H   0  0  0  0  0  0  0  0  0  0  0  0  # atno 8008 bound_to 7997
  154.6418  140.0582  156.9880 H   0  0  0  0  0  0  0  0  0  0  0  0  # atno 8009 bound_to 7997
  155.1551  140.3255  155.4425 H   0  0  0  0  0  0  0  0  0  0  0  0  # atno 8010 bound_to 7997
  140.4657  143.2440  151.8281 H   0  0  0  0  0  0  0  0  0  0  0  0  # atno 10167 bound_to 10162
  157.2172  131.0710  151.1934 H   0  0  0  0  0  0  0  0  0  0  0  0  # atno 10718 bound_to 10713
  154.3887  135.6057  153.5831 H   0  0  0  0  0  0  0  0  0  0  0  0  # atno 10763 bound_to 10752
  152.9787  135.5878  154.4323 H   0  0  0  0  0  0  0  0  0  0  0  0  # atno 10764 bound_to 10752
  154.4104  135.2844  155.2018 H   0  0  0  0  0  0  0  0  0  0  0  0  # atno 10765 bound_to 10752
  139.9375  134.9638  156.8461 H   0  0  0  0  0  0  0  0  0  0  0  0  # atno 11005 bound_to 11000
  145.5664  139.1481  143.3312 LP  0  0  0  0  0  0  0  0  0  0  0  0  # atno 17320 bound_to 7965
  146.2232  140.5799  142.9008 LP  0  0  0  0  0  0  0  0  0  0  0  0  # atno 17321 bound_to 7965
  139.4812  144.4953  151.9132 LP  0  0  0  0  0  0  0  0  0  0  0  0  # atno 17342 bound_to 10162
  140.4038  144.2458  150.5891 LP  0  0  0  0  0  0  0  0  0  0  0  0  # atno 17343 bound_to 10162
  157.3613  130.7133  149.6503 LP  0  0  0  0  0  0  0  0  0  0  0  0  # atno 17370 bound_to 10713
  155.9685  130.4225  150.4517 LP  0  0  0  0  0  0  0  0  0  0  0  0  # atno 17371 bound_to 10713
  140.6037  134.0147  155.7548 LP  0  0  0  0  0  0  0  0  0  0  0  0  # atno 17394 bound_to 11000
  141.0995  133.9790  157.3103 LP  0  0  0  0  0  0  0  0  0  0  0  0  # atno 17395 bound_to 11000

$$$$
