AV-unprocessed.smi:1749|AV-procd|sdf|7044|dock2
  -GOLD-   22720 8263D 1   1.00000     0.00000
 Structure written by MMmdl.
 32 33  0  0  0  0  0  0  0  0  1 V2000
  143.9828  144.3391  155.7997 C   0  0  0  0  0  0  0  0  0  0  0  0
  145.2945  143.5977  155.5066 C   0  0  2  0  0  0  0  0  0  0  0  0
  145.3958  143.1975  154.0221 C   0  0  0  0  0  0  0  0  0  0  0  0
  146.7059  142.4510  153.7246 C   0  0  0  0  0  0  0  0  0  0  0  0
  146.8693  141.2212  154.6348 C   0  0  0  0  0  0  0  0  0  0  0  0
  146.7624  141.5861  156.1279 C   0  0  1  0  0  0  0  0  0  0  0  0
  147.9290  142.3636  156.5384 N   0  0  0  0  0  0  0  0  0  0  0  0
  148.7639  142.0654  157.5470 C   0  0  0  0  0  0  0  0  0  0  0  0
  148.6618  141.0388  158.2162 O   0  0  0  0  0  0  0  0  0  0  0  0
  149.7433  142.9620  157.7893 N   0  0  0  0  0  0  0  0  0  0  0  0
  150.7868  142.9727  158.7605 C   0  0  0  0  0  0  0  0  0  0  0  0
  151.0248  141.9758  159.6292 N   0  0  0  0  0  0  0  0  0  0  0  0
  152.1173  142.2408  160.4433 N   0  0  0  0  0  0  0  0  0  0  0  0
  152.6714  143.4201  160.1497 C   0  0  0  0  0  0  0  0  0  0  0  0
  151.9110  144.3218  158.8500 S   0  0  0  0  0  0  0  0  0  0  0  0
  145.4553  142.3576  156.4114 C   0  0  0  0  0  0  0  0  0  0  0  0
  143.1168  143.7070  155.6017 H   0  0  0  0  0  0  0  0  0  0  0  0
  143.8910  145.2331  155.1825 H   0  0  0  0  0  0  0  0  0  0  0  0
  143.9347  144.6534  156.8426 H   0  0  0  0  0  0  0  0  0  0  0  0
  146.1111  144.2875  155.7250 H   0  0  0  0  0  0  0  0  0  0  0  0
  144.5491  142.5648  153.7522 H   0  0  0  0  0  0  0  0  0  0  0  0
  145.3309  144.0848  153.3914 H   0  0  0  0  0  0  0  0  0  0  0  0
  146.7259  142.1420  152.6794 H   0  0  0  0  0  0  0  0  0  0  0  0
  147.5510  143.1272  153.8601 H   0  0  0  0  0  0  0  0  0  0  0  0
  146.0954  140.4929  154.3894 H   0  0  0  0  0  0  0  0  0  0  0  0
  147.8222  140.7303  154.4325 H   0  0  0  0  0  0  0  0  0  0  0  0
  146.7525  140.6566  156.6999 H   0  0  0  0  0  0  0  0  0  0  0  0
  148.0923  143.2254  156.0375 H   0  0  0  0  0  0  0  0  0  0  0  0
  149.7857  143.7230  157.1273 H   0  0  0  0  0  0  0  0  0  0  0  0
  153.5362  143.7603  160.6999 H   0  0  0  0  0  0  0  0  0  0  0  0
  145.4140  142.6517  157.4611 H   0  0  0  0  0  0  0  0  0  0  0  0
  144.6088  141.6874  156.2554 H   0  0  0  0  0  0  0  0  0  0  0  0
  1  2  1  0  0  0  0
  1 17  1  0  0  0  0
  1 18  1  0  0  0  0
  1 19  1  0  0  0  0
  2 16  1  0  0  0  0
  2  3  1  0  0  0  0
  2 20  1  0  0  0  0
  3  4  1  0  0  0  0
  3 21  1  0  0  0  0
  3 22  1  0  0  0  0
  4  5  1  0  0  0  0
  4 23  1  0  0  0  0
  4 24  1  0  0  0  0
  5  6  1  0  0  0  0
  5 25  1  0  0  0  0
  5 26  1  0  0  0  0
  6  7  1  0  0  0  0
  6 16  1  0  0  0  0
  6 27  1  0  0  0  0
  7  8  1  0  0  0  0
  7 28  1  0  0  0  0
  8  9  2  0  0  0  0
  8 10  1  0  0  0  0
 10 11  1  0  0  0  0
 10 29  1  0  0  0  0
 11 15  1  0  0  0  0
 11 12  2  0  0  0  0
 12 13  1  0  0  0  0
 13 14  2  0  0  0  0
 14 15  1  0  0  0  0
 14 30  1  0  0  0  0
 16 31  1  0  0  0  0
 16 32  1  0  0  0  0
M  END
> <s_m_source_file>
AV-unprocessed.smi

> <i_m_source_file_index>
1749

> <i_lp_mmshare_version>
43012

> <i_f3d_flags>
0

> <s_epik_input>
W0NIM11bQ0BASF0xW0NIMl1bQ0gyXVtDSDJdW0NASF0oW0NIMl0xKVtOSF1DKD1PKVtOSF1jMm5uW2NIXXMy

> <s_epik_cmdline>
J2VwaWtfcHl0aG9uJywgJy1waCcsICc3LjAnLCAnLXRuJywgJzgnLCAnLW1hJywgJzIwMCcsICctbWV0YWxfYmluZGluZycsICctaW1hZScsICc8aW5maWxlLm1hZT4nLCAnLW9tYWUnLCAnPG91dGZpbGUubWFlPic=

> <r_lp_tautomer_probability>
1

> <r_epik_Ionization_Penalty>
0.000318591

> <r_epik_Ionization_Penalty_Charging>
0

> <r_epik_Ionization_Penalty_Neutral>
0.000318591

> <r_epik_State_Penalty>
-0

> <r_epik_Charging_Adjusted_Penalty>
0

> <i_epik_Tot_Q>
0

> <i_epik_Tot_abs_Q>
0

> <r_epik_Metal_State_Penalty>
0.169791

> <b_epik_Metal_Only>
0

> <s_lp_Force_Field>
OPLS_2005

> <r_lp_Energy>
10.2552

> <b_lp_Chiralities_Consistent>
1

> <s_lp_Variant>
AV-unprocessed.smi:1749-1

> <Gold.Version>
5.8.1

> <Gold.Id.Protein>
6NUR|6NUR_protein|mol2

> <Gold.PLP.Fitness>
34.9051

> <Gold.PLP.PLP>
-29.0041

> <Gold.PLP.part.hbond>
-3.0041

> <Gold.PLP.part.metal>
0.0000

> <Gold.PLP.part.buried>
-5.7621

> <Gold.PLP.part.nonpolar>
-20.7632

> <Gold.PLP.part.repulsive>
0.0747

> <Gold.PLP.ligand.clash>
0.0000

> <Gold.PLP.ligand.torsion>
0.0403

> <Gold.PLP.Chemscore.Hbond>
1.9920

> <Gold.PLP.Chemscore.CHOScore>
0.0000

> <Gold.PLP.Chemscore.Metal>
0.0000

> <Gold.Chemscore.Hbonds>
donor molecule, donor type, donor heavy atom, donor atom, acceptor molecule, acceptor atom, score
      L1  H     7    28       P1  8028  1.00
      L1  H    10    29       P1  8028  0.96

> <Gold.PLP.Chemscore.Internal.Correction>
0.0056

> <Gold.Rescore>
     Score         DG    S(hbond)    S(metal)    S(lipo)     H(rot)  DE(clash)    DE(int)     intcor
     13.47     -14.83       1.68        0.00      53.82       1.00       0.03       1.33       ----

> <Gold.Chemscore.Fitness>
13.4738

> <Gold.Chemscore.DG>
-14.8321

> <Gold.Chemscore.ZeroCoef>
-5.4800

> <Gold.Chemscore.Hbond>
1.6810

> <Gold.Chemscore.Metal>
0.0000

> <Gold.Chemscore.Lipo>
53.8244

> <Gold.Chemscore.Internal_Hbond>
0.0000

> <Gold.Chemscore.DEClash>
0.0308

> <Gold.Chemscore.DEInternal>
1.3275

> <Gold.Chemscore.Rot>
1.0000

> <Gold.Chemscore.Internal.Correction>
   9.000000E+99

> <Gold.Chemscore.Hbonds>
donor molecule, donor type, donor heavy atom, donor atom, acceptor molecule, acceptor atom, score
      L1  H     7    28       P1  8028  0.50
      L1  H    10    29       P1  8028  0.82

> <Gold.Chemscore.Hbond.Weighted>
-5.6146

> <Gold.Chemscore.Metal.Weighted>
-0.0000

> <Gold.Chemscore.Lipo.Weighted>
-6.2975

> <Gold.Chemscore.Internal_Hbond.Weighted>
0.0000

> <Gold.Chemscore.DEClash.Weighted>
0.0308

> <Gold.Chemscore.DEInternal.Weighted>
1.3275

> <Gold.Chemscore.Rot.Weighted>
2.5600

> <Gold.Chemscore.Internal.Correction.Weighted>
   9.000000E+99

> <Gold.Protein.RotatedTorsions>
[ 6907 6896 6895 6894 ] final  -72.58 input  -60.11 | X-H torsion
[ 7974 7965 7964 7962 ] final   36.04 input  175.53 | X-H torsion
[ 8008 7997 7996 7995 ] final  153.03 input   59.86 | X-H torsion
[ 10167 10162 10161 10158 ] final  -17.92 input  -65.29 | X-H torsion
[ 10718 10713 10712 10709 ] final  -82.13 input   66.30 | X-H torsion
[ 10763 10752 10751 10750 ] final    0.24 input  -60.55 | X-H torsion
[ 11005 11000 10999 10996 ] final  -63.76 input  -57.11 | X-H torsion

> <Gold.Protein.ActiveResidues>
 VAL166  LYS551  ARG553  GLY616  TRP617  ASP618  TYR619  PRO620  LYS621  CYS622 
 ASP623  PHE694  ASN695  SER759  ASP760  ASP761  ALA762  ILE779  LEU786  VAL792 
 PHE793  MET794  SER795  GLU796  ALA797  LYS798  CYS799  TRP800  GLU811  SER814 

> <Gold.Protein.RotatedAtoms>
  150.7164  134.5142  159.5621 H   0  0  0  0  0  0  0  0  0  0  0  0  # atno 6907 bound_to 6896
  152.2711  134.7928  160.0423 H   0  0  0  0  0  0  0  0  0  0  0  0  # atno 6908 bound_to 6896
  151.8608  133.3421  159.3740 H   0  0  0  0  0  0  0  0  0  0  0  0  # atno 6909 bound_to 6896
  146.1240  139.6067  142.9271 H   0  0  0  0  0  0  0  0  0  0  0  0  # atno 7974 bound_to 7965
  156.2601  140.2005  156.6426 H   0  0  0  0  0  0  0  0  0  0  0  0  # atno 8008 bound_to 7997
  154.6598  140.0562  157.0074 H   0  0  0  0  0  0  0  0  0  0  0  0  # atno 8009 bound_to 7997
  155.1294  140.3232  155.4480 H   0  0  0  0  0  0  0  0  0  0  0  0  # atno 8010 bound_to 7997
  140.7253  143.4968  150.9921 H   0  0  0  0  0  0  0  0  0  0  0  0  # atno 10167 bound_to 10162
  156.0038  130.4625  150.4059 H   0  0  0  0  0  0  0  0  0  0  0  0  # atno 10718 bound_to 10713
  153.3232  135.6970  153.7012 H   0  0  0  0  0  0  0  0  0  0  0  0  # atno 10763 bound_to 10752
  153.5844  135.3492  155.2888 H   0  0  0  0  0  0  0  0  0  0  0  0  # atno 10764 bound_to 10752
  154.8602  135.4303  154.2402 H   0  0  0  0  0  0  0  0  0  0  0  0  # atno 10765 bound_to 10752
  141.1403  133.6656  156.5729 H   0  0  0  0  0  0  0  0  0  0  0  0  # atno 11005 bound_to 11000
  145.5406  141.0421  143.2333 LP  0  0  0  0  0  0  0  0  0  0  0  0  # atno 17320 bound_to 7965
  144.7624  139.6925  143.7229 LP  0  0  0  0  0  0  0  0  0  0  0  0  # atno 17321 bound_to 7965
  139.8675  143.7235  152.3169 LP  0  0  0  0  0  0  0  0  0  0  0  0  # atno 17342 bound_to 10162
  139.7472  144.7544  151.0561 LP  0  0  0  0  0  0  0  0  0  0  0  0  # atno 17343 bound_to 10162
  157.2125  131.0463  151.2591 LP  0  0  0  0  0  0  0  0  0  0  0  0  # atno 17370 bound_to 10713
  157.3876  130.7264  149.6674 LP  0  0  0  0  0  0  0  0  0  0  0  0  # atno 17371 bound_to 10713
  140.3898  134.7450  157.4714 LP  0  0  0  0  0  0  0  0  0  0  0  0  # atno 17394 bound_to 11000
  140.0575  134.6043  155.8788 LP  0  0  0  0  0  0  0  0  0  0  0  0  # atno 17395 bound_to 11000

$$$$
