AV-unprocessed.smi:467|AV-procd|sdf|2646|dock1
  -GOLD-   2262023 53D 1   1.00000     0.00000
 Structure written by MMmdl.
 45 47  0  0  0  0  0  0  0  0  2 V2000
  151.8171  144.4843  158.9153 C   0  0  0  0  0  0  0  0  0  0  0  0
  152.4737  143.3325  159.6558 C   0  0  0  0  0  0  0  0  0  0  0  0
  152.8701  142.1863  158.9306 C   0  0  0  0  0  0  0  0  0  0  0  0
  153.4812  141.0927  159.5820 C   0  0  0  0  0  0  0  0  0  0  0  0
  153.9391  139.8878  159.0768 N   0  0  0  0  0  0  0  0  0  0  0  0
  154.3977  139.2939  160.1744 C   0  0  0  0  0  0  0  0  0  0  0  0
  154.2956  139.9738  161.3327 N   0  0  0  0  0  0  0  0  0  0  0  0
  154.7253  139.5289  162.6468 C   0  0  0  0  0  0  0  0  0  0  0  0
  155.3037  138.1009  162.6287 C   0  0  1  0  0  0  0  0  0  0  0  0
  156.6345  138.1248  163.1108 O   0  0  0  0  0  0  0  0  0  0  0  0
  154.4770  137.1384  163.5037 C   0  0  0  0  0  0  0  0  0  0  0  0
  154.9206  135.7272  163.3704 N   0  3  0  0  0  0  0  0  0  0  0  0
  154.2859  134.8347  164.3693 C   0  0  0  0  0  0  0  0  0  0  0  0
  154.8225  133.4003  164.2276 C   0  0  0  0  0  0  0  0  0  0  0  0
  154.5974  132.9353  162.9027 O   0  0  0  0  0  0  0  0  0  0  0  0
  155.2741  133.7311  161.9378 C   0  0  0  0  0  0  0  0  0  0  0  0
  154.7511  135.1763  162.0026 C   0  0  0  0  0  0  0  0  0  0  0  0
  153.6887  141.1780  160.9901 C   0  0  0  0  0  0  0  0  0  0  0  0
  153.3015  142.3148  161.7219 C   0  0  0  0  0  0  0  0  0  0  0  0
  152.6903  143.3977  161.0556 C   0  0  0  0  0  0  0  0  0  0  0  0
  152.2717  144.6190  161.8552 C   0  0  0  0  0  0  0  0  0  0  0  0
  151.6822  144.2531  157.8583 H   0  0  0  0  0  0  0  0  0  0  0  0
  152.4311  145.3825  158.9863 H   0  0  0  0  0  0  0  0  0  0  0  0
  150.8353  144.7009  159.3370 H   0  0  0  0  0  0  0  0  0  0  0  0
  152.7061  142.1367  157.8641 H   0  0  0  0  0  0  0  0  0  0  0  0
  154.8355  138.3072  160.1348 H   0  0  0  0  0  0  0  0  0  0  0  0
  155.4614  140.2349  163.0332 H   0  0  0  0  0  0  0  0  0  0  0  0
  153.8671  139.5783  163.3184 H   0  0  0  0  0  0  0  0  0  0  0  0
  155.3246  137.7506  161.5971 H   0  0  0  0  0  0  0  0  0  0  0  0
  156.7534  137.4043  163.7112 H   0  0  0  0  0  0  0  0  0  0  0  0
  154.5619  137.4563  164.5442 H   0  0  0  0  0  0  0  0  0  0  0  0
  153.4168  137.2055  163.2540 H   0  0  0  0  0  0  0  0  0  0  0  0
  154.4881  135.2020  165.3763 H   0  0  0  0  0  0  0  0  0  0  0  0
  153.2031  134.8447  164.2343 H   0  0  0  0  0  0  0  0  0  0  0  0
  155.8864  133.3555  164.4663 H   0  0  0  0  0  0  0  0  0  0  0  0
  154.3115  132.7377  164.9264 H   0  0  0  0  0  0  0  0  0  0  0  0
  156.3511  133.6979  162.1098 H   0  0  0  0  0  0  0  0  0  0  0  0
  155.0971  133.3113  160.9473 H   0  0  0  0  0  0  0  0  0  0  0  0
  153.6962  135.2003  161.7244 H   0  0  0  0  0  0  0  0  0  0  0  0
  155.2861  135.7852  161.2746 H   0  0  0  0  0  0  0  0  0  0  0  0
  153.4715  142.3537  162.7875 H   0  0  0  0  0  0  0  0  0  0  0  0
  152.5327  144.5141  162.9086 H   0  0  0  0  0  0  0  0  0  0  0  0
  151.1932  144.7649  161.7903 H   0  0  0  0  0  0  0  0  0  0  0  0
  152.7661  145.5134  161.4757 H   0  0  0  0  0  0  0  0  0  0  0  0
  155.9105  135.7201  163.5734 H   0  0  0  0  0  0  0  0  0  0  0  0
  1  2  1  0  0  0  0
  1 22  1  0  0  0  0
  1 23  1  0  0  0  0
  1 24  1  0  0  0  0
  2 20  1  0  0  0  0
  2  3  2  0  0  0  0
  3  4  1  0  0  0  0
  3 25  1  0  0  0  0
  4 18  2  0  0  0  0
  4  5  1  0  0  0  0
  5  6  2  0  0  0  0
  6  7  1  0  0  0  0
  6 26  1  0  0  0  0
  7  8  1  0  0  0  0
  7 18  1  0  0  0  0
  8  9  1  0  0  0  0
  8 27  1  0  0  0  0
  8 28  1  0  0  0  0
  9 10  1  0  0  0  0
  9 11  1  0  0  0  0
  9 29  1  0  0  0  0
 10 30  1  0  0  0  0
 11 12  1  0  0  0  0
 11 31  1  0  0  0  0
 11 32  1  0  0  0  0
 12 17  1  0  0  0  0
 12 13  1  0  0  0  0
 12 45  1  0  0  0  0
 13 14  1  0  0  0  0
 13 33  1  0  0  0  0
 13 34  1  0  0  0  0
 14 15  1  0  0  0  0
 14 35  1  0  0  0  0
 14 36  1  0  0  0  0
 15 16  1  0  0  0  0
 16 17  1  0  0  0  0
 16 37  1  0  0  0  0
 16 38  1  0  0  0  0
 17 39  1  0  0  0  0
 17 40  1  0  0  0  0
 18 19  1  0  0  0  0
 19 20  2  0  0  0  0
 19 41  1  0  0  0  0
 20 21  1  0  0  0  0
 21 42  1  0  0  0  0
 21 43  1  0  0  0  0
 21 44  1  0  0  0  0
M  CHG  1  12   1
M  END
> <s_m_source_file>
AV-unprocessed.smi

> <i_m_source_file_index>
467

> <i_lp_mmshare_version>
43012

> <i_f3d_flags>
0

> <s_epik_input>
W0NIM11jKFtjSF0xKWMoW0NIM10pW2NIXWMoYzEyKW4oW2NIXW4yKVtDSDJdW0NASF0oW09IXSlbQ0gyXU4zW0NIMl1bQ0gyXU9bQ0gyXVtDSDJdMw==

> <s_epik_cmdline>
J2VwaWtfcHl0aG9uJywgJy1waCcsICc3LjAnLCAnLXRuJywgJzgnLCAnLW1hJywgJzIwMCcsICctbWV0YWxfYmluZGluZycsICctaW1hZScsICc8aW5maWxlLm1hZT4nLCAnLW9tYWUnLCAnPG91dGZpbGUubWFlPic=

> <r_epik_Ionization_Penalty>
0.695168

> <r_epik_Ionization_Penalty_Charging>
0.608065

> <r_epik_Ionization_Penalty_Neutral>
0.0871028

> <r_epik_State_Penalty>
0.731876

> <r_epik_Charging_Adjusted_Penalty>
1.33994

> <i_epik_Tot_Q>
1

> <i_epik_Tot_abs_Q>
1

> <r_epik_Metal_State_Penalty>
0.652189

> <b_epik_Metal_Only>
0

> <s_lp_Force_Field>
OPLS_2005

> <r_lp_Energy>
21.2169

> <b_lp_Chiralities_Consistent>
1

> <s_lp_Variant>
AV-unprocessed.smi:467-4

> <Gold.Version>
5.8.1

> <Gold.Id.Protein>
6NUR|6NUR_protein|mol2

> <Gold.PLP.Fitness>
44.5202

> <Gold.PLP.PLP>
-43.0866

> <Gold.PLP.part.hbond>
-1.0000

> <Gold.PLP.part.metal>
0.0000

> <Gold.PLP.part.buried>
-2.4170

> <Gold.PLP.part.nonpolar>
-38.6405

> <Gold.PLP.part.repulsive>
0.0000

> <Gold.PLP.ligand.clash>
0.0000

> <Gold.PLP.ligand.torsion>
0.8005

> <Gold.PLP.Chemscore.Hbond>
1.0000

> <Gold.PLP.Chemscore.CHOScore>
0.0000

> <Gold.PLP.Chemscore.Metal>
0.0000

> <Gold.Chemscore.Hbonds>
donor molecule, donor type, donor heavy atom, donor atom, acceptor molecule, acceptor atom, score
      P1  H  7997  8009       L1     5  0.94

> <Gold.PLP.Chemscore.Internal.Correction>
0.0346

> <Gold.Rescore>
     Score         DG    S(hbond)    S(metal)    S(lipo)     H(rot)  DE(clash)    DE(int)     intcor
     17.37     -18.60       0.89        0.00     132.81       2.10       0.42       0.82       ----

> <Gold.Chemscore.Fitness>
17.3655

> <Gold.Chemscore.DG>
-18.6022

> <Gold.Chemscore.ZeroCoef>
-5.4800

> <Gold.Chemscore.Hbond>
0.8871

> <Gold.Chemscore.Metal>
0.0000

> <Gold.Chemscore.Lipo>
132.8064

> <Gold.Chemscore.Internal_Hbond>
0.0000

> <Gold.Chemscore.DEClash>
0.4213

> <Gold.Chemscore.DEInternal>
0.8154

> <Gold.Chemscore.Rot>
2.1011

> <Gold.Chemscore.Internal.Correction>
   9.000000E+99

> <Gold.Chemscore.Hbonds>
donor molecule, donor type, donor heavy atom, donor atom, acceptor molecule, acceptor atom, score
      P1  H  7997  8009       L1     5  0.78

> <Gold.Chemscore.Hbond.Weighted>
-2.9628

> <Gold.Chemscore.Metal.Weighted>
-0.0000

> <Gold.Chemscore.Lipo.Weighted>
-15.5383

> <Gold.Chemscore.Internal_Hbond.Weighted>
0.0000

> <Gold.Chemscore.DEClash.Weighted>
0.4213

> <Gold.Chemscore.DEInternal.Weighted>
0.8154

> <Gold.Chemscore.Rot.Weighted>
5.3789

> <Gold.Chemscore.Internal.Correction.Weighted>
   9.000000E+99

> <Gold.Protein.RotatedTorsions>
[ 6907 6896 6895 6894 ] final   22.04 input  -60.11 | X-H torsion
[ 7974 7965 7964 7962 ] final  -84.95 input  175.53 | X-H torsion
[ 8008 7997 7996 7995 ] final  132.70 input   59.86 | X-H torsion
[ 10167 10162 10161 10158 ] final   10.83 input  -65.29 | X-H torsion
[ 10718 10713 10712 10709 ] final  162.07 input   66.30 | X-H torsion
[ 10763 10752 10751 10750 ] final   81.92 input  -60.55 | X-H torsion
[ 11005 11000 10999 10996 ] final   -7.46 input  -57.11 | X-H torsion

> <Gold.Protein.ActiveResidues>
 VAL166  LYS551  ARG553  GLY616  TRP617  ASP618  TYR619  PRO620  LYS621  CYS622 
 ASP623  PHE694  ASN695  SER759  ASP760  ASP761  ALA762  ILE779  LEU786  VAL792 
 PHE793  MET794  SER795  GLU796  ALA797  LYS798  CYS799  TRP800  GLU811  SER814 

> <Gold.Protein.RotatedAtoms>
  151.9211  135.0298  160.0521 H   0  0  0  0  0  0  0  0  0  0  0  0  # atno 6907 bound_to 6896
  152.2199  133.4970  159.5165 H   0  0  0  0  0  0  0  0  0  0  0  0  # atno 6908 bound_to 6896
  150.6997  134.1273  159.4099 H   0  0  0  0  0  0  0  0  0  0  0  0  # atno 6909 bound_to 6896
  145.4997  140.9548  143.1766 H   0  0  0  0  0  0  0  0  0  0  0  0  # atno 7974 bound_to 7965
  156.2985  140.2540  156.3132 H   0  0  0  0  0  0  0  0  0  0  0  0  # atno 8008 bound_to 7997
  154.9306  140.0398  157.2065 H   0  0  0  0  0  0  0  0  0  0  0  0  # atno 8009 bound_to 7997
  154.8222  140.2862  155.5783 H   0  0  0  0  0  0  0  0  0  0  0  0  # atno 8010 bound_to 7997
  140.6170  143.8287  150.7130 H   0  0  0  0  0  0  0  0  0  0  0  0  # atno 10167 bound_to 10162
  157.1277  131.0508  151.2386 H   0  0  0  0  0  0  0  0  0  0  0  0  # atno 10718 bound_to 10713
  153.1158  135.4747  154.9112 H   0  0  0  0  0  0  0  0  0  0  0  0  # atno 10763 bound_to 10752
  154.7526  135.3110  154.8531 H   0  0  0  0  0  0  0  0  0  0  0  0  # atno 10764 bound_to 10752
  153.9108  135.6865  153.4804 H   0  0  0  0  0  0  0  0  0  0  0  0  # atno 10765 bound_to 10752
  140.7130  133.8893  155.8764 H   0  0  0  0  0  0  0  0  0  0  0  0  # atno 11005 bound_to 11000
  144.7787  139.6574  143.7164 LP  0  0  0  0  0  0  0  0  0  0  0  0  # atno 17320 bound_to 7965
  146.2233  139.5676  142.9604 LP  0  0  0  0  0  0  0  0  0  0  0  0  # atno 17321 bound_to 7965
  140.1869  143.4069  152.1892 LP  0  0  0  0  0  0  0  0  0  0  0  0  # atno 17342 bound_to 10162
  139.5406  144.7253  151.4745 LP  0  0  0  0  0  0  0  0  0  0  0  0  # atno 17343 bound_to 10162
  157.4420  130.7549  149.7077 LP  0  0  0  0  0  0  0  0  0  0  0  0  # atno 17370 bound_to 10713
  155.9814  130.4019  150.3471 LP  0  0  0  0  0  0  0  0  0  0  0  0  # atno 17371 bound_to 10713
  141.0068  134.1074  157.4262 LP  0  0  0  0  0  0  0  0  0  0  0  0  # atno 17394 bound_to 11000
  139.8867  135.0083  156.6514 LP  0  0  0  0  0  0  0  0  0  0  0  0  # atno 17395 bound_to 11000

$$$$
