AV-unprocessed.smi:1233|AV-procd|sdf|5171|dock7
  -GOLD-   22720 4243D 1   1.00000     0.00000
 Structure written by MMmdl.
 38 39  0  0  0  0  0  0  0  0  1 V2000
  151.1439  138.8874  154.9451 C   0  0  0  0  0  0  0  0  0  0  0  0
  149.8976  138.4887  154.3850 O   0  0  0  0  0  0  0  0  0  0  0  0
  148.8828  139.4231  154.3011 C   0  0  0  0  0  0  0  0  0  0  0  0
  149.1015  140.6609  154.8124 N   0  0  0  0  0  0  0  0  0  0  0  0
  148.1105  141.5727  154.7345 C   0  0  0  0  0  0  0  0  0  0  0  0
  146.8568  141.3005  154.1570 C   0  0  0  0  0  0  0  0  0  0  0  0
  146.6276  140.0176  153.6260 C   0  0  0  0  0  0  0  0  0  0  0  0
  147.6642  139.0550  153.6845 C   0  0  0  0  0  0  0  0  0  0  0  0
  147.5312  137.7265  153.1954 N   0  0  0  0  0  0  0  0  0  0  0  0
  146.4178  136.9811  153.0951 C   0  0  0  0  0  0  0  0  0  0  0  0
  145.2889  137.3379  153.4323 O   0  0  0  0  0  0  0  0  0  0  0  0
  146.6848  135.7848  152.5499 N   0  0  0  0  0  0  0  0  0  0  0  0
  145.6933  134.7563  152.2289 C   0  0  2  0  0  0  0  0  0  0  0  0
  146.4408  133.5429  151.6200 C   0  0  0  0  0  0  0  0  0  0  0  0
  145.5788  132.5207  150.8451 C   0  0  0  0  0  0  0  0  0  0  0  0
  144.2478  132.1368  151.5231 C   0  0  0  0  0  0  0  0  0  0  0  0
  143.2295  133.2827  151.7577 C   0  0  0  0  0  0  0  0  0  0  0  0
  143.5315  134.5290  151.0535 N   0  0  0  0  0  0  0  0  0  0  0  0
  144.6355  135.2748  151.2288 C   0  0  0  0  0  0  0  0  0  0  0  0
  144.8121  136.3166  150.5978 O   0  0  0  0  0  0  0  0  0  0  0  0
  151.8315  138.0417  154.9318 H   0  0  0  0  0  0  0  0  0  0  0  0
  151.0302  139.2053  155.9824 H   0  0  0  0  0  0  0  0  0  0  0  0
  151.6012  139.6940  154.3704 H   0  0  0  0  0  0  0  0  0  0  0  0
  148.3214  142.5463  155.1515 H   0  0  0  0  0  0  0  0  0  0  0  0
  146.0866  142.0569  154.1258 H   0  0  0  0  0  0  0  0  0  0  0  0
  145.6620  139.7934  153.1998 H   0  0  0  0  0  0  0  0  0  0  0  0
  148.3681  137.3304  152.7929 H   0  0  0  0  0  0  0  0  0  0  0  0
  147.6412  135.5826  152.2987 H   0  0  0  0  0  0  0  0  0  0  0  0
  145.2009  134.4510  153.1533 H   0  0  0  0  0  0  0  0  0  0  0  0
  147.2286  133.8892  150.9488 H   0  0  0  0  0  0  0  0  0  0  0  0
  146.9544  133.0221  152.4292 H   0  0  0  0  0  0  0  0  0  0  0  0
  145.3736  132.8992  149.8428 H   0  0  0  0  0  0  0  0  0  0  0  0
  146.1694  131.6177  150.6884 H   0  0  0  0  0  0  0  0  0  0  0  0
  143.7685  131.3783  150.9031 H   0  0  0  0  0  0  0  0  0  0  0  0
  144.4542  131.6434  152.4733 H   0  0  0  0  0  0  0  0  0  0  0  0
  142.2356  132.9539  151.4532 H   0  0  0  0  0  0  0  0  0  0  0  0
  143.1484  133.4958  152.8246 H   0  0  0  0  0  0  0  0  0  0  0  0
  142.8435  134.8569  150.3911 H   0  0  0  0  0  0  0  0  0  0  0  0
  1  2  1  0  0  0  0
  1 21  1  0  0  0  0
  1 22  1  0  0  0  0
  1 23  1  0  0  0  0
  2  3  1  0  0  0  0
  3  8  1  0  0  0  0
  3  4  2  0  0  0  0
  4  5  1  0  0  0  0
  5  6  2  0  0  0  0
  5 24  1  0  0  0  0
  6  7  1  0  0  0  0
  6 25  1  0  0  0  0
  7  8  2  0  0  0  0
  7 26  1  0  0  0  0
  8  9  1  0  0  0  0
  9 10  1  0  0  0  0
  9 27  1  0  0  0  0
 10 11  2  0  0  0  0
 10 12  1  0  0  0  0
 12 13  1  0  0  0  0
 12 28  1  0  0  0  0
 13 19  1  0  0  0  0
 13 14  1  0  0  0  0
 13 29  1  0  0  0  0
 14 15  1  0  0  0  0
 14 30  1  0  0  0  0
 14 31  1  0  0  0  0
 15 16  1  0  0  0  0
 15 32  1  0  0  0  0
 15 33  1  0  0  0  0
 16 17  1  0  0  0  0
 16 34  1  0  0  0  0
 16 35  1  0  0  0  0
 17 18  1  0  0  0  0
 17 36  1  0  0  0  0
 17 37  1  0  0  0  0
 18 19  1  0  0  0  0
 18 38  1  0  0  0  0
 19 20  2  0  0  0  0
M  END
> <s_m_source_file>
AV-unprocessed.smi

> <i_m_source_file_index>
1233

> <i_lp_mmshare_version>
43012

> <i_f3d_flags>
0

> <s_epik_input>
W0NIM11PYzFuW2NIXVtjSF1bY0hdYzFbTkhdQyg9TylbTkhdW0NAQEhdMltDSDJdW0NIMl1bQ0gyXVtDSDJdW05IXUMyPU8=

> <s_epik_cmdline>
J2VwaWtfcHl0aG9uJywgJy1waCcsICc3LjAnLCAnLXRuJywgJzgnLCAnLW1hJywgJzIwMCcsICctbWV0YWxfYmluZGluZycsICctaW1hZScsICc8aW5maWxlLm1hZT4nLCAnLW9tYWUnLCAnPG91dGZpbGUubWFlPic=

> <r_lp_tautomer_probability>
1

> <r_epik_Ionization_Penalty>
8.308e-05

> <r_epik_Ionization_Penalty_Charging>
0

> <r_epik_Ionization_Penalty_Neutral>
8.308e-05

> <r_epik_State_Penalty>
-0

> <r_epik_Charging_Adjusted_Penalty>
0

> <i_epik_Tot_Q>
0

> <i_epik_Tot_abs_Q>
0

> <r_epik_Metal_State_Penalty>
-0

> <b_epik_Metal_Only>
0

> <s_lp_Force_Field>
OPLS_2005

> <r_lp_Energy>
19.4298

> <b_lp_Chiralities_Consistent>
1

> <s_lp_Variant>
AV-unprocessed.smi:1233-1

> <Gold.Version>
5.8.1

> <Gold.Id.Protein>
6NUR|6NUR_protein|mol2

> <Gold.PLP.Fitness>
37.2963

> <Gold.PLP.PLP>
-26.8059

> <Gold.PLP.part.hbond>
-2.2407

> <Gold.PLP.part.metal>
0.0000

> <Gold.PLP.part.buried>
-1.6857

> <Gold.PLP.part.nonpolar>
-28.3313

> <Gold.PLP.part.repulsive>
4.1348

> <Gold.PLP.ligand.clash>
0.0000

> <Gold.PLP.ligand.torsion>
0.1874

> <Gold.PLP.Chemscore.Hbond>
2.6214

> <Gold.PLP.Chemscore.CHOScore>
1.0000

> <Gold.PLP.Chemscore.Metal>
0.0000

> <Gold.Chemscore.Hbonds>
donor molecule, donor type, donor heavy atom, donor atom, acceptor molecule, acceptor atom, score
      L1  H     9    27       P1  7948  0.93
      L1  H    12    28       P1  7948  0.82
      L1  H    18    38       P1 10186  0.79
      L1  C     5    24       P1  8028  1.00

> <Gold.PLP.Chemscore.Internal.Correction>
0.0011

> <Gold.Rescore>
     Score         DG    S(hbond)    S(metal)    S(lipo)     H(rot)  DE(clash)    DE(int)     intcor
     13.69     -16.83       2.16        0.00      63.97       1.31       1.91       1.22       ----

> <Gold.Chemscore.Fitness>
13.6892

> <Gold.Chemscore.DG>
-16.8283

> <Gold.Chemscore.ZeroCoef>
-5.4800

> <Gold.Chemscore.Hbond>
2.1603

> <Gold.Chemscore.Metal>
0.0000

> <Gold.Chemscore.Lipo>
63.9653

> <Gold.Chemscore.Internal_Hbond>
0.0000

> <Gold.Chemscore.DEClash>
1.9150

> <Gold.Chemscore.DEInternal>
1.2241

> <Gold.Chemscore.Rot>
1.3090

> <Gold.Chemscore.Internal.Correction>
   9.000000E+99

> <Gold.Chemscore.Hbonds>
donor molecule, donor type, donor heavy atom, donor atom, acceptor molecule, acceptor atom, score
      L1  H     9    27       P1  7948  0.86
      L1  H    12    28       P1  7948  0.77
      L1  H    18    38       P1 10186  0.17

> <Gold.Chemscore.Hbond.Weighted>
-7.2153

> <Gold.Chemscore.Metal.Weighted>
-0.0000

> <Gold.Chemscore.Lipo.Weighted>
-7.4839

> <Gold.Chemscore.Internal_Hbond.Weighted>
0.0000

> <Gold.Chemscore.DEClash.Weighted>
1.9150

> <Gold.Chemscore.DEInternal.Weighted>
1.2241

> <Gold.Chemscore.Rot.Weighted>
3.3509

> <Gold.Chemscore.Internal.Correction.Weighted>
   9.000000E+99

> <Gold.Protein.RotatedTorsions>
[ 6907 6896 6895 6894 ] final   92.77 input  -60.11 | X-H torsion
[ 7974 7965 7964 7962 ] final  -99.24 input  175.53 | X-H torsion
[ 8008 7997 7996 7995 ] final -149.05 input   59.86 | X-H torsion
[ 10167 10162 10161 10158 ] final  171.99 input  -65.29 | X-H torsion
[ 10718 10713 10712 10709 ] final -124.07 input   66.30 | X-H torsion
[ 10763 10752 10751 10750 ] final   45.44 input  -60.55 | X-H torsion
[ 11005 11000 10999 10996 ] final    2.63 input  -57.11 | X-H torsion

> <Gold.Protein.ActiveResidues>
 VAL166  LYS551  ARG553  GLY616  TRP617  ASP618  TYR619  PRO620  LYS621  CYS622 
 ASP623  PHE694  ASN695  SER759  ASP760  ASP761  ALA762  ILE779  LEU786  VAL792 
 PHE793  MET794  SER795  GLU796  ALA797  LYS798  CYS799  TRP800  GLU811  SER814 

> <Gold.Protein.RotatedAtoms>
  152.5453  134.1450  159.8494 H   0  0  0  0  0  0  0  0  0  0  0  0  # atno 6907 bound_to 6896
  151.1482  133.4918  159.2603 H   0  0  0  0  0  0  0  0  0  0  0  0  # atno 6908 bound_to 6896
  151.1500  135.0233  159.8719 H   0  0  0  0  0  0  0  0  0  0  0  0  # atno 6909 bound_to 6896
  145.3101  140.9398  143.2774 H   0  0  0  0  0  0  0  0  0  0  0  0  # atno 7974 bound_to 7965
  155.6015  140.0662  157.2731 H   0  0  0  0  0  0  0  0  0  0  0  0  # atno 8008 bound_to 7997
  154.4277  140.1817  156.1225 H   0  0  0  0  0  0  0  0  0  0  0  0  # atno 8009 bound_to 7997
  156.0156  140.3322  155.6989 H   0  0  0  0  0  0  0  0  0  0  0  0  # atno 8010 bound_to 7997
  139.5063  144.3424  152.0004 H   0  0  0  0  0  0  0  0  0  0  0  0  # atno 10167 bound_to 10162
  156.1556  130.6565  150.9976 H   0  0  0  0  0  0  0  0  0  0  0  0  # atno 10718 bound_to 10713
  152.9824  135.6039  154.3438 H   0  0  0  0  0  0  0  0  0  0  0  0  # atno 10763 bound_to 10752
  154.3132  135.2771  155.2557 H   0  0  0  0  0  0  0  0  0  0  0  0  # atno 10764 bound_to 10752
  154.4757  135.5930  153.6409 H   0  0  0  0  0  0  0  0  0  0  0  0  # atno 10765 bound_to 10752
  140.6022  133.9825  155.8137 H   0  0  0  0  0  0  0  0  0  0  0  0  # atno 11005 bound_to 11000
  144.9023  139.4634  143.6627 LP  0  0  0  0  0  0  0  0  0  0  0  0  # atno 17320 bound_to 7965
  146.3121  139.7783  142.9012 LP  0  0  0  0  0  0  0  0  0  0  0  0  # atno 17321 bound_to 7965
  140.2862  144.3804  150.6103 LP  0  0  0  0  0  0  0  0  0  0  0  0  # atno 17342 bound_to 10162
  140.5981  143.2167  151.7125 LP  0  0  0  0  0  0  0  0  0  0  0  0  # atno 17343 bound_to 10162
  157.6692  131.0865  150.7654 LP  0  0  0  0  0  0  0  0  0  0  0  0  # atno 17370 bound_to 10713
  156.7720  130.4832  149.5416 LP  0  0  0  0  0  0  0  0  0  0  0  0  # atno 17371 bound_to 10713
  141.0865  133.9983  157.3306 LP  0  0  0  0  0  0  0  0  0  0  0  0  # atno 17394 bound_to 11000
  139.9228  135.0201  156.8125 LP  0  0  0  0  0  0  0  0  0  0  0  0  # atno 17395 bound_to 11000

$$$$
