AV-unprocessed.smi:3112|AV-procd|sdf|11846|dock2
  -GOLD-   2272017223D 1   1.00000     0.00000
 Structure written by MMmdl.
 36 36  0  0  0  0  0  0  0  0  1 V2000
  147.0817  140.2587  154.2395 C   0  0  0  0  0  0  0  0  0  0  0  0
  147.8861  141.5648  154.1866 C   0  0  0  0  0  0  0  0  0  0  0  0
  149.3406  141.4486  154.6913 C   0  0  2  0  0  0  0  0  0  0  0  0
  149.8993  140.3113  154.0666 O   0  0  0  0  0  0  0  0  0  0  0  0
  149.4762  141.2446  156.2129 C   0  0  0  0  0  0  0  0  0  0  0  0
  150.7119  141.8330  156.7270 N   0  0  0  0  0  0  0  0  0  0  0  0
  151.2582  141.2260  157.9473 C   0  0  1  0  0  0  0  0  0  0  0  0
  151.6745  139.7588  157.7155 C   0  0  0  0  0  0  0  0  0  0  0  0
  152.4286  142.0747  158.5145 C   0  0  2  0  0  0  0  0  0  0  0  0
  153.2647  141.3280  159.5717 C   0  0  0  0  0  0  0  0  0  0  0  0
  152.0158  143.3961  158.9810 N   0  0  0  0  0  0  0  0  0  0  0  0
  151.2388  144.3247  158.3184 C   0  0  0  0  0  0  0  0  0  0  0  0
  151.0984  145.4059  159.1401 C   0  0  0  0  0  0  0  0  0  0  0  0
  151.8303  145.0419  160.3039 C   0  0  0  0  0  0  0  0  0  0  0  0
  152.3756  143.8407  160.2074 N   0  0  0  0  0  0  0  0  0  0  0  0
  146.0333  140.4428  154.0043 H   0  0  0  0  0  0  0  0  0  0  0  0
  147.1258  139.8066  155.2307 H   0  0  0  0  0  0  0  0  0  0  0  0
  147.4506  139.5308  153.5173 H   0  0  0  0  0  0  0  0  0  0  0  0
  147.8729  141.9572  153.1689 H   0  0  0  0  0  0  0  0  0  0  0  0
  147.3620  142.3004  154.7984 H   0  0  0  0  0  0  0  0  0  0  0  0
  149.9226  142.3138  154.3703 H   0  0  0  0  0  0  0  0  0  0  0  0
  149.2669  139.6099  154.0996 H   0  0  0  0  0  0  0  0  0  0  0  0
  148.6088  141.6608  156.7266 H   0  0  0  0  0  0  0  0  0  0  0  0
  149.4770  140.1741  156.4197 H   0  0  0  0  0  0  0  0  0  0  0  0
  151.4211  141.8424  156.0003 H   0  0  0  0  0  0  0  0  0  0  0  0
  150.4741  141.2232  158.7056 H   0  0  0  0  0  0  0  0  0  0  0  0
  152.1688  139.3508  158.5973 H   0  0  0  0  0  0  0  0  0  0  0  0
  152.3643  139.6623  156.8760 H   0  0  0  0  0  0  0  0  0  0  0  0
  150.8140  139.1211  157.5147 H   0  0  0  0  0  0  0  0  0  0  0  0
  153.1060  142.2533  157.6778 H   0  0  0  0  0  0  0  0  0  0  0  0
  153.6263  140.3763  159.1817 H   0  0  0  0  0  0  0  0  0  0  0  0
  152.6900  141.1176  160.4742 H   0  0  0  0  0  0  0  0  0  0  0  0
  154.1349  141.9154  159.8659 H   0  0  0  0  0  0  0  0  0  0  0  0
  150.8531  144.1404  157.3264 H   0  0  0  0  0  0  0  0  0  0  0  0
  150.5542  146.3171  158.9408 H   0  0  0  0  0  0  0  0  0  0  0  0
  151.9796  145.6096  161.2103 H   0  0  0  0  0  0  0  0  0  0  0  0
  1  2  1  0  0  0  0
  1 16  1  0  0  0  0
  1 17  1  0  0  0  0
  1 18  1  0  0  0  0
  2  3  1  0  0  0  0
  2 19  1  0  0  0  0
  2 20  1  0  0  0  0
  3  4  1  0  0  0  0
  3  5  1  0  0  0  0
  3 21  1  0  0  0  0
  4 22  1  0  0  0  0
  5  6  1  0  0  0  0
  5 23  1  0  0  0  0
  5 24  1  0  0  0  0
  6  7  1  0  0  0  0
  6 25  1  0  0  0  0
  7  8  1  0  0  0  0
  7  9  1  0  0  0  0
  7 26  1  0  0  0  0
  8 27  1  0  0  0  0
  8 28  1  0  0  0  0
  8 29  1  0  0  0  0
  9 10  1  0  0  0  0
  9 11  1  0  0  0  0
  9 30  1  0  0  0  0
 10 31  1  0  0  0  0
 10 32  1  0  0  0  0
 10 33  1  0  0  0  0
 11 15  1  0  0  0  0
 11 12  1  0  0  0  0
 12 13  2  0  0  0  0
 12 34  1  0  0  0  0
 13 14  1  0  0  0  0
 13 35  1  0  0  0  0
 14 15  2  0  0  0  0
 14 36  1  0  0  0  0
M  END
> <s_m_source_file>
AV-unprocessed.smi

> <i_m_source_file_index>
3112

> <i_lp_mmshare_version>
43012

> <i_f3d_flags>
0

> <s_epik_input>
W0NIM11bQ0gyXVtDQEhdKFtPSF0pW0NIMl1bTkhdW0NASF0oW0NIM10pW0NASF0oW0NIM10pbjFbY0hdW2NIXVtjSF1uMQ==

> <s_epik_cmdline>
J2VwaWtfcHl0aG9uJywgJy1waCcsICc3LjAnLCAnLXRuJywgJzgnLCAnLW1hJywgJzIwMCcsICctbWV0YWxfYmluZGluZycsICctaW1hZScsICc8aW5maWxlLm1hZT4nLCAnLW9tYWUnLCAnPG91dGZpbGUubWFlPic=

> <r_lp_tautomer_probability>
1

> <r_epik_Ionization_Penalty>
2.16876

> <r_epik_Ionization_Penalty_Charging>
0

> <r_epik_Ionization_Penalty_Neutral>
2.16876

> <r_epik_State_Penalty>
2.30854

> <r_epik_Charging_Adjusted_Penalty>
2.30854

> <i_epik_Tot_Q>
0

> <i_epik_Tot_abs_Q>
0

> <r_epik_Metal_State_Penalty>
2.3073

> <b_epik_Metal_Only>
0

> <s_lp_Force_Field>
OPLS_2005

> <r_lp_Energy>
15.2036

> <b_lp_Chiralities_Consistent>
1

> <s_lp_Variant>
AV-unprocessed.smi:3112-11

> <Gold.Version>
5.8.1

> <Gold.Id.Protein>
6NUR|6NUR_protein|mol2

> <Gold.PLP.Fitness>
39.1344

> <Gold.PLP.PLP>
-35.4743

> <Gold.PLP.part.hbond>
-2.0000

> <Gold.PLP.part.metal>
0.0000

> <Gold.PLP.part.buried>
-4.8538

> <Gold.PLP.part.nonpolar>
-28.7778

> <Gold.PLP.part.repulsive>
0.0277

> <Gold.PLP.ligand.clash>
0.0000

> <Gold.PLP.ligand.torsion>
0.9324

> <Gold.PLP.Chemscore.Hbond>
0.8320

> <Gold.PLP.Chemscore.CHOScore>
0.8913

> <Gold.PLP.Chemscore.Metal>
0.0000

> <Gold.Chemscore.Hbonds>
donor molecule, donor type, donor heavy atom, donor atom, acceptor molecule, acceptor atom, score
      P1  H  7989  7998       L1     4  0.80
      L1  C    12    34       P1  8028  0.79

> <Gold.PLP.Chemscore.Internal.Correction>
0.3551

> <Gold.Rescore>
     Score         DG    S(hbond)    S(metal)    S(lipo)     H(rot)  DE(clash)    DE(int)     intcor
     11.72     -12.67       0.74        0.00      90.90       2.31       0.00       0.95       ----

> <Gold.Chemscore.Fitness>
11.7218

> <Gold.Chemscore.DG>
-12.6718

> <Gold.Chemscore.ZeroCoef>
-5.4800

> <Gold.Chemscore.Hbond>
0.7402

> <Gold.Chemscore.Metal>
0.0000

> <Gold.Chemscore.Lipo>
90.9006

> <Gold.Chemscore.Internal_Hbond>
0.0000

> <Gold.Chemscore.DEClash>
0.0000

> <Gold.Chemscore.DEInternal>
0.9500

> <Gold.Chemscore.Rot>
2.3108

> <Gold.Chemscore.Internal.Correction>
   9.000000E+99

> <Gold.Chemscore.Hbonds>
donor molecule, donor type, donor heavy atom, donor atom, acceptor molecule, acceptor atom, score
      P1  H  7989  7998       L1     4  0.40

> <Gold.Chemscore.Hbond.Weighted>
-2.4721

> <Gold.Chemscore.Metal.Weighted>
-0.0000

> <Gold.Chemscore.Lipo.Weighted>
-10.6354

> <Gold.Chemscore.Internal_Hbond.Weighted>
0.0000

> <Gold.Chemscore.DEClash.Weighted>
0.0000

> <Gold.Chemscore.DEInternal.Weighted>
0.9500

> <Gold.Chemscore.Rot.Weighted>
5.9157

> <Gold.Chemscore.Internal.Correction.Weighted>
   9.000000E+99

> <Gold.Protein.RotatedTorsions>
[ 6907 6896 6895 6894 ] final -147.65 input  -60.11 | X-H torsion
[ 7974 7965 7964 7962 ] final   48.08 input  175.53 | X-H torsion
[ 8008 7997 7996 7995 ] final  157.40 input   59.86 | X-H torsion
[ 10167 10162 10161 10158 ] final   83.44 input  -65.29 | X-H torsion
[ 10718 10713 10712 10709 ] final -151.08 input   66.30 | X-H torsion
[ 10763 10752 10751 10750 ] final  -19.58 input  -60.55 | X-H torsion
[ 11005 11000 10999 10996 ] final  -26.17 input  -57.11 | X-H torsion

> <Gold.Protein.ActiveResidues>
 VAL166  LYS551  ARG553  GLY616  TRP617  ASP618  TYR619  PRO620  LYS621  CYS622 
 ASP623  PHE694  ASN695  SER759  ASP760  ASP761  ALA762  ILE779  LEU786  VAL792 
 PHE793  MET794  SER795  GLU796  ALA797  LYS798  CYS799  TRP800  GLU811  SER814 

> <Gold.Protein.RotatedAtoms>
  151.1586  133.4859  159.2594 H   0  0  0  0  0  0  0  0  0  0  0  0  # atno 6907 bound_to 6896
  151.1478  135.0211  159.8664 H   0  0  0  0  0  0  0  0  0  0  0  0  # atno 6908 bound_to 6896
  152.5463  134.1474  159.8557 H   0  0  0  0  0  0  0  0  0  0  0  0  # atno 6909 bound_to 6896
  146.0237  139.4681  142.9881 H   0  0  0  0  0  0  0  0  0  0  0  0  # atno 7974 bound_to 7965
  156.2366  140.1886  156.7102 H   0  0  0  0  0  0  0  0  0  0  0  0  # atno 8008 bound_to 7997
  154.6118  140.0621  156.9531 H   0  0  0  0  0  0  0  0  0  0  0  0  # atno 8009 bound_to 7997
  155.2004  140.3292  155.4347 H   0  0  0  0  0  0  0  0  0  0  0  0  # atno 8010 bound_to 7997
  139.9184  144.6228  150.8465 H   0  0  0  0  0  0  0  0  0  0  0  0  # atno 10167 bound_to 10162
  156.4546  130.8184  151.2415 H   0  0  0  0  0  0  0  0  0  0  0  0  # atno 10718 bound_to 10713
  153.6070  135.6997  153.5362 H   0  0  0  0  0  0  0  0  0  0  0  0  # atno 10763 bound_to 10752
  153.3049  135.4118  155.1284 H   0  0  0  0  0  0  0  0  0  0  0  0  # atno 10764 bound_to 10752
  154.8571  135.3658  154.5607 H   0  0  0  0  0  0  0  0  0  0  0  0  # atno 10765 bound_to 10752
  140.9004  133.7527  156.0537 H   0  0  0  0  0  0  0  0  0  0  0  0  # atno 11005 bound_to 11000
  145.7152  141.0093  143.1432 LP  0  0  0  0  0  0  0  0  0  0  0  0  # atno 17320 bound_to 7965
  144.7000  139.8804  143.7447 LP  0  0  0  0  0  0  0  0  0  0  0  0  # atno 17321 bound_to 7965
  140.7668  143.3315  151.2401 LP  0  0  0  0  0  0  0  0  0  0  0  0  # atno 17342 bound_to 10162
  139.6883  143.9736  152.2845 LP  0  0  0  0  0  0  0  0  0  0  0  0  # atno 17343 bound_to 10162
  157.7501  131.0127  150.3394 LP  0  0  0  0  0  0  0  0  0  0  0  0  # atno 17370 bound_to 10713
  156.3780  130.3875  149.7123 LP  0  0  0  0  0  0  0  0  0  0  0  0  # atno 17371 bound_to 10713
  140.8236  134.3260  157.5373 LP  0  0  0  0  0  0  0  0  0  0  0  0  # atno 17394 bound_to 11000
  139.8741  134.9323  156.3552 LP  0  0  0  0  0  0  0  0  0  0  0  0  # atno 17395 bound_to 11000

$$$$
