AV-unprocessed.smi:278|AV-procd|sdf|2093|dock3
  -GOLD-   2262021373D 1   1.00000     0.00000
 Structure written by MMmdl.
 50 54  0  0  0  0  0  0  0  0  1 V2000
  150.7319  131.7516  157.5637 O   0  0  0  0  0  0  0  0  0  0  0  0
  151.0034  132.7840  156.5523 S   0  0  0  0  0  0  0  0  0  0  0  0
  152.1438  133.7013  156.7024 O   0  0  0  0  0  0  0  0  0  0  0  0
  151.0874  131.9911  154.8998 C   0  0  0  0  0  0  0  0  0  0  0  0
  149.7457  132.2819  154.2147 C   0  0  0  0  0  0  0  0  0  0  0  0
  149.1878  133.6163  154.7427 C   0  0  2  0  0  0  0  0  0  0  0  0
  149.8900  134.8535  154.1733 C   0  0  0  0  0  0  0  0  0  0  0  0
  149.7854  135.8635  155.2168 N   0  0  0  0  0  0  0  0  0  0  0  0
  150.4065  137.0665  155.1006 C   0  0  0  0  0  0  0  0  0  0  0  0
  151.2033  137.2866  154.0209 N   0  0  0  0  0  0  0  0  0  0  0  0
  151.8290  138.4564  153.8642 C   0  0  0  0  0  0  0  0  0  0  0  0
  151.7940  139.5325  154.6508 N   0  0  0  0  0  0  0  0  0  0  0  0
  150.9885  139.3272  155.7313 C   0  0  0  0  0  0  0  0  0  0  0  0
  150.2637  138.1377  156.0328 C   0  0  0  0  0  0  0  0  0  0  0  0
  149.5476  138.3161  157.2124 N   0  0  0  0  0  0  0  0  0  0  0  0
  149.8375  139.5315  157.5878 C   0  0  0  0  0  0  0  0  0  0  0  0
  150.6924  140.2120  156.7532 N   0  0  0  0  0  0  0  0  0  0  0  0
  151.1680  141.5740  156.9236 C   0  0  0  0  0  0  0  0  0  0  0  0
  150.5933  142.2439  158.1877 C   0  0  2  0  0  0  0  0  0  0  0  0
  149.3123  142.7721  157.8998 O   0  0  0  0  0  0  0  0  0  0  0  0
  151.5217  143.3507  158.7289 C   0  0  1  0  0  0  0  0  0  0  0  0
  151.7450  144.5777  157.8386 C   0  0  0  0  0  0  0  0  0  0  0  0
  152.1459  145.6138  158.8644 C   0  0  0  0  0  0  0  0  0  0  0  0
  151.2361  145.2591  160.0384 C   0  0  0  0  0  0  0  0  0  0  0  0
  151.0515  143.8468  159.9793 O   0  0  0  0  0  0  0  0  0  0  0  0
  149.5965  135.2353  156.5173 C   0  0  0  0  0  0  0  0  0  0  0  0
  149.4517  133.7310  156.2454 C   0  0  2  0  0  0  0  0  0  0  0  0
  148.1176  133.6957  154.5460 H   0  0  0  0  0  0  0  0  0  0  0  0
  148.6567  133.2767  156.8374 H   0  0  0  0  0  0  0  0  0  0  0  0
  151.9102  132.4481  154.3499 H   0  0  0  0  0  0  0  0  0  0  0  0
  151.2901  130.9250  155.0035 H   0  0  0  0  0  0  0  0  0  0  0  0
  149.8380  132.2788  153.1282 H   0  0  0  0  0  0  0  0  0  0  0  0
  149.0441  131.4880  154.4735 H   0  0  0  0  0  0  0  0  0  0  0  0
  150.9431  134.6530  153.9711 H   0  0  0  0  0  0  0  0  0  0  0  0
  149.4218  135.1853  153.2458 H   0  0  0  0  0  0  0  0  0  0  0  0
  152.4445  138.5431  152.9808 H   0  0  0  0  0  0  0  0  0  0  0  0
  149.4275  139.9705  158.4857 H   0  0  0  0  0  0  0  0  0  0  0  0
  152.2573  141.5481  156.9724 H   0  0  0  0  0  0  0  0  0  0  0  0
  150.9107  142.1504  156.0340 H   0  0  0  0  0  0  0  0  0  0  0  0
  150.4750  141.4817  158.9590 H   0  0  0  0  0  0  0  0  0  0  0  0
  149.4173  143.5026  157.3092 H   0  0  0  0  0  0  0  0  0  0  0  0
  152.4963  142.9099  158.9454 H   0  0  0  0  0  0  0  0  0  0  0  0
  152.5057  144.4156  157.0743 H   0  0  0  0  0  0  0  0  0  0  0  0
  150.8265  144.8935  157.3432 H   0  0  0  0  0  0  0  0  0  0  0  0
  153.1916  145.4794  159.1442 H   0  0  0  0  0  0  0  0  0  0  0  0
  152.0130  146.6383  158.5157 H   0  0  0  0  0  0  0  0  0  0  0  0
  151.6528  145.5673  160.9975 H   0  0  0  0  0  0  0  0  0  0  0  0
  150.2637  145.7390  159.9221 H   0  0  0  0  0  0  0  0  0  0  0  0
  150.4141  135.4499  157.2055 H   0  0  0  0  0  0  0  0  0  0  0  0
  148.6791  135.6258  156.9585 H   0  0  0  0  0  0  0  0  0  0  0  0
  1  2  2  0  0  0  0
  2 27  1  0  0  0  0
  2  3  2  0  0  0  0
  2  4  1  0  0  0  0
  4  5  1  0  0  0  0
  4 30  1  0  0  0  0
  4 31  1  0  0  0  0
  5  6  1  0  0  0  0
  5 32  1  0  0  0  0
  5 33  1  0  0  0  0
  6 28  1  0  0  0  0
  6 27  1  0  0  0  0
  6  7  1  0  0  0  0
  7  8  1  0  0  0  0
  7 34  1  0  0  0  0
  7 35  1  0  0  0  0
  8  9  1  0  0  0  0
  8 26  1  0  0  0  0
  9 14  1  0  0  0  0
  9 10  2  0  0  0  0
 10 11  1  0  0  0  0
 11 12  2  0  0  0  0
 11 36  1  0  0  0  0
 12 13  1  0  0  0  0
 13 17  1  0  0  0  0
 13 14  2  0  0  0  0
 14 15  1  0  0  0  0
 15 16  2  0  0  0  0
 16 17  1  0  0  0  0
 16 37  1  0  0  0  0
 17 18  1  0  0  0  0
 18 19  1  0  0  0  0
 18 38  1  0  0  0  0
 18 39  1  0  0  0  0
 19 20  1  0  0  0  0
 19 21  1  0  0  0  0
 19 40  1  0  0  0  0
 20 41  1  0  0  0  0
 21 25  1  0  0  0  0
 21 22  1  0  0  0  0
 21 42  1  0  0  0  0
 22 23  1  0  0  0  0
 22 43  1  0  0  0  0
 22 44  1  0  0  0  0
 23 24  1  0  0  0  0
 23 45  1  0  0  0  0
 23 46  1  0  0  0  0
 24 25  1  0  0  0  0
 24 47  1  0  0  0  0
 24 48  1  0  0  0  0
 26 27  1  0  0  0  0
 26 49  1  0  0  0  0
 26 50  1  0  0  0  0
 27 29  1  0  0  0  0
M  END
> <s_m_source_file>
AV-unprocessed.smi

> <i_m_source_file_index>
278

> <i_lp_mmshare_version>
43012

> <i_f3d_flags>
0

> <s_epik_input>
W0NIMl0xW0NIMl1TKD1PKSg9TylbQ0BASF0oW0NAQEhdMTIpW0NIMl1OKFtDSDJdMiljKG5bY0hdbjMpYyhjMzQpbltjSF1uNFtDSDJdW0NASF0oW09IXSlbQ0BASF01W0NIMl1bQ0gyXVtDSDJdTzU=

> <s_epik_cmdline>
J2VwaWtfcHl0aG9uJywgJy1waCcsICc3LjAnLCAnLXRuJywgJzgnLCAnLW1hJywgJzIwMCcsICctbWV0YWxfYmluZGluZycsICctaW1hZScsICc8aW5maWxlLm1hZT4nLCAnLW9tYWUnLCAnPG91dGZpbGUubWFlPic=

> <r_lp_tautomer_probability>
1

> <r_epik_Ionization_Penalty>
0.000636766

> <r_epik_Ionization_Penalty_Charging>
0

> <r_epik_Ionization_Penalty_Neutral>
0.000636766

> <r_epik_State_Penalty>
0.000329976

> <r_epik_Charging_Adjusted_Penalty>
0.000329976

> <i_epik_Tot_Q>
0

> <i_epik_Tot_abs_Q>
0

> <r_epik_Metal_State_Penalty>
-0

> <b_epik_Metal_Only>
0

> <s_lp_Force_Field>
OPLS_2005

> <r_lp_Energy>
51.4583

> <b_lp_Chiralities_Consistent>
1

> <s_lp_Variant>
AV-unprocessed.smi:278-7

> <Gold.Version>
5.8.1

> <Gold.Id.Protein>
6NUR|6NUR_protein|mol2

> <Gold.PLP.Fitness>
50.5089

> <Gold.PLP.PLP>
-43.7001

> <Gold.PLP.part.hbond>
-4.1032

> <Gold.PLP.part.metal>
0.0000

> <Gold.PLP.part.buried>
-6.9374

> <Gold.PLP.part.nonpolar>
-32.7490

> <Gold.PLP.part.repulsive>
0.5478

> <Gold.PLP.ligand.clash>
0.0000

> <Gold.PLP.ligand.torsion>
0.5739

> <Gold.PLP.Chemscore.Hbond>
2.5704

> <Gold.PLP.Chemscore.CHOScore>
0.0000

> <Gold.PLP.Chemscore.Metal>
0.0000

> <Gold.Chemscore.Hbonds>
donor molecule, donor type, donor heavy atom, donor atom, acceptor molecule, acceptor atom, score
      L1  H    20    41       P1  8028  0.81
      P1  H  7989  7998       L1    12  1.00
      P1  H 10752 10763       L1    10  0.10

> <Gold.PLP.Chemscore.Internal.Correction>
0.2455

> <Gold.Rescore>
     Score         DG    S(hbond)    S(metal)    S(lipo)     H(rot)  DE(clash)    DE(int)     intcor
     17.27     -17.91       2.04        0.00      94.83       2.13       0.19       0.45       ----

> <Gold.Chemscore.Fitness>
17.2731

> <Gold.Chemscore.DG>
-17.9126

> <Gold.Chemscore.ZeroCoef>
-5.4800

> <Gold.Chemscore.Hbond>
2.0367

> <Gold.Chemscore.Metal>
0.0000

> <Gold.Chemscore.Lipo>
94.8268

> <Gold.Chemscore.Internal_Hbond>
0.0000

> <Gold.Chemscore.DEClash>
0.1924

> <Gold.Chemscore.DEInternal>
0.4471

> <Gold.Chemscore.Rot>
2.1346

> <Gold.Chemscore.Internal.Correction>
   9.000000E+99

> <Gold.Chemscore.Hbonds>
donor molecule, donor type, donor heavy atom, donor atom, acceptor molecule, acceptor atom, score
      L1  H    20    41       P1  8028  0.59
      P1  H  7989  7998       L1    12  0.38
      P1  H 10752 10763       L1    10  0.03

> <Gold.Chemscore.Hbond.Weighted>
-6.8025

> <Gold.Chemscore.Metal.Weighted>
-0.0000

> <Gold.Chemscore.Lipo.Weighted>
-11.0947

> <Gold.Chemscore.Internal_Hbond.Weighted>
0.0000

> <Gold.Chemscore.DEClash.Weighted>
0.1924

> <Gold.Chemscore.DEInternal.Weighted>
0.4471

> <Gold.Chemscore.Rot.Weighted>
5.4646

> <Gold.Chemscore.Internal.Correction.Weighted>
   9.000000E+99

> <Gold.Protein.RotatedTorsions>
[ 6907 6896 6895 6894 ] final   27.17 input  -60.11 | X-H torsion
[ 7974 7965 7964 7962 ] final -104.02 input  175.53 | X-H torsion
[ 8008 7997 7996 7995 ] final  -11.07 input   59.86 | X-H torsion
[ 10167 10162 10161 10158 ] final  -88.21 input  -65.29 | X-H torsion
[ 10718 10713 10712 10709 ] final  -27.73 input   66.30 | X-H torsion
[ 10763 10752 10751 10750 ] final   40.05 input  -60.55 | X-H torsion
[ 11005 11000 10999 10996 ] final   -2.06 input  -57.11 | X-H torsion

> <Gold.Protein.ActiveResidues>
 VAL166  LYS551  ARG553  GLY616  TRP617  ASP618  TYR619  PRO620  LYS621  CYS622 
 ASP623  PHE694  ASN695  SER759  ASP760  ASP761  ALA762  ILE779  LEU786  VAL792 
 PHE793  MET794  SER795  GLU796  ALA797  LYS798  CYS799  TRP800  GLU811  SER814 

> <Gold.Protein.RotatedAtoms>
  151.9984  134.9942  160.0563 H   0  0  0  0  0  0  0  0  0  0  0  0  # atno 6907 bound_to 6896
  152.1543  133.4536  159.4837 H   0  0  0  0  0  0  0  0  0  0  0  0  # atno 6908 bound_to 6896
  150.6879  134.2069  159.4387 H   0  0  0  0  0  0  0  0  0  0  0  0  # atno 6909 bound_to 6896
  145.2484  140.9229  143.3109 H   0  0  0  0  0  0  0  0  0  0  0  0  # atno 7974 bound_to 7965
  154.5497  140.2312  155.8505 H   0  0  0  0  0  0  0  0  0  0  0  0  # atno 8008 bound_to 7997
  156.1935  140.3071  155.9342 H   0  0  0  0  0  0  0  0  0  0  0  0  # atno 8009 bound_to 7997
  155.3094  140.0435  157.3024 H   0  0  0  0  0  0  0  0  0  0  0  0  # atno 8010 bound_to 7997
  140.3770  143.2767  151.9431 H   0  0  0  0  0  0  0  0  0  0  0  0  # atno 10167 bound_to 10162
  156.4344  130.4451  149.7095 H   0  0  0  0  0  0  0  0  0  0  0  0  # atno 10718 bound_to 10713
  152.9948  135.6202  154.2564 H   0  0  0  0  0  0  0  0  0  0  0  0  # atno 10763 bound_to 10752
  154.2302  135.2792  155.2894 H   0  0  0  0  0  0  0  0  0  0  0  0  # atno 10764 bound_to 10752
  154.5456  135.5748  153.6935 H   0  0  0  0  0  0  0  0  0  0  0  0  # atno 10765 bound_to 10752
  140.6542  133.9378  155.8398 H   0  0  0  0  0  0  0  0  0  0  0  0  # atno 11005 bound_to 11000
  144.9525  139.4067  143.6395 LP  0  0  0  0  0  0  0  0  0  0  0  0  # atno 17320 bound_to 7965
  146.3309  139.8539  142.8868 LP  0  0  0  0  0  0  0  0  0  0  0  0  # atno 17321 bound_to 7965
  139.4798  144.5854  151.7862 LP  0  0  0  0  0  0  0  0  0  0  0  0  # atno 17342 bound_to 10162
  140.4976  144.1217  150.5964 LP  0  0  0  0  0  0  0  0  0  0  0  0  # atno 17343 bound_to 10162
  156.3985  130.7663  151.2669 LP  0  0  0  0  0  0  0  0  0  0  0  0  # atno 17370 bound_to 10713
  157.7507  131.0247  150.3887 LP  0  0  0  0  0  0  0  0  0  0  0  0  # atno 17371 bound_to 10713
  141.0514  134.0479  157.3778 LP  0  0  0  0  0  0  0  0  0  0  0  0  # atno 17394 bound_to 11000
  139.9035  135.0172  156.7380 LP  0  0  0  0  0  0  0  0  0  0  0  0  # atno 17395 bound_to 11000

$$$$
