AV-unprocessed.smi:1503|AV-procd|sdf|6069|dock9
  -GOLD-   22720 6193D 1   1.00000     0.00000
 Structure written by MMmdl.
 44 45  0  0  0  0  0  0  0  0  1 V2000
  148.7904  132.4937  154.0322 C   0  0  0  0  0  0  0  0  0  0  0  0
  149.5969  133.5293  154.3087 C   0  0  0  0  0  0  0  0  0  0  0  0
  149.2766  134.6220  155.3091 C   0  0  0  0  0  0  0  0  0  0  0  0
  149.1227  135.9154  154.6552 N   0  0  0  0  0  0  0  0  0  0  0  0
  149.0179  137.0925  155.2907 C   0  0  0  0  0  0  0  0  0  0  0  0
  149.0493  137.2011  156.5173 O   0  0  0  0  0  0  0  0  0  0  0  0
  148.8577  138.3232  154.3924 C   0  0  0  0  0  0  0  0  0  0  0  0
  150.1791  139.0677  154.1193 C   0  0  0  0  0  0  0  0  0  0  0  0
  150.4905  140.1001  155.1990 C   0  0  0  0  0  0  0  0  0  0  0  0
  149.8245  141.2736  155.3151 C   0  0  0  0  0  0  0  0  0  0  0  0
  148.6800  141.7033  154.4142 C   0  0  0  0  0  0  0  0  0  0  0  0
  150.1490  142.1832  156.3045 N   0  0  0  0  0  0  0  0  0  0  0  0
  151.1894  141.8938  157.1790 C   0  0  0  0  0  0  0  0  0  0  0  0
  151.4365  142.8834  158.1297 N   0  0  0  0  0  0  0  0  0  0  0  0
  151.5319  144.2832  157.7151 C   0  0  0  0  0  0  0  0  0  0  0  0
  151.3064  145.2329  158.9036 C   0  0  0  0  0  0  0  0  0  0  0  0
  152.2284  144.9277  159.9415 O   0  0  0  0  0  0  0  0  0  0  0  0
  152.0525  143.6007  160.4197 C   0  0  0  0  0  0  0  0  0  0  0  0
  152.2993  142.6018  159.2769 C   0  0  0  0  0  0  0  0  0  0  0  0
  151.8711  140.7855  157.1276 N   0  0  0  0  0  0  0  0  0  0  0  0
  151.5811  139.8172  156.1549 C   0  0  0  0  0  0  0  0  0  0  0  0
  152.2183  138.7658  156.1117 O   0  0  0  0  0  0  0  0  0  0  0  0
  149.6154  143.0389  156.3536 H   0  0  0  0  0  0  0  0  0  0  0  0
  147.8346  132.3806  154.5223 H   0  0  0  0  0  0  0  0  0  0  0  0
  149.0774  131.7446  153.3092 H   0  0  0  0  0  0  0  0  0  0  0  0
  150.5466  133.6084  153.7997 H   0  0  0  0  0  0  0  0  0  0  0  0
  148.3815  134.3708  155.8814 H   0  0  0  0  0  0  0  0  0  0  0  0
  150.0988  134.6924  156.0212 H   0  0  0  0  0  0  0  0  0  0  0  0
  149.0885  135.9160  153.6460 H   0  0  0  0  0  0  0  0  0  0  0  0
  148.4132  138.0029  153.4495 H   0  0  0  0  0  0  0  0  0  0  0  0
  148.1437  139.0022  154.8605 H   0  0  0  0  0  0  0  0  0  0  0  0
  151.0058  138.3593  154.0435 H   0  0  0  0  0  0  0  0  0  0  0  0
  150.1332  139.5578  153.1470 H   0  0  0  0  0  0  0  0  0  0  0  0
  147.8914  140.9503  154.4149 H   0  0  0  0  0  0  0  0  0  0  0  0
  149.0310  141.8350  153.3906 H   0  0  0  0  0  0  0  0  0  0  0  0
  148.2422  142.6469  154.7421 H   0  0  0  0  0  0  0  0  0  0  0  0
  150.8087  144.5141  156.9325 H   0  0  0  0  0  0  0  0  0  0  0  0
  152.5207  144.4542  157.2871 H   0  0  0  0  0  0  0  0  0  0  0  0
  151.4549  146.2666  158.5913 H   0  0  0  0  0  0  0  0  0  0  0  0
  150.2828  145.1555  159.2740 H   0  0  0  0  0  0  0  0  0  0  0  0
  152.7553  143.4210  161.2331 H   0  0  0  0  0  0  0  0  0  0  0  0
  151.0495  143.4800  160.8321 H   0  0  0  0  0  0  0  0  0  0  0  0
  153.3412  142.6507  158.9576 H   0  0  0  0  0  0  0  0  0  0  0  0
  152.1251  141.5885  159.6417 H   0  0  0  0  0  0  0  0  0  0  0  0
  1  2  2  0  0  0  0
  1 24  1  0  0  0  0
  1 25  1  0  0  0  0
  2  3  1  0  0  0  0
  2 26  1  0  0  0  0
  3  4  1  0  0  0  0
  3 27  1  0  0  0  0
  3 28  1  0  0  0  0
  4  5  1  0  0  0  0
  4 29  1  0  0  0  0
  5  6  2  0  0  0  0
  5  7  1  0  0  0  0
  7  8  1  0  0  0  0
  7 30  1  0  0  0  0
  7 31  1  0  0  0  0
  8 32  1  0  0  0  0
  8 33  1  0  0  0  0
  8  9  1  0  0  0  0
  9 21  1  0  0  0  0
  9 10  2  0  0  0  0
 10 12  1  0  0  0  0
 10 11  1  0  0  0  0
 11 34  1  0  0  0  0
 11 35  1  0  0  0  0
 11 36  1  0  0  0  0
 12 23  1  0  0  0  0
 12 13  1  0  0  0  0
 13 14  1  0  0  0  0
 13 20  2  0  0  0  0
 14 19  1  0  0  0  0
 14 15  1  0  0  0  0
 15 16  1  0  0  0  0
 15 37  1  0  0  0  0
 15 38  1  0  0  0  0
 16 17  1  0  0  0  0
 16 39  1  0  0  0  0
 16 40  1  0  0  0  0
 17 18  1  0  0  0  0
 18 19  1  0  0  0  0
 18 41  1  0  0  0  0
 18 42  1  0  0  0  0
 19 43  1  0  0  0  0
 19 44  1  0  0  0  0
 20 21  1  0  0  0  0
 21 22  2  0  0  0  0
M  END
> <s_m_source_file>
AV-unprocessed.smi

> <i_m_source_file_index>
1503

> <i_lp_mmshare_version>
43012

> <i_f3d_flags>
0

> <s_epik_input>
W0NIMl09W0NIXVtDSDJdW05IXUMoPU8pW0NIMl1bQ0gyXWMxYyhbQ0gzXSluYyhbbkhdYzE9TylOMltDSDJdW0NIMl1PW0NIMl1bQ0gyXTI=

> <s_epik_cmdline>
J2VwaWtfcHl0aG9uJywgJy1waCcsICc3LjAnLCAnLXRuJywgJzgnLCAnLW1hJywgJzIwMCcsICctbWV0YWxfYmluZGluZycsICctaW1hZScsICc8aW5maWxlLm1hZT4nLCAnLW9tYWUnLCAnPG91dGZpbGUubWFlPic=

> <r_lp_tautomer_probability>
0.108306

> <r_epik_Ionization_Penalty>
0.0745381

> <r_epik_Ionization_Penalty_Charging>
0.0625831

> <r_epik_Ionization_Penalty_Neutral>
0.0119549

> <r_epik_State_Penalty>
1.70762

> <r_epik_Charging_Adjusted_Penalty>
1.7702

> <i_epik_Tot_Q>
0

> <i_epik_Tot_abs_Q>
0

> <r_epik_Metal_State_Penalty>
2.68249

> <b_epik_Metal_Only>
0

> <s_lp_Force_Field>
OPLS_2005

> <r_lp_Energy>
25.2683

> <b_lp_Chiralities_Consistent>
1

> <s_lp_Variant>
AV-unprocessed.smi:1503-2

> <Gold.Version>
5.8.1

> <Gold.Id.Protein>
6NUR|6NUR_protein|mol2

> <Gold.PLP.Fitness>
48.9994

> <Gold.PLP.PLP>
-44.9153

> <Gold.PLP.part.hbond>
-2.0000

> <Gold.PLP.part.metal>
0.0000

> <Gold.PLP.part.buried>
-1.8957

> <Gold.PLP.part.nonpolar>
-40.1571

> <Gold.PLP.part.repulsive>
0.1836

> <Gold.PLP.ligand.clash>
0.0000

> <Gold.PLP.ligand.torsion>
1.1256

> <Gold.PLP.Chemscore.Hbond>
2.0000

> <Gold.PLP.Chemscore.CHOScore>
0.0000

> <Gold.PLP.Chemscore.Metal>
0.0000

> <Gold.Chemscore.Hbonds>
donor molecule, donor type, donor heavy atom, donor atom, acceptor molecule, acceptor atom, score
      L1  H     4    29       P1  7948  1.00
      L1  H    12    23       P1  8028  1.00

> <Gold.PLP.Chemscore.Internal.Correction>
0.3352

> <Gold.Rescore>
     Score         DG    S(hbond)    S(metal)    S(lipo)     H(rot)  DE(clash)    DE(int)     intcor
     17.38     -18.62       1.98        0.00      97.89       1.92       0.15       1.09       ----

> <Gold.Chemscore.Fitness>
17.3849

> <Gold.Chemscore.DG>
-18.6237

> <Gold.Chemscore.ZeroCoef>
-5.4800

> <Gold.Chemscore.Hbond>
1.9766

> <Gold.Chemscore.Metal>
0.0000

> <Gold.Chemscore.Lipo>
97.8947

> <Gold.Chemscore.Internal_Hbond>
0.0000

> <Gold.Chemscore.DEClash>
0.1515

> <Gold.Chemscore.DEInternal>
1.0873

> <Gold.Chemscore.Rot>
1.9187

> <Gold.Chemscore.Internal.Correction>
   9.000000E+99

> <Gold.Chemscore.Hbonds>
donor molecule, donor type, donor heavy atom, donor atom, acceptor molecule, acceptor atom, score
      L1  H     4    29       P1  7948  0.88
      L1  H    12    23       P1  8028  0.97

> <Gold.Chemscore.Hbond.Weighted>
-6.6019

> <Gold.Chemscore.Metal.Weighted>
-0.0000

> <Gold.Chemscore.Lipo.Weighted>
-11.4537

> <Gold.Chemscore.Internal_Hbond.Weighted>
0.0000

> <Gold.Chemscore.DEClash.Weighted>
0.1515

> <Gold.Chemscore.DEInternal.Weighted>
1.0873

> <Gold.Chemscore.Rot.Weighted>
4.9119

> <Gold.Chemscore.Internal.Correction.Weighted>
   9.000000E+99

> <Gold.Protein.RotatedTorsions>
[ 6907 6896 6895 6894 ] final   -4.32 input  -60.11 | X-H torsion
[ 7974 7965 7964 7962 ] final  -13.93 input  175.53 | X-H torsion
[ 8008 7997 7996 7995 ] final   70.09 input   59.86 | X-H torsion
[ 10167 10162 10161 10158 ] final  -13.31 input  -65.29 | X-H torsion
[ 10718 10713 10712 10709 ] final   40.37 input   66.30 | X-H torsion
[ 10763 10752 10751 10750 ] final   94.55 input  -60.55 | X-H torsion
[ 11005 11000 10999 10996 ] final -140.95 input  -57.11 | X-H torsion

> <Gold.Protein.ActiveResidues>
 VAL166  LYS551  ARG553  GLY616  TRP617  ASP618  TYR619  PRO620  LYS621  CYS622 
 ASP623  PHE694  ASN695  SER759  ASP760  ASP761  ALA762  ILE779  LEU786  VAL792 
 PHE793  MET794  SER795  GLU796  ALA797  LYS798  CYS799  TRP800  GLU811  SER814 

> <Gold.Protein.RotatedAtoms>
  151.4995  135.1061  159.9824 H   0  0  0  0  0  0  0  0  0  0  0  0  # atno 6907 bound_to 6896
  152.4708  133.8020  159.6968 H   0  0  0  0  0  0  0  0  0  0  0  0  # atno 6908 bound_to 6896
  150.8715  133.7435  159.2985 H   0  0  0  0  0  0  0  0  0  0  0  0  # atno 6909 bound_to 6896
  146.2095  140.3274  142.8396 H   0  0  0  0  0  0  0  0  0  0  0  0  # atno 7974 bound_to 7965
  155.7336  140.3491  155.5071 H   0  0  0  0  0  0  0  0  0  0  0  0  # atno 8008 bound_to 7997
  155.9159  140.1058  157.1265 H   0  0  0  0  0  0  0  0  0  0  0  0  # atno 8009 bound_to 7997
  154.4062  140.1259  156.4604 H   0  0  0  0  0  0  0  0  0  0  0  0  # atno 8010 bound_to 7997
  140.7179  143.5440  150.9377 H   0  0  0  0  0  0  0  0  0  0  0  0  # atno 10167 bound_to 10162
  157.3814  130.7755  149.7196 H   0  0  0  0  0  0  0  0  0  0  0  0  # atno 10718 bound_to 10713
  153.2430  135.4285  155.0717 H   0  0  0  0  0  0  0  0  0  0  0  0  # atno 10763 bound_to 10752
  154.8349  135.3407  154.6622 H   0  0  0  0  0  0  0  0  0  0  0  0  # atno 10764 bound_to 10752
  153.7046  135.7026  153.5110 H   0  0  0  0  0  0  0  0  0  0  0  0  # atno 10765 bound_to 10752
  140.8373  134.2445  157.4828 H   0  0  0  0  0  0  0  0  0  0  0  0  # atno 11005 bound_to 11000
  144.8876  140.7483  143.5947 LP  0  0  0  0  0  0  0  0  0  0  0  0  # atno 17320 bound_to 7965
  145.3196  139.1792  143.4595 LP  0  0  0  0  0  0  0  0  0  0  0  0  # atno 17321 bound_to 7965
  139.9163  143.6660  152.3105 LP  0  0  0  0  0  0  0  0  0  0  0  0  # atno 17342 bound_to 10162
  139.7061  144.7628  151.1191 LP  0  0  0  0  0  0  0  0  0  0  0  0  # atno 17343 bound_to 10162
  155.9776  130.4060  150.3698 LP  0  0  0  0  0  0  0  0  0  0  0  0  # atno 17370 bound_to 10713
  157.1802  131.0390  151.2752 LP  0  0  0  0  0  0  0  0  0  0  0  0  # atno 17371 bound_to 10713
  139.8704  134.9617  156.4405 LP  0  0  0  0  0  0  0  0  0  0  0  0  # atno 17394 bound_to 11000
  140.8934  133.7832  155.9597 LP  0  0  0  0  0  0  0  0  0  0  0  0  # atno 17395 bound_to 11000

$$$$
