AV-unprocessed.smi:1242|AV-procd|sdf|5217|dock7
  -GOLD-   22720 4313D 1   1.00000     0.00000
 Structure written by MMmdl.
 39 40  0  0  0  0  0  0  0  0  1 V2000
  151.6147  139.9873  156.2275 O   0  0  0  0  0  0  0  0  0  0  0  0
  150.9362  139.5915  157.1762 C   0  0  0  0  0  0  0  0  0  0  0  0
  151.5795  139.3286  158.5444 C   0  0  0  0  0  0  0  0  0  0  0  0
  152.2402  140.5178  159.1073 N   0  0  0  0  0  0  0  0  0  0  0  0
  151.6650  141.7711  158.8188 C   0  0  0  0  0  0  0  0  0  0  0  0
  152.1627  142.9314  159.2878 C   0  0  0  0  0  0  0  0  0  0  0  0
  151.5494  144.2732  158.9192 C   0  0  0  0  0  0  0  0  0  0  0  0
  150.2590  144.3183  159.2515 F   0  0  0  0  0  0  0  0  0  0  0  0
  152.1756  145.2760  159.5364 F   0  0  0  0  0  0  0  0  0  0  0  0
  151.6466  144.4697  157.6052 F   0  0  0  0  0  0  0  0  0  0  0  0
  153.3644  142.8390  160.0934 C   0  0  0  0  0  0  0  0  0  0  0  0
  153.9302  141.6490  160.3742 C   0  0  0  0  0  0  0  0  0  0  0  0
  153.3623  140.3936  159.8779 C   0  0  0  0  0  0  0  0  0  0  0  0
  153.8650  139.2997  160.1360 O   0  0  0  0  0  0  0  0  0  0  0  0
  149.6187  139.3483  157.0874 N   0  0  0  0  0  0  0  0  0  0  0  0
  148.7959  139.5486  155.8922 C   0  0  1  0  0  0  0  0  0  0  0  0
  148.8939  141.0414  155.5027 C   0  0  0  0  0  0  0  0  0  0  0  0
  147.7197  141.5367  154.6405 C   0  0  0  0  0  0  0  0  0  0  0  0
  147.6201  140.8950  153.2484 C   0  0  0  0  0  0  0  0  0  0  0  0
  147.3810  139.3761  153.2832 C   0  0  0  0  0  0  0  0  0  0  0  0
  148.5997  138.6361  153.5830 N   0  0  0  0  0  0  0  0  0  0  0  0
  149.3115  138.6815  154.7194 C   0  0  0  0  0  0  0  0  0  0  0  0
  150.3601  138.0448  154.8213 O   0  0  0  0  0  0  0  0  0  0  0  0
  150.8242  138.9564  159.2395 H   0  0  0  0  0  0  0  0  0  0  0  0
  152.2908  138.5093  158.4319 H   0  0  0  0  0  0  0  0  0  0  0  0
  150.7850  141.7284  158.1933 H   0  0  0  0  0  0  0  0  0  0  0  0
  153.8160  143.7390  160.4836 H   0  0  0  0  0  0  0  0  0  0  0  0
  154.8235  141.6178  160.9807 H   0  0  0  0  0  0  0  0  0  0  0  0
  149.1411  139.0280  157.9170 H   0  0  0  0  0  0  0  0  0  0  0  0
  147.7618  139.2879  156.1251 H   0  0  0  0  0  0  0  0  0  0  0  0
  148.8976  141.6460  156.4112 H   0  0  0  0  0  0  0  0  0  0  0  0
  149.8430  141.2553  155.0079 H   0  0  0  0  0  0  0  0  0  0  0  0
  146.7845  141.3804  155.1793 H   0  0  0  0  0  0  0  0  0  0  0  0
  147.8124  142.6161  154.5165 H   0  0  0  0  0  0  0  0  0  0  0  0
  146.7887  141.3625  152.7199 H   0  0  0  0  0  0  0  0  0  0  0  0
  148.5116  141.1232  152.6629 H   0  0  0  0  0  0  0  0  0  0  0  0
  146.5904  139.1157  153.9882 H   0  0  0  0  0  0  0  0  0  0  0  0
  147.0384  139.0448  152.3027 H   0  0  0  0  0  0  0  0  0  0  0  0
  148.9581  138.0508  152.8423 H   0  0  0  0  0  0  0  0  0  0  0  0
  1  2  2  0  0  0  0
  2  3  1  0  0  0  0
  2 15  1  0  0  0  0
  3  4  1  0  0  0  0
  3 24  1  0  0  0  0
  3 25  1  0  0  0  0
  4 13  1  0  0  0  0
  4  5  1  0  0  0  0
  5  6  2  0  0  0  0
  5 26  1  0  0  0  0
  6  7  1  0  0  0  0
  6 11  1  0  0  0  0
  7  8  1  0  0  0  0
  7  9  1  0  0  0  0
  7 10  1  0  0  0  0
 11 12  2  0  0  0  0
 11 27  1  0  0  0  0
 12 13  1  0  0  0  0
 12 28  1  0  0  0  0
 13 14  2  0  0  0  0
 15 16  1  0  0  0  0
 15 29  1  0  0  0  0
 16 22  1  0  0  0  0
 16 17  1  0  0  0  0
 16 30  1  0  0  0  0
 17 18  1  0  0  0  0
 17 31  1  0  0  0  0
 17 32  1  0  0  0  0
 18 19  1  0  0  0  0
 18 33  1  0  0  0  0
 18 34  1  0  0  0  0
 19 20  1  0  0  0  0
 19 35  1  0  0  0  0
 19 36  1  0  0  0  0
 20 21  1  0  0  0  0
 20 37  1  0  0  0  0
 20 38  1  0  0  0  0
 21 22  1  0  0  0  0
 21 39  1  0  0  0  0
 22 23  2  0  0  0  0
M  END
> <s_m_source_file>
AV-unprocessed.smi

> <i_m_source_file_index>
1242

> <i_lp_mmshare_version>
43012

> <i_f3d_flags>
0

> <s_epik_input>
Tz1jMVtjSF1bY0hdYyhDKEYpKEYpRilbY0hdbjFbQ0gyXUMoPU8pW05IXVtDQEBIXTJbQ0gyXVtDSDJdW0NIMl1bQ0gyXVtOSF1DMj1P

> <s_epik_cmdline>
J2VwaWtfcHl0aG9uJywgJy1waCcsICc3LjAnLCAnLXRuJywgJzgnLCAnLW1hJywgJzIwMCcsICctbWV0YWxfYmluZGluZycsICctaW1hZScsICc8aW5maWxlLm1hZT4nLCAnLW9tYWUnLCAnPG91dGZpbGUubWFlPic=

> <r_lp_tautomer_probability>
1

> <r_epik_Ionization_Penalty>
6.92876e-08

> <r_epik_Ionization_Penalty_Charging>
1.59659e-08

> <r_epik_Ionization_Penalty_Neutral>
5.33217e-08

> <r_epik_State_Penalty>
-0

> <r_epik_Charging_Adjusted_Penalty>
1.59659e-08

> <i_epik_Tot_Q>
0

> <i_epik_Tot_abs_Q>
0

> <r_epik_Metal_State_Penalty>
-0

> <b_epik_Metal_Only>
0

> <s_lp_Force_Field>
OPLS_2005

> <r_lp_Energy>
23.3592

> <b_lp_Chiralities_Consistent>
1

> <s_lp_Variant>
AV-unprocessed.smi:1242-2

> <Gold.Version>
5.8.1

> <Gold.Id.Protein>
6NUR|6NUR_protein|mol2

> <Gold.PLP.Fitness>
48.7916

> <Gold.PLP.PLP>
-46.6446

> <Gold.PLP.part.hbond>
-2.0000

> <Gold.PLP.part.metal>
0.0000

> <Gold.PLP.part.buried>
-5.2062

> <Gold.PLP.part.nonpolar>
-39.6055

> <Gold.PLP.part.repulsive>
0.2332

> <Gold.PLP.ligand.clash>
0.0000

> <Gold.PLP.ligand.torsion>
0.4438

> <Gold.PLP.Chemscore.Hbond>
1.0000

> <Gold.PLP.Chemscore.CHOScore>
0.0000

> <Gold.PLP.Chemscore.Metal>
0.0000

> <Gold.Chemscore.Hbonds>
donor molecule, donor type, donor heavy atom, donor atom, acceptor molecule, acceptor atom, score
      L1  H    21    39       P1  7948  0.99

> <Gold.PLP.Chemscore.Internal.Correction>
0.0345

> <Gold.Rescore>
     Score         DG    S(hbond)    S(metal)    S(lipo)     H(rot)  DE(clash)    DE(int)     intcor
     10.37     -14.47       0.97        0.00      86.71       1.72       0.06       4.05       ----

> <Gold.Chemscore.Fitness>
10.3673

> <Gold.Chemscore.DG>
-14.4693

> <Gold.Chemscore.ZeroCoef>
-5.4800

> <Gold.Chemscore.Hbond>
0.9734

> <Gold.Chemscore.Metal>
0.0000

> <Gold.Chemscore.Lipo>
86.7052

> <Gold.Chemscore.Internal_Hbond>
0.0000

> <Gold.Chemscore.DEClash>
0.0565

> <Gold.Chemscore.DEInternal>
4.0456

> <Gold.Chemscore.Rot>
1.7212

> <Gold.Chemscore.Internal.Correction>
   9.000000E+99

> <Gold.Chemscore.Hbonds>
donor molecule, donor type, donor heavy atom, donor atom, acceptor molecule, acceptor atom, score
      L1  H    21    39       P1  7948  0.88

> <Gold.Chemscore.Hbond.Weighted>
-3.2510

> <Gold.Chemscore.Metal.Weighted>
-0.0000

> <Gold.Chemscore.Lipo.Weighted>
-10.1445

> <Gold.Chemscore.Internal_Hbond.Weighted>
0.0000

> <Gold.Chemscore.DEClash.Weighted>
0.0565

> <Gold.Chemscore.DEInternal.Weighted>
4.0456

> <Gold.Chemscore.Rot.Weighted>
4.4062

> <Gold.Chemscore.Internal.Correction.Weighted>
   9.000000E+99

> <Gold.Protein.RotatedTorsions>
[ 6907 6896 6895 6894 ] final   99.67 input  -60.11 | X-H torsion
[ 7974 7965 7964 7962 ] final -113.77 input  175.53 | X-H torsion
[ 8008 7997 7996 7995 ] final -168.86 input   59.86 | X-H torsion
[ 10167 10162 10161 10158 ] final   27.47 input  -65.29 | X-H torsion
[ 10718 10713 10712 10709 ] final  120.27 input   66.30 | X-H torsion
[ 10763 10752 10751 10750 ] final  122.65 input  -60.55 | X-H torsion
[ 11005 11000 10999 10996 ] final  -32.85 input  -57.11 | X-H torsion

> <Gold.Protein.ActiveResidues>
 VAL166  LYS551  ARG553  GLY616  TRP617  ASP618  TYR619  PRO620  LYS621  CYS622 
 ASP623  PHE694  ASN695  SER759  ASP760  ASP761  ALA762  ILE779  LEU786  VAL792 
 PHE793  MET794  SER795  GLU796  ALA797  LYS798  CYS799  TRP800  GLU811  SER814 

> <Gold.Protein.RotatedAtoms>
  152.5387  134.0393  159.8059 H   0  0  0  0  0  0  0  0  0  0  0  0  # atno 6907 bound_to 6896
  151.0551  133.5583  159.2646 H   0  0  0  0  0  0  0  0  0  0  0  0  # atno 6908 bound_to 6896
  151.2503  135.0627  159.9113 H   0  0  0  0  0  0  0  0  0  0  0  0  # atno 6909 bound_to 6896
  145.1280  140.8708  143.3774 H   0  0  0  0  0  0  0  0  0  0  0  0  # atno 7974 bound_to 7965
  155.8972  140.1035  157.1376 H   0  0  0  0  0  0  0  0  0  0  0  0  # atno 8008 bound_to 7997
  154.4022  140.1299  156.4454 H   0  0  0  0  0  0  0  0  0  0  0  0  # atno 8009 bound_to 7997
  155.7465  140.3466  155.5132 H   0  0  0  0  0  0  0  0  0  0  0  0  # atno 8010 bound_to 7997
  140.4936  144.0428  150.6306 H   0  0  0  0  0  0  0  0  0  0  0  0  # atno 10167 bound_to 10162
  157.5902  131.1065  150.8012 H   0  0  0  0  0  0  0  0  0  0  0  0  # atno 10718 bound_to 10713
  153.6332  135.3392  155.3048 H   0  0  0  0  0  0  0  0  0  0  0  0  # atno 10763 bound_to 10752
  154.8576  135.4300  154.2084 H   0  0  0  0  0  0  0  0  0  0  0  0  # atno 10764 bound_to 10752
  153.2984  135.7022  153.7299 H   0  0  0  0  0  0  0  0  0  0  0  0  # atno 10765 bound_to 10752
  140.9586  133.7178  156.1333 H   0  0  0  0  0  0  0  0  0  0  0  0  # atno 11005 bound_to 11000
  145.0666  139.3063  143.5853 LP  0  0  0  0  0  0  0  0  0  0  0  0  # atno 17320 bound_to 7965
  146.3516  140.0127  142.8665 LP  0  0  0  0  0  0  0  0  0  0  0  0  # atno 17321 bound_to 7965
  140.3704  143.2858  152.0284 LP  0  0  0  0  0  0  0  0  0  0  0  0  # atno 17342 bound_to 10162
  139.4856  144.6234  151.7211 LP  0  0  0  0  0  0  0  0  0  0  0  0  # atno 17343 bound_to 10162
  156.8436  130.5056  149.5318 LP  0  0  0  0  0  0  0  0  0  0  0  0  # atno 17370 bound_to 10713
  156.0956  130.5930  150.9808 LP  0  0  0  0  0  0  0  0  0  0  0  0  # atno 17371 bound_to 10713
  140.7500  134.4055  157.5543 LP  0  0  0  0  0  0  0  0  0  0  0  0  # atno 17394 bound_to 11000
  139.8870  134.8893  156.2551 LP  0  0  0  0  0  0  0  0  0  0  0  0  # atno 17395 bound_to 11000

$$$$
