AV-unprocessed.smi:1492|AV-procd|sdf|6041|dock8
  -GOLD-   22720 6153D 1   1.00000     0.00000
 Structure written by MMmdl.
 52 53  0  0  0  0  0  0  0  0  1 V2000
  146.1667  140.3207  155.4428 C   0  0  0  0  0  0  0  0  0  0  0  0
  147.4797  139.5176  155.4086 C   0  0  0  0  0  0  0  0  0  0  0  0
  147.6515  138.5076  154.2298 C   0  0  2  0  0  0  0  0  0  0  0  0
  147.5518  139.2896  152.8931 C   0  0  0  0  0  0  0  0  0  0  0  0
  146.4547  137.5028  154.2507 C   0  0  0  0  0  0  0  0  0  0  0  0
  146.5219  136.5365  153.1572 N   0  0  0  0  0  0  0  0  0  0  0  0
  145.4909  135.8667  152.6223 C   0  0  0  0  0  0  0  0  0  0  0  0
  144.3548  135.8660  153.0949 O   0  0  0  0  0  0  0  0  0  0  0  0
  145.7879  135.1152  151.3243 C   0  0  0  0  0  0  0  0  0  0  0  0
  145.8638  133.5951  151.4723 C   0  0  0  0  0  0  0  0  0  0  0  0
  145.1607  132.7443  150.6826 C   0  0  0  0  0  0  0  0  0  0  0  0
  144.2089  133.1853  149.5843 C   0  0  0  0  0  0  0  0  0  0  0  0
  145.2756  131.3730  150.8265 N   0  0  0  0  0  0  0  0  0  0  0  0
  146.1340  130.8934  151.8017 C   0  0  0  0  0  0  0  0  0  0  0  0
  146.1947  129.3832  151.8701 C   0  0  0  0  0  0  0  0  0  0  0  0
  146.8462  131.6239  152.6042 N   0  0  0  0  0  0  0  0  0  0  0  0
  146.7687  133.0214  152.4964 C   0  0  0  0  0  0  0  0  0  0  0  0
  147.4484  133.7384  153.2294 O   0  0  0  0  0  0  0  0  0  0  0  0
  148.9537  137.7792  154.2950 N   0  0  0  0  0  0  0  0  0  0  0  0
  150.1516  138.6260  154.3296 C   0  0  0  0  0  0  0  0  0  0  0  0
  151.4432  137.7959  154.2376 C   0  0  0  0  0  0  0  0  0  0  0  0
  151.4763  136.8391  155.2895 O   0  0  0  0  0  0  0  0  0  0  0  0
  150.3571  135.9616  155.2623 C   0  0  0  0  0  0  0  0  0  0  0  0
  149.0572  136.7771  155.3625 C   0  0  0  0  0  0  0  0  0  0  0  0
  144.7374  130.7761  150.2153 H   0  0  0  0  0  0  0  0  0  0  0  0
  146.1606  140.9950  156.2993 H   0  0  0  0  0  0  0  0  0  0  0  0
  145.2936  139.6762  155.5392 H   0  0  0  0  0  0  0  0  0  0  0  0
  146.0399  140.9361  154.5524 H   0  0  0  0  0  0  0  0  0  0  0  0
  148.2958  140.2394  155.4003 H   0  0  0  0  0  0  0  0  0  0  0  0
  147.5598  138.9929  156.3604 H   0  0  0  0  0  0  0  0  0  0  0  0
  146.5326  139.6131  152.6818 H   0  0  0  0  0  0  0  0  0  0  0  0
  147.8711  138.6791  152.0480 H   0  0  0  0  0  0  0  0  0  0  0  0
  148.1679  140.1888  152.8970 H   0  0  0  0  0  0  0  0  0  0  0  0
  146.4402  136.9416  155.1851 H   0  0  0  0  0  0  0  0  0  0  0  0
  145.4978  138.0253  154.2235 H   0  0  0  0  0  0  0  0  0  0  0  0
  147.4143  136.4581  152.6912 H   0  0  0  0  0  0  0  0  0  0  0  0
  145.0452  135.3987  150.5781 H   0  0  0  0  0  0  0  0  0  0  0  0
  146.7360  135.4761  150.9247 H   0  0  0  0  0  0  0  0  0  0  0  0
  144.7295  133.7985  148.8489 H   0  0  0  0  0  0  0  0  0  0  0  0
  143.3906  133.7711  150.0031 H   0  0  0  0  0  0  0  0  0  0  0  0
  143.7761  132.3320  149.0605 H   0  0  0  0  0  0  0  0  0  0  0  0
  146.9427  129.0558  152.5933 H   0  0  0  0  0  0  0  0  0  0  0  0
  146.4598  128.9681  150.8973 H   0  0  0  0  0  0  0  0  0  0  0  0
  145.2282  128.9777  152.1703 H   0  0  0  0  0  0  0  0  0  0  0  0
  150.1547  139.3330  153.5020 H   0  0  0  0  0  0  0  0  0  0  0  0
  150.1759  139.2116  155.2485 H   0  0  0  0  0  0  0  0  0  0  0  0
  151.5068  137.2902  153.2738 H   0  0  0  0  0  0  0  0  0  0  0  0
  152.3165  138.4432  154.3174 H   0  0  0  0  0  0  0  0  0  0  0  0
  150.3720  135.3680  154.3479 H   0  0  0  0  0  0  0  0  0  0  0  0
  150.4316  135.2637  156.0963 H   0  0  0  0  0  0  0  0  0  0  0  0
  149.0252  137.2612  156.3384 H   0  0  0  0  0  0  0  0  0  0  0  0
  148.2216  136.0805  155.3282 H   0  0  0  0  0  0  0  0  0  0  0  0
  1  2  1  0  0  0  0
  1 26  1  0  0  0  0
  1 27  1  0  0  0  0
  1 28  1  0  0  0  0
  2  3  1  0  0  0  0
  2 29  1  0  0  0  0
  2 30  1  0  0  0  0
  3  4  1  0  0  0  0
  3  5  1  0  0  0  0
  3 19  1  0  0  0  0
  4 31  1  0  0  0  0
  4 32  1  0  0  0  0
  4 33  1  0  0  0  0
  5  6  1  0  0  0  0
  5 34  1  0  0  0  0
  5 35  1  0  0  0  0
  6  7  1  0  0  0  0
  6 36  1  0  0  0  0
  7  8  2  0  0  0  0
  7  9  1  0  0  0  0
  9 37  1  0  0  0  0
  9 38  1  0  0  0  0
  9 10  1  0  0  0  0
 10 17  1  0  0  0  0
 10 11  2  0  0  0  0
 11 12  1  0  0  0  0
 11 13  1  0  0  0  0
 12 39  1  0  0  0  0
 12 40  1  0  0  0  0
 12 41  1  0  0  0  0
 13 25  1  0  0  0  0
 13 14  1  0  0  0  0
 14 15  1  0  0  0  0
 14 16  2  0  0  0  0
 15 42  1  0  0  0  0
 15 43  1  0  0  0  0
 15 44  1  0  0  0  0
 16 17  1  0  0  0  0
 17 18  2  0  0  0  0
 19 24  1  0  0  0  0
 19 20  1  0  0  0  0
 20 21  1  0  0  0  0
 20 45  1  0  0  0  0
 20 46  1  0  0  0  0
 21 22  1  0  0  0  0
 21 47  1  0  0  0  0
 21 48  1  0  0  0  0
 22 23  1  0  0  0  0
 23 24  1  0  0  0  0
 23 49  1  0  0  0  0
 23 50  1  0  0  0  0
 24 51  1  0  0  0  0
 24 52  1  0  0  0  0
M  END
> <s_m_source_file>
AV-unprocessed.smi

> <i_m_source_file_index>
1492

> <i_lp_mmshare_version>
43012

> <i_f3d_flags>
0

> <s_epik_input>
W0NIMl0xW0NIMl1PW0NIMl1bQ0gyXU4xW0NAQF0oW0NIM10pKFtDSDJdW0NIM10pW0NIMl1bTkhdQyg9TylbQ0gyXWMyYyhbQ0gzXSluYyhbQ0gzXSlbbkhdYzI9Tw==

> <s_epik_cmdline>
J2VwaWtfcHl0aG9uJywgJy1waCcsICc3LjAnLCAnLXRuJywgJzgnLCAnLW1hJywgJzIwMCcsICctbWV0YWxfYmluZGluZycsICctaW1hZScsICc8aW5maWxlLm1hZT4nLCAnLW9tYWUnLCAnPG91dGZpbGUubWFlPic=

> <r_lp_tautomer_probability>
0.156392

> <r_epik_Ionization_Penalty>
0.342516

> <r_epik_Ionization_Penalty_Charging>
0.0141408

> <r_epik_Ionization_Penalty_Neutral>
0.328375

> <r_epik_State_Penalty>
1.47662

> <r_epik_Charging_Adjusted_Penalty>
1.49076

> <i_epik_Tot_Q>
0

> <i_epik_Tot_abs_Q>
0

> <r_epik_Metal_State_Penalty>
1.65506

> <b_epik_Metal_Only>
0

> <s_lp_Force_Field>
OPLS_2005

> <r_lp_Energy>
47.0207

> <b_lp_Chiralities_Consistent>
1

> <s_lp_Variant>
AV-unprocessed.smi:1492-6

> <Gold.Version>
5.8.1

> <Gold.Id.Protein>
6NUR|6NUR_protein|mol2

> <Gold.PLP.Fitness>
36.2665

> <Gold.PLP.PLP>
-31.0674

> <Gold.PLP.part.hbond>
-2.0000

> <Gold.PLP.part.metal>
0.0000

> <Gold.PLP.part.buried>
-5.4887

> <Gold.PLP.part.nonpolar>
-25.9774

> <Gold.PLP.part.repulsive>
2.0428

> <Gold.PLP.ligand.clash>
0.0000

> <Gold.PLP.ligand.torsion>
0.5132

> <Gold.PLP.Chemscore.Hbond>
2.0000

> <Gold.PLP.Chemscore.CHOScore>
0.0000

> <Gold.PLP.Chemscore.Metal>
0.0000

> <Gold.Chemscore.Hbonds>
donor molecule, donor type, donor heavy atom, donor atom, acceptor molecule, acceptor atom, score
      L1  H     6    36       P1  7948  1.00
      P1  H 10752 10764       L1    22  0.98

> <Gold.PLP.Chemscore.Internal.Correction>
0.2256

> <Gold.Rescore>
     Score         DG    S(hbond)    S(metal)    S(lipo)     H(rot)  DE(clash)    DE(int)     intcor
     10.79     -12.24       1.04        0.00      74.39       2.12       0.23       1.21       ----

> <Gold.Chemscore.Fitness>
10.7942

> <Gold.Chemscore.DG>
-12.2357

> <Gold.Chemscore.ZeroCoef>
-5.4800

> <Gold.Chemscore.Hbond>
1.0382

> <Gold.Chemscore.Metal>
0.0000

> <Gold.Chemscore.Lipo>
74.3909

> <Gold.Chemscore.Internal_Hbond>
0.0000

> <Gold.Chemscore.DEClash>
0.2272

> <Gold.Chemscore.DEInternal>
1.2144

> <Gold.Chemscore.Rot>
2.1155

> <Gold.Chemscore.Internal.Correction>
   9.000000E+99

> <Gold.Chemscore.Hbonds>
donor molecule, donor type, donor heavy atom, donor atom, acceptor molecule, acceptor atom, score
      L1  H     6    36       P1  7948  1.00
      P1  H 10752 10764       L1    22  0.11

> <Gold.Chemscore.Hbond.Weighted>
-3.4677

> <Gold.Chemscore.Metal.Weighted>
-0.0000

> <Gold.Chemscore.Lipo.Weighted>
-8.7037

> <Gold.Chemscore.Internal_Hbond.Weighted>
0.0000

> <Gold.Chemscore.DEClash.Weighted>
0.2272

> <Gold.Chemscore.DEInternal.Weighted>
1.2144

> <Gold.Chemscore.Rot.Weighted>
5.4157

> <Gold.Chemscore.Internal.Correction.Weighted>
   9.000000E+99

> <Gold.Protein.RotatedTorsions>
[ 6907 6896 6895 6894 ] final   29.81 input  -60.11 | X-H torsion
[ 7974 7965 7964 7962 ] final   44.41 input  175.53 | X-H torsion
[ 8008 7997 7996 7995 ] final  -25.92 input   59.86 | X-H torsion
[ 10167 10162 10161 10158 ] final  116.27 input  -65.29 | X-H torsion
[ 10718 10713 10712 10709 ] final  111.12 input   66.30 | X-H torsion
[ 10763 10752 10751 10750 ] final  -52.89 input  -60.55 | X-H torsion
[ 11005 11000 10999 10996 ] final  -69.16 input  -57.11 | X-H torsion

> <Gold.Protein.ActiveResidues>
 VAL166  LYS551  ARG553  GLY616  TRP617  ASP618  TYR619  PRO620  LYS621  CYS622 
 ASP623  PHE694  ASN695  SER759  ASP760  ASP761  ALA762  ILE779  LEU786  VAL792 
 PHE793  MET794  SER795  GLU796  ALA797  LYS798  CYS799  TRP800  GLU811  SER814 

> <Gold.Protein.RotatedAtoms>
  152.0369  134.9735  160.0573 H   0  0  0  0  0  0  0  0  0  0  0  0  # atno 6907 bound_to 6896
  152.1189  133.4337  159.4674 H   0  0  0  0  0  0  0  0  0  0  0  0  # atno 6908 bound_to 6896
  150.6848  134.2477  159.4541 H   0  0  0  0  0  0  0  0  0  0  0  0  # atno 6909 bound_to 6896
  146.0571  139.5078  142.9682 H   0  0  0  0  0  0  0  0  0  0  0  0  # atno 7974 bound_to 7965
  154.4451  140.1913  156.0694 H   0  0  0  0  0  0  0  0  0  0  0  0  # atno 8008 bound_to 7997
  156.0522  140.3307  155.7337 H   0  0  0  0  0  0  0  0  0  0  0  0  # atno 8009 bound_to 7997
  155.5539  140.0597  157.2834 H   0  0  0  0  0  0  0  0  0  0  0  0  # atno 8010 bound_to 7997
  139.6258  144.7108  151.2535 H   0  0  0  0  0  0  0  0  0  0  0  0  # atno 10167 bound_to 10162
  157.6460  131.0945  150.6702 H   0  0  0  0  0  0  0  0  0  0  0  0  # atno 10718 bound_to 10713
  154.1501  135.6491  153.4961 H   0  0  0  0  0  0  0  0  0  0  0  0  # atno 10763 bound_to 10752
  153.0140  135.5336  154.6817 H   0  0  0  0  0  0  0  0  0  0  0  0  # atno 10764 bound_to 10752
  154.6102  135.2953  155.0412 H   0  0  0  0  0  0  0  0  0  0  0  0  # atno 10765 bound_to 10752
  141.1548  133.6757  156.6556 H   0  0  0  0  0  0  0  0  0  0  0  0  # atno 11005 bound_to 11000
  145.6625  141.0237  143.1701 LP  0  0  0  0  0  0  0  0  0  0  0  0  # atno 17320 bound_to 7965
  144.7154  139.8216  143.7400 LP  0  0  0  0  0  0  0  0  0  0  0  0  # atno 17321 bound_to 7965
  140.7410  143.6570  150.8198 LP  0  0  0  0  0  0  0  0  0  0  0  0  # atno 17342 bound_to 10162
  140.0187  143.5565  152.2809 LP  0  0  0  0  0  0  0  0  0  0  0  0  # atno 17343 bound_to 10162
  156.7019  130.4626  149.5570 LP  0  0  0  0  0  0  0  0  0  0  0  0  # atno 17370 bound_to 10713
  156.1789  130.6486  151.0928 LP  0  0  0  0  0  0  0  0  0  0  0  0  # atno 17371 bound_to 10713
  140.3286  134.7947  157.4309 LP  0  0  0  0  0  0  0  0  0  0  0  0  # atno 17394 bound_to 11000
  140.1035  134.5440  155.8330 LP  0  0  0  0  0  0  0  0  0  0  0  0  # atno 17395 bound_to 11000

$$$$
