AV-unprocessed.smi:533|AV-procd|sdf|2854|dock1
  -GOLD-   2262023343D 1   1.00000     0.00000
 Structure written by MMmdl.
 36 37  0  0  0  0  0  0  0  0  1 V2000
  152.0430  144.8550  158.9683 C   0  0  0  0  0  0  0  0  0  0  0  0
  151.9752  144.6058  157.4590 C   0  0  0  0  0  0  0  0  0  0  0  0
  151.1477  143.4578  157.1432 N   0  0  0  0  0  0  0  0  0  0  0  0
  151.1974  142.1367  157.5697 C   0  0  0  0  0  0  0  0  0  0  0  0
  152.1032  141.6498  158.4217 N   0  0  0  0  0  0  0  0  0  0  0  0
  151.7420  140.3130  158.5162 C   0  0  0  0  0  0  0  0  0  0  0  0
  150.6611  140.0432  157.7402 C   0  0  0  0  0  0  0  0  0  0  0  0
  150.0766  138.6998  157.6437 C   0  0  0  0  0  0  0  0  0  0  0  0
  149.1041  138.4303  156.9422 O   0  0  0  0  0  0  0  0  0  0  0  0
  150.7224  137.7854  158.4077 N   0  0  0  0  0  0  0  0  0  0  0  0
  151.8102  137.9902  159.2124 C   0  0  0  0  0  0  0  0  0  0  0  0
  152.2838  137.0484  159.8473 O   0  0  0  0  0  0  0  0  0  0  0  0
  152.3292  139.2602  159.2712 N   0  0  0  0  0  0  0  0  0  0  0  0
  153.4930  139.5841  160.0990 C   0  0  0  0  0  0  0  0  0  0  0  0
  150.2899  141.2356  157.1185 N   0  0  0  0  0  0  0  0  0  0  0  0
  149.1903  141.4718  156.1880 C   0  0  0  0  0  0  0  0  0  0  0  0
  149.4119  140.7695  154.8404 C   0  0  0  0  0  0  0  0  0  0  0  0
  149.0502  141.6364  153.7779 O   0  0  0  0  0  0  0  0  0  0  0  0
  147.6993  142.0550  153.8513 C   0  0  0  0  0  0  0  0  0  0  0  0
  150.3597  136.8436  158.3787 H   0  0  0  0  0  0  0  0  0  0  0  0
  152.6705  145.7186  159.1890 H   0  0  0  0  0  0  0  0  0  0  0  0
  152.4649  143.9961  159.4913 H   0  0  0  0  0  0  0  0  0  0  0  0
  151.0528  145.0493  159.3819 H   0  0  0  0  0  0  0  0  0  0  0  0
  151.5701  145.4819  156.9518 H   0  0  0  0  0  0  0  0  0  0  0  0
  152.9767  144.4391  157.0612 H   0  0  0  0  0  0  0  0  0  0  0  0
  150.4051  143.6607  156.4900 H   0  0  0  0  0  0  0  0  0  0  0  0
  153.8815  138.7408  160.6709 H   0  0  0  0  0  0  0  0  0  0  0  0
  153.2362  140.3688  160.8111 H   0  0  0  0  0  0  0  0  0  0  0  0
  154.3041  139.9536  159.4709 H   0  0  0  0  0  0  0  0  0  0  0  0
  148.2556  141.1443  156.6401 H   0  0  0  0  0  0  0  0  0  0  0  0
  149.0789  142.5455  156.0343 H   0  0  0  0  0  0  0  0  0  0  0  0
  150.4594  140.4796  154.7449 H   0  0  0  0  0  0  0  0  0  0  0  0
  148.8157  139.8566  154.7948 H   0  0  0  0  0  0  0  0  0  0  0  0
  147.4736  142.7121  153.0115 H   0  0  0  0  0  0  0  0  0  0  0  0
  147.5079  142.6073  154.7722 H   0  0  0  0  0  0  0  0  0  0  0  0
  147.0192  141.2035  153.8049 H   0  0  0  0  0  0  0  0  0  0  0  0
  1  2  1  0  0  0  0
  1 21  1  0  0  0  0
  1 22  1  0  0  0  0
  1 23  1  0  0  0  0
  2  3  1  0  0  0  0
  2 24  1  0  0  0  0
  2 25  1  0  0  0  0
  3  4  1  0  0  0  0
  3 26  1  0  0  0  0
  4 15  1  0  0  0  0
  4  5  2  0  0  0  0
  5  6  1  0  0  0  0
  6 13  1  0  0  0  0
  6  7  2  0  0  0  0
  7  8  1  0  0  0  0
  7 15  1  0  0  0  0
  8  9  2  0  0  0  0
  8 10  1  0  0  0  0
 10 20  1  0  0  0  0
 10 11  1  0  0  0  0
 11 12  2  0  0  0  0
 11 13  1  0  0  0  0
 13 14  1  0  0  0  0
 14 27  1  0  0  0  0
 14 28  1  0  0  0  0
 14 29  1  0  0  0  0
 15 16  1  0  0  0  0
 16 17  1  0  0  0  0
 16 30  1  0  0  0  0
 16 31  1  0  0  0  0
 17 18  1  0  0  0  0
 17 32  1  0  0  0  0
 17 33  1  0  0  0  0
 18 19  1  0  0  0  0
 19 34  1  0  0  0  0
 19 35  1  0  0  0  0
 19 36  1  0  0  0  0
M  END
> <s_m_source_file>
AV-unprocessed.smi

> <i_m_source_file_index>
533

> <i_lp_mmshare_version>
43012

> <i_f3d_flags>
0

> <s_epik_input>
W0NIM11bQ0gyXVtOSF1jKG4xKW4oW0NIMl1bQ0gyXU9bQ0gzXSljKGMxMiljKD1PKVtuSF1jKD1PKW4yW0NIM10=

> <s_epik_cmdline>
J2VwaWtfcHl0aG9uJywgJy1waCcsICc3LjAnLCAnLXRuJywgJzgnLCAnLW1hJywgJzIwMCcsICctbWV0YWxfYmluZGluZycsICctaW1hZScsICc8aW5maWxlLm1hZT4nLCAnLW9tYWUnLCAnPG91dGZpbGUubWFlPic=

> <r_lp_tautomer_probability>
1

> <r_epik_Ionization_Penalty>
5.47603e-05

> <r_epik_Ionization_Penalty_Charging>
3.02296e-05

> <r_epik_Ionization_Penalty_Neutral>
2.45307e-05

> <r_epik_State_Penalty>
-0

> <r_epik_Charging_Adjusted_Penalty>
3.02296e-05

> <i_epik_Tot_Q>
0

> <i_epik_Tot_abs_Q>
0

> <r_epik_Metal_State_Penalty>
0.0280858

> <b_epik_Metal_Only>
0

> <s_lp_Force_Field>
OPLS_2005

> <r_lp_Energy>
19.3222

> <b_lp_Chiralities_Consistent>
1

> <s_lp_Variant>
AV-unprocessed.smi:533-1

> <Gold.Version>
5.8.1

> <Gold.Id.Protein>
6NUR|6NUR_protein|mol2

> <Gold.PLP.Fitness>
42.0441

> <Gold.PLP.PLP>
-34.6896

> <Gold.PLP.part.hbond>
-3.7659

> <Gold.PLP.part.metal>
0.0000

> <Gold.PLP.part.buried>
-6.8118

> <Gold.PLP.part.nonpolar>
-24.6002

> <Gold.PLP.part.repulsive>
0.5547

> <Gold.PLP.ligand.clash>
0.0000

> <Gold.PLP.ligand.torsion>
0.3798

> <Gold.PLP.Chemscore.Hbond>
2.7040

> <Gold.PLP.Chemscore.CHOScore>
0.0000

> <Gold.PLP.Chemscore.Metal>
0.0000

> <Gold.Chemscore.Hbonds>
donor molecule, donor type, donor heavy atom, donor atom, acceptor molecule, acceptor atom, score
      L1  H     3    26       P1  8028  1.00
      P1  H  6896  6908       L1    12  1.00
      P1  H  8011  8017       L1    18  0.67

> <Gold.PLP.Chemscore.Internal.Correction>
0.0019

> <Gold.Rescore>
     Score         DG    S(hbond)    S(metal)    S(lipo)     H(rot)  DE(clash)    DE(int)     intcor
     15.26     -15.75       2.51        0.00      56.77       1.86       0.00       0.49       ----

> <Gold.Chemscore.Fitness>
15.2637

> <Gold.Chemscore.DG>
-15.7506

> <Gold.Chemscore.ZeroCoef>
-5.4800

> <Gold.Chemscore.Hbond>
2.5148

> <Gold.Chemscore.Metal>
0.0000

> <Gold.Chemscore.Lipo>
56.7655

> <Gold.Chemscore.Internal_Hbond>
0.0000

> <Gold.Chemscore.DEClash>
0.0000

> <Gold.Chemscore.DEInternal>
0.4869

> <Gold.Chemscore.Rot>
1.8634

> <Gold.Chemscore.Internal.Correction>
   9.000000E+99

> <Gold.Chemscore.Hbonds>
donor molecule, donor type, donor heavy atom, donor atom, acceptor molecule, acceptor atom, score
      L1  H     3    26       P1  8028  0.93
      P1  H  6896  6908       L1    12  0.97
      P1  H  8011  8017       L1    18  0.44

> <Gold.Chemscore.Hbond.Weighted>
-8.3993

> <Gold.Chemscore.Metal.Weighted>
-0.0000

> <Gold.Chemscore.Lipo.Weighted>
-6.6416

> <Gold.Chemscore.Internal_Hbond.Weighted>
0.0000

> <Gold.Chemscore.DEClash.Weighted>
0.0000

> <Gold.Chemscore.DEInternal.Weighted>
0.4869

> <Gold.Chemscore.Rot.Weighted>
4.7702

> <Gold.Chemscore.Internal.Correction.Weighted>
   9.000000E+99

> <Gold.Protein.RotatedTorsions>
[ 6907 6896 6895 6894 ] final -100.22 input  -60.11 | X-H torsion
[ 7974 7965 7964 7962 ] final -139.35 input  175.53 | X-H torsion
[ 8008 7997 7996 7995 ] final   75.05 input   59.86 | X-H torsion
[ 10167 10162 10161 10158 ] final   82.23 input  -65.29 | X-H torsion
[ 10718 10713 10712 10709 ] final -126.45 input   66.30 | X-H torsion
[ 10763 10752 10751 10750 ] final  -84.79 input  -60.55 | X-H torsion
[ 11005 11000 10999 10996 ] final   88.70 input  -57.11 | X-H torsion

> <Gold.Protein.ActiveResidues>
 VAL166  LYS551  ARG553  GLY616  TRP617  ASP618  TYR619  PRO620  LYS621  CYS622 
 ASP623  PHE694  ASN695  SER759  ASP760  ASP761  ALA762  ILE779  LEU786  VAL792 
 PHE793  MET794  SER795  GLU796  ALA797  LYS798  CYS799  TRP800  GLU811  SER814 

> <Gold.Protein.RotatedAtoms>
  150.7108  134.0920  159.3934 H   0  0  0  0  0  0  0  0  0  0  0  0  # atno 6907 bound_to 6896
  151.8906  135.0416  160.0506 H   0  0  0  0  0  0  0  0  0  0  0  0  # atno 6908 bound_to 6896
  152.2495  133.5167  159.5353 H   0  0  0  0  0  0  0  0  0  0  0  0  # atno 6909 bound_to 6896
  144.8684  140.6328  143.5283 H   0  0  0  0  0  0  0  0  0  0  0  0  # atno 7974 bound_to 7965
  155.8072  140.3474  155.5437 H   0  0  0  0  0  0  0  0  0  0  0  0  # atno 8008 bound_to 7997
  155.8478  140.0951  157.1714 H   0  0  0  0  0  0  0  0  0  0  0  0  # atno 8009 bound_to 7997
  154.4007  140.1382  156.3794 H   0  0  0  0  0  0  0  0  0  0  0  0  # atno 8010 bound_to 7997
  139.9309  144.6152  150.8345 H   0  0  0  0  0  0  0  0  0  0  0  0  # atno 10167 bound_to 10162
  156.1766  130.6704  151.0250 H   0  0  0  0  0  0  0  0  0  0  0  0  # atno 10718 bound_to 10713
  154.6036  135.5508  153.7400 H   0  0  0  0  0  0  0  0  0  0  0  0  # atno 10763 bound_to 10752
  153.0165  135.6372  154.1679 H   0  0  0  0  0  0  0  0  0  0  0  0  # atno 10764 bound_to 10752
  154.1618  135.2897  155.3086 H   0  0  0  0  0  0  0  0  0  0  0  0  # atno 10765 bound_to 10752
  139.8891  134.8504  156.3037 H   0  0  0  0  0  0  0  0  0  0  0  0  # atno 11005 bound_to 11000
  145.4178  139.1569  143.4091 LP  0  0  0  0  0  0  0  0  0  0  0  0  # atno 17320 bound_to 7965
  146.2912  140.4286  142.8739 LP  0  0  0  0  0  0  0  0  0  0  0  0  # atno 17321 bound_to 7965
  140.7637  143.3231  151.2577 LP  0  0  0  0  0  0  0  0  0  0  0  0  # atno 17342 bound_to 10162
  139.6783  143.9899  152.2794 LP  0  0  0  0  0  0  0  0  0  0  0  0  # atno 17343 bound_to 10162
  157.6840  131.0830  150.7294 LP  0  0  0  0  0  0  0  0  0  0  0  0  # atno 17370 bound_to 10713
  156.7352  130.4722  149.5490 LP  0  0  0  0  0  0  0  0  0  0  0  0  # atno 17371 bound_to 10713
  140.9896  133.7217  156.0794 LP  0  0  0  0  0  0  0  0  0  0  0  0  # atno 17394 bound_to 11000
  140.7642  134.3905  157.5520 LP  0  0  0  0  0  0  0  0  0  0  0  0  # atno 17395 bound_to 11000

$$$$
