AV-unprocessed.smi:2995|AV-procd|sdf|11407|dock8
  -GOLD-   2272016333D 1   1.00000     0.00000
 Structure written by MMmdl.
 49 51  0  0  0  0  0  0  0  0  2 V2000
  153.1822  141.2463  159.5749 C   0  0  0  0  0  0  0  0  0  0  0  0
  152.4362  142.5632  159.6968 C   0  0  0  0  0  0  0  0  0  0  0  0
  152.8269  143.5024  160.6734 C   0  0  0  0  0  0  0  0  0  0  0  0
  152.1204  144.7168  160.7634 C   0  0  0  0  0  0  0  0  0  0  0  0
  151.0891  145.0342  159.9548 N   0  0  0  0  0  0  0  0  0  0  0  0
  150.7152  144.1334  159.0218 C   0  0  0  0  0  0  0  0  0  0  0  0
  151.3431  142.8738  158.8522 C   0  0  0  0  0  0  0  0  0  0  0  0
  150.9541  141.9404  157.8511 N   0  0  0  0  0  0  0  0  0  0  0  0
  149.7746  141.8489  157.2136 C   0  0  0  0  0  0  0  0  0  0  0  0
  148.8039  142.5816  157.4032 O   0  0  0  0  0  0  0  0  0  0  0  0
  149.7697  140.8274  156.3448 N   0  0  0  0  0  0  0  0  0  0  0  0
  148.6356  140.4435  155.5094 C   0  0  2  0  0  0  0  0  0  0  0  0
  148.4814  141.4082  154.3170 C   0  0  0  0  0  0  0  0  0  0  0  0
  147.2130  141.0902  153.5028 C   0  0  0  0  0  0  0  0  0  0  0  0
  145.9873  141.1088  154.3483 N   0  3  2  0  0  0  0  0  0  0  0  0
  145.5337  142.4738  154.7524 C   0  0  0  0  0  0  0  0  0  0  0  0
  144.0811  142.5178  155.2467 C   0  0  0  0  0  0  0  0  0  0  0  0
  143.6588  143.9845  155.1215 C   0  0  0  0  0  0  0  0  0  0  0  0
  144.5613  144.5974  154.0422 C   0  0  0  0  0  0  0  0  0  0  0  0
  145.5112  143.4815  153.5941 C   0  0  0  0  0  0  0  0  0  0  0  0
  146.1142  140.1395  155.4721 C   0  0  0  0  0  0  0  0  0  0  0  0
  147.3471  140.4297  156.3497 C   0  0  0  0  0  0  0  0  0  0  0  0
  153.9817  141.1732  160.3126 H   0  0  0  0  0  0  0  0  0  0  0  0
  153.6277  141.1521  158.5845 H   0  0  0  0  0  0  0  0  0  0  0  0
  152.5026  140.4080  159.7303 H   0  0  0  0  0  0  0  0  0  0  0  0
  153.6505  143.3018  161.3427 H   0  0  0  0  0  0  0  0  0  0  0  0
  152.3955  145.4557  161.5015 H   0  0  0  0  0  0  0  0  0  0  0  0
  149.9041  144.4547  158.3869 H   0  0  0  0  0  0  0  0  0  0  0  0
  151.6248  141.2120  157.6549 H   0  0  0  0  0  0  0  0  0  0  0  0
  150.6104  140.2751  156.2565 H   0  0  0  0  0  0  0  0  0  0  0  0
  148.8001  139.4338  155.1278 H   0  0  0  0  0  0  0  0  0  0  0  0
  148.4482  142.4397  154.6695 H   0  0  0  0  0  0  0  0  0  0  0  0
  149.3539  141.3397  153.6664 H   0  0  0  0  0  0  0  0  0  0  0  0
  147.1217  141.7694  152.6562 H   0  0  0  0  0  0  0  0  0  0  0  0
  147.3100  140.0949  153.0670 H   0  0  0  0  0  0  0  0  0  0  0  0
  146.1787  142.8654  155.5397 H   0  0  0  0  0  0  0  0  0  0  0  0
  143.4491  141.9041  154.6028 H   0  0  0  0  0  0  0  0  0  0  0  0
  143.9687  142.1537  156.2685 H   0  0  0  0  0  0  0  0  0  0  0  0
  142.6009  144.0761  154.8726 H   0  0  0  0  0  0  0  0  0  0  0  0
  143.8163  144.5014  156.0689 H   0  0  0  0  0  0  0  0  0  0  0  0
  143.9847  144.9868  153.2025 H   0  0  0  0  0  0  0  0  0  0  0  0
  145.1266  145.4300  154.4629 H   0  0  0  0  0  0  0  0  0  0  0  0
  146.5009  143.8700  153.3516 H   0  0  0  0  0  0  0  0  0  0  0  0
  145.1114  143.0088  152.6954 H   0  0  0  0  0  0  0  0  0  0  0  0
  145.2097  140.1137  156.0783 H   0  0  0  0  0  0  0  0  0  0  0  0
  146.2065  139.1389  155.0474 H   0  0  0  0  0  0  0  0  0  0  0  0
  147.4241  139.6728  157.1314 H   0  0  0  0  0  0  0  0  0  0  0  0
  147.2209  141.3835  156.8633 H   0  0  0  0  0  0  0  0  0  0  0  0
  145.2453  140.7526  153.7626 H   0  0  0  0  0  0  0  0  0  0  0  0
  1  2  1  0  0  0  0
  1 23  1  0  0  0  0
  1 24  1  0  0  0  0
  1 25  1  0  0  0  0
  2  7  1  0  0  0  0
  2  3  2  0  0  0  0
  3  4  1  0  0  0  0
  3 26  1  0  0  0  0
  4  5  2  0  0  0  0
  4 27  1  0  0  0  0
  5  6  1  0  0  0  0
  6  7  2  0  0  0  0
  6 28  1  0  0  0  0
  7  8  1  0  0  0  0
  8  9  1  0  0  0  0
  8 29  1  0  0  0  0
  9 10  2  0  0  0  0
  9 11  1  0  0  0  0
 11 12  1  0  0  0  0
 11 30  1  0  0  0  0
 12 22  1  0  0  0  0
 12 13  1  0  0  0  0
 12 31  1  0  0  0  0
 13 14  1  0  0  0  0
 13 32  1  0  0  0  0
 13 33  1  0  0  0  0
 14 15  1  0  0  0  0
 14 34  1  0  0  0  0
 14 35  1  0  0  0  0
 15 16  1  0  0  0  0
 15 21  1  0  0  0  0
 15 49  1  0  0  0  0
 16 20  1  0  0  0  0
 16 17  1  0  0  0  0
 16 36  1  0  0  0  0
 17 18  1  0  0  0  0
 17 37  1  0  0  0  0
 17 38  1  0  0  0  0
 18 19  1  0  0  0  0
 18 39  1  0  0  0  0
 18 40  1  0  0  0  0
 19 20  1  0  0  0  0
 19 41  1  0  0  0  0
 19 42  1  0  0  0  0
 20 43  1  0  0  0  0
 20 44  1  0  0  0  0
 21 22  1  0  0  0  0
 21 45  1  0  0  0  0
 21 46  1  0  0  0  0
 22 47  1  0  0  0  0
 22 48  1  0  0  0  0
M  CHG  1  15   1
M  END
> <s_m_source_file>
AV-unprocessed.smi

> <i_m_source_file_index>
2995

> <i_lp_mmshare_version>
43012

> <i_f3d_flags>
0

> <s_epik_input>
W0NIM11jMVtjSF1bY0hdbltjSF1jMVtOSF1DKD1PKVtOSF1bQ0hdMltDSDJdW0NIMl1OKFtDSDJdW0NIMl0yKVtDSF0zW0NIMl1bQ0gyXVtDSDJdW0NIMl0z

> <s_epik_cmdline>
J2VwaWtfcHl0aG9uJywgJy1waCcsICc3LjAnLCAnLXRuJywgJzgnLCAnLW1hJywgJzIwMCcsICctbWV0YWxfYmluZGluZycsICctaW1hZScsICc8aW5maWxlLm1hZT4nLCAnLW9tYWUnLCAnPG91dGZpbGUubWFlPic=

> <r_epik_Ionization_Penalty>
0.0196897

> <r_epik_Ionization_Penalty_Charging>
0.00179121

> <r_epik_Ionization_Penalty_Neutral>
0.0178985

> <r_epik_State_Penalty>
0.014187

> <r_epik_Charging_Adjusted_Penalty>
0.0159782

> <i_epik_Tot_Q>
1

> <i_epik_Tot_abs_Q>
1

> <r_epik_Metal_State_Penalty>
0.013703

> <b_epik_Metal_Only>
0

> <s_lp_Force_Field>
OPLS_2005

> <r_lp_Energy>
42.3495

> <b_lp_Chiralities_Consistent>
1

> <s_lp_Variant>
AV-unprocessed.smi:2995-2

> <Gold.Version>
5.8.1

> <Gold.Id.Protein>
6NUR|6NUR_protein|mol2

> <Gold.PLP.Fitness>
44.5935

> <Gold.PLP.PLP>
-37.7314

> <Gold.PLP.part.hbond>
-1.0000

> <Gold.PLP.part.metal>
0.0000

> <Gold.PLP.part.buried>
-8.7346

> <Gold.PLP.part.nonpolar>
-31.5793

> <Gold.PLP.part.repulsive>
3.0645

> <Gold.PLP.ligand.clash>
0.0000

> <Gold.PLP.ligand.torsion>
0.4346

> <Gold.PLP.Chemscore.Hbond>
2.0000

> <Gold.PLP.Chemscore.CHOScore>
0.5588

> <Gold.PLP.Chemscore.Metal>
0.0000

> <Gold.Chemscore.Hbonds>
donor molecule, donor type, donor heavy atom, donor atom, acceptor molecule, acceptor atom, score
      L1  H    15    49       P1 10175  1.98
      L1  C     6    28       P1  8028  0.06
      L1  C     6    28       P1  8029  0.47

> <Gold.PLP.Chemscore.Internal.Correction>
0.0549

> <Gold.Rescore>
     Score         DG    S(hbond)    S(metal)    S(lipo)     H(rot)  DE(clash)    DE(int)     intcor
     14.67     -17.83       0.92        0.00     104.86       1.17       0.04       3.11       ----

> <Gold.Chemscore.Fitness>
14.6735

> <Gold.Chemscore.DG>
-17.8283

> <Gold.Chemscore.ZeroCoef>
-5.4800

> <Gold.Chemscore.Hbond>
0.9229

> <Gold.Chemscore.Metal>
0.0000

> <Gold.Chemscore.Lipo>
104.8616

> <Gold.Chemscore.Internal_Hbond>
0.0000

> <Gold.Chemscore.DEClash>
0.0413

> <Gold.Chemscore.DEInternal>
3.1135

> <Gold.Chemscore.Rot>
1.1731

> <Gold.Chemscore.Internal.Correction>
   9.000000E+99

> <Gold.Chemscore.Hbonds>
donor molecule, donor type, donor heavy atom, donor atom, acceptor molecule, acceptor atom, score
      L1  H    15    49       P1 10175  0.87

> <Gold.Chemscore.Hbond.Weighted>
-3.0825

> <Gold.Chemscore.Metal.Weighted>
-0.0000

> <Gold.Chemscore.Lipo.Weighted>
-12.2688

> <Gold.Chemscore.Internal_Hbond.Weighted>
0.0000

> <Gold.Chemscore.DEClash.Weighted>
0.0413

> <Gold.Chemscore.DEInternal.Weighted>
3.1135

> <Gold.Chemscore.Rot.Weighted>
3.0030

> <Gold.Chemscore.Internal.Correction.Weighted>
   9.000000E+99

> <Gold.Protein.RotatedTorsions>
[ 6907 6896 6895 6894 ] final   89.07 input  -60.11 | X-H torsion
[ 7974 7965 7964 7962 ] final   58.71 input  175.53 | X-H torsion
[ 8008 7997 7996 7995 ] final  -26.62 input   59.86 | X-H torsion
[ 10167 10162 10161 10158 ] final -149.46 input  -65.29 | X-H torsion
[ 10718 10713 10712 10709 ] final -150.74 input   66.30 | X-H torsion
[ 10763 10752 10751 10750 ] final -101.93 input  -60.55 | X-H torsion
[ 11005 11000 10999 10996 ] final   15.98 input  -57.11 | X-H torsion

> <Gold.Protein.ActiveResidues>
 VAL166  LYS551  ARG553  GLY616  TRP617  ASP618  TYR619  PRO620  LYS621  CYS622 
 ASP623  PHE694  ASN695  SER759  ASP760  ASP761  ALA762  ILE779  LEU786  VAL792 
 PHE793  MET794  SER795  GLU796  ALA797  LYS798  CYS799  TRP800  GLU811  SER814 

> <Gold.Protein.RotatedAtoms>
  152.5432  134.2023  159.8716 H   0  0  0  0  0  0  0  0  0  0  0  0  # atno 6907 bound_to 6896
  151.2011  133.4603  159.2604 H   0  0  0  0  0  0  0  0  0  0  0  0  # atno 6908 bound_to 6896
  151.0988  134.9972  159.8494 H   0  0  0  0  0  0  0  0  0  0  0  0  # atno 6909 bound_to 6896
  145.9151  139.3685  143.0512 H   0  0  0  0  0  0  0  0  0  0  0  0  # atno 7974 bound_to 7965
  154.4416  140.1894  156.0804 H   0  0  0  0  0  0  0  0  0  0  0  0  # atno 8008 bound_to 7997
  156.0443  140.3316  155.7252 H   0  0  0  0  0  0  0  0  0  0  0  0  # atno 8009 bound_to 7997
  155.5653  140.0607  157.2810 H   0  0  0  0  0  0  0  0  0  0  0  0  # atno 8010 bound_to 7997
  139.7441  143.8618  152.2570 H   0  0  0  0  0  0  0  0  0  0  0  0  # atno 10167 bound_to 10162
  156.4501  130.8164  151.2394 H   0  0  0  0  0  0  0  0  0  0  0  0  # atno 10718 bound_to 10713
  154.7695  135.4879  153.9620 H   0  0  0  0  0  0  0  0  0  0  0  0  # atno 10763 bound_to 10752
  153.1350  135.6761  153.9125 H   0  0  0  0  0  0  0  0  0  0  0  0  # atno 10764 bound_to 10752
  153.8817  135.3131  155.3424 H   0  0  0  0  0  0  0  0  0  0  0  0  # atno 10765 bound_to 10752
  140.4523  134.1212  155.7704 H   0  0  0  0  0  0  0  0  0  0  0  0  # atno 11005 bound_to 11000
  145.8621  140.9469  143.0694 LP  0  0  0  0  0  0  0  0  0  0  0  0  # atno 17320 bound_to 7965
  144.6747  140.0544  143.7478 LP  0  0  0  0  0  0  0  0  0  0  0  0  # atno 17321 bound_to 7965
  139.8577  144.7133  150.9137 LP  0  0  0  0  0  0  0  0  0  0  0  0  # atno 17342 bound_to 10162
  140.7790  143.3845  151.1419 LP  0  0  0  0  0  0  0  0  0  0  0  0  # atno 17343 bound_to 10162
  157.7503  131.0140  150.3448 LP  0  0  0  0  0  0  0  0  0  0  0  0  # atno 17370 bound_to 10713
  156.3825  130.3883  149.7091 LP  0  0  0  0  0  0  0  0  0  0  0  0  # atno 17371 bound_to 10713
  141.1659  133.8704  157.1717 LP  0  0  0  0  0  0  0  0  0  0  0  0  # atno 17394 bound_to 11000
  139.9999  135.0032  157.0166 LP  0  0  0  0  0  0  0  0  0  0  0  0  # atno 17395 bound_to 11000

$$$$
