AV-unprocessed.smi:72|AV-procd|sdf|705|dock6
  -GOLD-   2262017 23D 1   1.00000     0.00000
 Structure written by MMmdl.
 30 31  0  0  0  0  0  0  0  0  2 V2000
  145.9919  138.8813  152.0663 N   0  0  0  0  0  0  0  0  0  0  0  0
  146.9946  139.2779  152.9267 C   0  0  0  0  0  0  0  0  0  0  0  0
  148.1497  138.5173  152.9619 N   0  3  0  0  0  0  0  0  0  0  0  0
  149.2141  138.7666  153.7370 C   0  0  0  0  0  0  0  0  0  0  0  0
  149.1894  139.8100  154.5415 N   0  0  0  0  0  0  0  0  0  0  0  0
  150.3520  140.1472  155.4440 C   0  0  2  0  0  0  0  0  0  0  0  0
  151.5365  139.9749  154.7257 O   0  0  0  0  0  0  0  0  0  0  0  0
  152.2154  138.8046  155.1709 C   0  0  1  0  0  0  0  0  0  0  0  0
  153.7128  138.8623  154.8235 C   0  0  0  0  0  0  0  0  0  0  0  0
  154.4217  137.9228  155.6028 O   0  0  0  0  0  0  0  0  0  0  0  0
  151.8803  138.7663  156.6665 C   0  0  1  0  0  0  0  0  0  0  0  0
  152.7039  139.6550  157.3993 O   0  0  0  0  0  0  0  0  0  0  0  0
  150.4325  139.2383  156.6948 C   0  0  2  0  0  0  0  0  0  0  0  0
  149.5679  138.1156  156.6441 O   0  0  0  0  0  0  0  0  0  0  0  0
  148.0454  140.6486  154.5774 C   0  0  0  0  0  0  0  0  0  0  0  0
  148.0096  141.6199  155.3319 O   0  0  0  0  0  0  0  0  0  0  0  0
  146.9833  140.3076  153.7270 N   0  0  0  0  0  0  0  0  0  0  0  0
  150.2522  141.2083  155.6789 H   0  0  0  0  0  0  0  0  0  0  0  0
  151.7612  137.9273  154.7071 H   0  0  0  0  0  0  0  0  0  0  0  0
  152.0068  137.7676  157.0871 H   0  0  0  0  0  0  0  0  0  0  0  0
  150.1970  139.8171  157.5892 H   0  0  0  0  0  0  0  0  0  0  0  0
  145.1157  139.3760  151.9734 H   0  0  0  0  0  0  0  0  0  0  0  0
  146.0497  138.0714  151.4658 H   0  0  0  0  0  0  0  0  0  0  0  0
  150.0700  138.1074  153.6834 H   0  0  0  0  0  0  0  0  0  0  0  0
  153.8847  138.6801  153.7621 H   0  0  0  0  0  0  0  0  0  0  0  0
  154.1147  139.8488  155.0558 H   0  0  0  0  0  0  0  0  0  0  0  0
  154.7965  138.3704  156.3463 H   0  0  0  0  0  0  0  0  0  0  0  0
  152.1523  140.2260  157.9121 H   0  0  0  0  0  0  0  0  0  0  0  0
  148.9219  138.2047  157.3287 H   0  0  0  0  0  0  0  0  0  0  0  0
  148.1914  137.7120  152.3538 H   0  0  0  0  0  0  0  0  0  0  0  0
  1  2  1  0  0  0  0
  1 22  1  0  0  0  0
  1 23  1  0  0  0  0
  2 17  2  0  0  0  0
  2  3  1  0  0  0  0
  3  4  2  0  0  0  0
  3 30  1  0  0  0  0
  4  5  1  0  0  0  0
  4 24  1  0  0  0  0
  5  6  1  0  0  0  0
  5 15  1  0  0  0  0
  6 18  1  0  0  0  0
  6 13  1  0  0  0  0
  6  7  1  0  0  0  0
  7  8  1  0  0  0  0
  8 19  1  0  0  0  0
  8  9  1  0  0  0  0
  8 11  1  0  0  0  0
  9 10  1  0  0  0  0
  9 25  1  0  0  0  0
  9 26  1  0  0  0  0
 10 27  1  0  0  0  0
 11 20  1  0  0  0  0
 11 12  1  0  0  0  0
 11 13  1  0  0  0  0
 12 28  1  0  0  0  0
 13 21  1  0  0  0  0
 13 14  1  0  0  0  0
 14 29  1  0  0  0  0
 15 16  2  0  0  0  0
 15 17  1  0  0  0  0
M  CHG  1   3   1
M  END
> <s_m_source_file>
AV-unprocessed.smi

> <i_m_source_file_index>
72

> <i_lp_mmshare_version>
43012

> <i_f3d_flags>
0

> <s_epik_input>
W05IMl1jMW5bY0hdbihjKD1PKW4xKVtDQEBIXTJPW0NASF0oW0NIMl1bT0hdKVtDQEBIXShbT0hdKVtDQEhdMltPSF0=

> <s_epik_cmdline>
J2VwaWtfcHl0aG9uJywgJy1waCcsICc3LjAnLCAnLXRuJywgJzgnLCAnLW1hJywgJzIwMCcsICctbWV0YWxfYmluZGluZycsICctaW1hZScsICc8aW5maWxlLm1hZT4nLCAnLW9tYWUnLCAnPG91dGZpbGUubWFlPic=

> <r_lp_tautomer_probability>
4.77166e-05

> <r_epik_Ionization_Penalty>
0.104979

> <r_epik_Ionization_Penalty_Charging>
0.0999619

> <r_epik_Ionization_Penalty_Neutral>
0.00501745

> <r_epik_State_Penalty>
2.51541

> <r_epik_Charging_Adjusted_Penalty>
2.61537

> <i_epik_Tot_Q>
1

> <i_epik_Tot_abs_Q>
1

> <r_epik_Metal_State_Penalty>
3.53763

> <b_epik_Metal_Only>
0

> <s_epik_Chemistry_Notes>
This compound contains an acetal/aminal-like group ( X-CH(R)-Y where X, Y are N, S, or O) that may be acid/base labile, releasing an aldehyde.

> <s_lp_Force_Field>
OPLS_2005

> <r_lp_Energy>
35.1753

> <b_lp_Chiralities_Consistent>
1

> <s_lp_Variant>
AV-unprocessed.smi:72-43

> <Gold.Version>
5.8.1

> <Gold.Id.Protein>
6NUR|6NUR_protein|mol2

> <Gold.PLP.Fitness>
38.9086

> <Gold.PLP.PLP>
-24.6548

> <Gold.PLP.part.hbond>
-7.6504

> <Gold.PLP.part.metal>
0.0000

> <Gold.PLP.part.buried>
0.4396

> <Gold.PLP.part.nonpolar>
-19.0467

> <Gold.PLP.part.repulsive>
0.7367

> <Gold.PLP.ligand.clash>
0.0000

> <Gold.PLP.ligand.torsion>
0.5882

> <Gold.PLP.Chemscore.Hbond>
4.9913

> <Gold.PLP.Chemscore.CHOScore>
0.1209

> <Gold.PLP.Chemscore.Metal>
0.0000

> <Gold.Chemscore.Hbonds>
donor molecule, donor type, donor heavy atom, donor atom, acceptor molecule, acceptor atom, score
      L1  H     1    22       P1 10175  1.00
      L1  H     3    30       P1  7948  2.00
      P1  H  7989  7998       L1     7  0.96
      P1  H  7997  8009       L1    12  1.00
      L1  C     4    24       P1  7948  0.12

> <Gold.PLP.Chemscore.Internal.Correction>
0.0938

> <Gold.Rescore>
     Score         DG    S(hbond)    S(metal)    S(lipo)     H(rot)  DE(clash)    DE(int)     intcor
      9.08     -10.70       3.77        0.00      26.25       4.08       0.84       0.78       ----

> <Gold.Chemscore.Fitness>
9.0810

> <Gold.Chemscore.DG>
-10.6964

> <Gold.Chemscore.ZeroCoef>
-5.4800

> <Gold.Chemscore.Hbond>
3.7680

> <Gold.Chemscore.Metal>
0.0000

> <Gold.Chemscore.Lipo>
26.2538

> <Gold.Chemscore.Internal_Hbond>
0.0000

> <Gold.Chemscore.DEClash>
0.8394

> <Gold.Chemscore.DEInternal>
0.7759

> <Gold.Chemscore.Rot>
4.0783

> <Gold.Chemscore.Internal.Correction>
   9.000000E+99

> <Gold.Chemscore.Hbonds>
donor molecule, donor type, donor heavy atom, donor atom, acceptor molecule, acceptor atom, score
      L1  H     1    22       P1 10175  0.97
      L1  H     3    30       P1  7948  0.95
      P1  H  7989  7998       L1     7  0.80
      P1  H  7997  8009       L1    12  0.81

> <Gold.Chemscore.Hbond.Weighted>
-12.5851

> <Gold.Chemscore.Metal.Weighted>
-0.0000

> <Gold.Chemscore.Lipo.Weighted>
-3.0717

> <Gold.Chemscore.Internal_Hbond.Weighted>
0.0000

> <Gold.Chemscore.DEClash.Weighted>
0.8394

> <Gold.Chemscore.DEInternal.Weighted>
0.7759

> <Gold.Chemscore.Rot.Weighted>
10.4404

> <Gold.Chemscore.Internal.Correction.Weighted>
   9.000000E+99

> <Gold.Protein.RotatedTorsions>
[ 6907 6896 6895 6894 ] final   33.78 input  -60.11 | X-H torsion
[ 7974 7965 7964 7962 ] final  137.38 input  175.53 | X-H torsion
[ 8008 7997 7996 7995 ] final -167.95 input   59.86 | X-H torsion
[ 10167 10162 10161 10158 ] final  -48.61 input  -65.29 | X-H torsion
[ 10718 10713 10712 10709 ] final  115.60 input   66.30 | X-H torsion
[ 10763 10752 10751 10750 ] final  133.46 input  -60.55 | X-H torsion
[ 11005 11000 10999 10996 ] final  -26.05 input  -57.11 | X-H torsion

> <Gold.Protein.ActiveResidues>
 VAL166  LYS551  ARG553  GLY616  TRP617  ASP618  TYR619  PRO620  LYS621  CYS622 
 ASP623  PHE694  ASN695  SER759  ASP760  ASP761  ALA762  ILE779  LEU786  VAL792 
 PHE793  MET794  SER795  GLU796  ALA797  LYS798  CYS799  TRP800  GLU811  SER814 

> <Gold.Protein.RotatedAtoms>
  152.0933  134.9392  160.0571 H   0  0  0  0  0  0  0  0  0  0  0  0  # atno 6907 bound_to 6896
  152.0635  133.4068  159.4436 H   0  0  0  0  0  0  0  0  0  0  0  0  # atno 6908 bound_to 6896
  150.6837  134.3093  159.4783 H   0  0  0  0  0  0  0  0  0  0  0  0  # atno 6909 bound_to 6896
  144.9473  139.4859  143.5542 H   0  0  0  0  0  0  0  0  0  0  0  0  # atno 7974 bound_to 7965
  155.8847  140.1015  157.1461 H   0  0  0  0  0  0  0  0  0  0  0  0  # atno 8008 bound_to 7997
  154.4008  140.1322  156.4304 H   0  0  0  0  0  0  0  0  0  0  0  0  # atno 8009 bound_to 7997
  155.7602  140.3463  155.5197 H   0  0  0  0  0  0  0  0  0  0  0  0  # atno 8010 bound_to 7997
  140.6723  143.2732  151.4096 H   0  0  0  0  0  0  0  0  0  0  0  0  # atno 10167 bound_to 10162
  157.6212  131.1014  150.7352 H   0  0  0  0  0  0  0  0  0  0  0  0  # atno 10718 bound_to 10713
  153.8075  135.3133  155.3397 H   0  0  0  0  0  0  0  0  0  0  0  0  # atno 10763 bound_to 10752
  154.8064  135.4695  154.0407 H   0  0  0  0  0  0  0  0  0  0  0  0  # atno 10764 bound_to 10752
  153.1775  135.6888  153.8612 H   0  0  0  0  0  0  0  0  0  0  0  0  # atno 10765 bound_to 10752
  140.8993  133.7535  156.0523 H   0  0  0  0  0  0  0  0  0  0  0  0  # atno 11005 bound_to 11000
  146.3308  139.8535  142.8869 LP  0  0  0  0  0  0  0  0  0  0  0  0  # atno 17320 bound_to 7965
  145.2897  141.0163  143.3670 LP  0  0  0  0  0  0  0  0  0  0  0  0  # atno 17321 bound_to 7965
  139.5997  144.1321  152.2184 LP  0  0  0  0  0  0  0  0  0  0  0  0  # atno 17342 bound_to 10162
  140.0702  144.5786  150.7198 LP  0  0  0  0  0  0  0  0  0  0  0  0  # atno 17343 bound_to 10162
  156.7709  130.4828  149.5418 LP  0  0  0  0  0  0  0  0  0  0  0  0  # atno 17370 bound_to 10713
  156.1359  130.6210  151.0399 LP  0  0  0  0  0  0  0  0  0  0  0  0  # atno 17371 bound_to 10713
  140.8249  134.3246  157.5369 LP  0  0  0  0  0  0  0  0  0  0  0  0  # atno 17394 bound_to 11000
  139.8740  134.9330  156.3570 LP  0  0  0  0  0  0  0  0  0  0  0  0  # atno 17395 bound_to 11000

$$$$
