AV-unprocessed.smi:819|AV-procd|sdf|3834|dock3
  -GOLD-   22720 1273D 1   1.00000     0.00000
 Structure written by MMmdl.
 40 41  0  0  0  0  0  0  0  0  1 V2000
  148.0603  135.2917  156.4372 C   0  0  0  0  0  0  0  0  0  0  0  0
  147.5673  136.3385  155.4239 C   0  0  2  0  0  0  0  0  0  0  0  0
  147.5220  135.7118  154.1038 N   0  0  0  0  0  0  0  0  0  0  0  0
  146.5256  134.9329  153.6554 C   0  0  0  0  0  0  0  0  0  0  0  0
  145.5414  134.6364  154.3328 O   0  0  0  0  0  0  0  0  0  0  0  0
  146.7385  134.5533  152.3839 N   0  0  0  0  0  0  0  0  0  0  0  0
  145.9137  133.7458  151.5548 C   0  0  0  0  0  0  0  0  0  0  0  0
  144.5223  133.7698  151.7819 C   0  0  0  0  0  0  0  0  0  0  0  0
  143.6800  132.9910  150.9658 C   0  0  0  0  0  0  0  0  0  0  0  0
  144.2648  132.2210  149.9421 C   0  0  0  0  0  0  0  0  0  0  0  0
  145.5922  132.1980  149.7001 N   0  0  0  0  0  0  0  0  0  0  0  0
  146.3947  132.9462  150.4879 C   0  0  0  0  0  0  0  0  0  0  0  0
  148.5544  137.5162  155.4134 C   0  0  0  0  0  0  0  0  0  0  0  0
  148.7437  138.1828  156.4322 O   0  0  0  0  0  0  0  0  0  0  0  0
  149.1800  137.7540  154.2510 N   0  0  0  0  0  0  0  0  0  0  0  0
  150.1824  138.7930  154.0335 C   0  0  0  0  0  0  0  0  0  0  0  0
  151.4259  138.5448  154.9090 C   0  0  0  0  0  0  0  0  0  0  0  0
  151.7455  139.8817  155.5800 C   0  0  0  0  0  0  0  0  0  0  0  0
  150.3912  140.5702  155.7125 C   0  0  0  0  0  0  0  0  0  0  0  0
  149.6502  140.1855  154.4319 C   0  0  0  0  0  0  0  0  0  0  0  0
  148.1229  135.7127  157.4416 H   0  0  0  0  0  0  0  0  0  0  0  0
  149.0465  134.9036  156.1770 H   0  0  0  0  0  0  0  0  0  0  0  0
  147.3759  134.4442  156.4841 H   0  0  0  0  0  0  0  0  0  0  0  0
  146.5696  136.6785  155.7091 H   0  0  0  0  0  0  0  0  0  0  0  0
  148.2886  135.9134  153.4788 H   0  0  0  0  0  0  0  0  0  0  0  0
  147.5534  134.9448  151.9348 H   0  0  0  0  0  0  0  0  0  0  0  0
  144.1031  134.3728  152.5744 H   0  0  0  0  0  0  0  0  0  0  0  0
  142.6112  132.9845  151.1201 H   0  0  0  0  0  0  0  0  0  0  0  0
  143.6494  131.6119  149.2964 H   0  0  0  0  0  0  0  0  0  0  0  0
  147.4411  132.9061  150.2291 H   0  0  0  0  0  0  0  0  0  0  0  0
  148.9661  137.1548  153.4670 H   0  0  0  0  0  0  0  0  0  0  0  0
  150.4740  138.8012  152.9815 H   0  0  0  0  0  0  0  0  0  0  0  0
  151.2110  137.8054  155.6823 H   0  0  0  0  0  0  0  0  0  0  0  0
  152.2694  138.1675  154.3298 H   0  0  0  0  0  0  0  0  0  0  0  0
  152.2513  139.7606  156.5384 H   0  0  0  0  0  0  0  0  0  0  0  0
  152.3944  140.4727  154.9323 H   0  0  0  0  0  0  0  0  0  0  0  0
  149.8597  140.1731  156.5784 H   0  0  0  0  0  0  0  0  0  0  0  0
  150.4773  141.6497  155.8397 H   0  0  0  0  0  0  0  0  0  0  0  0
  149.8959  140.9007  153.6461 H   0  0  0  0  0  0  0  0  0  0  0  0
  148.5679  140.2189  154.5647 H   0  0  0  0  0  0  0  0  0  0  0  0
  1  2  1  0  0  0  0
  1 21  1  0  0  0  0
  1 22  1  0  0  0  0
  1 23  1  0  0  0  0
  2  3  1  0  0  0  0
  2 13  1  0  0  0  0
  2 24  1  0  0  0  0
  3  4  1  0  0  0  0
  3 25  1  0  0  0  0
  4  5  2  0  0  0  0
  4  6  1  0  0  0  0
  6  7  1  0  0  0  0
  6 26  1  0  0  0  0
  7 12  1  0  0  0  0
  7  8  2  0  0  0  0
  8  9  1  0  0  0  0
  8 27  1  0  0  0  0
  9 10  2  0  0  0  0
  9 28  1  0  0  0  0
 10 11  1  0  0  0  0
 10 29  1  0  0  0  0
 11 12  2  0  0  0  0
 12 30  1  0  0  0  0
 13 14  2  0  0  0  0
 13 15  1  0  0  0  0
 15 16  1  0  0  0  0
 15 31  1  0  0  0  0
 16 20  1  0  0  0  0
 16 17  1  0  0  0  0
 16 32  1  0  0  0  0
 17 18  1  0  0  0  0
 17 33  1  0  0  0  0
 17 34  1  0  0  0  0
 18 19  1  0  0  0  0
 18 35  1  0  0  0  0
 18 36  1  0  0  0  0
 19 20  1  0  0  0  0
 19 37  1  0  0  0  0
 19 38  1  0  0  0  0
 20 39  1  0  0  0  0
 20 40  1  0  0  0  0
M  END
> <s_m_source_file>
AV-unprocessed.smi

> <i_m_source_file_index>
819

> <i_lp_mmshare_version>
43012

> <i_f3d_flags>
0

> <s_epik_input>
W0NIMl0xW0NIMl1bQ0gyXVtDSDJdW0NIXTFbTkhdQyg9TylbQ0BIXShbQ0gzXSlbTkhdQyg9TylbTkhdYzJbY0hdW2NIXVtjSF1uW2NIXTI=

> <s_epik_cmdline>
J2VwaWtfcHl0aG9uJywgJy1waCcsICc3LjAnLCAnLXRuJywgJzgnLCAnLW1hJywgJzIwMCcsICctbWV0YWxfYmluZGluZycsICctaW1hZScsICc8aW5maWxlLm1hZT4nLCAnLW9tYWUnLCAnPG91dGZpbGUubWFlPic=

> <r_epik_Ionization_Penalty>
0.00416979

> <r_epik_Ionization_Penalty_Charging>
0

> <r_epik_Ionization_Penalty_Neutral>
0.00416979

> <r_epik_State_Penalty>
0.00297037

> <r_epik_Charging_Adjusted_Penalty>
0.00297037

> <i_epik_Tot_Q>
0

> <i_epik_Tot_abs_Q>
0

> <r_epik_Metal_State_Penalty>
-0

> <b_epik_Metal_Only>
0

> <s_lp_Force_Field>
OPLS_2005

> <r_lp_Energy>
20.2836

> <b_lp_Chiralities_Consistent>
1

> <s_lp_Variant>
AV-unprocessed.smi:819-1

> <Gold.Version>
5.8.1

> <Gold.Id.Protein>
6NUR|6NUR_protein|mol2

> <Gold.PLP.Fitness>
43.4750

> <Gold.PLP.PLP>
-32.4544

> <Gold.PLP.part.hbond>
-3.0000

> <Gold.PLP.part.metal>
0.0000

> <Gold.PLP.part.buried>
-3.3031

> <Gold.PLP.part.nonpolar>
-26.5933

> <Gold.PLP.part.repulsive>
0.2395

> <Gold.PLP.ligand.clash>
0.0000

> <Gold.PLP.ligand.torsion>
0.4792

> <Gold.PLP.Chemscore.Hbond>
3.0000

> <Gold.PLP.Chemscore.CHOScore>
0.9885

> <Gold.PLP.Chemscore.Metal>
0.0000

> <Gold.Chemscore.Hbonds>
donor molecule, donor type, donor heavy atom, donor atom, acceptor molecule, acceptor atom, score
      L1  H     3    25       P1  7948  1.00
      L1  H     6    26       P1  7948  1.00
      L1  H    15    31       P1  7948  1.00
      L1  C    12    30       P1 10747  0.93

> <Gold.PLP.Chemscore.Internal.Correction>
0.0134

> <Gold.Rescore>
     Score         DG    S(hbond)    S(metal)    S(lipo)     H(rot)  DE(clash)    DE(int)     intcor
     15.84     -19.88       2.80        0.00      76.54       1.52       0.05       3.98       ----

> <Gold.Chemscore.Fitness>
15.8421

> <Gold.Chemscore.DG>
-19.8797

> <Gold.Chemscore.ZeroCoef>
-5.4800

> <Gold.Chemscore.Hbond>
2.7972

> <Gold.Chemscore.Metal>
0.0000

> <Gold.Chemscore.Lipo>
76.5353

> <Gold.Chemscore.Internal_Hbond>
0.0000

> <Gold.Chemscore.DEClash>
0.0544

> <Gold.Chemscore.DEInternal>
3.9831

> <Gold.Chemscore.Rot>
1.5225

> <Gold.Chemscore.Internal.Correction>
   9.000000E+99

> <Gold.Chemscore.Hbonds>
donor molecule, donor type, donor heavy atom, donor atom, acceptor molecule, acceptor atom, score
      L1  H     3    25       P1  7948  0.97
      L1  H     6    26       P1  7948  0.80
      L1  H    15    31       P1  7948  1.00

> <Gold.Chemscore.Hbond.Weighted>
-9.3428

> <Gold.Chemscore.Metal.Weighted>
-0.0000

> <Gold.Chemscore.Lipo.Weighted>
-8.9546

> <Gold.Chemscore.Internal_Hbond.Weighted>
0.0000

> <Gold.Chemscore.DEClash.Weighted>
0.0544

> <Gold.Chemscore.DEInternal.Weighted>
3.9831

> <Gold.Chemscore.Rot.Weighted>
3.8977

> <Gold.Chemscore.Internal.Correction.Weighted>
   9.000000E+99

> <Gold.Protein.RotatedTorsions>
[ 6907 6896 6895 6894 ] final  -59.27 input  -60.11 | X-H torsion
[ 7974 7965 7964 7962 ] final  -75.00 input  175.53 | X-H torsion
[ 8008 7997 7996 7995 ] final  170.53 input   59.86 | X-H torsion
[ 10167 10162 10161 10158 ] final -137.18 input  -65.29 | X-H torsion
[ 10718 10713 10712 10709 ] final  121.24 input   66.30 | X-H torsion
[ 10763 10752 10751 10750 ] final -170.31 input  -60.55 | X-H torsion
[ 11005 11000 10999 10996 ] final  -15.91 input  -57.11 | X-H torsion

> <Gold.Protein.ActiveResidues>
 VAL166  LYS551  ARG553  GLY616  TRP617  ASP618  TYR619  PRO620  LYS621  CYS622 
 ASP623  PHE694  ASN695  SER759  ASP760  ASP761  ALA762  ILE779  LEU786  VAL792 
 PHE793  MET794  SER795  GLU796  ALA797  LYS798  CYS799  TRP800  GLU811  SER814 

> <Gold.Protein.RotatedAtoms>
  150.7943  134.6990  159.6538 H   0  0  0  0  0  0  0  0  0  0  0  0  # atno 6907 bound_to 6896
  152.4053  134.6214  160.0061 H   0  0  0  0  0  0  0  0  0  0  0  0  # atno 6908 bound_to 6896
  151.6474  133.3286  159.3180 H   0  0  0  0  0  0  0  0  0  0  0  0  # atno 6909 bound_to 6896
  145.6317  140.9336  143.1083 H   0  0  0  0  0  0  0  0  0  0  0  0  # atno 7974 bound_to 7965
  156.1357  140.1535  156.8998 H   0  0  0  0  0  0  0  0  0  0  0  0  # atno 8008 bound_to 7997
  154.4945  140.0842  156.7706 H   0  0  0  0  0  0  0  0  0  0  0  0  # atno 8009 bound_to 7997
  155.4174  140.3421  155.4270 H   0  0  0  0  0  0  0  0  0  0  0  0  # atno 8010 bound_to 7997
  139.8603  143.7086  152.2650 H   0  0  0  0  0  0  0  0  0  0  0  0  # atno 10167 bound_to 10162
  157.5832  131.1072  150.8145 H   0  0  0  0  0  0  0  0  0  0  0  0  # atno 10718 bound_to 10713
  154.6429  135.2901  155.0081 H   0  0  0  0  0  0  0  0  0  0  0  0  # atno 10763 bound_to 10752
  154.1201  135.6549  153.4905 H   0  0  0  0  0  0  0  0  0  0  0  0  # atno 10764 bound_to 10752
  153.0336  135.5286  154.7304 H   0  0  0  0  0  0  0  0  0  0  0  0  # atno 10765 bound_to 10752
  140.8015  133.8210  155.9474 H   0  0  0  0  0  0  0  0  0  0  0  0  # atno 11005 bound_to 11000
  144.7191  139.8093  143.7388 LP  0  0  0  0  0  0  0  0  0  0  0  0  # atno 17320 bound_to 7965
  146.1351  139.4395  143.0144 LP  0  0  0  0  0  0  0  0  0  0  0  0  # atno 17321 bound_to 7965
  139.7380  144.7566  151.0697 LP  0  0  0  0  0  0  0  0  0  0  0  0  # atno 17342 bound_to 10162
  140.7776  143.5007  150.9775 LP  0  0  0  0  0  0  0  0  0  0  0  0  # atno 17343 bound_to 10162
  156.8586  130.5105  149.5305 LP  0  0  0  0  0  0  0  0  0  0  0  0  # atno 17370 bound_to 10713
  156.0880  130.5873  150.9682 LP  0  0  0  0  0  0  0  0  0  0  0  0  # atno 17371 bound_to 10713
  140.9290  134.2046  157.4876 LP  0  0  0  0  0  0  0  0  0  0  0  0  # atno 17394 bound_to 11000
  139.8721  134.9825  156.5158 LP  0  0  0  0  0  0  0  0  0  0  0  0  # atno 17395 bound_to 11000

$$$$
