AV-unprocessed.smi:218|AV-procd|sdf|1662|dock3
  -GOLD-   2262020 63D 1   1.00000     0.00000
 Structure written by MMmdl.
 54 57  0  0  0  0  0  0  0  0  1 V2000
  134.8358  140.6198  153.6076 C   0  0  0  0  0  0  0  0  0  0  0  0
  135.7873  141.7633  153.2357 C   0  0  0  0  0  0  0  0  0  0  0  0
  135.2482  142.5700  152.0417 C   0  0  0  0  0  0  0  0  0  0  0  0
  137.0435  141.1665  152.9068 O   0  0  0  0  0  0  0  0  0  0  0  0
  137.7271  140.4215  153.8484 C   0  0  0  0  0  0  0  0  0  0  0  0
  137.8867  139.0395  153.6188 C   0  0  0  0  0  0  0  0  0  0  0  0
  138.5777  138.2626  154.5708 C   0  0  0  0  0  0  0  0  0  0  0  0
  138.7511  136.7703  154.3558 C   0  0  0  0  0  0  0  0  0  0  0  0
  139.9944  136.2332  154.8943 N   0  0  0  0  0  0  0  0  0  0  0  0
  141.1675  136.5045  154.2838 C   0  0  0  0  0  0  0  0  0  0  0  0
  141.7628  137.7188  154.4178 N   0  0  0  0  0  0  0  0  0  0  0  0
  142.9224  137.9668  153.8005 C   0  0  0  0  0  0  0  0  0  0  0  0
  143.6401  137.1589  153.0161 N   0  0  0  0  0  0  0  0  0  0  0  0
  143.0432  135.9396  152.8792 C   0  0  0  0  0  0  0  0  0  0  0  0
  141.8191  135.5351  153.4789 C   0  0  0  0  0  0  0  0  0  0  0  0
  141.5307  134.2248  153.1196 N   0  0  0  0  0  0  0  0  0  0  0  0
  142.5289  133.8809  152.3499 C   0  0  0  0  0  0  0  0  0  0  0  0
  143.4818  134.8573  152.1496 N   0  0  0  0  0  0  0  0  0  0  0  0
  144.7342  134.8049  151.3363 C   0  0  2  0  0  0  0  0  0  0  0  0
  144.3735  134.5161  150.0166 O   0  0  0  0  0  0  0  0  0  0  0  0
  144.9725  133.2977  149.5771 C   0  0  2  0  0  0  0  0  0  0  0  0
  144.0233  132.5617  148.6191 C   0  0  0  0  0  0  0  0  0  0  0  0
  143.7510  133.3684  147.4936 O   0  0  0  0  0  0  0  0  0  0  0  0
  145.2349  132.5400  150.8789 C   0  0  1  0  0  0  0  0  0  0  0  0
  146.2389  131.5503  150.7622 O   0  0  0  0  0  0  0  0  0  0  0  0
  145.6192  133.6573  151.8372 C   0  0  1  0  0  0  0  0  0  0  0  0
  146.9897  134.0072  151.7632 O   0  0  0  0  0  0  0  0  0  0  0  0
  139.0751  138.9016  155.7263 C   0  0  0  0  0  0  0  0  0  0  0  0
  138.8663  140.2868  155.8688 C   0  0  0  0  0  0  0  0  0  0  0  0
  138.2100  141.0352  154.9574 N   0  0  0  0  0  0  0  0  0  0  0  0
  145.1726  135.7989  151.4356 H   0  0  0  0  0  0  0  0  0  0  0  0
  145.9235  133.5268  149.0924 H   0  0  0  0  0  0  0  0  0  0  0  0
  144.3117  132.0716  151.2239 H   0  0  0  0  0  0  0  0  0  0  0  0
  145.3895  133.4047  152.8736 H   0  0  0  0  0  0  0  0  0  0  0  0
  133.8502  140.9998  153.8777 H   0  0  0  0  0  0  0  0  0  0  0  0
  135.2182  140.0568  154.4594 H   0  0  0  0  0  0  0  0  0  0  0  0
  134.7104  139.9238  152.7777 H   0  0  0  0  0  0  0  0  0  0  0  0
  135.8749  142.4072  154.1121 H   0  0  0  0  0  0  0  0  0  0  0  0
  134.2720  142.9986  152.2700 H   0  0  0  0  0  0  0  0  0  0  0  0
  135.1359  141.9389  151.1598 H   0  0  0  0  0  0  0  0  0  0  0  0
  135.9107  143.3935  151.7765 H   0  0  0  0  0  0  0  0  0  0  0  0
  137.4827  138.5862  152.7253 H   0  0  0  0  0  0  0  0  0  0  0  0
  137.9055  136.2616  154.8208 H   0  0  0  0  0  0  0  0  0  0  0  0
  138.7072  136.5580  153.2867 H   0  0  0  0  0  0  0  0  0  0  0  0
  139.9094  135.6315  155.7010 H   0  0  0  0  0  0  0  0  0  0  0  0
  143.3328  138.9538  153.9558 H   0  0  0  0  0  0  0  0  0  0  0  0
  142.5923  132.8989  151.9047 H   0  0  0  0  0  0  0  0  0  0  0  0
  144.4916  131.6454  148.2582 H   0  0  0  0  0  0  0  0  0  0  0  0
  143.0955  132.2769  149.1158 H   0  0  0  0  0  0  0  0  0  0  0  0
  142.9363  133.0833  147.1091 H   0  0  0  0  0  0  0  0  0  0  0  0
  147.0295  131.9666  150.4530 H   0  0  0  0  0  0  0  0  0  0  0  0
  147.0893  134.8953  152.0710 H   0  0  0  0  0  0  0  0  0  0  0  0
  139.5997  138.3491  156.4919 H   0  0  0  0  0  0  0  0  0  0  0  0
  139.2333  140.8076  156.7409 H   0  0  0  0  0  0  0  0  0  0  0  0
  1  2  1  0  0  0  0
  1 35  1  0  0  0  0
  1 36  1  0  0  0  0
  1 37  1  0  0  0  0
  2  3  1  0  0  0  0
  2  4  1  0  0  0  0
  2 38  1  0  0  0  0
  3 39  1  0  0  0  0
  3 40  1  0  0  0  0
  3 41  1  0  0  0  0
  4  5  1  0  0  0  0
  5 30  1  0  0  0  0
  5  6  2  0  0  0  0
  6  7  1  0  0  0  0
  6 42  1  0  0  0  0
  7  8  1  0  0  0  0
  7 28  2  0  0  0  0
  8  9  1  0  0  0  0
  8 43  1  0  0  0  0
  8 44  1  0  0  0  0
  9 10  1  0  0  0  0
  9 45  1  0  0  0  0
 10 15  1  0  0  0  0
 10 11  2  0  0  0  0
 11 12  1  0  0  0  0
 12 13  2  0  0  0  0
 12 46  1  0  0  0  0
 13 14  1  0  0  0  0
 14 18  1  0  0  0  0
 14 15  2  0  0  0  0
 15 16  1  0  0  0  0
 16 17  2  0  0  0  0
 17 18  1  0  0  0  0
 17 47  1  0  0  0  0
 18 19  1  0  0  0  0
 19 31  1  0  0  0  0
 19 26  1  0  0  0  0
 19 20  1  0  0  0  0
 20 21  1  0  0  0  0
 21 32  1  0  0  0  0
 21 22  1  0  0  0  0
 21 24  1  0  0  0  0
 22 23  1  0  0  0  0
 22 48  1  0  0  0  0
 22 49  1  0  0  0  0
 23 50  1  0  0  0  0
 24 33  1  0  0  0  0
 24 25  1  0  0  0  0
 24 26  1  0  0  0  0
 25 51  1  0  0  0  0
 26 34  1  0  0  0  0
 26 27  1  0  0  0  0
 27 52  1  0  0  0  0
 28 29  1  0  0  0  0
 28 53  1  0  0  0  0
 29 30  2  0  0  0  0
 29 54  1  0  0  0  0
M  END
> <s_m_source_file>
AV-unprocessed.smi

> <i_m_source_file_index>
218

> <i_lp_mmshare_version>
43012

> <i_f3d_flags>
0

> <s_epik_input>
W0NIM11bQ0hdKFtDSDNdKU9jMVtjSF1jKFtjSF1bY0hdbjEpW0NIMl1bTkhdYyhuW2NIXW4yKWMoYzIzKW5bY0hdbjNbQ0BASF00T1tDQEhdKFtDSDJdW09IXSlbQ0BASF0oW09IXSlbQ0BIXTRbT0hd

> <s_epik_cmdline>
J2VwaWtfcHl0aG9uJywgJy1waCcsICc3LjAnLCAnLXRuJywgJzgnLCAnLW1hJywgJzIwMCcsICctbWV0YWxfYmluZGluZycsICctaW1hZScsICc8aW5maWxlLm1hZT4nLCAnLW9tYWUnLCAnPG91dGZpbGUubWFlPic=

> <r_lp_tautomer_probability>
1

> <r_epik_Ionization_Penalty>
0.00457014

> <r_epik_Ionization_Penalty_Charging>
0

> <r_epik_Ionization_Penalty_Neutral>
0.00457014

> <r_epik_State_Penalty>
-0

> <r_epik_Charging_Adjusted_Penalty>
0

> <i_epik_Tot_Q>
0

> <i_epik_Tot_abs_Q>
0

> <r_epik_Metal_State_Penalty>
-0

> <b_epik_Metal_Only>
0

> <s_epik_Chemistry_Notes>
This compound contains an acetal/aminal-like group ( X-CH(R)-Y where X, Y are N, S, or O) that may be acid/base labile, releasing an aldehyde.

> <s_lp_Force_Field>
OPLS_2005

> <r_lp_Energy>
38.2737

> <b_lp_Chiralities_Consistent>
1

> <s_lp_Variant>
AV-unprocessed.smi:218-1

> <Gold.Version>
5.8.1

> <Gold.Id.Protein>
6NUR|6NUR_protein|mol2

> <Gold.PLP.Fitness>
53.2654

> <Gold.PLP.PLP>
-43.1982

> <Gold.PLP.part.hbond>
-6.0000

> <Gold.PLP.part.metal>
0.0000

> <Gold.PLP.part.buried>
-2.7042

> <Gold.PLP.part.nonpolar>
-34.6039

> <Gold.PLP.part.repulsive>
1.9829

> <Gold.PLP.ligand.clash>
0.0000

> <Gold.PLP.ligand.torsion>
1.1872

> <Gold.PLP.Chemscore.Hbond>
3.2672

> <Gold.PLP.Chemscore.CHOScore>
0.8158

> <Gold.PLP.Chemscore.Metal>
0.0000

> <Gold.Chemscore.Hbonds>
donor molecule, donor type, donor heavy atom, donor atom, acceptor molecule, acceptor atom, score
      L1  H     9    45       P1 11000  1.00
      L1  H    23    50       P1 10195  0.90
      L1  H    25    51       P1 10747  0.21
      L1  H    27    52       P1  7948  0.22
      P1  H  7918  7932       L1    23  0.80
      L1  C    12    46       P1 10175  0.94

> <Gold.PLP.Chemscore.Internal.Correction>
0.1927

> <Gold.Rescore>
     Score         DG    S(hbond)    S(metal)    S(lipo)     H(rot)  DE(clash)    DE(int)     intcor
      9.79     -13.83       3.05        0.00      91.56       4.90       2.80       1.23       ----

> <Gold.Chemscore.Fitness>
9.7948

> <Gold.Chemscore.DG>
-13.8255

> <Gold.Chemscore.ZeroCoef>
-5.4800

> <Gold.Chemscore.Hbond>
3.0492

> <Gold.Chemscore.Metal>
0.0000

> <Gold.Chemscore.Lipo>
91.5605

> <Gold.Chemscore.Internal_Hbond>
0.0000

> <Gold.Chemscore.DEClash>
2.8000

> <Gold.Chemscore.DEInternal>
1.2306

> <Gold.Chemscore.Rot>
4.9029

> <Gold.Chemscore.Internal.Correction>
   9.000000E+99

> <Gold.Chemscore.Hbonds>
donor molecule, donor type, donor heavy atom, donor atom, acceptor molecule, acceptor atom, score
      L1  H     9    45       P1 11000  0.96
      L1  H    23    50       P1 10195  0.87
      L1  H    25    51       P1 10747  0.22
      L1  H    27    52       P1  7948  0.21
      P1  H  7918  7932       L1    23  0.44

> <Gold.Chemscore.Hbond.Weighted>
-10.1844

> <Gold.Chemscore.Metal.Weighted>
-0.0000

> <Gold.Chemscore.Lipo.Weighted>
-10.7126

> <Gold.Chemscore.Internal_Hbond.Weighted>
0.0000

> <Gold.Chemscore.DEClash.Weighted>
2.8000

> <Gold.Chemscore.DEInternal.Weighted>
1.2306

> <Gold.Chemscore.Rot.Weighted>
12.5515

> <Gold.Chemscore.Internal.Correction.Weighted>
   9.000000E+99

> <Gold.Protein.RotatedTorsions>
[ 6907 6896 6895 6894 ] final -116.49 input  -60.11 | X-H torsion
[ 7974 7965 7964 7962 ] final  -92.89 input  175.53 | X-H torsion
[ 8008 7997 7996 7995 ] final  -14.81 input   59.86 | X-H torsion
[ 10167 10162 10161 10158 ] final  175.24 input  -65.29 | X-H torsion
[ 10718 10713 10712 10709 ] final  -39.09 input   66.30 | X-H torsion
[ 10763 10752 10751 10750 ] final  178.31 input  -60.55 | X-H torsion
[ 11005 11000 10999 10996 ] final -116.01 input  -57.11 | X-H torsion

> <Gold.Protein.ActiveResidues>
 VAL166  LYS551  ARG553  GLY616  TRP617  ASP618  TYR619  PRO620  LYS621  CYS622 
 ASP623  PHE694  ASN695  SER759  ASP760  ASP761  ALA762  ILE779  LEU786  VAL792 
 PHE793  MET794  SER795  GLU796  ALA797  LYS798  CYS799  TRP800  GLU811  SER814 

> <Gold.Protein.RotatedAtoms>
  150.8060  133.8510  159.3205 H   0  0  0  0  0  0  0  0  0  0  0  0  # atno 6907 bound_to 6896
  151.6309  135.1021  160.0131 H   0  0  0  0  0  0  0  0  0  0  0  0  # atno 6908 bound_to 6896
  152.4150  133.6984  159.6466 H   0  0  0  0  0  0  0  0  0  0  0  0  # atno 6909 bound_to 6896
  145.3938  140.9531  143.2325 H   0  0  0  0  0  0  0  0  0  0  0  0  # atno 7974 bound_to 7965
  154.5180  140.2213  155.9030 H   0  0  0  0  0  0  0  0  0  0  0  0  # atno 8008 bound_to 7997
  156.1629  140.3138  155.8804 H   0  0  0  0  0  0  0  0  0  0  0  0  # atno 8009 bound_to 7997
  155.3714  140.0467  157.3036 H   0  0  0  0  0  0  0  0  0  0  0  0  # atno 8010 bound_to 7997
  139.5170  144.3054  152.0341 H   0  0  0  0  0  0  0  0  0  0  0  0  # atno 10167 bound_to 10162
  156.2964  130.4234  149.8187 H   0  0  0  0  0  0  0  0  0  0  0  0  # atno 10718 bound_to 10713
  154.5060  135.2786  155.1382 H   0  0  0  0  0  0  0  0  0  0  0  0  # atno 10763 bound_to 10752
  154.2996  135.6250  153.5423 H   0  0  0  0  0  0  0  0  0  0  0  0  # atno 10764 bound_to 10752
  152.9910  135.5693  154.5514 H   0  0  0  0  0  0  0  0  0  0  0  0  # atno 10765 bound_to 10752
  141.0450  133.9776  157.2932 H   0  0  0  0  0  0  0  0  0  0  0  0  # atno 11005 bound_to 11000
  144.8421  139.5455  143.6895 LP  0  0  0  0  0  0  0  0  0  0  0  0  # atno 17320 bound_to 7965
  146.2785  139.6814  142.9246 LP  0  0  0  0  0  0  0  0  0  0  0  0  # atno 17321 bound_to 7965
  140.2500  144.4179  150.6225 LP  0  0  0  0  0  0  0  0  0  0  0  0  # atno 17342 bound_to 10162
  140.6231  143.2178  151.6652 LP  0  0  0  0  0  0  0  0  0  0  0  0  # atno 17343 bound_to 10162
  156.5581  130.8371  151.3320 LP  0  0  0  0  0  0  0  0  0  0  0  0  # atno 17370 bound_to 10713
  157.7356  130.9765  150.2093 LP  0  0  0  0  0  0  0  0  0  0  0  0  # atno 17371 bound_to 10713
  139.9305  135.0200  156.8384 LP  0  0  0  0  0  0  0  0  0  0  0  0  # atno 17394 bound_to 11000
  140.6163  134.0036  155.7598 LP  0  0  0  0  0  0  0  0  0  0  0  0  # atno 17395 bound_to 11000

$$$$
