AV-unprocessed.smi:460|AV-procd|sdf|2629|dock8
  -GOLD-   2262023 33D 1   1.00000     0.00000
 Structure written by MMmdl.
 47 49  0  0  0  0  0  0  0  0  2 V2000
  147.4470  141.0976  153.4620 C   0  0  0  0  0  0  0  0  0  0  0  0
  148.4283  141.6734  154.4928 C   0  0  0  0  0  0  0  0  0  0  0  0
  149.4209  140.6378  155.0539 C   0  0  1  0  0  0  0  0  0  0  0  0
  150.2571  140.2064  154.0012 O   0  0  0  0  0  0  0  0  0  0  0  0
  150.2165  141.1899  156.1987 C   0  0  0  0  0  0  0  0  0  0  0  0
  150.4695  142.5109  156.4236 N   0  3  0  0  0  0  0  0  0  0  0  0
  151.2454  142.6570  157.5732 C   0  0  0  0  0  0  0  0  0  0  0  0
  151.7535  143.7954  158.1911 C   0  0  0  0  0  0  0  0  0  0  0  0
  152.5198  143.5933  159.3578 C   0  0  0  0  0  0  0  0  0  0  0  0
  152.7557  142.2992  159.8661 C   0  0  0  0  0  0  0  0  0  0  0  0
  152.2339  141.1527  159.2311 C   0  0  0  0  0  0  0  0  0  0  0  0
  151.4752  141.3618  158.0797 C   0  0  0  0  0  0  0  0  0  0  0  0
  150.8155  140.4896  157.2068 N   0  0  0  0  0  0  0  0  0  0  0  0
  150.8734  139.0428  157.4640 C   0  0  0  0  0  0  0  0  0  0  0  0
  149.4852  138.4551  157.7518 C   0  0  0  0  0  0  0  0  0  0  0  0
  149.5841  137.0373  157.7663 O   0  0  0  0  0  0  0  0  0  0  0  0
  148.8848  136.3332  158.7229 C   0  0  0  0  0  0  0  0  0  0  0  0
  148.4376  136.8980  159.9439 C   0  0  0  0  0  0  0  0  0  0  0  0
  147.7278  136.1165  160.8733 C   0  0  0  0  0  0  0  0  0  0  0  0
  147.4575  134.7660  160.5942 C   0  0  0  0  0  0  0  0  0  0  0  0
  147.8962  134.1963  159.3852 C   0  0  0  0  0  0  0  0  0  0  0  0
  148.6126  134.9745  158.4407 C   0  0  0  0  0  0  0  0  0  0  0  0
  149.0757  134.4816  157.2378 O   0  0  0  0  0  0  0  0  0  0  0  0
  148.8450  133.1129  156.9380 C   0  0  0  0  0  0  0  0  0  0  0  0
  146.7960  141.8795  153.0705 H   0  0  0  0  0  0  0  0  0  0  0  0
  146.8096  140.3281  153.8982 H   0  0  0  0  0  0  0  0  0  0  0  0
  147.9781  140.6564  152.6182 H   0  0  0  0  0  0  0  0  0  0  0  0
  148.9855  142.4832  154.0198 H   0  0  0  0  0  0  0  0  0  0  0  0
  147.8662  142.1293  155.3089 H   0  0  0  0  0  0  0  0  0  0  0  0
  148.8688  139.7611  155.3918 H   0  0  0  0  0  0  0  0  0  0  0  0
  149.7506  140.1991  153.2026 H   0  0  0  0  0  0  0  0  0  0  0  0
  151.5762  144.7873  157.8016 H   0  0  0  0  0  0  0  0  0  0  0  0
  152.9364  144.4475  159.8718 H   0  0  0  0  0  0  0  0  0  0  0  0
  153.3495  142.1829  160.7612 H   0  0  0  0  0  0  0  0  0  0  0  0
  152.4228  140.1662  159.6276 H   0  0  0  0  0  0  0  0  0  0  0  0
  151.3443  138.5458  156.6156 H   0  0  0  0  0  0  0  0  0  0  0  0
  151.5331  138.8802  158.3160 H   0  0  0  0  0  0  0  0  0  0  0  0
  149.1270  138.8184  158.7163 H   0  0  0  0  0  0  0  0  0  0  0  0
  148.7824  138.7806  156.9837 H   0  0  0  0  0  0  0  0  0  0  0  0
  148.6246  137.9318  160.1910 H   0  0  0  0  0  0  0  0  0  0  0  0
  147.3898  136.5543  161.8010 H   0  0  0  0  0  0  0  0  0  0  0  0
  146.9127  134.1656  161.3079 H   0  0  0  0  0  0  0  0  0  0  0  0
  147.6702  133.1561  159.2065 H   0  0  0  0  0  0  0  0  0  0  0  0
  149.2638  132.8843  155.9583 H   0  0  0  0  0  0  0  0  0  0  0  0
  147.7787  132.8864  156.9008 H   0  0  0  0  0  0  0  0  0  0  0  0
  149.3297  132.4586  157.6638 H   0  0  0  0  0  0  0  0  0  0  0  0
  150.1378  143.2548  155.8231 H   0  0  0  0  0  0  0  0  0  0  0  0
  1  2  1  0  0  0  0
  1 25  1  0  0  0  0
  1 26  1  0  0  0  0
  1 27  1  0  0  0  0
  2  3  1  0  0  0  0
  2 28  1  0  0  0  0
  2 29  1  0  0  0  0
  3  4  1  0  0  0  0
  3  5  1  0  0  0  0
  3 30  1  0  0  0  0
  4 31  1  0  0  0  0
  5 13  1  0  0  0  0
  5  6  2  0  0  0  0
  6  7  1  0  0  0  0
  6 47  1  0  0  0  0
  7 12  2  0  0  0  0
  7  8  1  0  0  0  0
  8  9  2  0  0  0  0
  8 32  1  0  0  0  0
  9 10  1  0  0  0  0
  9 33  1  0  0  0  0
 10 11  2  0  0  0  0
 10 34  1  0  0  0  0
 11 12  1  0  0  0  0
 11 35  1  0  0  0  0
 12 13  1  0  0  0  0
 13 14  1  0  0  0  0
 14 15  1  0  0  0  0
 14 36  1  0  0  0  0
 14 37  1  0  0  0  0
 15 16  1  0  0  0  0
 15 38  1  0  0  0  0
 15 39  1  0  0  0  0
 16 17  1  0  0  0  0
 17 22  1  0  0  0  0
 17 18  2  0  0  0  0
 18 19  1  0  0  0  0
 18 40  1  0  0  0  0
 19 20  2  0  0  0  0
 19 41  1  0  0  0  0
 20 21  1  0  0  0  0
 20 42  1  0  0  0  0
 21 22  2  0  0  0  0
 21 43  1  0  0  0  0
 22 23  1  0  0  0  0
 23 24  1  0  0  0  0
 24 44  1  0  0  0  0
 24 45  1  0  0  0  0
 24 46  1  0  0  0  0
M  CHG  1   6   1
M  END
> <s_m_source_file>
AV-unprocessed.smi

> <i_m_source_file_index>
460

> <i_lp_mmshare_version>
43012

> <i_f3d_flags>
0

> <s_epik_input>
W2NIXTFbY0hdW2NIXVtjSF1jKGMxMiluKGMobjIpW0NAQEhdKFtPSF0pW0NIMl1bQ0gzXSlbQ0gyXVtDSDJdT2MzW2NIXVtjSF1bY0hdW2NIXWMzT1tDSDNd

> <s_epik_cmdline>
J2VwaWtfcHl0aG9uJywgJy1waCcsICc3LjAnLCAnLXRuJywgJzgnLCAnLW1hJywgJzIwMCcsICctbWV0YWxfYmluZGluZycsICctaW1hZScsICc8aW5maWxlLm1hZT4nLCAnLW9tYWUnLCAnPG91dGZpbGUubWFlPic=

> <r_lp_tautomer_probability>
1

> <r_epik_Ionization_Penalty>
1.48085

> <r_epik_Ionization_Penalty_Charging>
1.48083

> <r_epik_Ionization_Penalty_Neutral>
1.80167e-05

> <r_epik_State_Penalty>
1.56944

> <r_epik_Charging_Adjusted_Penalty>
3.05027

> <i_epik_Tot_Q>
1

> <i_epik_Tot_abs_Q>
1

> <r_epik_Metal_State_Penalty>
5.61877

> <b_epik_Metal_Only>
0

> <s_lp_Force_Field>
OPLS_2005

> <r_lp_Energy>
21.4697

> <b_lp_Chiralities_Consistent>
1

> <s_lp_Variant>
AV-unprocessed.smi:460-4

> <Gold.Version>
5.8.1

> <Gold.Id.Protein>
6NUR|6NUR_protein|mol2

> <Gold.PLP.Fitness>
53.2025

> <Gold.PLP.PLP>
-44.6258

> <Gold.PLP.part.hbond>
-2.8599

> <Gold.PLP.part.metal>
0.0000

> <Gold.PLP.part.buried>
-5.9155

> <Gold.PLP.part.nonpolar>
-36.9191

> <Gold.PLP.part.repulsive>
0.0806

> <Gold.PLP.ligand.clash>
0.0000

> <Gold.PLP.ligand.torsion>
1.3322

> <Gold.PLP.Chemscore.Hbond>
3.7108

> <Gold.PLP.Chemscore.CHOScore>
0.0000

> <Gold.PLP.Chemscore.Metal>
0.0000

> <Gold.Chemscore.Hbonds>
donor molecule, donor type, donor heavy atom, donor atom, acceptor molecule, acceptor atom, score
      L1  H     4    31       P1  7957  0.94
      L1  H     6    47       P1  8028  1.82
      P1  H  7989  7998       L1     4  0.93

> <Gold.PLP.Chemscore.Internal.Correction>
0.1089

> <Gold.Rescore>
     Score         DG    S(hbond)    S(metal)    S(lipo)     H(rot)  DE(clash)    DE(int)     intcor
     19.46     -20.94       2.30        0.00     120.09       2.45       0.09       1.39       ----

> <Gold.Chemscore.Fitness>
19.4622

> <Gold.Chemscore.DG>
-20.9407

> <Gold.Chemscore.ZeroCoef>
-5.4800

> <Gold.Chemscore.Hbond>
2.2961

> <Gold.Chemscore.Metal>
0.0000

> <Gold.Chemscore.Lipo>
120.0923

> <Gold.Chemscore.Internal_Hbond>
0.0000

> <Gold.Chemscore.DEClash>
0.0934

> <Gold.Chemscore.DEInternal>
1.3850

> <Gold.Chemscore.Rot>
2.4450

> <Gold.Chemscore.Internal.Correction>
   9.000000E+99

> <Gold.Chemscore.Hbonds>
donor molecule, donor type, donor heavy atom, donor atom, acceptor molecule, acceptor atom, score
      L1  H     4    31       P1  7957  0.86
      L1  H     6    47       P1  8028  0.89
      P1  H  7989  7998       L1     4  0.23

> <Gold.Chemscore.Hbond.Weighted>
-7.6691

> <Gold.Chemscore.Metal.Weighted>
-0.0000

> <Gold.Chemscore.Lipo.Weighted>
-14.0508

> <Gold.Chemscore.Internal_Hbond.Weighted>
0.0000

> <Gold.Chemscore.DEClash.Weighted>
0.0934

> <Gold.Chemscore.DEInternal.Weighted>
1.3850

> <Gold.Chemscore.Rot.Weighted>
6.2593

> <Gold.Chemscore.Internal.Correction.Weighted>
   9.000000E+99

> <Gold.Protein.RotatedTorsions>
[ 6907 6896 6895 6894 ] final  -64.20 input  -60.11 | X-H torsion
[ 7974 7965 7964 7962 ] final  -98.18 input  175.53 | X-H torsion
[ 8008 7997 7996 7995 ] final -174.59 input   59.86 | X-H torsion
[ 10167 10162 10161 10158 ] final -153.62 input  -65.29 | X-H torsion
[ 10718 10713 10712 10709 ] final -154.99 input   66.30 | X-H torsion
[ 10763 10752 10751 10750 ] final  -80.74 input  -60.55 | X-H torsion
[ 11005 11000 10999 10996 ] final   90.72 input  -57.11 | X-H torsion

> <Gold.Protein.ActiveResidues>
 VAL166  LYS551  ARG553  GLY616  TRP617  ASP618  TYR619  PRO620  LYS621  CYS622 
 ASP623  PHE694  ASN695  SER759  ASP760  ASP761  ALA762  ILE779  LEU786  VAL792 
 PHE793  MET794  SER795  GLU796  ALA797  LYS798  CYS799  TRP800  GLU811  SER814 

> <Gold.Protein.RotatedAtoms>
  150.7600  134.6330  159.6196 H   0  0  0  0  0  0  0  0  0  0  0  0  # atno 6907 bound_to 6896
  152.3602  134.6880  160.0218 H   0  0  0  0  0  0  0  0  0  0  0  0  # atno 6908 bound_to 6896
  151.7272  133.3280  159.3367 H   0  0  0  0  0  0  0  0  0  0  0  0  # atno 6909 bound_to 6896
  145.3240  140.9427  143.2699 H   0  0  0  0  0  0  0  0  0  0  0  0  # atno 7974 bound_to 7965
  155.9720  140.1165  157.0803 H   0  0  0  0  0  0  0  0  0  0  0  0  # atno 8008 bound_to 7997
  154.4159  140.1161  156.5387 H   0  0  0  0  0  0  0  0  0  0  0  0  # atno 8009 bound_to 7997
  155.6584  140.3473  155.4776 H   0  0  0  0  0  0  0  0  0  0  0  0  # atno 8010 bound_to 7997
  139.7081  143.9153  152.2457 H   0  0  0  0  0  0  0  0  0  0  0  0  # atno 10167 bound_to 10162
  156.5068  130.8416  151.2631 H   0  0  0  0  0  0  0  0  0  0  0  0  # atno 10718 bound_to 10713
  154.5550  135.5650  153.6956 H   0  0  0  0  0  0  0  0  0  0  0  0  # atno 10763 bound_to 10752
  153.0001  135.6260  154.2322 H   0  0  0  0  0  0  0  0  0  0  0  0  # atno 10764 bound_to 10752
  154.2258  135.2868  155.2888 H   0  0  0  0  0  0  0  0  0  0  0  0  # atno 10765 bound_to 10752
  139.8851  134.8631  156.3325 H   0  0  0  0  0  0  0  0  0  0  0  0  # atno 11005 bound_to 11000
  144.8917  139.4766  143.6675 LP  0  0  0  0  0  0  0  0  0  0  0  0  # atno 17320 bound_to 7965
  146.3071  139.7619  142.9047 LP  0  0  0  0  0  0  0  0  0  0  0  0  # atno 17321 bound_to 7965
  139.9014  144.6909  150.8661 LP  0  0  0  0  0  0  0  0  0  0  0  0  # atno 17342 bound_to 10162
  140.7726  143.3511  151.2013 LP  0  0  0  0  0  0  0  0  0  0  0  0  # atno 17343 bound_to 10162
  157.7456  130.9963  150.2775 LP  0  0  0  0  0  0  0  0  0  0  0  0  # atno 17370 bound_to 10713
  156.3279  130.3796  149.7517 LP  0  0  0  0  0  0  0  0  0  0  0  0  # atno 17371 bound_to 10713
  140.9713  133.7325  156.0539 LP  0  0  0  0  0  0  0  0  0  0  0  0  # atno 17394 bound_to 11000
  140.7867  134.3664  157.5474 LP  0  0  0  0  0  0  0  0  0  0  0  0  # atno 17395 bound_to 11000

$$$$
