AV-unprocessed.smi:725|AV-procd|sdf|3508|dock9
  -GOLD-   22720 0503D 1   1.00000     0.00000
 Structure written by MMmdl.
 47 48  0  0  0  0  0  0  0  0  1 V2000
  153.4202  141.5679  161.3894 C   0  0  0  0  0  0  0  0  0  0  0  0
  152.3533  142.5219  160.8408 C   0  0  0  0  0  0  0  0  0  0  0  0
  152.7104  143.0572  159.4403 C   0  0  0  0  0  0  0  0  0  0  0  0
  151.6803  144.0314  158.8123 C   0  0  1  0  0  0  0  0  0  0  0  0
  151.2167  145.1193  159.8019 C   0  0  0  0  0  0  0  0  0  0  0  0
  152.3015  144.6882  157.7244 O   0  0  0  0  0  0  0  0  0  0  0  0
  150.4807  143.2622  158.2057 C   0  0  0  0  0  0  0  0  0  0  0  0
  150.8887  142.1476  157.3543 N   0  0  0  0  0  0  0  0  0  0  0  0
  150.0584  141.3168  156.7041 C   0  0  0  0  0  0  0  0  0  0  0  0
  148.8316  141.4165  156.7367 O   0  0  0  0  0  0  0  0  0  0  0  0
  150.7371  140.2483  155.8875 C   0  0  0  0  0  0  0  0  0  0  0  0
  152.1467  140.1380  155.9275 C   0  0  0  0  0  0  0  0  0  0  0  0
  152.7846  139.1125  155.2078 C   0  0  0  0  0  0  0  0  0  0  0  0
  151.9853  138.2203  154.4736 C   0  0  0  0  0  0  0  0  0  0  0  0
  150.6411  138.3055  154.4238 N   0  0  0  0  0  0  0  0  0  0  0  0
  150.0148  139.2932  155.1112 C   0  0  0  0  0  0  0  0  0  0  0  0
  148.6124  139.3550  154.9849 N   0  0  0  0  0  0  0  0  0  0  0  0
  147.8349  138.2529  155.5415 C   0  0  0  0  0  0  0  0  0  0  0  0
  146.3403  138.6160  155.5359 C   0  0  0  0  0  0  0  0  0  0  0  0
  145.9358  138.9564  154.2124 O   0  0  0  0  0  0  0  0  0  0  0  0
  146.6504  140.0799  153.7049 C   0  0  0  0  0  0  0  0  0  0  0  0
  148.1544  139.7606  153.6617 C   0  0  0  0  0  0  0  0  0  0  0  0
  153.1418  141.2011  162.3775 H   0  0  0  0  0  0  0  0  0  0  0  0
  154.3854  142.0667  161.4802 H   0  0  0  0  0  0  0  0  0  0  0  0
  153.5483  140.7034  160.7376 H   0  0  0  0  0  0  0  0  0  0  0  0
  151.3997  141.9952  160.8095 H   0  0  0  0  0  0  0  0  0  0  0  0
  152.2284  143.3498  161.5390 H   0  0  0  0  0  0  0  0  0  0  0  0
  153.6796  143.5559  159.4948 H   0  0  0  0  0  0  0  0  0  0  0  0
  152.8536  142.2038  158.7765 H   0  0  0  0  0  0  0  0  0  0  0  0
  150.8092  144.6813  160.7132 H   0  0  0  0  0  0  0  0  0  0  0  0
  150.4401  145.7467  159.3629 H   0  0  0  0  0  0  0  0  0  0  0  0
  152.0336  145.7794  160.0939 H   0  0  0  0  0  0  0  0  0  0  0  0
  151.9590  144.3277  156.9207 H   0  0  0  0  0  0  0  0  0  0  0  0
  149.8093  142.9160  158.9939 H   0  0  0  0  0  0  0  0  0  0  0  0
  149.8859  143.9355  157.5872 H   0  0  0  0  0  0  0  0  0  0  0  0
  151.8815  141.9941  157.2550 H   0  0  0  0  0  0  0  0  0  0  0  0
  152.7417  140.8242  156.5131 H   0  0  0  0  0  0  0  0  0  0  0  0
  153.8594  139.0080  155.2249 H   0  0  0  0  0  0  0  0  0  0  0  0
  152.4366  137.4165  153.9108 H   0  0  0  0  0  0  0  0  0  0  0  0
  147.9970  137.3506  154.9502 H   0  0  0  0  0  0  0  0  0  0  0  0
  148.1654  138.0412  156.5590 H   0  0  0  0  0  0  0  0  0  0  0  0
  145.7467  137.7707  155.8836 H   0  0  0  0  0  0  0  0  0  0  0  0
  146.1397  139.4475  156.2137 H   0  0  0  0  0  0  0  0  0  0  0  0
  146.2858  140.3112  152.7042 H   0  0  0  0  0  0  0  0  0  0  0  0
  146.4585  140.9570  154.3252 H   0  0  0  0  0  0  0  0  0  0  0  0
  148.7083  140.6304  153.3083 H   0  0  0  0  0  0  0  0  0  0  0  0
  148.3456  138.9521  152.9550 H   0  0  0  0  0  0  0  0  0  0  0  0
  1  2  1  0  0  0  0
  1 23  1  0  0  0  0
  1 24  1  0  0  0  0
  1 25  1  0  0  0  0
  2  3  1  0  0  0  0
  2 26  1  0  0  0  0
  2 27  1  0  0  0  0
  3  4  1  0  0  0  0
  3 28  1  0  0  0  0
  3 29  1  0  0  0  0
  4  5  1  0  0  0  0
  4  6  1  0  0  0  0
  4  7  1  0  0  0  0
  5 30  1  0  0  0  0
  5 31  1  0  0  0  0
  5 32  1  0  0  0  0
  6 33  1  0  0  0  0
  7  8  1  0  0  0  0
  7 34  1  0  0  0  0
  7 35  1  0  0  0  0
  8  9  1  0  0  0  0
  8 36  1  0  0  0  0
  9 10  2  0  0  0  0
  9 11  1  0  0  0  0
 11 16  1  0  0  0  0
 11 12  2  0  0  0  0
 12 13  1  0  0  0  0
 12 37  1  0  0  0  0
 13 14  2  0  0  0  0
 13 38  1  0  0  0  0
 14 15  1  0  0  0  0
 14 39  1  0  0  0  0
 15 16  2  0  0  0  0
 16 17  1  0  0  0  0
 17 22  1  0  0  0  0
 17 18  1  0  0  0  0
 18 19  1  0  0  0  0
 18 40  1  0  0  0  0
 18 41  1  0  0  0  0
 19 20  1  0  0  0  0
 19 42  1  0  0  0  0
 19 43  1  0  0  0  0
 20 21  1  0  0  0  0
 21 22  1  0  0  0  0
 21 44  1  0  0  0  0
 21 45  1  0  0  0  0
 22 46  1  0  0  0  0
 22 47  1  0  0  0  0
M  END
> <s_m_source_file>
AV-unprocessed.smi

> <i_m_source_file_index>
725

> <i_lp_mmshare_version>
43012

> <i_f3d_flags>
0

> <s_epik_input>
W0NIM11bQ0gyXVtDSDJdW0NAQF0oW0NIM10pKFtPSF0pW0NIMl1bTkhdQyg9TyljMVtjSF1bY0hdW2NIXW5jMU4yW0NIMl1bQ0gyXU9bQ0gyXVtDSDJdMg==

> <s_epik_cmdline>
J2VwaWtfcHl0aG9uJywgJy1waCcsICc3LjAnLCAnLXRuJywgJzgnLCAnLW1hJywgJzIwMCcsICctbWV0YWxfYmluZGluZycsICctaW1hZScsICc8aW5maWxlLm1hZT4nLCAnLW9tYWUnLCAnPG91dGZpbGUubWFlPic=

> <r_lp_tautomer_probability>
1

> <r_epik_Ionization_Penalty>
1.23446e-05

> <r_epik_Ionization_Penalty_Charging>
0

> <r_epik_Ionization_Penalty_Neutral>
1.23446e-05

> <r_epik_State_Penalty>
-0

> <r_epik_Charging_Adjusted_Penalty>
0

> <i_epik_Tot_Q>
0

> <i_epik_Tot_abs_Q>
0

> <r_epik_Metal_State_Penalty>
-0

> <b_epik_Metal_Only>
0

> <s_lp_Force_Field>
OPLS_2005

> <r_lp_Energy>
26.7516

> <b_lp_Chiralities_Consistent>
1

> <s_lp_Variant>
AV-unprocessed.smi:725-1

> <Gold.Version>
5.8.1

> <Gold.Id.Protein>
6NUR|6NUR_protein|mol2

> <Gold.PLP.Fitness>
39.9141

> <Gold.PLP.PLP>
-37.7108

> <Gold.PLP.part.hbond>
0.0000

> <Gold.PLP.part.metal>
0.0000

> <Gold.PLP.part.buried>
-1.4885

> <Gold.PLP.part.nonpolar>
-35.9776

> <Gold.PLP.part.repulsive>
0.5360

> <Gold.PLP.ligand.clash>
0.0000

> <Gold.PLP.ligand.torsion>
0.3778

> <Gold.PLP.Chemscore.Hbond>
0.0000

> <Gold.PLP.Chemscore.CHOScore>
0.8903

> <Gold.PLP.Chemscore.Metal>
0.0000

> <Gold.PLP.Chemscore.Internal.Correction>
0.2877

> <Gold.Rescore>
     Score         DG    S(hbond)    S(metal)    S(lipo)     H(rot)  DE(clash)    DE(int)     intcor
     10.01     -12.25       0.00        0.00     105.87       2.19       0.04       2.20       ----

> <Gold.Chemscore.Fitness>
10.0137

> <Gold.Chemscore.DG>
-12.2519

> <Gold.Chemscore.ZeroCoef>
-5.4800

> <Gold.Chemscore.Hbond>
0.0000

> <Gold.Chemscore.Metal>
0.0000

> <Gold.Chemscore.Lipo>
105.8700

> <Gold.Chemscore.Internal_Hbond>
0.0000

> <Gold.Chemscore.DEClash>
0.0409

> <Gold.Chemscore.DEInternal>
2.1973

> <Gold.Chemscore.Rot>
2.1933

> <Gold.Chemscore.Internal.Correction>
   9.000000E+99

> <Gold.Chemscore.Hbond.Weighted>
-0.0000

> <Gold.Chemscore.Metal.Weighted>
-0.0000

> <Gold.Chemscore.Lipo.Weighted>
-12.3868

> <Gold.Chemscore.Internal_Hbond.Weighted>
0.0000

> <Gold.Chemscore.DEClash.Weighted>
0.0409

> <Gold.Chemscore.DEInternal.Weighted>
2.1973

> <Gold.Chemscore.Rot.Weighted>
5.6149

> <Gold.Chemscore.Internal.Correction.Weighted>
   9.000000E+99

> <Gold.Protein.RotatedTorsions>
[ 6907 6896 6895 6894 ] final   60.68 input  -60.11 | X-H torsion
[ 7974 7965 7964 7962 ] final  124.45 input  175.53 | X-H torsion
[ 8008 7997 7996 7995 ] final  138.98 input   59.86 | X-H torsion
[ 10167 10162 10161 10158 ] final   50.42 input  -65.29 | X-H torsion
[ 10718 10713 10712 10709 ] final  158.34 input   66.30 | X-H torsion
[ 10763 10752 10751 10750 ] final  -42.19 input  -60.55 | X-H torsion
[ 11005 11000 10999 10996 ] final   64.79 input  -57.11 | X-H torsion

> <Gold.Protein.ActiveResidues>
 VAL166  LYS551  ARG553  GLY616  TRP617  ASP618  TYR619  PRO620  LYS621  CYS622 
 ASP623  PHE694  ASN695  SER759  ASP760  ASP761  ALA762  ILE779  LEU786  VAL792 
 PHE793  MET794  SER795  GLU796  ALA797  LYS798  CYS799  TRP800  GLU811  SER814 

> <Gold.Protein.RotatedAtoms>
  152.4024  134.6264  160.0064 H   0  0  0  0  0  0  0  0  0  0  0  0  # atno 6907 bound_to 6896
  151.6466  133.3317  159.3150 H   0  0  0  0  0  0  0  0  0  0  0  0  # atno 6908 bound_to 6896
  150.7922  134.6997  159.6588 H   0  0  0  0  0  0  0  0  0  0  0  0  # atno 6909 bound_to 6896
  145.0842  139.3634  143.4893 H   0  0  0  0  0  0  0  0  0  0  0  0  # atno 7974 bound_to 7965
  156.2993  140.2379  156.4162 H   0  0  0  0  0  0  0  0  0  0  0  0  # atno 8008 bound_to 7997
  154.8396  140.0429  157.1553 H   0  0  0  0  0  0  0  0  0  0  0  0  # atno 8009 bound_to 7997
  154.9117  140.2991  155.5266 H   0  0  0  0  0  0  0  0  0  0  0  0  # atno 8010 bound_to 7997
  140.2726  144.3248  150.6286 H   0  0  0  0  0  0  0  0  0  0  0  0  # atno 10167 bound_to 10162
  157.1792  131.0628  151.2141 H   0  0  0  0  0  0  0  0  0  0  0  0  # atno 10718 bound_to 10713
  153.9750  135.6724  153.4748 H   0  0  0  0  0  0  0  0  0  0  0  0  # atno 10763 bound_to 10752
  153.0775  135.4941  154.8431 H   0  0  0  0  0  0  0  0  0  0  0  0  # atno 10764 bound_to 10752
  154.7197  135.3114  154.9028 H   0  0  0  0  0  0  0  0  0  0  0  0  # atno 10765 bound_to 10752
  139.9936  134.6552  156.0048 H   0  0  0  0  0  0  0  0  0  0  0  0  # atno 11005 bound_to 11000
  146.3531  140.0647  142.8627 LP  0  0  0  0  0  0  0  0  0  0  0  0  # atno 17320 bound_to 7965
  145.1142  140.9423  143.4638 LP  0  0  0  0  0  0  0  0  0  0  0  0  # atno 17321 bound_to 7965
  140.5877  143.2169  151.7311 LP  0  0  0  0  0  0  0  0  0  0  0  0  # atno 17342 bound_to 10162
  139.4984  144.3986  152.0205 LP  0  0  0  0  0  0  0  0  0  0  0  0  # atno 17343 bound_to 10162
  157.3969  130.7312  149.6738 LP  0  0  0  0  0  0  0  0  0  0  0  0  # atno 17370 bound_to 10713
  155.9727  130.4131  150.4067 LP  0  0  0  0  0  0  0  0  0  0  0  0  # atno 17371 bound_to 10713
  141.1586  133.6540  156.4244 LP  0  0  0  0  0  0  0  0  0  0  0  0  # atno 17394 bound_to 11000
  140.4861  134.6619  157.5191 LP  0  0  0  0  0  0  0  0  0  0  0  0  # atno 17395 bound_to 11000

$$$$
