AV-unprocessed.smi:686|AV-procd|sdf|3342|dock4
  -GOLD-   22720 0313D 1   1.00000     0.00000
 Structure written by MMmdl.
 41 42  0  0  0  0  0  0  0  0  2 V2000
  150.6455  132.8128  155.3069 C   0  0  0  0  0  0  0  0  0  0  0  0
  149.8364  133.6700  154.3240 C   0  0  1  0  0  0  0  0  0  0  0  0
  148.6788  132.9168  153.6656 C   0  0  0  0  0  0  0  0  0  0  0  0
  147.7097  133.9621  153.2808 N   0  3  1  0  0  0  0  0  0  0  0  0
  146.3476  133.4726  152.9250 C   0  0  0  0  0  0  0  0  0  0  0  0
  146.3996  132.4180  151.8036 C   0  0  0  0  0  0  0  0  0  0  0  0
  145.4291  134.6337  152.4996 C   0  0  0  0  0  0  0  0  0  0  0  0
  147.7526  134.9499  154.3810 C   0  0  0  0  0  0  0  0  0  0  0  0
  149.1779  134.9061  154.9634 C   0  0  2  0  0  0  0  0  0  0  0  0
  149.9393  136.1160  154.6296 N   0  0  0  0  0  0  0  0  0  0  0  0
  151.0055  136.8370  155.7833 S   0  0  0  0  0  0  0  0  0  0  0  0
  150.1973  137.3272  156.9111 O   0  0  0  0  0  0  0  0  0  0  0  0
  152.1063  135.8901  156.0154 O   0  0  0  0  0  0  0  0  0  0  0  0
  151.6771  138.2835  154.8572 C   0  0  0  0  0  0  0  0  0  0  0  0
  151.3303  139.5501  155.5852 C   0  0  0  0  0  0  0  0  0  0  0  0
  151.7076  139.9491  156.8972 C   0  0  0  0  0  0  0  0  0  0  0  0
  151.1165  141.1711  157.0404 C   0  0  0  0  0  0  0  0  0  0  0  0
  150.4347  141.5041  155.9151 O   0  0  0  0  0  0  0  0  0  0  0  0
  150.5782  140.4631  154.9908 N   0  0  0  0  0  0  0  0  0  0  0  0
  150.0228  132.4499  156.1252 H   0  0  0  0  0  0  0  0  0  0  0  0
  151.4650  133.3862  155.7411 H   0  0  0  0  0  0  0  0  0  0  0  0
  151.0764  131.9451  154.8063 H   0  0  0  0  0  0  0  0  0  0  0  0
  150.5042  133.9931  153.5229 H   0  0  0  0  0  0  0  0  0  0  0  0
  149.0156  132.3321  152.8090 H   0  0  0  0  0  0  0  0  0  0  0  0
  148.2122  132.2362  154.3803 H   0  0  0  0  0  0  0  0  0  0  0  0
  145.9121  133.0030  153.8086 H   0  0  0  0  0  0  0  0  0  0  0  0
  145.3955  132.1024  151.5188 H   0  0  0  0  0  0  0  0  0  0  0  0
  146.9336  131.5190  152.1117 H   0  0  0  0  0  0  0  0  0  0  0  0
  146.8874  132.8106  150.9105 H   0  0  0  0  0  0  0  0  0  0  0  0
  144.4483  134.2658  152.1967 H   0  0  0  0  0  0  0  0  0  0  0  0
  145.8497  135.1832  151.6565 H   0  0  0  0  0  0  0  0  0  0  0  0
  145.2620  135.3416  153.3115 H   0  0  0  0  0  0  0  0  0  0  0  0
  147.4600  135.9390  154.0302 H   0  0  0  0  0  0  0  0  0  0  0  0
  147.0438  134.6589  155.1582 H   0  0  0  0  0  0  0  0  0  0  0  0
  149.1321  134.8049  156.0489 H   0  0  0  0  0  0  0  0  0  0  0  0
  150.3016  136.1397  153.6762 H   0  0  0  0  0  0  0  0  0  0  0  0
  152.7559  138.1631  154.7599 H   0  0  0  0  0  0  0  0  0  0  0  0
  151.2539  138.2828  153.8534 H   0  0  0  0  0  0  0  0  0  0  0  0
  152.3118  139.4209  157.6199 H   0  0  0  0  0  0  0  0  0  0  0  0
  151.0890  141.8930  157.8433 H   0  0  0  0  0  0  0  0  0  0  0  0
  148.0927  134.4207  152.4666 H   0  0  0  0  0  0  0  0  0  0  0  0
  1  2  1  0  0  0  0
  1 20  1  0  0  0  0
  1 21  1  0  0  0  0
  1 22  1  0  0  0  0
  2  9  1  0  0  0  0
  2  3  1  0  0  0  0
  2 23  1  0  0  0  0
  3  4  1  0  0  0  0
  3 24  1  0  0  0  0
  3 25  1  0  0  0  0
  4  5  1  0  0  0  0
  4  8  1  0  0  0  0
  4 41  1  0  0  0  0
  5  6  1  0  0  0  0
  5  7  1  0  0  0  0
  5 26  1  0  0  0  0
  6 27  1  0  0  0  0
  6 28  1  0  0  0  0
  6 29  1  0  0  0  0
  7 30  1  0  0  0  0
  7 31  1  0  0  0  0
  7 32  1  0  0  0  0
  8  9  1  0  0  0  0
  8 33  1  0  0  0  0
  8 34  1  0  0  0  0
  9 10  1  0  0  0  0
  9 35  1  0  0  0  0
 10 11  1  0  0  0  0
 10 36  1  0  0  0  0
 11 12  2  0  0  0  0
 11 13  2  0  0  0  0
 11 14  1  0  0  0  0
 14 15  1  0  0  0  0
 14 37  1  0  0  0  0
 14 38  1  0  0  0  0
 15 19  2  0  0  0  0
 15 16  1  0  0  0  0
 16 17  2  0  0  0  0
 16 39  1  0  0  0  0
 17 18  1  0  0  0  0
 17 40  1  0  0  0  0
 18 19  1  0  0  0  0
M  CHG  1   4   1
M  END
> <s_m_source_file>
AV-unprocessed.smi

> <i_m_source_file_index>
686

> <i_lp_mmshare_version>
43012

> <i_f3d_flags>
0

> <s_epik_input>
W0NIM11bQ0BASF0xW0NIMl1OKFtDSF0oW0NIM10pW0NIM10pW0NIMl1bQ0BIXTFbTkhdUyg9TykoPU8pW0NIMl1jMltjSF1bY0hdb24y

> <s_epik_cmdline>
J2VwaWtfcHl0aG9uJywgJy1waCcsICc3LjAnLCAnLXRuJywgJzgnLCAnLW1hJywgJzIwMCcsICctbWV0YWxfYmluZGluZycsICctaW1hZScsICc8aW5maWxlLm1hZT4nLCAnLW9tYWUnLCAnPG91dGZpbGUubWFlPic=

> <r_epik_Ionization_Penalty>
0.00200818

> <r_epik_Ionization_Penalty_Charging>
0.000701289

> <r_epik_Ionization_Penalty_Neutral>
0.00130689

> <r_epik_State_Penalty>
0.00131314

> <r_epik_Charging_Adjusted_Penalty>
0.00201443

> <i_epik_Tot_Q>
1

> <i_epik_Tot_abs_Q>
1

> <r_epik_Metal_State_Penalty>
0.310831

> <b_epik_Metal_Only>
0

> <s_lp_Force_Field>
OPLS_2005

> <r_lp_Energy>
19.8293

> <b_lp_Chiralities_Consistent>
1

> <s_lp_Variant>
AV-unprocessed.smi:686-6

> <Gold.Version>
5.8.1

> <Gold.Id.Protein>
6NUR|6NUR_protein|mol2

> <Gold.PLP.Fitness>
39.6804

> <Gold.PLP.PLP>
-29.3366

> <Gold.PLP.part.hbond>
-4.0000

> <Gold.PLP.part.metal>
0.0000

> <Gold.PLP.part.buried>
-4.2730

> <Gold.PLP.part.nonpolar>
-22.0453

> <Gold.PLP.part.repulsive>
0.1613

> <Gold.PLP.ligand.clash>
0.0000

> <Gold.PLP.ligand.torsion>
0.6503

> <Gold.PLP.Chemscore.Hbond>
3.8264

> <Gold.PLP.Chemscore.CHOScore>
0.0000

> <Gold.PLP.Chemscore.Metal>
0.0000

> <Gold.Chemscore.Hbonds>
donor molecule, donor type, donor heavy atom, donor atom, acceptor molecule, acceptor atom, score
      L1  H     4    41       P1  7948  1.66
      L1  H    10    36       P1  7948  0.11
      P1  H  7989  7998       L1    19  1.00
      P1  H 10752 10765       L1    13  1.00

> <Gold.PLP.Chemscore.Internal.Correction>
0.1651

> <Gold.Rescore>
     Score         DG    S(hbond)    S(metal)    S(lipo)     H(rot)  DE(clash)    DE(int)     intcor
     14.95     -15.78       2.45        0.00      59.79       1.91       0.11       0.72       ----

> <Gold.Chemscore.Fitness>
14.9467

> <Gold.Chemscore.DG>
-15.7773

> <Gold.Chemscore.ZeroCoef>
-5.4800

> <Gold.Chemscore.Hbond>
2.4538

> <Gold.Chemscore.Metal>
0.0000

> <Gold.Chemscore.Lipo>
59.7860

> <Gold.Chemscore.Internal_Hbond>
0.0000

> <Gold.Chemscore.DEClash>
0.1087

> <Gold.Chemscore.DEInternal>
0.7219

> <Gold.Chemscore.Rot>
1.9115

> <Gold.Chemscore.Internal.Correction>
   9.000000E+99

> <Gold.Chemscore.Hbonds>
donor molecule, donor type, donor heavy atom, donor atom, acceptor molecule, acceptor atom, score
      L1  H     4    41       P1  7948  0.23
      P1  H  7989  7998       L1    19  0.25
      P1  H 10752 10765       L1    13  0.87

> <Gold.Chemscore.Hbond.Weighted>
-8.1958

> <Gold.Chemscore.Metal.Weighted>
-0.0000

> <Gold.Chemscore.Lipo.Weighted>
-6.9950

> <Gold.Chemscore.Internal_Hbond.Weighted>
0.0000

> <Gold.Chemscore.DEClash.Weighted>
0.1087

> <Gold.Chemscore.DEInternal.Weighted>
0.7219

> <Gold.Chemscore.Rot.Weighted>
4.8935

> <Gold.Chemscore.Internal.Correction.Weighted>
   9.000000E+99

> <Gold.Protein.RotatedTorsions>
[ 6907 6896 6895 6894 ] final  109.97 input  -60.11 | X-H torsion
[ 7974 7965 7964 7962 ] final  -79.24 input  175.53 | X-H torsion
[ 8008 7997 7996 7995 ] final  -32.94 input   59.86 | X-H torsion
[ 10167 10162 10161 10158 ] final   14.69 input  -65.29 | X-H torsion
[ 10718 10713 10712 10709 ] final    1.46 input   66.30 | X-H torsion
[ 10763 10752 10751 10750 ] final -167.56 input  -60.55 | X-H torsion
[ 11005 11000 10999 10996 ] final -151.38 input  -57.11 | X-H torsion

> <Gold.Protein.ActiveResidues>
 VAL166  LYS551  ARG553  GLY616  TRP617  ASP618  TYR619  PRO620  LYS621  CYS622 
 ASP623  PHE694  ASN695  SER759  ASP760  ASP761  ALA762  ILE779  LEU786  VAL792 
 PHE793  MET794  SER795  GLU796  ALA797  LYS798  CYS799  TRP800  GLU811  SER814 

> <Gold.Protein.RotatedAtoms>
  152.5042  133.8867  159.7372 H   0  0  0  0  0  0  0  0  0  0  0  0  # atno 6907 bound_to 6896
  150.9316  133.6752  159.2816 H   0  0  0  0  0  0  0  0  0  0  0  0  # atno 6908 bound_to 6896
  151.4094  135.0987  159.9633 H   0  0  0  0  0  0  0  0  0  0  0  0  # atno 6909 bound_to 6896
  145.5758  140.9457  143.1371 H   0  0  0  0  0  0  0  0  0  0  0  0  # atno 7974 bound_to 7965
  154.4164  140.1724  156.1807 H   0  0  0  0  0  0  0  0  0  0  0  0  # atno 8008 bound_to 7997
  155.9684  140.3387  155.6530 H   0  0  0  0  0  0  0  0  0  0  0  0  # atno 8009 bound_to 7997
  155.6657  140.0706  157.2529 H   0  0  0  0  0  0  0  0  0  0  0  0  # atno 8010 bound_to 7997
  140.5918  143.8779  150.6881 H   0  0  0  0  0  0  0  0  0  0  0  0  # atno 10167 bound_to 10162
  156.8485  130.5545  149.5671 H   0  0  0  0  0  0  0  0  0  0  0  0  # atno 10718 bound_to 10713
  154.6719  135.2940  154.9730 H   0  0  0  0  0  0  0  0  0  0  0  0  # atno 10763 bound_to 10752
  154.0754  135.6612  153.4834 H   0  0  0  0  0  0  0  0  0  0  0  0  # atno 10764 bound_to 10752
  153.0492  135.5185  154.7719 H   0  0  0  0  0  0  0  0  0  0  0  0  # atno 10765 bound_to 10752
  140.7302  134.3629  157.5168 H   0  0  0  0  0  0  0  0  0  0  0  0  # atno 11005 bound_to 11000
  144.7416  139.7432  143.7308 LP  0  0  0  0  0  0  0  0  0  0  0  0  # atno 17320 bound_to 7965
  146.1752  139.4919  142.9902 LP  0  0  0  0  0  0  0  0  0  0  0  0  # atno 17321 bound_to 7965
  140.2304  143.3740  152.1570 LP  0  0  0  0  0  0  0  0  0  0  0  0  # atno 17342 bound_to 10162
  139.5233  144.7069  151.5326 LP  0  0  0  0  0  0  0  0  0  0  0  0  # atno 17343 bound_to 10162
  156.0841  130.5844  150.9616 LP  0  0  0  0  0  0  0  0  0  0  0  0  # atno 17370 bound_to 10713
  157.6316  131.0920  150.8429 LP  0  0  0  0  0  0  0  0  0  0  0  0  # atno 17371 bound_to 10713
  139.8828  134.9013  156.2808 LP  0  0  0  0  0  0  0  0  0  0  0  0  # atno 17394 bound_to 11000
  140.9927  133.7198  156.0839 LP  0  0  0  0  0  0  0  0  0  0  0  0  # atno 17395 bound_to 11000

$$$$
