AV-unprocessed.smi:1419|AV-procd|sdf|5777|dock5
  -GOLD-   22720 5423D 1   1.00000     0.00000
 Structure written by MMmdl.
 42 43  0  0  0  0  0  0  0  0  2 V2000
  146.1891  131.5545  153.2436 C   0  0  0  0  0  0  0  0  0  0  0  0
  147.2602  132.3343  152.4644 C   0  0  1  0  0  0  0  0  0  0  0  0
  146.6949  133.5749  151.7387 C   0  0  0  0  0  0  0  0  0  0  0  0
  145.6470  133.2408  150.7706 N   0  0  0  0  0  0  0  0  0  0  0  0
  145.7167  132.3381  149.7405 C   0  0  0  0  0  0  0  0  0  0  0  0
  144.4971  132.3657  149.1143 C   0  0  0  0  0  0  0  0  0  0  0  0
  143.7350  133.2812  149.7896 N   0  3  0  0  0  0  0  0  0  0  0  0
  144.4354  133.8104  150.7980 C   0  0  0  0  0  0  0  0  0  0  0  0
  148.3261  132.7295  153.3798 N   0  0  0  0  0  0  0  0  0  0  0  0
  149.1272  131.8876  154.0557 C   0  0  0  0  0  0  0  0  0  0  0  0
  149.0118  130.6642  153.9697 O   0  0  0  0  0  0  0  0  0  0  0  0
  150.0559  132.4942  154.8354 N   0  0  0  0  0  0  0  0  0  0  0  0
  151.1782  131.8515  155.5329 C   0  0  0  0  0  0  0  0  0  0  0  0
  150.8947  131.8545  157.0497 C   0  0  2  0  0  0  0  0  0  0  0  0
  149.7698  130.8945  157.4775 C   0  0  0  0  0  0  0  0  0  0  0  0
  150.6367  133.1919  157.4895 O   0  0  0  0  0  0  0  0  0  0  0  0
  149.6129  133.8941  156.7790 C   0  0  1  0  0  0  0  0  0  0  0  0
  149.5345  135.3158  157.3453 C   0  0  0  0  0  0  0  0  0  0  0  0
  149.9330  133.8864  155.2713 C   0  0  0  0  0  0  0  0  0  0  0  0
  145.4189  131.1611  152.5801 H   0  0  0  0  0  0  0  0  0  0  0  0
  145.6996  132.1864  153.9853 H   0  0  0  0  0  0  0  0  0  0  0  0
  146.6274  130.7048  153.7684 H   0  0  0  0  0  0  0  0  0  0  0  0
  147.6820  131.6545  151.7214 H   0  0  0  0  0  0  0  0  0  0  0  0
  146.2758  134.2815  152.4566 H   0  0  0  0  0  0  0  0  0  0  0  0
  147.4817  134.1044  151.1991 H   0  0  0  0  0  0  0  0  0  0  0  0
  146.6061  131.7603  149.5339 H   0  0  0  0  0  0  0  0  0  0  0  0
  144.1241  131.8166  148.2618 H   0  0  0  0  0  0  0  0  0  0  0  0
  144.0911  134.5527  151.4963 H   0  0  0  0  0  0  0  0  0  0  0  0
  148.4732  133.7205  153.5071 H   0  0  0  0  0  0  0  0  0  0  0  0
  151.3937  130.8377  155.1954 H   0  0  0  0  0  0  0  0  0  0  0  0
  152.0875  132.4193  155.3300 H   0  0  0  0  0  0  0  0  0  0  0  0
  151.8025  131.5327  157.5608 H   0  0  0  0  0  0  0  0  0  0  0  0
  150.0161  129.8671  157.2091 H   0  0  0  0  0  0  0  0  0  0  0  0
  148.8162  131.1332  157.0078 H   0  0  0  0  0  0  0  0  0  0  0  0
  149.6242  130.9272  158.5574 H   0  0  0  0  0  0  0  0  0  0  0  0
  148.6522  133.4076  156.9507 H   0  0  0  0  0  0  0  0  0  0  0  0
  148.7579  135.8956  156.8460 H   0  0  0  0  0  0  0  0  0  0  0  0
  150.4801  135.8441  157.2190 H   0  0  0  0  0  0  0  0  0  0  0  0
  149.3025  135.2982  158.4104 H   0  0  0  0  0  0  0  0  0  0  0  0
  150.8692  134.4122  155.0778 H   0  0  0  0  0  0  0  0  0  0  0  0
  149.1648  134.4321  154.7218 H   0  0  0  0  0  0  0  0  0  0  0  0
  142.7787  133.5238  149.5620 H   0  0  0  0  0  0  0  0  0  0  0  0
  1  2  1  0  0  0  0
  1 20  1  0  0  0  0
  1 21  1  0  0  0  0
  1 22  1  0  0  0  0
  2  3  1  0  0  0  0
  2  9  1  0  0  0  0
  2 23  1  0  0  0  0
  3  4  1  0  0  0  0
  3 24  1  0  0  0  0
  3 25  1  0  0  0  0
  4  8  1  0  0  0  0
  4  5  1  0  0  0  0
  5  6  2  0  0  0  0
  5 26  1  0  0  0  0
  6  7  1  0  0  0  0
  6 27  1  0  0  0  0
  7  8  2  0  0  0  0
  7 42  1  0  0  0  0
  8 28  1  0  0  0  0
  9 10  1  0  0  0  0
  9 29  1  0  0  0  0
 10 11  2  0  0  0  0
 10 12  1  0  0  0  0
 12 19  1  0  0  0  0
 12 13  1  0  0  0  0
 13 14  1  0  0  0  0
 13 30  1  0  0  0  0
 13 31  1  0  0  0  0
 14 15  1  0  0  0  0
 14 16  1  0  0  0  0
 14 32  1  0  0  0  0
 15 33  1  0  0  0  0
 15 34  1  0  0  0  0
 15 35  1  0  0  0  0
 16 17  1  0  0  0  0
 17 18  1  0  0  0  0
 17 19  1  0  0  0  0
 17 36  1  0  0  0  0
 18 37  1  0  0  0  0
 18 38  1  0  0  0  0
 18 39  1  0  0  0  0
 19 40  1  0  0  0  0
 19 41  1  0  0  0  0
M  CHG  1   7   1
M  END
> <s_m_source_file>
AV-unprocessed.smi

> <i_m_source_file_index>
1419

> <i_lp_mmshare_version>
43012

> <i_f3d_flags>
0

> <s_epik_input>
W2NIXTFuW2NIXVtjSF1uMVtDSDJdW0NAQEhdKFtDSDNdKVtOSF1DKD1PKU4yW0NIMl1bQ0BASF0oW0NIM10pT1tDQEBIXShbQ0gzXSlbQ0gyXTI=

> <s_epik_cmdline>
J2VwaWtfcHl0aG9uJywgJy1waCcsICc3LjAnLCAnLXRuJywgJzgnLCAnLW1hJywgJzIwMCcsICctbWV0YWxfYmluZGluZycsICctaW1hZScsICc8aW5maWxlLm1hZT4nLCAnLW9tYWUnLCAnPG91dGZpbGUubWFlPic=

> <r_lp_tautomer_probability>
1

> <r_epik_Ionization_Penalty>
0.253607

> <r_epik_Ionization_Penalty_Charging>
0

> <r_epik_Ionization_Penalty_Neutral>
0.253607

> <r_epik_State_Penalty>
0.245018

> <r_epik_Charging_Adjusted_Penalty>
0.245018

> <i_epik_Tot_Q>
1

> <i_epik_Tot_abs_Q>
1

> <r_epik_Metal_State_Penalty>
0.535379

> <b_epik_Metal_Only>
0

> <s_lp_Force_Field>
OPLS_2005

> <r_lp_Energy>
32.5002

> <b_lp_Chiralities_Consistent>
1

> <s_lp_Variant>
AV-unprocessed.smi:1419-4

> <Gold.Version>
5.8.1

> <Gold.Id.Protein>
6NUR|6NUR_protein|mol2

> <Gold.PLP.Fitness>
42.4524

> <Gold.PLP.PLP>
-31.5523

> <Gold.PLP.part.hbond>
-2.0000

> <Gold.PLP.part.metal>
0.0000

> <Gold.PLP.part.buried>
-4.5301

> <Gold.PLP.part.nonpolar>
-25.6111

> <Gold.PLP.part.repulsive>
0.1512

> <Gold.PLP.ligand.clash>
0.4259

> <Gold.PLP.ligand.torsion>
0.1772

> <Gold.PLP.Chemscore.Hbond>
3.0000

> <Gold.PLP.Chemscore.CHOScore>
0.8779

> <Gold.PLP.Chemscore.Metal>
0.0000

> <Gold.Chemscore.Hbonds>
donor molecule, donor type, donor heavy atom, donor atom, acceptor molecule, acceptor atom, score
      L1  H     7    42       P1 10186  2.00
      P1  H  6896  6908       L1    16  1.00
      L1  C     5    26       P1 10747  0.77

> <Gold.PLP.Chemscore.Internal.Correction>
0.0466

> <Gold.Rescore>
     Score         DG    S(hbond)    S(metal)    S(lipo)     H(rot)  DE(clash)    DE(int)     intcor
     15.09     -15.38       1.94        0.00      64.76       1.63       0.08       0.21       ----

> <Gold.Chemscore.Fitness>
15.0889

> <Gold.Chemscore.DG>
-15.3786

> <Gold.Chemscore.ZeroCoef>
-5.4800

> <Gold.Chemscore.Hbond>
1.9425

> <Gold.Chemscore.Metal>
0.0000

> <Gold.Chemscore.Lipo>
64.7554

> <Gold.Chemscore.Internal_Hbond>
0.0000

> <Gold.Chemscore.DEClash>
0.0814

> <Gold.Chemscore.DEInternal>
0.2083

> <Gold.Chemscore.Rot>
1.6273

> <Gold.Chemscore.Internal.Correction>
   9.000000E+99

> <Gold.Chemscore.Hbonds>
donor molecule, donor type, donor heavy atom, donor atom, acceptor molecule, acceptor atom, score
      L1  H     7    42       P1 10186  0.97
      P1  H  6896  6908       L1    16  0.86

> <Gold.Chemscore.Hbond.Weighted>
-6.4881

> <Gold.Chemscore.Metal.Weighted>
-0.0000

> <Gold.Chemscore.Lipo.Weighted>
-7.5764

> <Gold.Chemscore.Internal_Hbond.Weighted>
0.0000

> <Gold.Chemscore.DEClash.Weighted>
0.0814

> <Gold.Chemscore.DEInternal.Weighted>
0.2083

> <Gold.Chemscore.Rot.Weighted>
4.1658

> <Gold.Chemscore.Internal.Correction.Weighted>
   9.000000E+99

> <Gold.Protein.RotatedTorsions>
[ 6907 6896 6895 6894 ] final   98.09 input  -60.11 | X-H torsion
[ 7974 7965 7964 7962 ] final -177.07 input  175.53 | X-H torsion
[ 8008 7997 7996 7995 ] final  -90.17 input   59.86 | X-H torsion
[ 10167 10162 10161 10158 ] final  101.90 input  -65.29 | X-H torsion
[ 10718 10713 10712 10709 ] final   58.65 input   66.30 | X-H torsion
[ 10763 10752 10751 10750 ] final  -76.63 input  -60.55 | X-H torsion
[ 11005 11000 10999 10996 ] final -129.60 input  -57.11 | X-H torsion

> <Gold.Protein.ActiveResidues>
 VAL166  LYS551  ARG553  GLY616  TRP617  ASP618  TYR619  PRO620  LYS621  CYS622 
 ASP623  PHE694  ASN695  SER759  ASP760  ASP761  ALA762  ILE779  LEU786  VAL792 
 PHE793  MET794  SER795  GLU796  ALA797  LYS798  CYS799  TRP800  GLU811  SER814 

> <Gold.Protein.RotatedAtoms>
  152.5414  134.0634  159.8161 H   0  0  0  0  0  0  0  0  0  0  0  0  # atno 6907 bound_to 6896
  151.0759  133.5421  159.2631 H   0  0  0  0  0  0  0  0  0  0  0  0  # atno 6908 bound_to 6896
  151.2267  135.0547  159.9025 H   0  0  0  0  0  0  0  0  0  0  0  0  # atno 6909 bound_to 6896
  144.7127  140.1074  143.6413 H   0  0  0  0  0  0  0  0  0  0  0  0  # atno 7974 bound_to 7965
  154.6953  140.0533  157.0405 H   0  0  0  0  0  0  0  0  0  0  0  0  # atno 8008 bound_to 7997
  155.0759  140.3204  155.4597 H   0  0  0  0  0  0  0  0  0  0  0  0  # atno 8009 bound_to 7997
  156.2742  140.2073  156.5887 H   0  0  0  0  0  0  0  0  0  0  0  0  # atno 8010 bound_to 7997
  139.7397  144.7014  151.0594 H   0  0  0  0  0  0  0  0  0  0  0  0  # atno 10167 bound_to 10162
  157.5613  130.8838  149.9116 H   0  0  0  0  0  0  0  0  0  0  0  0  # atno 10718 bound_to 10713
  154.5023  135.5791  153.6540 H   0  0  0  0  0  0  0  0  0  0  0  0  # atno 10763 bound_to 10752
  152.9881  135.6138  154.2986 H   0  0  0  0  0  0  0  0  0  0  0  0  # atno 10764 bound_to 10752
  154.2895  135.2849  155.2641 H   0  0  0  0  0  0  0  0  0  0  0  0  # atno 10765 bound_to 10752
  140.9418  134.1183  157.4144 H   0  0  0  0  0  0  0  0  0  0  0  0  # atno 11005 bound_to 11000
  145.9484  139.2717  143.1227 LP  0  0  0  0  0  0  0  0  0  0  0  0  # atno 17320 bound_to 7965
  145.9349  140.9022  143.0337 LP  0  0  0  0  0  0  0  0  0  0  0  0  # atno 17321 bound_to 7965
  140.7784  143.4939  150.9857 LP  0  0  0  0  0  0  0  0  0  0  0  0  # atno 17342 bound_to 10162
  139.8627  143.7293  152.3172 LP  0  0  0  0  0  0  0  0  0  0  0  0  # atno 17343 bound_to 10162
  156.0666  130.3691  150.0866 LP  0  0  0  0  0  0  0  0  0  0  0  0  # atno 17370 bound_to 10713
  156.9029  130.9626  151.3574 LP  0  0  0  0  0  0  0  0  0  0  0  0  # atno 17371 bound_to 10713
  139.8822  135.0039  156.6214 LP  0  0  0  0  0  0  0  0  0  0  0  0  # atno 17394 bound_to 11000
  140.7724  133.8727  155.8502 LP  0  0  0  0  0  0  0  0  0  0  0  0  # atno 17395 bound_to 11000

$$$$
