AV-unprocessed.smi:3141|AV-procd|sdf|11966|dock5
  -GOLD-   2272017363D 1   1.00000     0.00000
 Structure written by MMmdl.
 35 37  0  0  0  0  0  0  0  0  1 V2000
  151.7527  141.4969  158.7156 O   0  0  0  0  0  0  0  0  0  0  0  0
  151.5316  142.3047  157.8130 C   0  0  0  0  0  0  0  0  0  0  0  0
  151.8601  143.6022  157.8649 N   0  0  0  0  0  0  0  0  0  0  0  0
  152.5130  144.2458  158.9583 C   0  0  0  0  0  0  0  0  0  0  0  0
  151.8057  144.2521  160.2965 C   0  0  0  0  0  0  0  0  0  0  0  0
  151.8942  145.5196  159.4925 C   0  0  0  0  0  0  0  0  0  0  0  0
  150.9268  141.9922  156.6586 N   0  0  0  0  0  0  0  0  0  0  0  0
  150.4304  140.6639  156.3096 C   0  0  2  0  0  0  0  0  0  0  0  0
  151.4352  139.5807  156.7462 C   0  0  0  0  0  0  0  0  0  0  0  0
  152.0289  139.0036  155.4596 C   0  0  0  0  0  0  0  0  0  0  0  0
  150.9105  139.1495  154.4333 C   0  0  0  0  0  0  0  0  0  0  0  0
  150.2736  140.5008  154.7784 C   0  0  1  0  0  0  0  0  0  0  0  0
  148.8984  140.6235  154.3202 N   0  0  0  0  0  0  0  0  0  0  0  0
  148.1881  139.6943  153.5708 C   0  0  0  0  0  0  0  0  0  0  0  0
  146.9367  140.2279  153.3614 C   0  0  0  0  0  0  0  0  0  0  0  0
  146.8526  141.4781  153.9688 N   0  0  0  0  0  0  0  0  0  0  0  0
  148.0505  141.6451  154.5137 C   0  0  0  0  0  0  0  0  0  0  0  0
  151.6332  144.1805  157.0693 H   0  0  0  0  0  0  0  0  0  0  0  0
  153.6004  144.1938  158.9919 H   0  0  0  0  0  0  0  0  0  0  0  0
  150.8342  143.7660  160.3622 H   0  0  0  0  0  0  0  0  0  0  0  0
  152.4228  144.1804  161.1900 H   0  0  0  0  0  0  0  0  0  0  0  0
  152.5705  146.2941  159.8490 H   0  0  0  0  0  0  0  0  0  0  0  0
  150.9809  145.8797  159.0224 H   0  0  0  0  0  0  0  0  0  0  0  0
  150.7894  142.7244  155.9772 H   0  0  0  0  0  0  0  0  0  0  0  0
  149.4880  140.4850  156.8310 H   0  0  0  0  0  0  0  0  0  0  0  0
  152.2080  139.9513  157.4214 H   0  0  0  0  0  0  0  0  0  0  0  0
  150.9009  138.7918  157.2775 H   0  0  0  0  0  0  0  0  0  0  0  0
  152.8895  139.5988  155.1517 H   0  0  0  0  0  0  0  0  0  0  0  0
  152.3611  137.9718  155.5763 H   0  0  0  0  0  0  0  0  0  0  0  0
  151.2763  139.1095  153.4068 H   0  0  0  0  0  0  0  0  0  0  0  0
  150.1957  138.3359  154.5635 H   0  0  0  0  0  0  0  0  0  0  0  0
  150.8620  141.2705  154.2748 H   0  0  0  0  0  0  0  0  0  0  0  0
  148.6208  138.7572  153.2533 H   0  0  0  0  0  0  0  0  0  0  0  0
  146.0979  139.8116  152.8235 H   0  0  0  0  0  0  0  0  0  0  0  0
  148.3184  142.5340  155.0659 H   0  0  0  0  0  0  0  0  0  0  0  0
  1  2  2  0  0  0  0
  2  3  1  0  0  0  0
  2  7  1  0  0  0  0
  3  4  1  0  0  0  0
  3 18  1  0  0  0  0
  4  6  1  0  0  0  0
  4  5  1  0  0  0  0
  4 19  1  0  0  0  0
  5  6  1  0  0  0  0
  5 20  1  0  0  0  0
  5 21  1  0  0  0  0
  6 22  1  0  0  0  0
  6 23  1  0  0  0  0
  7  8  1  0  0  0  0
  7 24  1  0  0  0  0
  8 12  1  0  0  0  0
  8  9  1  0  0  0  0
  8 25  1  0  0  0  0
  9 10  1  0  0  0  0
  9 26  1  0  0  0  0
  9 27  1  0  0  0  0
 10 11  1  0  0  0  0
 10 28  1  0  0  0  0
 10 29  1  0  0  0  0
 11 12  1  0  0  0  0
 11 30  1  0  0  0  0
 11 31  1  0  0  0  0
 12 13  1  0  0  0  0
 12 32  1  0  0  0  0
 13 17  1  0  0  0  0
 13 14  1  0  0  0  0
 14 15  2  0  0  0  0
 14 33  1  0  0  0  0
 15 16  1  0  0  0  0
 15 34  1  0  0  0  0
 16 17  2  0  0  0  0
 17 35  1  0  0  0  0
M  END
> <s_m_source_file>
AV-unprocessed.smi

> <i_m_source_file_index>
3141

> <i_lp_mmshare_version>
43012

> <i_f3d_flags>
0

> <s_epik_input>
W0NIMl0xW0NIMl1bQ0hdMVtOSF1DKD1PKVtOSF1bQ0BASF0yW0NIMl1bQ0gyXVtDSDJdW0NASF0ybjNbY0hdW2NIXW5bY0hdMw==

> <s_epik_cmdline>
J2VwaWtfcHl0aG9uJywgJy1waCcsICc3LjAnLCAnLXRuJywgJzgnLCAnLW1hJywgJzIwMCcsICctbWV0YWxfYmluZGluZycsICctaW1hZScsICc8aW5maWxlLm1hZT4nLCAnLW9tYWUnLCAnPG91dGZpbGUubWFlPic=

> <r_lp_tautomer_probability>
1

> <r_epik_Ionization_Penalty>
0.728419

> <r_epik_Ionization_Penalty_Charging>
0.728357

> <r_epik_Ionization_Penalty_Neutral>
6.27871e-05

> <r_epik_State_Penalty>
0.753408

> <r_epik_Charging_Adjusted_Penalty>
1.48176

> <i_epik_Tot_Q>
0

> <i_epik_Tot_abs_Q>
0

> <r_epik_Metal_State_Penalty>
0.332413

> <b_epik_Metal_Only>
0

> <s_lp_Force_Field>
OPLS_2005

> <r_lp_Energy>
34.1677

> <b_lp_Chiralities_Consistent>
1

> <s_lp_Variant>
AV-unprocessed.smi:3141-5

> <Gold.Version>
5.8.1

> <Gold.Id.Protein>
6NUR|6NUR_protein|mol2

> <Gold.PLP.Fitness>
40.6690

> <Gold.PLP.PLP>
-34.5891

> <Gold.PLP.part.hbond>
0.0000

> <Gold.PLP.part.metal>
0.0000

> <Gold.PLP.part.buried>
0.9411

> <Gold.PLP.part.nonpolar>
-35.8926

> <Gold.PLP.part.repulsive>
0.2572

> <Gold.PLP.ligand.clash>
0.0000

> <Gold.PLP.ligand.torsion>
0.3521

> <Gold.PLP.Chemscore.Hbond>
0.0000

> <Gold.PLP.Chemscore.CHOScore>
2.2479

> <Gold.PLP.Chemscore.Metal>
0.0000

> <Gold.Chemscore.Hbonds>
donor molecule, donor type, donor heavy atom, donor atom, acceptor molecule, acceptor atom, score
      L1  C    14    33       P1  7948  0.13
      L1  C    14    33       P1  7957  0.12
      L1  C    15    34       P1 10175  1.00
      L1  C    17    35       P1  8028  1.00

> <Gold.PLP.Chemscore.Internal.Correction>
0.0404

> <Gold.Rescore>
     Score         DG    S(hbond)    S(metal)    S(lipo)     H(rot)  DE(clash)    DE(int)     intcor
      9.58     -11.26       0.00        0.00      83.76       1.57       0.09       1.59       ----

> <Gold.Chemscore.Fitness>
9.5819

> <Gold.Chemscore.DG>
-11.2590

> <Gold.Chemscore.ZeroCoef>
-5.4800

> <Gold.Chemscore.Hbond>
0.0000

> <Gold.Chemscore.Metal>
0.0000

> <Gold.Chemscore.Lipo>
83.7574

> <Gold.Chemscore.Internal_Hbond>
0.0000

> <Gold.Chemscore.DEClash>
0.0867

> <Gold.Chemscore.DEInternal>
1.5904

> <Gold.Chemscore.Rot>
1.5705

> <Gold.Chemscore.Internal.Correction>
   9.000000E+99

> <Gold.Chemscore.Hbond.Weighted>
-0.0000

> <Gold.Chemscore.Metal.Weighted>
-0.0000

> <Gold.Chemscore.Lipo.Weighted>
-9.7996

> <Gold.Chemscore.Internal_Hbond.Weighted>
0.0000

> <Gold.Chemscore.DEClash.Weighted>
0.0867

> <Gold.Chemscore.DEInternal.Weighted>
1.5904

> <Gold.Chemscore.Rot.Weighted>
4.0206

> <Gold.Chemscore.Internal.Correction.Weighted>
   9.000000E+99

> <Gold.Protein.RotatedTorsions>
[ 6907 6896 6895 6894 ] final -179.50 input  -60.11 | X-H torsion
[ 7974 7965 7964 7962 ] final  116.38 input  175.53 | X-H torsion
[ 8008 7997 7996 7995 ] final -170.49 input   59.86 | X-H torsion
[ 10167 10162 10161 10158 ] final  -40.17 input  -65.29 | X-H torsion
[ 10718 10713 10712 10709 ] final -101.14 input   66.30 | X-H torsion
[ 10763 10752 10751 10750 ] final -178.83 input  -60.55 | X-H torsion
[ 11005 11000 10999 10996 ] final  -60.09 input  -57.11 | X-H torsion

> <Gold.Protein.ActiveResidues>
 VAL166  LYS551  ARG553  GLY616  TRP617  ASP618  TYR619  PRO620  LYS621  CYS622 
 ASP623  PHE694  ASN695  SER759  ASP760  ASP761  ALA762  ILE779  LEU786  VAL792 
 PHE793  MET794  SER795  GLU796  ALA797  LYS798  CYS799  TRP800  GLU811  SER814 

> <Gold.Protein.RotatedAtoms>
  151.6544  133.3319  159.3159 H   0  0  0  0  0  0  0  0  0  0  0  0  # atno 6907 bound_to 6896
  150.7944  134.6997  159.6552 H   0  0  0  0  0  0  0  0  0  0  0  0  # atno 6908 bound_to 6896
  152.4029  134.6260  160.0114 H   0  0  0  0  0  0  0  0  0  0  0  0  # atno 6909 bound_to 6896
  145.1803  139.3053  143.4421 H   0  0  0  0  0  0  0  0  0  0  0  0  # atno 7974 bound_to 7965
  155.9190  140.1071  157.1221 H   0  0  0  0  0  0  0  0  0  0  0  0  # atno 8008 bound_to 7997
  154.4051  140.1259  156.4720 H   0  0  0  0  0  0  0  0  0  0  0  0  # atno 8009 bound_to 7997
  155.7219  140.3469  155.5022 H   0  0  0  0  0  0  0  0  0  0  0  0  # atno 8010 bound_to 7997
  140.7042  143.3170  151.2886 H   0  0  0  0  0  0  0  0  0  0  0  0  # atno 10167 bound_to 10162
  156.0185  130.5360  150.6919 H   0  0  0  0  0  0  0  0  0  0  0  0  # atno 10718 bound_to 10713
  154.5428  135.2807  155.1080 H   0  0  0  0  0  0  0  0  0  0  0  0  # atno 10763 bound_to 10752
  154.2556  135.6331  153.5259 H   0  0  0  0  0  0  0  0  0  0  0  0  # atno 10764 bound_to 10752
  152.9983  135.5593  154.5972 H   0  0  0  0  0  0  0  0  0  0  0  0  # atno 10765 bound_to 10752
  141.1274  133.6620  156.5171 H   0  0  0  0  0  0  0  0  0  0  0  0  # atno 11005 bound_to 11000
  146.3454  140.1980  142.8589 LP  0  0  0  0  0  0  0  0  0  0  0  0  # atno 17320 bound_to 7965
  145.0143  140.8740  143.5205 LP  0  0  0  0  0  0  0  0  0  0  0  0  # atno 17321 bound_to 7965
  139.6611  144.0187  152.2693 LP  0  0  0  0  0  0  0  0  0  0  0  0  # atno 17342 bound_to 10162
  139.9755  144.6465  150.7949 LP  0  0  0  0  0  0  0  0  0  0  0  0  # atno 17343 bound_to 10162
  157.4599  131.0882  151.0757 LP  0  0  0  0  0  0  0  0  0  0  0  0  # atno 17370 bound_to 10713
  157.1248  130.6077  149.5514 LP  0  0  0  0  0  0  0  0  0  0  0  0  # atno 17371 bound_to 10713
  140.4322  134.7091  157.4948 LP  0  0  0  0  0  0  0  0  0  0  0  0  # atno 17394 bound_to 11000
  140.0286  134.6440  155.9138 LP  0  0  0  0  0  0  0  0  0  0  0  0  # atno 17395 bound_to 11000

$$$$
