AV-unprocessed.smi:1793|AV-procd|sdf|7225|dock6
  -GOLD-   22720 8473D 1   1.00000     0.00000
 Structure written by MMmdl.
 46 48  0  0  0  0  0  0  0  0  1 V2000
  144.0845  135.5344  152.7034 C   0  0  0  0  0  0  0  0  0  0  0  0
  145.0414  135.6860  151.5122 C   0  0  1  0  0  0  0  0  0  0  0  0
  146.1909  136.4893  151.9253 N   0  0  0  0  0  0  0  0  0  0  0  0
  146.1432  137.7220  152.4502 C   0  0  0  0  0  0  0  0  0  0  0  0
  145.0989  138.3409  152.6535 O   0  0  0  0  0  0  0  0  0  0  0  0
  147.3771  138.1725  152.7308 N   0  0  0  0  0  0  0  0  0  0  0  0
  147.7448  139.3906  153.3694 C   0  0  0  0  0  0  0  0  0  0  0  0
  146.9850  140.5738  153.1989 C   0  0  0  0  0  0  0  0  0  0  0  0
  147.4253  141.7689  153.7930 C   0  0  0  0  0  0  0  0  0  0  0  0
  148.6232  141.7441  154.5258 C   0  0  0  0  0  0  0  0  0  0  0  0
  149.3652  140.6304  154.6855 N   0  0  0  0  0  0  0  0  0  0  0  0
  148.9466  139.4654  154.1317 C   0  0  0  0  0  0  0  0  0  0  0  0
  149.7618  138.3297  154.3473 N   0  0  0  0  0  0  0  0  0  0  0  0
  151.1619  138.4842  154.7280 C   0  0  0  0  0  0  0  0  0  0  0  0
  151.5893  137.1090  155.2329 C   0  0  0  0  0  0  0  0  0  0  0  0
  150.3217  136.6050  155.9161 C   0  0  0  0  0  0  0  0  0  0  0  0
  149.1921  137.1911  155.0625 C   0  0  0  0  0  0  0  0  0  0  0  0
  145.5163  134.3212  150.9770 C   0  0  2  0  0  0  0  0  0  0  0  0
  144.4017  133.4085  150.4632 C   0  0  0  0  0  0  0  0  0  0  0  0
  145.0013  132.0170  150.5845 C   0  0  0  0  0  0  0  0  0  0  0  0
  146.1773  132.2001  151.5490 C   0  0  0  0  0  0  0  0  0  0  0  0
  146.0767  133.5378  152.0189 O   0  0  0  0  0  0  0  0  0  0  0  0
  143.1989  134.9619  152.4259 H   0  0  0  0  0  0  0  0  0  0  0  0
  143.7458  136.5075  153.0608 H   0  0  0  0  0  0  0  0  0  0  0  0
  144.5642  135.0209  153.5373 H   0  0  0  0  0  0  0  0  0  0  0  0
  144.4964  136.1924  150.7136 H   0  0  0  0  0  0  0  0  0  0  0  0
  147.0995  136.0677  151.7992 H   0  0  0  0  0  0  0  0  0  0  0  0
  148.1319  137.5185  152.5844 H   0  0  0  0  0  0  0  0  0  0  0  0
  146.0854  140.5905  152.6028 H   0  0  0  0  0  0  0  0  0  0  0  0
  146.8651  142.6849  153.6780 H   0  0  0  0  0  0  0  0  0  0  0  0
  148.9999  142.6430  154.9907 H   0  0  0  0  0  0  0  0  0  0  0  0
  151.7697  138.8137  153.8851 H   0  0  0  0  0  0  0  0  0  0  0  0
  151.2657  139.2132  155.5327 H   0  0  0  0  0  0  0  0  0  0  0  0
  151.8413  136.4625  154.3911 H   0  0  0  0  0  0  0  0  0  0  0  0
  152.4498  137.1498  155.9011 H   0  0  0  0  0  0  0  0  0  0  0  0
  150.2787  135.5180  155.9866 H   0  0  0  0  0  0  0  0  0  0  0  0
  150.2658  137.0103  156.9272 H   0  0  0  0  0  0  0  0  0  0  0  0
  148.3358  137.4757  155.6755 H   0  0  0  0  0  0  0  0  0  0  0  0
  148.8577  136.4514  154.3347 H   0  0  0  0  0  0  0  0  0  0  0  0
  146.2680  134.4588  150.1969 H   0  0  0  0  0  0  0  0  0  0  0  0
  143.5258  133.4863  151.1089 H   0  0  0  0  0  0  0  0  0  0  0  0
  144.0917  133.6496  149.4461 H   0  0  0  0  0  0  0  0  0  0  0  0
  144.2688  131.3042  150.9644 H   0  0  0  0  0  0  0  0  0  0  0  0
  145.3546  131.6534  149.6190 H   0  0  0  0  0  0  0  0  0  0  0  0
  146.1504  131.4941  152.3793 H   0  0  0  0  0  0  0  0  0  0  0  0
  147.1256  132.0732  151.0254 H   0  0  0  0  0  0  0  0  0  0  0  0
  1  2  1  0  0  0  0
  1 23  1  0  0  0  0
  1 24  1  0  0  0  0
  1 25  1  0  0  0  0
  2  3  1  0  0  0  0
  2 18  1  0  0  0  0
  2 26  1  0  0  0  0
  3  4  1  0  0  0  0
  3 27  1  0  0  0  0
  4  5  2  0  0  0  0
  4  6  1  0  0  0  0
  6  7  1  0  0  0  0
  6 28  1  0  0  0  0
  7 12  1  0  0  0  0
  7  8  2  0  0  0  0
  8  9  1  0  0  0  0
  8 29  1  0  0  0  0
  9 10  2  0  0  0  0
  9 30  1  0  0  0  0
 10 11  1  0  0  0  0
 10 31  1  0  0  0  0
 11 12  2  0  0  0  0
 12 13  1  0  0  0  0
 13 17  1  0  0  0  0
 13 14  1  0  0  0  0
 14 15  1  0  0  0  0
 14 32  1  0  0  0  0
 14 33  1  0  0  0  0
 15 16  1  0  0  0  0
 15 34  1  0  0  0  0
 15 35  1  0  0  0  0
 16 17  1  0  0  0  0
 16 36  1  0  0  0  0
 16 37  1  0  0  0  0
 17 38  1  0  0  0  0
 17 39  1  0  0  0  0
 18 22  1  0  0  0  0
 18 19  1  0  0  0  0
 18 40  1  0  0  0  0
 19 20  1  0  0  0  0
 19 41  1  0  0  0  0
 19 42  1  0  0  0  0
 20 21  1  0  0  0  0
 20 43  1  0  0  0  0
 20 44  1  0  0  0  0
 21 22  1  0  0  0  0
 21 45  1  0  0  0  0
 21 46  1  0  0  0  0
M  END
> <s_m_source_file>
AV-unprocessed.smi

> <i_m_source_file_index>
1793

> <i_lp_mmshare_version>
43012

> <i_f3d_flags>
0

> <s_epik_input>
TzFbQ0gyXVtDSDJdW0NIMl1bQ0BIXTFbQ0BIXShbQ0gzXSlbTkhdQyg9TylbTkhdYzJbY0hdW2NIXVtjSF1uYzJOM1tDSDJdW0NIMl1bQ0gyXVtDSDJdMw==

> <s_epik_cmdline>
J2VwaWtfcHl0aG9uJywgJy1waCcsICc3LjAnLCAnLXRuJywgJzgnLCAnLW1hJywgJzIwMCcsICctbWV0YWxfYmluZGluZycsICctaW1hZScsICc8aW5maWxlLm1hZT4nLCAnLW9tYWUnLCAnPG91dGZpbGUubWFlPic=

> <r_lp_tautomer_probability>
1

> <r_epik_Ionization_Penalty>
0.0992086

> <r_epik_Ionization_Penalty_Charging>
0

> <r_epik_Ionization_Penalty_Neutral>
0.0992086

> <r_epik_State_Penalty>
0.0887141

> <r_epik_Charging_Adjusted_Penalty>
0.0887141

> <i_epik_Tot_Q>
0

> <i_epik_Tot_abs_Q>
0

> <r_epik_Metal_State_Penalty>
0.075945

> <b_epik_Metal_Only>
0

> <s_lp_Force_Field>
OPLS_2005

> <r_lp_Energy>
46.0011

> <b_lp_Chiralities_Consistent>
1

> <s_lp_Variant>
AV-unprocessed.smi:1793-2

> <Gold.Version>
5.8.1

> <Gold.Id.Protein>
6NUR|6NUR_protein|mol2

> <Gold.PLP.Fitness>
41.7671

> <Gold.PLP.PLP>
-33.4463

> <Gold.PLP.part.hbond>
-2.2319

> <Gold.PLP.part.metal>
0.0000

> <Gold.PLP.part.buried>
-2.2880

> <Gold.PLP.part.nonpolar>
-33.2419

> <Gold.PLP.part.repulsive>
4.8954

> <Gold.PLP.ligand.clash>
0.0000

> <Gold.PLP.ligand.torsion>
0.5251

> <Gold.PLP.Chemscore.Hbond>
2.0000

> <Gold.PLP.Chemscore.CHOScore>
1.0000

> <Gold.PLP.Chemscore.Metal>
0.0000

> <Gold.Chemscore.Hbonds>
donor molecule, donor type, donor heavy atom, donor atom, acceptor molecule, acceptor atom, score
      L1  H     3    27       P1  7948  0.99
      L1  H     6    28       P1  7948  1.00
      L1  C    10    31       P1  8028  1.00

> <Gold.PLP.Chemscore.Internal.Correction>
0.3710

> <Gold.Rescore>
     Score         DG    S(hbond)    S(metal)    S(lipo)     H(rot)  DE(clash)    DE(int)     intcor
     14.38     -18.99       1.98        0.00      88.70       1.36       1.83       2.78       ----

> <Gold.Chemscore.Fitness>
14.3799

> <Gold.Chemscore.DG>
-18.9856

> <Gold.Chemscore.ZeroCoef>
-5.4800

> <Gold.Chemscore.Hbond>
1.9775

> <Gold.Chemscore.Metal>
0.0000

> <Gold.Chemscore.Lipo>
88.6998

> <Gold.Chemscore.Internal_Hbond>
0.0000

> <Gold.Chemscore.DEClash>
1.8267

> <Gold.Chemscore.DEInternal>
2.7790

> <Gold.Chemscore.Rot>
1.3582

> <Gold.Chemscore.Internal.Correction>
   9.000000E+99

> <Gold.Chemscore.Hbonds>
donor molecule, donor type, donor heavy atom, donor atom, acceptor molecule, acceptor atom, score
      L1  H     3    27       P1  7948  0.94
      L1  H     6    28       P1  7948  0.99

> <Gold.Chemscore.Hbond.Weighted>
-6.6047

> <Gold.Chemscore.Metal.Weighted>
-0.0000

> <Gold.Chemscore.Lipo.Weighted>
-10.3779

> <Gold.Chemscore.Internal_Hbond.Weighted>
0.0000

> <Gold.Chemscore.DEClash.Weighted>
1.8267

> <Gold.Chemscore.DEInternal.Weighted>
2.7790

> <Gold.Chemscore.Rot.Weighted>
3.4771

> <Gold.Chemscore.Internal.Correction.Weighted>
   9.000000E+99

> <Gold.Protein.RotatedTorsions>
[ 6907 6896 6895 6894 ] final    0.42 input  -60.11 | X-H torsion
[ 7974 7965 7964 7962 ] final  178.62 input  175.53 | X-H torsion
[ 8008 7997 7996 7995 ] final  111.61 input   59.86 | X-H torsion
[ 10167 10162 10161 10158 ] final  115.07 input  -65.29 | X-H torsion
[ 10718 10713 10712 10709 ] final   90.08 input   66.30 | X-H torsion
[ 10763 10752 10751 10750 ] final   92.57 input  -60.55 | X-H torsion
[ 11005 11000 10999 10996 ] final  -88.85 input  -57.11 | X-H torsion

> <Gold.Protein.ActiveResidues>
 VAL166  LYS551  ARG553  GLY616  TRP617  ASP618  TYR619  PRO620  LYS621  CYS622 
 ASP623  PHE694  ASN695  SER759  ASP760  ASP761  ALA762  ILE779  LEU786  VAL792 
 PHE793  MET794  SER795  GLU796  ALA797  LYS798  CYS799  TRP800  GLU811  SER814 

> <Gold.Protein.RotatedAtoms>
  151.5761  135.1060  160.0006 H   0  0  0  0  0  0  0  0  0  0  0  0  # atno 6907 bound_to 6896
  152.4377  133.7386  159.6639 H   0  0  0  0  0  0  0  0  0  0  0  0  # atno 6908 bound_to 6896
  150.8277  133.8074  159.3135 H   0  0  0  0  0  0  0  0  0  0  0  0  # atno 6909 bound_to 6896
  144.7154  140.0425  143.6437 H   0  0  0  0  0  0  0  0  0  0  0  0  # atno 7974 bound_to 7965
  156.2136  140.3016  155.9788 H   0  0  0  0  0  0  0  0  0  0  0  0  # atno 8008 bound_to 7997
  155.2662  140.0432  157.3019 H   0  0  0  0  0  0  0  0  0  0  0  0  # atno 8009 bound_to 7997
  154.5735  140.2355  155.8166 H   0  0  0  0  0  0  0  0  0  0  0  0  # atno 8010 bound_to 7997
  139.6343  144.7118  151.2367 H   0  0  0  0  0  0  0  0  0  0  0  0  # atno 10167 bound_to 10162
  157.6958  131.0357  150.3523 H   0  0  0  0  0  0  0  0  0  0  0  0  # atno 10718 bound_to 10713
  153.2206  135.4357  155.0485 H   0  0  0  0  0  0  0  0  0  0  0  0  # atno 10763 bound_to 10752
  154.8248  135.3355  154.6933 H   0  0  0  0  0  0  0  0  0  0  0  0  # atno 10764 bound_to 10752
  153.7365  135.7007  153.5033 H   0  0  0  0  0  0  0  0  0  0  0  0  # atno 10765 bound_to 10752
  141.1595  133.7595  156.9511 H   0  0  0  0  0  0  0  0  0  0  0  0  # atno 11005 bound_to 11000
  146.0012  139.3092  143.0927 LP  0  0  0  0  0  0  0  0  0  0  0  0  # atno 17320 bound_to 7965
  145.8791  140.9373  143.0610 LP  0  0  0  0  0  0  0  0  0  0  0  0  # atno 17321 bound_to 7965
  140.7456  143.6424  150.8322 LP  0  0  0  0  0  0  0  0  0  0  0  0  # atno 17342 bound_to 10162
  140.0053  143.5700  152.2860 LP  0  0  0  0  0  0  0  0  0  0  0  0  # atno 17343 bound_to 10162
  156.3970  130.3908  149.6988 LP  0  0  0  0  0  0  0  0  0  0  0  0  # atno 17370 bound_to 10713
  156.4318  130.7819  151.2839 LP  0  0  0  0  0  0  0  0  0  0  0  0  # atno 17371 bound_to 10713
  140.1256  134.9389  157.2266 LP  0  0  0  0  0  0  0  0  0  0  0  0  # atno 17394 bound_to 11000
  140.3017  134.3125  155.7288 LP  0  0  0  0  0  0  0  0  0  0  0  0  # atno 17395 bound_to 11000

$$$$
