AV-unprocessed.smi:1237|AV-procd|sdf|5183|dock5
  -GOLD-   22720 4263D 1   1.00000     0.00000
 Structure written by MMmdl.
 44 45  0  0  0  0  0  0  0  0  1 V2000
  156.0985  136.8117  156.7625 C   0  0  0  0  0  0  0  0  0  0  0  0
  154.7458  136.5197  156.4605 O   0  0  0  0  0  0  0  0  0  0  0  0
  153.8469  137.0563  157.4179 C   0  0  0  0  0  0  0  0  0  0  0  0
  152.4135  136.6169  157.0766 C   0  0  0  0  0  0  0  0  0  0  0  0
  151.7004  137.6383  156.3016 N   0  0  0  0  0  0  0  0  0  0  0  0
  151.5368  138.8402  156.9702 N   0  0  0  0  0  0  0  0  0  0  0  0
  150.9021  139.8169  156.4072 C   0  0  0  0  0  0  0  0  0  0  0  0
  150.6960  141.1209  157.0963 C   0  0  0  0  0  0  0  0  0  0  0  0
  149.8003  141.8984  156.7622 O   0  0  0  0  0  0  0  0  0  0  0  0
  151.5503  141.3799  158.1035 N   0  0  0  0  0  0  0  0  0  0  0  0
  151.5560  142.5849  158.9308 C   0  0  0  0  0  0  0  0  0  0  0  0
  151.6363  143.8076  157.9918 C   0  0  0  0  0  0  0  0  0  0  0  0
  152.0082  145.1599  158.6273 C   0  0  0  0  0  0  0  0  0  0  0  0
  151.4807  145.4028  160.0501 C   0  0  0  0  0  0  0  0  0  0  0  0
  152.4083  144.8235  161.1314 C   0  0  0  0  0  0  0  0  0  0  0  0
  152.3623  143.2947  161.2671 C   0  0  0  0  0  0  0  0  0  0  0  0
  152.6842  142.5090  159.9830 C   0  0  0  0  0  0  0  0  0  0  0  0
  150.3589  139.6763  155.0665 C   0  0  0  0  0  0  0  0  0  0  0  0
  150.5286  138.4988  154.4257 C   0  0  0  0  0  0  0  0  0  0  0  0
  151.2361  137.3758  155.0428 C   0  0  0  0  0  0  0  0  0  0  0  0
  151.3952  136.2912  154.4830 O   0  0  0  0  0  0  0  0  0  0  0  0
  156.7455  136.3835  155.9970 H   0  0  0  0  0  0  0  0  0  0  0  0
  156.3880  136.3879  157.7250 H   0  0  0  0  0  0  0  0  0  0  0  0
  156.2734  137.8881  156.7865 H   0  0  0  0  0  0  0  0  0  0  0  0
  154.1127  136.6907  158.4106 H   0  0  0  0  0  0  0  0  0  0  0  0
  153.9210  138.1447  157.4440 H   0  0  0  0  0  0  0  0  0  0  0  0
  152.4416  135.6740  156.5274 H   0  0  0  0  0  0  0  0  0  0  0  0
  151.8671  136.3983  157.9957 H   0  0  0  0  0  0  0  0  0  0  0  0
  152.2526  140.6846  158.3118 H   0  0  0  0  0  0  0  0  0  0  0  0
  150.5993  142.6347  159.4544 H   0  0  0  0  0  0  0  0  0  0  0  0
  152.3521  143.6125  157.1917 H   0  0  0  0  0  0  0  0  0  0  0  0
  150.6704  143.9105  157.4951 H   0  0  0  0  0  0  0  0  0  0  0  0
  153.0928  145.2748  158.6223 H   0  0  0  0  0  0  0  0  0  0  0  0
  151.6366  145.9492  157.9730 H   0  0  0  0  0  0  0  0  0  0  0  0
  151.4253  146.4806  160.2076 H   0  0  0  0  0  0  0  0  0  0  0  0
  150.4606  145.0335  160.1617 H   0  0  0  0  0  0  0  0  0  0  0  0
  153.4344  145.1460  160.9505 H   0  0  0  0  0  0  0  0  0  0  0  0
  152.1315  145.2562  162.0935 H   0  0  0  0  0  0  0  0  0  0  0  0
  153.0756  143.0031  162.0386 H   0  0  0  0  0  0  0  0  0  0  0  0
  151.3849  142.9914  161.6440 H   0  0  0  0  0  0  0  0  0  0  0  0
  152.8289  141.4689  160.2791 H   0  0  0  0  0  0  0  0  0  0  0  0
  153.6361  142.8287  159.5569 H   0  0  0  0  0  0  0  0  0  0  0  0
  149.8320  140.4883  154.5868 H   0  0  0  0  0  0  0  0  0  0  0  0
  150.1301  138.3805  153.4288 H   0  0  0  0  0  0  0  0  0  0  0  0
  1  2  1  0  0  0  0
  1 22  1  0  0  0  0
  1 23  1  0  0  0  0
  1 24  1  0  0  0  0
  2  3  1  0  0  0  0
  3  4  1  0  0  0  0
  3 25  1  0  0  0  0
  3 26  1  0  0  0  0
  4  5  1  0  0  0  0
  4 27  1  0  0  0  0
  4 28  1  0  0  0  0
  5 20  1  0  0  0  0
  5  6  1  0  0  0  0
  6  7  2  0  0  0  0
  7  8  1  0  0  0  0
  7 18  1  0  0  0  0
  8  9  2  0  0  0  0
  8 10  1  0  0  0  0
 10 11  1  0  0  0  0
 10 29  1  0  0  0  0
 11 17  1  0  0  0  0
 11 12  1  0  0  0  0
 11 30  1  0  0  0  0
 12 13  1  0  0  0  0
 12 31  1  0  0  0  0
 12 32  1  0  0  0  0
 13 14  1  0  0  0  0
 13 33  1  0  0  0  0
 13 34  1  0  0  0  0
 14 15  1  0  0  0  0
 14 35  1  0  0  0  0
 14 36  1  0  0  0  0
 15 16  1  0  0  0  0
 15 37  1  0  0  0  0
 15 38  1  0  0  0  0
 16 17  1  0  0  0  0
 16 39  1  0  0  0  0
 16 40  1  0  0  0  0
 17 41  1  0  0  0  0
 17 42  1  0  0  0  0
 18 19  2  0  0  0  0
 18 43  1  0  0  0  0
 19 20  1  0  0  0  0
 19 44  1  0  0  0  0
 20 21  2  0  0  0  0
M  END
> <s_m_source_file>
AV-unprocessed.smi

> <i_m_source_file_index>
1237

> <i_lp_mmshare_version>
43012

> <i_f3d_flags>
0

> <s_epik_input>
W0NIM11PW0NIMl1bQ0gyXW4xbmMoW2NIXVtjSF1jMT1PKUMoPU8pW05IXVtDSF0yW0NIMl1bQ0gyXVtDSDJdW0NIMl1bQ0gyXVtDSDJdMg==

> <s_epik_cmdline>
J2VwaWtfcHl0aG9uJywgJy1waCcsICc3LjAnLCAnLXRuJywgJzgnLCAnLW1hJywgJzIwMCcsICctbWV0YWxfYmluZGluZycsICctaW1hZScsICc8aW5maWxlLm1hZT4nLCAnLW9tYWUnLCAnPG91dGZpbGUubWFlPic=

> <r_lp_tautomer_probability>
1

> <r_epik_Ionization_Penalty>
5.81787e-07

> <r_epik_Ionization_Penalty_Charging>
6.75108e-09

> <r_epik_Ionization_Penalty_Neutral>
5.75036e-07

> <r_epik_State_Penalty>
-0

> <r_epik_Charging_Adjusted_Penalty>
6.75108e-09

> <i_epik_Tot_Q>
0

> <i_epik_Tot_abs_Q>
0

> <r_epik_Metal_State_Penalty>
-0

> <b_epik_Metal_Only>
0

> <s_lp_Force_Field>
OPLS_2005

> <r_lp_Energy>
36.1796

> <b_lp_Chiralities_Consistent>
1

> <s_lp_Variant>
AV-unprocessed.smi:1237-1

> <Gold.Version>
5.8.1

> <Gold.Id.Protein>
6NUR|6NUR_protein|mol2

> <Gold.PLP.Fitness>
45.4244

> <Gold.PLP.PLP>
-40.2921

> <Gold.PLP.part.hbond>
-2.0000

> <Gold.PLP.part.metal>
0.0000

> <Gold.PLP.part.buried>
-6.1906

> <Gold.PLP.part.nonpolar>
-33.5683

> <Gold.PLP.part.repulsive>
1.5517

> <Gold.PLP.ligand.clash>
0.0000

> <Gold.PLP.ligand.torsion>
0.4631

> <Gold.PLP.Chemscore.Hbond>
2.0000

> <Gold.PLP.Chemscore.CHOScore>
0.0000

> <Gold.PLP.Chemscore.Metal>
0.0000

> <Gold.Chemscore.Hbonds>
donor molecule, donor type, donor heavy atom, donor atom, acceptor molecule, acceptor atom, score
      P1  H 10752 10763       L1    21  1.00
      P1  H 10752 10764       L1     2  0.78

> <Gold.PLP.Chemscore.Internal.Correction>
0.0584

> <Gold.Rescore>
     Score         DG    S(hbond)    S(metal)    S(lipo)     H(rot)  DE(clash)    DE(int)     intcor
     18.34     -20.83       1.86        0.00     111.89       1.55       0.54       1.95       ----

> <Gold.Chemscore.Fitness>
18.3370

> <Gold.Chemscore.DG>
-20.8276

> <Gold.Chemscore.ZeroCoef>
-5.4800

> <Gold.Chemscore.Hbond>
1.8619

> <Gold.Chemscore.Metal>
0.0000

> <Gold.Chemscore.Lipo>
111.8909

> <Gold.Chemscore.Internal_Hbond>
0.0000

> <Gold.Chemscore.DEClash>
0.5376

> <Gold.Chemscore.DEInternal>
1.9530

> <Gold.Chemscore.Rot>
1.5478

> <Gold.Chemscore.Internal.Correction>
   9.000000E+99

> <Gold.Chemscore.Hbonds>
donor molecule, donor type, donor heavy atom, donor atom, acceptor molecule, acceptor atom, score
      P1  H 10752 10763       L1    21  0.93
      P1  H 10752 10764       L1     2  0.72

> <Gold.Chemscore.Hbond.Weighted>
-6.2186

> <Gold.Chemscore.Metal.Weighted>
-0.0000

> <Gold.Chemscore.Lipo.Weighted>
-13.0912

> <Gold.Chemscore.Internal_Hbond.Weighted>
0.0000

> <Gold.Chemscore.DEClash.Weighted>
0.5376

> <Gold.Chemscore.DEInternal.Weighted>
1.9530

> <Gold.Chemscore.Rot.Weighted>
3.9623

> <Gold.Chemscore.Internal.Correction.Weighted>
   9.000000E+99

> <Gold.Protein.RotatedTorsions>
[ 6907 6896 6895 6894 ] final   -0.89 input  -60.11 | X-H torsion
[ 7974 7965 7964 7962 ] final  154.88 input  175.53 | X-H torsion
[ 8008 7997 7996 7995 ] final  148.36 input   59.86 | X-H torsion
[ 10167 10162 10161 10158 ] final  -98.75 input  -65.29 | X-H torsion
[ 10718 10713 10712 10709 ] final   53.87 input   66.30 | X-H torsion
[ 10763 10752 10751 10750 ] final   28.66 input  -60.55 | X-H torsion
[ 11005 11000 10999 10996 ] final  120.75 input  -57.11 | X-H torsion

> <Gold.Protein.ActiveResidues>
 VAL166  LYS551  ARG553  GLY616  TRP617  ASP618  TYR619  PRO620  LYS621  CYS622 
 ASP623  PHE694  ASN695  SER759  ASP760  ASP761  ALA762  ILE779  LEU786  VAL792 
 PHE793  MET794  SER795  GLU796  ALA797  LYS798  CYS799  TRP800  GLU811  SER814 

> <Gold.Protein.RotatedAtoms>
  151.5550  135.1067  159.9958 H   0  0  0  0  0  0  0  0  0  0  0  0  # atno 6907 bound_to 6896
  152.4473  133.7558  159.6729 H   0  0  0  0  0  0  0  0  0  0  0  0  # atno 6908 bound_to 6896
  150.8392  133.7895  159.3091 H   0  0  0  0  0  0  0  0  0  0  0  0  # atno 6909 bound_to 6896
  144.8060  139.6993  143.6161 H   0  0  0  0  0  0  0  0  0  0  0  0  # atno 7974 bound_to 7965
  156.2794  140.2131  156.5686 H   0  0  0  0  0  0  0  0  0  0  0  0  # atno 8008 bound_to 7997
  154.7154  140.0508  157.0613 H   0  0  0  0  0  0  0  0  0  0  0  0  # atno 8009 bound_to 7997
  155.0549  140.3160  155.4683 H   0  0  0  0  0  0  0  0  0  0  0  0  # atno 8010 bound_to 7997
  140.2697  143.3352  152.0546 H   0  0  0  0  0  0  0  0  0  0  0  0  # atno 10167 bound_to 10162
  157.5205  130.8562  149.8553 H   0  0  0  0  0  0  0  0  0  0  0  0  # atno 10718 bound_to 10713
  153.0478  135.6508  154.0772 H   0  0  0  0  0  0  0  0  0  0  0  0  # atno 10763 bound_to 10752
  154.0466  135.2899  155.3348 H   0  0  0  0  0  0  0  0  0  0  0  0  # atno 10764 bound_to 10752
  154.6747  135.5343  153.8250 H   0  0  0  0  0  0  0  0  0  0  0  0  # atno 10765 bound_to 10752
  139.9198  134.9636  156.7854 H   0  0  0  0  0  0  0  0  0  0  0  0  # atno 11005 bound_to 11000
  146.2352  139.5891  142.9529 LP  0  0  0  0  0  0  0  0  0  0  0  0  # atno 17320 bound_to 7965
  145.5436  141.0419  143.2317 LP  0  0  0  0  0  0  0  0  0  0  0  0  # atno 17321 bound_to 7965
  139.4992  144.6664  151.6345 LP  0  0  0  0  0  0  0  0  0  0  0  0  # atno 17342 bound_to 10162
  140.5900  143.9797  150.6318 LP  0  0  0  0  0  0  0  0  0  0  0  0  # atno 17343 bound_to 10162
  156.0350  130.3754  150.1584 LP  0  0  0  0  0  0  0  0  0  0  0  0  # atno 17370 bound_to 10713
  156.9772  130.9853  151.3445 LP  0  0  0  0  0  0  0  0  0  0  0  0  # atno 17371 bound_to 10713
  140.6510  133.9731  155.7755 LP  0  0  0  0  0  0  0  0  0  0  0  0  # atno 17394 bound_to 11000
  141.0708  134.0209  157.3529 LP  0  0  0  0  0  0  0  0  0  0  0  0  # atno 17395 bound_to 11000

$$$$
