AV-unprocessed.smi:2821|AV-procd|sdf|10859|dock8
  -GOLD-   2272015303D 1   1.00000     0.00000
 Structure written by MMmdl.
 36 37  0  0  0  0  0  0  0  0  1 V2000
  154.5490  140.4551  161.7650 C   0  0  0  0  0  0  0  0  0  0  0  0
  154.0020  141.6996  161.0622 C   0  0  0  0  0  0  0  0  0  0  0  0
  152.9337  141.3093  160.2048 O   0  0  0  0  0  0  0  0  0  0  0  0
  152.4004  142.2556  159.3545 C   0  0  0  0  0  0  0  0  0  0  0  0
  152.9766  143.5425  159.2945 C   0  0  0  0  0  0  0  0  0  0  0  0
  152.5010  144.5011  158.4695 N   0  0  0  0  0  0  0  0  0  0  0  0
  151.4440  144.1653  157.6975 C   0  0  0  0  0  0  0  0  0  0  0  0
  150.8583  142.8810  157.7446 C   0  0  0  0  0  0  0  0  0  0  0  0
  149.7690  142.5925  156.9097 N   0  0  0  0  0  0  0  0  0  0  0  0
  149.4756  141.2303  156.4660 C   0  0  1  0  0  0  0  0  0  0  0  0
  148.2568  140.6906  157.2286 C   0  0  0  0  0  0  0  0  0  0  0  0
  149.2639  141.1328  154.9342 C   0  0  1  0  0  0  0  0  0  0  0  0
  149.1319  139.7100  154.3596 C   0  0  0  0  0  0  0  0  0  0  0  0
  147.7156  139.6727  153.8190 C   0  0  0  0  0  0  0  0  0  0  0  0
  147.4644  141.1337  153.4755 C   0  0  0  0  0  0  0  0  0  0  0  0
  148.0822  141.8291  154.5455 O   0  0  0  0  0  0  0  0  0  0  0  0
  151.3326  141.9302  158.5838 N   0  0  0  0  0  0  0  0  0  0  0  0
  155.3741  140.7141  162.4286 H   0  0  0  0  0  0  0  0  0  0  0  0
  154.9167  139.7271  161.0417 H   0  0  0  0  0  0  0  0  0  0  0  0
  153.7763  139.9730  162.3642 H   0  0  0  0  0  0  0  0  0  0  0  0
  153.6514  142.4152  161.8082 H   0  0  0  0  0  0  0  0  0  0  0  0
  154.7976  142.1748  160.4858 H   0  0  0  0  0  0  0  0  0  0  0  0
  153.8258  143.8026  159.9091 H   0  0  0  0  0  0  0  0  0  0  0  0
  151.0673  144.9286  157.0320 H   0  0  0  0  0  0  0  0  0  0  0  0
  149.3555  143.3516  156.3881 H   0  0  0  0  0  0  0  0  0  0  0  0
  150.3137  140.5862  156.7342 H   0  0  0  0  0  0  0  0  0  0  0  0
  148.0450  139.6581  156.9494 H   0  0  0  0  0  0  0  0  0  0  0  0
  147.3616  141.2793  157.0259 H   0  0  0  0  0  0  0  0  0  0  0  0
  148.4292  140.7085  158.3053 H   0  0  0  0  0  0  0  0  0  0  0  0
  150.0928  141.6338  154.4320 H   0  0  0  0  0  0  0  0  0  0  0  0
  149.8435  139.5769  153.5437 H   0  0  0  0  0  0  0  0  0  0  0  0
  149.3163  138.9185  155.0861 H   0  0  0  0  0  0  0  0  0  0  0  0
  147.5997  139.0060  152.9643 H   0  0  0  0  0  0  0  0  0  0  0  0
  147.0252  139.3518  154.6002 H   0  0  0  0  0  0  0  0  0  0  0  0
  147.9504  141.4029  152.5365 H   0  0  0  0  0  0  0  0  0  0  0  0
  146.4039  141.3748  153.4000 H   0  0  0  0  0  0  0  0  0  0  0  0
  1  2  1  0  0  0  0
  1 18  1  0  0  0  0
  1 19  1  0  0  0  0
  1 20  1  0  0  0  0
  2  3  1  0  0  0  0
  2 21  1  0  0  0  0
  2 22  1  0  0  0  0
  3  4  1  0  0  0  0
  4 17  1  0  0  0  0
  4  5  2  0  0  0  0
  5  6  1  0  0  0  0
  5 23  1  0  0  0  0
  6  7  2  0  0  0  0
  7  8  1  0  0  0  0
  7 24  1  0  0  0  0
  8  9  1  0  0  0  0
  8 17  2  0  0  0  0
  9 10  1  0  0  0  0
  9 25  1  0  0  0  0
 10 11  1  0  0  0  0
 10 12  1  0  0  0  0
 10 26  1  0  0  0  0
 11 27  1  0  0  0  0
 11 28  1  0  0  0  0
 11 29  1  0  0  0  0
 12 16  1  0  0  0  0
 12 13  1  0  0  0  0
 12 30  1  0  0  0  0
 13 14  1  0  0  0  0
 13 31  1  0  0  0  0
 13 32  1  0  0  0  0
 14 15  1  0  0  0  0
 14 33  1  0  0  0  0
 14 34  1  0  0  0  0
 15 16  1  0  0  0  0
 15 35  1  0  0  0  0
 15 36  1  0  0  0  0
M  END
> <s_m_source_file>
AV-unprocessed.smi

> <i_m_source_file_index>
2821

> <i_lp_mmshare_version>
43012

> <i_f3d_flags>
0

> <s_epik_input>
W0NIM11bQ0gyXU9jMVtjSF1uW2NIXWMobjEpW05IXVtDQEhdKFtDSDNdKVtDQEBIXTJbQ0gyXVtDSDJdW0NIMl1PMg==

> <s_epik_cmdline>
J2VwaWtfcHl0aG9uJywgJy1waCcsICc3LjAnLCAnLXRuJywgJzgnLCAnLW1hJywgJzIwMCcsICctbWV0YWxfYmluZGluZycsICctaW1hZScsICc8aW5maWxlLm1hZT4nLCAnLW9tYWUnLCAnPG91dGZpbGUubWFlPic=

> <r_lp_tautomer_probability>
1

> <r_epik_Ionization_Penalty>
4.69533e-05

> <r_epik_Ionization_Penalty_Charging>
0

> <r_epik_Ionization_Penalty_Neutral>
4.69533e-05

> <r_epik_State_Penalty>
-0

> <r_epik_Charging_Adjusted_Penalty>
0

> <i_epik_Tot_Q>
0

> <i_epik_Tot_abs_Q>
0

> <r_epik_Metal_State_Penalty>
-0

> <b_epik_Metal_Only>
0

> <s_lp_Force_Field>
OPLS_2005

> <r_lp_Energy>
30.0608

> <b_lp_Chiralities_Consistent>
1

> <s_lp_Variant>
AV-unprocessed.smi:2821-4

> <Gold.Version>
5.8.1

> <Gold.Id.Protein>
6NUR|6NUR_protein|mol2

> <Gold.PLP.Fitness>
39.2474

> <Gold.PLP.PLP>
-34.2057

> <Gold.PLP.part.hbond>
-1.0000

> <Gold.PLP.part.metal>
0.0000

> <Gold.PLP.part.buried>
-5.5341

> <Gold.PLP.part.nonpolar>
-29.1558

> <Gold.PLP.part.repulsive>
0.1930

> <Gold.PLP.ligand.clash>
0.0000

> <Gold.PLP.ligand.torsion>
0.3503

> <Gold.PLP.Chemscore.Hbond>
1.0000

> <Gold.PLP.Chemscore.CHOScore>
0.9008

> <Gold.PLP.Chemscore.Metal>
0.0000

> <Gold.Chemscore.Hbonds>
donor molecule, donor type, donor heavy atom, donor atom, acceptor molecule, acceptor atom, score
      L1  H     9    25       P1  8028  1.00
      L1  C     7    24       P1  8028  0.89

> <Gold.PLP.Chemscore.Internal.Correction>
0.0400

> <Gold.Rescore>
     Score         DG    S(hbond)    S(metal)    S(lipo)     H(rot)  DE(clash)    DE(int)     intcor
     13.81     -14.06       1.00        0.00      78.86       1.55       0.06       0.20       ----

> <Gold.Chemscore.Fitness>
13.8058

> <Gold.Chemscore.DG>
-14.0632

> <Gold.Chemscore.ZeroCoef>
-5.4800

> <Gold.Chemscore.Hbond>
0.9964

> <Gold.Chemscore.Metal>
0.0000

> <Gold.Chemscore.Lipo>
78.8607

> <Gold.Chemscore.Internal_Hbond>
0.0000

> <Gold.Chemscore.DEClash>
0.0567

> <Gold.Chemscore.DEInternal>
0.2008

> <Gold.Chemscore.Rot>
1.5514

> <Gold.Chemscore.Internal.Correction>
   9.000000E+99

> <Gold.Chemscore.Hbonds>
donor molecule, donor type, donor heavy atom, donor atom, acceptor molecule, acceptor atom, score
      L1  H     9    25       P1  8028  0.99

> <Gold.Chemscore.Hbond.Weighted>
-3.3280

> <Gold.Chemscore.Metal.Weighted>
-0.0000

> <Gold.Chemscore.Lipo.Weighted>
-9.2267

> <Gold.Chemscore.Internal_Hbond.Weighted>
0.0000

> <Gold.Chemscore.DEClash.Weighted>
0.0567

> <Gold.Chemscore.DEInternal.Weighted>
0.2008

> <Gold.Chemscore.Rot.Weighted>
3.9715

> <Gold.Chemscore.Internal.Correction.Weighted>
   9.000000E+99

> <Gold.Protein.RotatedTorsions>
[ 6907 6896 6895 6894 ] final  177.67 input  -60.11 | X-H torsion
[ 7974 7965 7964 7962 ] final -128.18 input  175.53 | X-H torsion
[ 8008 7997 7996 7995 ] final  172.68 input   59.86 | X-H torsion
[ 10167 10162 10161 10158 ] final  159.69 input  -65.29 | X-H torsion
[ 10718 10713 10712 10709 ] final  -80.82 input   66.30 | X-H torsion
[ 10763 10752 10751 10750 ] final -132.00 input  -60.55 | X-H torsion
[ 11005 11000 10999 10996 ] final -133.23 input  -57.11 | X-H torsion

> <Gold.Protein.ActiveResidues>
 VAL166  LYS551  ARG553  GLY616  TRP617  ASP618  TYR619  PRO620  LYS621  CYS622 
 ASP623  PHE694  ASN695  SER759  ASP760  ASP761  ALA762  ILE779  LEU786  VAL792 
 PHE793  MET794  SER795  GLU796  ALA797  LYS798  CYS799  TRP800  GLU811  SER814 

> <Gold.Protein.RotatedAtoms>
  151.7002  133.3311  159.3264 H   0  0  0  0  0  0  0  0  0  0  0  0  # atno 6907 bound_to 6896
  150.7739  134.6622  159.6355 H   0  0  0  0  0  0  0  0  0  0  0  0  # atno 6908 bound_to 6896
  152.3774  134.6645  160.0207 H   0  0  0  0  0  0  0  0  0  0  0  0  # atno 6909 bound_to 6896
  144.9696  140.7531  143.4679 H   0  0  0  0  0  0  0  0  0  0  0  0  # atno 7974 bound_to 7965
  156.1151  140.1480  156.9284 H   0  0  0  0  0  0  0  0  0  0  0  0  # atno 8008 bound_to 7997
  154.4794  140.0884  156.7384 H   0  0  0  0  0  0  0  0  0  0  0  0  # atno 8009 bound_to 7997
  155.4528  140.3435  155.4305 H   0  0  0  0  0  0  0  0  0  0  0  0  # atno 8010 bound_to 7997
  139.4834  144.4705  151.8582 H   0  0  0  0  0  0  0  0  0  0  0  0  # atno 10167 bound_to 10162
  156.0062  130.4585  150.3858 H   0  0  0  0  0  0  0  0  0  0  0  0  # atno 10718 bound_to 10713
  154.8747  135.3812  154.4338 H   0  0  0  0  0  0  0  0  0  0  0  0  # atno 10763 bound_to 10752
  153.5029  135.7030  153.5827 H   0  0  0  0  0  0  0  0  0  0  0  0  # atno 10764 bound_to 10752
  153.4150  135.3915  155.2041 H   0  0  0  0  0  0  0  0  0  0  0  0  # atno 10765 bound_to 10752
  140.9099  134.1581  157.4397 H   0  0  0  0  0  0  0  0  0  0  0  0  # atno 11005 bound_to 11000
  145.2578  139.2004  143.4908 LP  0  0  0  0  0  0  0  0  0  0  0  0  # atno 17320 bound_to 7965
  146.3378  140.2503  142.8598 LP  0  0  0  0  0  0  0  0  0  0  0  0  # atno 17321 bound_to 7965
  140.4174  144.2289  150.5887 LP  0  0  0  0  0  0  0  0  0  0  0  0  # atno 17342 bound_to 10162
  140.4907  143.2348  151.8822 LP  0  0  0  0  0  0  0  0  0  0  0  0  # atno 17343 bound_to 10162
  157.1935  131.0421  151.2688 LP  0  0  0  0  0  0  0  0  0  0  0  0  # atno 17370 bound_to 10713
  157.4040  130.7348  149.6788 LP  0  0  0  0  0  0  0  0  0  0  0  0  # atno 17371 bound_to 10713
  139.8755  134.9931  156.5631 LP  0  0  0  0  0  0  0  0  0  0  0  0  # atno 17394 bound_to 11000
  140.8123  133.8419  155.8821 LP  0  0  0  0  0  0  0  0  0  0  0  0  # atno 17395 bound_to 11000

$$$$
