AV-unprocessed.smi:1701|AV-procd|sdf|6833|dock2
  -GOLD-   22720 8 13D 1   1.00000     0.00000
 Structure written by MMmdl.
 54 56  0  0  0  0  0  0  0  0  2 V2000
  152.1430  144.7977  159.0725 C   0  0  0  0  0  0  0  0  0  0  0  0
  151.6903  143.7009  158.0961 C   0  0  0  0  0  0  0  0  0  0  0  0
  151.7407  142.3609  158.6794 N   0  0  0  0  0  0  0  0  0  0  0  0
  152.9168  142.0277  159.4861 C   0  0  0  0  0  0  0  0  0  0  0  0
  152.8209  142.5417  160.9315 C   0  0  0  0  0  0  0  0  0  0  0  0
  151.1711  141.3537  157.8707 C   0  0  0  0  0  0  0  0  0  0  0  0
  150.9875  141.5832  156.4884 C   0  0  0  0  0  0  0  0  0  0  0  0
  150.4326  140.5633  155.6940 C   0  0  0  0  0  0  0  0  0  0  0  0
  150.0728  139.3401  156.2922 C   0  0  0  0  0  0  0  0  0  0  0  0
  149.5339  138.3302  155.4498 N   0  0  0  0  0  0  0  0  0  0  0  0
  149.0683  137.1066  155.7696 C   0  0  0  0  0  0  0  0  0  0  0  0
  148.9658  136.6682  156.9122 O   0  0  0  0  0  0  0  0  0  0  0  0
  148.7052  136.3618  154.7091 N   0  0  0  0  0  0  0  0  0  0  0  0
  148.1630  134.9995  154.6897 C   0  0  2  0  0  0  0  0  0  0  0  0
  149.1774  133.9654  154.1642 C   0  0  0  0  0  0  0  0  0  0  0  0
  148.3512  133.0213  153.2855 C   0  0  0  0  0  0  0  0  0  0  0  0
  147.3319  133.9110  152.7180 N   0  3  1  0  0  0  0  0  0  0  0  0
  146.1910  133.3096  151.9985 C   0  0  0  0  0  0  0  0  0  0  0  0
  145.3779  134.4450  151.3403 C   0  0  0  0  0  0  0  0  0  0  0  0
  144.9876  135.5470  152.3512 C   0  0  0  0  0  0  0  0  0  0  0  0
  146.2043  136.0395  153.1645 C   0  0  0  0  0  0  0  0  0  0  0  0
  146.9114  134.8252  153.7941 C   0  0  2  0  0  0  0  0  0  0  0  0
  150.3033  139.1985  157.6820 C   0  0  0  0  0  0  0  0  0  0  0  0
  150.8343  140.1749  158.4475 N   0  0  0  0  0  0  0  0  0  0  0  0
  152.0816  145.7793  158.6028 H   0  0  0  0  0  0  0  0  0  0  0  0
  153.1756  144.6489  159.3896 H   0  0  0  0  0  0  0  0  0  0  0  0
  151.5178  144.8198  159.9655 H   0  0  0  0  0  0  0  0  0  0  0  0
  150.6662  143.9005  157.7792 H   0  0  0  0  0  0  0  0  0  0  0  0
  152.2922  143.7471  157.1887 H   0  0  0  0  0  0  0  0  0  0  0  0
  153.0773  140.9490  159.4808 H   0  0  0  0  0  0  0  0  0  0  0  0
  153.7985  142.4659  159.0175 H   0  0  0  0  0  0  0  0  0  0  0  0
  153.7349  142.3141  161.4798 H   0  0  0  0  0  0  0  0  0  0  0  0
  151.9933  142.0870  161.4753 H   0  0  0  0  0  0  0  0  0  0  0  0
  152.6822  143.6228  160.9544 H   0  0  0  0  0  0  0  0  0  0  0  0
  151.2569  142.5275  156.0386 H   0  0  0  0  0  0  0  0  0  0  0  0
  150.2852  140.7232  154.6356 H   0  0  0  0  0  0  0  0  0  0  0  0
  149.4909  138.5719  154.4711 H   0  0  0  0  0  0  0  0  0  0  0  0
  148.8454  136.7873  153.8039 H   0  0  0  0  0  0  0  0  0  0  0  0
  147.9023  134.7014  155.7070 H   0  0  0  0  0  0  0  0  0  0  0  0
  149.9344  134.4554  153.5493 H   0  0  0  0  0  0  0  0  0  0  0  0
  149.6965  133.4395  154.9663 H   0  0  0  0  0  0  0  0  0  0  0  0
  148.9474  132.5366  152.5117 H   0  0  0  0  0  0  0  0  0  0  0  0
  147.8734  132.2499  153.8915 H   0  0  0  0  0  0  0  0  0  0  0  0
  146.5570  132.6189  151.2383 H   0  0  0  0  0  0  0  0  0  0  0  0
  145.5710  132.7349  152.6885 H   0  0  0  0  0  0  0  0  0  0  0  0
  145.9714  134.8916  150.5413 H   0  0  0  0  0  0  0  0  0  0  0  0
  144.4839  134.0388  150.8661 H   0  0  0  0  0  0  0  0  0  0  0  0
  144.5214  136.3844  151.8308 H   0  0  0  0  0  0  0  0  0  0  0  0
  144.2343  135.1537  153.0352 H   0  0  0  0  0  0  0  0  0  0  0  0
  146.8908  136.5873  152.5174 H   0  0  0  0  0  0  0  0  0  0  0  0
  145.8689  136.7341  153.9344 H   0  0  0  0  0  0  0  0  0  0  0  0
  146.1761  134.2950  154.4036 H   0  0  0  0  0  0  0  0  0  0  0  0
  150.0838  138.2878  158.2150 H   0  0  0  0  0  0  0  0  0  0  0  0
  147.8228  134.4832  152.0459 H   0  0  0  0  0  0  0  0  0  0  0  0
  1  2  1  0  0  0  0
  1 25  1  0  0  0  0
  1 26  1  0  0  0  0
  1 27  1  0  0  0  0
  2  3  1  0  0  0  0
  2 28  1  0  0  0  0
  2 29  1  0  0  0  0
  3  4  1  0  0  0  0
  3  6  1  0  0  0  0
  4  5  1  0  0  0  0
  4 30  1  0  0  0  0
  4 31  1  0  0  0  0
  5 32  1  0  0  0  0
  5 33  1  0  0  0  0
  5 34  1  0  0  0  0
  6 24  1  0  0  0  0
  6  7  2  0  0  0  0
  7  8  1  0  0  0  0
  7 35  1  0  0  0  0
  8  9  2  0  0  0  0
  8 36  1  0  0  0  0
  9 10  1  0  0  0  0
  9 23  1  0  0  0  0
 10 11  1  0  0  0  0
 10 37  1  0  0  0  0
 11 12  2  0  0  0  0
 11 13  1  0  0  0  0
 13 14  1  0  0  0  0
 13 38  1  0  0  0  0
 14 22  1  0  0  0  0
 14 15  1  0  0  0  0
 14 39  1  0  0  0  0
 15 16  1  0  0  0  0
 15 40  1  0  0  0  0
 15 41  1  0  0  0  0
 16 17  1  0  0  0  0
 16 42  1  0  0  0  0
 16 43  1  0  0  0  0
 17 22  1  0  0  0  0
 17 18  1  0  0  0  0
 17 54  1  0  0  0  0
 18 19  1  0  0  0  0
 18 44  1  0  0  0  0
 18 45  1  0  0  0  0
 19 20  1  0  0  0  0
 19 46  1  0  0  0  0
 19 47  1  0  0  0  0
 20 21  1  0  0  0  0
 20 48  1  0  0  0  0
 20 49  1  0  0  0  0
 21 22  1  0  0  0  0
 21 50  1  0  0  0  0
 21 51  1  0  0  0  0
 22 52  1  0  0  0  0
 23 24  2  0  0  0  0
 23 53  1  0  0  0  0
M  CHG  1  17   1
M  END
> <s_m_source_file>
AV-unprocessed.smi

> <i_m_source_file_index>
1701

> <i_lp_mmshare_version>
43012

> <i_f3d_flags>
0

> <s_epik_input>
W0NIM11bQ0gyXU4oW0NIMl1bQ0gzXSljMVtjSF1bY0hdYyhbY0hdbjEpW05IXUMoPU8pW05IXVtDQEhdKFtDSDJdW0NIMl0yKVtDQEBIXShOMjMpW0NIMl1bQ0gyXVtDSDJdW0NIMl0z

> <s_epik_cmdline>
J2VwaWtfcHl0aG9uJywgJy1waCcsICc3LjAnLCAnLXRuJywgJzgnLCAnLW1hJywgJzIwMCcsICctbWV0YWxfYmluZGluZycsICctaW1hZScsICc8aW5maWxlLm1hZT4nLCAnLW9tYWUnLCAnPG91dGZpbGUubWFlPic=

> <r_lp_tautomer_probability>
1

> <r_epik_Ionization_Penalty>
0.56662

> <r_epik_Ionization_Penalty_Charging>
0.000974069

> <r_epik_Ionization_Penalty_Neutral>
0.565646

> <r_epik_State_Penalty>
2.0247

> <r_epik_Charging_Adjusted_Penalty>
2.02568

> <i_epik_Tot_Q>
1

> <i_epik_Tot_abs_Q>
1

> <r_epik_Metal_State_Penalty>
1.51504

> <b_epik_Metal_Only>
0

> <s_lp_Force_Field>
OPLS_2005

> <r_lp_Energy>
60.4427

> <b_lp_Chiralities_Consistent>
1

> <s_lp_Variant>
AV-unprocessed.smi:1701-13

> <Gold.Version>
5.8.1

> <Gold.Id.Protein>
6NUR|6NUR_protein|mol2

> <Gold.PLP.Fitness>
46.2762

> <Gold.PLP.PLP>
-39.6141

> <Gold.PLP.part.hbond>
-2.0000

> <Gold.PLP.part.metal>
0.0000

> <Gold.PLP.part.buried>
-1.8392

> <Gold.PLP.part.nonpolar>
-35.4178

> <Gold.PLP.part.repulsive>
0.0189

> <Gold.PLP.ligand.clash>
0.0000

> <Gold.PLP.ligand.torsion>
0.9480

> <Gold.PLP.Chemscore.Hbond>
2.5600

> <Gold.PLP.Chemscore.CHOScore>
0.0000

> <Gold.PLP.Chemscore.Metal>
0.0000

> <Gold.Chemscore.Hbonds>
donor molecule, donor type, donor heavy atom, donor atom, acceptor molecule, acceptor atom, score
      L1  H    13    38       P1  7948  0.78
      L1  H    17    54       P1  7948  1.74

> <Gold.PLP.Chemscore.Internal.Correction>
0.8782

> <Gold.Rescore>
     Score         DG    S(hbond)    S(metal)    S(lipo)     H(rot)  DE(clash)    DE(int)     intcor
     15.22     -17.42       1.12        0.00     101.69       1.44       0.04       2.16       ----

> <Gold.Chemscore.Fitness>
15.2217

> <Gold.Chemscore.DG>
-17.4225

> <Gold.Chemscore.ZeroCoef>
-5.4800

> <Gold.Chemscore.Hbond>
1.1175

> <Gold.Chemscore.Metal>
0.0000

> <Gold.Chemscore.Lipo>
101.6881

> <Gold.Chemscore.Internal_Hbond>
0.0000

> <Gold.Chemscore.DEClash>
0.0366

> <Gold.Chemscore.DEInternal>
2.1643

> <Gold.Chemscore.Rot>
1.4404

> <Gold.Chemscore.Internal.Correction>
   9.000000E+99

> <Gold.Chemscore.Hbonds>
donor molecule, donor type, donor heavy atom, donor atom, acceptor molecule, acceptor atom, score
      L1  H    13    38       P1  7948  0.74
      L1  H    17    54       P1  7948  0.24

> <Gold.Chemscore.Hbond.Weighted>
-3.7325

> <Gold.Chemscore.Metal.Weighted>
-0.0000

> <Gold.Chemscore.Lipo.Weighted>
-11.8975

> <Gold.Chemscore.Internal_Hbond.Weighted>
0.0000

> <Gold.Chemscore.DEClash.Weighted>
0.0366

> <Gold.Chemscore.DEInternal.Weighted>
2.1643

> <Gold.Chemscore.Rot.Weighted>
3.6875

> <Gold.Chemscore.Internal.Correction.Weighted>
   9.000000E+99

> <Gold.Protein.RotatedTorsions>
[ 6907 6896 6895 6894 ] final   72.49 input  -60.11 | X-H torsion
[ 7974 7965 7964 7962 ] final  -21.86 input  175.53 | X-H torsion
[ 8008 7997 7996 7995 ] final -172.76 input   59.86 | X-H torsion
[ 10167 10162 10161 10158 ] final  114.43 input  -65.29 | X-H torsion
[ 10718 10713 10712 10709 ] final -106.32 input   66.30 | X-H torsion
[ 10763 10752 10751 10750 ] final -146.41 input  -60.55 | X-H torsion
[ 11005 11000 10999 10996 ] final  167.18 input  -57.11 | X-H torsion

> <Gold.Protein.ActiveResidues>
 VAL166  LYS551  ARG553  GLY616  TRP617  ASP618  TYR619  PRO620  LYS621  CYS622 
 ASP623  PHE694  ASN695  SER759  ASP760  ASP761  ALA762  ILE779  LEU786  VAL792 
 PHE793  MET794  SER795  GLU796  ALA797  LYS798  CYS799  TRP800  GLU811  SER814 

> <Gold.Protein.RotatedAtoms>
  152.4870  134.4564  159.9590 H   0  0  0  0  0  0  0  0  0  0  0  0  # atno 6907 bound_to 6896
  151.4558  133.3599  159.2810 H   0  0  0  0  0  0  0  0  0  0  0  0  # atno 6908 bound_to 6896
  150.8990  134.8425  159.7407 H   0  0  0  0  0  0  0  0  0  0  0  0  # atno 6909 bound_to 6896
  146.1709  140.4399  142.8533 H   0  0  0  0  0  0  0  0  0  0  0  0  # atno 7974 bound_to 7965
  155.9488  140.1122  157.0994 H   0  0  0  0  0  0  0  0  0  0  0  0  # atno 8008 bound_to 7997
  154.4105  140.1204  156.5091 H   0  0  0  0  0  0  0  0  0  0  0  0  # atno 8009 bound_to 7997
  155.6869  140.3473  155.4880 H   0  0  0  0  0  0  0  0  0  0  0  0  # atno 8010 bound_to 7997
  139.6389  144.7122  151.2277 H   0  0  0  0  0  0  0  0  0  0  0  0  # atno 10167 bound_to 10162
  156.0385  130.5607  150.7663 H   0  0  0  0  0  0  0  0  0  0  0  0  # atno 10718 bound_to 10713
  154.8337  135.3387  154.6656 H   0  0  0  0  0  0  0  0  0  0  0  0  # atno 10763 bound_to 10752
  153.7273  135.6954  153.5002 H   0  0  0  0  0  0  0  0  0  0  0  0  # atno 10764 bound_to 10752
  153.2337  135.4407  155.0576 H   0  0  0  0  0  0  0  0  0  0  0  0  # atno 10765 bound_to 10752
  140.2741  134.7803  157.3701 H   0  0  0  0  0  0  0  0  0  0  0  0  # atno 11005 bound_to 11000
  144.8162  140.6471  143.6383 LP  0  0  0  0  0  0  0  0  0  0  0  0  # atno 17320 bound_to 7965
  145.4342  139.1544  143.4005 LP  0  0  0  0  0  0  0  0  0  0  0  0  # atno 17321 bound_to 7965
  140.7480  143.6347  150.8390 LP  0  0  0  0  0  0  0  0  0  0  0  0  # atno 17342 bound_to 10162
  139.9981  143.5773  152.2885 LP  0  0  0  0  0  0  0  0  0  0  0  0  # atno 17343 bound_to 10162
  157.5169  131.0929  151.0128 LP  0  0  0  0  0  0  0  0  0  0  0  0  # atno 17370 bound_to 10713
  157.0468  130.5771  149.5364 LP  0  0  0  0  0  0  0  0  0  0  0  0  # atno 17371 bound_to 10713
  140.1345  134.5052  155.8079 LP  0  0  0  0  0  0  0  0  0  0  0  0  # atno 17394 bound_to 11000
  141.2173  133.6802  156.7099 LP  0  0  0  0  0  0  0  0  0  0  0  0  # atno 17395 bound_to 11000

$$$$
