AV-unprocessed.smi:3131|AV-procd|sdf|11927|dock2
  -GOLD-   2272017313D 1   1.00000     0.00000
 Structure written by MMmdl.
 43 43  0  0  0  0  0  0  0  0  2 V2000
  149.7444  141.6810  155.0432 C   0  0  0  0  0  0  0  0  0  0  0  0
  148.6181  140.6368  155.0659 C   0  0  0  0  0  0  0  0  0  0  0  0
  147.8318  140.5156  153.7386 C   0  0  0  0  0  0  0  0  0  0  0  0
  146.8732  141.7160  153.5449 C   0  0  0  0  0  0  0  0  0  0  0  0
  146.0418  142.0697  154.7871 C   0  0  0  0  0  0  0  0  0  0  0  0
  147.0554  139.1814  153.6708 C   0  0  0  0  0  0  0  0  0  0  0  0
  146.2247  139.0924  152.4532 N   0  3  0  0  0  0  0  0  0  0  0  0
  146.2403  137.7653  151.8018 C   0  0  0  0  0  0  0  0  0  0  0  0
  145.1786  136.8175  152.4006 C   0  0  1  0  0  0  0  0  0  0  0  0
  145.3394  136.7248  153.9281 C   0  0  0  0  0  0  0  0  0  0  0  0
  143.9123  137.4102  152.1795 O   0  0  0  0  0  0  0  0  0  0  0  0
  145.2722  135.4383  151.7826 C   0  0  0  0  0  0  0  0  0  0  0  0
  146.3541  134.5108  151.8452 C   0  0  0  0  0  0  0  0  0  0  0  0
  146.1053  133.3802  151.2059 N   0  0  0  0  0  0  0  0  0  0  0  0
  144.8644  133.5434  150.7061 N   0  0  0  0  0  0  0  0  0  0  0  0
  144.2621  132.4809  149.9297 C   0  0  0  0  0  0  0  0  0  0  0  0
  144.3380  134.7729  151.0366 C   0  0  0  0  0  0  0  0  0  0  0  0
  150.1900  141.7834  156.0331 H   0  0  0  0  0  0  0  0  0  0  0  0
  149.3677  142.6612  154.7500 H   0  0  0  0  0  0  0  0  0  0  0  0
  150.5460  141.4077  154.3580 H   0  0  0  0  0  0  0  0  0  0  0  0
  149.0248  139.6646  155.3471 H   0  0  0  0  0  0  0  0  0  0  0  0
  147.9419  140.9185  155.8716 H   0  0  0  0  0  0  0  0  0  0  0  0
  148.5534  140.5263  152.9200 H   0  0  0  0  0  0  0  0  0  0  0  0
  147.4447  142.6059  153.2808 H   0  0  0  0  0  0  0  0  0  0  0  0
  146.2092  141.5291  152.7001 H   0  0  0  0  0  0  0  0  0  0  0  0
  145.4621  142.9768  154.6137 H   0  0  0  0  0  0  0  0  0  0  0  0
  146.6808  142.2484  155.6522 H   0  0  0  0  0  0  0  0  0  0  0  0
  145.3352  141.2824  155.0471 H   0  0  0  0  0  0  0  0  0  0  0  0
  147.7416  138.3359  153.6566 H   0  0  0  0  0  0  0  0  0  0  0  0
  146.4269  139.0640  154.5547 H   0  0  0  0  0  0  0  0  0  0  0  0
  145.2698  139.3144  152.6967 H   0  0  0  0  0  0  0  0  0  0  0  0
  146.0540  137.9021  150.7355 H   0  0  0  0  0  0  0  0  0  0  0  0
  147.2365  137.3293  151.8934 H   0  0  0  0  0  0  0  0  0  0  0  0
  146.3094  136.3086  154.2020 H   0  0  0  0  0  0  0  0  0  0  0  0
  144.5727  136.0866  154.3696 H   0  0  0  0  0  0  0  0  0  0  0  0
  145.2622  137.7057  154.3990 H   0  0  0  0  0  0  0  0  0  0  0  0
  144.0283  138.3415  152.0655 H   0  0  0  0  0  0  0  0  0  0  0  0
  147.3075  134.6229  152.3404 H   0  0  0  0  0  0  0  0  0  0  0  0
  143.2309  132.7358  149.6830 H   0  0  0  0  0  0  0  0  0  0  0  0
  144.2699  131.5529  150.5028 H   0  0  0  0  0  0  0  0  0  0  0  0
  144.8226  132.3368  149.0055 H   0  0  0  0  0  0  0  0  0  0  0  0
  143.3495  135.0705  150.7188 H   0  0  0  0  0  0  0  0  0  0  0  0
  146.5524  139.7775  151.7872 H   0  0  0  0  0  0  0  0  0  0  0  0
  1  2  1  0  0  0  0
  1 18  1  0  0  0  0
  1 19  1  0  0  0  0
  1 20  1  0  0  0  0
  2  3  1  0  0  0  0
  2 21  1  0  0  0  0
  2 22  1  0  0  0  0
  3  4  1  0  0  0  0
  3  6  1  0  0  0  0
  3 23  1  0  0  0  0
  4  5  1  0  0  0  0
  4 24  1  0  0  0  0
  4 25  1  0  0  0  0
  5 26  1  0  0  0  0
  5 27  1  0  0  0  0
  5 28  1  0  0  0  0
  6  7  1  0  0  0  0
  6 29  1  0  0  0  0
  6 30  1  0  0  0  0
  7  8  1  0  0  0  0
  7 31  1  0  0  0  0
  7 43  1  0  0  0  0
  8  9  1  0  0  0  0
  8 32  1  0  0  0  0
  8 33  1  0  0  0  0
  9 10  1  0  0  0  0
  9 11  1  0  0  0  0
  9 12  1  0  0  0  0
 10 34  1  0  0  0  0
 10 35  1  0  0  0  0
 10 36  1  0  0  0  0
 11 37  1  0  0  0  0
 12 17  2  0  0  0  0
 12 13  1  0  0  0  0
 13 14  2  0  0  0  0
 13 38  1  0  0  0  0
 14 15  1  0  0  0  0
 15 16  1  0  0  0  0
 15 17  1  0  0  0  0
 16 39  1  0  0  0  0
 16 40  1  0  0  0  0
 16 41  1  0  0  0  0
 17 42  1  0  0  0  0
M  CHG  1   7   1
M  END
> <s_m_source_file>
AV-unprocessed.smi

> <i_m_source_file_index>
3131

> <i_lp_mmshare_version>
43012

> <i_f3d_flags>
0

> <s_epik_input>
W0NIM11bQ0gyXVtDSF0oW0NIMl1bQ0gzXSlbQ0gyXVtOSF1bQ0gyXVtDQEBdKFtDSDNdKShbT0hdKWMxW2NIXW5uKFtDSDNdKVtjSF0x

> <s_epik_cmdline>
J2VwaWtfcHl0aG9uJywgJy1waCcsICc3LjAnLCAnLXRuJywgJzgnLCAnLW1hJywgJzIwMCcsICctbWV0YWxfYmluZGluZycsICctaW1hZScsICc8aW5maWxlLm1hZT4nLCAnLW9tYWUnLCAnPG91dGZpbGUubWFlPic=

> <r_lp_tautomer_probability>
1

> <r_epik_Ionization_Penalty>
0.00304809

> <r_epik_Ionization_Penalty_Charging>
0.00302982

> <r_epik_Ionization_Penalty_Neutral>
1.82731e-05

> <r_epik_State_Penalty>
0.00212874

> <r_epik_Charging_Adjusted_Penalty>
0.00515857

> <i_epik_Tot_Q>
1

> <i_epik_Tot_abs_Q>
1

> <r_epik_Metal_State_Penalty>
-0

> <b_epik_Metal_Only>
0

> <s_lp_Force_Field>
OPLS_2005

> <r_lp_Energy>
10.206

> <b_lp_Chiralities_Consistent>
1

> <s_lp_Variant>
AV-unprocessed.smi:3131-1

> <Gold.Version>
5.8.1

> <Gold.Id.Protein>
6NUR|6NUR_protein|mol2

> <Gold.PLP.Fitness>
45.7322

> <Gold.PLP.PLP>
-32.9813

> <Gold.PLP.part.hbond>
-2.7564

> <Gold.PLP.part.metal>
0.0000

> <Gold.PLP.part.buried>
-2.1454

> <Gold.PLP.part.nonpolar>
-28.0122

> <Gold.PLP.part.repulsive>
0.2009

> <Gold.PLP.ligand.clash>
0.0000

> <Gold.PLP.ligand.torsion>
0.7509

> <Gold.PLP.Chemscore.Hbond>
3.0000

> <Gold.PLP.Chemscore.CHOScore>
1.6480

> <Gold.PLP.Chemscore.Metal>
0.0000

> <Gold.Chemscore.Hbonds>
donor molecule, donor type, donor heavy atom, donor atom, acceptor molecule, acceptor atom, score
      L1  H     7    31       P1 10175  1.95
      L1  H    11    37       P1 10175  0.68
      L1  C    13    38       P1  7948  0.93
      L1  C    17    42       P1 10186  0.51

> <Gold.PLP.Chemscore.Internal.Correction>
0.3087

> <Gold.Rescore>
     Score         DG    S(hbond)    S(metal)    S(lipo)     H(rot)  DE(clash)    DE(int)     intcor
     13.52     -15.36       1.92        0.00      80.93       2.34       0.25       1.59       ----

> <Gold.Chemscore.Fitness>
13.5179

> <Gold.Chemscore.DG>
-15.3615

> <Gold.Chemscore.ZeroCoef>
-5.4800

> <Gold.Chemscore.Hbond>
1.9190

> <Gold.Chemscore.Metal>
0.0000

> <Gold.Chemscore.Lipo>
80.9340

> <Gold.Chemscore.Internal_Hbond>
0.0000

> <Gold.Chemscore.DEClash>
0.2530

> <Gold.Chemscore.DEInternal>
1.5907

> <Gold.Chemscore.Rot>
2.3426

> <Gold.Chemscore.Internal.Correction>
   9.000000E+99

> <Gold.Chemscore.Hbonds>
donor molecule, donor type, donor heavy atom, donor atom, acceptor molecule, acceptor atom, score
      L1  H     7    31       P1 10175  0.91
      L1  H    11    37       P1 10175  0.66

> <Gold.Chemscore.Hbond.Weighted>
-6.4094

> <Gold.Chemscore.Metal.Weighted>
-0.0000

> <Gold.Chemscore.Lipo.Weighted>
-9.4693

> <Gold.Chemscore.Internal_Hbond.Weighted>
0.0000

> <Gold.Chemscore.DEClash.Weighted>
0.2530

> <Gold.Chemscore.DEInternal.Weighted>
1.5907

> <Gold.Chemscore.Rot.Weighted>
5.9972

> <Gold.Chemscore.Internal.Correction.Weighted>
   9.000000E+99

> <Gold.Protein.RotatedTorsions>
[ 6907 6896 6895 6894 ] final  -83.13 input  -60.11 | X-H torsion
[ 7974 7965 7964 7962 ] final -151.50 input  175.53 | X-H torsion
[ 8008 7997 7996 7995 ] final   86.18 input   59.86 | X-H torsion
[ 10167 10162 10161 10158 ] final  -51.44 input  -65.29 | X-H torsion
[ 10718 10713 10712 10709 ] final  -90.24 input   66.30 | X-H torsion
[ 10763 10752 10751 10750 ] final -169.60 input  -60.55 | X-H torsion
[ 11005 11000 10999 10996 ] final  -23.16 input  -57.11 | X-H torsion

> <Gold.Protein.ActiveResidues>
 VAL166  LYS551  ARG553  GLY616  TRP617  ASP618  TYR619  PRO620  LYS621  CYS622 
 ASP623  PHE694  ASN695  SER759  ASP760  ASP761  ALA762  ILE779  LEU786  VAL792 
 PHE793  MET794  SER795  GLU796  ALA797  LYS798  CYS799  TRP800  GLU811  SER814 

> <Gold.Protein.RotatedAtoms>
  150.6889  134.3558  159.4928 H   0  0  0  0  0  0  0  0  0  0  0  0  # atno 6907 bound_to 6896
  152.1393  134.9072  160.0564 H   0  0  0  0  0  0  0  0  0  0  0  0  # atno 6908 bound_to 6896
  152.0211  133.3864  159.4295 H   0  0  0  0  0  0  0  0  0  0  0  0  # atno 6909 bound_to 6896
  144.7846  140.4789  143.5815 H   0  0  0  0  0  0  0  0  0  0  0  0  # atno 7974 bound_to 7965
  155.9595  140.3394  155.6478 H   0  0  0  0  0  0  0  0  0  0  0  0  # atno 8008 bound_to 7997
  155.6816  140.0738  157.2501 H   0  0  0  0  0  0  0  0  0  0  0  0  # atno 8009 bound_to 7997
  154.4140  140.1673  156.1976 H   0  0  0  0  0  0  0  0  0  0  0  0  # atno 8010 bound_to 7997
  140.6588  143.2620  151.4504 H   0  0  0  0  0  0  0  0  0  0  0  0  # atno 10167 bound_to 10162
  155.9987  130.4902  150.5292 H   0  0  0  0  0  0  0  0  0  0  0  0  # atno 10718 bound_to 10713
  154.6506  135.2911  154.9992 H   0  0  0  0  0  0  0  0  0  0  0  0  # atno 10763 bound_to 10752
  154.1086  135.6566  153.4885 H   0  0  0  0  0  0  0  0  0  0  0  0  # atno 10764 bound_to 10752
  153.0374  135.5259  154.7412 H   0  0  0  0  0  0  0  0  0  0  0  0  # atno 10765 bound_to 10752
  140.8726  133.7710  156.0204 H   0  0  0  0  0  0  0  0  0  0  0  0  # atno 11005 bound_to 11000
  145.5956  139.1499  143.3158 LP  0  0  0  0  0  0  0  0  0  0  0  0  # atno 17320 bound_to 7965
  146.2072  140.6080  142.9076 LP  0  0  0  0  0  0  0  0  0  0  0  0  # atno 17321 bound_to 7965
  139.5817  144.1695  152.1976 LP  0  0  0  0  0  0  0  0  0  0  0  0  # atno 17342 bound_to 10162
  140.1022  144.5529  150.6981 LP  0  0  0  0  0  0  0  0  0  0  0  0  # atno 17343 bound_to 10162
  157.3244  131.0688  151.1908 LP  0  0  0  0  0  0  0  0  0  0  0  0  # atno 17370 bound_to 10713
  157.2810  130.6750  149.6066 LP  0  0  0  0  0  0  0  0  0  0  0  0  # atno 17371 bound_to 10713
  140.8556  134.2902  157.5257 LP  0  0  0  0  0  0  0  0  0  0  0  0  # atno 17394 bound_to 11000
  139.8713  134.9491  156.4015 LP  0  0  0  0  0  0  0  0  0  0  0  0  # atno 17395 bound_to 11000

$$$$
