AV-unprocessed.smi:3181|AV-procd|sdf|12136|dock1
  -GOLD-   2272017573D 1   1.00000     0.00000
 Structure written by MMmdl.
 42 43  0  0  0  0  0  0  0  0  2 V2000
  148.4072  140.9568  154.9810 C   0  0  0  0  0  0  0  0  0  0  0  0
  149.4715  140.9127  156.0897 C   0  0  1  0  0  0  0  0  0  0  0  0
  150.8934  140.6911  155.5297 C   0  0  0  0  0  0  0  0  0  0  0  0
  151.0828  139.3614  154.9807 N   0  0  0  0  0  0  0  0  0  0  0  0
  152.1927  138.7285  154.5968 C   0  0  0  0  0  0  0  0  0  0  0  0
  151.9790  137.5002  154.1472 N   0  0  0  0  0  0  0  0  0  0  0  0
  150.6228  137.4330  154.2990 C   0  0  0  0  0  0  0  0  0  0  0  0
  150.0369  138.5219  154.7979 N   0  0  0  0  0  0  0  0  0  0  0  0
  149.4226  142.1689  156.8726 N   0  3  0  0  0  0  0  0  0  0  0  0
  150.6145  142.4695  157.6997 C   0  0  2  0  0  0  0  0  0  0  0  0
  151.0241  141.2138  158.4901 C   0  0  0  0  0  0  0  0  0  0  0  0
  152.2386  141.4780  159.3937 C   0  0  0  0  0  0  0  0  0  0  0  0
  151.9829  142.6592  160.3495 C   0  0  1  0  0  0  0  0  0  0  0  0
  153.1590  142.8760  161.3158 C   0  0  0  0  0  0  0  0  0  0  0  0
  151.5773  143.9399  159.5763 C   0  0  1  0  0  0  0  0  0  0  0  0
  152.7323  144.6007  158.7966 C   0  0  0  0  0  0  0  0  0  0  0  0
  150.3665  143.6525  158.6633 C   0  0  0  0  0  0  0  0  0  0  0  0
  148.3672  140.0191  154.4259 H   0  0  0  0  0  0  0  0  0  0  0  0
  148.6090  141.7566  154.2678 H   0  0  0  0  0  0  0  0  0  0  0  0
  147.4139  141.1252  155.3984 H   0  0  0  0  0  0  0  0  0  0  0  0
  149.2177  140.0775  156.7444 H   0  0  0  0  0  0  0  0  0  0  0  0
  151.1065  141.4189  154.7454 H   0  0  0  0  0  0  0  0  0  0  0  0
  151.6454  140.8442  156.3041 H   0  0  0  0  0  0  0  0  0  0  0  0
  153.1757  139.1743  154.6445 H   0  0  0  0  0  0  0  0  0  0  0  0
  150.0511  136.5551  154.0359 H   0  0  0  0  0  0  0  0  0  0  0  0
  149.2448  142.9430  156.2487 H   0  0  0  0  0  0  0  0  0  0  0  0
  151.4312  142.7190  157.0211 H   0  0  0  0  0  0  0  0  0  0  0  0
  150.1883  140.8742  159.1035 H   0  0  0  0  0  0  0  0  0  0  0  0
  151.2532  140.3977  157.8036 H   0  0  0  0  0  0  0  0  0  0  0  0
  152.4607  140.5784  159.9688 H   0  0  0  0  0  0  0  0  0  0  0  0
  153.1200  141.6711  158.7814 H   0  0  0  0  0  0  0  0  0  0  0  0
  151.1280  142.3851  160.9699 H   0  0  0  0  0  0  0  0  0  0  0  0
  154.0915  143.0642  160.7832 H   0  0  0  0  0  0  0  0  0  0  0  0
  153.3139  141.9966  161.9415 H   0  0  0  0  0  0  0  0  0  0  0  0
  152.9740  143.7215  161.9789 H   0  0  0  0  0  0  0  0  0  0  0  0
  151.2490  144.6744  160.3132 H   0  0  0  0  0  0  0  0  0  0  0  0
  153.1783  143.9259  158.0668 H   0  0  0  0  0  0  0  0  0  0  0  0
  153.5256  144.9351  159.4650 H   0  0  0  0  0  0  0  0  0  0  0  0
  152.3826  145.4819  158.2581 H   0  0  0  0  0  0  0  0  0  0  0  0
  150.1177  144.5564  158.1068 H   0  0  0  0  0  0  0  0  0  0  0  0
  149.4976  143.4333  159.2854 H   0  0  0  0  0  0  0  0  0  0  0  0
  148.6405  142.0897  157.5065 H   0  0  0  0  0  0  0  0  0  0  0  0
  1  2  1  0  0  0  0
  1 18  1  0  0  0  0
  1 19  1  0  0  0  0
  1 20  1  0  0  0  0
  2  3  1  0  0  0  0
  2  9  1  0  0  0  0
  2 21  1  0  0  0  0
  3  4  1  0  0  0  0
  3 22  1  0  0  0  0
  3 23  1  0  0  0  0
  4  8  1  0  0  0  0
  4  5  1  0  0  0  0
  5  6  2  0  0  0  0
  5 24  1  0  0  0  0
  6  7  1  0  0  0  0
  7  8  2  0  0  0  0
  7 25  1  0  0  0  0
  9 10  1  0  0  0  0
  9 26  1  0  0  0  0
  9 42  1  0  0  0  0
 10 17  1  0  0  0  0
 10 11  1  0  0  0  0
 10 27  1  0  0  0  0
 11 12  1  0  0  0  0
 11 28  1  0  0  0  0
 11 29  1  0  0  0  0
 12 13  1  0  0  0  0
 12 30  1  0  0  0  0
 12 31  1  0  0  0  0
 13 14  1  0  0  0  0
 13 15  1  0  0  0  0
 13 32  1  0  0  0  0
 14 33  1  0  0  0  0
 14 34  1  0  0  0  0
 14 35  1  0  0  0  0
 15 16  1  0  0  0  0
 15 17  1  0  0  0  0
 15 36  1  0  0  0  0
 16 37  1  0  0  0  0
 16 38  1  0  0  0  0
 16 39  1  0  0  0  0
 17 40  1  0  0  0  0
 17 41  1  0  0  0  0
M  CHG  1   9   1
M  END
> <s_m_source_file>
AV-unprocessed.smi

> <i_m_source_file_index>
3181

> <i_lp_mmshare_version>
43012

> <i_f3d_flags>
0

> <s_epik_input>
bjFbY0hdbltjSF1uMVtDSDJdW0NAQEhdKFtDSDNdKVtOSF1bQ0BASF0yW0NIMl1bQ0gyXVtDQEBIXShbQ0gzXSlbQ0BASF0oW0NIM10pW0NIMl0y

> <s_epik_cmdline>
J2VwaWtfcHl0aG9uJywgJy1waCcsICc3LjAnLCAnLXRuJywgJzgnLCAnLW1hJywgJzIwMCcsICctbWV0YWxfYmluZGluZycsICctaW1hZScsICc8aW5maWxlLm1hZT4nLCAnLW9tYWUnLCAnPG91dGZpbGUubWFlPic=

> <r_lp_tautomer_probability>
1

> <r_epik_Ionization_Penalty>
0.000617007

> <r_epik_Ionization_Penalty_Charging>
0.000616215

> <r_epik_Ionization_Penalty_Neutral>
7.92544e-07

> <r_epik_State_Penalty>
0.000388807

> <r_epik_Charging_Adjusted_Penalty>
0.00100502

> <i_epik_Tot_Q>
1

> <i_epik_Tot_abs_Q>
1

> <r_epik_Metal_State_Penalty>
-0

> <b_epik_Metal_Only>
0

> <s_lp_Force_Field>
OPLS_2005

> <r_lp_Energy>
21.1382

> <b_lp_Chiralities_Consistent>
1

> <s_lp_Variant>
AV-unprocessed.smi:3181-2

> <Gold.Version>
5.8.1

> <Gold.Id.Protein>
6NUR|6NUR_protein|mol2

> <Gold.PLP.Fitness>
48.2138

> <Gold.PLP.PLP>
-37.6665

> <Gold.PLP.part.hbond>
-2.0000

> <Gold.PLP.part.metal>
0.0000

> <Gold.PLP.part.buried>
-3.4491

> <Gold.PLP.part.nonpolar>
-33.2018

> <Gold.PLP.part.repulsive>
0.3103

> <Gold.PLP.ligand.clash>
0.0000

> <Gold.PLP.ligand.torsion>
0.4112

> <Gold.PLP.Chemscore.Hbond>
2.9120

> <Gold.PLP.Chemscore.CHOScore>
0.8580

> <Gold.PLP.Chemscore.Metal>
0.0000

> <Gold.Chemscore.Hbonds>
donor molecule, donor type, donor heavy atom, donor atom, acceptor molecule, acceptor atom, score
      L1  H     9    26       P1  8028  2.00
      P1  H 10752 10765       L1     6  0.86
      L1  C     7    25       P1  7948  0.87
      L1  C     7    25       P1  7949  0.01

> <Gold.PLP.Chemscore.Internal.Correction>
0.0597

> <Gold.Rescore>
     Score         DG    S(hbond)    S(metal)    S(lipo)     H(rot)  DE(clash)    DE(int)     intcor
     15.16     -17.17       1.75        0.00      96.13       2.11       0.24       1.77       ----

> <Gold.Chemscore.Fitness>
15.1636

> <Gold.Chemscore.DG>
-17.1707

> <Gold.Chemscore.ZeroCoef>
-5.4800

> <Gold.Chemscore.Hbond>
1.7496

> <Gold.Chemscore.Metal>
0.0000

> <Gold.Chemscore.Lipo>
96.1320

> <Gold.Chemscore.Internal_Hbond>
0.0000

> <Gold.Chemscore.DEClash>
0.2404

> <Gold.Chemscore.DEInternal>
1.7667

> <Gold.Chemscore.Rot>
2.1095

> <Gold.Chemscore.Internal.Correction>
   9.000000E+99

> <Gold.Chemscore.Hbonds>
donor molecule, donor type, donor heavy atom, donor atom, acceptor molecule, acceptor atom, score
      L1  H     9    26       P1  8028  0.99
      P1  H 10752 10765       L1     6  0.75

> <Gold.Chemscore.Hbond.Weighted>
-5.8436

> <Gold.Chemscore.Metal.Weighted>
-0.0000

> <Gold.Chemscore.Lipo.Weighted>
-11.2474

> <Gold.Chemscore.Internal_Hbond.Weighted>
0.0000

> <Gold.Chemscore.DEClash.Weighted>
0.2404

> <Gold.Chemscore.DEInternal.Weighted>
1.7667

> <Gold.Chemscore.Rot.Weighted>
5.4003

> <Gold.Chemscore.Internal.Correction.Weighted>
   9.000000E+99

> <Gold.Protein.RotatedTorsions>
[ 6907 6896 6895 6894 ] final  -88.65 input  -60.11 | X-H torsion
[ 7974 7965 7964 7962 ] final  -66.41 input  175.53 | X-H torsion
[ 8008 7997 7996 7995 ] final  -22.86 input   59.86 | X-H torsion
[ 10167 10162 10161 10158 ] final    6.04 input  -65.29 | X-H torsion
[ 10718 10713 10712 10709 ] final   74.10 input   66.30 | X-H torsion
[ 10763 10752 10751 10750 ] final  157.97 input  -60.55 | X-H torsion
[ 11005 11000 10999 10996 ] final  -89.77 input  -57.11 | X-H torsion

> <Gold.Protein.ActiveResidues>
 VAL166  LYS551  ARG553  GLY616  TRP617  ASP618  TYR619  PRO620  LYS621  CYS622 
 ASP623  PHE694  ASN695  SER759  ASP760  ASP761  ALA762  ILE779  LEU786  VAL792 
 PHE793  MET794  SER795  GLU796  ALA797  LYS798  CYS799  TRP800  GLU811  SER814 

> <Gold.Protein.RotatedAtoms>
  150.6869  134.2709  159.4587 H   0  0  0  0  0  0  0  0  0  0  0  0  # atno 6907 bound_to 6896
  152.0631  134.9579  160.0584 H   0  0  0  0  0  0  0  0  0  0  0  0  # atno 6908 bound_to 6896
  152.0998  133.4209  159.4619 H   0  0  0  0  0  0  0  0  0  0  0  0  # atno 6909 bound_to 6896
  145.7421  140.8948  143.0524 H   0  0  0  0  0  0  0  0  0  0  0  0  # atno 7974 bound_to 7965
  154.4619  140.1996  156.0221 H   0  0  0  0  0  0  0  0  0  0  0  0  # atno 8008 bound_to 7997
  156.0856  140.3265  155.7721 H   0  0  0  0  0  0  0  0  0  0  0  0  # atno 8009 bound_to 7997
  155.5041  140.0556  157.2925 H   0  0  0  0  0  0  0  0  0  0  0  0  # atno 8010 bound_to 7997
  140.6449  143.7685  150.7484 H   0  0  0  0  0  0  0  0  0  0  0  0  # atno 10167 bound_to 10162
  157.6577  130.9661  150.1163 H   0  0  0  0  0  0  0  0  0  0  0  0  # atno 10718 bound_to 10713
  154.2087  135.2787  155.2966 H   0  0  0  0  0  0  0  0  0  0  0  0  # atno 10763 bound_to 10752
  154.5796  135.5593  153.7176 H   0  0  0  0  0  0  0  0  0  0  0  0  # atno 10764 bound_to 10752
  153.0069  135.6341  154.2226 H   0  0  0  0  0  0  0  0  0  0  0  0  # atno 10765 bound_to 10752
  141.1578  133.7651  156.9643 H   0  0  0  0  0  0  0  0  0  0  0  0  # atno 11005 bound_to 11000
  144.6868  139.9475  143.7477 LP  0  0  0  0  0  0  0  0  0  0  0  0  # atno 17320 bound_to 7965
  146.0438  139.3446  143.0681 LP  0  0  0  0  0  0  0  0  0  0  0  0  # atno 17321 bound_to 7965
  140.1324  143.4513  152.2245 LP  0  0  0  0  0  0  0  0  0  0  0  0  # atno 17342 bound_to 10162
  139.5659  144.7435  151.4023 LP  0  0  0  0  0  0  0  0  0  0  0  0  # atno 17343 bound_to 10162
  156.2046  130.3662  149.8745 LP  0  0  0  0  0  0  0  0  0  0  0  0  # atno 17370 bound_to 10713
  156.6639  130.8793  151.3552 LP  0  0  0  0  0  0  0  0  0  0  0  0  # atno 17371 bound_to 10713
  140.1172  134.9440  157.2151 LP  0  0  0  0  0  0  0  0  0  0  0  0  # atno 17394 bound_to 11000
  140.3118  134.3015  155.7265 LP  0  0  0  0  0  0  0  0  0  0  0  0  # atno 17395 bound_to 11000

$$$$
