AV-unprocessed.smi:1630|AV-procd|sdf|6525|dock5
  -GOLD-   22720 7203D 1   1.00000     0.00000
 Structure written by MMmdl.
 36 37  0  0  0  0  0  0  0  0  1 V2000
  146.5224  137.9337  151.7204 C   0  0  0  0  0  0  0  0  0  0  0  0
  146.5666  137.6651  153.5393 S   0  0  0  0  0  0  0  0  0  0  0  0
  145.1898  137.7465  154.0513 O   0  0  0  0  0  0  0  0  0  0  0  0
  147.3671  136.4580  153.7979 O   0  0  0  0  0  0  0  0  0  0  0  0
  147.4684  139.0819  154.1579 C   0  0  0  0  0  0  0  0  0  0  0  0
  147.6641  140.2156  153.3437 C   0  0  0  0  0  0  0  0  0  0  0  0
  148.3515  141.3159  153.8910 C   0  0  0  0  0  0  0  0  0  0  0  0
  148.7981  141.2460  155.2339 C   0  0  0  0  0  0  0  0  0  0  0  0
  149.5176  142.2755  155.9000 N   0  0  0  0  0  0  0  0  0  0  0  0
  150.5512  142.1748  156.7594 C   0  0  0  0  0  0  0  0  0  0  0  0
  151.0819  141.1201  157.0997 O   0  0  0  0  0  0  0  0  0  0  0  0
  150.9876  143.3559  157.2343 N   0  0  0  0  0  0  0  0  0  0  0  0
  152.0815  143.6064  158.1766 C   0  0  0  0  0  0  0  0  0  0  0  0
  151.9111  142.7508  159.4463 C   0  0  0  0  0  0  0  0  0  0  0  0
  152.1635  143.6906  160.6259 C   0  0  0  0  0  0  0  0  0  0  0  0
  151.6942  145.0521  160.1254 C   0  0  0  0  0  0  0  0  0  0  0  0
  152.1075  145.0742  158.6532 C   0  0  0  0  0  0  0  0  0  0  0  0
  148.5394  140.0594  155.9532 C   0  0  0  0  0  0  0  0  0  0  0  0
  147.8815  138.9986  155.4403 N   0  0  0  0  0  0  0  0  0  0  0  0
  145.9827  137.1145  151.2459 H   0  0  0  0  0  0  0  0  0  0  0  0
  147.5403  137.9711  151.3330 H   0  0  0  0  0  0  0  0  0  0  0  0
  146.0168  138.8746  151.5042 H   0  0  0  0  0  0  0  0  0  0  0  0
  147.3067  140.2449  152.3250 H   0  0  0  0  0  0  0  0  0  0  0  0
  148.5279  142.1774  153.2671 H   0  0  0  0  0  0  0  0  0  0  0  0
  149.2331  143.2164  155.6695 H   0  0  0  0  0  0  0  0  0  0  0  0
  150.4867  144.1754  156.9217 H   0  0  0  0  0  0  0  0  0  0  0  0
  153.0360  143.3566  157.7100 H   0  0  0  0  0  0  0  0  0  0  0  0
  150.8921  142.3658  159.5158 H   0  0  0  0  0  0  0  0  0  0  0  0
  152.5808  141.8905  159.4583 H   0  0  0  0  0  0  0  0  0  0  0  0
  151.6470  143.3747  161.5328 H   0  0  0  0  0  0  0  0  0  0  0  0
  153.2312  143.7284  160.8452 H   0  0  0  0  0  0  0  0  0  0  0  0
  150.6083  145.1174  160.2041 H   0  0  0  0  0  0  0  0  0  0  0  0
  152.1203  145.8793  160.6938 H   0  0  0  0  0  0  0  0  0  0  0  0
  153.1249  145.4587  158.5705 H   0  0  0  0  0  0  0  0  0  0  0  0
  151.4691  145.7351  158.0655 H   0  0  0  0  0  0  0  0  0  0  0  0
  148.8673  139.9583  156.9775 H   0  0  0  0  0  0  0  0  0  0  0  0
  1  2  1  0  0  0  0
  1 20  1  0  0  0  0
  1 21  1  0  0  0  0
  1 22  1  0  0  0  0
  2  3  2  0  0  0  0
  2  4  2  0  0  0  0
  2  5  1  0  0  0  0
  5 19  1  0  0  0  0
  5  6  2  0  0  0  0
  6  7  1  0  0  0  0
  6 23  1  0  0  0  0
  7  8  2  0  0  0  0
  7 24  1  0  0  0  0
  8  9  1  0  0  0  0
  8 18  1  0  0  0  0
  9 10  1  0  0  0  0
  9 25  1  0  0  0  0
 10 11  2  0  0  0  0
 10 12  1  0  0  0  0
 12 13  1  0  0  0  0
 12 26  1  0  0  0  0
 13 17  1  0  0  0  0
 13 14  1  0  0  0  0
 13 27  1  0  0  0  0
 14 15  1  0  0  0  0
 14 28  1  0  0  0  0
 14 29  1  0  0  0  0
 15 16  1  0  0  0  0
 15 30  1  0  0  0  0
 15 31  1  0  0  0  0
 16 17  1  0  0  0  0
 16 32  1  0  0  0  0
 16 33  1  0  0  0  0
 17 34  1  0  0  0  0
 17 35  1  0  0  0  0
 18 19  2  0  0  0  0
 18 36  1  0  0  0  0
M  END
> <s_m_source_file>
AV-unprocessed.smi

> <i_m_source_file_index>
1630

> <i_lp_mmshare_version>
43012

> <i_f3d_flags>
0

> <s_epik_input>
W0NIM11TKD1PKSg9TyljMVtjSF1bY0hdYyhbY0hdbjEpW05IXUMoPU8pW05IXVtDSF0yW0NIMl1bQ0gyXVtDSDJdW0NIMl0y

> <s_epik_cmdline>
J2VwaWtfcHl0aG9uJywgJy1waCcsICc3LjAnLCAnLXRuJywgJzgnLCAnLW1hJywgJzIwMCcsICctbWV0YWxfYmluZGluZycsICctaW1hZScsICc8aW5maWxlLm1hZT4nLCAnLW9tYWUnLCAnPG91dGZpbGUubWFlPic=

> <r_lp_tautomer_probability>
1

> <r_epik_Ionization_Penalty>
4.04514e-05

> <r_epik_Ionization_Penalty_Charging>
0

> <r_epik_Ionization_Penalty_Neutral>
4.04514e-05

> <r_epik_State_Penalty>
-0

> <r_epik_Charging_Adjusted_Penalty>
0

> <i_epik_Tot_Q>
0

> <i_epik_Tot_abs_Q>
0

> <r_epik_Metal_State_Penalty>
-0

> <b_epik_Metal_Only>
0

> <s_lp_Force_Field>
OPLS_2005

> <r_lp_Energy>
32.1208

> <b_lp_Chiralities_Consistent>
1

> <s_lp_Variant>
AV-unprocessed.smi:1630-1

> <Gold.Version>
5.8.1

> <Gold.Id.Protein>
6NUR|6NUR_protein|mol2

> <Gold.PLP.Fitness>
38.1291

> <Gold.PLP.PLP>
-33.9036

> <Gold.PLP.part.hbond>
-1.9940

> <Gold.PLP.part.metal>
0.0000

> <Gold.PLP.part.buried>
-6.0282

> <Gold.PLP.part.nonpolar>
-28.3859

> <Gold.PLP.part.repulsive>
0.3011

> <Gold.PLP.ligand.clash>
0.0000

> <Gold.PLP.ligand.torsion>
1.5983

> <Gold.PLP.Chemscore.Hbond>
1.7992

> <Gold.PLP.Chemscore.CHOScore>
0.0000

> <Gold.PLP.Chemscore.Metal>
0.0000

> <Gold.Chemscore.Hbonds>
donor molecule, donor type, donor heavy atom, donor atom, acceptor molecule, acceptor atom, score
      L1  H     9    25       P1  8028  1.00
      L1  H    12    26       P1  8028  0.72

> <Gold.PLP.Chemscore.Internal.Correction>
2.0244

> <Gold.Rescore>
     Score         DG    S(hbond)    S(metal)    S(lipo)     H(rot)  DE(clash)    DE(int)     intcor
     16.36     -19.64       1.88        0.00      89.16       1.00       0.02       3.26       ----

> <Gold.Chemscore.Fitness>
16.3579

> <Gold.Chemscore.DG>
-19.6358

> <Gold.Chemscore.ZeroCoef>
-5.4800

> <Gold.Chemscore.Hbond>
1.8815

> <Gold.Chemscore.Metal>
0.0000

> <Gold.Chemscore.Lipo>
89.1584

> <Gold.Chemscore.Internal_Hbond>
0.0000

> <Gold.Chemscore.DEClash>
0.0176

> <Gold.Chemscore.DEInternal>
3.2604

> <Gold.Chemscore.Rot>
1.0000

> <Gold.Chemscore.Internal.Correction>
   9.000000E+99

> <Gold.Chemscore.Hbonds>
donor molecule, donor type, donor heavy atom, donor atom, acceptor molecule, acceptor atom, score
      L1  H     9    25       P1  8028  0.94
      L1  H    12    26       P1  8028  0.68

> <Gold.Chemscore.Hbond.Weighted>
-6.2843

> <Gold.Chemscore.Metal.Weighted>
-0.0000

> <Gold.Chemscore.Lipo.Weighted>
-10.4315

> <Gold.Chemscore.Internal_Hbond.Weighted>
0.0000

> <Gold.Chemscore.DEClash.Weighted>
0.0176

> <Gold.Chemscore.DEInternal.Weighted>
3.2604

> <Gold.Chemscore.Rot.Weighted>
2.5600

> <Gold.Chemscore.Internal.Correction.Weighted>
   9.000000E+99

> <Gold.Protein.RotatedTorsions>
[ 6907 6896 6895 6894 ] final    0.45 input  -60.11 | X-H torsion
[ 7974 7965 7964 7962 ] final  172.32 input  175.53 | X-H torsion
[ 8008 7997 7996 7995 ] final  139.10 input   59.86 | X-H torsion
[ 10167 10162 10161 10158 ] final  -72.54 input  -65.29 | X-H torsion
[ 10718 10713 10712 10709 ] final   36.14 input   66.30 | X-H torsion
[ 10763 10752 10751 10750 ] final  -95.95 input  -60.55 | X-H torsion
[ 11005 11000 10999 10996 ] final  152.60 input  -57.11 | X-H torsion

> <Gold.Protein.ActiveResidues>
 VAL166  LYS551  ARG553  GLY616  TRP617  ASP618  TYR619  PRO620  LYS621  CYS622 
 ASP623  PHE694  ASN695  SER759  ASP760  ASP761  ALA762  ILE779  LEU786  VAL792 
 PHE793  MET794  SER795  GLU796  ALA797  LYS798  CYS799  TRP800  GLU811  SER814 

> <Gold.Protein.RotatedAtoms>
  151.5766  135.1060  160.0007 H   0  0  0  0  0  0  0  0  0  0  0  0  # atno 6907 bound_to 6896
  152.4375  133.7383  159.6637 H   0  0  0  0  0  0  0  0  0  0  0  0  # atno 6908 bound_to 6896
  150.8275  133.8078  159.3136 H   0  0  0  0  0  0  0  0  0  0  0  0  # atno 6909 bound_to 6896
  144.7271  139.9481  143.6431 H   0  0  0  0  0  0  0  0  0  0  0  0  # atno 7974 bound_to 7965
  156.2992  140.2376  156.4182 H   0  0  0  0  0  0  0  0  0  0  0  0  # atno 8008 bound_to 7997
  154.8379  140.0430  157.1541 H   0  0  0  0  0  0  0  0  0  0  0  0  # atno 8009 bound_to 7997
  154.9135  140.2994  155.5257 H   0  0  0  0  0  0  0  0  0  0  0  0  # atno 8010 bound_to 7997
  140.5184  143.2335  151.7473 H   0  0  0  0  0  0  0  0  0  0  0  0  # atno 10167 bound_to 10162
  157.3312  130.7499  149.6849 H   0  0  0  0  0  0  0  0  0  0  0  0  # atno 10718 bound_to 10713
  154.7195  135.5101  153.8790 H   0  0  0  0  0  0  0  0  0  0  0  0  # atno 10763 bound_to 10752
  153.0850  135.6642  153.9977 H   0  0  0  0  0  0  0  0  0  0  0  0  # atno 10764 bound_to 10752
  153.9802  135.3029  155.3400 H   0  0  0  0  0  0  0  0  0  0  0  0  # atno 10765 bound_to 10752
  140.1322  134.8794  157.2219 H   0  0  0  0  0  0  0  0  0  0  0  0  # atno 11005 bound_to 11000
  146.0732  139.3721  143.0510 LP  0  0  0  0  0  0  0  0  0  0  0  0  # atno 17320 bound_to 7965
  145.7939  140.9802  143.1034 LP  0  0  0  0  0  0  0  0  0  0  0  0  # atno 17321 bound_to 7965
  139.4916  144.4290  151.9893 LP  0  0  0  0  0  0  0  0  0  0  0  0  # atno 17342 bound_to 10162
  140.3386  144.3231  150.5972 LP  0  0  0  0  0  0  0  0  0  0  0  0  # atno 17343 bound_to 10162
  155.9696  130.4194  150.4376 LP  0  0  0  0  0  0  0  0  0  0  0  0  # atno 17370 bound_to 10713
  157.2408  131.0525  151.2438 LP  0  0  0  0  0  0  0  0  0  0  0  0  # atno 17371 bound_to 10713
  140.2827  134.3331  155.7338 LP  0  0  0  0  0  0  0  0  0  0  0  0  # atno 17394 bound_to 11000
  141.2172  133.7488  156.9388 LP  0  0  0  0  0  0  0  0  0  0  0  0  # atno 17395 bound_to 11000

$$$$
