AV-unprocessed.smi:2673|AV-procd|sdf|10355|dock8
  -GOLD-   2272014383D 1   1.00000     0.00000
 Structure written by MMmdl.
 31 32  0  0  0  0  0  0  0  0  2 V2000
  149.1178  135.8122  158.4369 O   0  0  0  0  0  0  0  0  0  0  0  0
  149.1843  136.8484  159.1011 C   0  0  0  0  0  0  0  0  0  0  0  0
  148.6875  137.0249  160.3467 N   0  5  0  0  0  0  0  0  0  0  0  0
  148.0001  136.0365  160.9426 C   0  0  0  0  0  0  0  0  0  0  0  0
  147.4770  135.0081  160.2556 N   0  0  0  0  0  0  0  0  0  0  0  0
  146.8039  134.0995  161.0611 N   0  0  0  0  0  0  0  0  0  0  0  0
  146.8288  134.4729  162.3402 C   0  0  0  0  0  0  0  0  0  0  0  0
  147.6751  135.9682  162.6769 S   0  0  0  0  0  0  0  0  0  0  0  0
  149.7933  137.9436  158.6138 N   0  0  0  0  0  0  0  0  0  0  0  0
  150.4694  138.1815  157.3249 C   0  0  0  0  0  0  0  0  0  0  0  0
  151.2593  139.5109  157.5248 C   0  0  0  0  0  0  0  0  0  0  0  0
  151.9360  139.8819  156.4400 F   0  0  0  0  0  0  0  0  0  0  0  0
  150.4235  140.5025  157.8397 F   0  0  0  0  0  0  0  0  0  0  0  0
  152.1343  139.3826  158.5242 F   0  0  0  0  0  0  0  0  0  0  0  0
  151.4367  136.9966  157.0131 C   0  0  0  0  0  0  0  0  0  0  0  0
  151.9897  136.9905  155.5770 C   0  0  0  0  0  0  0  0  0  0  0  0
  150.8608  137.0653  154.5412 C   0  0  0  0  0  0  0  0  0  0  0  0
  149.9836  138.3028  154.7685 C   0  0  0  0  0  0  0  0  0  0  0  0
  149.4039  138.3278  156.1940 C   0  0  0  0  0  0  0  0  0  0  0  0
  146.3442  133.8656  163.0899 H   0  0  0  0  0  0  0  0  0  0  0  0
  149.7914  138.7396  159.2347 H   0  0  0  0  0  0  0  0  0  0  0  0
  152.2627  136.9840  157.7244 H   0  0  0  0  0  0  0  0  0  0  0  0
  150.9282  136.0436  157.1487 H   0  0  0  0  0  0  0  0  0  0  0  0
  152.6852  137.8157  155.4303 H   0  0  0  0  0  0  0  0  0  0  0  0
  152.5709  136.0821  155.4168 H   0  0  0  0  0  0  0  0  0  0  0  0
  151.2799  137.0857  153.5349 H   0  0  0  0  0  0  0  0  0  0  0  0
  150.2472  136.1657  154.6035 H   0  0  0  0  0  0  0  0  0  0  0  0
  150.5576  139.2072  154.5713 H   0  0  0  0  0  0  0  0  0  0  0  0
  149.1670  138.3078  154.0458 H   0  0  0  0  0  0  0  0  0  0  0  0
  148.6806  137.5157  156.2460 H   0  0  0  0  0  0  0  0  0  0  0  0
  148.8221  139.2386  156.3369 H   0  0  0  0  0  0  0  0  0  0  0  0
  1  2  2  0  0  0  0
  2  3  1  0  0  0  0
  2  9  1  0  0  0  0
  3  4  1  0  0  0  0
  4  8  1  0  0  0  0
  4  5  2  0  0  0  0
  5  6  1  0  0  0  0
  6  7  2  0  0  0  0
  7  8  1  0  0  0  0
  7 20  1  0  0  0  0
  9 10  1  0  0  0  0
  9 21  1  0  0  0  0
 10 19  1  0  0  0  0
 10 11  1  0  0  0  0
 10 15  1  0  0  0  0
 11 12  1  0  0  0  0
 11 13  1  0  0  0  0
 11 14  1  0  0  0  0
 15 16  1  0  0  0  0
 15 22  1  0  0  0  0
 15 23  1  0  0  0  0
 16 17  1  0  0  0  0
 16 24  1  0  0  0  0
 16 25  1  0  0  0  0
 17 18  1  0  0  0  0
 17 26  1  0  0  0  0
 17 27  1  0  0  0  0
 18 19  1  0  0  0  0
 18 28  1  0  0  0  0
 18 29  1  0  0  0  0
 19 30  1  0  0  0  0
 19 31  1  0  0  0  0
M  CHG  1   3  -1
M  END
> <s_m_source_file>
AV-unprocessed.smi

> <i_m_source_file_index>
2673

> <i_lp_mmshare_version>
43012

> <i_f3d_flags>
0

> <s_epik_input>
czFbY0hdbm5jMVtOSF1DKD1PKVtOSF1DMihDKEYpKEYpRilbQ0gyXVtDSDJdW0NIMl1bQ0gyXVtDSDJdMg==

> <s_epik_cmdline>
J2VwaWtfcHl0aG9uJywgJy1waCcsICc3LjAnLCAnLXRuJywgJzgnLCAnLW1hJywgJzIwMCcsICctbWV0YWxfYmluZGluZycsICctaW1hZScsICc8aW5maWxlLm1hZT4nLCAnLW9tYWUnLCAnPG91dGZpbGUubWFlPic=

> <r_epik_Ionization_Penalty>
0.0924979

> <r_epik_Ionization_Penalty_Charging>
0.057676

> <r_epik_Ionization_Penalty_Neutral>
0.0348219

> <r_epik_State_Penalty>
0.0765232

> <r_epik_Charging_Adjusted_Penalty>
0.134199

> <i_epik_Tot_Q>
-1

> <i_epik_Tot_abs_Q>
1

> <r_epik_Metal_State_Penalty>
0.0698334

> <b_epik_Metal_Only>
0

> <s_lp_Force_Field>
OPLS_2005

> <r_lp_Energy>
15.8773

> <b_lp_Chiralities_Consistent>
1

> <s_lp_Variant>
AV-unprocessed.smi:2673-1

> <Gold.Version>
5.8.1

> <Gold.Id.Protein>
6NUR|6NUR_protein|mol2

> <Gold.PLP.Fitness>
37.6674

> <Gold.PLP.PLP>
-30.3620

> <Gold.PLP.part.hbond>
-3.0000

> <Gold.PLP.part.metal>
0.0000

> <Gold.PLP.part.buried>
-5.7063

> <Gold.PLP.part.nonpolar>
-23.3108

> <Gold.PLP.part.repulsive>
0.1976

> <Gold.PLP.ligand.clash>
0.0000

> <Gold.PLP.ligand.torsion>
0.3202

> <Gold.PLP.Chemscore.Hbond>
2.6435

> <Gold.PLP.Chemscore.CHOScore>
0.0000

> <Gold.PLP.Chemscore.Metal>
0.0000

> <Gold.Chemscore.Hbonds>
donor molecule, donor type, donor heavy atom, donor atom, acceptor molecule, acceptor atom, score
      P1  H  6896  6909       L1     1  0.25
      P1  H  6931  6943       L1     3  1.41

> <Gold.PLP.Chemscore.Internal.Correction>
0.0152

> <Gold.Rescore>
     Score         DG    S(hbond)    S(metal)    S(lipo)     H(rot)  DE(clash)    DE(int)     intcor
     10.95     -14.73       1.94        0.00      45.62       1.00       0.09       3.70       ----

> <Gold.Chemscore.Fitness>
10.9455

> <Gold.Chemscore.DG>
-14.7332

> <Gold.Chemscore.ZeroCoef>
-5.4800

> <Gold.Chemscore.Hbond>
1.9389

> <Gold.Chemscore.Metal>
0.0000

> <Gold.Chemscore.Lipo>
45.6184

> <Gold.Chemscore.Internal_Hbond>
0.0000

> <Gold.Chemscore.DEClash>
0.0917

> <Gold.Chemscore.DEInternal>
3.6960

> <Gold.Chemscore.Rot>
1.0000

> <Gold.Chemscore.Internal.Correction>
   9.000000E+99

> <Gold.Chemscore.Hbonds>
donor molecule, donor type, donor heavy atom, donor atom, acceptor molecule, acceptor atom, score
      P1  H  6896  6909       L1     1  0.03
      P1  H  6931  6943       L1     3  0.23

> <Gold.Chemscore.Hbond.Weighted>
-6.4759

> <Gold.Chemscore.Metal.Weighted>
-0.0000

> <Gold.Chemscore.Lipo.Weighted>
-5.3374

> <Gold.Chemscore.Internal_Hbond.Weighted>
0.0000

> <Gold.Chemscore.DEClash.Weighted>
0.0917

> <Gold.Chemscore.DEInternal.Weighted>
3.6960

> <Gold.Chemscore.Rot.Weighted>
2.5600

> <Gold.Chemscore.Internal.Correction.Weighted>
   9.000000E+99

> <Gold.Protein.RotatedTorsions>
[ 6907 6896 6895 6894 ] final   61.56 input  -60.11 | X-H torsion
[ 7974 7965 7964 7962 ] final   58.67 input  175.53 | X-H torsion
[ 8008 7997 7996 7995 ] final  149.26 input   59.86 | X-H torsion
[ 10167 10162 10161 10158 ] final  -42.20 input  -65.29 | X-H torsion
[ 10718 10713 10712 10709 ] final  131.00 input   66.30 | X-H torsion
[ 10763 10752 10751 10750 ] final  156.38 input  -60.55 | X-H torsion
[ 11005 11000 10999 10996 ] final  124.70 input  -57.11 | X-H torsion

> <Gold.Protein.ActiveResidues>
 VAL166  LYS551  ARG553  GLY616  TRP617  ASP618  TYR619  PRO620  LYS621  CYS622 
 ASP623  PHE694  ASN695  SER759  ASP760  ASP761  ALA762  ILE779  LEU786  VAL792 
 PHE793  MET794  SER795  GLU796  ALA797  LYS798  CYS799  TRP800  GLU811  SER814 

> <Gold.Protein.RotatedAtoms>
  152.4099  134.6142  160.0033 H   0  0  0  0  0  0  0  0  0  0  0  0  # atno 6907 bound_to 6896
  151.6322  133.3325  159.3119 H   0  0  0  0  0  0  0  0  0  0  0  0  # atno 6908 bound_to 6896
  150.7991  134.7112  159.6650 H   0  0  0  0  0  0  0  0  0  0  0  0  # atno 6909 bound_to 6896
  145.9156  139.3688  143.0509 H   0  0  0  0  0  0  0  0  0  0  0  0  # atno 7974 bound_to 7965
  156.2761  140.2106  156.5829 H   0  0  0  0  0  0  0  0  0  0  0  0  # atno 8008 bound_to 7997
  154.7044  140.0518  157.0512 H   0  0  0  0  0  0  0  0  0  0  0  0  # atno 8009 bound_to 7997
  155.0691  140.3175  155.4639 H   0  0  0  0  0  0  0  0  0  0  0  0  # atno 8010 bound_to 7997
  140.6977  143.3051  151.3175 H   0  0  0  0  0  0  0  0  0  0  0  0  # atno 10167 bound_to 10162
  157.5008  131.1094  150.9429 H   0  0  0  0  0  0  0  0  0  0  0  0  # atno 10718 bound_to 10713
  154.1834  135.2798  155.3045 H   0  0  0  0  0  0  0  0  0  0  0  0  # atno 10763 bound_to 10752
  154.5985  135.5537  153.7353 H   0  0  0  0  0  0  0  0  0  0  0  0  # atno 10764 bound_to 10752
  153.0132  135.6386  154.1973 H   0  0  0  0  0  0  0  0  0  0  0  0  # atno 10765 bound_to 10752
  139.9371  134.9638  156.8449 H   0  0  0  0  0  0  0  0  0  0  0  0  # atno 11005 bound_to 11000
  145.8615  140.9472  143.0697 LP  0  0  0  0  0  0  0  0  0  0  0  0  # atno 17320 bound_to 7965
  144.6747  140.0537  143.7478 LP  0  0  0  0  0  0  0  0  0  0  0  0  # atno 17321 bound_to 7965
  139.6454  144.0462  152.2586 LP  0  0  0  0  0  0  0  0  0  0  0  0  # atno 17342 bound_to 10162
  139.9980  144.6313  150.7755 LP  0  0  0  0  0  0  0  0  0  0  0  0  # atno 17343 bound_to 10162
  157.0100  130.5633  149.5320 LP  0  0  0  0  0  0  0  0  0  0  0  0  # atno 17370 bound_to 10713
  156.0228  130.5323  150.8324 LP  0  0  0  0  0  0  0  0  0  0  0  0  # atno 17371 bound_to 10713
  140.6047  134.0139  155.7551 LP  0  0  0  0  0  0  0  0  0  0  0  0  # atno 17394 bound_to 11000
  141.0990  133.9798  157.3112 LP  0  0  0  0  0  0  0  0  0  0  0  0  # atno 17395 bound_to 11000

$$$$
