AV-unprocessed.smi:1869|AV-procd|sdf|7592|dock9
  -GOLD-   22720 9303D 1   1.00000     0.00000
 Structure written by MMmdl.
 39 40  0  0  0  0  0  0  0  0  1 V2000
  145.6586  136.6271  151.6584 C   0  0  0  0  0  0  0  0  0  0  0  0
  146.1515  137.5123  152.6487 O   0  0  0  0  0  0  0  0  0  0  0  0
  146.5789  138.7507  152.1062 C   0  0  0  0  0  0  0  0  0  0  0  0
  147.2450  139.5793  153.2089 C   0  0  0  0  0  0  0  0  0  0  0  0
  148.4471  138.9284  153.6096 O   0  0  0  0  0  0  0  0  0  0  0  0
  149.2708  139.5641  154.5156 C   0  0  0  0  0  0  0  0  0  0  0  0
  150.5010  138.9612  154.8448 C   0  0  0  0  0  0  0  0  0  0  0  0
  151.3501  139.6042  155.7656 C   0  0  0  0  0  0  0  0  0  0  0  0
  150.9434  140.8395  156.3231 C   0  0  0  0  0  0  0  0  0  0  0  0
  151.7010  141.5738  157.2745 N   0  0  0  0  0  0  0  0  0  0  0  0
  151.5084  142.8341  157.7123 C   0  0  0  0  0  0  0  0  0  0  0  0
  150.5855  143.5504  157.3226 O   0  0  0  0  0  0  0  0  0  0  0  0
  152.4112  143.2466  158.6399 N   0  0  0  0  0  0  0  0  0  0  0  0
  153.3053  142.3810  159.4278 C   0  0  0  0  0  0  0  0  0  0  0  0
  152.6780  142.1369  160.8102 C   0  0  0  0  0  0  0  0  0  0  0  0
  152.5100  143.6973  161.7324 S   0  0  0  0  0  0  0  0  0  0  0  0
  151.6973  144.7186  160.4632 C   0  0  0  0  0  0  0  0  0  0  0  0
  152.4448  144.6332  159.1215 C   0  0  0  0  0  0  0  0  0  0  0  0
  149.6852  141.3494  155.9423 C   0  0  0  0  0  0  0  0  0  0  0  0
  148.8668  140.7388  155.0597 N   0  0  0  0  0  0  0  0  0  0  0  0
  145.3487  135.6921  152.1252 H   0  0  0  0  0  0  0  0  0  0  0  0
  146.4253  136.3957  150.9178 H   0  0  0  0  0  0  0  0  0  0  0  0
  144.7932  137.0506  151.1468 H   0  0  0  0  0  0  0  0  0  0  0  0
  147.2993  138.5620  151.3088 H   0  0  0  0  0  0  0  0  0  0  0  0
  145.7420  139.2981  151.6699 H   0  0  0  0  0  0  0  0  0  0  0  0
  147.4398  140.5921  152.8521 H   0  0  0  0  0  0  0  0  0  0  0  0
  146.5691  139.6479  154.0627 H   0  0  0  0  0  0  0  0  0  0  0  0
  150.7874  138.0191  154.4010 H   0  0  0  0  0  0  0  0  0  0  0  0
  152.2832  139.1334  156.0341 H   0  0  0  0  0  0  0  0  0  0  0  0
  152.4372  141.0574  157.7334 H   0  0  0  0  0  0  0  0  0  0  0  0
  153.5205  141.4296  158.9412 H   0  0  0  0  0  0  0  0  0  0  0  0
  154.2790  142.8598  159.5427 H   0  0  0  0  0  0  0  0  0  0  0  0
  151.6956  141.6744  160.7074 H   0  0  0  0  0  0  0  0  0  0  0  0
  153.2948  141.4522  161.3923 H   0  0  0  0  0  0  0  0  0  0  0  0
  150.6654  144.3853  160.3456 H   0  0  0  0  0  0  0  0  0  0  0  0
  151.6613  145.7499  160.8142 H   0  0  0  0  0  0  0  0  0  0  0  0
  153.4767  144.9657  159.2428 H   0  0  0  0  0  0  0  0  0  0  0  0
  152.0022  145.3276  158.4059 H   0  0  0  0  0  0  0  0  0  0  0  0
  149.3241  142.2808  156.3538 H   0  0  0  0  0  0  0  0  0  0  0  0
  1  2  1  0  0  0  0
  1 21  1  0  0  0  0
  1 22  1  0  0  0  0
  1 23  1  0  0  0  0
  2  3  1  0  0  0  0
  3  4  1  0  0  0  0
  3 24  1  0  0  0  0
  3 25  1  0  0  0  0
  4  5  1  0  0  0  0
  4 26  1  0  0  0  0
  4 27  1  0  0  0  0
  5  6  1  0  0  0  0
  6 20  1  0  0  0  0
  6  7  2  0  0  0  0
  7  8  1  0  0  0  0
  7 28  1  0  0  0  0
  8  9  2  0  0  0  0
  8 29  1  0  0  0  0
  9 10  1  0  0  0  0
  9 19  1  0  0  0  0
 10 11  1  0  0  0  0
 10 30  1  0  0  0  0
 11 12  2  0  0  0  0
 11 13  1  0  0  0  0
 13 18  1  0  0  0  0
 13 14  1  0  0  0  0
 14 15  1  0  0  0  0
 14 31  1  0  0  0  0
 14 32  1  0  0  0  0
 15 16  1  0  0  0  0
 15 33  1  0  0  0  0
 15 34  1  0  0  0  0
 16 17  1  0  0  0  0
 17 18  1  0  0  0  0
 17 35  1  0  0  0  0
 17 36  1  0  0  0  0
 18 37  1  0  0  0  0
 18 38  1  0  0  0  0
 19 20  2  0  0  0  0
 19 39  1  0  0  0  0
M  END
> <s_m_source_file>
AV-unprocessed.smi

> <i_m_source_file_index>
1869

> <i_lp_mmshare_version>
43012

> <i_f3d_flags>
0

> <s_epik_input>
W0NIM11PW0NIMl1bQ0gyXU9jMVtjSF1bY0hdYyhbY0hdbjEpW05IXUMoPU8pTjJbQ0gyXVtDSDJdU1tDSDJdW0NIMl0y

> <s_epik_cmdline>
J2VwaWtfcHl0aG9uJywgJy1waCcsICc3LjAnLCAnLXRuJywgJzgnLCAnLW1hJywgJzIwMCcsICctbWV0YWxfYmluZGluZycsICctaW1hZScsICc8aW5maWxlLm1hZT4nLCAnLW9tYWUnLCAnPG91dGZpbGUubWFlPic=

> <r_lp_tautomer_probability>
1

> <r_epik_Ionization_Penalty>
6.51674e-05

> <r_epik_Ionization_Penalty_Charging>
0

> <r_epik_Ionization_Penalty_Neutral>
6.51674e-05

> <r_epik_State_Penalty>
-0

> <r_epik_Charging_Adjusted_Penalty>
0

> <i_epik_Tot_Q>
0

> <i_epik_Tot_abs_Q>
0

> <r_epik_Metal_State_Penalty>
-0

> <b_epik_Metal_Only>
0

> <s_lp_Force_Field>
OPLS_2005

> <r_lp_Energy>
28.6984

> <b_lp_Chiralities_Consistent>
1

> <s_lp_Variant>
AV-unprocessed.smi:1869-1

> <Gold.Version>
5.8.1

> <Gold.Id.Protein>
6NUR|6NUR_protein|mol2

> <Gold.PLP.Fitness>
44.8495

> <Gold.PLP.PLP>
-42.1397

> <Gold.PLP.part.hbond>
0.0000

> <Gold.PLP.part.metal>
0.0000

> <Gold.PLP.part.buried>
-4.8189

> <Gold.PLP.part.nonpolar>
-42.0632

> <Gold.PLP.part.repulsive>
5.0139

> <Gold.PLP.ligand.clash>
0.0170

> <Gold.PLP.ligand.torsion>
0.1598

> <Gold.PLP.Chemscore.Hbond>
0.0000

> <Gold.PLP.Chemscore.CHOScore>
0.9973

> <Gold.PLP.Chemscore.Metal>
0.0000

> <Gold.Chemscore.Hbonds>
donor molecule, donor type, donor heavy atom, donor atom, acceptor molecule, acceptor atom, score
      L1  C    19    39       P1  8028  0.89

> <Gold.PLP.Chemscore.Internal.Correction>
0.0545

> <Gold.Rescore>
     Score         DG    S(hbond)    S(metal)    S(lipo)     H(rot)  DE(clash)    DE(int)     intcor
     11.41     -13.77       0.00        0.00     106.02       1.61       0.74       1.62       ----

> <Gold.Chemscore.Fitness>
11.4095

> <Gold.Chemscore.DG>
-13.7678

> <Gold.Chemscore.ZeroCoef>
-5.4800

> <Gold.Chemscore.Hbond>
0.0000

> <Gold.Chemscore.Metal>
0.0000

> <Gold.Chemscore.Lipo>
106.0163

> <Gold.Chemscore.Internal_Hbond>
0.0000

> <Gold.Chemscore.DEClash>
0.7418

> <Gold.Chemscore.DEInternal>
1.6165

> <Gold.Chemscore.Rot>
1.6078

> <Gold.Chemscore.Internal.Correction>
   9.000000E+99

> <Gold.Chemscore.Hbond.Weighted>
-0.0000

> <Gold.Chemscore.Metal.Weighted>
-0.0000

> <Gold.Chemscore.Lipo.Weighted>
-12.4039

> <Gold.Chemscore.Internal_Hbond.Weighted>
0.0000

> <Gold.Chemscore.DEClash.Weighted>
0.7418

> <Gold.Chemscore.DEInternal.Weighted>
1.6165

> <Gold.Chemscore.Rot.Weighted>
4.1161

> <Gold.Chemscore.Internal.Correction.Weighted>
   9.000000E+99

> <Gold.Protein.RotatedTorsions>
[ 6907 6896 6895 6894 ] final  -55.85 input  -60.11 | X-H torsion
[ 7974 7965 7964 7962 ] final  -62.46 input  175.53 | X-H torsion
[ 8008 7997 7996 7995 ] final -100.97 input   59.86 | X-H torsion
[ 10167 10162 10161 10158 ] final   50.95 input  -65.29 | X-H torsion
[ 10718 10713 10712 10709 ] final  155.89 input   66.30 | X-H torsion
[ 10763 10752 10751 10750 ] final  171.51 input  -60.55 | X-H torsion
[ 11005 11000 10999 10996 ] final -150.55 input  -57.11 | X-H torsion

> <Gold.Protein.ActiveResidues>
 VAL166  LYS551  ARG553  GLY616  TRP617  ASP618  TYR619  PRO620  LYS621  CYS622 
 ASP623  PHE694  ASN695  SER759  ASP760  ASP761  ALA762  ILE779  LEU786  VAL792 
 PHE793  MET794  SER795  GLU796  ALA797  LYS798  CYS799  TRP800  GLU811  SER814 

> <Gold.Protein.RotatedAtoms>
  150.8216  134.7427  159.6777 H   0  0  0  0  0  0  0  0  0  0  0  0  # atno 6907 bound_to 6896
  152.4331  134.5735  159.9938 H   0  0  0  0  0  0  0  0  0  0  0  0  # atno 6908 bound_to 6896
  151.5918  133.3328  159.3065 H   0  0  0  0  0  0  0  0  0  0  0  0  # atno 6909 bound_to 6896
  145.7911  140.8709  143.0280 H   0  0  0  0  0  0  0  0  0  0  0  0  # atno 7974 bound_to 7965
  154.8360  140.0437  157.1509 H   0  0  0  0  0  0  0  0  0  0  0  0  # atno 8008 bound_to 7997
  154.9099  140.3012  155.5251 H   0  0  0  0  0  0  0  0  0  0  0  0  # atno 8009 bound_to 7997
  156.2990  140.2360  156.4137 H   0  0  0  0  0  0  0  0  0  0  0  0  # atno 8010 bound_to 7997
  140.2671  144.3308  150.6301 H   0  0  0  0  0  0  0  0  0  0  0  0  # atno 10167 bound_to 10162
  157.2123  131.0700  151.1962 H   0  0  0  0  0  0  0  0  0  0  0  0  # atno 10718 bound_to 10713
  154.4130  135.2756  155.2025 H   0  0  0  0  0  0  0  0  0  0  0  0  # atno 10763 bound_to 10752
  154.4003  135.6046  153.5897 H   0  0  0  0  0  0  0  0  0  0  0  0  # atno 10764 bound_to 10752
  152.9831  135.5924  154.4414 H   0  0  0  0  0  0  0  0  0  0  0  0  # atno 10765 bound_to 10752
  140.7390  134.3536  157.5151 H   0  0  0  0  0  0  0  0  0  0  0  0  # atno 11005 bound_to 11000
  144.6782  140.0124  143.7484 LP  0  0  0  0  0  0  0  0  0  0  0  0  # atno 17320 bound_to 7965
  145.9976  139.3065  143.0947 LP  0  0  0  0  0  0  0  0  0  0  0  0  # atno 17321 bound_to 7965
  140.5920  143.2168  151.7235 LP  0  0  0  0  0  0  0  0  0  0  0  0  # atno 17342 bound_to 10162
  139.5000  144.3925  152.0265 LP  0  0  0  0  0  0  0  0  0  0  0  0  # atno 17343 bound_to 10162
  157.3659  130.7156  149.6532 LP  0  0  0  0  0  0  0  0  0  0  0  0  # atno 17370 bound_to 10713
  155.9689  130.4212  150.4460 LP  0  0  0  0  0  0  0  0  0  0  0  0  # atno 17371 bound_to 10713
  139.8810  134.9068  156.2931 LP  0  0  0  0  0  0  0  0  0  0  0  0  # atno 17394 bound_to 11000
  140.9854  133.7242  156.0733 LP  0  0  0  0  0  0  0  0  0  0  0  0  # atno 17395 bound_to 11000

$$$$
