AV-unprocessed.smi:2158|AV-procd|sdf|8788|dock4
  -GOLD-   2272011563D 1   1.00000     0.00000
 Structure written by MMmdl.
 31 31  0  0  0  0  0  0  0  0  1 V2000
  151.7069  144.6161  159.3130 C   0  0  0  0  0  0  0  0  0  0  0  0
  152.2823  143.7797  160.4653 C   0  0  0  0  0  0  0  0  0  0  0  0
  153.0896  142.5484  160.0071 C   0  0  1  0  0  0  0  0  0  0  0  0
  153.8701  141.9203  161.1701 C   0  0  0  0  0  0  0  0  0  0  0  0
  152.2117  141.5364  159.4209 N   0  0  0  0  0  0  0  0  0  0  0  0
  152.6050  140.4680  158.7091 C   0  0  0  0  0  0  0  0  0  0  0  0
  153.7840  140.2273  158.4450 O   0  0  0  0  0  0  0  0  0  0  0  0
  151.4828  139.5509  158.2014 C   0  0  0  0  0  0  0  0  0  0  0  0
  150.6693  140.1632  157.1407 N   0  0  0  0  0  0  0  0  0  0  0  0
  150.6215  139.5916  155.8770 C   0  0  0  0  0  0  0  0  0  0  0  0
  149.8875  140.0967  154.8574 C   0  0  0  0  0  0  0  0  0  0  0  0
  149.0884  141.3022  155.0489 C   0  0  0  0  0  0  0  0  0  0  0  0
  148.3945  141.8375  154.1874 O   0  0  0  0  0  0  0  0  0  0  0  0
  149.1590  141.8448  156.3347 N   0  0  0  0  0  0  0  0  0  0  0  0
  149.9120  141.3284  157.3904 C   0  0  0  0  0  0  0  0  0  0  0  0
  149.9000  141.8840  158.4882 O   0  0  0  0  0  0  0  0  0  0  0  0
  148.6183  142.6778  156.5169 H   0  0  0  0  0  0  0  0  0  0  0  0
  151.2067  145.5065  159.6939 H   0  0  0  0  0  0  0  0  0  0  0  0
  150.9750  144.0527  158.7341 H   0  0  0  0  0  0  0  0  0  0  0  0
  152.4938  144.9423  158.6325 H   0  0  0  0  0  0  0  0  0  0  0  0
  152.9265  144.4217  161.0669 H   0  0  0  0  0  0  0  0  0  0  0  0
  151.4706  143.4664  161.1230 H   0  0  0  0  0  0  0  0  0  0  0  0
  153.8237  142.8781  159.2697 H   0  0  0  0  0  0  0  0  0  0  0  0
  154.5612  142.6387  161.6121 H   0  0  0  0  0  0  0  0  0  0  0  0
  154.4574  141.0657  160.8325 H   0  0  0  0  0  0  0  0  0  0  0  0
  153.2009  141.5746  161.9586 H   0  0  0  0  0  0  0  0  0  0  0  0
  151.2212  141.6557  159.5769 H   0  0  0  0  0  0  0  0  0  0  0  0
  151.9093  138.6087  157.8507 H   0  0  0  0  0  0  0  0  0  0  0  0
  150.8535  139.2828  159.0514 H   0  0  0  0  0  0  0  0  0  0  0  0
  151.1945  138.6943  155.6905 H   0  0  0  0  0  0  0  0  0  0  0  0
  149.8910  139.6056  153.8950 H   0  0  0  0  0  0  0  0  0  0  0  0
  1  2  1  0  0  0  0
  1 18  1  0  0  0  0
  1 19  1  0  0  0  0
  1 20  1  0  0  0  0
  2  3  1  0  0  0  0
  2 21  1  0  0  0  0
  2 22  1  0  0  0  0
  3  4  1  0  0  0  0
  3  5  1  0  0  0  0
  3 23  1  0  0  0  0
  4 24  1  0  0  0  0
  4 25  1  0  0  0  0
  4 26  1  0  0  0  0
  5  6  1  0  0  0  0
  5 27  1  0  0  0  0
  6  7  2  0  0  0  0
  6  8  1  0  0  0  0
  8  9  1  0  0  0  0
  8 28  1  0  0  0  0
  8 29  1  0  0  0  0
  9 15  1  0  0  0  0
  9 10  1  0  0  0  0
 10 11  2  0  0  0  0
 10 30  1  0  0  0  0
 11 12  1  0  0  0  0
 11 31  1  0  0  0  0
 12 13  2  0  0  0  0
 12 14  1  0  0  0  0
 14 17  1  0  0  0  0
 14 15  1  0  0  0  0
 15 16  2  0  0  0  0
M  END
> <s_m_source_file>
AV-unprocessed.smi

> <i_m_source_file_index>
2158

> <i_lp_mmshare_version>
43012

> <i_f3d_flags>
0

> <s_epik_input>
W0NIM11bQ0gyXVtDQEhdKFtDSDNdKVtOSF1DKD1PKVtDSDJdbjFbY0hdW2NIXWMoPU8pW25IXWMxPU8=

> <s_epik_cmdline>
J2VwaWtfcHl0aG9uJywgJy1waCcsICc3LjAnLCAnLXRuJywgJzgnLCAnLW1hJywgJzIwMCcsICctbWV0YWxfYmluZGluZycsICctaW1hZScsICc8aW5maWxlLm1hZT4nLCAnLW9tYWUnLCAnPG91dGZpbGUubWFlPic=

> <r_lp_tautomer_probability>
0.999537

> <r_epik_Ionization_Penalty>
0.00326083

> <r_epik_Ionization_Penalty_Charging>
0.00326081

> <r_epik_Ionization_Penalty_Neutral>
1.93017e-08

> <r_epik_State_Penalty>
0.00230249

> <r_epik_Charging_Adjusted_Penalty>
0.0055633

> <i_epik_Tot_Q>
0

> <i_epik_Tot_abs_Q>
0

> <r_epik_Metal_State_Penalty>
0.364899

> <b_epik_Metal_Only>
0

> <s_lp_Force_Field>
OPLS_2005

> <r_lp_Energy>
2.92089

> <b_lp_Chiralities_Consistent>
1

> <s_lp_Variant>
AV-unprocessed.smi:2158-2

> <Gold.Version>
5.8.1

> <Gold.Id.Protein>
6NUR|6NUR_protein|mol2

> <Gold.PLP.Fitness>
41.1266

> <Gold.PLP.PLP>
-33.7480

> <Gold.PLP.part.hbond>
-3.4170

> <Gold.PLP.part.metal>
0.0000

> <Gold.PLP.part.buried>
-3.3871

> <Gold.PLP.part.nonpolar>
-27.4629

> <Gold.PLP.part.repulsive>
0.5049

> <Gold.PLP.ligand.clash>
0.0000

> <Gold.PLP.ligand.torsion>
0.2846

> <Gold.PLP.Chemscore.Hbond>
2.6400

> <Gold.PLP.Chemscore.CHOScore>
0.0000

> <Gold.PLP.Chemscore.Metal>
0.0000

> <Gold.Chemscore.Hbonds>
donor molecule, donor type, donor heavy atom, donor atom, acceptor molecule, acceptor atom, score
      L1  H    14    17       P1  8028  0.30
      P1  H  7997  8010       L1     7  0.88
      P1  H  8011  8017       L1    13  0.05

> <Gold.PLP.Chemscore.Internal.Correction>
0.0279

> <Gold.Rescore>
     Score         DG    S(hbond)    S(metal)    S(lipo)     H(rot)  DE(clash)    DE(int)     intcor
     14.85     -16.71       2.59        0.00      65.47       1.99       0.03       1.84       ----

> <Gold.Chemscore.Fitness>
14.8496

> <Gold.Chemscore.DG>
-16.7120

> <Gold.Chemscore.ZeroCoef>
-5.4800

> <Gold.Chemscore.Hbond>
2.5950

> <Gold.Chemscore.Metal>
0.0000

> <Gold.Chemscore.Lipo>
65.4724

> <Gold.Chemscore.Internal_Hbond>
0.0000

> <Gold.Chemscore.DEClash>
0.0270

> <Gold.Chemscore.DEInternal>
1.8355

> <Gold.Chemscore.Rot>
1.9904

> <Gold.Chemscore.Internal.Correction>
   9.000000E+99

> <Gold.Chemscore.Hbonds>
donor molecule, donor type, donor heavy atom, donor atom, acceptor molecule, acceptor atom, score
      L1  H    14    17       P1  8028  0.28
      P1  H  7997  8010       L1     7  0.86
      P1  H  8011  8017       L1    13  0.05

> <Gold.Chemscore.Hbond.Weighted>
-8.6672

> <Gold.Chemscore.Metal.Weighted>
-0.0000

> <Gold.Chemscore.Lipo.Weighted>
-7.6603

> <Gold.Chemscore.Internal_Hbond.Weighted>
0.0000

> <Gold.Chemscore.DEClash.Weighted>
0.0270

> <Gold.Chemscore.DEInternal.Weighted>
1.8355

> <Gold.Chemscore.Rot.Weighted>
5.0955

> <Gold.Chemscore.Internal.Correction.Weighted>
   9.000000E+99

> <Gold.Protein.RotatedTorsions>
[ 6907 6896 6895 6894 ] final  -91.98 input  -60.11 | X-H torsion
[ 7974 7965 7964 7962 ] final   13.38 input  175.53 | X-H torsion
[ 8008 7997 7996 7995 ] final   28.67 input   59.86 | X-H torsion
[ 10167 10162 10161 10158 ] final   38.65 input  -65.29 | X-H torsion
[ 10718 10713 10712 10709 ] final  -53.41 input   66.30 | X-H torsion
[ 10763 10752 10751 10750 ] final  -20.50 input  -60.55 | X-H torsion
[ 11005 11000 10999 10996 ] final   90.74 input  -57.11 | X-H torsion

> <Gold.Protein.ActiveResidues>
 VAL166  LYS551  ARG553  GLY616  TRP617  ASP618  TYR619  PRO620  LYS621  CYS622 
 ASP623  PHE694  ASN695  SER759  ASP760  ASP761  ALA762  ILE779  LEU786  VAL792 
 PHE793  MET794  SER795  GLU796  ALA797  LYS798  CYS799  TRP800  GLU811  SER814 

> <Gold.Protein.RotatedAtoms>
  150.6900  134.2193  159.4389 H   0  0  0  0  0  0  0  0  0  0  0  0  # atno 6907 bound_to 6896
  152.0150  134.9852  160.0578 H   0  0  0  0  0  0  0  0  0  0  0  0  # atno 6908 bound_to 6896
  152.1452  133.4453  159.4823 H   0  0  0  0  0  0  0  0  0  0  0  0  # atno 6909 bound_to 6896
  146.2330  139.9197  142.8512 H   0  0  0  0  0  0  0  0  0  0  0  0  # atno 7974 bound_to 7965
  155.0624  140.3191  155.4656 H   0  0  0  0  0  0  0  0  0  0  0  0  # atno 8008 bound_to 7997
  156.2810  140.2126  156.5695 H   0  0  0  0  0  0  0  0  0  0  0  0  # atno 8009 bound_to 7997
  154.7121  140.0497  157.0548 H   0  0  0  0  0  0  0  0  0  0  0  0  # atno 8010 bound_to 7997
  140.3916  144.1845  150.6131 H   0  0  0  0  0  0  0  0  0  0  0  0  # atno 10167 bound_to 10162
  156.1537  130.4151  149.9903 H   0  0  0  0  0  0  0  0  0  0  0  0  # atno 10718 bound_to 10713
  153.6214  135.6992  153.5309 H   0  0  0  0  0  0  0  0  0  0  0  0  # atno 10763 bound_to 10752
  153.2935  135.4150  155.1187 H   0  0  0  0  0  0  0  0  0  0  0  0  # atno 10764 bound_to 10752
  154.8542  135.3631  154.5755 H   0  0  0  0  0  0  0  0  0  0  0  0  # atno 10765 bound_to 10752
  139.8851  134.8632  156.3327 H   0  0  0  0  0  0  0  0  0  0  0  0  # atno 11005 bound_to 11000
  145.2149  140.9911  143.4079 LP  0  0  0  0  0  0  0  0  0  0  0  0  # atno 17320 bound_to 7965
  144.9660  139.3930  143.6332 LP  0  0  0  0  0  0  0  0  0  0  0  0  # atno 17321 bound_to 7965
  140.4834  143.2371  151.8922 LP  0  0  0  0  0  0  0  0  0  0  0  0  # atno 17342 bound_to 10162
  139.4789  144.5245  151.8755 LP  0  0  0  0  0  0  0  0  0  0  0  0  # atno 17343 bound_to 10162
  156.7753  130.9201  151.3645 LP  0  0  0  0  0  0  0  0  0  0  0  0  # atno 17370 bound_to 10713
  157.6678  130.9023  149.9971 LP  0  0  0  0  0  0  0  0  0  0  0  0  # atno 17371 bound_to 10713
  140.9712  133.7326  156.0537 LP  0  0  0  0  0  0  0  0  0  0  0  0  # atno 17394 bound_to 11000
  140.7869  134.3662  157.5474 LP  0  0  0  0  0  0  0  0  0  0  0  0  # atno 17395 bound_to 11000

$$$$
