AV-unprocessed.smi:1101|AV-procd|sdf|4766|dock1
  -GOLD-   22720 3303D 1   1.00000     0.00000
 Structure written by MMmdl.
 41 42  0  0  0  0  0  0  0  0  1 V2000
  153.1061  143.2784  162.0022 C   0  0  0  0  0  0  0  0  0  0  0  0
  153.9361  142.4655  161.0011 C   0  0  0  0  0  0  0  0  0  0  0  0
  153.2576  142.3301  159.6290 C   0  0  1  0  0  0  0  0  0  0  0  0
  152.3046  141.1180  159.5710 C   0  0  0  0  0  0  0  0  0  0  0  0
  151.6740  141.0881  158.2433 N   0  0  0  0  0  0  0  0  0  0  0  0
  151.9130  140.1954  157.2504 C   0  0  0  0  0  0  0  0  0  0  0  0
  152.9289  139.5007  157.1983 O   0  0  0  0  0  0  0  0  0  0  0  0
  150.9646  140.1447  156.2996 N   0  0  0  0  0  0  0  0  0  0  0  0
  150.9915  139.2781  155.1271 C   0  0  0  0  0  0  0  0  0  0  0  0
  149.8518  138.2468  155.1583 C   0  0  0  0  0  0  0  0  0  0  0  0
  148.5226  138.8870  154.8729 C   0  0  0  0  0  0  0  0  0  0  0  0
  147.3478  138.2706  154.3549 C   0  0  0  0  0  0  0  0  0  0  0  0
  146.3388  139.1162  154.2222 N   0  0  0  0  0  0  0  0  0  0  0  0
  146.8320  140.2973  154.6485 N   0  0  0  0  0  0  0  0  0  0  0  0
  145.9833  141.4695  154.6410 C   0  0  0  0  0  0  0  0  0  0  0  0
  148.1475  140.1896  155.0458 C   0  0  0  0  0  0  0  0  0  0  0  0
  150.8905  142.3078  158.0324 C   0  0  0  0  0  0  0  0  0  0  0  0
  151.8436  143.5129  158.1116 C   0  0  0  0  0  0  0  0  0  0  0  0
  152.5045  143.5163  159.3750 O   0  0  0  0  0  0  0  0  0  0  0  0
  153.6276  143.3688  162.9552 H   0  0  0  0  0  0  0  0  0  0  0  0
  152.1432  142.8047  162.1955 H   0  0  0  0  0  0  0  0  0  0  0  0
  152.9161  144.2854  161.6300 H   0  0  0  0  0  0  0  0  0  0  0  0
  154.9054  142.9500  160.8785 H   0  0  0  0  0  0  0  0  0  0  0  0
  154.1376  141.4758  161.4125 H   0  0  0  0  0  0  0  0  0  0  0  0
  154.0276  142.2223  158.8625 H   0  0  0  0  0  0  0  0  0  0  0  0
  152.8490  140.2076  159.8211 H   0  0  0  0  0  0  0  0  0  0  0  0
  151.5287  141.2131  160.3323 H   0  0  0  0  0  0  0  0  0  0  0  0
  150.1642  140.7519  156.3988 H   0  0  0  0  0  0  0  0  0  0  0  0
  150.8982  139.9075  154.2417 H   0  0  0  0  0  0  0  0  0  0  0  0
  151.9595  138.7793  155.0530 H   0  0  0  0  0  0  0  0  0  0  0  0
  150.0529  137.4573  154.4332 H   0  0  0  0  0  0  0  0  0  0  0  0
  149.8374  137.7562  156.1323 H   0  0  0  0  0  0  0  0  0  0  0  0
  147.2000  137.2382  154.0739 H   0  0  0  0  0  0  0  0  0  0  0  0
  146.5002  142.3087  155.1072 H   0  0  0  0  0  0  0  0  0  0  0  0
  145.0665  141.2669  155.1953 H   0  0  0  0  0  0  0  0  0  0  0  0
  145.7308  141.7345  153.6138 H   0  0  0  0  0  0  0  0  0  0  0  0
  148.7028  141.0387  155.4166 H   0  0  0  0  0  0  0  0  0  0  0  0
  150.3609  142.3137  157.0788 H   0  0  0  0  0  0  0  0  0  0  0  0
  150.1220  142.3839  158.8030 H   0  0  0  0  0  0  0  0  0  0  0  0
  152.5787  143.4822  157.3058 H   0  0  0  0  0  0  0  0  0  0  0  0
  151.2867  144.4435  158.0020 H   0  0  0  0  0  0  0  0  0  0  0  0
  1  2  1  0  0  0  0
  1 20  1  0  0  0  0
  1 21  1  0  0  0  0
  1 22  1  0  0  0  0
  2  3  1  0  0  0  0
  2 23  1  0  0  0  0
  2 24  1  0  0  0  0
  3 19  1  0  0  0  0
  3  4  1  0  0  0  0
  3 25  1  0  0  0  0
  4  5  1  0  0  0  0
  4 26  1  0  0  0  0
  4 27  1  0  0  0  0
  5  6  1  0  0  0  0
  5 17  1  0  0  0  0
  6  7  2  0  0  0  0
  6  8  1  0  0  0  0
  8  9  1  0  0  0  0
  8 28  1  0  0  0  0
  9 10  1  0  0  0  0
  9 29  1  0  0  0  0
  9 30  1  0  0  0  0
 10 11  1  0  0  0  0
 10 31  1  0  0  0  0
 10 32  1  0  0  0  0
 11 16  2  0  0  0  0
 11 12  1  0  0  0  0
 12 13  2  0  0  0  0
 12 33  1  0  0  0  0
 13 14  1  0  0  0  0
 14 15  1  0  0  0  0
 14 16  1  0  0  0  0
 15 34  1  0  0  0  0
 15 35  1  0  0  0  0
 15 36  1  0  0  0  0
 16 37  1  0  0  0  0
 17 18  1  0  0  0  0
 17 38  1  0  0  0  0
 17 39  1  0  0  0  0
 18 19  1  0  0  0  0
 18 40  1  0  0  0  0
 18 41  1  0  0  0  0
M  END
> <s_m_source_file>
AV-unprocessed.smi

> <i_m_source_file_index>
1101

> <i_lp_mmshare_version>
43012

> <i_f3d_flags>
0

> <s_epik_input>
W0NIM11bQ0gyXVtDQEBIXTFbQ0gyXU4oW0NIMl1bQ0gyXU8xKUMoPU8pW05IXVtDSDJdW0NIMl1jMltjSF1ubihbQ0gzXSlbY0hdMg==

> <s_epik_cmdline>
J2VwaWtfcHl0aG9uJywgJy1waCcsICc3LjAnLCAnLXRuJywgJzgnLCAnLW1hJywgJzIwMCcsICctbWV0YWxfYmluZGluZycsICctaW1hZScsICc8aW5maWxlLm1hZT4nLCAnLW9tYWUnLCAnPG91dGZpbGUubWFlPic=

> <r_lp_tautomer_probability>
1

> <r_epik_Ionization_Penalty>
0.000536373

> <r_epik_Ionization_Penalty_Charging>
0

> <r_epik_Ionization_Penalty_Neutral>
0.000536373

> <r_epik_State_Penalty>
-0

> <r_epik_Charging_Adjusted_Penalty>
0

> <i_epik_Tot_Q>
0

> <i_epik_Tot_abs_Q>
0

> <r_epik_Metal_State_Penalty>
-0

> <b_epik_Metal_Only>
0

> <s_lp_Force_Field>
OPLS_2005

> <r_lp_Energy>
24.031

> <b_lp_Chiralities_Consistent>
1

> <s_lp_Variant>
AV-unprocessed.smi:1101-2

> <Gold.Version>
5.8.1

> <Gold.Id.Protein>
6NUR|6NUR_protein|mol2

> <Gold.PLP.Fitness>
47.1718

> <Gold.PLP.PLP>
-43.0291

> <Gold.PLP.part.hbond>
-1.0000

> <Gold.PLP.part.metal>
0.0000

> <Gold.PLP.part.buried>
-3.1133

> <Gold.PLP.part.nonpolar>
-38.3629

> <Gold.PLP.part.repulsive>
0.3318

> <Gold.PLP.ligand.clash>
0.0000

> <Gold.PLP.ligand.torsion>
0.9756

> <Gold.PLP.Chemscore.Hbond>
1.0000

> <Gold.PLP.Chemscore.CHOScore>
1.0000

> <Gold.PLP.Chemscore.Metal>
0.0000

> <Gold.Chemscore.Hbonds>
donor molecule, donor type, donor heavy atom, donor atom, acceptor molecule, acceptor atom, score
      P1  H  7997  8010       L1     7  1.00

> <Gold.PLP.Chemscore.Internal.Correction>
0.0939

> <Gold.Rescore>
     Score         DG    S(hbond)    S(metal)    S(lipo)     H(rot)  DE(clash)    DE(int)     intcor
     15.55     -16.65       0.92        0.00     102.23       1.51       0.50       0.60       ----

> <Gold.Chemscore.Fitness>
15.5543

> <Gold.Chemscore.DG>
-16.6550

> <Gold.Chemscore.ZeroCoef>
-5.4800

> <Gold.Chemscore.Hbond>
0.9191

> <Gold.Chemscore.Metal>
0.0000

> <Gold.Chemscore.Lipo>
102.2319

> <Gold.Chemscore.Internal_Hbond>
0.0000

> <Gold.Chemscore.DEClash>
0.4984

> <Gold.Chemscore.DEInternal>
0.6022

> <Gold.Chemscore.Rot>
1.5062

> <Gold.Chemscore.Internal.Correction>
   9.000000E+99

> <Gold.Chemscore.Hbonds>
donor molecule, donor type, donor heavy atom, donor atom, acceptor molecule, acceptor atom, score
      P1  H  7997  8010       L1     7  0.94

> <Gold.Chemscore.Hbond.Weighted>
-3.0697

> <Gold.Chemscore.Metal.Weighted>
-0.0000

> <Gold.Chemscore.Lipo.Weighted>
-11.9611

> <Gold.Chemscore.Internal_Hbond.Weighted>
0.0000

> <Gold.Chemscore.DEClash.Weighted>
0.4984

> <Gold.Chemscore.DEInternal.Weighted>
0.6022

> <Gold.Chemscore.Rot.Weighted>
3.8558

> <Gold.Chemscore.Internal.Correction.Weighted>
   9.000000E+99

> <Gold.Protein.RotatedTorsions>
[ 6907 6896 6895 6894 ] final  135.16 input  -60.11 | X-H torsion
[ 7974 7965 7964 7962 ] final  -63.50 input  175.53 | X-H torsion
[ 8008 7997 7996 7995 ] final   35.66 input   59.86 | X-H torsion
[ 10167 10162 10161 10158 ] final  168.60 input  -65.29 | X-H torsion
[ 10718 10713 10712 10709 ] final -112.17 input   66.30 | X-H torsion
[ 10763 10752 10751 10750 ] final -174.58 input  -60.55 | X-H torsion
[ 11005 11000 10999 10996 ] final   89.69 input  -57.11 | X-H torsion

> <Gold.Protein.ActiveResidues>
 VAL166  LYS551  ARG553  GLY616  TRP617  ASP618  TYR619  PRO620  LYS621  CYS622 
 ASP623  PHE694  ASN695  SER759  ASP760  ASP761  ALA762  ILE779  LEU786  VAL792 
 PHE793  MET794  SER795  GLU796  ALA797  LYS798  CYS799  TRP800  GLU811  SER814 

> <Gold.Protein.RotatedAtoms>
  152.3035  133.5679  159.5633 H   0  0  0  0  0  0  0  0  0  0  0  0  # atno 6907 bound_to 6896
  150.7288  134.0257  159.3725 H   0  0  0  0  0  0  0  0  0  0  0  0  # atno 6908 bound_to 6896
  151.8155  135.0668  160.0469 H   0  0  0  0  0  0  0  0  0  0  0  0  # atno 6909 bound_to 6896
  145.7783  140.8776  143.0344 H   0  0  0  0  0  0  0  0  0  0  0  0  # atno 7974 bound_to 7965
  155.1747  140.3295  155.4386 H   0  0  0  0  0  0  0  0  0  0  0  0  # atno 8008 bound_to 7997
  156.2498  140.1937  156.6798 H   0  0  0  0  0  0  0  0  0  0  0  0  # atno 8009 bound_to 7997
  154.6313  140.0582  156.9722 H   0  0  0  0  0  0  0  0  0  0  0  0  # atno 8010 bound_to 7997
  139.4972  144.3797  151.9635 H   0  0  0  0  0  0  0  0  0  0  0  0  # atno 10167 bound_to 10162
  156.0690  130.5906  150.8472 H   0  0  0  0  0  0  0  0  0  0  0  0  # atno 10718 bound_to 10713
  154.5945  135.2848  155.0600 H   0  0  0  0  0  0  0  0  0  0  0  0  # atno 10763 bound_to 10752
  154.1888  135.6444  153.5058 H   0  0  0  0  0  0  0  0  0  0  0  0  # atno 10764 bound_to 10752
  153.0133  135.5441  154.6643 H   0  0  0  0  0  0  0  0  0  0  0  0  # atno 10765 bound_to 10752
  139.8870  134.8567  156.3178 H   0  0  0  0  0  0  0  0  0  0  0  0  # atno 11005 bound_to 11000
  144.6801  139.9953  143.7484 LP  0  0  0  0  0  0  0  0  0  0  0  0  # atno 17320 bound_to 7965
  146.0100  139.3162  143.0876 LP  0  0  0  0  0  0  0  0  0  0  0  0  # atno 17321 bound_to 7965
  140.3234  144.3402  150.6004 LP  0  0  0  0  0  0  0  0  0  0  0  0  # atno 17342 bound_to 10162
  140.5704  143.2181  151.7608 LP  0  0  0  0  0  0  0  0  0  0  0  0  # atno 17343 bound_to 10162
  157.5749  131.0946  150.9361 LP  0  0  0  0  0  0  0  0  0  0  0  0  # atno 17370 bound_to 10713
  156.9569  130.5441  149.5284 LP  0  0  0  0  0  0  0  0  0  0  0  0  # atno 17371 bound_to 10713
  140.9807  133.7269  156.0668 LP  0  0  0  0  0  0  0  0  0  0  0  0  # atno 17394 bound_to 11000
  140.7753  134.3787  157.5499 LP  0  0  0  0  0  0  0  0  0  0  0  0  # atno 17395 bound_to 11000

$$$$
