AV-unprocessed.smi:36|AV-procd|sdf|289|dock4
  -GOLD-   2262016 73D 1   1.00000     0.00000
 Structure written by MMmdl.
 64 67  0  0  0  0  0  0  0  0  1 V2000
  144.1043  132.9957  149.4803 C   0  0  0  0  0  0  0  0  0  0  0  0
  145.0033  132.8329  150.7171 C   0  0  0  0  0  0  0  0  0  0  0  0
  144.5876  131.5795  151.5059 C   0  0  0  0  0  0  0  0  0  0  0  0
  146.4732  132.7072  150.2836 C   0  0  0  0  0  0  0  0  0  0  0  0
  144.8144  134.3623  151.8455 Si  0  0  0  0  0  0  0  0  0  0  0  0
  145.3431  135.9502  150.9469 C   0  0  0  0  0  0  0  0  0  0  0  0
  143.0215  134.5413  152.4516 C   0  0  0  0  0  0  0  0  0  0  0  0
  145.8387  134.1469  153.1766 O   0  0  0  0  0  0  0  0  0  0  0  0
  147.2389  134.3358  153.1446 C   0  0  0  0  0  0  0  0  0  0  0  0
  147.8579  133.8428  154.4598 C   0  0  2  0  0  0  0  0  0  0  0  0
  147.9127  134.9303  155.3780 O   0  0  0  0  0  0  0  0  0  0  0  0
  149.0360  134.7549  156.1714 C   0  0  2  0  0  0  0  0  0  0  0  0
  149.4180  136.0702  156.7612 N   0  0  0  0  0  0  0  0  0  0  0  0
  149.4544  136.4024  158.0659 C   0  0  0  0  0  0  0  0  0  0  0  0
  149.8271  137.6535  158.3235 N   0  0  0  0  0  0  0  0  0  0  0  0
  150.0468  138.1731  157.0518 C   0  0  0  0  0  0  0  0  0  0  0  0
  150.4772  139.5240  156.6314 C   0  0  0  0  0  0  0  0  0  0  0  0
  150.7068  140.3995  157.5625 N   0  0  0  0  0  0  0  0  0  0  0  0
  151.1123  141.6845  157.2270 C   0  0  0  0  0  0  0  0  0  0  0  0
  151.0918  142.2403  156.1253 O   0  0  0  0  0  0  0  0  0  0  0  0
  151.6304  142.4610  158.3931 C   0  0  0  0  0  0  0  0  0  0  0  0
  151.5979  143.8715  158.3746 C   0  0  0  0  0  0  0  0  0  0  0  0
  152.0968  144.6034  159.4700 C   0  0  0  0  0  0  0  0  0  0  0  0
  152.6311  143.9281  160.5845 C   0  0  0  0  0  0  0  0  0  0  0  0
  152.6663  142.5203  160.6044 C   0  0  0  0  0  0  0  0  0  0  0  0
  152.1678  141.7869  159.5100 C   0  0  0  0  0  0  0  0  0  0  0  0
  150.5530  139.5856  155.2338 N   0  0  0  0  0  0  0  0  0  0  0  0
  150.2682  138.5357  154.3468 C   0  0  0  0  0  0  0  0  0  0  0  0
  149.8890  137.3375  154.7041 N   0  0  0  0  0  0  0  0  0  0  0  0
  149.7990  137.2235  156.0842 C   0  0  0  0  0  0  0  0  0  0  0  0
  150.1156  134.2487  155.2276 C   0  0  0  0  0  0  0  0  0  0  0  0
  149.3106  133.3385  154.3136 C   0  0  1  0  0  0  0  0  0  0  0  0
  149.4099  131.9967  154.7493 O   0  0  0  0  0  0  0  0  0  0  0  0
  144.1878  132.1365  148.8138 H   0  0  0  0  0  0  0  0  0  0  0  0
  144.3735  133.8835  148.9075 H   0  0  0  0  0  0  0  0  0  0  0  0
  143.0553  133.0913  149.7617 H   0  0  0  0  0  0  0  0  0  0  0  0
  143.5442  131.6326  151.8175 H   0  0  0  0  0  0  0  0  0  0  0  0
  145.1923  131.4585  152.4056 H   0  0  0  0  0  0  0  0  0  0  0  0
  144.7046  130.6763  150.9062 H   0  0  0  0  0  0  0  0  0  0  0  0
  146.6273  131.8300  149.6543 H   0  0  0  0  0  0  0  0  0  0  0  0
  147.1331  132.6133  151.1467 H   0  0  0  0  0  0  0  0  0  0  0  0
  146.7970  133.5793  149.7152 H   0  0  0  0  0  0  0  0  0  0  0  0
  144.7303  136.1345  150.0647 H   0  0  0  0  0  0  0  0  0  0  0  0
  146.3806  135.8986  150.6176 H   0  0  0  0  0  0  0  0  0  0  0  0
  145.2518  136.8232  151.5929 H   0  0  0  0  0  0  0  0  0  0  0  0
  142.3340  134.7031  151.6217 H   0  0  0  0  0  0  0  0  0  0  0  0
  142.9109  135.3861  153.1311 H   0  0  0  0  0  0  0  0  0  0  0  0
  142.6850  133.6510  152.9820 H   0  0  0  0  0  0  0  0  0  0  0  0
  147.6543  133.7923  152.2957 H   0  0  0  0  0  0  0  0  0  0  0  0
  147.4659  135.3913  152.9900 H   0  0  0  0  0  0  0  0  0  0  0  0
  147.2278  133.0724  154.9055 H   0  0  0  0  0  0  0  0  0  0  0  0
  148.8269  134.0874  157.0089 H   0  0  0  0  0  0  0  0  0  0  0  0
  149.1979  135.7059  158.8508 H   0  0  0  0  0  0  0  0  0  0  0  0
  151.1924  144.3966  157.5217 H   0  0  0  0  0  0  0  0  0  0  0  0
  152.0707  145.6831  159.4543 H   0  0  0  0  0  0  0  0  0  0  0  0
  153.0149  144.4899  161.4233 H   0  0  0  0  0  0  0  0  0  0  0  0
  153.0774  142.0029  161.4586 H   0  0  0  0  0  0  0  0  0  0  0  0
  152.2015  140.7070  159.5308 H   0  0  0  0  0  0  0  0  0  0  0  0
  150.3898  138.7986  153.2951 H   0  0  0  0  0  0  0  0  0  0  0  0
  150.5203  135.0878  154.6593 H   0  0  0  0  0  0  0  0  0  0  0  0
  150.9258  133.7589  155.7695 H   0  0  0  0  0  0  0  0  0  0  0  0
  149.6740  133.4005  153.2870 H   0  0  0  0  0  0  0  0  0  0  0  0
  150.3246  131.7796  154.8452 H   0  0  0  0  0  0  0  0  0  0  0  0
  150.8389  140.4656  154.8292 H   0  0  0  0  0  0  0  0  0  0  0  0
  1  2  1  0  0  0  0
  1 34  1  0  0  0  0
  1 35  1  0  0  0  0
  1 36  1  0  0  0  0
  2  3  1  0  0  0  0
  2  4  1  0  0  0  0
  2  5  1  0  0  0  0
  3 37  1  0  0  0  0
  3 38  1  0  0  0  0
  3 39  1  0  0  0  0
  4 40  1  0  0  0  0
  4 41  1  0  0  0  0
  4 42  1  0  0  0  0
  5  6  1  0  0  0  0
  5  7  1  0  0  0  0
  5  8  1  0  0  0  0
  6 43  1  0  0  0  0
  6 44  1  0  0  0  0
  6 45  1  0  0  0  0
  7 46  1  0  0  0  0
  7 47  1  0  0  0  0
  7 48  1  0  0  0  0
  8  9  1  0  0  0  0
  9 10  1  0  0  0  0
  9 49  1  0  0  0  0
  9 50  1  0  0  0  0
 10 32  1  0  0  0  0
 10 11  1  0  0  0  0
 10 51  1  0  0  0  0
 11 12  1  0  0  0  0
 12 13  1  0  0  0  0
 12 31  1  0  0  0  0
 12 52  1  0  0  0  0
 13 30  1  0  0  0  0
 13 14  1  0  0  0  0
 14 15  2  0  0  0  0
 14 53  1  0  0  0  0
 15 16  1  0  0  0  0
 16 30  2  0  0  0  0
 16 17  1  0  0  0  0
 17 18  2  0  0  0  0
 17 27  1  0  0  0  0
 18 19  1  0  0  0  0
 19 20  2  0  0  0  0
 19 21  1  0  0  0  0
 21 26  1  0  0  0  0
 21 22  2  0  0  0  0
 22 23  1  0  0  0  0
 22 54  1  0  0  0  0
 23 24  2  0  0  0  0
 23 55  1  0  0  0  0
 24 25  1  0  0  0  0
 24 56  1  0  0  0  0
 25 26  2  0  0  0  0
 25 57  1  0  0  0  0
 26 58  1  0  0  0  0
 27 28  1  0  0  0  0
 27 64  1  0  0  0  0
 28 29  2  0  0  0  0
 28 59  1  0  0  0  0
 29 30  1  0  0  0  0
 31 32  1  0  0  0  0
 31 60  1  0  0  0  0
 31 61  1  0  0  0  0
 32 33  1  0  0  0  0
 32 62  1  0  0  0  0
 33 63  1  0  0  0  0
M  END
> <s_m_source_file>
AV-unprocessed.smi

> <i_m_source_file_index>
36

> <i_lp_mmshare_version>
43012

> <i_f3d_flags>
0

> <s_epik_input>
W0NIM11DKFtDSDNdKShbQ0gzXSlbU2ldKFtDSDNdKShbQ0gzXSlPW0NIMl1bQ0BASF0xT1tDQEhdKFtDSDJdW0NASF0xW09IXSluKFtjSF1uMiljKGMyMyluW2NIXW5jM1tOSF1DKD1PKWM0W2NIXVtjSF1bY0hdW2NIXVtjSF00

> <s_epik_cmdline>
J2VwaWtfcHl0aG9uJywgJy1waCcsICc3LjAnLCAnLXRuJywgJzgnLCAnLW1hJywgJzIwMCcsICctbWV0YWxfYmluZGluZycsICctaW1hZScsICc8aW5maWxlLm1hZT4nLCAnLW9tYWUnLCAnPG91dGZpbGUubWFlPic=

> <r_epik_Ionization_Penalty>
0.0850405

> <r_epik_Ionization_Penalty_Charging>
0.0850403

> <r_epik_Ionization_Penalty_Neutral>
1.47497e-07

> <r_epik_State_Penalty>
2.6133

> <r_epik_Charging_Adjusted_Penalty>
2.69834

> <i_epik_Tot_Q>
0

> <i_epik_Tot_abs_Q>
0

> <r_epik_Metal_State_Penalty>
2.92945

> <b_epik_Metal_Only>
0

> <s_epik_Chemistry_Notes>
This compound contains an acetal/aminal-like group ( X-CH(R)-Y where X, Y are N, S, or O) that may be acid/base labile, releasing an aldehyde.

> <s_lp_Force_Field>
OPLS_2005

> <r_lp_Energy>
44.9546

> <b_lp_Chiralities_Consistent>
1

> <s_lp_Variant>
AV-unprocessed.smi:36-11

> <Gold.Version>
5.8.1

> <Gold.Id.Protein>
6NUR|6NUR_protein|mol2

> <Gold.PLP.Fitness>
52.7095

> <Gold.PLP.PLP>
-51.2790

> <Gold.PLP.part.hbond>
0.0000

> <Gold.PLP.part.metal>
0.0000

> <Gold.PLP.part.buried>
-4.1660

> <Gold.PLP.part.nonpolar>
-46.3172

> <Gold.PLP.part.repulsive>
0.5367

> <Gold.PLP.ligand.clash>
0.0000

> <Gold.PLP.ligand.torsion>
0.9616

> <Gold.PLP.Chemscore.Hbond>
0.0000

> <Gold.PLP.Chemscore.CHOScore>
1.0000

> <Gold.PLP.Chemscore.Metal>
0.0000

> <Gold.Chemscore.Hbonds>
donor molecule, donor type, donor heavy atom, donor atom, acceptor molecule, acceptor atom, score
      L1  C    28    59       P1  7957  0.89

> <Gold.PLP.Chemscore.Internal.Correction>
0.3538

> <Gold.Rescore>
     Score         DG    S(hbond)    S(metal)    S(lipo)     H(rot)  DE(clash)    DE(int)     intcor
     12.42     -13.82       0.00        0.00     130.43       2.70       0.10       1.30       ----

> <Gold.Chemscore.Fitness>
12.4156

> <Gold.Chemscore.DG>
-13.8174

> <Gold.Chemscore.ZeroCoef>
-5.4800

> <Gold.Chemscore.Hbond>
0.0000

> <Gold.Chemscore.Metal>
0.0000

> <Gold.Chemscore.Lipo>
130.4263

> <Gold.Chemscore.Internal_Hbond>
0.0000

> <Gold.Chemscore.DEClash>
0.0978

> <Gold.Chemscore.DEInternal>
1.3040

> <Gold.Chemscore.Rot>
2.7041

> <Gold.Chemscore.Internal.Correction>
   9.000000E+99

> <Gold.Chemscore.Hbond.Weighted>
-0.0000

> <Gold.Chemscore.Metal.Weighted>
-0.0000

> <Gold.Chemscore.Lipo.Weighted>
-15.2599

> <Gold.Chemscore.Internal_Hbond.Weighted>
0.0000

> <Gold.Chemscore.DEClash.Weighted>
0.0978

> <Gold.Chemscore.DEInternal.Weighted>
1.3040

> <Gold.Chemscore.Rot.Weighted>
6.9225

> <Gold.Chemscore.Internal.Correction.Weighted>
   9.000000E+99

> <Gold.Protein.RotatedTorsions>
[ 6907 6896 6895 6894 ] final -153.08 input  -60.11 | X-H torsion
[ 7974 7965 7964 7962 ] final -138.55 input  175.53 | X-H torsion
[ 8008 7997 7996 7995 ] final  -14.69 input   59.86 | X-H torsion
[ 10167 10162 10161 10158 ] final  -70.72 input  -65.29 | X-H torsion
[ 10718 10713 10712 10709 ] final -108.24 input   66.30 | X-H torsion
[ 10763 10752 10751 10750 ] final -154.25 input  -60.55 | X-H torsion
[ 11005 11000 10999 10996 ] final  122.88 input  -57.11 | X-H torsion

> <Gold.Protein.ActiveResidues>
 VAL166  LYS551  ARG553  GLY616  TRP617  ASP618  TYR619  PRO620  LYS621  CYS622 
 ASP623  PHE694  ASN695  SER759  ASP760  ASP761  ALA762  ILE779  LEU786  VAL792 
 PHE793  MET794  SER795  GLU796  ALA797  LYS798  CYS799  TRP800  GLU811  SER814 

> <Gold.Protein.RotatedAtoms>
  151.2373  133.4418  159.2605 H   0  0  0  0  0  0  0  0  0  0  0  0  # atno 6907 bound_to 6896
  151.0738  134.9815  159.8332 H   0  0  0  0  0  0  0  0  0  0  0  0  # atno 6908 bound_to 6896
  152.5415  134.2316  159.8880 H   0  0  0  0  0  0  0  0  0  0  0  0  # atno 6909 bound_to 6896
  144.8749  140.6422  143.5243 H   0  0  0  0  0  0  0  0  0  0  0  0  # atno 7974 bound_to 7965
  154.5190  140.2216  155.9011 H   0  0  0  0  0  0  0  0  0  0  0  0  # atno 8008 bound_to 7997
  156.1640  140.3136  155.8822 H   0  0  0  0  0  0  0  0  0  0  0  0  # atno 8009 bound_to 7997
  155.3693  140.0465  157.3036 H   0  0  0  0  0  0  0  0  0  0  0  0  # atno 8010 bound_to 7997
  140.5330  143.2320  151.7228 H   0  0  0  0  0  0  0  0  0  0  0  0  # atno 10167 bound_to 10162
  156.0476  130.5703  150.7933 H   0  0  0  0  0  0  0  0  0  0  0  0  # atno 10718 bound_to 10713
  154.7872  135.3194  154.7860 H   0  0  0  0  0  0  0  0  0  0  0  0  # atno 10763 bound_to 10752
  153.8557  135.6858  153.4792 H   0  0  0  0  0  0  0  0  0  0  0  0  # atno 10764 bound_to 10752
  153.1528  135.4692  154.9600 H   0  0  0  0  0  0  0  0  0  0  0  0  # atno 10765 bound_to 10752
  139.9287  134.9641  156.8175 H   0  0  0  0  0  0  0  0  0  0  0  0  # atno 11005 bound_to 11000
  145.4061  139.1588  143.4151 LP  0  0  0  0  0  0  0  0  0  0  0  0  # atno 17320 bound_to 7965
  146.2956  140.4162  142.8723 LP  0  0  0  0  0  0  0  0  0  0  0  0  # atno 17321 bound_to 7965
  139.4961  144.4085  152.0105 LP  0  0  0  0  0  0  0  0  0  0  0  0  # atno 17342 bound_to 10162
  140.3189  144.3451  150.6014 LP  0  0  0  0  0  0  0  0  0  0  0  0  # atno 17343 bound_to 10162
  157.5368  131.0939  150.9882 LP  0  0  0  0  0  0  0  0  0  0  0  0  # atno 17370 bound_to 10713
  157.0175  130.5661  149.5327 LP  0  0  0  0  0  0  0  0  0  0  0  0  # atno 17371 bound_to 10713
  140.6262  133.9948  155.7640 LP  0  0  0  0  0  0  0  0  0  0  0  0  # atno 17394 bound_to 11000
  141.0863  133.9986  157.3309 LP  0  0  0  0  0  0  0  0  0  0  0  0  # atno 17395 bound_to 11000

$$$$
