AV-unprocessed.smi:1699|AV-procd|sdf|6818|dock3
  -GOLD-   22720 7593D 1   1.00000     0.00000
 Structure written by MMmdl.
 37 38  0  0  0  0  0  0  0  0  1 V2000
  145.4575  135.4037  150.8532 C   0  0  0  0  0  0  0  0  0  0  0  0
  145.3217  133.8945  150.9763 C   0  0  0  0  0  0  0  0  0  0  0  0
  144.2457  133.2439  150.3361 C   0  0  0  0  0  0  0  0  0  0  0  0
  144.1210  131.8490  150.4507 C   0  0  0  0  0  0  0  0  0  0  0  0
  145.0854  131.1586  151.2047 C   0  0  0  0  0  0  0  0  0  0  0  0
  146.1168  131.7721  151.8196 N   0  0  0  0  0  0  0  0  0  0  0  0
  146.2514  133.1186  151.7197 C   0  0  0  0  0  0  0  0  0  0  0  0
  147.3131  133.8328  152.3438 N   0  0  0  0  0  0  0  0  0  0  0  0
  147.9018  133.5917  153.5285 C   0  0  0  0  0  0  0  0  0  0  0  0
  147.6171  132.6678  154.2909 O   0  0  0  0  0  0  0  0  0  0  0  0
  148.8541  134.5008  153.7874 N   0  0  0  0  0  0  0  0  0  0  0  0
  149.6961  134.5441  154.9823 C   0  0  1  0  0  0  0  0  0  0  0  0
  150.4283  133.2009  155.1171 C   0  0  0  0  0  0  0  0  0  0  0  0
  150.6817  135.7295  154.9099 C   0  0  1  0  0  0  0  0  0  0  0  0
  150.0410  137.1153  155.0188 C   0  0  0  0  0  0  0  0  0  0  0  0
  151.1990  137.9509  155.5115 C   0  0  0  0  0  0  0  0  0  0  0  0
  151.8819  136.9909  156.4802 C   0  0  0  0  0  0  0  0  0  0  0  0
  151.6068  135.6790  155.9946 O   0  0  0  0  0  0  0  0  0  0  0  0
  144.6553  135.8265  150.2477 H   0  0  0  0  0  0  0  0  0  0  0  0
  146.4059  135.6641  150.3824 H   0  0  0  0  0  0  0  0  0  0  0  0
  145.4173  135.8730  151.8367 H   0  0  0  0  0  0  0  0  0  0  0  0
  143.5222  133.8049  149.7630 H   0  0  0  0  0  0  0  0  0  0  0  0
  143.3083  131.3219  149.9731 H   0  0  0  0  0  0  0  0  0  0  0  0
  145.0283  130.0862  151.3172 H   0  0  0  0  0  0  0  0  0  0  0  0
  147.6611  134.6262  151.8267 H   0  0  0  0  0  0  0  0  0  0  0  0
  149.0134  135.2240  153.1016 H   0  0  0  0  0  0  0  0  0  0  0  0
  149.0728  134.6676  155.8699 H   0  0  0  0  0  0  0  0  0  0  0  0
  151.0420  133.1754  156.0180 H   0  0  0  0  0  0  0  0  0  0  0  0
  151.0824  133.0166  154.2643 H   0  0  0  0  0  0  0  0  0  0  0  0
  149.7213  132.3731  155.1806 H   0  0  0  0  0  0  0  0  0  0  0  0
  151.2579  135.6809  153.9842 H   0  0  0  0  0  0  0  0  0  0  0  0
  149.6292  137.4712  154.0740 H   0  0  0  0  0  0  0  0  0  0  0  0
  149.2422  137.1137  155.7620 H   0  0  0  0  0  0  0  0  0  0  0  0
  151.8670  138.1904  154.6831 H   0  0  0  0  0  0  0  0  0  0  0  0
  150.8877  138.8835  155.9829 H   0  0  0  0  0  0  0  0  0  0  0  0
  152.9544  137.1714  156.5555 H   0  0  0  0  0  0  0  0  0  0  0  0
  151.4517  137.0862  157.4777 H   0  0  0  0  0  0  0  0  0  0  0  0
  1  2  1  0  0  0  0
  1 19  1  0  0  0  0
  1 20  1  0  0  0  0
  1 21  1  0  0  0  0
  2  7  1  0  0  0  0
  2  3  2  0  0  0  0
  3  4  1  0  0  0  0
  3 22  1  0  0  0  0
  4  5  2  0  0  0  0
  4 23  1  0  0  0  0
  5  6  1  0  0  0  0
  5 24  1  0  0  0  0
  6  7  2  0  0  0  0
  7  8  1  0  0  0  0
  8  9  1  0  0  0  0
  8 25  1  0  0  0  0
  9 10  2  0  0  0  0
  9 11  1  0  0  0  0
 11 12  1  0  0  0  0
 11 26  1  0  0  0  0
 12 13  1  0  0  0  0
 12 14  1  0  0  0  0
 12 27  1  0  0  0  0
 13 28  1  0  0  0  0
 13 29  1  0  0  0  0
 13 30  1  0  0  0  0
 14 18  1  0  0  0  0
 14 15  1  0  0  0  0
 14 31  1  0  0  0  0
 15 16  1  0  0  0  0
 15 32  1  0  0  0  0
 15 33  1  0  0  0  0
 16 17  1  0  0  0  0
 16 34  1  0  0  0  0
 16 35  1  0  0  0  0
 17 18  1  0  0  0  0
 17 36  1  0  0  0  0
 17 37  1  0  0  0  0
M  END
> <s_m_source_file>
AV-unprocessed.smi

> <i_m_source_file_index>
1699

> <i_lp_mmshare_version>
43012

> <i_f3d_flags>
0

> <s_epik_input>
W0NIM11jMVtjSF1bY0hdW2NIXW5jMVtOSF1DKD1PKVtOSF1bQ0BIXShbQ0gzXSlbQ0BASF0yW0NIMl1bQ0gyXVtDSDJdTzI=

> <s_epik_cmdline>
J2VwaWtfcHl0aG9uJywgJy1waCcsICc3LjAnLCAnLXRuJywgJzgnLCAnLW1hJywgJzIwMCcsICctbWV0YWxfYmluZGluZycsICctaW1hZScsICc8aW5maWxlLm1hZT4nLCAnLW9tYWUnLCAnPG91dGZpbGUubWFlPic=

> <r_lp_tautomer_probability>
1

> <r_epik_Ionization_Penalty>
5.52788e-05

> <r_epik_Ionization_Penalty_Charging>
0

> <r_epik_Ionization_Penalty_Neutral>
5.52788e-05

> <r_epik_State_Penalty>
-0

> <r_epik_Charging_Adjusted_Penalty>
0

> <i_epik_Tot_Q>
0

> <i_epik_Tot_abs_Q>
0

> <r_epik_Metal_State_Penalty>
-0

> <b_epik_Metal_Only>
0

> <s_lp_Force_Field>
OPLS_2005

> <r_lp_Energy>
20.3495

> <b_lp_Chiralities_Consistent>
1

> <s_lp_Variant>
AV-unprocessed.smi:1699-4

> <Gold.Version>
5.8.1

> <Gold.Id.Protein>
6NUR|6NUR_protein|mol2

> <Gold.PLP.Fitness>
38.8980

> <Gold.PLP.PLP>
-31.0719

> <Gold.PLP.part.hbond>
-3.0000

> <Gold.PLP.part.metal>
0.0000

> <Gold.PLP.part.buried>
-4.3407

> <Gold.PLP.part.nonpolar>
-23.0109

> <Gold.PLP.part.repulsive>
0.2107

> <Gold.PLP.ligand.clash>
0.0000

> <Gold.PLP.ligand.torsion>
0.3353

> <Gold.PLP.Chemscore.Hbond>
2.8280

> <Gold.PLP.Chemscore.CHOScore>
0.0000

> <Gold.PLP.Chemscore.Metal>
0.0000

> <Gold.Chemscore.Hbonds>
donor molecule, donor type, donor heavy atom, donor atom, acceptor molecule, acceptor atom, score
      L1  H     8    25       P1  7948  0.91
      L1  H    11    26       P1  7948  1.00
      P1  H 10752 10764       L1    18  0.85

> <Gold.PLP.Chemscore.Internal.Correction>
0.0127

> <Gold.Rescore>
     Score         DG    S(hbond)    S(metal)    S(lipo)     H(rot)  DE(clash)    DE(int)     intcor
     14.68     -15.18       1.67        0.00      61.96       1.22       0.02       0.47       ----

> <Gold.Chemscore.Fitness>
14.6837

> <Gold.Chemscore.DG>
-15.1788

> <Gold.Chemscore.ZeroCoef>
-5.4800

> <Gold.Chemscore.Hbond>
1.6684

> <Gold.Chemscore.Metal>
0.0000

> <Gold.Chemscore.Lipo>
61.9624

> <Gold.Chemscore.Internal_Hbond>
0.0000

> <Gold.Chemscore.DEClash>
0.0217

> <Gold.Chemscore.DEInternal>
0.4734

> <Gold.Chemscore.Rot>
1.2200

> <Gold.Chemscore.Internal.Correction>
   9.000000E+99

> <Gold.Chemscore.Hbonds>
donor molecule, donor type, donor heavy atom, donor atom, acceptor molecule, acceptor atom, score
      L1  H     8    25       P1  7948  0.34
      L1  H    11    26       P1  7948  0.25
      P1  H 10752 10764       L1    18  0.04

> <Gold.Chemscore.Hbond.Weighted>
-5.5724

> <Gold.Chemscore.Metal.Weighted>
-0.0000

> <Gold.Chemscore.Lipo.Weighted>
-7.2496

> <Gold.Chemscore.Internal_Hbond.Weighted>
0.0000

> <Gold.Chemscore.DEClash.Weighted>
0.0217

> <Gold.Chemscore.DEInternal.Weighted>
0.4734

> <Gold.Chemscore.Rot.Weighted>
3.1232

> <Gold.Chemscore.Internal.Correction.Weighted>
   9.000000E+99

> <Gold.Protein.RotatedTorsions>
[ 6907 6896 6895 6894 ] final  -14.88 input  -60.11 | X-H torsion
[ 7974 7965 7964 7962 ] final  -44.45 input  175.53 | X-H torsion
[ 8008 7997 7996 7995 ] final -138.45 input   59.86 | X-H torsion
[ 10167 10162 10161 10158 ] final  116.53 input  -65.29 | X-H torsion
[ 10718 10713 10712 10709 ] final  175.95 input   66.30 | X-H torsion
[ 10763 10752 10751 10750 ] final  -26.53 input  -60.55 | X-H torsion
[ 11005 11000 10999 10996 ] final -168.58 input  -57.11 | X-H torsion

> <Gold.Protein.ActiveResidues>
 VAL166  LYS551  ARG553  GLY616  TRP617  ASP618  TYR619  PRO620  LYS621  CYS622 
 ASP623  PHE694  ASN695  SER759  ASP760  ASP761  ALA762  ILE779  LEU786  VAL792 
 PHE793  MET794  SER795  GLU796  ALA797  LYS798  CYS799  TRP800  GLU811  SER814 

> <Gold.Protein.RotatedAtoms>
  151.3326  135.0845  159.9343 H   0  0  0  0  0  0  0  0  0  0  0  0  # atno 6907 bound_to 6896
  152.5231  133.9527  159.7690 H   0  0  0  0  0  0  0  0  0  0  0  0  # atno 6908 bound_to 6896
  150.9869  133.6136  159.2744 H   0  0  0  0  0  0  0  0  0  0  0  0  # atno 6909 bound_to 6896
  145.9919  140.7171  142.9313 H   0  0  0  0  0  0  0  0  0  0  0  0  # atno 7974 bound_to 7965
  155.4286  140.0523  157.3020 H   0  0  0  0  0  0  0  0  0  0  0  0  # atno 8008 bound_to 7997
  154.4870  140.2105  155.9591 H   0  0  0  0  0  0  0  0  0  0  0  0  # atno 8009 bound_to 7997
  156.1289  140.3175  155.8323 H   0  0  0  0  0  0  0  0  0  0  0  0  # atno 8010 bound_to 7997
  139.6241  144.7105  151.2572 H   0  0  0  0  0  0  0  0  0  0  0  0  # atno 10167 bound_to 10162
  156.9274  130.9960  151.2993 H   0  0  0  0  0  0  0  0  0  0  0  0  # atno 10718 bound_to 10713
  153.7174  135.6947  153.5021 H   0  0  0  0  0  0  0  0  0  0  0  0  # atno 10763 bound_to 10752
  153.2228  135.4364  155.0507 H   0  0  0  0  0  0  0  0  0  0  0  0  # atno 10764 bound_to 10752
  154.8295  135.3465  154.6709 H   0  0  0  0  0  0  0  0  0  0  0  0  # atno 10765 bound_to 10752
  140.5404  134.5528  157.5098 H   0  0  0  0  0  0  0  0  0  0  0  0  # atno 11005 bound_to 11000
  144.6891  140.3085  143.7252 LP  0  0  0  0  0  0  0  0  0  0  0  0  # atno 17320 bound_to 7965
  145.7617  139.1827  143.2263 LP  0  0  0  0  0  0  0  0  0  0  0  0  # atno 17321 bound_to 7965
  140.7400  143.6601  150.8171 LP  0  0  0  0  0  0  0  0  0  0  0  0  # atno 17342 bound_to 10162
  140.0216  143.5536  152.2798 LP  0  0  0  0  0  0  0  0  0  0  0  0  # atno 17343 bound_to 10162
  157.5869  130.8416  149.8602 LP  0  0  0  0  0  0  0  0  0  0  0  0  # atno 17370 bound_to 10713
  156.0463  130.3727  150.1310 LP  0  0  0  0  0  0  0  0  0  0  0  0  # atno 17371 bound_to 10713
  139.9507  134.7623  156.0456 LP  0  0  0  0  0  0  0  0  0  0  0  0  # atno 17394 bound_to 11000
  141.1230  133.6607  156.3264 LP  0  0  0  0  0  0  0  0  0  0  0  0  # atno 17395 bound_to 11000

$$$$
