AV-unprocessed.smi:3284|AV-procd|sdf|12579|dock4
  -GOLD-   2272018503D 1   1.00000     0.00000
 Structure written by MMmdl.
 45 46  0  0  0  0  0  0  0  0  3 V2000
  154.3114  140.4887  160.4532 C   0  0  0  0  0  0  0  0  0  0  0  0
  153.4894  141.7533  160.6441 C   0  0  0  0  0  0  0  0  0  0  0  0
  153.3142  142.2827  161.8712 C   0  0  0  0  0  0  0  0  0  0  0  0
  152.5679  143.5732  162.1608 C   0  0  0  0  0  0  0  0  0  0  0  0
  151.8595  144.1529  160.9256 C   0  0  0  0  0  0  0  0  0  0  0  0
  152.6875  143.9381  159.6464 C   0  0  2  0  0  0  0  0  0  0  0  0
  152.1053  144.7080  158.4486 C   0  0  0  0  0  0  0  0  0  0  0  0
  152.9253  142.4237  159.3840 C   0  0  2  0  0  0  0  0  0  0  0  0
  151.6628  141.7012  158.8430 C   0  0  0  0  0  0  0  0  0  0  0  0
  151.4626  141.8903  157.3926 N   0  3  0  0  0  0  0  0  0  0  0  0
  150.0661  141.7136  156.9474 C   0  0  0  0  0  0  0  0  0  0  0  0
  150.0046  141.3343  155.4599 C   0  0  0  0  0  0  0  0  0  0  0  0
  148.6450  141.5009  154.8437 C   0  0  0  0  0  0  0  0  0  0  0  0
  147.8774  142.5968  154.9154 N   0  3  0  0  0  0  0  0  0  0  0  0
  146.7160  142.4158  154.2148 C   0  0  0  0  0  0  0  0  0  0  0  0
  146.7819  141.1581  153.6762 C   0  0  0  0  0  0  0  0  0  0  0  0
  147.9807  140.6226  154.0723 N   0  0  0  0  0  0  0  0  0  0  0  0
  148.4953  139.2961  153.7267 C   0  0  0  0  0  0  0  0  0  0  0  0
  155.0512  140.6282  159.6647 H   0  0  0  0  0  0  0  0  0  0  0  0
  153.6845  139.6361  160.1982 H   0  0  0  0  0  0  0  0  0  0  0  0
  154.8488  140.2308  161.3665 H   0  0  0  0  0  0  0  0  0  0  0  0
  153.7516  141.7954  162.7306 H   0  0  0  0  0  0  0  0  0  0  0  0
  151.8486  143.4068  162.9633 H   0  0  0  0  0  0  0  0  0  0  0  0
  153.2960  144.2928  162.5365 H   0  0  0  0  0  0  0  0  0  0  0  0
  150.8794  143.6887  160.8136 H   0  0  0  0  0  0  0  0  0  0  0  0
  151.6706  145.2152  161.0853 H   0  0  0  0  0  0  0  0  0  0  0  0
  153.6687  144.3801  159.8297 H   0  0  0  0  0  0  0  0  0  0  0  0
  151.0611  144.4530  158.2683 H   0  0  0  0  0  0  0  0  0  0  0  0
  152.6679  144.5055  157.5370 H   0  0  0  0  0  0  0  0  0  0  0  0
  152.1458  145.7833  158.6256 H   0  0  0  0  0  0  0  0  0  0  0  0
  153.6984  142.3607  158.6165 H   0  0  0  0  0  0  0  0  0  0  0  0
  151.7186  140.6329  159.0544 H   0  0  0  0  0  0  0  0  0  0  0  0
  150.7676  142.0773  159.3365 H   0  0  0  0  0  0  0  0  0  0  0  0
  151.7670  142.8215  157.1460 H   0  0  0  0  0  0  0  0  0  0  0  0
  149.5934  140.9353  157.5483 H   0  0  0  0  0  0  0  0  0  0  0  0
  149.5195  142.6403  157.1265 H   0  0  0  0  0  0  0  0  0  0  0  0
  150.6884  141.9477  154.8720 H   0  0  0  0  0  0  0  0  0  0  0  0
  150.3013  140.2933  155.3310 H   0  0  0  0  0  0  0  0  0  0  0  0
  145.9526  143.1776  154.1491 H   0  0  0  0  0  0  0  0  0  0  0  0
  146.0827  140.6203  153.0515 H   0  0  0  0  0  0  0  0  0  0  0  0
  147.8190  138.8145  153.0196 H   0  0  0  0  0  0  0  0  0  0  0  0
  148.5631  138.6893  154.6302 H   0  0  0  0  0  0  0  0  0  0  0  0
  149.4808  139.3959  153.2708 H   0  0  0  0  0  0  0  0  0  0  0  0
  152.0438  141.2218  156.9065 H   0  0  0  0  0  0  0  0  0  0  0  0
  148.1220  143.4419  155.4159 H   0  0  0  0  0  0  0  0  0  0  0  0
  1  2  1  0  0  0  0
  1 19  1  0  0  0  0
  1 20  1  0  0  0  0
  1 21  1  0  0  0  0
  2  8  1  0  0  0  0
  2  3  2  0  0  0  0
  3  4  1  0  0  0  0
  3 22  1  0  0  0  0
  4  5  1  0  0  0  0
  4 23  1  0  0  0  0
  4 24  1  0  0  0  0
  5  6  1  0  0  0  0
  5 25  1  0  0  0  0
  5 26  1  0  0  0  0
  6  7  1  0  0  0  0
  6  8  1  0  0  0  0
  6 27  1  0  0  0  0
  7 28  1  0  0  0  0
  7 29  1  0  0  0  0
  7 30  1  0  0  0  0
  8  9  1  0  0  0  0
  8 31  1  0  0  0  0
  9 10  1  0  0  0  0
  9 32  1  0  0  0  0
  9 33  1  0  0  0  0
 10 11  1  0  0  0  0
 10 34  1  0  0  0  0
 10 44  1  0  0  0  0
 11 12  1  0  0  0  0
 11 35  1  0  0  0  0
 11 36  1  0  0  0  0
 12 13  1  0  0  0  0
 12 37  1  0  0  0  0
 12 38  1  0  0  0  0
 13 17  1  0  0  0  0
 13 14  2  0  0  0  0
 14 15  1  0  0  0  0
 14 45  1  0  0  0  0
 15 16  2  0  0  0  0
 15 39  1  0  0  0  0
 16 17  1  0  0  0  0
 16 40  1  0  0  0  0
 17 18  1  0  0  0  0
 18 41  1  0  0  0  0
 18 42  1  0  0  0  0
 18 43  1  0  0  0  0
M  CHG  1  10   1
M  CHG  1  14   1
M  END
> <s_m_source_file>
AV-unprocessed.smi

> <i_m_source_file_index>
3284

> <i_lp_mmshare_version>
43012

> <i_f3d_flags>
0

> <s_epik_input>
W0NIM11DMT1bQ0hdW0NIMl1bQ0gyXVtDQEBIXShbQ0gzXSlbQ0BIXTFbQ0gyXVtOSF1bQ0gyXVtDSDJdYzJuW2NIXVtjSF1uMltDSDNd

> <s_epik_cmdline>
J2VwaWtfcHl0aG9uJywgJy1waCcsICc3LjAnLCAnLXRuJywgJzgnLCAnLW1hJywgJzIwMCcsICctbWV0YWxfYmluZGluZycsICctaW1hZScsICc8aW5maWxlLm1hZT4nLCAnLW9tYWUnLCAnPG91dGZpbGUubWFlPic=

> <r_lp_tautomer_probability>
1

> <r_epik_Ionization_Penalty>
0.892846

> <r_epik_Ionization_Penalty_Charging>
0.00275802

> <r_epik_Ionization_Penalty_Neutral>
0.890088

> <r_epik_State_Penalty>
0.485211

> <r_epik_Charging_Adjusted_Penalty>
0.487969

> <i_epik_Tot_Q>
2

> <i_epik_Tot_abs_Q>
2

> <r_epik_Metal_State_Penalty>
4.22898

> <b_epik_Metal_Only>
0

> <s_lp_Force_Field>
OPLS_2005

> <r_lp_Energy>
23.7341

> <b_lp_Chiralities_Consistent>
1

> <s_lp_Variant>
AV-unprocessed.smi:3284-8

> <Gold.Version>
5.8.1

> <Gold.Id.Protein>
6NUR|6NUR_protein|mol2

> <Gold.PLP.Fitness>
59.5274

> <Gold.PLP.PLP>
-51.8366

> <Gold.PLP.part.hbond>
-1.0000

> <Gold.PLP.part.metal>
0.0000

> <Gold.PLP.part.buried>
-5.4900

> <Gold.PLP.part.nonpolar>
-44.6168

> <Gold.PLP.part.repulsive>
0.2721

> <Gold.PLP.ligand.clash>
0.0000

> <Gold.PLP.ligand.torsion>
0.6799

> <Gold.PLP.Chemscore.Hbond>
2.0000

> <Gold.PLP.Chemscore.CHOScore>
1.0000

> <Gold.PLP.Chemscore.Metal>
0.0000

> <Gold.Chemscore.Hbonds>
donor molecule, donor type, donor heavy atom, donor atom, acceptor molecule, acceptor atom, score
      L1  H    14    45       P1  8028  1.76
      L1  C    16    40       P1 10175  1.00

> <Gold.PLP.Chemscore.Internal.Correction>
0.0505

> <Gold.Rescore>
     Score         DG    S(hbond)    S(metal)    S(lipo)     H(rot)  DE(clash)    DE(int)     intcor
     19.04     -20.40       0.99        0.00     136.45       1.70       0.42       0.94       ----

> <Gold.Chemscore.Fitness>
19.0411

> <Gold.Chemscore.DG>
-20.4008

> <Gold.Chemscore.ZeroCoef>
-5.4800

> <Gold.Chemscore.Hbond>
0.9903

> <Gold.Chemscore.Metal>
0.0000

> <Gold.Chemscore.Lipo>
136.4472

> <Gold.Chemscore.Internal_Hbond>
0.0000

> <Gold.Chemscore.DEClash>
0.4158

> <Gold.Chemscore.DEInternal>
0.9440

> <Gold.Chemscore.Rot>
1.6997

> <Gold.Chemscore.Internal.Correction>
   9.000000E+99

> <Gold.Chemscore.Hbonds>
donor molecule, donor type, donor heavy atom, donor atom, acceptor molecule, acceptor atom, score
      L1  H    14    45       P1  8028  0.63

> <Gold.Chemscore.Hbond.Weighted>
-3.3078

> <Gold.Chemscore.Metal.Weighted>
-0.0000

> <Gold.Chemscore.Lipo.Weighted>
-15.9643

> <Gold.Chemscore.Internal_Hbond.Weighted>
0.0000

> <Gold.Chemscore.DEClash.Weighted>
0.4158

> <Gold.Chemscore.DEInternal.Weighted>
0.9440

> <Gold.Chemscore.Rot.Weighted>
4.3512

> <Gold.Chemscore.Internal.Correction.Weighted>
   9.000000E+99

> <Gold.Protein.RotatedTorsions>
[ 6907 6896 6895 6894 ] final  103.43 input  -60.11 | X-H torsion
[ 7974 7965 7964 7962 ] final  174.47 input  175.53 | X-H torsion
[ 8008 7997 7996 7995 ] final  176.98 input   59.86 | X-H torsion
[ 10167 10162 10161 10158 ] final   62.36 input  -65.29 | X-H torsion
[ 10718 10713 10712 10709 ] final  -86.09 input   66.30 | X-H torsion
[ 10763 10752 10751 10750 ] final  118.53 input  -60.55 | X-H torsion
[ 11005 11000 10999 10996 ] final   84.46 input  -57.11 | X-H torsion

> <Gold.Protein.ActiveResidues>
 VAL166  LYS551  ARG553  GLY616  TRP617  ASP618  TYR619  PRO620  LYS621  CYS622 
 ASP623  PHE694  ASN695  SER759  ASP760  ASP761  ALA762  ILE779  LEU786  VAL792 
 PHE793  MET794  SER795  GLU796  ALA797  LYS798  CYS799  TRP800  GLU811  SER814 

> <Gold.Protein.RotatedAtoms>
  152.5295  133.9826  159.7813 H   0  0  0  0  0  0  0  0  0  0  0  0  # atno 6907 bound_to 6896
  151.0077  133.5987  159.2694 H   0  0  0  0  0  0  0  0  0  0  0  0  # atno 6908 bound_to 6896
  151.3073  135.0791  159.9313 H   0  0  0  0  0  0  0  0  0  0  0  0  # atno 6909 bound_to 6896
  144.7221  139.9802  143.6438 H   0  0  0  0  0  0  0  0  0  0  0  0  # atno 7974 bound_to 7965
  156.0706  140.1370  156.9833 H   0  0  0  0  0  0  0  0  0  0  0  0  # atno 8008 bound_to 7997
  154.4530  140.0972  156.6725 H   0  0  0  0  0  0  0  0  0  0  0  0  # atno 8009 bound_to 7997
  155.5234  140.3457  155.4413 H   0  0  0  0  0  0  0  0  0  0  0  0  # atno 8010 bound_to 7997
  140.1448  144.4519  150.6791 H   0  0  0  0  0  0  0  0  0  0  0  0  # atno 10167 bound_to 10162
  155.9992  130.4753  150.4661 H   0  0  0  0  0  0  0  0  0  0  0  0  # atno 10718 bound_to 10713
  153.5690  135.3506  155.2830 H   0  0  0  0  0  0  0  0  0  0  0  0  # atno 10763 bound_to 10752
  154.8684  135.4155  154.2746 H   0  0  0  0  0  0  0  0  0  0  0  0  # atno 10764 bound_to 10752
  153.3508  135.7055  153.6860 H   0  0  0  0  0  0  0  0  0  0  0  0  # atno 10765 bound_to 10752
  139.8999  134.8218  156.2448 H   0  0  0  0  0  0  0  0  0  0  0  0  # atno 11005 bound_to 11000
  146.0494  139.3496  143.0649 LP  0  0  0  0  0  0  0  0  0  0  0  0  # atno 17320 bound_to 7965
  145.8235  140.9667  143.0886 LP  0  0  0  0  0  0  0  0  0  0  0  0  # atno 17321 bound_to 7965
  140.6738  143.2297  151.5558 LP  0  0  0  0  0  0  0  0  0  0  0  0  # atno 17342 bound_to 10162
  139.5454  144.2535  152.1432 LP  0  0  0  0  0  0  0  0  0  0  0  0  # atno 17343 bound_to 10162
  157.2681  131.0581  151.2278 LP  0  0  0  0  0  0  0  0  0  0  0  0  # atno 17370 bound_to 10713
  157.3368  130.7013  149.6357 LP  0  0  0  0  0  0  0  0  0  0  0  0  # atno 17371 bound_to 10713
  141.0261  133.7014  156.1351 LP  0  0  0  0  0  0  0  0  0  0  0  0  # atno 17394 bound_to 11000
  140.7163  134.4406  157.5578 LP  0  0  0  0  0  0  0  0  0  0  0  0  # atno 17395 bound_to 11000

$$$$
