AV-unprocessed.smi:618|AV-procd|sdf|3083|dock6
  -GOLD-   22720 0 03D 1   1.00000     0.00000
 Structure written by MMmdl.
 40 42  0  0  0  0  0  0  0  0  1 V2000
  146.6609  142.0867  159.2437 O   0  0  0  0  0  0  0  0  0  0  0  0
  147.0884  143.1234  158.7370 C   0  0  0  0  0  0  0  0  0  0  0  0
  148.3144  143.2410  158.2083 N   0  0  0  0  0  0  0  0  0  0  0  0
  149.3026  142.1712  158.1176 C   0  0  0  0  0  0  0  0  0  0  0  0
  150.7129  142.7317  157.8368 C   0  0  1  0  0  0  0  0  0  0  0  0
  151.1310  143.8351  158.8381 C   0  0  0  0  0  0  0  0  0  0  0  0
  151.4946  143.2579  160.1184 N   0  0  0  0  0  0  0  0  0  0  0  0
  151.9961  144.1675  161.1223 C   0  0  0  0  0  0  0  0  0  0  0  0
  152.6676  143.2542  162.1623 C   0  0  0  0  0  0  0  0  0  0  0  0
  152.9369  141.9376  161.4013 C   0  0  0  0  0  0  0  0  0  0  0  0
  152.5456  142.2897  159.9649 C   0  0  1  0  0  0  0  0  0  0  0  0
  152.0940  141.1404  159.0558 C   0  0  0  0  0  0  0  0  0  0  0  0
  151.7018  141.6896  157.7932 O   0  0  0  0  0  0  0  0  0  0  0  0
  146.3989  144.2707  158.6181 N   0  0  0  0  0  0  0  0  0  0  0  0
  145.0701  144.5510  159.0366 C   0  0  0  0  0  0  0  0  0  0  0  0
  144.3044  145.6501  158.5772 C   0  0  0  0  0  0  0  0  0  0  0  0
  142.9901  145.8098  159.0565 C   0  0  0  0  0  0  0  0  0  0  0  0
  142.4869  144.8627  159.9695 C   0  0  0  0  0  0  0  0  0  0  0  0
  143.2004  143.8029  160.4050 N   0  0  0  0  0  0  0  0  0  0  0  0
  144.4597  143.6564  159.9411 C   0  0  0  0  0  0  0  0  0  0  0  0
  148.5766  144.1325  157.8142 H   0  0  0  0  0  0  0  0  0  0  0  0
  149.3045  141.6511  159.0758 H   0  0  0  0  0  0  0  0  0  0  0  0
  149.0136  141.4257  157.3753 H   0  0  0  0  0  0  0  0  0  0  0  0
  150.6911  143.1822  156.8439 H   0  0  0  0  0  0  0  0  0  0  0  0
  151.9821  144.3831  158.4311 H   0  0  0  0  0  0  0  0  0  0  0  0
  150.3266  144.5600  158.9665 H   0  0  0  0  0  0  0  0  0  0  0  0
  152.7373  144.8390  160.6857 H   0  0  0  0  0  0  0  0  0  0  0  0
  151.1981  144.7755  161.5494 H   0  0  0  0  0  0  0  0  0  0  0  0
  153.5860  143.7014  162.5438 H   0  0  0  0  0  0  0  0  0  0  0  0
  152.0048  143.0736  163.0094 H   0  0  0  0  0  0  0  0  0  0  0  0
  153.9745  141.6110  161.4768 H   0  0  0  0  0  0  0  0  0  0  0  0
  152.3007  141.1420  161.7913 H   0  0  0  0  0  0  0  0  0  0  0  0
  153.4054  142.7735  159.4965 H   0  0  0  0  0  0  0  0  0  0  0  0
  152.9066  140.4312  158.8995 H   0  0  0  0  0  0  0  0  0  0  0  0
  151.2696  140.5880  159.5064 H   0  0  0  0  0  0  0  0  0  0  0  0
  146.8566  145.0113  158.1068 H   0  0  0  0  0  0  0  0  0  0  0  0
  144.6887  146.3606  157.8621 H   0  0  0  0  0  0  0  0  0  0  0  0
  142.3795  146.6378  158.7280 H   0  0  0  0  0  0  0  0  0  0  0  0
  141.4827  144.9555  160.3555 H   0  0  0  0  0  0  0  0  0  0  0  0
  145.0000  142.7963  160.3097 H   0  0  0  0  0  0  0  0  0  0  0  0
  1  2  2  0  0  0  0
  2  3  1  0  0  0  0
  2 14  1  0  0  0  0
  3  4  1  0  0  0  0
  3 21  1  0  0  0  0
  4  5  1  0  0  0  0
  4 22  1  0  0  0  0
  4 23  1  0  0  0  0
  5 13  1  0  0  0  0
  5  6  1  0  0  0  0
  5 24  1  0  0  0  0
  6  7  1  0  0  0  0
  6 25  1  0  0  0  0
  6 26  1  0  0  0  0
  7 11  1  0  0  0  0
  7  8  1  0  0  0  0
  8  9  1  0  0  0  0
  8 27  1  0  0  0  0
  8 28  1  0  0  0  0
  9 10  1  0  0  0  0
  9 29  1  0  0  0  0
  9 30  1  0  0  0  0
 10 11  1  0  0  0  0
 10 31  1  0  0  0  0
 10 32  1  0  0  0  0
 11 12  1  0  0  0  0
 11 33  1  0  0  0  0
 12 13  1  0  0  0  0
 12 34  1  0  0  0  0
 12 35  1  0  0  0  0
 14 15  1  0  0  0  0
 14 36  1  0  0  0  0
 15 20  1  0  0  0  0
 15 16  2  0  0  0  0
 16 17  1  0  0  0  0
 16 37  1  0  0  0  0
 17 18  2  0  0  0  0
 17 38  1  0  0  0  0
 18 19  1  0  0  0  0
 18 39  1  0  0  0  0
 19 20  2  0  0  0  0
 20 40  1  0  0  0  0
M  END
> <s_m_source_file>
AV-unprocessed.smi

> <i_m_source_file_index>
618

> <i_lp_mmshare_version>
43012

> <i_f3d_flags>
0

> <s_epik_input>
W2NIXTFuW2NIXVtjSF1bY0hdYzFbTkhdQyg9TylbTkhdW0NIMl1bQ0BIXShbQ0gyXTIpT1tDSDJdW0NAQEhdKE4yMylbQ0gyXVtDSDJdW0NIMl0z

> <s_epik_cmdline>
J2VwaWtfcHl0aG9uJywgJy1waCcsICc3LjAnLCAnLXRuJywgJzgnLCAnLW1hJywgJzIwMCcsICctbWV0YWxfYmluZGluZycsICctaW1hZScsICc8aW5maWxlLm1hZT4nLCAnLW9tYWUnLCAnPG91dGZpbGUubWFlPic=

> <r_epik_Ionization_Penalty>
1.07277

> <r_epik_Ionization_Penalty_Charging>
0

> <r_epik_Ionization_Penalty_Neutral>
1.07277

> <r_epik_State_Penalty>
1.13623

> <r_epik_Charging_Adjusted_Penalty>
1.13623

> <i_epik_Tot_Q>
0

> <i_epik_Tot_abs_Q>
0

> <r_epik_Metal_State_Penalty>
1.13277

> <b_epik_Metal_Only>
0

> <s_lp_Force_Field>
OPLS_2005

> <r_lp_Energy>
52.4756

> <b_lp_Chiralities_Consistent>
1

> <s_lp_Variant>
AV-unprocessed.smi:618-10

> <Gold.Version>
5.8.1

> <Gold.Id.Protein>
6NUR|6NUR_protein|mol2

> <Gold.PLP.Fitness>
43.2228

> <Gold.PLP.PLP>
-34.7414

> <Gold.PLP.part.hbond>
-3.6607

> <Gold.PLP.part.metal>
0.0000

> <Gold.PLP.part.buried>
-6.0521

> <Gold.PLP.part.nonpolar>
-25.7432

> <Gold.PLP.part.repulsive>
0.2779

> <Gold.PLP.ligand.clash>
0.0000

> <Gold.PLP.ligand.torsion>
0.1795

> <Gold.PLP.Chemscore.Hbond>
2.9440

> <Gold.PLP.Chemscore.CHOScore>
0.0000

> <Gold.PLP.Chemscore.Metal>
0.0000

> <Gold.Chemscore.Hbonds>
donor molecule, donor type, donor heavy atom, donor atom, acceptor molecule, acceptor atom, score
      L1  H     3    21       P1  8029  0.40
      L1  H    14    36       P1  8029  1.00
      P1  H  6934  6946       L1     1  0.88

> <Gold.PLP.Chemscore.Internal.Correction>
0.0083

> <Gold.Rescore>
     Score         DG    S(hbond)    S(metal)    S(lipo)     H(rot)  DE(clash)    DE(int)     intcor
     20.74     -22.27       2.50        0.00      99.30       1.25       0.03       1.50       ----

> <Gold.Chemscore.Fitness>
20.7423

> <Gold.Chemscore.DG>
-22.2704

> <Gold.Chemscore.ZeroCoef>
-5.4800

> <Gold.Chemscore.Hbond>
2.5036

> <Gold.Chemscore.Metal>
0.0000

> <Gold.Chemscore.Lipo>
99.3026

> <Gold.Chemscore.Internal_Hbond>
0.0000

> <Gold.Chemscore.DEClash>
0.0252

> <Gold.Chemscore.DEInternal>
1.5029

> <Gold.Chemscore.Rot>
1.2461

> <Gold.Chemscore.Internal.Correction>
   9.000000E+99

> <Gold.Chemscore.Hbonds>
donor molecule, donor type, donor heavy atom, donor atom, acceptor molecule, acceptor atom, score
      L1  H     3    21       P1  8029  0.01
      L1  H    14    36       P1  8029  0.91
      P1  H  6934  6946       L1     1  0.86

> <Gold.Chemscore.Hbond.Weighted>
-8.3621

> <Gold.Chemscore.Metal.Weighted>
-0.0000

> <Gold.Chemscore.Lipo.Weighted>
-11.6184

> <Gold.Chemscore.Internal_Hbond.Weighted>
0.0000

> <Gold.Chemscore.DEClash.Weighted>
0.0252

> <Gold.Chemscore.DEInternal.Weighted>
1.5029

> <Gold.Chemscore.Rot.Weighted>
3.1901

> <Gold.Chemscore.Internal.Correction.Weighted>
   9.000000E+99

> <Gold.Protein.RotatedTorsions>
[ 6907 6896 6895 6894 ] final -169.88 input  -60.11 | X-H torsion
[ 7974 7965 7964 7962 ] final  148.49 input  175.53 | X-H torsion
[ 8008 7997 7996 7995 ] final -142.76 input   59.86 | X-H torsion
[ 10167 10162 10161 10158 ] final -164.30 input  -65.29 | X-H torsion
[ 10718 10713 10712 10709 ] final  -91.51 input   66.30 | X-H torsion
[ 10763 10752 10751 10750 ] final  -51.84 input  -60.55 | X-H torsion
[ 11005 11000 10999 10996 ] final   74.92 input  -57.11 | X-H torsion

> <Gold.Protein.ActiveResidues>
 VAL166  LYS551  ARG553  GLY616  TRP617  ASP618  TYR619  PRO620  LYS621  CYS622 
 ASP623  PHE694  ASN695  SER759  ASP760  ASP761  ALA762  ILE779  LEU786  VAL792 
 PHE793  MET794  SER795  GLU796  ALA797  LYS798  CYS799  TRP800  GLU811  SER814 

> <Gold.Protein.RotatedAtoms>
  151.4988  133.3509  159.2865 H   0  0  0  0  0  0  0  0  0  0  0  0  # atno 6907 bound_to 6896
  150.8787  134.8176  159.7219 H   0  0  0  0  0  0  0  0  0  0  0  0  # atno 6908 bound_to 6896
  152.4748  134.4882  159.9739 H   0  0  0  0  0  0  0  0  0  0  0  0  # atno 6909 bound_to 6896
  144.8510  139.6160  143.5974 H   0  0  0  0  0  0  0  0  0  0  0  0  # atno 7974 bound_to 7965
  155.4996  140.0574  157.2941 H   0  0  0  0  0  0  0  0  0  0  0  0  # atno 8008 bound_to 7997
  154.4592  140.1988  156.0242 H   0  0  0  0  0  0  0  0  0  0  0  0  # atno 8009 bound_to 7997
  156.0858  140.3240  155.7756 H   0  0  0  0  0  0  0  0  0  0  0  0  # atno 8010 bound_to 7997
  139.6260  144.0532  152.1975 H   0  0  0  0  0  0  0  0  0  0  0  0  # atno 10167 bound_to 10162
  155.9994  130.4951  150.5485 H   0  0  0  0  0  0  0  0  0  0  0  0  # atno 10718 bound_to 10713
  154.1330  135.6517  153.4926 H   0  0  0  0  0  0  0  0  0  0  0  0  # atno 10763 bound_to 10752
  153.0189  135.5297  154.6982 H   0  0  0  0  0  0  0  0  0  0  0  0  # atno 10764 bound_to 10752
  154.6222  135.2966  155.0284 H   0  0  0  0  0  0  0  0  0  0  0  0  # atno 10765 bound_to 10752
  139.9368  134.7474  156.1207 H   0  0  0  0  0  0  0  0  0  0  0  0  # atno 11005 bound_to 11000
  146.2784  139.6814  142.9246 LP  0  0  0  0  0  0  0  0  0  0  0  0  # atno 17320 bound_to 7965
  145.4500  141.0428  143.2810 LP  0  0  0  0  0  0  0  0  0  0  0  0  # atno 17321 bound_to 7965
  140.0185  144.6171  150.7586 LP  0  0  0  0  0  0  0  0  0  0  0  0  # atno 17342 bound_to 10162
  140.7411  143.2813  151.3589 LP  0  0  0  0  0  0  0  0  0  0  0  0  # atno 17343 bound_to 10162
  157.3412  131.0717  151.1787 LP  0  0  0  0  0  0  0  0  0  0  0  0  # atno 17370 bound_to 10713
  157.2635  130.6670  149.5985 LP  0  0  0  0  0  0  0  0  0  0  0  0  # atno 17371 bound_to 10713
  141.0985  133.6686  156.2700 LP  0  0  0  0  0  0  0  0  0  0  0  0  # atno 17394 bound_to 11000
  140.6055  134.5511  157.5525 LP  0  0  0  0  0  0  0  0  0  0  0  0  # atno 17395 bound_to 11000

$$$$
