AV-unprocessed.smi:3315|AV-procd|sdf|12750|dock6
  -GOLD-   2272019 83D 1   1.00000     0.00000
 Structure written by MMmdl.
 37 38  0  0  0  0  0  0  0  0  1 V2000
  146.0340  142.5838  154.5172 C   0  0  0  0  0  0  0  0  0  0  0  0
  146.5760  141.3312  154.9179 O   0  0  0  0  0  0  0  0  0  0  0  0
  147.6115  140.7691  154.0996 C   0  0  2  0  0  0  0  0  0  0  0  0
  148.8009  141.7324  154.0006 C   0  0  0  0  0  0  0  0  0  0  0  0
  147.0094  140.1739  152.8115 C   0  0  0  0  0  0  0  0  0  0  0  0
  146.6899  138.9242  153.6295 C   0  0  1  0  0  0  0  0  0  0  0  0
  146.8723  137.6904  152.8723 N   0  0  0  0  0  0  0  0  0  0  0  0
  145.8755  136.8661  152.5225 C   0  0  0  0  0  0  0  0  0  0  0  0
  144.6966  137.0692  152.8123 O   0  0  0  0  0  0  0  0  0  0  0  0
  146.3374  135.8094  151.8328 N   0  0  0  0  0  0  0  0  0  0  0  0
  145.6026  134.7315  151.2749 C   0  0  0  0  0  0  0  0  0  0  0  0
  144.1832  134.6324  151.1882 C   0  0  0  0  0  0  0  0  0  0  0  0
  144.0021  133.4272  150.5722 C   0  0  0  0  0  0  0  0  0  0  0  0
  145.1982  132.8398  150.3042 O   0  0  0  0  0  0  0  0  0  0  0  0
  146.2191  133.6839  150.7572 N   0  0  0  0  0  0  0  0  0  0  0  0
  147.8663  139.2985  154.5674 C   0  0  0  0  0  0  0  0  0  0  0  0
  149.2456  138.7081  154.2171 C   0  0  0  0  0  0  0  0  0  0  0  0
  147.6558  139.0085  156.0575 C   0  0  0  0  0  0  0  0  0  0  0  0
  145.1589  142.8036  155.1283 H   0  0  0  0  0  0  0  0  0  0  0  0
  145.7172  142.5864  153.4749 H   0  0  0  0  0  0  0  0  0  0  0  0
  146.7443  143.3960  154.6703 H   0  0  0  0  0  0  0  0  0  0  0  0
  149.6397  141.2869  153.4672 H   0  0  0  0  0  0  0  0  0  0  0  0
  149.1583  142.0214  154.9891 H   0  0  0  0  0  0  0  0  0  0  0  0
  148.5464  142.6418  153.4569 H   0  0  0  0  0  0  0  0  0  0  0  0
  146.1328  140.6813  152.4106 H   0  0  0  0  0  0  0  0  0  0  0  0
  147.7552  140.0083  152.0321 H   0  0  0  0  0  0  0  0  0  0  0  0
  145.7153  139.0027  154.1171 H   0  0  0  0  0  0  0  0  0  0  0  0
  147.8142  137.4536  152.5971 H   0  0  0  0  0  0  0  0  0  0  0  0
  147.3354  135.7712  151.6870 H   0  0  0  0  0  0  0  0  0  0  0  0
  143.4152  135.3174  151.5133 H   0  0  0  0  0  0  0  0  0  0  0  0
  143.1252  132.8749  150.2683 H   0  0  0  0  0  0  0  0  0  0  0  0
  149.2875  137.6364  154.4152 H   0  0  0  0  0  0  0  0  0  0  0  0
  150.0396  139.1738  154.8020 H   0  0  0  0  0  0  0  0  0  0  0  0
  149.4986  138.8459  153.1659 H   0  0  0  0  0  0  0  0  0  0  0  0
  147.7974  137.9515  156.2857 H   0  0  0  0  0  0  0  0  0  0  0  0
  146.6481  139.2645  156.3845 H   0  0  0  0  0  0  0  0  0  0  0  0
  148.3518  139.5765  156.6753 H   0  0  0  0  0  0  0  0  0  0  0  0
  1  2  1  0  0  0  0
  1 19  1  0  0  0  0
  1 20  1  0  0  0  0
  1 21  1  0  0  0  0
  2  3  1  0  0  0  0
  3 16  1  0  0  0  0
  3  4  1  0  0  0  0
  3  5  1  0  0  0  0
  4 22  1  0  0  0  0
  4 23  1  0  0  0  0
  4 24  1  0  0  0  0
  5  6  1  0  0  0  0
  5 25  1  0  0  0  0
  5 26  1  0  0  0  0
  6  7  1  0  0  0  0
  6 16  1  0  0  0  0
  6 27  1  0  0  0  0
  7  8  1  0  0  0  0
  7 28  1  0  0  0  0
  8  9  2  0  0  0  0
  8 10  1  0  0  0  0
 10 11  1  0  0  0  0
 10 29  1  0  0  0  0
 11 15  2  0  0  0  0
 11 12  1  0  0  0  0
 12 13  2  0  0  0  0
 12 30  1  0  0  0  0
 13 14  1  0  0  0  0
 13 31  1  0  0  0  0
 14 15  1  0  0  0  0
 16 17  1  0  0  0  0
 16 18  1  0  0  0  0
 17 32  1  0  0  0  0
 17 33  1  0  0  0  0
 17 34  1  0  0  0  0
 18 35  1  0  0  0  0
 18 36  1  0  0  0  0
 18 37  1  0  0  0  0
M  END
> <s_m_source_file>
AV-unprocessed.smi

> <i_m_source_file_index>
3315

> <i_lp_mmshare_version>
43012

> <i_f3d_flags>
0

> <s_epik_input>
W0NIM11PW0NAQF0xKFtDSDNdKVtDSDJdW0NASF0oQzEoW0NIM10pW0NIM10pW05IXUMoPU8pW05IXWMyW2NIXVtjSF1vbjI=

> <s_epik_cmdline>
J2VwaWtfcHl0aG9uJywgJy1waCcsICc3LjAnLCAnLXRuJywgJzgnLCAnLW1hJywgJzIwMCcsICctbWV0YWxfYmluZGluZycsICctaW1hZScsICc8aW5maWxlLm1hZT4nLCAnLW9tYWUnLCAnPG91dGZpbGUubWFlPic=

> <r_lp_tautomer_probability>
1

> <r_epik_Ionization_Penalty>
2.28875e-05

> <r_epik_Ionization_Penalty_Charging>
0

> <r_epik_Ionization_Penalty_Neutral>
2.28875e-05

> <r_epik_State_Penalty>
-0

> <r_epik_Charging_Adjusted_Penalty>
0

> <i_epik_Tot_Q>
0

> <i_epik_Tot_abs_Q>
0

> <r_epik_Metal_State_Penalty>
-0

> <b_epik_Metal_Only>
0

> <s_lp_Force_Field>
OPLS_2005

> <r_lp_Energy>
24.1983

> <b_lp_Chiralities_Consistent>
1

> <s_lp_Variant>
AV-unprocessed.smi:3315-2

> <Gold.Version>
5.8.1

> <Gold.Id.Protein>
6NUR|6NUR_protein|mol2

> <Gold.PLP.Fitness>
32.4555

> <Gold.PLP.PLP>
-24.4804

> <Gold.PLP.part.hbond>
-2.0000

> <Gold.PLP.part.metal>
0.0000

> <Gold.PLP.part.buried>
-1.4618

> <Gold.PLP.part.nonpolar>
-22.8689

> <Gold.PLP.part.repulsive>
1.0922

> <Gold.PLP.ligand.clash>
0.0000

> <Gold.PLP.ligand.torsion>
0.3102

> <Gold.PLP.Chemscore.Hbond>
1.9760

> <Gold.PLP.Chemscore.CHOScore>
0.7637

> <Gold.PLP.Chemscore.Metal>
0.0000

> <Gold.Chemscore.Hbonds>
donor molecule, donor type, donor heavy atom, donor atom, acceptor molecule, acceptor atom, score
      L1  H     7    28       P1  7948  0.98
      L1  H    10    29       P1  7948  1.00
      L1  C    13    31       P1 10186  0.37

> <Gold.PLP.Chemscore.Internal.Correction>
0.3763

> <Gold.Rescore>
     Score         DG    S(hbond)    S(metal)    S(lipo)     H(rot)  DE(clash)    DE(int)     intcor
     13.37     -14.88       1.96        0.00      52.96       1.30       0.11       1.40       ----

> <Gold.Chemscore.Fitness>
13.3710

> <Gold.Chemscore.DG>
-14.8754

> <Gold.Chemscore.ZeroCoef>
-5.4800

> <Gold.Chemscore.Hbond>
1.9571

> <Gold.Chemscore.Metal>
0.0000

> <Gold.Chemscore.Lipo>
52.9610

> <Gold.Chemscore.Internal_Hbond>
0.0000

> <Gold.Chemscore.DEClash>
0.1053

> <Gold.Chemscore.DEInternal>
1.3990

> <Gold.Chemscore.Rot>
1.3038

> <Gold.Chemscore.Internal.Correction>
   9.000000E+99

> <Gold.Chemscore.Hbonds>
donor molecule, donor type, donor heavy atom, donor atom, acceptor molecule, acceptor atom, score
      L1  H     7    28       P1  7948  0.93
      L1  H    10    29       P1  7948  0.99

> <Gold.Chemscore.Hbond.Weighted>
-6.5367

> <Gold.Chemscore.Metal.Weighted>
-0.0000

> <Gold.Chemscore.Lipo.Weighted>
-6.1964

> <Gold.Chemscore.Internal_Hbond.Weighted>
0.0000

> <Gold.Chemscore.DEClash.Weighted>
0.1053

> <Gold.Chemscore.DEInternal.Weighted>
1.3990

> <Gold.Chemscore.Rot.Weighted>
3.3377

> <Gold.Chemscore.Internal.Correction.Weighted>
   9.000000E+99

> <Gold.Protein.RotatedTorsions>
[ 6907 6896 6895 6894 ] final   45.15 input  -60.11 | X-H torsion
[ 7974 7965 7964 7962 ] final -163.01 input  175.53 | X-H torsion
[ 8008 7997 7996 7995 ] final  -49.70 input   59.86 | X-H torsion
[ 10167 10162 10161 10158 ] final  145.40 input  -65.29 | X-H torsion
[ 10718 10713 10712 10709 ] final -157.15 input   66.30 | X-H torsion
[ 10763 10752 10751 10750 ] final -165.84 input  -60.55 | X-H torsion
[ 11005 11000 10999 10996 ] final   30.04 input  -57.11 | X-H torsion

> <Gold.Protein.ActiveResidues>
 VAL166  LYS551  ARG553  GLY616  TRP617  ASP618  TYR619  PRO620  LYS621  CYS622 
 ASP623  PHE694  ASN695  SER759  ASP760  ASP761  ALA762  ILE779  LEU786  VAL792 
 PHE793  MET794  SER795  GLU796  ALA797  LYS798  CYS799  TRP800  GLU811  SER814 

> <Gold.Protein.RotatedAtoms>
  152.2411  134.8227  160.0459 H   0  0  0  0  0  0  0  0  0  0  0  0  # atno 6907 bound_to 6896
  151.8942  133.3518  159.3816 H   0  0  0  0  0  0  0  0  0  0  0  0  # atno 6908 bound_to 6896
  150.7054  134.4820  159.5519 H   0  0  0  0  0  0  0  0  0  0  0  0  # atno 6909 bound_to 6896
  144.7339  140.3170  143.6178 H   0  0  0  0  0  0  0  0  0  0  0  0  # atno 7974 bound_to 7965
  154.4048  140.1290  156.4545 H   0  0  0  0  0  0  0  0  0  0  0  0  # atno 8008 bound_to 7997
  155.7334  140.3491  155.5050 H   0  0  0  0  0  0  0  0  0  0  0  0  # atno 8009 bound_to 7997
  155.9106  140.1035  157.1272 H   0  0  0  0  0  0  0  0  0  0  0  0  # atno 8010 bound_to 7997
  139.4927  144.5904  151.6692 H   0  0  0  0  0  0  0  0  0  0  0  0  # atno 10167 bound_to 10162
  156.5363  130.8543  151.2733 H   0  0  0  0  0  0  0  0  0  0  0  0  # atno 10718 bound_to 10713
  154.6893  135.2968  154.9503 H   0  0  0  0  0  0  0  0  0  0  0  0  # atno 10763 bound_to 10752
  154.0472  135.6649  153.4800 H   0  0  0  0  0  0  0  0  0  0  0  0  # atno 10764 bound_to 10752
  153.0600  135.5121  154.7976 H   0  0  0  0  0  0  0  0  0  0  0  0  # atno 10765 bound_to 10752
  140.2985  134.2783  155.7759 H   0  0  0  0  0  0  0  0  0  0  0  0  # atno 11005 bound_to 11000
  145.7608  139.1824  143.2268 LP  0  0  0  0  0  0  0  0  0  0  0  0  # atno 17320 bound_to 7965
  146.0988  140.7568  142.9559 LP  0  0  0  0  0  0  0  0  0  0  0  0  # atno 17321 bound_to 7965
  140.5529  144.0395  150.6135 LP  0  0  0  0  0  0  0  0  0  0  0  0  # atno 17342 bound_to 10162
  140.3455  143.2994  152.0543 LP  0  0  0  0  0  0  0  0  0  0  0  0  # atno 17343 bound_to 10162
  157.7413  130.9867  150.2436 LP  0  0  0  0  0  0  0  0  0  0  0  0  # atno 17370 bound_to 10713
  156.3013  130.3759  149.7748 LP  0  0  0  0  0  0  0  0  0  0  0  0  # atno 17371 bound_to 10713
  141.2132  133.7631  156.9732 LP  0  0  0  0  0  0  0  0  0  0  0  0  # atno 17394 bound_to 11000
  140.1130  134.9465  157.2093 LP  0  0  0  0  0  0  0  0  0  0  0  0  # atno 17395 bound_to 11000

$$$$
