AV-unprocessed.smi:3274|AV-procd|sdf|12527|dock3
  -GOLD-   2272018443D 1   1.00000     0.00000
 Structure written by MMmdl.
 43 44  0  0  0  0  0  0  0  0  2 V2000
  151.0574  144.6892  158.2143 C   0  0  0  0  0  0  0  0  0  0  0  0
  151.6942  143.5165  158.9414 C   0  0  0  0  0  0  0  0  0  0  0  0
  152.3435  143.7214  160.1035 C   0  0  0  0  0  0  0  0  0  0  0  0
  153.0713  142.6439  160.8743 C   0  0  0  0  0  0  0  0  0  0  0  0
  153.4116  141.4557  159.9713 C   0  0  0  0  0  0  0  0  0  0  0  0
  152.1837  140.9866  159.1741 C   0  0  2  0  0  0  0  0  0  0  0  0
  152.5521  139.7345  158.3535 C   0  0  0  0  0  0  0  0  0  0  0  0
  151.5814  142.1229  158.2907 C   0  0  1  0  0  0  0  0  0  0  0  0
  150.1271  141.7677  157.8858 C   0  0  0  0  0  0  0  0  0  0  0  0
  149.8449  142.0417  156.4588 N   0  3  0  0  0  0  0  0  0  0  0  0
  148.8035  141.1911  155.8364 C   0  0  1  0  0  0  0  0  0  0  0  0
  147.4829  141.9715  155.7939 C   0  0  0  0  0  0  0  0  0  0  0  0
  149.2072  140.7392  154.4144 C   0  0  0  0  0  0  0  0  0  0  0  0
  150.2695  139.7503  154.3978 N   0  0  0  0  0  0  0  0  0  0  0  0
  150.2539  138.4661  154.0363 C   0  0  0  0  0  0  0  0  0  0  0  0
  151.4283  137.8634  154.1539 N   0  0  0  0  0  0  0  0  0  0  0  0
  152.1707  138.9008  154.6431 C   0  0  0  0  0  0  0  0  0  0  0  0
  151.5224  140.0535  154.8116 N   0  0  0  0  0  0  0  0  0  0  0  0
  151.3789  144.7131  157.1728 H   0  0  0  0  0  0  0  0  0  0  0  0
  151.3410  145.6392  158.6690 H   0  0  0  0  0  0  0  0  0  0  0  0
  149.9701  144.6250  158.2495 H   0  0  0  0  0  0  0  0  0  0  0  0
  152.3777  144.7113  160.5353 H   0  0  0  0  0  0  0  0  0  0  0  0
  153.9867  143.0608  161.2953 H   0  0  0  0  0  0  0  0  0  0  0  0
  152.4470  142.3297  161.7112 H   0  0  0  0  0  0  0  0  0  0  0  0
  154.2082  141.7394  159.2816 H   0  0  0  0  0  0  0  0  0  0  0  0
  153.8066  140.6415  160.5803 H   0  0  0  0  0  0  0  0  0  0  0  0
  151.4290  140.6916  159.9052 H   0  0  0  0  0  0  0  0  0  0  0  0
  153.2908  139.9680  157.5859 H   0  0  0  0  0  0  0  0  0  0  0  0
  151.6903  139.2903  157.8579 H   0  0  0  0  0  0  0  0  0  0  0  0
  152.9792  138.9618  158.9935 H   0  0  0  0  0  0  0  0  0  0  0  0
  152.1850  142.1774  157.3833 H   0  0  0  0  0  0  0  0  0  0  0  0
  149.9267  140.7165  158.0704 H   0  0  0  0  0  0  0  0  0  0  0  0
  149.4261  142.3219  158.5114 H   0  0  0  0  0  0  0  0  0  0  0  0
  149.5230  142.9978  156.4073 H   0  0  0  0  0  0  0  0  0  0  0  0
  148.6345  140.3148  156.4645 H   0  0  0  0  0  0  0  0  0  0  0  0
  146.6795  141.3630  155.3772 H   0  0  0  0  0  0  0  0  0  0  0  0
  147.5704  142.8702  155.1819 H   0  0  0  0  0  0  0  0  0  0  0  0
  147.1747  142.2779  156.7941 H   0  0  0  0  0  0  0  0  0  0  0  0
  148.3472  140.3041  153.9034 H   0  0  0  0  0  0  0  0  0  0  0  0
  149.5196  141.5967  153.8166 H   0  0  0  0  0  0  0  0  0  0  0  0
  149.3698  137.9638  153.6719 H   0  0  0  0  0  0  0  0  0  0  0  0
  153.2199  138.8039  154.8808 H   0  0  0  0  0  0  0  0  0  0  0  0
  150.6978  141.9657  155.9232 H   0  0  0  0  0  0  0  0  0  0  0  0
  1  2  1  0  0  0  0
  1 19  1  0  0  0  0
  1 20  1  0  0  0  0
  1 21  1  0  0  0  0
  2  8  1  0  0  0  0
  2  3  2  0  0  0  0
  3  4  1  0  0  0  0
  3 22  1  0  0  0  0
  4  5  1  0  0  0  0
  4 23  1  0  0  0  0
  4 24  1  0  0  0  0
  5  6  1  0  0  0  0
  5 25  1  0  0  0  0
  5 26  1  0  0  0  0
  6  7  1  0  0  0  0
  6  8  1  0  0  0  0
  6 27  1  0  0  0  0
  7 28  1  0  0  0  0
  7 29  1  0  0  0  0
  7 30  1  0  0  0  0
  8  9  1  0  0  0  0
  8 31  1  0  0  0  0
  9 10  1  0  0  0  0
  9 32  1  0  0  0  0
  9 33  1  0  0  0  0
 10 11  1  0  0  0  0
 10 34  1  0  0  0  0
 10 43  1  0  0  0  0
 11 12  1  0  0  0  0
 11 13  1  0  0  0  0
 11 35  1  0  0  0  0
 12 36  1  0  0  0  0
 12 37  1  0  0  0  0
 12 38  1  0  0  0  0
 13 14  1  0  0  0  0
 13 39  1  0  0  0  0
 13 40  1  0  0  0  0
 14 18  1  0  0  0  0
 14 15  1  0  0  0  0
 15 16  2  0  0  0  0
 15 41  1  0  0  0  0
 16 17  1  0  0  0  0
 17 18  2  0  0  0  0
 17 42  1  0  0  0  0
M  CHG  1  10   1
M  END
> <s_m_source_file>
AV-unprocessed.smi

> <i_m_source_file_index>
3274

> <i_lp_mmshare_version>
43012

> <i_f3d_flags>
0

> <s_epik_input>
W0NIM11DMT1bQ0hdW0NIMl1bQ0gyXVtDQEBIXShbQ0gzXSlbQ0BIXTFbQ0gyXVtOSF1bQ0BIXShbQ0gzXSlbQ0gyXW4yW2NIXW5bY0hdbjI=

> <s_epik_cmdline>
J2VwaWtfcHl0aG9uJywgJy1waCcsICc3LjAnLCAnLXRuJywgJzgnLCAnLW1hJywgJzIwMCcsICctbWV0YWxfYmluZGluZycsICctaW1hZScsICc8aW5maWxlLm1hZT4nLCAnLW9tYWUnLCAnPG91dGZpbGUubWFlPic=

> <r_lp_tautomer_probability>
1

> <r_epik_Ionization_Penalty>
0.0017527

> <r_epik_Ionization_Penalty_Charging>
0.00175191

> <r_epik_Ionization_Penalty_Neutral>
7.94565e-07

> <r_epik_State_Penalty>
0.00118605

> <r_epik_Charging_Adjusted_Penalty>
0.00293796

> <i_epik_Tot_Q>
1

> <i_epik_Tot_abs_Q>
1

> <r_epik_Metal_State_Penalty>
-0

> <b_epik_Metal_Only>
0

> <s_lp_Force_Field>
OPLS_2005

> <r_lp_Energy>
18.4066

> <b_lp_Chiralities_Consistent>
1

> <s_lp_Variant>
AV-unprocessed.smi:3274-6

> <Gold.Version>
5.8.1

> <Gold.Id.Protein>
6NUR|6NUR_protein|mol2

> <Gold.PLP.Fitness>
48.6431

> <Gold.PLP.PLP>
-40.8290

> <Gold.PLP.part.hbond>
-2.0000

> <Gold.PLP.part.metal>
0.0000

> <Gold.PLP.part.buried>
-3.8250

> <Gold.PLP.part.nonpolar>
-35.7510

> <Gold.PLP.part.repulsive>
0.3180

> <Gold.PLP.ligand.clash>
0.0000

> <Gold.PLP.ligand.torsion>
1.4400

> <Gold.PLP.Chemscore.Hbond>
2.5500

> <Gold.PLP.Chemscore.CHOScore>
0.9671

> <Gold.PLP.Chemscore.Metal>
0.0000

> <Gold.Chemscore.Hbonds>
donor molecule, donor type, donor heavy atom, donor atom, acceptor molecule, acceptor atom, score
      L1  H    10    34       P1  8028  2.00
      P1  H  7989  7998       L1    18  0.35
      L1  C    15    41       P1  7948  1.00

> <Gold.PLP.Chemscore.Internal.Correction>
0.1430

> <Gold.Rescore>
     Score         DG    S(hbond)    S(metal)    S(lipo)     H(rot)  DE(clash)    DE(int)     intcor
     14.78     -16.38       1.61        0.00      98.89       2.36       0.17       1.43       ----

> <Gold.Chemscore.Fitness>
14.7786

> <Gold.Chemscore.DG>
-16.3826

> <Gold.Chemscore.ZeroCoef>
-5.4800

> <Gold.Chemscore.Hbond>
1.6100

> <Gold.Chemscore.Metal>
0.0000

> <Gold.Chemscore.Lipo>
98.8948

> <Gold.Chemscore.Internal_Hbond>
0.0000

> <Gold.Chemscore.DEClash>
0.1739

> <Gold.Chemscore.DEInternal>
1.4301

> <Gold.Chemscore.Rot>
2.3615

> <Gold.Chemscore.Internal.Correction>
   9.000000E+99

> <Gold.Chemscore.Hbonds>
donor molecule, donor type, donor heavy atom, donor atom, acceptor molecule, acceptor atom, score
      L1  H    10    34       P1  8028  0.97

> <Gold.Chemscore.Hbond.Weighted>
-5.3773

> <Gold.Chemscore.Metal.Weighted>
-0.0000

> <Gold.Chemscore.Lipo.Weighted>
-11.5707

> <Gold.Chemscore.Internal_Hbond.Weighted>
0.0000

> <Gold.Chemscore.DEClash.Weighted>
0.1739

> <Gold.Chemscore.DEInternal.Weighted>
1.4301

> <Gold.Chemscore.Rot.Weighted>
6.0454

> <Gold.Chemscore.Internal.Correction.Weighted>
   9.000000E+99

> <Gold.Protein.RotatedTorsions>
[ 6907 6896 6895 6894 ] final  152.90 input  -60.11 | X-H torsion
[ 7974 7965 7964 7962 ] final   56.93 input  175.53 | X-H torsion
[ 8008 7997 7996 7995 ] final  -80.35 input   59.86 | X-H torsion
[ 10167 10162 10161 10158 ] final -166.47 input  -65.29 | X-H torsion
[ 10718 10713 10712 10709 ] final  -31.04 input   66.30 | X-H torsion
[ 10763 10752 10751 10750 ] final  -76.07 input  -60.55 | X-H torsion
[ 11005 11000 10999 10996 ] final   21.41 input  -57.11 | X-H torsion

> <Gold.Protein.ActiveResidues>
 VAL166  LYS551  ARG553  GLY616  TRP617  ASP618  TYR619  PRO620  LYS621  CYS622 
 ASP623  PHE694  ASN695  SER759  ASP760  ASP761  ALA762  ILE779  LEU786  VAL792 
 PHE793  MET794  SER795  GLU796  ALA797  LYS798  CYS799  TRP800  GLU811  SER814 

> <Gold.Protein.RotatedAtoms>
  152.0802  133.4149  159.4497 H   0  0  0  0  0  0  0  0  0  0  0  0  # atno 6907 bound_to 6896
  150.6862  134.2991  159.4708 H   0  0  0  0  0  0  0  0  0  0  0  0  # atno 6908 bound_to 6896
  152.0832  134.9457  160.0624 H   0  0  0  0  0  0  0  0  0  0  0  0  # atno 6909 bound_to 6896
  145.9345  139.3835  143.0401 H   0  0  0  0  0  0  0  0  0  0  0  0  # atno 7974 bound_to 7965
  154.5874  140.0664  156.9191 H   0  0  0  0  0  0  0  0  0  0  0  0  # atno 8008 bound_to 7997
  155.2355  140.3340  155.4280 H   0  0  0  0  0  0  0  0  0  0  0  0  # atno 8009 bound_to 7997
  156.2232  140.1808  156.7411 H   0  0  0  0  0  0  0  0  0  0  0  0  # atno 8010 bound_to 7997
  139.6113  144.0810  152.1844 H   0  0  0  0  0  0  0  0  0  0  0  0  # atno 10167 bound_to 10162
  156.3923  130.4375  149.7385 H   0  0  0  0  0  0  0  0  0  0  0  0  # atno 10718 bound_to 10713
  154.4950  135.5810  153.6487 H   0  0  0  0  0  0  0  0  0  0  0  0  # atno 10763 bound_to 10752
  152.9868  135.6122  154.3076 H   0  0  0  0  0  0  0  0  0  0  0  0  # atno 10764 bound_to 10752
  154.2979  135.2847  155.2604 H   0  0  0  0  0  0  0  0  0  0  0  0  # atno 10765 bound_to 10752
  140.3919  134.1810  155.7662 H   0  0  0  0  0  0  0  0  0  0  0  0  # atno 11005 bound_to 11000
  145.8382  140.9594  143.0813 LP  0  0  0  0  0  0  0  0  0  0  0  0  # atno 17320 bound_to 7965
  144.6769  140.0250  143.7483 LP  0  0  0  0  0  0  0  0  0  0  0  0  # atno 17321 bound_to 7965
  140.0429  144.5993  150.7397 LP  0  0  0  0  0  0  0  0  0  0  0  0  # atno 17342 bound_to 10162
  140.7321  143.2701  151.3915 LP  0  0  0  0  0  0  0  0  0  0  0  0  # atno 17343 bound_to 10162
  156.4434  130.7872  151.2893 LP  0  0  0  0  0  0  0  0  0  0  0  0  # atno 17370 bound_to 10713
  157.7499  131.0118  150.3359 LP  0  0  0  0  0  0  0  0  0  0  0  0  # atno 17371 bound_to 10713
  141.1888  133.8253  157.0982 LP  0  0  0  0  0  0  0  0  0  0  0  0  # atno 17394 bound_to 11000
  140.0400  134.9859  157.0944 LP  0  0  0  0  0  0  0  0  0  0  0  0  # atno 17395 bound_to 11000

$$$$
