AV-unprocessed.smi:1483|AV-procd|sdf|5990|dock6
  -GOLD-   22720 6 83D 1   1.00000     0.00000
 Structure written by MMmdl.
 49 50  0  0  0  0  0  0  0  0  2 V2000
  151.8613  145.0420  159.0145 C   0  0  0  0  0  0  0  0  0  0  0  0
  152.0226  143.5384  158.9357 C   0  0  0  0  0  0  0  0  0  0  0  0
  153.0778  142.8890  159.6101 C   0  0  0  0  0  0  0  0  0  0  0  0
  153.1698  141.4866  159.5205 C   0  0  0  0  0  0  0  0  0  0  0  0
  152.2047  140.7889  158.7647 C   0  0  0  0  0  0  0  0  0  0  0  0
  152.2103  139.2686  158.7046 C   0  0  0  0  0  0  0  0  0  0  0  0
  152.2651  138.8160  157.2433 C   0  0  0  0  0  0  0  0  0  0  0  0
  153.0950  139.2951  156.4719 O   0  0  0  0  0  0  0  0  0  0  0  0
  151.4022  137.8475  156.9002 N   0  0  0  0  0  0  0  0  0  0  0  0
  151.4354  137.0380  155.6852 C   0  0  2  0  0  0  0  0  0  0  0  0
  151.2748  137.9519  154.4597 C   0  0  0  0  0  0  0  0  0  0  0  0
  149.8818  138.6138  154.4222 C   0  0  0  0  0  0  0  0  0  0  0  0
  148.7842  137.6105  154.4643 N   0  3  2  0  0  0  0  0  0  0  0  0
  147.4484  138.2583  154.3828 C   0  0  0  0  0  0  0  0  0  0  0  0
  147.2613  139.1273  153.1203 C   0  0  0  0  0  0  0  0  0  0  0  0
  146.7354  140.5306  153.4645 C   0  0  0  0  0  0  0  0  0  0  0  0
  146.3227  138.4314  152.1236 C   0  0  0  0  0  0  0  0  0  0  0  0
  148.9104  136.6854  155.6239 C   0  0  0  0  0  0  0  0  0  0  0  0
  150.2914  136.0044  155.6612 C   0  0  0  0  0  0  0  0  0  0  0  0
  151.1996  141.5369  158.1135 C   0  0  0  0  0  0  0  0  0  0  0  0
  151.0978  142.8800  158.2028 N   0  0  0  0  0  0  0  0  0  0  0  0
  152.7903  145.5198  159.3270 H   0  0  0  0  0  0  0  0  0  0  0  0
  151.0845  145.2987  159.7350 H   0  0  0  0  0  0  0  0  0  0  0  0
  151.5804  145.4525  158.0439 H   0  0  0  0  0  0  0  0  0  0  0  0
  153.7966  143.4494  160.1901 H   0  0  0  0  0  0  0  0  0  0  0  0
  153.9542  140.9559  160.0403 H   0  0  0  0  0  0  0  0  0  0  0  0
  153.0696  138.8710  159.2458 H   0  0  0  0  0  0  0  0  0  0  0  0
  151.3146  138.8751  159.1872 H   0  0  0  0  0  0  0  0  0  0  0  0
  150.7402  137.5597  157.6060 H   0  0  0  0  0  0  0  0  0  0  0  0
  152.3980  136.5266  155.6337 H   0  0  0  0  0  0  0  0  0  0  0  0
  152.0505  138.7188  154.4574 H   0  0  0  0  0  0  0  0  0  0  0  0
  151.4227  137.3687  153.5496 H   0  0  0  0  0  0  0  0  0  0  0  0
  149.7683  139.3083  155.2563 H   0  0  0  0  0  0  0  0  0  0  0  0
  149.7961  139.2063  153.5106 H   0  0  0  0  0  0  0  0  0  0  0  0
  146.6765  137.4884  154.4364 H   0  0  0  0  0  0  0  0  0  0  0  0
  147.2989  138.8941  155.2568 H   0  0  0  0  0  0  0  0  0  0  0  0
  148.2191  139.2424  152.6144 H   0  0  0  0  0  0  0  0  0  0  0  0
  145.7708  140.4799  153.9701 H   0  0  0  0  0  0  0  0  0  0  0  0
  146.6057  141.1321  152.5641 H   0  0  0  0  0  0  0  0  0  0  0  0
  147.4252  141.0678  154.1155 H   0  0  0  0  0  0  0  0  0  0  0  0
  145.3301  138.2814  152.5494 H   0  0  0  0  0  0  0  0  0  0  0  0
  146.7112  137.4548  151.8337 H   0  0  0  0  0  0  0  0  0  0  0  0
  146.2081  139.0202  151.2130 H   0  0  0  0  0  0  0  0  0  0  0  0
  148.7341  137.2348  156.5496 H   0  0  0  0  0  0  0  0  0  0  0  0
  148.1460  135.9114  155.5739 H   0  0  0  0  0  0  0  0  0  0  0  0
  150.4009  135.3650  154.7842 H   0  0  0  0  0  0  0  0  0  0  0  0
  150.3528  135.3386  156.5226 H   0  0  0  0  0  0  0  0  0  0  0  0
  150.4341  141.0406  157.5351 H   0  0  0  0  0  0  0  0  0  0  0  0
  148.8854  137.0507  153.6296 H   0  0  0  0  0  0  0  0  0  0  0  0
  1  2  1  0  0  0  0
  1 22  1  0  0  0  0
  1 23  1  0  0  0  0
  1 24  1  0  0  0  0
  2 21  1  0  0  0  0
  2  3  2  0  0  0  0
  3  4  1  0  0  0  0
  3 25  1  0  0  0  0
  4  5  2  0  0  0  0
  4 26  1  0  0  0  0
  5  6  1  0  0  0  0
  5 20  1  0  0  0  0
  6  7  1  0  0  0  0
  6 27  1  0  0  0  0
  6 28  1  0  0  0  0
  7  8  2  0  0  0  0
  7  9  1  0  0  0  0
  9 10  1  0  0  0  0
  9 29  1  0  0  0  0
 10 19  1  0  0  0  0
 10 11  1  0  0  0  0
 10 30  1  0  0  0  0
 11 12  1  0  0  0  0
 11 31  1  0  0  0  0
 11 32  1  0  0  0  0
 12 13  1  0  0  0  0
 12 33  1  0  0  0  0
 12 34  1  0  0  0  0
 13 14  1  0  0  0  0
 13 18  1  0  0  0  0
 13 49  1  0  0  0  0
 14 15  1  0  0  0  0
 14 35  1  0  0  0  0
 14 36  1  0  0  0  0
 15 16  1  0  0  0  0
 15 17  1  0  0  0  0
 15 37  1  0  0  0  0
 16 38  1  0  0  0  0
 16 39  1  0  0  0  0
 16 40  1  0  0  0  0
 17 41  1  0  0  0  0
 17 42  1  0  0  0  0
 17 43  1  0  0  0  0
 18 19  1  0  0  0  0
 18 44  1  0  0  0  0
 18 45  1  0  0  0  0
 19 46  1  0  0  0  0
 19 47  1  0  0  0  0
 20 21  2  0  0  0  0
 20 48  1  0  0  0  0
M  CHG  1  13   1
M  END
> <s_m_source_file>
AV-unprocessed.smi

> <i_m_source_file_index>
1483

> <i_lp_mmshare_version>
43012

> <i_f3d_flags>
0

> <s_epik_input>
W0NIM11jMVtjSF1bY0hdYyhbY0hdbjEpW0NIMl1DKD1PKVtOSF1bQ0hdMltDSDJdW0NIMl1OKFtDSDJdW0NIMl0yKVtDSDJdW0NIXShbQ0gzXSlbQ0gzXQ==

> <s_epik_cmdline>
J2VwaWtfcHl0aG9uJywgJy1waCcsICc3LjAnLCAnLXRuJywgJzgnLCAnLW1hJywgJzIwMCcsICctbWV0YWxfYmluZGluZycsICctaW1hZScsICc8aW5maWxlLm1hZT4nLCAnLW9tYWUnLCAnPG91dGZpbGUubWFlPic=

> <r_epik_Ionization_Penalty>
0.0186701

> <r_epik_Ionization_Penalty_Charging>
0.00405837

> <r_epik_Ionization_Penalty_Neutral>
0.0146117

> <r_epik_State_Penalty>
0.0114383

> <r_epik_Charging_Adjusted_Penalty>
0.0154967

> <i_epik_Tot_Q>
1

> <i_epik_Tot_abs_Q>
1

> <r_epik_Metal_State_Penalty>
0.0111573

> <b_epik_Metal_Only>
0

> <s_lp_Force_Field>
OPLS_2005

> <r_lp_Energy>
15.6664

> <b_lp_Chiralities_Consistent>
1

> <s_lp_Variant>
AV-unprocessed.smi:1483-2

> <Gold.Version>
5.8.1

> <Gold.Id.Protein>
6NUR|6NUR_protein|mol2

> <Gold.PLP.Fitness>
49.9661

> <Gold.PLP.PLP>
-42.5263

> <Gold.PLP.part.hbond>
-2.0000

> <Gold.PLP.part.metal>
0.0000

> <Gold.PLP.part.buried>
-3.5598

> <Gold.PLP.part.nonpolar>
-38.4103

> <Gold.PLP.part.repulsive>
0.1160

> <Gold.PLP.ligand.clash>
0.0000

> <Gold.PLP.ligand.torsion>
0.8394

> <Gold.PLP.Chemscore.Hbond>
3.0000

> <Gold.PLP.Chemscore.CHOScore>
0.0000

> <Gold.PLP.Chemscore.Metal>
0.0000

> <Gold.Chemscore.Hbonds>
donor molecule, donor type, donor heavy atom, donor atom, acceptor molecule, acceptor atom, score
      L1  H    13    49       P1  7948  2.00
      P1  H  7997  8010       L1     8  0.88

> <Gold.PLP.Chemscore.Internal.Correction>
0.1185

> <Gold.Rescore>
     Score         DG    S(hbond)    S(metal)    S(lipo)     H(rot)  DE(clash)    DE(int)     intcor
     21.00     -22.64       1.98        0.00     122.39       1.47       0.29       1.36       ----

> <Gold.Chemscore.Fitness>
21.0000

> <Gold.Chemscore.DG>
-22.6407

> <Gold.Chemscore.ZeroCoef>
-5.4800

> <Gold.Chemscore.Hbond>
1.9793

> <Gold.Chemscore.Metal>
0.0000

> <Gold.Chemscore.Lipo>
122.3851

> <Gold.Chemscore.Internal_Hbond>
0.0000

> <Gold.Chemscore.DEClash>
0.2855

> <Gold.Chemscore.DEInternal>
1.3553

> <Gold.Chemscore.Rot>
1.4723

> <Gold.Chemscore.Internal.Correction>
   9.000000E+99

> <Gold.Chemscore.Hbonds>
donor molecule, donor type, donor heavy atom, donor atom, acceptor molecule, acceptor atom, score
      L1  H    13    49       P1  7948  0.99
      P1  H  7997  8010       L1     8  0.86

> <Gold.Chemscore.Hbond.Weighted>
-6.6108

> <Gold.Chemscore.Metal.Weighted>
-0.0000

> <Gold.Chemscore.Lipo.Weighted>
-14.3191

> <Gold.Chemscore.Internal_Hbond.Weighted>
0.0000

> <Gold.Chemscore.DEClash.Weighted>
0.2855

> <Gold.Chemscore.DEInternal.Weighted>
1.3553

> <Gold.Chemscore.Rot.Weighted>
3.7691

> <Gold.Chemscore.Internal.Correction.Weighted>
   9.000000E+99

> <Gold.Protein.RotatedTorsions>
[ 6907 6896 6895 6894 ] final -174.90 input  -60.11 | X-H torsion
[ 7974 7965 7964 7962 ] final   66.43 input  175.53 | X-H torsion
[ 8008 7997 7996 7995 ] final   67.55 input   59.86 | X-H torsion
[ 10167 10162 10161 10158 ] final -102.90 input  -65.29 | X-H torsion
[ 10718 10713 10712 10709 ] final   37.92 input   66.30 | X-H torsion
[ 10763 10752 10751 10750 ] final  126.43 input  -60.55 | X-H torsion
[ 11005 11000 10999 10996 ] final -104.15 input  -57.11 | X-H torsion

> <Gold.Protein.ActiveResidues>
 VAL166  LYS551  ARG553  GLY616  TRP617  ASP618  TYR619  PRO620  LYS621  CYS622 
 ASP623  PHE694  ASN695  SER759  ASP760  ASP761  ALA762  ILE779  LEU786  VAL792 
 PHE793  MET794  SER795  GLU796  ALA797  LYS798  CYS799  TRP800  GLU811  SER814 

> <Gold.Protein.RotatedAtoms>
  151.5798  133.3379  159.3005 H   0  0  0  0  0  0  0  0  0  0  0  0  # atno 6907 bound_to 6896
  150.8320  134.7580  159.6873 H   0  0  0  0  0  0  0  0  0  0  0  0  # atno 6908 bound_to 6896
  152.4402  134.5612  159.9946 H   0  0  0  0  0  0  0  0  0  0  0  0  # atno 6909 bound_to 6896
  145.8266  139.3115  143.1012 H   0  0  0  0  0  0  0  0  0  0  0  0  # atno 7974 bound_to 7965
  155.6947  140.3496  155.4908 H   0  0  0  0  0  0  0  0  0  0  0  0  # atno 8008 bound_to 7997
  155.9494  140.1116  157.1012 H   0  0  0  0  0  0  0  0  0  0  0  0  # atno 8009 bound_to 7997
  154.4118  140.1197  156.5018 H   0  0  0  0  0  0  0  0  0  0  0  0  # atno 8010 bound_to 7997
  140.2258  143.3643  152.0930 H   0  0  0  0  0  0  0  0  0  0  0  0  # atno 10167 bound_to 10162
  157.3527  130.7607  149.6990 H   0  0  0  0  0  0  0  0  0  0  0  0  # atno 10718 bound_to 10713
  153.6932  135.3295  155.3207 H   0  0  0  0  0  0  0  0  0  0  0  0  # atno 10763 bound_to 10752
  154.8434  135.4436  154.1486 H   0  0  0  0  0  0  0  0  0  0  0  0  # atno 10764 bound_to 10752
  153.2534  135.6983  153.7733 H   0  0  0  0  0  0  0  0  0  0  0  0  # atno 10765 bound_to 10752
  141.1114  133.8699  157.1575 H   0  0  0  0  0  0  0  0  0  0  0  0  # atno 11005 bound_to 11000
  145.9616  140.8831  143.0208 LP  0  0  0  0  0  0  0  0  0  0  0  0  # atno 17320 bound_to 7965
  144.6743  140.1821  143.7405 LP  0  0  0  0  0  0  0  0  0  0  0  0  # atno 17321 bound_to 7965
  139.5128  144.6922  151.5729 LP  0  0  0  0  0  0  0  0  0  0  0  0  # atno 17342 bound_to 10162
  140.6222  143.9237  150.6535 LP  0  0  0  0  0  0  0  0  0  0  0  0  # atno 17343 bound_to 10162
  155.9724  130.4136  150.4090 LP  0  0  0  0  0  0  0  0  0  0  0  0  # atno 17370 bound_to 10713
  157.2155  131.0470  151.2575 LP  0  0  0  0  0  0  0  0  0  0  0  0  # atno 17371 bound_to 10713
  140.0009  135.0028  157.0188 LP  0  0  0  0  0  0  0  0  0  0  0  0  # atno 17394 bound_to 11000
  140.4766  134.1332  155.7210 LP  0  0  0  0  0  0  0  0  0  0  0  0  # atno 17395 bound_to 11000

$$$$
