AV-unprocessed.smi:2995|AV-procd|sdf|11407|dock10
  -GOLD-   2272016333D 1   1.00000     0.00000
 Structure written by MMmdl.
 49 51  0  0  0  0  0  0  0  0  2 V2000
  149.9400  129.4435  154.0109 C   0  0  0  0  0  0  0  0  0  0  0  0
  150.1460  130.8091  154.6419 C   0  0  0  0  0  0  0  0  0  0  0  0
  150.9593  130.9369  155.7867 C   0  0  0  0  0  0  0  0  0  0  0  0
  151.1361  132.2147  156.3505 C   0  0  0  0  0  0  0  0  0  0  0  0
  150.5719  133.3305  155.8455 N   0  0  0  0  0  0  0  0  0  0  0  0
  149.7922  133.2062  154.7508 C   0  0  0  0  0  0  0  0  0  0  0  0
  149.5313  131.9687  154.1105 C   0  0  0  0  0  0  0  0  0  0  0  0
  148.7245  131.8523  152.9442 N   0  0  0  0  0  0  0  0  0  0  0  0
  147.5858  132.5040  152.6531 C   0  0  0  0  0  0  0  0  0  0  0  0
  147.0349  133.3332  153.3768 O   0  0  0  0  0  0  0  0  0  0  0  0
  147.0952  132.1185  151.4660 N   0  0  0  0  0  0  0  0  0  0  0  0
  145.8611  132.6185  150.8673 C   0  0  2  0  0  0  0  0  0  0  0  0
  145.8757  134.1577  150.7854 C   0  0  0  0  0  0  0  0  0  0  0  0
  144.5277  134.7018  150.2756 C   0  0  0  0  0  0  0  0  0  0  0  0
  143.3859  134.2366  151.1106 N   0  3  2  0  0  0  0  0  0  0  0  0
  143.2861  134.8966  152.4473 C   0  0  0  0  0  0  0  0  0  0  0  0
  141.9096  134.7413  153.1086 C   0  0  0  0  0  0  0  0  0  0  0  0
  141.8394  135.8563  154.1560 C   0  0  0  0  0  0  0  0  0  0  0  0
  142.8093  136.9473  153.6830 C   0  0  0  0  0  0  0  0  0  0  0  0
  143.4475  136.4227  152.3923 C   0  0  0  0  0  0  0  0  0  0  0  0
  143.3402  132.7483  151.1489 C   0  0  0  0  0  0  0  0  0  0  0  0
  144.6504  132.1432  151.6888 C   0  0  0  0  0  0  0  0  0  0  0  0
  150.4752  128.6679  154.5593 H   0  0  0  0  0  0  0  0  0  0  0  0
  150.3031  129.4411  152.9830 H   0  0  0  0  0  0  0  0  0  0  0  0
  148.8815  129.1826  154.0049 H   0  0  0  0  0  0  0  0  0  0  0  0
  151.4405  130.0766  156.2283 H   0  0  0  0  0  0  0  0  0  0  0  0
  151.7526  132.3445  157.2278 H   0  0  0  0  0  0  0  0  0  0  0  0
  149.3921  134.1357  154.3766 H   0  0  0  0  0  0  0  0  0  0  0  0
  149.0065  131.1344  152.2931 H   0  0  0  0  0  0  0  0  0  0  0  0
  147.6119  131.4286  150.9401 H   0  0  0  0  0  0  0  0  0  0  0  0
  145.7646  132.2119  149.8585 H   0  0  0  0  0  0  0  0  0  0  0  0
  146.1033  134.5844  151.7628 H   0  0  0  0  0  0  0  0  0  0  0  0
  146.6730  134.4884  150.1189 H   0  0  0  0  0  0  0  0  0  0  0  0
  144.5544  135.7887  150.2095 H   0  0  0  0  0  0  0  0  0  0  0  0
  144.3662  134.3531  149.2547 H   0  0  0  0  0  0  0  0  0  0  0  0
  144.0414  134.4925  153.1223 H   0  0  0  0  0  0  0  0  0  0  0  0
  141.1213  134.8908  152.3690 H   0  0  0  0  0  0  0  0  0  0  0  0
  141.7625  133.7587  153.5580 H   0  0  0  0  0  0  0  0  0  0  0  0
  140.8224  136.2330  154.2714 H   0  0  0  0  0  0  0  0  0  0  0  0
  142.1584  135.4774  155.1277 H   0  0  0  0  0  0  0  0  0  0  0  0
  142.3020  137.8980  153.5152 H   0  0  0  0  0  0  0  0  0  0  0  0
  143.5740  137.1159  154.4424 H   0  0  0  0  0  0  0  0  0  0  0  0
  144.4884  136.7354  152.3032 H   0  0  0  0  0  0  0  0  0  0  0  0
  142.9060  136.8249  151.5345 H   0  0  0  0  0  0  0  0  0  0  0  0
  142.4874  132.3920  151.7251 H   0  0  0  0  0  0  0  0  0  0  0  0
  143.1735  132.3884  150.1327 H   0  0  0  0  0  0  0  0  0  0  0  0
  144.5883  131.0546  151.6590 H   0  0  0  0  0  0  0  0  0  0  0  0
  144.7778  132.4105  152.7385 H   0  0  0  0  0  0  0  0  0  0  0  0
  142.5519  134.5231  150.6179 H   0  0  0  0  0  0  0  0  0  0  0  0
  1  2  1  0  0  0  0
  1 23  1  0  0  0  0
  1 24  1  0  0  0  0
  1 25  1  0  0  0  0
  2  7  1  0  0  0  0
  2  3  2  0  0  0  0
  3  4  1  0  0  0  0
  3 26  1  0  0  0  0
  4  5  2  0  0  0  0
  4 27  1  0  0  0  0
  5  6  1  0  0  0  0
  6  7  2  0  0  0  0
  6 28  1  0  0  0  0
  7  8  1  0  0  0  0
  8  9  1  0  0  0  0
  8 29  1  0  0  0  0
  9 10  2  0  0  0  0
  9 11  1  0  0  0  0
 11 12  1  0  0  0  0
 11 30  1  0  0  0  0
 12 22  1  0  0  0  0
 12 13  1  0  0  0  0
 12 31  1  0  0  0  0
 13 14  1  0  0  0  0
 13 32  1  0  0  0  0
 13 33  1  0  0  0  0
 14 15  1  0  0  0  0
 14 34  1  0  0  0  0
 14 35  1  0  0  0  0
 15 16  1  0  0  0  0
 15 21  1  0  0  0  0
 15 49  1  0  0  0  0
 16 20  1  0  0  0  0
 16 17  1  0  0  0  0
 16 36  1  0  0  0  0
 17 18  1  0  0  0  0
 17 37  1  0  0  0  0
 17 38  1  0  0  0  0
 18 19  1  0  0  0  0
 18 39  1  0  0  0  0
 18 40  1  0  0  0  0
 19 20  1  0  0  0  0
 19 41  1  0  0  0  0
 19 42  1  0  0  0  0
 20 43  1  0  0  0  0
 20 44  1  0  0  0  0
 21 22  1  0  0  0  0
 21 45  1  0  0  0  0
 21 46  1  0  0  0  0
 22 47  1  0  0  0  0
 22 48  1  0  0  0  0
M  CHG  1  15   1
M  END
> <s_m_source_file>
AV-unprocessed.smi

> <i_m_source_file_index>
2995

> <i_lp_mmshare_version>
43012

> <i_f3d_flags>
0

> <s_epik_input>
W0NIM11jMVtjSF1bY0hdbltjSF1jMVtOSF1DKD1PKVtOSF1bQ0hdMltDSDJdW0NIMl1OKFtDSDJdW0NIMl0yKVtDSF0zW0NIMl1bQ0gyXVtDSDJdW0NIMl0z

> <s_epik_cmdline>
J2VwaWtfcHl0aG9uJywgJy1waCcsICc3LjAnLCAnLXRuJywgJzgnLCAnLW1hJywgJzIwMCcsICctbWV0YWxfYmluZGluZycsICctaW1hZScsICc8aW5maWxlLm1hZT4nLCAnLW9tYWUnLCAnPG91dGZpbGUubWFlPic=

> <r_epik_Ionization_Penalty>
0.0196897

> <r_epik_Ionization_Penalty_Charging>
0.00179121

> <r_epik_Ionization_Penalty_Neutral>
0.0178985

> <r_epik_State_Penalty>
0.014187

> <r_epik_Charging_Adjusted_Penalty>
0.0159782

> <i_epik_Tot_Q>
1

> <i_epik_Tot_abs_Q>
1

> <r_epik_Metal_State_Penalty>
0.013703

> <b_epik_Metal_Only>
0

> <s_lp_Force_Field>
OPLS_2005

> <r_lp_Energy>
42.3495

> <b_lp_Chiralities_Consistent>
1

> <s_lp_Variant>
AV-unprocessed.smi:2995-2

> <Gold.Version>
5.8.1

> <Gold.Id.Protein>
6NUR|6NUR_protein|mol2

> <Gold.PLP.Fitness>
53.0446

> <Gold.PLP.PLP>
-42.7617

> <Gold.PLP.part.hbond>
-3.0000

> <Gold.PLP.part.metal>
0.0000

> <Gold.PLP.part.buried>
-4.5363

> <Gold.PLP.part.nonpolar>
-34.3271

> <Gold.PLP.part.repulsive>
0.1408

> <Gold.PLP.ligand.clash>
0.0000

> <Gold.PLP.ligand.torsion>
0.4803

> <Gold.PLP.Chemscore.Hbond>
3.7296

> <Gold.PLP.Chemscore.CHOScore>
0.0000

> <Gold.PLP.Chemscore.Metal>
0.0000

> <Gold.Chemscore.Hbonds>
donor molecule, donor type, donor heavy atom, donor atom, acceptor molecule, acceptor atom, score
      L1  H     8    29       P1 10747  0.77
      L1  H    11    30       P1 10747  1.00
      L1  H    15    49       P1 10186  2.00

> <Gold.PLP.Chemscore.Internal.Correction>
0.0549

> <Gold.Rescore>
     Score         DG    S(hbond)    S(metal)    S(lipo)     H(rot)  DE(clash)    DE(int)     intcor
     17.96     -20.39       1.93        0.00      98.11       1.17       0.19       2.24       ----

> <Gold.Chemscore.Fitness>
17.9618

> <Gold.Chemscore.DG>
-20.3934

> <Gold.Chemscore.ZeroCoef>
-5.4800

> <Gold.Chemscore.Hbond>
1.9273

> <Gold.Chemscore.Metal>
0.0000

> <Gold.Chemscore.Lipo>
98.1144

> <Gold.Chemscore.Internal_Hbond>
0.0000

> <Gold.Chemscore.DEClash>
0.1930

> <Gold.Chemscore.DEInternal>
2.2386

> <Gold.Chemscore.Rot>
1.1731

> <Gold.Chemscore.Internal.Correction>
   9.000000E+99

> <Gold.Chemscore.Hbonds>
donor molecule, donor type, donor heavy atom, donor atom, acceptor molecule, acceptor atom, score
      L1  H     8    29       P1 10747  0.40
      L1  H    11    30       P1 10747  0.95
      L1  H    15    49       P1 10186  0.25

> <Gold.Chemscore.Hbond.Weighted>
-6.4371

> <Gold.Chemscore.Metal.Weighted>
-0.0000

> <Gold.Chemscore.Lipo.Weighted>
-11.4794

> <Gold.Chemscore.Internal_Hbond.Weighted>
0.0000

> <Gold.Chemscore.DEClash.Weighted>
0.1930

> <Gold.Chemscore.DEInternal.Weighted>
2.2386

> <Gold.Chemscore.Rot.Weighted>
3.0030

> <Gold.Chemscore.Internal.Correction.Weighted>
   9.000000E+99

> <Gold.Protein.RotatedTorsions>
[ 6907 6896 6895 6894 ] final -105.50 input  -60.11 | X-H torsion
[ 7974 7965 7964 7962 ] final  146.05 input  175.53 | X-H torsion
[ 8008 7997 7996 7995 ] final  -46.10 input   59.86 | X-H torsion
[ 10167 10162 10161 10158 ] final  -95.82 input  -65.29 | X-H torsion
[ 10718 10713 10712 10709 ] final  -23.92 input   66.30 | X-H torsion
[ 10763 10752 10751 10750 ] final  163.95 input  -60.55 | X-H torsion
[ 11005 11000 10999 10996 ] final  144.39 input  -57.11 | X-H torsion

> <Gold.Protein.ActiveResidues>
 VAL166  LYS551  ARG553  GLY616  TRP617  ASP618  TYR619  PRO620  LYS621  CYS622 
 ASP623  PHE694  ASN695  SER759  ASP760  ASP761  ALA762  ILE779  LEU786  VAL792 
 PHE793  MET794  SER795  GLU796  ALA797  LYS798  CYS799  TRP800  GLU811  SER814 

> <Gold.Protein.RotatedAtoms>
  150.7340  134.0118  159.3671 H   0  0  0  0  0  0  0  0  0  0  0  0  # atno 6907 bound_to 6896
  151.8078  135.0688  160.0418 H   0  0  0  0  0  0  0  0  0  0  0  0  # atno 6908 bound_to 6896
  152.3095  133.5701  159.5707 H   0  0  0  0  0  0  0  0  0  0  0  0  # atno 6909 bound_to 6896
  144.8702  139.5857  143.5890 H   0  0  0  0  0  0  0  0  0  0  0  0  # atno 7974 bound_to 7965
  154.4005  140.1380  156.3955 H   0  0  0  0  0  0  0  0  0  0  0  0  # atno 8008 bound_to 7997
  155.7873  140.3480  155.5309 H   0  0  0  0  0  0  0  0  0  0  0  0  # atno 8009 bound_to 7997
  155.8614  140.0957  157.1601 H   0  0  0  0  0  0  0  0  0  0  0  0  # atno 8010 bound_to 7997
  140.3002  143.3167  152.0256 H   0  0  0  0  0  0  0  0  0  0  0  0  # atno 10167 bound_to 10162
  156.4846  130.4553  149.6791 H   0  0  0  0  0  0  0  0  0  0  0  0  # atno 10718 bound_to 10713
  154.3015  135.2759  155.2608 H   0  0  0  0  0  0  0  0  0  0  0  0  # atno 10763 bound_to 10752
  154.5043  135.5799  153.6559 H   0  0  0  0  0  0  0  0  0  0  0  0  # atno 10764 bound_to 10752
  152.9900  135.6165  154.3186 H   0  0  0  0  0  0  0  0  0  0  0  0  # atno 10765 bound_to 10752
  140.0628  134.9195  157.1214 H   0  0  0  0  0  0  0  0  0  0  0  0  # atno 11005 bound_to 11000
  146.2925  139.7181  142.9150 LP  0  0  0  0  0  0  0  0  0  0  0  0  # atno 17320 bound_to 7965
  145.4144  141.0400  143.2999 LP  0  0  0  0  0  0  0  0  0  0  0  0  # atno 17321 bound_to 7965
  139.4917  144.6461  151.6774 LP  0  0  0  0  0  0  0  0  0  0  0  0  # atno 17342 bound_to 10162
  140.5658  144.0193  150.6191 LP  0  0  0  0  0  0  0  0  0  0  0  0  # atno 17343 bound_to 10162
  156.3487  130.7421  151.2377 LP  0  0  0  0  0  0  0  0  0  0  0  0  # atno 17370 bound_to 10713
  157.7480  131.0383  150.4496 LP  0  0  0  0  0  0  0  0  0  0  0  0  # atno 17371 bound_to 10713
  140.3744  134.2355  155.7175 LP  0  0  0  0  0  0  0  0  0  0  0  0  # atno 17394 bound_to 11000
  141.1980  133.8045  157.0601 LP  0  0  0  0  0  0  0  0  0  0  0  0  # atno 17395 bound_to 11000

$$$$
