AV-unprocessed.smi:35|AV-procd|sdf|252|dock3
  -GOLD-   2262016 13D 1   1.00000     0.00000
 Structure written by MMmdl.
 29 30  0  0  0  0  0  0  0  0  1 V2000
  151.3982  137.0548  159.3844 O   0  0  0  0  0  0  0  0  0  0  0  0
  151.1075  137.7485  158.4122 C   0  0  0  0  0  0  0  0  0  0  0  0
  152.1133  138.3040  157.6155 N   0  0  0  0  0  0  0  0  0  0  0  0
  151.9084  139.1065  156.4908 C   0  0  0  0  0  0  0  0  0  0  0  0
  152.8729  139.5573  155.8746 O   0  0  0  0  0  0  0  0  0  0  0  0
  150.5697  139.3704  156.1249 N   0  0  0  0  0  0  0  0  0  0  0  0
  150.2688  140.2258  154.9132 C   0  0  1  0  0  0  0  0  0  0  0  0
  149.3022  139.5690  154.1552 O   0  0  0  0  0  0  0  0  0  0  0  0
  148.4402  140.5322  153.5682 C   0  0  1  0  0  0  0  0  0  0  0  0
  147.0996  139.8776  153.2017 C   0  0  0  0  0  0  0  0  0  0  0  0
  147.3083  138.8388  152.2692 O   0  0  0  0  0  0  0  0  0  0  0  0
  148.3231  141.5963  154.6643 C   0  0  2  0  0  0  0  0  0  0  0  0
  147.9918  142.8497  154.1000 O   0  0  0  0  0  0  0  0  0  0  0  0
  149.7207  141.6263  155.2734 C   0  0  1  0  0  0  0  0  0  0  0  0
  149.6575  141.8966  156.6627 O   0  0  0  0  0  0  0  0  0  0  0  0
  149.5369  138.8471  156.8907 C   0  0  0  0  0  0  0  0  0  0  0  0
  149.7524  138.0747  157.9809 C   0  0  0  0  0  0  0  0  0  0  0  0
  148.1445  137.4319  158.9426 Br  0  0  0  0  0  0  0  0  0  0  0  0
  153.0689  138.1111  157.8784 H   0  0  0  0  0  0  0  0  0  0  0  0
  151.1770  140.2766  154.3105 H   0  0  0  0  0  0  0  0  0  0  0  0
  148.9287  140.9572  152.6886 H   0  0  0  0  0  0  0  0  0  0  0  0
  146.5867  139.4995  154.0867 H   0  0  0  0  0  0  0  0  0  0  0  0
  146.4405  140.6088  152.7328 H   0  0  0  0  0  0  0  0  0  0  0  0
  147.9717  139.1149  151.6552 H   0  0  0  0  0  0  0  0  0  0  0  0
  147.5802  141.2962  155.4058 H   0  0  0  0  0  0  0  0  0  0  0  0
  148.1877  143.5260  154.7300 H   0  0  0  0  0  0  0  0  0  0  0  0
  150.3545  142.3672  154.7836 H   0  0  0  0  0  0  0  0  0  0  0  0
  149.4109  142.8014  156.7799 H   0  0  0  0  0  0  0  0  0  0  0  0
  148.5159  139.0698  156.6151 H   0  0  0  0  0  0  0  0  0  0  0  0
  1  2  2  0  0  0  0
  2 17  1  0  0  0  0
  2  3  1  0  0  0  0
  3 19  1  0  0  0  0
  3  4  1  0  0  0  0
  4  5  2  0  0  0  0
  4  6  1  0  0  0  0
  6  7  1  0  0  0  0
  6 16  1  0  0  0  0
  7 14  1  0  0  0  0
  7  8  1  0  0  0  0
  7 20  1  0  0  0  0
  8  9  1  0  0  0  0
  9 10  1  0  0  0  0
  9 12  1  0  0  0  0
  9 21  1  0  0  0  0
 10 11  1  0  0  0  0
 10 22  1  0  0  0  0
 10 23  1  0  0  0  0
 11 24  1  0  0  0  0
 12 13  1  0  0  0  0
 12 14  1  0  0  0  0
 12 25  1  0  0  0  0
 13 26  1  0  0  0  0
 14 15  1  0  0  0  0
 14 27  1  0  0  0  0
 15 28  1  0  0  0  0
 16 17  2  0  0  0  0
 16 29  1  0  0  0  0
 17 18  1  0  0  0  0
M  END
> <s_m_source_file>
AV-unprocessed.smi

> <i_m_source_file_index>
35

> <i_lp_mmshare_version>
43012

> <i_f3d_flags>
0

> <s_epik_input>
Tz1jMVtuSF1jKD1PKW4oW2NIXWMxQnIpW0NAQEhdMk9bQ0BASF0oW0NIMl1bT0hdKVtDQEBIXShbT0hdKVtDQEhdMltPSF0=

> <s_epik_cmdline>
J2VwaWtfcHl0aG9uJywgJy1waCcsICc3LjAnLCAnLXRuJywgJzgnLCAnLW1hJywgJzIwMCcsICctbWV0YWxfYmluZGluZycsICctaW1hZScsICc8aW5maWxlLm1hZT4nLCAnLW9tYWUnLCAnPG91dGZpbGUubWFlPic=

> <r_lp_tautomer_probability>
0.999537

> <r_epik_Ionization_Penalty>
0.10812

> <r_epik_Ionization_Penalty_Charging>
0.108119

> <r_epik_Ionization_Penalty_Neutral>
4.93006e-07

> <r_epik_State_Penalty>
0.0979238

> <r_epik_Charging_Adjusted_Penalty>
0.206043

> <i_epik_Tot_Q>
0

> <i_epik_Tot_abs_Q>
0

> <r_epik_Metal_State_Penalty>
3.07911

> <b_epik_Metal_Only>
0

> <s_epik_Chemistry_Notes>
This compound contains an acetal/aminal-like group ( X-CH(R)-Y where X, Y are N, S, or O) that may be acid/base labile, releasing an aldehyde.

> <s_lp_Force_Field>
OPLS_2005

> <r_lp_Energy>
32.4321

> <b_lp_Chiralities_Consistent>
1

> <s_lp_Variant>
AV-unprocessed.smi:35-6

> <Gold.Version>
5.8.1

> <Gold.Id.Protein>
6NUR|6NUR_protein|mol2

> <Gold.PLP.Fitness>
38.7207

> <Gold.PLP.PLP>
-25.9261

> <Gold.PLP.part.hbond>
-7.6251

> <Gold.PLP.part.metal>
0.0000

> <Gold.PLP.part.buried>
1.2450

> <Gold.PLP.part.nonpolar>
-19.3024

> <Gold.PLP.part.repulsive>
0.7251

> <Gold.PLP.ligand.clash>
0.0000

> <Gold.PLP.ligand.torsion>
0.2682

> <Gold.PLP.Chemscore.Hbond>
4.3432

> <Gold.PLP.Chemscore.CHOScore>
0.0000

> <Gold.PLP.Chemscore.Metal>
0.0000

> <Gold.Chemscore.Hbonds>
donor molecule, donor type, donor heavy atom, donor atom, acceptor molecule, acceptor atom, score
      L1  H    11    24       P1  7957  1.00
      L1  H    13    26       P1  8028  1.00
      L1  H    15    28       P1  8028  0.33
      P1  H  6896  6909       L1     1  1.00
      P1  H  7997  8009       L1     5  1.00

> <Gold.PLP.Chemscore.Internal.Correction>
0.3014

> <Gold.Rescore>
     Score         DG    S(hbond)    S(metal)    S(lipo)     H(rot)  DE(clash)    DE(int)     intcor
     12.59     -14.60       4.20        0.00      38.18       3.67       1.58       0.42       ----

> <Gold.Chemscore.Fitness>
12.5948

> <Gold.Chemscore.DG>
-14.5962

> <Gold.Chemscore.ZeroCoef>
-5.4800

> <Gold.Chemscore.Hbond>
4.2049

> <Gold.Chemscore.Metal>
0.0000

> <Gold.Chemscore.Lipo>
38.1813

> <Gold.Chemscore.Internal_Hbond>
0.0000

> <Gold.Chemscore.DEClash>
1.5778

> <Gold.Chemscore.DEInternal>
0.4236

> <Gold.Chemscore.Rot>
3.6701

> <Gold.Chemscore.Internal.Correction>
   9.000000E+99

> <Gold.Chemscore.Hbonds>
donor molecule, donor type, donor heavy atom, donor atom, acceptor molecule, acceptor atom, score
      L1  H    11    24       P1  7957  0.92
      L1  H    13    26       P1  8028  0.92
      L1  H    15    28       P1  8028  0.32
      P1  H  6896  6909       L1     1  0.98
      P1  H  7997  8009       L1     5  1.00

> <Gold.Chemscore.Hbond.Weighted>
-14.0444

> <Gold.Chemscore.Metal.Weighted>
-0.0000

> <Gold.Chemscore.Lipo.Weighted>
-4.4672

> <Gold.Chemscore.Internal_Hbond.Weighted>
0.0000

> <Gold.Chemscore.DEClash.Weighted>
1.5778

> <Gold.Chemscore.DEInternal.Weighted>
0.4236

> <Gold.Chemscore.Rot.Weighted>
9.3955

> <Gold.Chemscore.Internal.Correction.Weighted>
   9.000000E+99

> <Gold.Protein.RotatedTorsions>
[ 6907 6896 6895 6894 ] final  107.80 input  -60.11 | X-H torsion
[ 7974 7965 7964 7962 ] final  -87.41 input  175.53 | X-H torsion
[ 8008 7997 7996 7995 ] final -142.59 input   59.86 | X-H torsion
[ 10167 10162 10161 10158 ] final  -20.31 input  -65.29 | X-H torsion
[ 10718 10713 10712 10709 ] final  118.44 input   66.30 | X-H torsion
[ 10763 10752 10751 10750 ] final  -45.05 input  -60.55 | X-H torsion
[ 11005 11000 10999 10996 ] final  -89.62 input  -57.11 | X-H torsion

> <Gold.Protein.ActiveResidues>
 VAL166  LYS551  ARG553  GLY616  TRP617  ASP618  TYR619  PRO620  LYS621  CYS622 
 ASP623  PHE694  ASN695  SER759  ASP760  ASP761  ALA762  ILE779  LEU786  VAL792 
 PHE793  MET794  SER795  GLU796  ALA797  LYS798  CYS799  TRP800  GLU811  SER814 

> <Gold.Protein.RotatedAtoms>
  152.5139  133.9181  159.7520 H   0  0  0  0  0  0  0  0  0  0  0  0  # atno 6907 bound_to 6896
  150.9559  133.6489  159.2770 H   0  0  0  0  0  0  0  0  0  0  0  0  # atno 6908 bound_to 6896
  151.3751  135.0935  159.9531 H   0  0  0  0  0  0  0  0  0  0  0  0  # atno 6909 bound_to 6896
  145.4669  140.9560  143.1939 H   0  0  0  0  0  0  0  0  0  0  0  0  # atno 7974 bound_to 7965
  155.4968  140.0572  157.2945 H   0  0  0  0  0  0  0  0  0  0  0  0  # atno 8008 bound_to 7997
  154.4602  140.1992  156.0216 H   0  0  0  0  0  0  0  0  0  0  0  0  # atno 8009 bound_to 7997
  156.0876  140.3238  155.7778 H   0  0  0  0  0  0  0  0  0  0  0  0  # atno 8010 bound_to 7997
  140.7275  143.4734  151.0215 H   0  0  0  0  0  0  0  0  0  0  0  0  # atno 10167 bound_to 10162
  157.6030  131.1048  150.7756 H   0  0  0  0  0  0  0  0  0  0  0  0  # atno 10718 bound_to 10713
  154.0222  135.6668  153.4773 H   0  0  0  0  0  0  0  0  0  0  0  0  # atno 10763 bound_to 10752
  153.0575  135.5047  154.8013 H   0  0  0  0  0  0  0  0  0  0  0  0  # atno 10764 bound_to 10752
  154.6930  135.3065  154.9416 H   0  0  0  0  0  0  0  0  0  0  0  0  # atno 10765 bound_to 10752
  141.1581  133.7642  156.9622 H   0  0  0  0  0  0  0  0  0  0  0  0  # atno 11005 bound_to 11000
  144.7969  139.6217  143.7089 LP  0  0  0  0  0  0  0  0  0  0  0  0  # atno 17320 bound_to 7965
  146.2419  139.6019  142.9485 LP  0  0  0  0  0  0  0  0  0  0  0  0  # atno 17321 bound_to 7965
  139.8428  143.7541  152.3180 LP  0  0  0  0  0  0  0  0  0  0  0  0  # atno 17342 bound_to 10162
  139.7696  144.7481  151.0244 LP  0  0  0  0  0  0  0  0  0  0  0  0  # atno 17343 bound_to 10162
  156.8151  130.4965  149.5350 LP  0  0  0  0  0  0  0  0  0  0  0  0  # atno 17370 bound_to 10713
  156.1108  130.6039  151.0044 LP  0  0  0  0  0  0  0  0  0  0  0  0  # atno 17371 bound_to 10713
  140.1186  134.9432  157.2170 LP  0  0  0  0  0  0  0  0  0  0  0  0  # atno 17394 bound_to 11000
  140.3102  134.3033  155.7269 LP  0  0  0  0  0  0  0  0  0  0  0  0  # atno 17395 bound_to 11000

$$$$
