AV-unprocessed.smi:2671|AV-procd|sdf|10349|dock4
  -GOLD-   2272014373D 1   1.00000     0.00000
 Structure written by MMmdl.
 29 30  0  0  0  0  0  0  0  0  1 V2000
  153.8183  135.9794  159.7250 O   0  0  0  0  0  0  0  0  0  0  0  0
  154.2044  136.9943  160.3002 C   0  0  0  0  0  0  0  0  0  0  0  0
  154.9256  136.9913  161.5722 C   0  0  0  0  0  0  0  0  0  0  0  0
  155.3172  138.1562  162.1436 C   0  0  0  0  0  0  0  0  0  0  0  0
  156.0684  138.1725  163.4652 C   0  0  0  0  0  0  0  0  0  0  0  0
  157.2407  137.5521  163.3358 F   0  0  0  0  0  0  0  0  0  0  0  0
  156.3034  139.4277  163.8468 F   0  0  0  0  0  0  0  0  0  0  0  0
  155.3782  137.5643  164.4313 F   0  0  0  0  0  0  0  0  0  0  0  0
  155.0399  139.3846  161.5248 N   0  0  0  0  0  0  0  0  0  0  0  0
  154.4012  139.4129  160.3968 C   0  0  0  0  0  0  0  0  0  0  0  0
  153.9132  140.8431  159.3902 S   0  0  0  0  0  0  0  0  0  0  0  0
  153.4662  142.0457  160.6752 C   0  0  0  0  0  0  0  0  0  0  0  0
  153.2182  143.4427  160.0898 C   0  0  1  0  0  0  0  0  0  0  0  0
  152.4256  143.4558  158.7810 C   0  0  0  0  0  0  0  0  0  0  0  0
  151.7064  144.7974  158.8019 C   0  0  0  0  0  0  0  0  0  0  0  0
  151.9367  145.3263  160.2197 C   0  0  0  0  0  0  0  0  0  0  0  0
  152.3910  144.2011  160.9568 O   0  0  0  0  0  0  0  0  0  0  0  0
  153.9843  138.2256  159.7851 N   0  0  0  0  0  0  0  0  0  0  0  0
  153.4899  138.2840  158.9068 H   0  0  0  0  0  0  0  0  0  0  0  0
  155.1459  136.0513  162.0571 H   0  0  0  0  0  0  0  0  0  0  0  0
  154.2778  142.0920  161.4018 H   0  0  0  0  0  0  0  0  0  0  0  0
  152.5812  141.6948  161.2074 H   0  0  0  0  0  0  0  0  0  0  0  0
  154.1639  143.9731  159.9626 H   0  0  0  0  0  0  0  0  0  0  0  0
  153.0657  143.3329  157.9069 H   0  0  0  0  0  0  0  0  0  0  0  0
  151.6904  142.6499  158.7726 H   0  0  0  0  0  0  0  0  0  0  0  0
  152.1073  145.4868  158.0581 H   0  0  0  0  0  0  0  0  0  0  0  0
  150.6437  144.6634  158.5968 H   0  0  0  0  0  0  0  0  0  0  0  0
  152.7132  146.0926  160.2217 H   0  0  0  0  0  0  0  0  0  0  0  0
  151.0361  145.7531  160.6617 H   0  0  0  0  0  0  0  0  0  0  0  0
  1  2  2  0  0  0  0
  2 18  1  0  0  0  0
  2  3  1  0  0  0  0
  3 20  1  0  0  0  0
  3  4  2  0  0  0  0
  4  5  1  0  0  0  0
  4  9  1  0  0  0  0
  5  6  1  0  0  0  0
  5  7  1  0  0  0  0
  5  8  1  0  0  0  0
  9 10  2  0  0  0  0
 10 11  1  0  0  0  0
 10 18  1  0  0  0  0
 11 12  1  0  0  0  0
 12 13  1  0  0  0  0
 12 21  1  0  0  0  0
 12 22  1  0  0  0  0
 13 17  1  0  0  0  0
 13 14  1  0  0  0  0
 13 23  1  0  0  0  0
 14 15  1  0  0  0  0
 14 24  1  0  0  0  0
 14 25  1  0  0  0  0
 15 16  1  0  0  0  0
 15 26  1  0  0  0  0
 15 27  1  0  0  0  0
 16 17  1  0  0  0  0
 16 28  1  0  0  0  0
 16 29  1  0  0  0  0
 18 19  1  0  0  0  0
M  END
> <s_m_source_file>
AV-unprocessed.smi

> <i_m_source_file_index>
2671

> <i_lp_mmshare_version>
43012

> <i_f3d_flags>
0

> <s_epik_input>
W09IXWMxW2NIXWMoQyhGKShGKUYpbmMobjEpU1tDSDJdW0NAQEhdMltDSDJdW0NIMl1bQ0gyXU8y

> <s_epik_cmdline>
J2VwaWtfcHl0aG9uJywgJy1waCcsICc3LjAnLCAnLXRuJywgJzgnLCAnLW1hJywgJzIwMCcsICctbWV0YWxfYmluZGluZycsICctaW1hZScsICc8aW5maWxlLm1hZT4nLCAnLW9tYWUnLCAnPG91dGZpbGUubWFlPic=

> <r_lp_tautomer_probability>
0.660323

> <r_epik_Ionization_Penalty>
0.14469

> <r_epik_Ionization_Penalty_Charging>
0.14469

> <r_epik_Ionization_Penalty_Neutral>
3.1007e-10

> <r_epik_State_Penalty>
0.804349

> <r_epik_Charging_Adjusted_Penalty>
0.949039

> <i_epik_Tot_Q>
0

> <i_epik_Tot_abs_Q>
0

> <r_epik_Metal_State_Penalty>
1.52783

> <b_epik_Metal_Only>
0

> <s_lp_Force_Field>
OPLS_2005

> <r_lp_Energy>
21.2292

> <b_lp_Chiralities_Consistent>
1

> <s_lp_Variant>
AV-unprocessed.smi:2671-4

> <Gold.Version>
5.8.1

> <Gold.Id.Protein>
6NUR|6NUR_protein|mol2

> <Gold.PLP.Fitness>
40.8335

> <Gold.PLP.PLP>
-38.9405

> <Gold.PLP.part.hbond>
-1.0000

> <Gold.PLP.part.metal>
0.0000

> <Gold.PLP.part.buried>
-5.1155

> <Gold.PLP.part.nonpolar>
-32.4057

> <Gold.PLP.part.repulsive>
0.1608

> <Gold.PLP.ligand.clash>
0.0000

> <Gold.PLP.ligand.torsion>
0.5619

> <Gold.PLP.Chemscore.Hbond>
1.0000

> <Gold.PLP.Chemscore.CHOScore>
0.0000

> <Gold.PLP.Chemscore.Metal>
0.0000

> <Gold.Chemscore.Hbonds>
donor molecule, donor type, donor heavy atom, donor atom, acceptor molecule, acceptor atom, score
      P1  H  6896  6907       L1     1  1.00

> <Gold.PLP.Chemscore.Internal.Correction>
0.0168

> <Gold.Rescore>
     Score         DG    S(hbond)    S(metal)    S(lipo)     H(rot)  DE(clash)    DE(int)     intcor
     14.37     -14.78       1.00        0.00      87.98       1.69       0.02       0.39       ----

> <Gold.Chemscore.Fitness>
14.3670

> <Gold.Chemscore.DG>
-14.7781

> <Gold.Chemscore.ZeroCoef>
-5.4800

> <Gold.Chemscore.Hbond>
0.9992

> <Gold.Chemscore.Metal>
0.0000

> <Gold.Chemscore.Lipo>
87.9753

> <Gold.Chemscore.Internal_Hbond>
0.0000

> <Gold.Chemscore.DEClash>
0.0211

> <Gold.Chemscore.DEInternal>
0.3900

> <Gold.Chemscore.Rot>
1.6924

> <Gold.Chemscore.Internal.Correction>
   9.000000E+99

> <Gold.Chemscore.Hbonds>
donor molecule, donor type, donor heavy atom, donor atom, acceptor molecule, acceptor atom, score
      P1  H  6896  6907       L1     1  1.00

> <Gold.Chemscore.Hbond.Weighted>
-3.3374

> <Gold.Chemscore.Metal.Weighted>
-0.0000

> <Gold.Chemscore.Lipo.Weighted>
-10.2931

> <Gold.Chemscore.Internal_Hbond.Weighted>
0.0000

> <Gold.Chemscore.DEClash.Weighted>
0.0211

> <Gold.Chemscore.DEInternal.Weighted>
0.3900

> <Gold.Chemscore.Rot.Weighted>
4.3324

> <Gold.Chemscore.Internal.Correction.Weighted>
   9.000000E+99

> <Gold.Protein.RotatedTorsions>
[ 6907 6896 6895 6894 ] final   56.45 input  -60.11 | X-H torsion
[ 7974 7965 7964 7962 ] final -134.59 input  175.53 | X-H torsion
[ 8008 7997 7996 7995 ] final   47.64 input   59.86 | X-H torsion
[ 10167 10162 10161 10158 ] final   43.45 input  -65.29 | X-H torsion
[ 10718 10713 10712 10709 ] final   76.29 input   66.30 | X-H torsion
[ 10763 10752 10751 10750 ] final  179.19 input  -60.55 | X-H torsion
[ 11005 11000 10999 10996 ] final  -95.44 input  -57.11 | X-H torsion

> <Gold.Protein.ActiveResidues>
 VAL166  LYS551  ARG553  GLY616  TRP617  ASP618  TYR619  PRO620  LYS621  CYS622 
 ASP623  PHE694  ASN695  SER759  ASP760  ASP761  ALA762  ILE779  LEU786  VAL792 
 PHE793  MET794  SER795  GLU796  ALA797  LYS798  CYS799  TRP800  GLU811  SER814 

> <Gold.Protein.RotatedAtoms>
  152.3637  134.6835  160.0198 H   0  0  0  0  0  0  0  0  0  0  0  0  # atno 6907 bound_to 6896
  151.7150  133.3307  159.3308 H   0  0  0  0  0  0  0  0  0  0  0  0  # atno 6908 bound_to 6896
  150.7623  134.6433  159.6293 H   0  0  0  0  0  0  0  0  0  0  0  0  # atno 6909 bound_to 6896
  144.9089  140.6869  143.5037 H   0  0  0  0  0  0  0  0  0  0  0  0  # atno 7974 bound_to 7965
  155.3724  140.3424  155.4243 H   0  0  0  0  0  0  0  0  0  0  0  0  # atno 8008 bound_to 7997
  156.1655  140.1614  156.8572 H   0  0  0  0  0  0  0  0  0  0  0  0  # atno 8009 bound_to 7997
  154.5181  140.0773  156.8102 H   0  0  0  0  0  0  0  0  0  0  0  0  # atno 8010 bound_to 7997
  140.3442  144.2431  150.6152 H   0  0  0  0  0  0  0  0  0  0  0  0  # atno 10167 bound_to 10162
  157.6668  130.9767  150.1476 H   0  0  0  0  0  0  0  0  0  0  0  0  # atno 10718 bound_to 10713
  154.5174  135.2792  155.1291 H   0  0  0  0  0  0  0  0  0  0  0  0  # atno 10763 bound_to 10752
  154.2862  135.6276  153.5370 H   0  0  0  0  0  0  0  0  0  0  0  0  # atno 10764 bound_to 10752
  152.9930  135.5663  154.5655 H   0  0  0  0  0  0  0  0  0  0  0  0  # atno 10765 bound_to 10752
  141.1442  133.8026  157.0435 H   0  0  0  0  0  0  0  0  0  0  0  0  # atno 11005 bound_to 11000
  145.3488  139.1712  143.4446 LP  0  0  0  0  0  0  0  0  0  0  0  0  # atno 17320 bound_to 7965
  146.3148  140.3537  142.8658 LP  0  0  0  0  0  0  0  0  0  0  0  0  # atno 17321 bound_to 7965
  140.5280  143.2250  151.8284 LP  0  0  0  0  0  0  0  0  0  0  0  0  # atno 17342 bound_to 10162
  139.4836  144.4756  151.9371 LP  0  0  0  0  0  0  0  0  0  0  0  0  # atno 17343 bound_to 10162
  156.2283  130.3680  149.8474 LP  0  0  0  0  0  0  0  0  0  0  0  0  # atno 17370 bound_to 10713
  156.6308  130.8665  151.3495 LP  0  0  0  0  0  0  0  0  0  0  0  0  # atno 17371 bound_to 10713
  140.0677  134.9719  157.1415 LP  0  0  0  0  0  0  0  0  0  0  0  0  # atno 17394 bound_to 11000
  140.3755  134.2343  155.7174 LP  0  0  0  0  0  0  0  0  0  0  0  0  # atno 17395 bound_to 11000

$$$$
