AV-unprocessed.smi:276|AV-procd|sdf|2077|dock5
  -GOLD-   2262021343D 1   1.00000     0.00000
 Structure written by MMmdl.
 57 61  0  0  0  0  0  0  0  0  1 V2000
  152.5212  140.0744  158.4985 C   0  0  0  0  0  0  0  0  0  0  0  0
  152.3627  140.0709  157.0909 O   0  0  0  0  0  0  0  0  0  0  0  0
  151.0008  140.1255  156.6967 C   0  0  1  0  0  0  0  0  0  0  0  0
  150.6634  141.2705  155.7339 C   0  0  0  0  0  0  0  0  0  0  0  0
  149.7721  140.2893  154.9469 C   0  0  2  0  0  0  0  0  0  0  0  0
  148.3762  140.3424  155.4050 N   0  0  0  0  0  0  0  0  0  0  0  0
  147.6320  141.5500  155.0598 C   0  0  0  0  0  0  0  0  0  0  0  0
  147.6227  139.2494  155.1500 C   0  0  0  0  0  0  0  0  0  0  0  0
  147.3658  138.4240  156.1951 N   0  0  0  0  0  0  0  0  0  0  0  0
  146.6346  137.3205  156.0122 C   0  0  0  0  0  0  0  0  0  0  0  0
  146.0726  136.8678  154.8895 N   0  0  0  0  0  0  0  0  0  0  0  0
  146.3159  137.7045  153.8404 C   0  0  0  0  0  0  0  0  0  0  0  0
  147.0708  138.9107  153.8806 C   0  0  0  0  0  0  0  0  0  0  0  0
  147.0950  139.4939  152.6188 N   0  0  0  0  0  0  0  0  0  0  0  0
  146.4061  138.6737  151.8737 C   0  0  0  0  0  0  0  0  0  0  0  0
  145.9041  137.5714  152.5265 N   0  0  0  0  0  0  0  0  0  0  0  0
  145.1132  136.5040  151.9400 C   0  0  0  0  0  0  0  0  0  0  0  0
  145.9875  135.3548  151.4018 C   0  0  1  0  0  0  0  0  0  0  0  0
  146.6844  134.7544  152.4771 O   0  0  0  0  0  0  0  0  0  0  0  0
  145.1542  134.2761  150.6864 C   0  0  2  0  0  0  0  0  0  0  0  0
  144.2074  133.4946  151.5991 C   0  0  0  0  0  0  0  0  0  0  0  0
  144.0178  132.1732  150.8712 C   0  0  0  0  0  0  0  0  0  0  0  0
  145.1612  132.1412  149.8533 C   0  0  0  0  0  0  0  0  0  0  0  0
  145.9919  133.2429  150.1913 O   0  0  0  0  0  0  0  0  0  0  0  0
  150.6395  139.1547  155.5580 C   0  0  0  0  0  0  0  0  0  0  0  0
  151.7559  138.5190  154.7091 C   0  0  0  0  0  0  0  0  0  0  0  0
  151.5879  137.2440  155.5403 C   0  0  0  0  0  0  0  0  0  0  0  0
  150.1681  137.7188  155.8591 C   0  0  0  0  0  0  0  0  0  0  0  0
  153.5814  140.0303  158.7472 H   0  0  0  0  0  0  0  0  0  0  0  0
  152.0329  139.2104  158.9509 H   0  0  0  0  0  0  0  0  0  0  0  0
  152.1093  140.9814  158.9428 H   0  0  0  0  0  0  0  0  0  0  0  0
  150.3001  140.0505  157.5310 H   0  0  0  0  0  0  0  0  0  0  0  0
  150.1646  142.1170  156.2048 H   0  0  0  0  0  0  0  0  0  0  0  0
  151.5284  141.5991  155.1554 H   0  0  0  0  0  0  0  0  0  0  0  0
  149.8924  140.4024  153.8695 H   0  0  0  0  0  0  0  0  0  0  0  0
  146.5522  141.4080  155.1325 H   0  0  0  0  0  0  0  0  0  0  0  0
  147.8621  141.8646  154.0411 H   0  0  0  0  0  0  0  0  0  0  0  0
  147.8947  142.3634  155.7354 H   0  0  0  0  0  0  0  0  0  0  0  0
  146.4792  136.7127  156.8912 H   0  0  0  0  0  0  0  0  0  0  0  0
  146.2463  138.8495  150.8197 H   0  0  0  0  0  0  0  0  0  0  0  0
  144.4093  136.1344  152.6869 H   0  0  0  0  0  0  0  0  0  0  0  0
  144.5143  136.9319  151.1352 H   0  0  0  0  0  0  0  0  0  0  0  0
  146.7255  135.7596  150.7077 H   0  0  0  0  0  0  0  0  0  0  0  0
  147.4650  135.2592  152.6480 H   0  0  0  0  0  0  0  0  0  0  0  0
  144.5970  134.7101  149.8536 H   0  0  0  0  0  0  0  0  0  0  0  0
  144.6798  133.3128  152.5656 H   0  0  0  0  0  0  0  0  0  0  0  0
  143.2682  134.0186  151.7786 H   0  0  0  0  0  0  0  0  0  0  0  0
  144.0687  131.3341  151.5658 H   0  0  0  0  0  0  0  0  0  0  0  0
  143.0530  132.1326  150.3645 H   0  0  0  0  0  0  0  0  0  0  0  0
  145.7214  131.2063  149.8816 H   0  0  0  0  0  0  0  0  0  0  0  0
  144.7771  132.2774  148.8413 H   0  0  0  0  0  0  0  0  0  0  0  0
  151.4621  138.3797  153.6673 H   0  0  0  0  0  0  0  0  0  0  0  0
  152.7353  138.9919  154.7854 H   0  0  0  0  0  0  0  0  0  0  0  0
  151.6438  136.3157  154.9712 H   0  0  0  0  0  0  0  0  0  0  0  0
  152.2347  137.2228  156.4190 H   0  0  0  0  0  0  0  0  0  0  0  0
  149.8470  137.5448  156.8864 H   0  0  0  0  0  0  0  0  0  0  0  0
  149.4512  137.3233  155.1403 H   0  0  0  0  0  0  0  0  0  0  0  0
  1  2  1  0  0  0  0
  1 29  1  0  0  0  0
  1 30  1  0  0  0  0
  1 31  1  0  0  0  0
  2  3  1  0  0  0  0
  3 25  1  0  0  0  0
  3  4  1  0  0  0  0
  3 32  1  0  0  0  0
  4  5  1  0  0  0  0
  4 33  1  0  0  0  0
  4 34  1  0  0  0  0
  5  6  1  0  0  0  0
  5 25  1  0  0  0  0
  5 35  1  0  0  0  0
  6  7  1  0  0  0  0
  6  8  1  0  0  0  0
  7 36  1  0  0  0  0
  7 37  1  0  0  0  0
  7 38  1  0  0  0  0
  8 13  1  0  0  0  0
  8  9  2  0  0  0  0
  9 10  1  0  0  0  0
 10 11  2  0  0  0  0
 10 39  1  0  0  0  0
 11 12  1  0  0  0  0
 12 16  1  0  0  0  0
 12 13  2  0  0  0  0
 13 14  1  0  0  0  0
 14 15  2  0  0  0  0
 15 16  1  0  0  0  0
 15 40  1  0  0  0  0
 16 17  1  0  0  0  0
 17 18  1  0  0  0  0
 17 41  1  0  0  0  0
 17 42  1  0  0  0  0
 18 19  1  0  0  0  0
 18 20  1  0  0  0  0
 18 43  1  0  0  0  0
 19 44  1  0  0  0  0
 20 24  1  0  0  0  0
 20 21  1  0  0  0  0
 20 45  1  0  0  0  0
 21 22  1  0  0  0  0
 21 46  1  0  0  0  0
 21 47  1  0  0  0  0
 22 23  1  0  0  0  0
 22 48  1  0  0  0  0
 22 49  1  0  0  0  0
 23 24  1  0  0  0  0
 23 50  1  0  0  0  0
 23 51  1  0  0  0  0
 25 28  1  0  0  0  0
 25 26  1  0  0  0  0
 26 27  1  0  0  0  0
 26 52  1  0  0  0  0
 26 53  1  0  0  0  0
 27 28  1  0  0  0  0
 27 54  1  0  0  0  0
 27 55  1  0  0  0  0
 28 56  1  0  0  0  0
 28 57  1  0  0  0  0
M  END
> <s_m_source_file>
AV-unprocessed.smi

> <i_m_source_file_index>
276

> <i_lp_mmshare_version>
43012

> <i_f3d_flags>
0

> <s_epik_input>
W0NIMl0xW0NIMl1bQ0gyXUMxMltDQEhdKE9bQ0gzXSlbQ0gyXVtDQEhdMk4oW0NIM10pYyhuW2NIXW4zKWMoYzM0KW5bY0hdbjRbQ0gyXVtDQEhdKFtPSF0pW0NAQEhdNVtDSDJdW0NIMl1bQ0gyXU81

> <s_epik_cmdline>
J2VwaWtfcHl0aG9uJywgJy1waCcsICc3LjAnLCAnLXRuJywgJzgnLCAnLW1hJywgJzIwMCcsICctbWV0YWxfYmluZGluZycsICctaW1hZScsICc8aW5maWxlLm1hZT4nLCAnLW9tYWUnLCAnPG91dGZpbGUubWFlPic=

> <r_lp_tautomer_probability>
1

> <r_epik_Ionization_Penalty>
0.00204117

> <r_epik_Ionization_Penalty_Charging>
0

> <r_epik_Ionization_Penalty_Neutral>
0.00204117

> <r_epik_State_Penalty>
0.00127401

> <r_epik_Charging_Adjusted_Penalty>
0.00127401

> <i_epik_Tot_Q>
0

> <i_epik_Tot_abs_Q>
0

> <r_epik_Metal_State_Penalty>
-0

> <b_epik_Metal_Only>
0

> <s_lp_Force_Field>
OPLS_2005

> <r_lp_Energy>
57.0409

> <b_lp_Chiralities_Consistent>
1

> <s_lp_Variant>
AV-unprocessed.smi:276-8

> <Gold.Version>
5.8.1

> <Gold.Id.Protein>
6NUR|6NUR_protein|mol2

> <Gold.PLP.Fitness>
45.6200

> <Gold.PLP.PLP>
-39.7786

> <Gold.PLP.part.hbond>
-2.0000

> <Gold.PLP.part.metal>
0.0000

> <Gold.PLP.part.buried>
-5.6287

> <Gold.PLP.part.nonpolar>
-35.0716

> <Gold.PLP.part.repulsive>
2.2983

> <Gold.PLP.ligand.clash>
0.0000

> <Gold.PLP.ligand.torsion>
1.4752

> <Gold.PLP.Chemscore.Hbond>
1.9033

> <Gold.PLP.Chemscore.CHOScore>
0.7682

> <Gold.PLP.Chemscore.Metal>
0.0000

> <Gold.Chemscore.Hbonds>
donor molecule, donor type, donor heavy atom, donor atom, acceptor molecule, acceptor atom, score
      L1  H    19    44       P1  7948  0.90
      P1  H  7997  8008       L1     2  0.91
      L1  C    15    40       P1 10171  0.73

> <Gold.PLP.Chemscore.Internal.Correction>
0.7773

> <Gold.Rescore>
     Score         DG    S(hbond)    S(metal)    S(lipo)     H(rot)  DE(clash)    DE(int)     intcor
     10.47     -14.04       1.21        0.00      98.01       2.72       0.79       2.79       ----

> <Gold.Chemscore.Fitness>
10.4705

> <Gold.Chemscore.DG>
-14.0445

> <Gold.Chemscore.ZeroCoef>
-5.4800

> <Gold.Chemscore.Hbond>
1.2136

> <Gold.Chemscore.Metal>
0.0000

> <Gold.Chemscore.Lipo>
98.0103

> <Gold.Chemscore.Internal_Hbond>
0.0000

> <Gold.Chemscore.DEClash>
0.7850

> <Gold.Chemscore.DEInternal>
2.7890

> <Gold.Chemscore.Rot>
2.7172

> <Gold.Chemscore.Internal.Correction>
   9.000000E+99

> <Gold.Chemscore.Hbonds>
donor molecule, donor type, donor heavy atom, donor atom, acceptor molecule, acceptor atom, score
      L1  H    19    44       P1  7948  0.88
      P1  H  7997  8008       L1     2  0.22

> <Gold.Chemscore.Hbond.Weighted>
-4.0533

> <Gold.Chemscore.Metal.Weighted>
-0.0000

> <Gold.Chemscore.Lipo.Weighted>
-11.4672

> <Gold.Chemscore.Internal_Hbond.Weighted>
0.0000

> <Gold.Chemscore.DEClash.Weighted>
0.7850

> <Gold.Chemscore.DEInternal.Weighted>
2.7890

> <Gold.Chemscore.Rot.Weighted>
6.9560

> <Gold.Chemscore.Internal.Correction.Weighted>
   9.000000E+99

> <Gold.Protein.RotatedTorsions>
[ 6907 6896 6895 6894 ] final -162.68 input  -60.11 | X-H torsion
[ 7974 7965 7964 7962 ] final   14.08 input  175.53 | X-H torsion
[ 8008 7997 7996 7995 ] final  -51.67 input   59.86 | X-H torsion
[ 10167 10162 10161 10158 ] final   52.02 input  -65.29 | X-H torsion
[ 10718 10713 10712 10709 ] final   21.38 input   66.30 | X-H torsion
[ 10763 10752 10751 10750 ] final  101.52 input  -60.55 | X-H torsion
[ 11005 11000 10999 10996 ] final  -84.33 input  -57.11 | X-H torsion

> <Gold.Protein.ActiveResidues>
 VAL166  LYS551  ARG553  GLY616  TRP617  ASP618  TYR619  PRO620  LYS621  CYS622 
 ASP623  PHE694  ASN695  SER759  ASP760  ASP761  ALA762  ILE779  LEU786  VAL792 
 PHE793  MET794  SER795  GLU796  ALA797  LYS798  CYS799  TRP800  GLU811  SER814 

> <Gold.Protein.RotatedAtoms>
  151.3841  133.3811  159.2713 H   0  0  0  0  0  0  0  0  0  0  0  0  # atno 6907 bound_to 6896
  150.9555  134.8951  159.7709 H   0  0  0  0  0  0  0  0  0  0  0  0  # atno 6908 bound_to 6896
  152.5129  134.3798  159.9399 H   0  0  0  0  0  0  0  0  0  0  0  0  # atno 6909 bound_to 6896
  146.2314  139.9094  142.8527 H   0  0  0  0  0  0  0  0  0  0  0  0  # atno 7974 bound_to 7965
  154.4088  140.1242  156.4866 H   0  0  0  0  0  0  0  0  0  0  0  0  # atno 8008 bound_to 7997
  155.7031  140.3494  155.4922 H   0  0  0  0  0  0  0  0  0  0  0  0  # atno 8009 bound_to 7997
  155.9367  140.1079  157.1079 H   0  0  0  0  0  0  0  0  0  0  0  0  # atno 8010 bound_to 7997
  140.2558  144.3428  150.6333 H   0  0  0  0  0  0  0  0  0  0  0  0  # atno 10167 bound_to 10162
  157.1377  130.6619  149.5971 H   0  0  0  0  0  0  0  0  0  0  0  0  # atno 10718 bound_to 10713
  153.3277  135.4042  155.1469 H   0  0  0  0  0  0  0  0  0  0  0  0  # atno 10763 bound_to 10752
  154.8616  135.3603  154.5512 H   0  0  0  0  0  0  0  0  0  0  0  0  # atno 10764 bound_to 10752
  153.5949  135.7073  153.5467 H   0  0  0  0  0  0  0  0  0  0  0  0  # atno 10765 bound_to 10752
  141.1651  133.7340  156.8851 H   0  0  0  0  0  0  0  0  0  0  0  0  # atno 11005 bound_to 11000
  145.2245  140.9948  143.4026 LP  0  0  0  0  0  0  0  0  0  0  0  0  # atno 17320 bound_to 7965
  144.9582  139.4008  143.6369 LP  0  0  0  0  0  0  0  0  0  0  0  0  # atno 17321 bound_to 7965
  140.6005  143.2167  151.7082 LP  0  0  0  0  0  0  0  0  0  0  0  0  # atno 17342 bound_to 10162
  139.5032  144.3801  152.0385 LP  0  0  0  0  0  0  0  0  0  0  0  0  # atno 17343 bound_to 10162
  155.9795  130.4789  150.6718 LP  0  0  0  0  0  0  0  0  0  0  0  0  # atno 17370 bound_to 10713
  157.4335  131.0852  151.1014 LP  0  0  0  0  0  0  0  0  0  0  0  0  # atno 17371 bound_to 10713
  140.1687  134.9115  157.2807 LP  0  0  0  0  0  0  0  0  0  0  0  0  # atno 17394 bound_to 11000
  140.2527  134.3664  155.7436 LP  0  0  0  0  0  0  0  0  0  0  0  0  # atno 17395 bound_to 11000

$$$$
