AV-unprocessed.smi:1477|AV-procd|sdf|5981|dock4
  -GOLD-   22720 6 73D 1   1.00000     0.00000
 Structure written by MMmdl.
 33 34  0  0  0  0  0  0  0  0  1 V2000
  153.7958  141.3542  161.0436 C   0  0  0  0  0  0  0  0  0  0  0  0
  152.7840  142.0093  160.2113 N   0  0  0  0  0  0  0  0  0  0  0  0
  152.3613  141.3428  159.0458 C   0  0  0  0  0  0  0  0  0  0  0  0
  151.4395  141.8548  158.2097 C   0  0  0  0  0  0  0  0  0  0  0  0
  151.0948  141.1009  157.0787 N   0  0  0  0  0  0  0  0  0  0  0  0
  151.7737  140.1070  156.4722 C   0  0  0  0  0  0  0  0  0  0  0  0
  152.8635  139.6653  156.8318 O   0  0  0  0  0  0  0  0  0  0  0  0
  151.1113  139.5151  155.2280 C   0  0  0  0  0  0  0  0  0  0  0  0
  150.4225  140.5392  154.5265 O   0  0  0  0  0  0  0  0  0  0  0  0
  149.0642  140.6444  154.9165 C   0  0  0  0  0  0  0  0  0  0  0  0
  148.2988  141.3957  153.8483 C   0  0  0  0  0  0  0  0  0  0  0  0
  146.9339  141.9701  154.1539 C   0  0  0  0  0  0  0  0  0  0  0  0
  147.0625  140.7980  153.2151 C   0  0  0  0  0  0  0  0  0  0  0  0
  150.8780  143.1501  158.5667 C   0  0  0  0  0  0  0  0  0  0  0  0
  151.2775  143.7927  159.6820 C   0  0  0  0  0  0  0  0  0  0  0  0
  152.2854  143.2242  160.5802 C   0  0  0  0  0  0  0  0  0  0  0  0
  152.6579  143.8027  161.6014 O   0  0  0  0  0  0  0  0  0  0  0  0
  154.1392  140.4081  160.6242 H   0  0  0  0  0  0  0  0  0  0  0  0
  153.3955  141.1447  162.0365 H   0  0  0  0  0  0  0  0  0  0  0  0
  154.6715  141.9944  161.1586 H   0  0  0  0  0  0  0  0  0  0  0  0
  152.8364  140.3874  158.8736 H   0  0  0  0  0  0  0  0  0  0  0  0
  150.2037  141.3381  156.6669 H   0  0  0  0  0  0  0  0  0  0  0  0
  151.8791  139.0673  154.5954 H   0  0  0  0  0  0  0  0  0  0  0  0
  150.4169  138.7260  155.5216 H   0  0  0  0  0  0  0  0  0  0  0  0
  148.6268  139.6548  155.0599 H   0  0  0  0  0  0  0  0  0  0  0  0
  148.9820  141.1884  155.8585 H   0  0  0  0  0  0  0  0  0  0  0  0
  148.9289  142.0017  153.2000 H   0  0  0  0  0  0  0  0  0  0  0  0
  146.5115  141.7792  155.1386 H   0  0  0  0  0  0  0  0  0  0  0  0
  146.6884  142.9376  153.7209 H   0  0  0  0  0  0  0  0  0  0  0  0
  146.9030  140.9829  152.1548 H   0  0  0  0  0  0  0  0  0  0  0  0
  146.7255  139.8276  153.5745 H   0  0  0  0  0  0  0  0  0  0  0  0
  150.1277  143.6314  157.9616 H   0  0  0  0  0  0  0  0  0  0  0  0
  150.8420  144.7512  159.9231 H   0  0  0  0  0  0  0  0  0  0  0  0
  1  2  1  0  0  0  0
  1 18  1  0  0  0  0
  1 19  1  0  0  0  0
  1 20  1  0  0  0  0
  2 16  1  0  0  0  0
  2  3  1  0  0  0  0
  3  4  2  0  0  0  0
  3 21  1  0  0  0  0
  4  5  1  0  0  0  0
  4 14  1  0  0  0  0
  5  6  1  0  0  0  0
  5 22  1  0  0  0  0
  6  7  2  0  0  0  0
  6  8  1  0  0  0  0
  8  9  1  0  0  0  0
  8 23  1  0  0  0  0
  8 24  1  0  0  0  0
  9 10  1  0  0  0  0
 10 11  1  0  0  0  0
 10 25  1  0  0  0  0
 10 26  1  0  0  0  0
 11 13  1  0  0  0  0
 11 12  1  0  0  0  0
 11 27  1  0  0  0  0
 12 13  1  0  0  0  0
 12 28  1  0  0  0  0
 12 29  1  0  0  0  0
 13 30  1  0  0  0  0
 13 31  1  0  0  0  0
 14 15  2  0  0  0  0
 14 32  1  0  0  0  0
 15 16  1  0  0  0  0
 15 33  1  0  0  0  0
 16 17  2  0  0  0  0
M  END
> <s_m_source_file>
AV-unprocessed.smi

> <i_m_source_file_index>
1477

> <i_lp_mmshare_version>
43012

> <i_f3d_flags>
0

> <s_epik_input>
Tz1jMVtjSF1bY0hdYyhbY0hdbjFbQ0gzXSlbTkhdQyg9TylbQ0gyXU9bQ0gyXVtDSF0yW0NIMl1bQ0gyXTI=

> <s_epik_cmdline>
J2VwaWtfcHl0aG9uJywgJy1waCcsICc3LjAnLCAnLXRuJywgJzgnLCAnLW1hJywgJzIwMCcsICctbWV0YWxfYmluZGluZycsICctaW1hZScsICc8aW5maWxlLm1hZT4nLCAnLW9tYWUnLCAnPG91dGZpbGUubWFlPic=

> <r_lp_tautomer_probability>
1

> <r_epik_Ionization_Penalty>
2.50647e-06

> <r_epik_Ionization_Penalty_Charging>
2.2009e-06

> <r_epik_Ionization_Penalty_Neutral>
3.05566e-07

> <r_epik_State_Penalty>
-0

> <r_epik_Charging_Adjusted_Penalty>
2.2009e-06

> <i_epik_Tot_Q>
0

> <i_epik_Tot_abs_Q>
0

> <r_epik_Metal_State_Penalty>
-0

> <b_epik_Metal_Only>
0

> <s_lp_Force_Field>
OPLS_2005

> <r_lp_Energy>
27.664

> <b_lp_Chiralities_Consistent>
1

> <s_lp_Variant>
AV-unprocessed.smi:1477-1

> <Gold.Version>
5.8.1

> <Gold.Id.Protein>
6NUR|6NUR_protein|mol2

> <Gold.PLP.Fitness>
43.1234

> <Gold.PLP.PLP>
-38.9081

> <Gold.PLP.part.hbond>
-2.0000

> <Gold.PLP.part.metal>
0.0000

> <Gold.PLP.part.buried>
-2.3002

> <Gold.PLP.part.nonpolar>
-33.2376

> <Gold.PLP.part.repulsive>
0.3053

> <Gold.PLP.ligand.clash>
0.0000

> <Gold.PLP.ligand.torsion>
1.1608

> <Gold.PLP.Chemscore.Hbond>
1.9920

> <Gold.PLP.Chemscore.CHOScore>
0.0000

> <Gold.PLP.Chemscore.Metal>
0.0000

> <Gold.Chemscore.Hbonds>
donor molecule, donor type, donor heavy atom, donor atom, acceptor molecule, acceptor atom, score
      P1  H  7989  7998       L1     9  0.82
      P1  H  7997  8010       L1     7  1.00

> <Gold.PLP.Chemscore.Internal.Correction>
0.5609

> <Gold.Rescore>
     Score         DG    S(hbond)    S(metal)    S(lipo)     H(rot)  DE(clash)    DE(int)     intcor
     12.96     -16.42       1.76        0.00      78.00       1.58       0.04       3.42       ----

> <Gold.Chemscore.Fitness>
12.9575

> <Gold.Chemscore.DG>
-16.4212

> <Gold.Chemscore.ZeroCoef>
-5.4800

> <Gold.Chemscore.Hbond>
1.7570

> <Gold.Chemscore.Metal>
0.0000

> <Gold.Chemscore.Lipo>
78.0031

> <Gold.Chemscore.Internal_Hbond>
0.0000

> <Gold.Chemscore.DEClash>
0.0448

> <Gold.Chemscore.DEInternal>
3.4188

> <Gold.Chemscore.Rot>
1.5834

> <Gold.Chemscore.Internal.Correction>
   9.000000E+99

> <Gold.Chemscore.Hbonds>
donor molecule, donor type, donor heavy atom, donor atom, acceptor molecule, acceptor atom, score
      P1  H  7989  7998       L1     9  0.13
      P1  H  7997  8010       L1     7  0.97

> <Gold.Chemscore.Hbond.Weighted>
-5.8684

> <Gold.Chemscore.Metal.Weighted>
-0.0000

> <Gold.Chemscore.Lipo.Weighted>
-9.1264

> <Gold.Chemscore.Internal_Hbond.Weighted>
0.0000

> <Gold.Chemscore.DEClash.Weighted>
0.0448

> <Gold.Chemscore.DEInternal.Weighted>
3.4188

> <Gold.Chemscore.Rot.Weighted>
4.0536

> <Gold.Chemscore.Internal.Correction.Weighted>
   9.000000E+99

> <Gold.Protein.RotatedTorsions>
[ 6907 6896 6895 6894 ] final  118.81 input  -60.11 | X-H torsion
[ 7974 7965 7964 7962 ] final   58.24 input  175.53 | X-H torsion
[ 8008 7997 7996 7995 ] final   67.71 input   59.86 | X-H torsion
[ 10167 10162 10161 10158 ] final   -8.31 input  -65.29 | X-H torsion
[ 10718 10713 10712 10709 ] final  175.80 input   66.30 | X-H torsion
[ 10763 10752 10751 10750 ] final   66.29 input  -60.55 | X-H torsion
[ 11005 11000 10999 10996 ] final  151.54 input  -57.11 | X-H torsion

> <Gold.Protein.ActiveResidues>
 VAL166  LYS551  ARG553  GLY616  TRP617  ASP618  TYR619  PRO620  LYS621  CYS622 
 ASP623  PHE694  ASN695  SER759  ASP760  ASP761  ALA762  ILE779  LEU786  VAL792 
 PHE793  MET794  SER795  GLU796  ALA797  LYS798  CYS799  TRP800  GLU811  SER814 

> <Gold.Protein.RotatedAtoms>
  152.4517  133.7642  159.6762 H   0  0  0  0  0  0  0  0  0  0  0  0  # atno 6907 bound_to 6896
  150.8431  133.7895  159.3059 H   0  0  0  0  0  0  0  0  0  0  0  0  # atno 6908 bound_to 6896
  151.5513  135.1070  160.0002 H   0  0  0  0  0  0  0  0  0  0  0  0  # atno 6909 bound_to 6896
  145.9203  139.3724  143.0482 H   0  0  0  0  0  0  0  0  0  0  0  0  # atno 7974 bound_to 7965
  155.6971  140.3495  155.4917 H   0  0  0  0  0  0  0  0  0  0  0  0  # atno 8008 bound_to 7997
  155.9473  140.1112  157.1028 H   0  0  0  0  0  0  0  0  0  0  0  0  # atno 8009 bound_to 7997
  154.4114  140.1201  156.4992 H   0  0  0  0  0  0  0  0  0  0  0  0  # atno 8010 bound_to 7997
  140.7055  143.5982  150.8824 H   0  0  0  0  0  0  0  0  0  0  0  0  # atno 10167 bound_to 10162
  156.9296  130.9967  151.2989 H   0  0  0  0  0  0  0  0  0  0  0  0  # atno 10718 bound_to 10713
  153.0133  135.5326  154.6800 H   0  0  0  0  0  0  0  0  0  0  0  0  # atno 10763 bound_to 10752
  154.5962  135.2863  155.0585 H   0  0  0  0  0  0  0  0  0  0  0  0  # atno 10764 bound_to 10752
  154.1660  135.6540  153.5050 H   0  0  0  0  0  0  0  0  0  0  0  0  # atno 10765 bound_to 10752
  140.1228  134.8853  157.2095 H   0  0  0  0  0  0  0  0  0  0  0  0  # atno 11005 bound_to 11000
  145.8558  140.9503  143.0726 LP  0  0  0  0  0  0  0  0  0  0  0  0  # atno 17320 bound_to 7965
  144.6752  140.0466  143.7479 LP  0  0  0  0  0  0  0  0  0  0  0  0  # atno 17321 bound_to 7965
  139.9707  143.6060  152.2974 LP  0  0  0  0  0  0  0  0  0  0  0  0  # atno 17342 bound_to 10162
  139.6646  144.7662  151.1898 LP  0  0  0  0  0  0  0  0  0  0  0  0  # atno 17343 bound_to 10162
  157.5855  130.8407  149.8584 LP  0  0  0  0  0  0  0  0  0  0  0  0  # atno 17370 bound_to 10713
  156.0453  130.3729  150.1333 LP  0  0  0  0  0  0  0  0  0  0  0  0  # atno 17371 bound_to 10713
  140.2943  134.3204  155.7306 LP  0  0  0  0  0  0  0  0  0  0  0  0  # atno 17394 bound_to 11000
  141.2155  133.7553  156.9549 LP  0  0  0  0  0  0  0  0  0  0  0  0  # atno 17395 bound_to 11000

$$$$
