AV-unprocessed.smi:2692|AV-procd|sdf|10394|dock9
  -GOLD-   2272014433D 1   1.00000     0.00000
 Structure written by MMmdl.
 21 21  0  0  0  0  0  0  0  0  4 V2000
  147.4681  138.7224  152.4441 N   0  3  0  0  0  0  0  0  0  0  0  0
  147.9745  139.0399  153.7900 C   0  0  0  0  0  0  0  0  0  0  0  0
  149.5096  139.0678  153.8187 C   0  0  0  0  0  0  0  0  0  0  0  0
  150.0465  140.0172  154.8725 C   0  0  0  0  0  0  0  0  0  0  0  0
  149.4984  141.3095  155.0285 C   0  0  0  0  0  0  0  0  0  0  0  0
  149.9873  142.1402  155.9759 N   0  3  0  0  0  0  0  0  0  0  0  0
  150.9964  141.7935  156.8040 C   0  0  0  0  0  0  0  0  0  0  0  0
  151.5827  140.5166  156.6953 C   0  0  0  0  0  0  0  0  0  0  0  0
  152.6000  140.1522  157.5261 O   0  5  0  0  0  0  0  0  0  0  0  0
  151.1056  139.6195  155.7181 C   0  0  0  0  0  0  0  0  0  0  0  0
  147.6404  137.7480  152.2407 H   0  0  0  0  0  0  0  0  0  0  0  0
  147.9425  139.2955  151.7607 H   0  0  0  0  0  0  0  0  0  0  0  0
  147.5714  140.0055  154.0974 H   0  0  0  0  0  0  0  0  0  0  0  0
  147.5932  138.2945  154.4888 H   0  0  0  0  0  0  0  0  0  0  0  0
  149.8997  138.0691  154.0201 H   0  0  0  0  0  0  0  0  0  0  0  0
  149.8978  139.3599  152.8418 H   0  0  0  0  0  0  0  0  0  0  0  0
  148.6901  141.7035  154.4298 H   0  0  0  0  0  0  0  0  0  0  0  0
  151.3009  142.5412  157.5219 H   0  0  0  0  0  0  0  0  0  0  0  0
  149.5782  143.0697  156.0719 H   0  0  0  0  0  0  0  0  0  0  0  0
  151.5459  138.6376  155.6211 H   0  0  0  0  0  0  0  0  0  0  0  0
  146.4753  138.9034  152.4037 H   0  0  0  0  0  0  0  0  0  0  0  0
  1  2  1  0  0  0  0
  1 11  1  0  0  0  0
  1 12  1  0  0  0  0
  1 21  1  0  0  0  0
  2  3  1  0  0  0  0
  2 13  1  0  0  0  0
  2 14  1  0  0  0  0
  3 15  1  0  0  0  0
  3 16  1  0  0  0  0
  3  4  1  0  0  0  0
  4  5  1  0  0  0  0
  4 10  2  0  0  0  0
  5  6  2  0  0  0  0
  5 17  1  0  0  0  0
  6  7  1  0  0  0  0
  6 19  1  0  0  0  0
  7  8  2  0  0  0  0
  7 18  1  0  0  0  0
  8  9  1  0  0  0  0
  8 10  1  0  0  0  0
 10 20  1  0  0  0  0
M  CHG  1   1   1
M  CHG  1   6   1
M  CHG  1   9  -1
M  END
> <s_m_source_file>
AV-unprocessed.smi

> <i_m_source_file_index>
2692

> <i_lp_mmshare_version>
43012

> <i_f3d_flags>
0

> <s_epik_input>
W05IMl1bQ0gyXVtDSDJdYzFbY0hdbltjSF1jKFtPSF0pW2NIXTE=

> <s_epik_cmdline>
J2VwaWtfcHl0aG9uJywgJy1waCcsICc3LjAnLCAnLXRuJywgJzgnLCAnLW1hJywgJzIwMCcsICctbWV0YWxfYmluZGluZycsICctaW1hZScsICc8aW5maWxlLm1hZT4nLCAnLW9tYWUnLCAnPG91dGZpbGUubWFlPic=

> <r_lp_tautomer_probability>
0.56342

> <r_epik_Ionization_Penalty>
0.0470523

> <r_epik_Ionization_Penalty_Charging>
0.0470523

> <r_epik_Ionization_Penalty_Neutral>
0

> <r_epik_State_Penalty>
0.376149

> <r_epik_Charging_Adjusted_Penalty>
0.423201

> <i_epik_Tot_Q>
1

> <i_epik_Tot_abs_Q>
3

> <r_epik_Metal_State_Penalty>
2.7829

> <b_epik_Metal_Only>
0

> <s_lp_Force_Field>
OPLS_2005

> <r_lp_Energy>
5.09983

> <b_lp_Chiralities_Consistent>
1

> <s_lp_Variant>
AV-unprocessed.smi:2692-1

> <Gold.Version>
5.8.1

> <Gold.Id.Protein>
6NUR|6NUR_protein|mol2

> <Gold.PLP.Fitness>
39.6878

> <Gold.PLP.PLP>
-19.7315

> <Gold.PLP.part.hbond>
-4.0000

> <Gold.PLP.part.metal>
0.0000

> <Gold.PLP.part.buried>
0.8989

> <Gold.PLP.part.nonpolar>
-16.4746

> <Gold.PLP.part.repulsive>
0.1948

> <Gold.PLP.ligand.clash>
0.0000

> <Gold.PLP.ligand.torsion>
0.3659

> <Gold.PLP.Chemscore.Hbond>
6.8960

> <Gold.PLP.Chemscore.CHOScore>
0.0000

> <Gold.PLP.Chemscore.Metal>
0.0000

> <Gold.Chemscore.Hbonds>
donor molecule, donor type, donor heavy atom, donor atom, acceptor molecule, acceptor atom, score
      L1  H     1    11       P1  7948  1.95
      L1  H     1    12       P1  7957  0.96
      L1  H     6    19       P1  8028  2.00
      P1  H  7997  8010       L1     9  1.92

> <Gold.PLP.Chemscore.Internal.Correction>
0.0002

> <Gold.Rescore>
     Score         DG    S(hbond)    S(metal)    S(lipo)     H(rot)  DE(clash)    DE(int)     intcor
     18.65     -20.23       3.79        0.00      47.81       1.36       1.12       0.47       ----

> <Gold.Chemscore.Fitness>
18.6491

> <Gold.Chemscore.DG>
-20.2327

> <Gold.Chemscore.ZeroCoef>
-5.4800

> <Gold.Chemscore.Hbond>
3.7882

> <Gold.Chemscore.Metal>
0.0000

> <Gold.Chemscore.Lipo>
47.8067

> <Gold.Chemscore.Internal_Hbond>
0.0000

> <Gold.Chemscore.DEClash>
1.1166

> <Gold.Chemscore.DEInternal>
0.4670

> <Gold.Chemscore.Rot>
1.3646

> <Gold.Chemscore.Internal.Correction>
   9.000000E+99

> <Gold.Chemscore.Hbonds>
donor molecule, donor type, donor heavy atom, donor atom, acceptor molecule, acceptor atom, score
      L1  H     1    11       P1  7948  0.88
      L1  H     1    12       P1  7957  0.91
      L1  H     6    19       P1  8028  1.00
      P1  H  7997  8010       L1     9  0.73

> <Gold.Chemscore.Hbond.Weighted>
-12.6527

> <Gold.Chemscore.Metal.Weighted>
-0.0000

> <Gold.Chemscore.Lipo.Weighted>
-5.5934

> <Gold.Chemscore.Internal_Hbond.Weighted>
0.0000

> <Gold.Chemscore.DEClash.Weighted>
1.1166

> <Gold.Chemscore.DEInternal.Weighted>
0.4670

> <Gold.Chemscore.Rot.Weighted>
3.4934

> <Gold.Chemscore.Internal.Correction.Weighted>
   9.000000E+99

> <Gold.Protein.RotatedTorsions>
[ 6907 6896 6895 6894 ] final   64.11 input  -60.11 | X-H torsion
[ 7974 7965 7964 7962 ] final -109.22 input  175.53 | X-H torsion
[ 8008 7997 7996 7995 ] final   64.55 input   59.86 | X-H torsion
[ 10167 10162 10161 10158 ] final   64.99 input  -65.29 | X-H torsion
[ 10718 10713 10712 10709 ] final  102.23 input   66.30 | X-H torsion
[ 10763 10752 10751 10750 ] final  179.33 input  -60.55 | X-H torsion
[ 11005 11000 10999 10996 ] final -177.05 input  -57.11 | X-H torsion

> <Gold.Protein.ActiveResidues>
 VAL166  LYS551  ARG553  GLY616  TRP617  ASP618  TYR619  PRO620  LYS621  CYS622 
 ASP623  PHE694  ASN695  SER759  ASP760  ASP761  ALA762  ILE779  LEU786  VAL792 
 PHE793  MET794  SER795  GLU796  ALA797  LYS798  CYS799  TRP800  GLU811  SER814 

> <Gold.Protein.RotatedAtoms>
  152.4306  134.5785  159.9940 H   0  0  0  0  0  0  0  0  0  0  0  0  # atno 6907 bound_to 6896
  151.5909  133.3361  159.3035 H   0  0  0  0  0  0  0  0  0  0  0  0  # atno 6908 bound_to 6896
  150.8198  134.7436  159.6827 H   0  0  0  0  0  0  0  0  0  0  0  0  # atno 6909 bound_to 6896
  145.1831  140.8980  143.3468 H   0  0  0  0  0  0  0  0  0  0  0  0  # atno 7974 bound_to 7965
  155.6478  140.3497  155.4737 H   0  0  0  0  0  0  0  0  0  0  0  0  # atno 8008 bound_to 7997
  155.9873  140.1186  157.0694 H   0  0  0  0  0  0  0  0  0  0  0  0  # atno 8009 bound_to 7997
  154.4208  140.1126  156.5503 H   0  0  0  0  0  0  0  0  0  0  0  0  # atno 8010 bound_to 7997
  140.1161  144.4774  150.6948 H   0  0  0  0  0  0  0  0  0  0  0  0  # atno 10167 bound_to 10162
  157.6808  131.0747  150.5373 H   0  0  0  0  0  0  0  0  0  0  0  0  # atno 10718 bound_to 10713
  154.5192  135.2793  155.1277 H   0  0  0  0  0  0  0  0  0  0  0  0  # atno 10763 bound_to 10752
  154.2841  135.6279  153.5362 H   0  0  0  0  0  0  0  0  0  0  0  0  # atno 10764 bound_to 10752
  152.9933  135.5658  154.5677 H   0  0  0  0  0  0  0  0  0  0  0  0  # atno 10765 bound_to 10752
  140.4453  134.6394  157.4776 H   0  0  0  0  0  0  0  0  0  0  0  0  # atno 11005 bound_to 11000
  145.0116  139.3505  143.6117 LP  0  0  0  0  0  0  0  0  0  0  0  0  # atno 17320 bound_to 7965
  146.3449  139.9380  142.8744 LP  0  0  0  0  0  0  0  0  0  0  0  0  # atno 17321 bound_to 7965
  140.6898  143.2370  151.5162 LP  0  0  0  0  0  0  0  0  0  0  0  0  # atno 17342 bound_to 10162
  139.5593  144.2196  152.1665 LP  0  0  0  0  0  0  0  0  0  0  0  0  # atno 17343 bound_to 10162
  156.5681  130.4272  149.6032 LP  0  0  0  0  0  0  0  0  0  0  0  0  # atno 17370 bound_to 10713
  156.2764  130.7046  151.1858 LP  0  0  0  0  0  0  0  0  0  0  0  0  # atno 17371 bound_to 10713
  140.0043  134.6788  155.9481 LP  0  0  0  0  0  0  0  0  0  0  0  0  # atno 17394 bound_to 11000
  141.1688  133.6537  156.4575 LP  0  0  0  0  0  0  0  0  0  0  0  0  # atno 17395 bound_to 11000

$$$$
