AV-unprocessed.smi:2172|AV-procd|sdf|8835|dock2
  -GOLD-   2272012 23D 1   1.00000     0.00000
 Structure written by MMmdl.
 36 38  0  0  0  0  0  0  0  0  1 V2000
  153.3125  139.1033  157.2238 O   0  0  0  0  0  0  0  0  0  0  0  0
  153.0524  139.3668  158.5859 C   0  0  0  0  0  0  0  0  0  0  0  0
  152.7191  140.8048  158.8438 C   0  0  0  0  0  0  0  0  0  0  0  0
  152.1480  141.5730  157.9156 N   0  0  0  0  0  0  0  0  0  0  0  0
  152.0122  142.7845  158.5650 C   0  0  0  0  0  0  0  0  0  0  0  0
  151.4720  144.0110  158.1162 C   0  0  0  0  0  0  0  0  0  0  0  0
  151.4392  145.1320  158.9714 C   0  0  0  0  0  0  0  0  0  0  0  0
  151.9446  145.0430  160.2847 C   0  0  0  0  0  0  0  0  0  0  0  0
  152.4869  143.8302  160.7518 C   0  0  0  0  0  0  0  0  0  0  0  0
  152.5173  142.7140  159.8942 C   0  0  0  0  0  0  0  0  0  0  0  0
  152.9708  141.4057  160.0341 N   0  0  0  0  0  0  0  0  0  0  0  0
  153.5795  140.8252  161.2236 C   0  0  0  0  0  0  0  0  0  0  0  0
  154.8430  139.9989  160.9095 C   0  0  1  0  0  0  0  0  0  0  0  0
  155.9997  140.7049  161.3160 O   0  0  0  0  0  0  0  0  0  0  0  0
  154.7585  138.6136  161.5317 C   0  0  0  0  0  0  0  0  0  0  0  0
  154.8846  138.4368  162.9278 C   0  0  0  0  0  0  0  0  0  0  0  0
  154.7913  137.1494  163.4915 C   0  0  0  0  0  0  0  0  0  0  0  0
  154.5671  136.0320  162.6642 C   0  0  0  0  0  0  0  0  0  0  0  0
  154.4510  134.4553  163.3552 Cl  0  0  0  0  0  0  0  0  0  0  0  0
  154.4354  136.2030  161.2726 C   0  0  0  0  0  0  0  0  0  0  0  0
  154.5301  137.4900  160.7086 C   0  0  0  0  0  0  0  0  0  0  0  0
  152.6571  138.5024  156.9039 H   0  0  0  0  0  0  0  0  0  0  0  0
  152.2395  138.7279  158.9290 H   0  0  0  0  0  0  0  0  0  0  0  0
  153.9326  139.0912  159.1678 H   0  0  0  0  0  0  0  0  0  0  0  0
  151.0816  144.0890  157.1123 H   0  0  0  0  0  0  0  0  0  0  0  0
  151.0247  146.0646  158.6178 H   0  0  0  0  0  0  0  0  0  0  0  0
  151.9161  145.9063  160.9334 H   0  0  0  0  0  0  0  0  0  0  0  0
  152.8780  143.7593  161.7559 H   0  0  0  0  0  0  0  0  0  0  0  0
  153.8180  141.6303  161.9197 H   0  0  0  0  0  0  0  0  0  0  0  0
  152.8381  140.2047  161.7276 H   0  0  0  0  0  0  0  0  0  0  0  0
  154.9281  139.8752  159.8298 H   0  0  0  0  0  0  0  0  0  0  0  0
  156.5890  140.0974  161.7363 H   0  0  0  0  0  0  0  0  0  0  0  0
  155.0496  139.2877  163.5724 H   0  0  0  0  0  0  0  0  0  0  0  0
  154.8900  137.0210  164.5595 H   0  0  0  0  0  0  0  0  0  0  0  0
  154.2596  135.3482  160.6361 H   0  0  0  0  0  0  0  0  0  0  0  0
  154.4234  137.6118  159.6405 H   0  0  0  0  0  0  0  0  0  0  0  0
  1  2  1  0  0  0  0
  1 22  1  0  0  0  0
  2  3  1  0  0  0  0
  2 23  1  0  0  0  0
  2 24  1  0  0  0  0
  3 11  1  0  0  0  0
  3  4  2  0  0  0  0
  4  5  1  0  0  0  0
  5 10  2  0  0  0  0
  5  6  1  0  0  0  0
  6  7  2  0  0  0  0
  6 25  1  0  0  0  0
  7  8  1  0  0  0  0
  7 26  1  0  0  0  0
  8  9  2  0  0  0  0
  8 27  1  0  0  0  0
  9 10  1  0  0  0  0
  9 28  1  0  0  0  0
 10 11  1  0  0  0  0
 11 12  1  0  0  0  0
 12 13  1  0  0  0  0
 12 29  1  0  0  0  0
 12 30  1  0  0  0  0
 13 14  1  0  0  0  0
 13 15  1  0  0  0  0
 13 31  1  0  0  0  0
 14 32  1  0  0  0  0
 15 21  1  0  0  0  0
 15 16  2  0  0  0  0
 16 17  1  0  0  0  0
 16 33  1  0  0  0  0
 17 18  2  0  0  0  0
 17 34  1  0  0  0  0
 18 19  1  0  0  0  0
 18 20  1  0  0  0  0
 20 21  2  0  0  0  0
 20 35  1  0  0  0  0
 21 36  1  0  0  0  0
M  END
> <s_m_source_file>
AV-unprocessed.smi

> <i_m_source_file_index>
2172

> <i_lp_mmshare_version>
43012

> <i_f3d_flags>
0

> <s_epik_input>
W2NIXTFbY0hdW2NIXVtjSF1jKGMxMiluKGMobjIpW0NIMl1bT0hdKVtDSDJdW0NASF0oW09IXSljM1tjSF1bY0hdYyhDbClbY0hdW2NIXTM=

> <s_epik_cmdline>
J2VwaWtfcHl0aG9uJywgJy1waCcsICc3LjAnLCAnLXRuJywgJzgnLCAnLW1hJywgJzIwMCcsICctbWV0YWxfYmluZGluZycsICctaW1hZScsICc8aW5maWxlLm1hZT4nLCAnLW9tYWUnLCAnPG91dGZpbGUubWFlPic=

> <r_epik_Ionization_Penalty>
0.0634726

> <r_epik_Ionization_Penalty_Charging>
0

> <r_epik_Ionization_Penalty_Neutral>
0.0634726

> <r_epik_State_Penalty>
0.0551572

> <r_epik_Charging_Adjusted_Penalty>
0.0551572

> <i_epik_Tot_Q>
0

> <i_epik_Tot_abs_Q>
0

> <r_epik_Metal_State_Penalty>
5.78034e-05

> <b_epik_Metal_Only>
0

> <s_lp_Force_Field>
OPLS_2005

> <r_lp_Energy>
11.6759

> <b_lp_Chiralities_Consistent>
1

> <s_lp_Variant>
AV-unprocessed.smi:2172-2

> <Gold.Version>
5.8.1

> <Gold.Id.Protein>
6NUR|6NUR_protein|mol2

> <Gold.PLP.Fitness>
47.7180

> <Gold.PLP.PLP>
-47.5772

> <Gold.PLP.part.hbond>
-1.8860

> <Gold.PLP.part.metal>
0.0000

> <Gold.PLP.part.buried>
-3.9462

> <Gold.PLP.part.nonpolar>
-41.3467

> <Gold.PLP.part.repulsive>
0.0000

> <Gold.PLP.ligand.clash>
0.0000

> <Gold.PLP.ligand.torsion>
1.4489

> <Gold.PLP.Chemscore.Hbond>
1.0000

> <Gold.PLP.Chemscore.CHOScore>
0.0000

> <Gold.PLP.Chemscore.Metal>
0.0000

> <Gold.Chemscore.Hbonds>
donor molecule, donor type, donor heavy atom, donor atom, acceptor molecule, acceptor atom, score
      P1  H  7997  8008       L1     1  1.00

> <Gold.PLP.Chemscore.Internal.Correction>
0.0385

> <Gold.Rescore>
     Score         DG    S(hbond)    S(metal)    S(lipo)     H(rot)  DE(clash)    DE(int)     intcor
     14.93     -17.82       0.97        0.00     135.23       2.62       1.73       1.16       ----

> <Gold.Chemscore.Fitness>
14.9326

> <Gold.Chemscore.DG>
-17.8214

> <Gold.Chemscore.ZeroCoef>
-5.4800

> <Gold.Chemscore.Hbond>
0.9687

> <Gold.Chemscore.Metal>
0.0000

> <Gold.Chemscore.Lipo>
135.2263

> <Gold.Chemscore.Internal_Hbond>
0.0000

> <Gold.Chemscore.DEClash>
1.7310

> <Gold.Chemscore.DEInternal>
1.1578

> <Gold.Chemscore.Rot>
2.6232

> <Gold.Chemscore.Internal.Correction>
   9.000000E+99

> <Gold.Chemscore.Hbonds>
donor molecule, donor type, donor heavy atom, donor atom, acceptor molecule, acceptor atom, score
      P1  H  7997  8008       L1     1  0.65

> <Gold.Chemscore.Hbond.Weighted>
-3.2354

> <Gold.Chemscore.Metal.Weighted>
-0.0000

> <Gold.Chemscore.Lipo.Weighted>
-15.8215

> <Gold.Chemscore.Internal_Hbond.Weighted>
0.0000

> <Gold.Chemscore.DEClash.Weighted>
1.7310

> <Gold.Chemscore.DEInternal.Weighted>
1.1578

> <Gold.Chemscore.Rot.Weighted>
6.7154

> <Gold.Chemscore.Internal.Correction.Weighted>
   9.000000E+99

> <Gold.Protein.RotatedTorsions>
[ 6907 6896 6895 6894 ] final  136.45 input  -60.11 | X-H torsion
[ 7974 7965 7964 7962 ] final  -60.89 input  175.53 | X-H torsion
[ 8008 7997 7996 7995 ] final  -66.28 input   59.86 | X-H torsion
[ 10167 10162 10161 10158 ] final  -78.39 input  -65.29 | X-H torsion
[ 10718 10713 10712 10709 ] final  167.59 input   66.30 | X-H torsion
[ 10763 10752 10751 10750 ] final  -73.08 input  -60.55 | X-H torsion
[ 11005 11000 10999 10996 ] final   -6.86 input  -57.11 | X-H torsion

> <Gold.Protein.ActiveResidues>
 VAL166  LYS551  ARG553  GLY616  TRP617  ASP618  TYR619  PRO620  LYS621  CYS622 
 ASP623  PHE694  ASN695  SER759  ASP760  ASP761  ALA762  ILE779  LEU786  VAL792 
 PHE793  MET794  SER795  GLU796  ALA797  LYS798  CYS799  TRP800  GLU811  SER814 

> <Gold.Protein.RotatedAtoms>
  152.2892  133.5544  159.5546 H   0  0  0  0  0  0  0  0  0  0  0  0  # atno 6907 bound_to 6896
  150.7228  134.0454  159.3789 H   0  0  0  0  0  0  0  0  0  0  0  0  # atno 6908 bound_to 6896
  151.8360  135.0606  160.0493 H   0  0  0  0  0  0  0  0  0  0  0  0  # atno 6909 bound_to 6896
  145.8101  140.8603  143.0186 H   0  0  0  0  0  0  0  0  0  0  0  0  # atno 7974 bound_to 7965
  154.4725  140.0916  156.7179 H   0  0  0  0  0  0  0  0  0  0  0  0  # atno 8008 bound_to 7997
  155.4686  140.3463  155.4304 H   0  0  0  0  0  0  0  0  0  0  0  0  # atno 8009 bound_to 7997
  156.1062  140.1435  156.9389 H   0  0  0  0  0  0  0  0  0  0  0  0  # atno 8010 bound_to 7997
  140.4686  143.2433  151.8239 H   0  0  0  0  0  0  0  0  0  0  0  0  # atno 10167 bound_to 10162
  157.0493  131.0309  151.2686 H   0  0  0  0  0  0  0  0  0  0  0  0  # atno 10718 bound_to 10713
  154.4546  135.5909  153.6214 H   0  0  0  0  0  0  0  0  0  0  0  0  # atno 10763 bound_to 10752
  152.9817  135.6029  154.3562 H   0  0  0  0  0  0  0  0  0  0  0  0  # atno 10764 bound_to 10752
  154.3427  135.2841  155.2393 H   0  0  0  0  0  0  0  0  0  0  0  0  # atno 10765 bound_to 10752
  140.7066  133.8944  155.8720 H   0  0  0  0  0  0  0  0  0  0  0  0  # atno 11005 bound_to 11000
  144.6758  140.0383  143.7481 LP  0  0  0  0  0  0  0  0  0  0  0  0  # atno 17320 bound_to 7965
  145.9786  139.2924  143.1055 LP  0  0  0  0  0  0  0  0  0  0  0  0  # atno 17321 bound_to 7965
  139.4815  144.4919  151.9173 LP  0  0  0  0  0  0  0  0  0  0  0  0  # atno 17342 bound_to 10162
  140.4005  144.2500  150.5893 LP  0  0  0  0  0  0  0  0  0  0  0  0  # atno 17343 bound_to 10162
  157.5043  130.7899  149.7637 LP  0  0  0  0  0  0  0  0  0  0  0  0  # atno 17370 bound_to 10713
  156.0013  130.3879  150.2596 LP  0  0  0  0  0  0  0  0  0  0  0  0  # atno 17371 bound_to 10713
  141.0120  134.1008  157.4212 LP  0  0  0  0  0  0  0  0  0  0  0  0  # atno 17394 bound_to 11000
  139.8883  135.0096  156.6610 LP  0  0  0  0  0  0  0  0  0  0  0  0  # atno 17395 bound_to 11000

$$$$
