AV-unprocessed.smi:378|AV-procd|sdf|2457|dock6
  -GOLD-   2262022393D 1   1.00000     0.00000
 Structure written by MMmdl.
 34 35  0  0  0  0  0  0  0  0  1 V2000
  147.9539  137.1939  160.6336 N   0  0  0  0  0  0  0  0  0  0  0  0
  148.1202  137.0440  159.4986 C   0  0  0  0  0  0  0  0  0  0  0  0
  148.3317  136.8521  158.0553 C   0  0  0  0  0  0  0  0  0  0  0  0
  149.7200  136.2861  157.7186 C   0  0  0  0  0  0  0  0  0  0  0  0
  150.7133  137.3416  157.5572 N   0  0  0  0  0  0  0  0  0  0  0  0
  151.8763  137.2080  156.9030 C   0  0  0  0  0  0  0  0  0  0  0  0
  152.2366  136.1517  156.3812 O   0  0  0  0  0  0  0  0  0  0  0  0
  152.7603  138.4630  156.8415 C   0  0  0  0  0  0  0  0  0  0  0  0
  151.9867  139.7238  156.8107 N   0  0  0  0  0  0  0  0  0  0  0  0
  151.1365  139.9782  155.7041 C   0  0  0  0  0  0  0  0  0  0  0  0
  151.0582  139.1824  154.7665 O   0  0  0  0  0  0  0  0  0  0  0  0
  150.3695  141.2200  155.7730 C   0  0  0  0  0  0  0  0  0  0  0  0
  149.4783  141.4957  154.6952 C   0  0  0  0  0  0  0  0  0  0  0  0
  148.7579  141.7443  153.8239 N   0  0  0  0  0  0  0  0  0  0  0  0
  150.5002  142.0607  156.8198 C   0  0  0  0  0  0  0  0  0  0  0  0
  151.3613  141.8131  157.8666 N   0  0  0  0  0  0  0  0  0  0  0  0
  151.3677  142.6382  159.0416 C   0  0  0  0  0  0  0  0  0  0  0  0
  151.6730  144.1135  158.9008 C   0  0  0  0  0  0  0  0  0  0  0  0
  152.6706  143.2026  159.5740 C   0  0  0  0  0  0  0  0  0  0  0  0
  152.0916  140.6055  157.9139 C   0  0  0  0  0  0  0  0  0  0  0  0
  152.7907  140.3191  158.8894 O   0  0  0  0  0  0  0  0  0  0  0  0
  147.5579  136.1711  157.7011 H   0  0  0  0  0  0  0  0  0  0  0  0
  148.1659  137.8074  157.5566 H   0  0  0  0  0  0  0  0  0  0  0  0
  150.0508  135.6179  158.5143 H   0  0  0  0  0  0  0  0  0  0  0  0
  149.6709  135.6852  156.8090 H   0  0  0  0  0  0  0  0  0  0  0  0
  150.4948  138.2417  157.9601 H   0  0  0  0  0  0  0  0  0  0  0  0
  153.4445  138.4567  157.6921 H   0  0  0  0  0  0  0  0  0  0  0  0
  153.4168  138.3760  155.9746 H   0  0  0  0  0  0  0  0  0  0  0  0
  149.9112  142.9666  156.8389 H   0  0  0  0  0  0  0  0  0  0  0  0
  150.6230  142.3799  159.7925 H   0  0  0  0  0  0  0  0  0  0  0  0
  151.9318  144.4921  157.9137 H   0  0  0  0  0  0  0  0  0  0  0  0
  151.1161  144.8031  159.5320 H   0  0  0  0  0  0  0  0  0  0  0  0
  152.7771  143.2815  160.6540 H   0  0  0  0  0  0  0  0  0  0  0  0
  153.5880  142.9840  159.0307 H   0  0  0  0  0  0  0  0  0  0  0  0
  1  2  3  0  0  0  0
  2  3  1  0  0  0  0
  3  4  1  0  0  0  0
  3 22  1  0  0  0  0
  3 23  1  0  0  0  0
  4  5  1  0  0  0  0
  4 24  1  0  0  0  0
  4 25  1  0  0  0  0
  5  6  1  0  0  0  0
  5 26  1  0  0  0  0
  6  7  2  0  0  0  0
  6  8  1  0  0  0  0
  8  9  1  0  0  0  0
  8 27  1  0  0  0  0
  8 28  1  0  0  0  0
  9 20  1  0  0  0  0
  9 10  1  0  0  0  0
 10 11  2  0  0  0  0
 10 12  1  0  0  0  0
 12 13  1  0  0  0  0
 12 15  2  0  0  0  0
 13 14  3  0  0  0  0
 15 16  1  0  0  0  0
 15 29  1  0  0  0  0
 16 17  1  0  0  0  0
 16 20  1  0  0  0  0
 17 19  1  0  0  0  0
 17 18  1  0  0  0  0
 17 30  1  0  0  0  0
 18 19  1  0  0  0  0
 18 31  1  0  0  0  0
 18 32  1  0  0  0  0
 19 33  1  0  0  0  0
 19 34  1  0  0  0  0
 20 21  2  0  0  0  0
M  END
> <s_m_source_file>
AV-unprocessed.smi

> <i_m_source_file_index>
378

> <i_lp_mmshare_version>
43012

> <i_f3d_flags>
0

> <s_epik_input>
TiNDW0NIMl1bQ0gyXVtOSF1DKD1PKVtDSDJdbjFjKD1PKWMoQyNOKVtjSF1uKGMxPU8pW0NIXTJbQ0gyXVtDSDJdMg==

> <s_epik_cmdline>
J2VwaWtfcHl0aG9uJywgJy1waCcsICc3LjAnLCAnLXRuJywgJzgnLCAnLW1hJywgJzIwMCcsICctbWV0YWxfYmluZGluZycsICctaW1hZScsICc8aW5maWxlLm1hZT4nLCAnLW9tYWUnLCAnPG91dGZpbGUubWFlPic=

> <r_lp_tautomer_probability>
1

> <r_epik_Ionization_Penalty>
1.80062e-07

> <r_epik_Ionization_Penalty_Charging>
6.75485e-11

> <r_epik_Ionization_Penalty_Neutral>
1.79994e-07

> <r_epik_State_Penalty>
-0

> <r_epik_Charging_Adjusted_Penalty>
6.75485e-11

> <i_epik_Tot_Q>
0

> <i_epik_Tot_abs_Q>
0

> <r_epik_Metal_State_Penalty>
-0

> <b_epik_Metal_Only>
0

> <s_lp_Force_Field>
OPLS_2005

> <r_lp_Energy>
28.3727

> <b_lp_Chiralities_Consistent>
1

> <s_lp_Variant>
AV-unprocessed.smi:378-1

> <Gold.Version>
5.8.1

> <Gold.Id.Protein>
6NUR|6NUR_protein|mol2

> <Gold.PLP.Fitness>
47.6916

> <Gold.PLP.PLP>
-35.8614

> <Gold.PLP.part.hbond>
-4.4823

> <Gold.PLP.part.metal>
0.0000

> <Gold.PLP.part.buried>
-4.0344

> <Gold.PLP.part.nonpolar>
-27.6929

> <Gold.PLP.part.repulsive>
0.3345

> <Gold.PLP.ligand.clash>
0.0000

> <Gold.PLP.ligand.torsion>
0.8041

> <Gold.PLP.Chemscore.Hbond>
3.4024

> <Gold.PLP.Chemscore.CHOScore>
1.0000

> <Gold.PLP.Chemscore.Metal>
0.0000

> <Gold.Chemscore.Hbonds>
donor molecule, donor type, donor heavy atom, donor atom, acceptor molecule, acceptor atom, score
      P1  H  6931  6943       L1     1  0.80
      P1  H  6934  6947       L1     1  0.78
      P1  H  7989  7998       L1    11  0.19
      P1  H  8011  8017       L1    14  0.58
      P1  H 10752 10763       L1     7  1.00
      L1  C    15    29       P1  8028  1.00

> <Gold.PLP.Chemscore.Internal.Correction>
0.2312

> <Gold.Rescore>
     Score         DG    S(hbond)    S(metal)    S(lipo)     H(rot)  DE(clash)    DE(int)     intcor
     13.87     -15.95       3.06        0.00      56.74       2.50       0.11       1.97       ----

> <Gold.Chemscore.Fitness>
13.8663

> <Gold.Chemscore.DG>
-15.9453

> <Gold.Chemscore.ZeroCoef>
-5.4800

> <Gold.Chemscore.Hbond>
3.0615

> <Gold.Chemscore.Metal>
0.0000

> <Gold.Chemscore.Lipo>
56.7383

> <Gold.Chemscore.Internal_Hbond>
0.0000

> <Gold.Chemscore.DEClash>
0.1103

> <Gold.Chemscore.DEInternal>
1.9687

> <Gold.Chemscore.Rot>
2.4994

> <Gold.Chemscore.Internal.Correction>
   9.000000E+99

> <Gold.Chemscore.Hbonds>
donor molecule, donor type, donor heavy atom, donor atom, acceptor molecule, acceptor atom, score
      P1  H  6931  6943       L1     1  0.78
      P1  H  6934  6947       L1     1  0.49
      P1  H  8011  8017       L1    14  0.40
      P1  H 10752 10763       L1     7  1.00

> <Gold.Chemscore.Hbond.Weighted>
-10.2253

> <Gold.Chemscore.Metal.Weighted>
-0.0000

> <Gold.Chemscore.Lipo.Weighted>
-6.6384

> <Gold.Chemscore.Internal_Hbond.Weighted>
0.0000

> <Gold.Chemscore.DEClash.Weighted>
0.1103

> <Gold.Chemscore.DEInternal.Weighted>
1.9687

> <Gold.Chemscore.Rot.Weighted>
6.3984

> <Gold.Chemscore.Internal.Correction.Weighted>
   9.000000E+99

> <Gold.Protein.RotatedTorsions>
[ 6907 6896 6895 6894 ] final  160.97 input  -60.11 | X-H torsion
[ 7974 7965 7964 7962 ] final  -88.50 input  175.53 | X-H torsion
[ 8008 7997 7996 7995 ] final -124.15 input   59.86 | X-H torsion
[ 10167 10162 10161 10158 ] final -173.81 input  -65.29 | X-H torsion
[ 10718 10713 10712 10709 ] final   71.61 input   66.30 | X-H torsion
[ 10763 10752 10751 10750 ] final  104.48 input  -60.55 | X-H torsion
[ 11005 11000 10999 10996 ] final -146.55 input  -57.11 | X-H torsion

> <Gold.Protein.ActiveResidues>
 VAL166  LYS551  ARG553  GLY616  TRP617  ASP618  TYR619  PRO620  LYS621  CYS622 
 ASP623  PHE694  ASN695  SER759  ASP760  ASP761  ALA762  ILE779  LEU786  VAL792 
 PHE793  MET794  SER795  GLU796  ALA797  LYS798  CYS799  TRP800  GLU811  SER814 

> <Gold.Protein.RotatedAtoms>
  151.9626  133.3700  159.4040 H   0  0  0  0  0  0  0  0  0  0  0  0  # atno 6907 bound_to 6896
  150.6961  134.4224  159.5220 H   0  0  0  0  0  0  0  0  0  0  0  0  # atno 6908 bound_to 6896
  152.1915  134.8667  160.0568 H   0  0  0  0  0  0  0  0  0  0  0  0  # atno 6909 bound_to 6896
  145.4523  140.9561  143.2015 H   0  0  0  0  0  0  0  0  0  0  0  0  # atno 7974 bound_to 7965
  155.1922  140.0413  157.2902 H   0  0  0  0  0  0  0  0  0  0  0  0  # atno 8008 bound_to 7997
  154.6131  140.2482  155.7615 H   0  0  0  0  0  0  0  0  0  0  0  0  # atno 8009 bound_to 7997
  156.2391  140.2910  156.0403 H   0  0  0  0  0  0  0  0  0  0  0  0  # atno 8010 bound_to 7997
  139.5668  144.1737  152.1324 H   0  0  0  0  0  0  0  0  0  0  0  0  # atno 10167 bound_to 10162
  157.6460  130.9537  150.0812 H   0  0  0  0  0  0  0  0  0  0  0  0  # atno 10718 bound_to 10713
  153.3665  135.3942  155.1757 H   0  0  0  0  0  0  0  0  0  0  0  0  # atno 10763 bound_to 10752
  154.8687  135.3692  154.5032 H   0  0  0  0  0  0  0  0  0  0  0  0  # atno 10764 bound_to 10752
  153.5496  135.7083  153.5658 H   0  0  0  0  0  0  0  0  0  0  0  0  # atno 10765 bound_to 10752
  140.7808  134.3081  157.5046 H   0  0  0  0  0  0  0  0  0  0  0  0  # atno 11005 bound_to 11000
  144.8054  139.6062  143.7053 LP  0  0  0  0  0  0  0  0  0  0  0  0  # atno 17320 bound_to 7965
  146.2497  139.6174  142.9435 LP  0  0  0  0  0  0  0  0  0  0  0  0  # atno 17321 bound_to 7965
  140.1262  144.5329  150.6831 LP  0  0  0  0  0  0  0  0  0  0  0  0  # atno 17342 bound_to 10162
  140.6951  143.2399  151.5022 LP  0  0  0  0  0  0  0  0  0  0  0  0  # atno 17343 bound_to 10162
  156.1788  130.3649  149.9063 LP  0  0  0  0  0  0  0  0  0  0  0  0  # atno 17370 bound_to 10713
  156.7021  130.8937  151.3600 LP  0  0  0  0  0  0  0  0  0  0  0  0  # atno 17371 bound_to 10713
  139.8743  134.9317  156.3535 LP  0  0  0  0  0  0  0  0  0  0  0  0  # atno 17394 bound_to 11000
  140.9484  133.7467  156.0239 LP  0  0  0  0  0  0  0  0  0  0  0  0  # atno 17395 bound_to 11000

$$$$
