AV-unprocessed.smi:103|AV-procd|sdf|979|dock9
  -GOLD-   2262017543D 1   1.00000     0.00000
 Structure written by MMmdl.
 53 55  0  0  0  0  0  0  0  0  1 V2000
  157.0680  137.6109  157.0481 C   0  0  0  0  0  0  0  0  0  0  0  0
  155.8478  136.7314  157.2876 C   0  0  0  0  0  0  0  0  0  0  0  0
  155.7115  135.6488  156.7176 O   0  0  0  0  0  0  0  0  0  0  0  0
  154.9898  137.2767  158.1612 O   0  0  0  0  0  0  0  0  0  0  0  0
  153.8204  136.5667  158.5345 C   0  0  0  0  0  0  0  0  0  0  0  0
  152.7817  137.5581  159.0718 C   0  0  2  0  0  0  0  0  0  0  0  0
  151.5627  136.8525  159.3067 O   0  0  0  0  0  0  0  0  0  0  0  0
  150.5224  137.4846  158.6342 C   0  0  2  0  0  0  0  0  0  0  0  0
  149.5361  136.4533  158.1911 N   0  0  0  0  0  0  0  0  0  0  0  0
  148.4023  135.9827  158.8227 C   0  0  0  0  0  0  0  0  0  0  0  0
  147.8077  136.4608  160.4411 S   0  0  0  0  0  0  0  0  0  0  0  0
  147.1787  134.8626  161.0965 C   0  0  0  0  0  0  0  0  0  0  0  0
  148.9746  136.8828  161.2306 O   0  0  0  0  0  0  0  0  0  0  0  0
  146.6778  137.3792  160.2300 O   0  0  0  0  0  0  0  0  0  0  0  0
  147.7512  135.0254  158.2193 N   0  0  0  0  0  0  0  0  0  0  0  0
  148.4590  134.8603  157.0372 C   0  0  0  0  0  0  0  0  0  0  0  0
  148.3061  134.0200  155.9057 C   0  0  0  0  0  0  0  0  0  0  0  0
  147.3111  133.1302  155.7844 N   0  0  0  0  0  0  0  0  0  0  0  0
  149.2062  134.1202  154.8996 N   0  0  0  0  0  0  0  0  0  0  0  0
  150.2086  134.9996  154.9970 C   0  0  0  0  0  0  0  0  0  0  0  0
  150.4826  135.8478  155.9917 N   0  0  0  0  0  0  0  0  0  0  0  0
  149.5729  135.7475  157.0054 C   0  0  0  0  0  0  0  0  0  0  0  0
  151.1567  138.1942  157.4428 C   0  0  1  0  0  0  0  0  0  0  0  0
  150.3500  139.2611  156.9569 O   0  0  0  0  0  0  0  0  0  0  0  0
  150.7527  139.9943  155.9048 C   0  0  0  0  0  0  0  0  0  0  0  0
  149.8173  141.1617  155.6215 C   0  0  0  0  0  0  0  0  0  0  0  0
  151.7465  139.7833  155.2096 O   0  0  0  0  0  0  0  0  0  0  0  0
  152.4533  138.6786  158.0661 C   0  0  1  0  0  0  0  0  0  0  0  0
  152.2556  139.9074  158.7608 O   0  0  0  0  0  0  0  0  0  0  0  0
  153.2959  140.5347  159.3367 C   0  0  0  0  0  0  0  0  0  0  0  0
  152.8675  141.7663  160.1230 C   0  0  0  0  0  0  0  0  0  0  0  0
  154.4759  140.1898  159.2729 O   0  0  0  0  0  0  0  0  0  0  0  0
  156.7661  138.5700  156.6269 H   0  0  0  0  0  0  0  0  0  0  0  0
  157.7575  137.1298  156.3541 H   0  0  0  0  0  0  0  0  0  0  0  0
  157.5929  137.7936  157.9858 H   0  0  0  0  0  0  0  0  0  0  0  0
  153.4182  136.0152  157.6835 H   0  0  0  0  0  0  0  0  0  0  0  0
  154.0757  135.8400  159.3067 H   0  0  0  0  0  0  0  0  0  0  0  0
  153.1328  137.9650  160.0213 H   0  0  0  0  0  0  0  0  0  0  0  0
  150.0059  138.1496  159.3233 H   0  0  0  0  0  0  0  0  0  0  0  0
  146.7775  135.0144  162.0981 H   0  0  0  0  0  0  0  0  0  0  0  0
  147.9911  134.1375  161.1356 H   0  0  0  0  0  0  0  0  0  0  0  0
  146.3910  134.4886  160.4427 H   0  0  0  0  0  0  0  0  0  0  0  0
  146.6271  133.0373  156.5216 H   0  0  0  0  0  0  0  0  0  0  0  0
  147.2445  132.5579  154.9553 H   0  0  0  0  0  0  0  0  0  0  0  0
  150.8895  135.0269  154.1589 H   0  0  0  0  0  0  0  0  0  0  0  0
  151.3890  137.4624  156.6678 H   0  0  0  0  0  0  0  0  0  0  0  0
  148.8378  140.7939  155.3153 H   0  0  0  0  0  0  0  0  0  0  0  0
  150.2165  141.7877  154.8231 H   0  0  0  0  0  0  0  0  0  0  0  0
  149.6946  141.7756  156.5138 H   0  0  0  0  0  0  0  0  0  0  0  0
  153.2230  138.7954  157.3014 H   0  0  0  0  0  0  0  0  0  0  0  0
  152.2676  141.4748  160.9852 H   0  0  0  0  0  0  0  0  0  0  0  0
  152.2734  142.4299  159.4945 H   0  0  0  0  0  0  0  0  0  0  0  0
  153.7394  142.3165  160.4780 H   0  0  0  0  0  0  0  0  0  0  0  0
  1  2  1  0  0  0  0
  1 33  1  0  0  0  0
  1 34  1  0  0  0  0
  1 35  1  0  0  0  0
  2  3  2  0  0  0  0
  2  4  1  0  0  0  0
  4  5  1  0  0  0  0
  5  6  1  0  0  0  0
  5 36  1  0  0  0  0
  5 37  1  0  0  0  0
  6 28  1  0  0  0  0
  6  7  1  0  0  0  0
  6 38  1  0  0  0  0
  7  8  1  0  0  0  0
  8  9  1  0  0  0  0
  8 23  1  0  0  0  0
  8 39  1  0  0  0  0
  9 22  1  0  0  0  0
  9 10  1  0  0  0  0
 10 11  1  0  0  0  0
 10 15  2  0  0  0  0
 11 12  1  0  0  0  0
 11 13  2  0  0  0  0
 11 14  2  0  0  0  0
 12 40  1  0  0  0  0
 12 41  1  0  0  0  0
 12 42  1  0  0  0  0
 15 16  1  0  0  0  0
 16 22  2  0  0  0  0
 16 17  1  0  0  0  0
 17 18  1  0  0  0  0
 17 19  2  0  0  0  0
 18 43  1  0  0  0  0
 18 44  1  0  0  0  0
 19 20  1  0  0  0  0
 20 21  2  0  0  0  0
 20 45  1  0  0  0  0
 21 22  1  0  0  0  0
 23 24  1  0  0  0  0
 23 28  1  0  0  0  0
 23 46  1  0  0  0  0
 24 25  1  0  0  0  0
 25 26  1  0  0  0  0
 25 27  2  0  0  0  0
 26 47  1  0  0  0  0
 26 48  1  0  0  0  0
 26 49  1  0  0  0  0
 28 29  1  0  0  0  0
 28 50  1  0  0  0  0
 29 30  1  0  0  0  0
 30 31  1  0  0  0  0
 30 32  2  0  0  0  0
 31 51  1  0  0  0  0
 31 52  1  0  0  0  0
 31 53  1  0  0  0  0
M  END
> <s_m_source_file>
AV-unprocessed.smi

> <i_m_source_file_index>
103

> <i_lp_mmshare_version>
43012

> <i_f3d_flags>
0

> <s_epik_input>
W0NIM11DKD1PKU9bQ0gyXVtDQEBIXTFPW0NASF0oW0NAQEhdKE9DKD1PKVtDSDNdKVtDQEhdMU9DKD1PKVtDSDNdKW4oYyhuMilTKD1PKSg9TylbQ0gzXSljKGMyMyluW2NIXW5jM1tOSDJd

> <s_epik_cmdline>
J2VwaWtfcHl0aG9uJywgJy1waCcsICc3LjAnLCAnLXRuJywgJzgnLCAnLW1hJywgJzIwMCcsICctbWV0YWxfYmluZGluZycsICctaW1hZScsICc8aW5maWxlLm1hZT4nLCAnLW9tYWUnLCAnPG91dGZpbGUubWFlPic=

> <r_lp_tautomer_probability>
1

> <r_epik_Ionization_Penalty>
1.51338e-05

> <r_epik_Ionization_Penalty_Charging>
0

> <r_epik_Ionization_Penalty_Neutral>
1.51338e-05

> <r_epik_State_Penalty>
-0

> <r_epik_Charging_Adjusted_Penalty>
0

> <i_epik_Tot_Q>
0

> <i_epik_Tot_abs_Q>
0

> <r_epik_Metal_State_Penalty>
-0

> <b_epik_Metal_Only>
0

> <s_epik_Chemistry_Notes>
This compound has an ester and may undergo hydrolysis at high or low pH. This compound contains an acetal/aminal-like group ( X-CH(R)-Y where X, Y are N, S, or O) that may be acid/base labile, releasing an aldehyde.

> <s_lp_Force_Field>
OPLS_2005

> <r_lp_Energy>
16.6357

> <b_lp_Chiralities_Consistent>
1

> <s_lp_Variant>
AV-unprocessed.smi:103-3

> <Gold.Version>
5.8.1

> <Gold.Id.Protein>
6NUR|6NUR_protein|mol2

> <Gold.PLP.Fitness>
50.8089

> <Gold.PLP.PLP>
-33.7387

> <Gold.PLP.part.hbond>
-5.8283

> <Gold.PLP.part.metal>
0.0000

> <Gold.PLP.part.buried>
-6.7178

> <Gold.PLP.part.nonpolar>
-22.1129

> <Gold.PLP.part.repulsive>
0.2211

> <Gold.PLP.ligand.clash>
0.0000

> <Gold.PLP.ligand.torsion>
2.1245

> <Gold.PLP.Chemscore.Hbond>
5.9280

> <Gold.PLP.Chemscore.CHOScore>
0.4317

> <Gold.PLP.Chemscore.Metal>
0.0000

> <Gold.Chemscore.Hbonds>
donor molecule, donor type, donor heavy atom, donor atom, acceptor molecule, acceptor atom, score
      P1  H  6896  6907       L1     7  1.00
      P1  H  6931  6943       L1    13  0.96
      P1  H  6934  6947       L1    14  1.00
      P1  H  7989  7998       L1    27  1.00
      P1  H  7997  8008       L1    32  0.94
      P1  H 10752 10765       L1     3  1.00
      L1  C    20    45       P1  7949  0.17

> <Gold.PLP.Chemscore.Internal.Correction>
2.2400

> <Gold.Rescore>
     Score         DG    S(hbond)    S(metal)    S(lipo)     H(rot)  DE(clash)    DE(int)     intcor
     14.86     -18.45       5.57        0.00      44.75       4.25       0.04       3.56       ----

> <Gold.Chemscore.Fitness>
14.8553

> <Gold.Chemscore.DG>
-18.4535

> <Gold.Chemscore.ZeroCoef>
-5.4800

> <Gold.Chemscore.Hbond>
5.5709

> <Gold.Chemscore.Metal>
0.0000

> <Gold.Chemscore.Lipo>
44.7452

> <Gold.Chemscore.Internal_Hbond>
0.0000

> <Gold.Chemscore.DEClash>
0.0423

> <Gold.Chemscore.DEInternal>
3.5559

> <Gold.Chemscore.Rot>
4.2456

> <Gold.Chemscore.Internal.Correction>
   9.000000E+99

> <Gold.Chemscore.Hbonds>
donor molecule, donor type, donor heavy atom, donor atom, acceptor molecule, acceptor atom, score
      P1  H  6896  6907       L1     7  0.92
      P1  H  6931  6943       L1    13  0.88
      P1  H  6934  6947       L1    14  0.65
      P1  H  7989  7998       L1    27  0.70
      P1  H  7997  8008       L1    32  0.66
      P1  H 10752 10765       L1     3  0.98

> <Gold.Chemscore.Hbond.Weighted>
-18.6069

> <Gold.Chemscore.Metal.Weighted>
-0.0000

> <Gold.Chemscore.Lipo.Weighted>
-5.2352

> <Gold.Chemscore.Internal_Hbond.Weighted>
0.0000

> <Gold.Chemscore.DEClash.Weighted>
0.0423

> <Gold.Chemscore.DEInternal.Weighted>
3.5559

> <Gold.Chemscore.Rot.Weighted>
10.8687

> <Gold.Chemscore.Internal.Correction.Weighted>
   9.000000E+99

> <Gold.Protein.RotatedTorsions>
[ 6907 6896 6895 6894 ] final  -17.72 input  -60.11 | X-H torsion
[ 7974 7965 7964 7962 ] final  142.90 input  175.53 | X-H torsion
[ 8008 7997 7996 7995 ] final -119.15 input   59.86 | X-H torsion
[ 10167 10162 10161 10158 ] final  -73.84 input  -65.29 | X-H torsion
[ 10718 10713 10712 10709 ] final -153.32 input   66.30 | X-H torsion
[ 10763 10752 10751 10750 ] final  -50.27 input  -60.55 | X-H torsion
[ 11005 11000 10999 10996 ] final -148.56 input  -57.11 | X-H torsion

> <Gold.Protein.ActiveResidues>
 VAL166  LYS551  ARG553  GLY616  TRP617  ASP618  TYR619  PRO620  LYS621  CYS622 
 ASP623  PHE694  ASN695  SER759  ASP760  ASP761  ALA762  ILE779  LEU786  VAL792 
 PHE793  MET794  SER795  GLU796  ALA797  LYS798  CYS799  TRP800  GLU811  SER814 

> <Gold.Protein.RotatedAtoms>
  151.2890  135.0736  159.9196 H   0  0  0  0  0  0  0  0  0  0  0  0  # atno 6907 bound_to 6896
  152.5320  133.9951  159.7879 H   0  0  0  0  0  0  0  0  0  0  0  0  # atno 6908 bound_to 6896
  151.0218  133.5818  159.2701 H   0  0  0  0  0  0  0  0  0  0  0  0  # atno 6909 bound_to 6896
  144.8967  139.5480  143.5773 H   0  0  0  0  0  0  0  0  0  0  0  0  # atno 7974 bound_to 7965
  155.1110  140.0397  157.2724 H   0  0  0  0  0  0  0  0  0  0  0  0  # atno 8008 bound_to 7997
  154.6685  140.2607  155.7007 H   0  0  0  0  0  0  0  0  0  0  0  0  # atno 8009 bound_to 7997
  156.2648  140.2802  156.1185 H   0  0  0  0  0  0  0  0  0  0  0  0  # atno 8010 bound_to 7997
  140.5077  143.2350  151.7646 H   0  0  0  0  0  0  0  0  0  0  0  0  # atno 10167 bound_to 10162
  156.4842  130.8317  151.2543 H   0  0  0  0  0  0  0  0  0  0  0  0  # atno 10718 bound_to 10713
  154.1077  135.6554  153.4879 H   0  0  0  0  0  0  0  0  0  0  0  0  # atno 10763 bound_to 10752
  153.0267  135.5240  154.7223 H   0  0  0  0  0  0  0  0  0  0  0  0  # atno 10764 bound_to 10752
  154.6394  135.2986  155.0091 H   0  0  0  0  0  0  0  0  0  0  0  0  # atno 10765 bound_to 10752
  140.7599  134.3310  157.5104 H   0  0  0  0  0  0  0  0  0  0  0  0  # atno 11005 bound_to 11000
  146.3085  139.7664  142.9037 LP  0  0  0  0  0  0  0  0  0  0  0  0  # atno 17320 bound_to 7965
  145.3687  141.0339  143.3243 LP  0  0  0  0  0  0  0  0  0  0  0  0  # atno 17321 bound_to 7965
  139.4888  144.4435  151.9737 LP  0  0  0  0  0  0  0  0  0  0  0  0  # atno 17342 bound_to 10162
  140.3526  144.3071  150.5947 LP  0  0  0  0  0  0  0  0  0  0  0  0  # atno 17343 bound_to 10162
  157.7480  131.0035  150.3040 LP  0  0  0  0  0  0  0  0  0  0  0  0  # atno 17370 bound_to 10713
  156.3491  130.3828  149.7344 LP  0  0  0  0  0  0  0  0  0  0  0  0  # atno 17371 bound_to 10713
  139.8772  134.9195  156.3229 LP  0  0  0  0  0  0  0  0  0  0  0  0  # atno 17394 bound_to 11000
  140.9673  133.7350  156.0484 LP  0  0  0  0  0  0  0  0  0  0  0  0  # atno 17395 bound_to 11000

$$$$
