AV-unprocessed.smi:337|AV-procd|sdf|2372|dock4
  -GOLD-   2262022293D 1   1.00000     0.00000
 Structure written by MMmdl.
 43 44  0  0  0  0  0  0  0  0  1 V2000
  149.9255  133.4175  155.3709 C   0  0  0  0  0  0  0  0  0  0  0  0
  149.3622  134.8481  155.3387 C   0  0  2  0  0  0  0  0  0  0  0  0
  148.5111  134.9748  154.1565 N   0  0  0  0  0  0  0  0  0  0  0  0
  147.2253  134.5995  154.0902 C   0  0  0  0  0  0  0  0  0  0  0  0
  146.6831  134.8545  152.8992 N   0  0  0  0  0  0  0  0  0  0  0  0
  146.6019  134.0801  155.0139 O   0  0  0  0  0  0  0  0  0  0  0  0
  150.5477  135.8233  155.2618 C   0  0  0  0  0  0  0  0  0  0  0  0
  151.4695  135.7579  156.0770 O   0  0  0  0  0  0  0  0  0  0  0  0
  150.4955  136.7415  154.2850 N   0  0  0  0  0  0  0  0  0  0  0  0
  151.5038  137.7703  154.0523 C   0  0  0  0  0  0  0  0  0  0  0  0
  151.5936  138.8202  155.1511 C   0  0  0  0  0  0  0  0  0  0  0  0
  150.6296  139.8401  155.2943 C   0  0  0  0  0  0  0  0  0  0  0  0
  150.7770  140.7792  156.3325 C   0  0  0  0  0  0  0  0  0  0  0  0
  151.8904  140.6810  157.2009 C   0  0  0  0  0  0  0  0  0  0  0  0
  152.0582  141.6113  158.2498 N   0  0  0  0  0  0  0  0  0  0  0  0
  152.2747  141.0397  159.5766 C   0  0  0  0  0  0  0  0  0  0  0  0
  152.7473  142.1263  160.5579 C   0  0  0  0  0  0  0  0  0  0  0  0
  151.8206  143.2070  160.5654 O   0  0  0  0  0  0  0  0  0  0  0  0
  151.7127  143.8200  159.2853 C   0  0  0  0  0  0  0  0  0  0  0  0
  151.1990  142.7939  158.2616 C   0  0  0  0  0  0  0  0  0  0  0  0
  152.8152  139.6996  157.0579 N   0  0  0  0  0  0  0  0  0  0  0  0
  152.6692  138.8018  156.0611 C   0  0  0  0  0  0  0  0  0  0  0  0
  150.5693  133.2642  156.2382 H   0  0  0  0  0  0  0  0  0  0  0  0
  150.5110  133.1905  154.4785 H   0  0  0  0  0  0  0  0  0  0  0  0
  149.1210  132.6840  155.4319 H   0  0  0  0  0  0  0  0  0  0  0  0
  148.7769  135.0331  156.2419 H   0  0  0  0  0  0  0  0  0  0  0  0
  148.9274  135.3999  153.3414 H   0  0  0  0  0  0  0  0  0  0  0  0
  145.7193  134.6164  152.7169 H   0  0  0  0  0  0  0  0  0  0  0  0
  147.2452  135.2848  152.1791 H   0  0  0  0  0  0  0  0  0  0  0  0
  149.7036  136.7258  153.6588 H   0  0  0  0  0  0  0  0  0  0  0  0
  152.4782  137.2999  153.9086 H   0  0  0  0  0  0  0  0  0  0  0  0
  151.2646  138.2755  153.1165 H   0  0  0  0  0  0  0  0  0  0  0  0
  149.7844  139.9066  154.6252 H   0  0  0  0  0  0  0  0  0  0  0  0
  150.0307  141.5491  156.4581 H   0  0  0  0  0  0  0  0  0  0  0  0
  151.3393  140.6022  159.9276 H   0  0  0  0  0  0  0  0  0  0  0  0
  153.0114  140.2380  159.5568 H   0  0  0  0  0  0  0  0  0  0  0  0
  152.8198  141.7153  161.5650 H   0  0  0  0  0  0  0  0  0  0  0  0
  153.7414  142.4872  160.2892 H   0  0  0  0  0  0  0  0  0  0  0  0
  151.0231  144.6612  159.3515 H   0  0  0  0  0  0  0  0  0  0  0  0
  152.6793  144.2242  158.9800 H   0  0  0  0  0  0  0  0  0  0  0  0
  151.1734  143.2534  157.2728 H   0  0  0  0  0  0  0  0  0  0  0  0
  150.1794  142.4967  158.5108 H   0  0  0  0  0  0  0  0  0  0  0  0
  153.4355  138.0438  155.9913 H   0  0  0  0  0  0  0  0  0  0  0  0
  1  2  1  0  0  0  0
  1 23  1  0  0  0  0
  1 24  1  0  0  0  0
  1 25  1  0  0  0  0
  2  3  1  0  0  0  0
  2  7  1  0  0  0  0
  2 26  1  0  0  0  0
  3  4  1  0  0  0  0
  3 27  1  0  0  0  0
  4  5  1  0  0  0  0
  4  6  2  0  0  0  0
  5 28  1  0  0  0  0
  5 29  1  0  0  0  0
  7  8  2  0  0  0  0
  7  9  1  0  0  0  0
  9 10  1  0  0  0  0
  9 30  1  0  0  0  0
 10 11  1  0  0  0  0
 10 31  1  0  0  0  0
 10 32  1  0  0  0  0
 11 22  1  0  0  0  0
 11 12  2  0  0  0  0
 12 13  1  0  0  0  0
 12 33  1  0  0  0  0
 13 14  2  0  0  0  0
 13 34  1  0  0  0  0
 14 15  1  0  0  0  0
 14 21  1  0  0  0  0
 15 20  1  0  0  0  0
 15 16  1  0  0  0  0
 16 17  1  0  0  0  0
 16 35  1  0  0  0  0
 16 36  1  0  0  0  0
 17 18  1  0  0  0  0
 17 37  1  0  0  0  0
 17 38  1  0  0  0  0
 18 19  1  0  0  0  0
 19 20  1  0  0  0  0
 19 39  1  0  0  0  0
 19 40  1  0  0  0  0
 20 41  1  0  0  0  0
 20 42  1  0  0  0  0
 21 22  2  0  0  0  0
 22 43  1  0  0  0  0
M  END
> <s_m_source_file>
AV-unprocessed.smi

> <i_m_source_file_index>
337

> <i_lp_mmshare_version>
43012

> <i_f3d_flags>
0

> <s_epik_input>
W05IMl1DKD1PKVtOSF1bQ0BASF0oW0NIM10pQyg9TylbTkhdW0NIMl1jMVtjSF1bY0hdYyhuW2NIXTEpTjJbQ0gyXVtDSDJdT1tDSDJdW0NIMl0y

> <s_epik_cmdline>
J2VwaWtfcHl0aG9uJywgJy1waCcsICc3LjAnLCAnLXRuJywgJzgnLCAnLW1hJywgJzIwMCcsICctbWV0YWxfYmluZGluZycsICctaW1hZScsICc8aW5maWxlLm1hZT4nLCAnLW9tYWUnLCAnPG91dGZpbGUubWFlPic=

> <r_lp_tautomer_probability>
1

> <r_epik_Ionization_Penalty>
0.0048357

> <r_epik_Ionization_Penalty_Charging>
0

> <r_epik_Ionization_Penalty_Neutral>
0.0048357

> <r_epik_State_Penalty>
0.0034696

> <r_epik_Charging_Adjusted_Penalty>
0.0034696

> <i_epik_Tot_Q>
0

> <i_epik_Tot_abs_Q>
0

> <r_epik_Metal_State_Penalty>
-0

> <b_epik_Metal_Only>
0

> <s_lp_Force_Field>
OPLS_2005

> <r_lp_Energy>
8.56102

> <b_lp_Chiralities_Consistent>
1

> <s_lp_Variant>
AV-unprocessed.smi:337-1

> <Gold.Version>
5.8.1

> <Gold.Id.Protein>
6NUR|6NUR_protein|mol2

> <Gold.PLP.Fitness>
51.4790

> <Gold.PLP.PLP>
-38.3400

> <Gold.PLP.part.hbond>
-6.0041

> <Gold.PLP.part.metal>
0.0000

> <Gold.PLP.part.buried>
-2.0231

> <Gold.PLP.part.nonpolar>
-29.6199

> <Gold.PLP.part.repulsive>
0.2074

> <Gold.PLP.ligand.clash>
0.0000

> <Gold.PLP.ligand.torsion>
0.8491

> <Gold.PLP.Chemscore.Hbond>
4.8240

> <Gold.PLP.Chemscore.CHOScore>
0.0000

> <Gold.PLP.Chemscore.Metal>
0.0000

> <Gold.Chemscore.Hbonds>
donor molecule, donor type, donor heavy atom, donor atom, acceptor molecule, acceptor atom, score
      L1  H     3    27       P1  7948  1.00
      L1  H     5    29       P1  7948  0.88
      L1  H     9    30       P1  7948  0.93
      P1  H  7997  8010       L1    21  0.95
      P1  H 10752 10765       L1     8  0.95

> <Gold.PLP.Chemscore.Internal.Correction>
0.3653

> <Gold.Rescore>
     Score         DG    S(hbond)    S(metal)    S(lipo)     H(rot)  DE(clash)    DE(int)     intcor
     20.06     -21.10       3.65        0.00      87.44       2.66       0.22       0.82       ----

> <Gold.Chemscore.Fitness>
20.0583

> <Gold.Chemscore.DG>
-21.0958

> <Gold.Chemscore.ZeroCoef>
-5.4800

> <Gold.Chemscore.Hbond>
3.6491

> <Gold.Chemscore.Metal>
0.0000

> <Gold.Chemscore.Lipo>
87.4396

> <Gold.Chemscore.Internal_Hbond>
0.0000

> <Gold.Chemscore.DEClash>
0.2194

> <Gold.Chemscore.DEInternal>
0.8181

> <Gold.Chemscore.Rot>
2.6573

> <Gold.Chemscore.Internal.Correction>
   9.000000E+99

> <Gold.Chemscore.Hbonds>
donor molecule, donor type, donor heavy atom, donor atom, acceptor molecule, acceptor atom, score
      L1  H     3    27       P1  7948  0.65
      L1  H     5    29       P1  7948  0.86
      L1  H     9    30       P1  7948  0.54
      P1  H  7997  8010       L1    21  0.21
      P1  H 10752 10765       L1     8  0.21

> <Gold.Chemscore.Hbond.Weighted>
-12.1881

> <Gold.Chemscore.Metal.Weighted>
-0.0000

> <Gold.Chemscore.Lipo.Weighted>
-10.2304

> <Gold.Chemscore.Internal_Hbond.Weighted>
0.0000

> <Gold.Chemscore.DEClash.Weighted>
0.2194

> <Gold.Chemscore.DEInternal.Weighted>
0.8181

> <Gold.Chemscore.Rot.Weighted>
6.8027

> <Gold.Chemscore.Internal.Correction.Weighted>
   9.000000E+99

> <Gold.Protein.RotatedTorsions>
[ 6907 6896 6895 6894 ] final  -68.46 input  -60.11 | X-H torsion
[ 7974 7965 7964 7962 ] final  -22.60 input  175.53 | X-H torsion
[ 8008 7997 7996 7995 ] final   44.88 input   59.86 | X-H torsion
[ 10167 10162 10161 10158 ] final    3.78 input  -65.29 | X-H torsion
[ 10718 10713 10712 10709 ] final   75.54 input   66.30 | X-H torsion
[ 10763 10752 10751 10750 ] final -168.76 input  -60.55 | X-H torsion
[ 11005 11000 10999 10996 ] final  -11.39 input  -57.11 | X-H torsion

> <Gold.Protein.ActiveResidues>
 VAL166  LYS551  ARG553  GLY616  TRP617  ASP618  TYR619  PRO620  LYS621  CYS622 
 ASP623  PHE694  ASN695  SER759  ASP760  ASP761  ALA762  ILE779  LEU786  VAL792 
 PHE793  MET794  SER795  GLU796  ALA797  LYS798  CYS799  TRP800  GLU811  SER814 

> <Gold.Protein.RotatedAtoms>
  150.7355  134.5736  159.5902 H   0  0  0  0  0  0  0  0  0  0  0  0  # atno 6907 bound_to 6896
  152.3168  134.7427  160.0332 H   0  0  0  0  0  0  0  0  0  0  0  0  # atno 6908 bound_to 6896
  151.7956  133.3328  159.3548 H   0  0  0  0  0  0  0  0  0  0  0  0  # atno 6909 bound_to 6896
  146.1666  140.4501  142.8549 H   0  0  0  0  0  0  0  0  0  0  0  0  # atno 7974 bound_to 7965
  155.3266  140.3400  155.4240 H   0  0  0  0  0  0  0  0  0  0  0  0  # atno 8008 bound_to 7997
  156.1882  140.1688  156.8180 H   0  0  0  0  0  0  0  0  0  0  0  0  # atno 8009 bound_to 7997
  154.5411  140.0724  156.8495 H   0  0  0  0  0  0  0  0  0  0  0  0  # atno 8010 bound_to 7997
  140.6568  143.7405  150.7668 H   0  0  0  0  0  0  0  0  0  0  0  0  # atno 10167 bound_to 10162
  157.6638  130.9731  150.1369 H   0  0  0  0  0  0  0  0  0  0  0  0  # atno 10718 bound_to 10713
  154.6594  135.2923  154.9885 H   0  0  0  0  0  0  0  0  0  0  0  0  # atno 10763 bound_to 10752
  154.0950  135.6585  153.4862 H   0  0  0  0  0  0  0  0  0  0  0  0  # atno 10764 bound_to 10752
  153.0421  135.5229  154.7539 H   0  0  0  0  0  0  0  0  0  0  0  0  # atno 10765 bound_to 10752
  140.7547  133.8563  155.9074 H   0  0  0  0  0  0  0  0  0  0  0  0  # atno 11005 bound_to 11000
  144.8101  140.6371  143.6421 LP  0  0  0  0  0  0  0  0  0  0  0  0  # atno 17320 bound_to 7965
  145.4451  139.1530  143.3949 LP  0  0  0  0  0  0  0  0  0  0  0  0  # atno 17321 bound_to 7965
  140.1067  143.4737  152.2394 LP  0  0  0  0  0  0  0  0  0  0  0  0  # atno 17342 bound_to 10162
  139.5793  144.7503  151.3682 LP  0  0  0  0  0  0  0  0  0  0  0  0  # atno 17343 bound_to 10162
  156.2201  130.3673  149.8566 LP  0  0  0  0  0  0  0  0  0  0  0  0  # atno 17370 bound_to 10713
  156.6421  130.8709  151.3516 LP  0  0  0  0  0  0  0  0  0  0  0  0  # atno 17371 bound_to 10713
  140.9718  134.1521  157.4570 LP  0  0  0  0  0  0  0  0  0  0  0  0  # atno 17394 bound_to 11000
  139.8781  134.9981  156.5882 LP  0  0  0  0  0  0  0  0  0  0  0  0  # atno 17395 bound_to 11000

$$$$
