AV-unprocessed.smi:227|AV-procd|sdf|1730|dock3
  -GOLD-   2262020223D 1   1.00000     0.00000
 Structure written by MMmdl.
 54 58  0  0  0  0  0  0  0  0  1 V2000
  151.4046  140.5188  155.3769 O   0  0  0  0  0  0  0  0  0  0  0  0
  150.4386  140.5660  156.4070 C   0  0  0  0  0  0  0  0  0  0  0  0
  151.0990  140.7579  157.7946 C   0  0  1  0  0  0  0  0  0  0  0  0
  151.9768  139.5516  158.2120 C   0  0  0  0  0  0  0  0  0  0  0  0
  151.3101  138.2732  158.0346 N   0  0  0  0  0  0  0  0  0  0  0  0
  150.8131  137.4647  159.0292 C   0  0  0  0  0  0  0  0  0  0  0  0
  150.2501  136.3627  158.6169 N   0  0  0  0  0  0  0  0  0  0  0  0
  150.3643  136.4102  157.2313 C   0  0  0  0  0  0  0  0  0  0  0  0
  149.9673  135.5529  156.1621 C   0  0  0  0  0  0  0  0  0  0  0  0
  149.3088  134.3711  156.3232 N   0  0  0  0  0  0  0  0  0  0  0  0
  148.0834  134.0881  155.5930 C   0  0  1  0  0  0  0  0  0  0  0  0
  148.5605  133.8171  154.1525 C   0  0  0  0  0  0  0  0  0  0  0  0
  149.9097  133.1270  154.4089 C   0  0  0  0  0  0  0  0  0  0  0  0
  149.9560  133.1183  155.9523 C   0  0  2  0  0  0  0  0  0  0  0  0
  148.9713  132.0513  156.4739 C   0  0  1  0  0  0  0  0  0  0  0  0
  149.2210  131.6841  157.9476 C   0  0  0  0  0  0  0  0  0  0  0  0
  150.6043  131.7056  158.2294 O   0  0  0  0  0  0  0  0  0  0  0  0
  147.6258  132.7663  156.2322 C   0  0  0  0  0  0  0  0  0  0  0  0
  150.2967  135.9424  154.9015 N   0  0  0  0  0  0  0  0  0  0  0  0
  150.9410  137.0926  154.6898 C   0  0  0  0  0  0  0  0  0  0  0  0
  151.3535  137.9921  155.5829 N   0  0  0  0  0  0  0  0  0  0  0  0
  151.0444  137.6044  156.8525 C   0  0  0  0  0  0  0  0  0  0  0  0
  151.8784  142.0936  157.8926 C   0  0  2  0  0  0  0  0  0  0  0  0
  152.5539  142.3420  159.2297 C   0  0  0  0  0  0  0  0  0  0  0  0
  152.8062  143.8446  159.1856 C   0  0  0  0  0  0  0  0  0  0  0  0
  151.7167  144.3920  158.4525 O   0  0  0  0  0  0  0  0  0  0  0  0
  151.0118  143.3529  157.7797 C   0  0  0  0  0  0  0  0  0  0  0  0
  152.2449  140.7519  155.7411 H   0  0  0  0  0  0  0  0  0  0  0  0
  149.7418  141.3762  156.1930 H   0  0  0  0  0  0  0  0  0  0  0  0
  149.8483  139.6502  156.3761 H   0  0  0  0  0  0  0  0  0  0  0  0
  150.2808  140.8125  158.5146 H   0  0  0  0  0  0  0  0  0  0  0  0
  152.9070  139.5445  157.6426 H   0  0  0  0  0  0  0  0  0  0  0  0
  152.2612  139.6285  159.2613 H   0  0  0  0  0  0  0  0  0  0  0  0
  150.8787  137.7226  160.0763 H   0  0  0  0  0  0  0  0  0  0  0  0
  147.3076  134.8486  155.6544 H   0  0  0  0  0  0  0  0  0  0  0  0
  147.8647  133.1941  153.5896 H   0  0  0  0  0  0  0  0  0  0  0  0
  148.7024  134.7493  153.6042 H   0  0  0  0  0  0  0  0  0  0  0  0
  149.9653  132.1275  153.9766 H   0  0  0  0  0  0  0  0  0  0  0  0
  150.7273  133.7177  153.9935 H   0  0  0  0  0  0  0  0  0  0  0  0
  150.9638  132.9839  156.3475 H   0  0  0  0  0  0  0  0  0  0  0  0
  149.0458  131.1450  155.8707 H   0  0  0  0  0  0  0  0  0  0  0  0
  148.7259  132.4005  158.6039 H   0  0  0  0  0  0  0  0  0  0  0  0
  148.8170  130.6989  158.1836 H   0  0  0  0  0  0  0  0  0  0  0  0
  150.9568  130.8436  158.0679 H   0  0  0  0  0  0  0  0  0  0  0  0
  147.1030  132.9606  157.1697 H   0  0  0  0  0  0  0  0  0  0  0  0
  146.9550  132.1973  155.5876 H   0  0  0  0  0  0  0  0  0  0  0  0
  151.1570  137.3249  153.6573 H   0  0  0  0  0  0  0  0  0  0  0  0
  152.6425  142.1280  157.1144 H   0  0  0  0  0  0  0  0  0  0  0  0
  151.8784  142.0995  160.0515 H   0  0  0  0  0  0  0  0  0  0  0  0
  153.4737  141.7715  159.3621 H   0  0  0  0  0  0  0  0  0  0  0  0
  152.8823  144.2860  160.1795 H   0  0  0  0  0  0  0  0  0  0  0  0
  153.7302  144.0588  158.6470 H   0  0  0  0  0  0  0  0  0  0  0  0
  150.8098  143.6265  156.7437 H   0  0  0  0  0  0  0  0  0  0  0  0
  150.0544  143.2118  158.2830 H   0  0  0  0  0  0  0  0  0  0  0  0
  1  2  1  0  0  0  0
  1 28  1  0  0  0  0
  2  3  1  0  0  0  0
  2 29  1  0  0  0  0
  2 30  1  0  0  0  0
  3  4  1  0  0  0  0
  3 23  1  0  0  0  0
  3 31  1  0  0  0  0
  4  5  1  0  0  0  0
  4 32  1  0  0  0  0
  4 33  1  0  0  0  0
  5 22  1  0  0  0  0
  5  6  1  0  0  0  0
  6  7  2  0  0  0  0
  6 34  1  0  0  0  0
  7  8  1  0  0  0  0
  8 22  2  0  0  0  0
  8  9  1  0  0  0  0
  9 10  1  0  0  0  0
  9 19  2  0  0  0  0
 10 14  1  0  0  0  0
 10 11  1  0  0  0  0
 11 18  1  0  0  0  0
 11 12  1  0  0  0  0
 11 35  1  0  0  0  0
 12 13  1  0  0  0  0
 12 36  1  0  0  0  0
 12 37  1  0  0  0  0
 13 14  1  0  0  0  0
 13 38  1  0  0  0  0
 13 39  1  0  0  0  0
 14 15  1  0  0  0  0
 14 40  1  0  0  0  0
 15 16  1  0  0  0  0
 15 18  1  0  0  0  0
 15 41  1  0  0  0  0
 16 17  1  0  0  0  0
 16 42  1  0  0  0  0
 16 43  1  0  0  0  0
 17 44  1  0  0  0  0
 18 45  1  0  0  0  0
 18 46  1  0  0  0  0
 19 20  1  0  0  0  0
 20 21  2  0  0  0  0
 20 47  1  0  0  0  0
 21 22  1  0  0  0  0
 23 27  1  0  0  0  0
 23 24  1  0  0  0  0
 23 48  1  0  0  0  0
 24 25  1  0  0  0  0
 24 49  1  0  0  0  0
 24 50  1  0  0  0  0
 25 26  1  0  0  0  0
 25 51  1  0  0  0  0
 25 52  1  0  0  0  0
 26 27  1  0  0  0  0
 27 53  1  0  0  0  0
 27 54  1  0  0  0  0
M  END
> <s_m_source_file>
AV-unprocessed.smi

> <i_m_source_file_index>
227

> <i_lp_mmshare_version>
43012

> <i_f3d_flags>
0

> <s_epik_input>
W0NIMl0xT1tDSDJdW0NIMl1bQ0BIXTFbQ0BIXShbQ0gyXVtPSF0pW0NIMl1uKFtjSF1uMiljKGMyMyluW2NIXW5jM04oW0NASF00NSlbQ0BASF0oW0NIMl1bQ0gyXTQpW0NASF0oW0NIMl01KVtDSDJdW09IXQ==

> <s_epik_cmdline>
J2VwaWtfcHl0aG9uJywgJy1waCcsICc3LjAnLCAnLXRuJywgJzgnLCAnLW1hJywgJzIwMCcsICctbWV0YWxfYmluZGluZycsICctaW1hZScsICc8aW5maWxlLm1hZT4nLCAnLW9tYWUnLCAnPG91dGZpbGUubWFlPic=

> <r_lp_tautomer_probability>
1

> <r_epik_Ionization_Penalty>
0.0055791

> <r_epik_Ionization_Penalty_Charging>
0

> <r_epik_Ionization_Penalty_Neutral>
0.0055791

> <r_epik_State_Penalty>
0.00401299

> <r_epik_Charging_Adjusted_Penalty>
0.00401299

> <i_epik_Tot_Q>
0

> <i_epik_Tot_abs_Q>
0

> <r_epik_Metal_State_Penalty>
-0

> <b_epik_Metal_Only>
0

> <s_lp_Force_Field>
OPLS_2005

> <r_lp_Energy>
89.0098

> <b_lp_Chiralities_Consistent>
1

> <s_lp_Variant>
AV-unprocessed.smi:227-4

> <Gold.Version>
5.8.1

> <Gold.Id.Protein>
6NUR|6NUR_protein|mol2

> <Gold.PLP.Fitness>
44.9659

> <Gold.PLP.PLP>
-34.5079

> <Gold.PLP.part.hbond>
-3.0000

> <Gold.PLP.part.metal>
0.0000

> <Gold.PLP.part.buried>
-6.5087

> <Gold.PLP.part.nonpolar>
-25.1807

> <Gold.PLP.part.repulsive>
0.2978

> <Gold.PLP.ligand.clash>
0.0000

> <Gold.PLP.ligand.torsion>
0.6580

> <Gold.PLP.Chemscore.Hbond>
2.8640

> <Gold.PLP.Chemscore.CHOScore>
0.9958

> <Gold.PLP.Chemscore.Metal>
0.0000

> <Gold.Chemscore.Hbonds>
donor molecule, donor type, donor heavy atom, donor atom, acceptor molecule, acceptor atom, score
      P1  H  6896  6908       L1    17  0.96
      P1  H  6896  6909       L1     7  1.00
      P1  H  7989  7998       L1     1  0.85
      L1  C    20    47       P1  7949  0.96

> <Gold.PLP.Chemscore.Internal.Correction>
0.1946

> <Gold.Rescore>
     Score         DG    S(hbond)    S(metal)    S(lipo)     H(rot)  DE(clash)    DE(int)     intcor
      7.72     -14.63       2.38        0.00      89.09       3.61       0.20       6.71       ----

> <Gold.Chemscore.Fitness>
7.7170

> <Gold.Chemscore.DG>
-14.6330

> <Gold.Chemscore.ZeroCoef>
-5.4800

> <Gold.Chemscore.Hbond>
2.3844

> <Gold.Chemscore.Metal>
0.0000

> <Gold.Chemscore.Lipo>
89.0872

> <Gold.Chemscore.Internal_Hbond>
0.0000

> <Gold.Chemscore.DEClash>
0.2047

> <Gold.Chemscore.DEInternal>
6.7113

> <Gold.Chemscore.Rot>
3.6071

> <Gold.Chemscore.Internal.Correction>
   9.000000E+99

> <Gold.Chemscore.Hbonds>
donor molecule, donor type, donor heavy atom, donor atom, acceptor molecule, acceptor atom, score
      P1  H  6896  6908       L1    17  0.86
      P1  H  6896  6909       L1     7  0.48
      P1  H  7989  7998       L1     1  0.29

> <Gold.Chemscore.Hbond.Weighted>
-7.9640

> <Gold.Chemscore.Metal.Weighted>
-0.0000

> <Gold.Chemscore.Lipo.Weighted>
-10.4232

> <Gold.Chemscore.Internal_Hbond.Weighted>
0.0000

> <Gold.Chemscore.DEClash.Weighted>
0.2047

> <Gold.Chemscore.DEInternal.Weighted>
6.7113

> <Gold.Chemscore.Rot.Weighted>
9.2342

> <Gold.Chemscore.Internal.Correction.Weighted>
   9.000000E+99

> <Gold.Protein.RotatedTorsions>
[ 6907 6896 6895 6894 ] final   80.00 input  -60.11 | X-H torsion
[ 7974 7965 7964 7962 ] final   -2.67 input  175.53 | X-H torsion
[ 8008 7997 7996 7995 ] final -141.91 input   59.86 | X-H torsion
[ 10167 10162 10161 10158 ] final  -75.92 input  -65.29 | X-H torsion
[ 10718 10713 10712 10709 ] final  -29.61 input   66.30 | X-H torsion
[ 10763 10752 10751 10750 ] final -173.78 input  -60.55 | X-H torsion
[ 11005 11000 10999 10996 ] final  -39.57 input  -57.11 | X-H torsion

> <Gold.Protein.ActiveResidues>
 VAL166  LYS551  ARG553  GLY616  TRP617  ASP618  TYR619  PRO620  LYS621  CYS622 
 ASP623  PHE694  ASN695  SER759  ASP760  ASP761  ALA762  ILE779  LEU786  VAL792 
 PHE793  MET794  SER795  GLU796  ALA797  LYS798  CYS799  TRP800  GLU811  SER814 

> <Gold.Protein.RotatedAtoms>
  152.5219  134.3425  159.9221 H   0  0  0  0  0  0  0  0  0  0  0  0  # atno 6907 bound_to 6896
  151.3374  133.3969  159.2676 H   0  0  0  0  0  0  0  0  0  0  0  0  # atno 6908 bound_to 6896
  150.9831  134.9200  159.7913 H   0  0  0  0  0  0  0  0  0  0  0  0  # atno 6909 bound_to 6896
  146.2401  140.1606  142.8333 H   0  0  0  0  0  0  0  0  0  0  0  0  # atno 7974 bound_to 7965
  155.4855  140.0563  157.2961 H   0  0  0  0  0  0  0  0  0  0  0  0  # atno 8008 bound_to 7997
  154.4643  140.2011  156.0111 H   0  0  0  0  0  0  0  0  0  0  0  0  # atno 8009 bound_to 7997
  156.0947  140.3228  155.7866 H   0  0  0  0  0  0  0  0  0  0  0  0  # atno 8010 bound_to 7997
  140.4901  143.2382  151.7920 H   0  0  0  0  0  0  0  0  0  0  0  0  # atno 10167 bound_to 10162
  156.4102  130.4406  149.7257 H   0  0  0  0  0  0  0  0  0  0  0  0  # atno 10718 bound_to 10713
  154.6039  135.2857  155.0506 H   0  0  0  0  0  0  0  0  0  0  0  0  # atno 10763 bound_to 10752
  154.1761  135.6464  153.5025 H   0  0  0  0  0  0  0  0  0  0  0  0  # atno 10764 bound_to 10752
  153.0167  135.5412  154.6768 H   0  0  0  0  0  0  0  0  0  0  0  0  # atno 10765 bound_to 10752
  141.0111  133.6907  156.2205 H   0  0  0  0  0  0  0  0  0  0  0  0  # atno 11005 bound_to 11000
  145.0092  140.8700  143.5234 LP  0  0  0  0  0  0  0  0  0  0  0  0  # atno 17320 bound_to 7965
  145.1637  139.2444  143.5378 LP  0  0  0  0  0  0  0  0  0  0  0  0  # atno 17321 bound_to 7965
  139.4849  144.4660  151.9484 LP  0  0  0  0  0  0  0  0  0  0  0  0  # atno 17342 bound_to 10162
  140.3746  144.2812  150.5915 LP  0  0  0  0  0  0  0  0  0  0  0  0  # atno 17343 bound_to 10162
  156.4239  130.7782  151.2800 LP  0  0  0  0  0  0  0  0  0  0  0  0  # atno 17370 bound_to 10713
  157.7507  131.0174  150.3585 LP  0  0  0  0  0  0  0  0  0  0  0  0  # atno 17371 bound_to 10713
  140.6731  134.4846  157.5587 LP  0  0  0  0  0  0  0  0  0  0  0  0  # atno 17394 bound_to 11000
  139.9091  134.8385  156.1596 LP  0  0  0  0  0  0  0  0  0  0  0  0  # atno 17395 bound_to 11000

$$$$
