AV-unprocessed.smi:2351|AV-procd|sdf|9377|dock2
  -GOLD-   2272013 03D 1   1.00000     0.00000
 Structure written by MMmdl.
 47 49  0  0  0  0  0  0  0  0  2 V2000
  146.4890  139.1203  151.6925 O   0  0  0  0  0  0  0  0  0  0  0  0
  146.3679  138.9053  152.8978 C   0  0  0  0  0  0  0  0  0  0  0  0
  145.8332  137.8003  153.4456 N   0  0  0  0  0  0  0  0  0  0  0  0
  145.3453  136.6280  152.8049 C   0  0  0  0  0  0  0  0  0  0  0  0
  145.5412  136.3245  151.4355 C   0  0  0  0  0  0  0  0  0  0  0  0
  145.0197  135.1161  150.9304 C   0  0  0  0  0  0  0  0  0  0  0  0
  144.3463  134.2227  151.6853 N   0  0  0  0  0  0  0  0  0  0  0  0
  144.1717  134.5094  152.9926 C   0  0  0  0  0  0  0  0  0  0  0  0
  144.6520  135.6885  153.5971 C   0  0  0  0  0  0  0  0  0  0  0  0
  144.4463  135.9120  154.9179 F   0  0  0  0  0  0  0  0  0  0  0  0
  146.7525  139.7754  153.8430 N   0  0  0  0  0  0  0  0  0  0  0  0
  147.3651  141.0803  153.5936 C   0  0  2  0  0  0  0  0  0  0  0  0
  148.8872  141.0588  153.8385 C   0  0  0  0  0  0  0  0  0  0  0  0
  149.2277  140.9227  155.3327 C   0  0  0  0  0  0  0  0  0  0  0  0
  148.5907  142.0031  156.1289 N   0  3  2  0  0  0  0  0  0  0  0  0
  149.0214  141.9799  157.5505 C   0  0  0  0  0  0  0  0  0  0  0  0
  150.5057  142.3559  157.7286 C   0  0  1  0  0  0  0  0  0  0  0  0
  150.7170  143.7512  158.2805 C   0  0  0  0  0  0  0  0  0  0  0  0
  152.1503  143.6752  158.7987 C   0  0  0  0  0  0  0  0  0  0  0  0
  152.3514  142.3200  159.1903 O   0  0  0  0  0  0  0  0  0  0  0  0
  151.2485  141.5220  158.7737 C   0  0  0  0  0  0  0  0  0  0  0  0
  147.1126  142.0039  155.9614 C   0  0  0  0  0  0  0  0  0  0  0  0
  146.7170  142.1570  154.4808 C   0  0  0  0  0  0  0  0  0  0  0  0
  145.7280  137.8098  154.4497 H   0  0  0  0  0  0  0  0  0  0  0  0
  146.0834  136.9768  150.7691 H   0  0  0  0  0  0  0  0  0  0  0  0
  145.1530  134.8576  149.8905 H   0  0  0  0  0  0  0  0  0  0  0  0
  143.6349  133.7755  153.5753 H   0  0  0  0  0  0  0  0  0  0  0  0
  146.6003  139.5208  154.8080 H   0  0  0  0  0  0  0  0  0  0  0  0
  147.1788  141.3430  152.5507 H   0  0  0  0  0  0  0  0  0  0  0  0
  149.3592  140.2548  153.2731 H   0  0  0  0  0  0  0  0  0  0  0  0
  149.3217  141.9847  153.4592 H   0  0  0  0  0  0  0  0  0  0  0  0
  148.9065  139.9506  155.7100 H   0  0  0  0  0  0  0  0  0  0  0  0
  150.3109  140.9656  155.4532 H   0  0  0  0  0  0  0  0  0  0  0  0
  148.3852  142.6465  158.1347 H   0  0  0  0  0  0  0  0  0  0  0  0
  148.8700  140.9804  157.9610 H   0  0  0  0  0  0  0  0  0  0  0  0
  151.0379  142.2909  156.7795 H   0  0  0  0  0  0  0  0  0  0  0  0
  150.5780  144.5340  157.5343 H   0  0  0  0  0  0  0  0  0  0  0  0
  150.0326  143.9438  159.1084 H   0  0  0  0  0  0  0  0  0  0  0  0
  152.8567  143.9133  158.0025 H   0  0  0  0  0  0  0  0  0  0  0  0
  152.3296  144.3612  159.6268 H   0  0  0  0  0  0  0  0  0  0  0  0
  150.6153  141.3327  159.6416 H   0  0  0  0  0  0  0  0  0  0  0  0
  151.5800  140.5600  158.3819 H   0  0  0  0  0  0  0  0  0  0  0  0
  146.6989  141.0802  156.3691 H   0  0  0  0  0  0  0  0  0  0  0  0
  146.6664  142.8208  156.5268 H   0  0  0  0  0  0  0  0  0  0  0  0
  147.0280  143.1424  154.1310 H   0  0  0  0  0  0  0  0  0  0  0  0
  145.6314  142.1299  154.3774 H   0  0  0  0  0  0  0  0  0  0  0  0
  148.9322  142.8717  155.7423 H   0  0  0  0  0  0  0  0  0  0  0  0
  1  2  2  0  0  0  0
  2  3  1  0  0  0  0
  2 11  1  0  0  0  0
  3  4  1  0  0  0  0
  3 24  1  0  0  0  0
  4  9  1  0  0  0  0
  4  5  2  0  0  0  0
  5  6  1  0  0  0  0
  5 25  1  0  0  0  0
  6  7  2  0  0  0  0
  6 26  1  0  0  0  0
  7  8  1  0  0  0  0
  8  9  2  0  0  0  0
  8 27  1  0  0  0  0
  9 10  1  0  0  0  0
 11 12  1  0  0  0  0
 11 28  1  0  0  0  0
 12 23  1  0  0  0  0
 12 13  1  0  0  0  0
 12 29  1  0  0  0  0
 13 14  1  0  0  0  0
 13 30  1  0  0  0  0
 13 31  1  0  0  0  0
 14 15  1  0  0  0  0
 14 32  1  0  0  0  0
 14 33  1  0  0  0  0
 15 16  1  0  0  0  0
 15 22  1  0  0  0  0
 15 47  1  0  0  0  0
 16 17  1  0  0  0  0
 16 34  1  0  0  0  0
 16 35  1  0  0  0  0
 17 21  1  0  0  0  0
 17 18  1  0  0  0  0
 17 36  1  0  0  0  0
 18 19  1  0  0  0  0
 18 37  1  0  0  0  0
 18 38  1  0  0  0  0
 19 20  1  0  0  0  0
 19 39  1  0  0  0  0
 19 40  1  0  0  0  0
 20 21  1  0  0  0  0
 21 41  1  0  0  0  0
 21 42  1  0  0  0  0
 22 23  1  0  0  0  0
 22 43  1  0  0  0  0
 22 44  1  0  0  0  0
 23 45  1  0  0  0  0
 23 46  1  0  0  0  0
M  CHG  1  15   1
M  END
> <s_m_source_file>
AV-unprocessed.smi

> <i_m_source_file_index>
2351

> <i_lp_mmshare_version>
43012

> <i_f3d_flags>
0

> <s_epik_input>
RmMxW2NIXW5bY0hdW2NIXWMxW05IXUMoPU8pW05IXVtDSF0yW0NIMl1bQ0gyXU4oW0NIMl1bQ0gyXTIpW0NIMl1bQ0BASF0zW0NIMl1bQ0gyXU9bQ0gyXTM=

> <s_epik_cmdline>
J2VwaWtfcHl0aG9uJywgJy1waCcsICc3LjAnLCAnLXRuJywgJzgnLCAnLW1hJywgJzIwMCcsICctbWV0YWxfYmluZGluZycsICctaW1hZScsICc8aW5maWxlLm1hZT4nLCAnLW9tYWUnLCAnPG91dGZpbGUubWFlPic=

> <r_epik_Ionization_Penalty>
0.0102464

> <r_epik_Ionization_Penalty_Charging>
0.00747775

> <r_epik_Ionization_Penalty_Neutral>
0.00276864

> <r_epik_State_Penalty>
0.00558817

> <r_epik_Charging_Adjusted_Penalty>
0.0130659

> <i_epik_Tot_Q>
1

> <i_epik_Tot_abs_Q>
1

> <r_epik_Metal_State_Penalty>
-0

> <b_epik_Metal_Only>
0

> <s_lp_Force_Field>
OPLS_2005

> <r_lp_Energy>
39.2901

> <b_lp_Chiralities_Consistent>
1

> <s_lp_Variant>
AV-unprocessed.smi:2351-4

> <Gold.Version>
5.8.1

> <Gold.Id.Protein>
6NUR|6NUR_protein|mol2

> <Gold.PLP.Fitness>
43.9416

> <Gold.PLP.PLP>
-33.7447

> <Gold.PLP.part.hbond>
-1.0000

> <Gold.PLP.part.metal>
0.0000

> <Gold.PLP.part.buried>
-3.2835

> <Gold.PLP.part.nonpolar>
-30.7023

> <Gold.PLP.part.repulsive>
0.5129

> <Gold.PLP.ligand.clash>
0.0000

> <Gold.PLP.ligand.torsion>
0.9029

> <Gold.PLP.Chemscore.Hbond>
2.0000

> <Gold.PLP.Chemscore.CHOScore>
1.9914

> <Gold.PLP.Chemscore.Metal>
0.0000

> <Gold.Chemscore.Hbonds>
donor molecule, donor type, donor heavy atom, donor atom, acceptor molecule, acceptor atom, score
      L1  H    15    47       P1  8028  1.98
      L1  C     6    26       P1  7921  1.00
      L1  C     8    27       P1 10957  0.98

> <Gold.PLP.Chemscore.Internal.Correction>
0.0284

> <Gold.Rescore>
     Score         DG    S(hbond)    S(metal)    S(lipo)     H(rot)  DE(clash)    DE(int)     intcor
     13.66     -15.74       0.99        0.00      91.18       1.45       0.26       1.83       ----

> <Gold.Chemscore.Fitness>
13.6608

> <Gold.Chemscore.DG>
-15.7416

> <Gold.Chemscore.ZeroCoef>
-5.4800

> <Gold.Chemscore.Hbond>
0.9886

> <Gold.Chemscore.Metal>
0.0000

> <Gold.Chemscore.Lipo>
91.1751

> <Gold.Chemscore.Internal_Hbond>
0.0000

> <Gold.Chemscore.DEClash>
0.2552

> <Gold.Chemscore.DEInternal>
1.8256

> <Gold.Chemscore.Rot>
1.4483

> <Gold.Chemscore.Internal.Correction>
   9.000000E+99

> <Gold.Chemscore.Hbonds>
donor molecule, donor type, donor heavy atom, donor atom, acceptor molecule, acceptor atom, score
      L1  H    15    47       P1  8028  0.94

> <Gold.Chemscore.Hbond.Weighted>
-3.3019

> <Gold.Chemscore.Metal.Weighted>
-0.0000

> <Gold.Chemscore.Lipo.Weighted>
-10.6675

> <Gold.Chemscore.Internal_Hbond.Weighted>
0.0000

> <Gold.Chemscore.DEClash.Weighted>
0.2552

> <Gold.Chemscore.DEInternal.Weighted>
1.8256

> <Gold.Chemscore.Rot.Weighted>
3.7077

> <Gold.Chemscore.Internal.Correction.Weighted>
   9.000000E+99

> <Gold.Protein.RotatedTorsions>
[ 6907 6896 6895 6894 ] final -106.18 input  -60.11 | X-H torsion
[ 7974 7965 7964 7962 ] final    5.65 input  175.53 | X-H torsion
[ 8008 7997 7996 7995 ] final  168.62 input   59.86 | X-H torsion
[ 10167 10162 10161 10158 ] final   28.63 input  -65.29 | X-H torsion
[ 10718 10713 10712 10709 ] final -159.55 input   66.30 | X-H torsion
[ 10763 10752 10751 10750 ] final  -82.37 input  -60.55 | X-H torsion
[ 11005 11000 10999 10996 ] final   38.84 input  -57.11 | X-H torsion

> <Gold.Protein.ActiveResidues>
 VAL166  LYS551  ARG553  GLY616  TRP617  ASP618  TYR619  PRO620  LYS621  CYS622 
 ASP623  PHE694  ASN695  SER759  ASP760  ASP761  ALA762  ILE779  LEU786  VAL792 
 PHE793  MET794  SER795  GLU796  ALA797  LYS798  CYS799  TRP800  GLU811  SER814 

> <Gold.Protein.RotatedAtoms>
  150.7375  134.0014  159.3639 H   0  0  0  0  0  0  0  0  0  0  0  0  # atno 6907 bound_to 6896
  151.7969  135.0718  160.0404 H   0  0  0  0  0  0  0  0  0  0  0  0  # atno 6908 bound_to 6896
  152.3168  133.5775  159.5754 H   0  0  0  0  0  0  0  0  0  0  0  0  # atno 6909 bound_to 6896
  146.2439  140.0352  142.8386 H   0  0  0  0  0  0  0  0  0  0  0  0  # atno 7974 bound_to 7965
  156.1530  140.1585  156.8738 H   0  0  0  0  0  0  0  0  0  0  0  0  # atno 8008 bound_to 7997
  154.5089  140.0806  156.7986 H   0  0  0  0  0  0  0  0  0  0  0  0  # atno 8009 bound_to 7997
  155.3858  140.3407  155.4251 H   0  0  0  0  0  0  0  0  0  0  0  0  # atno 8010 bound_to 7997
  140.4836  144.0578  150.6273 H   0  0  0  0  0  0  0  0  0  0  0  0  # atno 10167 bound_to 10162
  156.5697  130.8683  151.2834 H   0  0  0  0  0  0  0  0  0  0  0  0  # atno 10718 bound_to 10713
  154.5750  135.5593  153.7131 H   0  0  0  0  0  0  0  0  0  0  0  0  # atno 10763 bound_to 10752
  153.0061  135.6306  154.2062 H   0  0  0  0  0  0  0  0  0  0  0  0  # atno 10764 bound_to 10752
  154.2002  135.2878  155.2973 H   0  0  0  0  0  0  0  0  0  0  0  0  # atno 10765 bound_to 10752
  140.2087  134.3782  155.8060 H   0  0  0  0  0  0  0  0  0  0  0  0  # atno 11005 bound_to 11000
  145.1119  140.9410  143.4651 LP  0  0  0  0  0  0  0  0  0  0  0  0  # atno 17320 bound_to 7965
  145.0567  139.3138  143.5901 LP  0  0  0  0  0  0  0  0  0  0  0  0  # atno 17321 bound_to 7965
  140.3827  143.2794  152.0152 LP  0  0  0  0  0  0  0  0  0  0  0  0  # atno 17342 bound_to 10162
  139.4838  144.6142  151.7378 LP  0  0  0  0  0  0  0  0  0  0  0  0  # atno 17343 bound_to 10162
  157.7351  130.9756  150.2062 LP  0  0  0  0  0  0  0  0  0  0  0  0  # atno 17370 bound_to 10713
  156.2725  130.3723  149.8017 LP  0  0  0  0  0  0  0  0  0  0  0  0  # atno 17371 bound_to 10713
  141.2226  133.7131  156.8381 LP  0  0  0  0  0  0  0  0  0  0  0  0  # atno 17394 bound_to 11000
  140.1974  134.8921  157.3131 LP  0  0  0  0  0  0  0  0  0  0  0  0  # atno 17395 bound_to 11000

$$$$
