AV-unprocessed.smi:2438|AV-procd|sdf|9596|dock4
  -GOLD-   2272013233D 1   1.00000     0.00000
 Structure written by MMmdl.
 43 44  0  0  0  0  0  0  0  0  1 V2000
  149.2446  141.2099  156.1166 C   0  0  0  0  0  0  0  0  0  0  0  0
  150.2668  140.3665  156.7208 N   0  0  0  0  0  0  0  0  0  0  0  0
  151.4210  141.0577  157.2815 C   0  0  0  0  0  0  0  0  0  0  0  0
  150.5374  139.2017  155.9748 C   0  0  0  0  0  0  0  0  0  0  0  0
  151.0949  139.3491  154.7483 N   0  0  0  0  0  0  0  0  0  0  0  0
  151.3313  138.2440  154.0399 C   0  0  0  0  0  0  0  0  0  0  0  0
  151.0810  136.9896  154.4141 N   0  0  0  0  0  0  0  0  0  0  0  0
  150.5275  136.8183  155.6324 C   0  0  0  0  0  0  0  0  0  0  0  0
  150.2165  137.9129  156.4771 C   0  0  0  0  0  0  0  0  0  0  0  0
  149.6794  137.7650  157.7865 N   0  0  0  0  0  0  0  0  0  0  0  0
  149.3683  136.6293  158.4322 C   0  0  0  0  0  0  0  0  0  0  0  0
  149.5076  135.4935  157.9788 O   0  0  0  0  0  0  0  0  0  0  0  0
  148.8570  136.8870  159.6441 N   0  0  0  0  0  0  0  0  0  0  0  0
  148.3960  135.8812  160.5966 C   0  0  1  0  0  0  0  0  0  0  0  0
  148.0084  136.5642  161.9200 C   0  0  0  0  0  0  0  0  0  0  0  0
  147.4621  135.5468  162.9321 C   0  0  0  0  0  0  0  0  0  0  0  0
  146.2745  134.7643  162.3500 C   0  0  0  0  0  0  0  0  0  0  0  0
  146.6483  134.0627  161.0271 C   0  0  1  0  0  0  0  0  0  0  0  0
  145.4660  133.2617  160.4432 C   0  0  0  0  0  0  0  0  0  0  0  0
  145.8361  132.6033  159.3443 F   0  0  0  0  0  0  0  0  0  0  0  0
  145.0208  132.3836  161.3420 F   0  0  0  0  0  0  0  0  0  0  0  0
  144.4639  134.0851  160.1353 F   0  0  0  0  0  0  0  0  0  0  0  0
  147.2032  135.0916  160.0184 C   0  0  0  0  0  0  0  0  0  0  0  0
  148.2958  140.6830  156.0175 H   0  0  0  0  0  0  0  0  0  0  0  0
  149.5577  141.5386  155.1249 H   0  0  0  0  0  0  0  0  0  0  0  0
  149.0700  142.0957  156.7277 H   0  0  0  0  0  0  0  0  0  0  0  0
  152.1139  140.3512  157.7403 H   0  0  0  0  0  0  0  0  0  0  0  0
  151.1021  141.7606  158.0515 H   0  0  0  0  0  0  0  0  0  0  0  0
  151.9532  141.6160  156.5105 H   0  0  0  0  0  0  0  0  0  0  0  0
  151.7749  138.3794  153.0647 H   0  0  0  0  0  0  0  0  0  0  0  0
  150.3657  135.7933  155.9280 H   0  0  0  0  0  0  0  0  0  0  0  0
  149.4267  138.6265  158.2486 H   0  0  0  0  0  0  0  0  0  0  0  0
  148.7763  137.8521  159.9291 H   0  0  0  0  0  0  0  0  0  0  0  0
  149.2133  135.1867  160.8017 H   0  0  0  0  0  0  0  0  0  0  0  0
  148.8727  137.0761  162.3449 H   0  0  0  0  0  0  0  0  0  0  0  0
  147.2539  137.3308  161.7356 H   0  0  0  0  0  0  0  0  0  0  0  0
  148.2536  134.8527  163.2173 H   0  0  0  0  0  0  0  0  0  0  0  0
  147.1570  136.0592  163.8449 H   0  0  0  0  0  0  0  0  0  0  0  0
  145.9334  134.0305  163.0807 H   0  0  0  0  0  0  0  0  0  0  0  0
  145.4384  135.4450  162.1847 H   0  0  0  0  0  0  0  0  0  0  0  0
  147.4466  133.3511  161.2442 H   0  0  0  0  0  0  0  0  0  0  0  0
  146.4113  135.7844  159.7304 H   0  0  0  0  0  0  0  0  0  0  0  0
  147.5103  134.5804  159.1053 H   0  0  0  0  0  0  0  0  0  0  0  0
  1  2  1  0  0  0  0
  1 24  1  0  0  0  0
  1 25  1  0  0  0  0
  1 26  1  0  0  0  0
  2  3  1  0  0  0  0
  2  4  1  0  0  0  0
  3 27  1  0  0  0  0
  3 28  1  0  0  0  0
  3 29  1  0  0  0  0
  4  9  1  0  0  0  0
  4  5  2  0  0  0  0
  5  6  1  0  0  0  0
  6  7  2  0  0  0  0
  6 30  1  0  0  0  0
  7  8  1  0  0  0  0
  8  9  2  0  0  0  0
  8 31  1  0  0  0  0
  9 10  1  0  0  0  0
 10 11  1  0  0  0  0
 10 32  1  0  0  0  0
 11 12  2  0  0  0  0
 11 13  1  0  0  0  0
 13 14  1  0  0  0  0
 13 33  1  0  0  0  0
 14 23  1  0  0  0  0
 14 15  1  0  0  0  0
 14 34  1  0  0  0  0
 15 16  1  0  0  0  0
 15 35  1  0  0  0  0
 15 36  1  0  0  0  0
 16 17  1  0  0  0  0
 16 37  1  0  0  0  0
 16 38  1  0  0  0  0
 17 18  1  0  0  0  0
 17 39  1  0  0  0  0
 17 40  1  0  0  0  0
 18 19  1  0  0  0  0
 18 23  1  0  0  0  0
 18 41  1  0  0  0  0
 19 20  1  0  0  0  0
 19 21  1  0  0  0  0
 19 22  1  0  0  0  0
 23 42  1  0  0  0  0
 23 43  1  0  0  0  0
M  END
> <s_m_source_file>
AV-unprocessed.smi

> <i_m_source_file_index>
2438

> <i_lp_mmshare_version>
43012

> <i_f3d_flags>
0

> <s_epik_input>
W0NIM11OKFtDSDNdKWMxbltjSF1uW2NIXWMxW05IXUMoPU8pW05IXVtDQEBIXTJbQ0gyXVtDSDJdW0NIMl1bQ0BASF0oQyhGKShGKUYpW0NIMl0y

> <s_epik_cmdline>
J2VwaWtfcHl0aG9uJywgJy1waCcsICc3LjAnLCAnLXRuJywgJzgnLCAnLW1hJywgJzIwMCcsICctbWV0YWxfYmluZGluZycsICctaW1hZScsICc8aW5maWxlLm1hZT4nLCAnLW9tYWUnLCAnPG91dGZpbGUubWFlPic=

> <r_lp_tautomer_probability>
1

> <r_epik_Ionization_Penalty>
0.01759

> <r_epik_Ionization_Penalty_Charging>
0

> <r_epik_Ionization_Penalty_Neutral>
0.01759

> <r_epik_State_Penalty>
0.0133536

> <r_epik_Charging_Adjusted_Penalty>
0.0133536

> <i_epik_Tot_Q>
0

> <i_epik_Tot_abs_Q>
0

> <r_epik_Metal_State_Penalty>
0.0129828

> <b_epik_Metal_Only>
0

> <s_lp_Force_Field>
OPLS_2005

> <r_lp_Energy>
11.3681

> <b_lp_Chiralities_Consistent>
1

> <s_lp_Variant>
AV-unprocessed.smi:2438-2

> <Gold.Version>
5.8.1

> <Gold.Id.Protein>
6NUR|6NUR_protein|mol2

> <Gold.PLP.Fitness>
39.2098

> <Gold.PLP.PLP>
-30.2898

> <Gold.PLP.part.hbond>
-3.0000

> <Gold.PLP.part.metal>
0.0000

> <Gold.PLP.part.buried>
-4.6737

> <Gold.PLP.part.nonpolar>
-23.4440

> <Gold.PLP.part.repulsive>
0.4988

> <Gold.PLP.ligand.clash>
0.0000

> <Gold.PLP.ligand.torsion>
0.2007

> <Gold.PLP.Chemscore.Hbond>
2.9920

> <Gold.PLP.Chemscore.CHOScore>
0.0000

> <Gold.PLP.Chemscore.Metal>
0.0000

> <Gold.Chemscore.Hbonds>
donor molecule, donor type, donor heavy atom, donor atom, acceptor molecule, acceptor atom, score
      P1  H  6896  6907       L1    12  0.70
      P1  H  7989  7998       L1     5  0.99
      P1  H 10752 10763       L1     7  0.31
      L1  C     6    30       P1  7949  0.02

> <Gold.PLP.Chemscore.Internal.Correction>
0.3453

> <Gold.Rescore>
     Score         DG    S(hbond)    S(metal)    S(lipo)     H(rot)  DE(clash)    DE(int)     intcor
     15.86     -17.38       2.33        0.00      63.50       1.30       0.03       1.49       ----

> <Gold.Chemscore.Fitness>
15.8611

> <Gold.Chemscore.DG>
-17.3786

> <Gold.Chemscore.ZeroCoef>
-5.4800

> <Gold.Chemscore.Hbond>
2.3336

> <Gold.Chemscore.Metal>
0.0000

> <Gold.Chemscore.Lipo>
63.4965

> <Gold.Chemscore.Internal_Hbond>
0.0000

> <Gold.Chemscore.DEClash>
0.0310

> <Gold.Chemscore.DEInternal>
1.4866

> <Gold.Chemscore.Rot>
1.2987

> <Gold.Chemscore.Internal.Correction>
   9.000000E+99

> <Gold.Chemscore.Hbonds>
donor molecule, donor type, donor heavy atom, donor atom, acceptor molecule, acceptor atom, score
      P1  H  6896  6907       L1    12  0.28
      P1  H  7989  7998       L1     5  0.41
      P1  H 10752 10763       L1     7  0.10

> <Gold.Chemscore.Hbond.Weighted>
-7.7941

> <Gold.Chemscore.Metal.Weighted>
-0.0000

> <Gold.Chemscore.Lipo.Weighted>
-7.4291

> <Gold.Chemscore.Internal_Hbond.Weighted>
0.0000

> <Gold.Chemscore.DEClash.Weighted>
0.0310

> <Gold.Chemscore.DEInternal.Weighted>
1.4866

> <Gold.Chemscore.Rot.Weighted>
3.3246

> <Gold.Chemscore.Internal.Correction.Weighted>
   9.000000E+99

> <Gold.Protein.RotatedTorsions>
[ 6907 6896 6895 6894 ] final  -74.93 input  -60.11 | X-H torsion
[ 7974 7965 7964 7962 ] final  -19.25 input  175.53 | X-H torsion
[ 8008 7997 7996 7995 ] final -158.13 input   59.86 | X-H torsion
[ 10167 10162 10161 10158 ] final   42.91 input  -65.29 | X-H torsion
[ 10718 10713 10712 10709 ] final  -32.34 input   66.30 | X-H torsion
[ 10763 10752 10751 10750 ] final   55.81 input  -60.55 | X-H torsion
[ 11005 11000 10999 10996 ] final -112.76 input  -57.11 | X-H torsion

> <Gold.Protein.ActiveResidues>
 VAL166  LYS551  ARG553  GLY616  TRP617  ASP618  TYR619  PRO620  LYS621  CYS622 
 ASP623  PHE694  ASN695  SER759  ASP760  ASP761  ALA762  ILE779  LEU786  VAL792 
 PHE793  MET794  SER795  GLU796  ALA797  LYS798  CYS799  TRP800  GLU811  SER814 

> <Gold.Protein.RotatedAtoms>
  150.7076  134.4797  159.5463 H   0  0  0  0  0  0  0  0  0  0  0  0  # atno 6907 bound_to 6896
  152.2436  134.8201  160.0465 H   0  0  0  0  0  0  0  0  0  0  0  0  # atno 6908 bound_to 6896
  151.8973  133.3495  159.3855 H   0  0  0  0  0  0  0  0  0  0  0  0  # atno 6909 bound_to 6896
  146.1851  140.4036  142.8479 H   0  0  0  0  0  0  0  0  0  0  0  0  # atno 7974 bound_to 7965
  155.7429  140.0816  157.2237 H   0  0  0  0  0  0  0  0  0  0  0  0  # atno 8008 bound_to 7997
  154.4020  140.1574  156.2692 H   0  0  0  0  0  0  0  0  0  0  0  0  # atno 8009 bound_to 7997
  155.9003  140.3410  155.6024 H   0  0  0  0  0  0  0  0  0  0  0  0  # atno 8010 bound_to 7997
  140.3496  144.2367  150.6147 H   0  0  0  0  0  0  0  0  0  0  0  0  # atno 10167 bound_to 10162
  156.3760  130.4348  149.7506 H   0  0  0  0  0  0  0  0  0  0  0  0  # atno 10718 bound_to 10713
  152.9822  135.5698  154.5127 H   0  0  0  0  0  0  0  0  0  0  0  0  # atno 10763 bound_to 10752
  154.4628  135.2782  155.1702 H   0  0  0  0  0  0  0  0  0  0  0  0  # atno 10764 bound_to 10752
  154.3283  135.6254  153.5593 H   0  0  0  0  0  0  0  0  0  0  0  0  # atno 10765 bound_to 10752
  141.0656  133.9465  157.2585 H   0  0  0  0  0  0  0  0  0  0  0  0  # atno 11005 bound_to 11000
  144.8382  140.6816  143.6246 LP  0  0  0  0  0  0  0  0  0  0  0  0  # atno 17320 bound_to 7965
  145.3963  139.1606  143.4201 LP  0  0  0  0  0  0  0  0  0  0  0  0  # atno 17321 bound_to 7965
  140.5231  143.2261  151.8357 LP  0  0  0  0  0  0  0  0  0  0  0  0  # atno 17342 bound_to 10162
  139.4828  144.4812  151.9304 LP  0  0  0  0  0  0  0  0  0  0  0  0  # atno 17343 bound_to 10162
  156.4615  130.7954  151.2974 LP  0  0  0  0  0  0  0  0  0  0  0  0  # atno 17370 bound_to 10713
  157.7488  131.0064  150.3151 LP  0  0  0  0  0  0  0  0  0  0  0  0  # atno 17371 bound_to 10713
  139.9473  135.0182  156.8890 LP  0  0  0  0  0  0  0  0  0  0  0  0  # atno 17394 bound_to 11000
  140.5781  134.0379  155.7454 LP  0  0  0  0  0  0  0  0  0  0  0  0  # atno 17395 bound_to 11000

$$$$
