AV-unprocessed.smi:1738|AV-procd|sdf|7002|dock6
  -GOLD-   22720 8213D 1   1.00000     0.00000
 Structure written by MMmdl.
 46 48  0  0  0  0  0  0  0  0  2 V2000
  154.8813  136.4409  157.8728 C   0  0  0  0  0  0  0  0  0  0  0  0
  153.4000  137.3571  158.4625 S   0  0  0  0  0  0  0  0  0  0  0  0
  152.9937  136.7925  159.7590 O   0  0  0  0  0  0  0  0  0  0  0  0
  153.6870  138.7961  158.3550 O   0  0  0  0  0  0  0  0  0  0  0  0
  152.1390  136.9439  157.2623 C   0  0  0  0  0  0  0  0  0  0  0  0
  152.0943  137.6036  156.0179 C   0  0  0  0  0  0  0  0  0  0  0  0
  151.1038  137.2159  155.0954 C   0  0  0  0  0  0  0  0  0  0  0  0
  150.2101  136.1734  155.4468 C   0  0  0  0  0  0  0  0  0  0  0  0
  149.1566  135.6960  154.6191 N   0  0  0  0  0  0  0  0  0  0  0  0
  148.0086  135.0913  154.9703 C   0  0  0  0  0  0  0  0  0  0  0  0
  147.6441  134.8601  156.1223 O   0  0  0  0  0  0  0  0  0  0  0  0
  147.2828  134.7684  153.8904 N   0  0  0  0  0  0  0  0  0  0  0  0
  145.9864  134.0968  153.9190 C   0  0  1  0  0  0  0  0  0  0  0  0
  144.8134  135.0661  154.1480 C   0  0  0  0  0  0  0  0  0  0  0  0
  143.6650  134.5338  153.2680 C   0  0  0  0  0  0  0  0  0  0  0  0
  144.1758  133.2853  152.6704 N   0  3  1  0  0  0  0  0  0  0  0  0
  143.5632  132.8468  151.3974 C   0  0  0  0  0  0  0  0  0  0  0  0
  144.1660  131.4892  150.9843 C   0  0  0  0  0  0  0  0  0  0  0  0
  145.7068  131.5358  150.9439 C   0  0  0  0  0  0  0  0  0  0  0  0
  146.2821  132.0887  152.2621 C   0  0  0  0  0  0  0  0  0  0  0  0
  145.6345  133.4478  152.5779 C   0  0  2  0  0  0  0  0  0  0  0  0
  150.3565  135.5829  156.7208 C   0  0  0  0  0  0  0  0  0  0  0  0
  151.3021  135.9447  157.6125 N   0  0  0  0  0  0  0  0  0  0  0  0
  155.7169  136.6316  158.5455 H   0  0  0  0  0  0  0  0  0  0  0  0
  155.1396  136.7751  156.8681 H   0  0  0  0  0  0  0  0  0  0  0  0
  154.6654  135.3728  157.8560 H   0  0  0  0  0  0  0  0  0  0  0  0
  152.7928  138.3900  155.7734 H   0  0  0  0  0  0  0  0  0  0  0  0
  151.0498  137.7322  154.1505 H   0  0  0  0  0  0  0  0  0  0  0  0
  149.2809  135.8655  153.6315 H   0  0  0  0  0  0  0  0  0  0  0  0
  147.6558  135.0017  152.9816 H   0  0  0  0  0  0  0  0  0  0  0  0
  145.9627  133.3407  154.7069 H   0  0  0  0  0  0  0  0  0  0  0  0
  144.5342  135.1021  155.2013 H   0  0  0  0  0  0  0  0  0  0  0  0
  145.0699  136.0817  153.8424 H   0  0  0  0  0  0  0  0  0  0  0  0
  142.7568  134.3433  153.8402 H   0  0  0  0  0  0  0  0  0  0  0  0
  143.4276  135.2565  152.4855 H   0  0  0  0  0  0  0  0  0  0  0  0
  142.4836  132.7572  151.5219 H   0  0  0  0  0  0  0  0  0  0  0  0
  143.7387  133.5950  150.6229 H   0  0  0  0  0  0  0  0  0  0  0  0
  143.8494  130.7238  151.6943 H   0  0  0  0  0  0  0  0  0  0  0  0
  143.7755  131.1865  150.0124 H   0  0  0  0  0  0  0  0  0  0  0  0
  146.1075  130.5411  150.7470 H   0  0  0  0  0  0  0  0  0  0  0  0
  146.0274  132.1681  150.1151 H   0  0  0  0  0  0  0  0  0  0  0  0
  146.0963  131.3850  153.0747 H   0  0  0  0  0  0  0  0  0  0  0  0
  147.3638  132.1927  152.1779 H   0  0  0  0  0  0  0  0  0  0  0  0
  145.8554  134.1510  151.7711 H   0  0  0  0  0  0  0  0  0  0  0  0
  149.6944  134.7894  157.0353 H   0  0  0  0  0  0  0  0  0  0  0  0
  144.0134  132.5552  153.3493 H   0  0  0  0  0  0  0  0  0  0  0  0
  1  2  1  0  0  0  0
  1 24  1  0  0  0  0
  1 25  1  0  0  0  0
  1 26  1  0  0  0  0
  2  3  2  0  0  0  0
  2  4  2  0  0  0  0
  2  5  1  0  0  0  0
  5 23  1  0  0  0  0
  5  6  2  0  0  0  0
  6  7  1  0  0  0  0
  6 27  1  0  0  0  0
  7  8  2  0  0  0  0
  7 28  1  0  0  0  0
  8  9  1  0  0  0  0
  8 22  1  0  0  0  0
  9 10  1  0  0  0  0
  9 29  1  0  0  0  0
 10 11  2  0  0  0  0
 10 12  1  0  0  0  0
 12 13  1  0  0  0  0
 12 30  1  0  0  0  0
 13 21  1  0  0  0  0
 13 14  1  0  0  0  0
 13 31  1  0  0  0  0
 14 15  1  0  0  0  0
 14 32  1  0  0  0  0
 14 33  1  0  0  0  0
 15 16  1  0  0  0  0
 15 34  1  0  0  0  0
 15 35  1  0  0  0  0
 16 21  1  0  0  0  0
 16 17  1  0  0  0  0
 16 46  1  0  0  0  0
 17 18  1  0  0  0  0
 17 36  1  0  0  0  0
 17 37  1  0  0  0  0
 18 19  1  0  0  0  0
 18 38  1  0  0  0  0
 18 39  1  0  0  0  0
 19 20  1  0  0  0  0
 19 40  1  0  0  0  0
 19 41  1  0  0  0  0
 20 21  1  0  0  0  0
 20 42  1  0  0  0  0
 20 43  1  0  0  0  0
 21 44  1  0  0  0  0
 22 23  2  0  0  0  0
 22 45  1  0  0  0  0
M  CHG  1  16   1
M  END
> <s_m_source_file>
AV-unprocessed.smi

> <i_m_source_file_index>
1738

> <i_lp_mmshare_version>
43012

> <i_f3d_flags>
0

> <s_epik_input>
W0NIM11TKD1PKSg9TyljMVtjSF1bY0hdYyhbY0hdbjEpW05IXUMoPU8pW05IXVtDQEhdKFtDSDJdW0NIMl0yKVtDQEBIXShOMjMpW0NIMl1bQ0gyXVtDSDJdW0NIMl0z

> <s_epik_cmdline>
J2VwaWtfcHl0aG9uJywgJy1waCcsICc3LjAnLCAnLXRuJywgJzgnLCAnLW1hJywgJzIwMCcsICctbWV0YWxfYmluZGluZycsICctaW1hZScsICc8aW5maWxlLm1hZT4nLCAnLW9tYWUnLCAnPG91dGZpbGUubWFlPic=

> <r_epik_Ionization_Penalty>
0.00100042

> <r_epik_Ionization_Penalty_Charging>
0.000974069

> <r_epik_Ionization_Penalty_Neutral>
2.63543e-05

> <r_epik_State_Penalty>
0.000633842

> <r_epik_Charging_Adjusted_Penalty>
0.00160791

> <i_epik_Tot_Q>
1

> <i_epik_Tot_abs_Q>
1

> <r_epik_Metal_State_Penalty>
-0

> <b_epik_Metal_Only>
0

> <s_lp_Force_Field>
OPLS_2005

> <r_lp_Energy>
37.3337

> <b_lp_Chiralities_Consistent>
1

> <s_lp_Variant>
AV-unprocessed.smi:1738-6

> <Gold.Version>
5.8.1

> <Gold.Id.Protein>
6NUR|6NUR_protein|mol2

> <Gold.PLP.Fitness>
43.1679

> <Gold.PLP.PLP>
-28.2133

> <Gold.PLP.part.hbond>
-5.8116

> <Gold.PLP.part.metal>
0.0000

> <Gold.PLP.part.buried>
-6.6755

> <Gold.PLP.part.nonpolar>
-18.1742

> <Gold.PLP.part.repulsive>
0.0329

> <Gold.PLP.ligand.clash>
0.0000

> <Gold.PLP.ligand.torsion>
1.4523

> <Gold.PLP.Chemscore.Hbond>
5.2765

> <Gold.PLP.Chemscore.CHOScore>
0.0000

> <Gold.PLP.Chemscore.Metal>
0.0000

> <Gold.Chemscore.Hbonds>
donor molecule, donor type, donor heavy atom, donor atom, acceptor molecule, acceptor atom, score
      L1  H     9    29       P1  7948  1.00
      L1  H    12    30       P1  7948  0.83
      L1  H    16    46       P1 10957  1.51
      P1  H  6896  6907       L1     3  1.00
      P1  H  7997  8008       L1     4  1.00

> <Gold.PLP.Chemscore.Internal.Correction>
2.0298

> <Gold.Rescore>
     Score         DG    S(hbond)    S(metal)    S(lipo)     H(rot)  DE(clash)    DE(int)     intcor
     22.29     -25.12       4.45        0.00      62.62       1.00       0.00       2.82       ----

> <Gold.Chemscore.Fitness>
22.2913

> <Gold.Chemscore.DG>
-25.1160

> <Gold.Chemscore.ZeroCoef>
-5.4800

> <Gold.Chemscore.Hbond>
4.4520

> <Gold.Chemscore.Metal>
0.0000

> <Gold.Chemscore.Lipo>
62.6198

> <Gold.Chemscore.Internal_Hbond>
0.0000

> <Gold.Chemscore.DEClash>
0.0000

> <Gold.Chemscore.DEInternal>
2.8247

> <Gold.Chemscore.Rot>
1.0000

> <Gold.Chemscore.Internal.Correction>
   9.000000E+99

> <Gold.Chemscore.Hbonds>
donor molecule, donor type, donor heavy atom, donor atom, acceptor molecule, acceptor atom, score
      L1  H     9    29       P1  7948  0.70
      L1  H    12    30       P1  7948  0.77
      L1  H    16    46       P1 10957  0.18
      P1  H  6896  6907       L1     3  0.95
      P1  H  7997  8008       L1     4  0.96

> <Gold.Chemscore.Hbond.Weighted>
-14.8695

> <Gold.Chemscore.Metal.Weighted>
-0.0000

> <Gold.Chemscore.Lipo.Weighted>
-7.3265

> <Gold.Chemscore.Internal_Hbond.Weighted>
0.0000

> <Gold.Chemscore.DEClash.Weighted>
0.0000

> <Gold.Chemscore.DEInternal.Weighted>
2.8247

> <Gold.Chemscore.Rot.Weighted>
2.5600

> <Gold.Chemscore.Internal.Correction.Weighted>
   9.000000E+99

> <Gold.Protein.RotatedTorsions>
[ 6907 6896 6895 6894 ] final   29.62 input  -60.11 | X-H torsion
[ 7974 7965 7964 7962 ] final   -1.59 input  175.53 | X-H torsion
[ 8008 7997 7996 7995 ] final  -97.11 input   59.86 | X-H torsion
[ 10167 10162 10161 10158 ] final -136.09 input  -65.29 | X-H torsion
[ 10718 10713 10712 10709 ] final -173.14 input   66.30 | X-H torsion
[ 10763 10752 10751 10750 ] final  154.40 input  -60.55 | X-H torsion
[ 11005 11000 10999 10996 ] final    0.31 input  -57.11 | X-H torsion

> <Gold.Protein.ActiveResidues>
 VAL166  LYS551  ARG553  GLY616  TRP617  ASP618  TYR619  PRO620  LYS621  CYS622 
 ASP623  PHE694  ASN695  SER759  ASP760  ASP761  ALA762  ILE779  LEU786  VAL792 
 PHE793  MET794  SER795  GLU796  ALA797  LYS798  CYS799  TRP800  GLU811  SER814 

> <Gold.Protein.RotatedAtoms>
  152.0342  134.9750  160.0572 H   0  0  0  0  0  0  0  0  0  0  0  0  # atno 6907 bound_to 6896
  152.1214  133.4351  159.4686 H   0  0  0  0  0  0  0  0  0  0  0  0  # atno 6908 bound_to 6896
  150.6849  134.2449  159.4530 H   0  0  0  0  0  0  0  0  0  0  0  0  # atno 6909 bound_to 6896
  146.2415  140.1443  142.8335 H   0  0  0  0  0  0  0  0  0  0  0  0  # atno 7974 bound_to 7965
  154.7834  140.0466  157.1144 H   0  0  0  0  0  0  0  0  0  0  0  0  # atno 8008 bound_to 7997
  154.9678  140.3085  155.4982 H   0  0  0  0  0  0  0  0  0  0  0  0  # atno 8009 bound_to 7997
  156.2939  140.2259  156.4768 H   0  0  0  0  0  0  0  0  0  0  0  0  # atno 8010 bound_to 7997
  139.8713  143.6953  152.2639 H   0  0  0  0  0  0  0  0  0  0  0  0  # atno 10167 bound_to 10162
  156.7659  130.9431  151.3119 H   0  0  0  0  0  0  0  0  0  0  0  0  # atno 10718 bound_to 10713
  154.1516  135.2815  155.3133 H   0  0  0  0  0  0  0  0  0  0  0  0  # atno 10763 bound_to 10752
  154.6213  135.5466  153.7581 H   0  0  0  0  0  0  0  0  0  0  0  0  # atno 10764 bound_to 10752
  153.0219  135.6439  154.1660 H   0  0  0  0  0  0  0  0  0  0  0  0  # atno 10765 bound_to 10752
  140.6280  133.9601  155.8259 H   0  0  0  0  0  0  0  0  0  0  0  0  # atno 11005 bound_to 11000
  145.0220  140.8801  143.5161 LP  0  0  0  0  0  0  0  0  0  0  0  0  # atno 17320 bound_to 7965
  145.1493  139.2524  143.5449 LP  0  0  0  0  0  0  0  0  0  0  0  0  # atno 17321 bound_to 7965
  139.7281  144.7588  151.0846 LP  0  0  0  0  0  0  0  0  0  0  0  0  # atno 17342 bound_to 10162
  140.7760  143.5123  150.9638 LP  0  0  0  0  0  0  0  0  0  0  0  0  # atno 17343 bound_to 10162
  157.6713  130.9054  150.0047 LP  0  0  0  0  0  0  0  0  0  0  0  0  # atno 17370 bound_to 10713
  156.1309  130.3643  149.9733 LP  0  0  0  0  0  0  0  0  0  0  0  0  # atno 17371 bound_to 10713
  141.0696  134.0226  157.3545 LP  0  0  0  0  0  0  0  0  0  0  0  0  # atno 17394 bound_to 11000
  139.9127  135.0192  156.7758 LP  0  0  0  0  0  0  0  0  0  0  0  0  # atno 17395 bound_to 11000

$$$$
