AV-unprocessed.smi:1493|AV-procd|sdf|6049|dock5
  -GOLD-   22720 6163D 1   1.00000     0.00000
 Structure written by MMmdl.
 33 33  0  0  0  0  0  0  0  0  2 V2000
  151.6238  144.3574  157.9133 C   0  0  0  0  0  0  0  0  0  0  0  0
  151.8770  143.6686  159.2588 C   0  0  0  0  0  0  0  0  0  0  0  0
  153.3557  143.2935  159.4603 C   0  0  0  0  0  0  0  0  0  0  0  0
  153.6045  142.3686  160.6674 C   0  0  1  0  0  0  0  0  0  0  0  0
  152.5498  142.5711  161.7642 C   0  0  0  0  0  0  0  0  0  0  0  0
  153.6003  140.9681  160.2483 N   0  0  0  0  0  0  0  0  0  0  0  0
  152.5748  140.3151  159.6791 C   0  0  0  0  0  0  0  0  0  0  0  0
  151.4879  140.8424  159.4365 O   0  0  0  0  0  0  0  0  0  0  0  0
  152.8396  138.8385  159.3448 C   0  0  0  0  0  0  0  0  0  0  0  0
  152.3376  138.4177  158.0288 N   0  0  0  0  0  0  0  0  0  0  0  0
  152.7674  139.2800  156.9313 N   0  5  0  0  0  0  0  0  0  0  0  0
  152.3827  138.9788  155.6628 C   0  0  0  0  0  0  0  0  0  0  0  0
  152.7184  139.6475  154.6880 O   0  0  0  0  0  0  0  0  0  0  0  0
  151.5336  137.8163  155.4628 C   0  0  0  0  0  0  0  0  0  0  0  0
  151.1346  137.0503  156.4974 C   0  0  0  0  0  0  0  0  0  0  0  0
  151.5282  137.3314  157.8728 C   0  0  0  0  0  0  0  0  0  0  0  0
  151.1623  136.6395  158.8233 O   0  0  0  0  0  0  0  0  0  0  0  0
  150.5699  144.6120  157.8005 H   0  0  0  0  0  0  0  0  0  0  0  0
  151.9004  143.7100  157.0809 H   0  0  0  0  0  0  0  0  0  0  0  0
  152.1998  145.2792  157.8282 H   0  0  0  0  0  0  0  0  0  0  0  0
  151.5452  144.3288  160.0608 H   0  0  0  0  0  0  0  0  0  0  0  0
  151.2596  142.7719  159.3244 H   0  0  0  0  0  0  0  0  0  0  0  0
  153.7173  142.7987  158.5579 H   0  0  0  0  0  0  0  0  0  0  0  0
  153.9498  144.2023  159.5662 H   0  0  0  0  0  0  0  0  0  0  0  0
  154.5737  142.6325  161.0938 H   0  0  0  0  0  0  0  0  0  0  0  0
  152.5388  143.6046  162.1108 H   0  0  0  0  0  0  0  0  0  0  0  0
  152.7550  141.9373  162.6276 H   0  0  0  0  0  0  0  0  0  0  0  0
  151.5489  142.3304  161.4038 H   0  0  0  0  0  0  0  0  0  0  0  0
  154.4495  140.4465  160.4097 H   0  0  0  0  0  0  0  0  0  0  0  0
  153.9129  138.6513  159.4075 H   0  0  0  0  0  0  0  0  0  0  0  0
  152.3927  138.2252  160.1297 H   0  0  0  0  0  0  0  0  0  0  0  0
  151.2143  137.5628  154.4627 H   0  0  0  0  0  0  0  0  0  0  0  0
  150.5032  136.1964  156.3027 H   0  0  0  0  0  0  0  0  0  0  0  0
  1  2  1  0  0  0  0
  1 18  1  0  0  0  0
  1 19  1  0  0  0  0
  1 20  1  0  0  0  0
  2  3  1  0  0  0  0
  2 21  1  0  0  0  0
  2 22  1  0  0  0  0
  3  4  1  0  0  0  0
  3 23  1  0  0  0  0
  3 24  1  0  0  0  0
  4  5  1  0  0  0  0
  4  6  1  0  0  0  0
  4 25  1  0  0  0  0
  5 26  1  0  0  0  0
  5 27  1  0  0  0  0
  5 28  1  0  0  0  0
  6  7  1  0  0  0  0
  6 29  1  0  0  0  0
  7  8  2  0  0  0  0
  7  9  1  0  0  0  0
  9 30  1  0  0  0  0
  9 31  1  0  0  0  0
  9 10  1  0  0  0  0
 10 11  1  0  0  0  0
 10 16  1  0  0  0  0
 11 12  1  0  0  0  0
 12 13  2  0  0  0  0
 12 14  1  0  0  0  0
 14 32  1  0  0  0  0
 14 15  2  0  0  0  0
 15 33  1  0  0  0  0
 15 16  1  0  0  0  0
 16 17  2  0  0  0  0
M  CHG  1  11  -1
M  END
> <s_m_source_file>
AV-unprocessed.smi

> <i_m_source_file_index>
1493

> <i_lp_mmshare_version>
43012

> <i_f3d_flags>
0

> <s_epik_input>
W0NIM11bQ0gyXVtDSDJdW0NASF0oW0NIM10pW05IXUMoPU8pW0NIMl1uMVtuSF1jKD1PKVtjSF1bY0hdYzE9Tw==

> <s_epik_cmdline>
J2VwaWtfcHl0aG9uJywgJy1waCcsICc3LjAnLCAnLXRuJywgJzgnLCAnLW1hJywgJzIwMCcsICctbWV0YWxfYmluZGluZycsICctaW1hZScsICc8aW5maWxlLm1hZT4nLCAnLW9tYWUnLCAnPG91dGZpbGUubWFlPic=

> <r_lp_tautomer_probability>
1

> <r_epik_Ionization_Penalty>
0.0986298

> <r_epik_Ionization_Penalty_Charging>
0.0986298

> <r_epik_Ionization_Penalty_Neutral>
1.93017e-08

> <r_epik_State_Penalty>
0.0347731

> <r_epik_Charging_Adjusted_Penalty>
0.133403

> <i_epik_Tot_Q>
-1

> <i_epik_Tot_abs_Q>
1

> <r_epik_Metal_State_Penalty>
0.0347731

> <b_epik_Metal_Only>
0

> <s_lp_Force_Field>
OPLS_2005

> <r_lp_Energy>
19.264

> <b_lp_Chiralities_Consistent>
1

> <s_lp_Variant>
AV-unprocessed.smi:1493-2

> <Gold.Version>
5.8.1

> <Gold.Id.Protein>
6NUR|6NUR_protein|mol2

> <Gold.PLP.Fitness>
44.0470

> <Gold.PLP.PLP>
-35.2876

> <Gold.PLP.part.hbond>
-3.7638

> <Gold.PLP.part.metal>
0.0000

> <Gold.PLP.part.buried>
-5.4369

> <Gold.PLP.part.nonpolar>
-26.1250

> <Gold.PLP.part.repulsive>
0.1021

> <Gold.PLP.ligand.clash>
0.0000

> <Gold.PLP.ligand.torsion>
0.7487

> <Gold.PLP.Chemscore.Hbond>
3.4124

> <Gold.PLP.Chemscore.CHOScore>
0.0000

> <Gold.PLP.Chemscore.Metal>
0.0000

> <Gold.Chemscore.Hbonds>
donor molecule, donor type, donor heavy atom, donor atom, acceptor molecule, acceptor atom, score
      P1  H  6896  6907       L1    17  0.93
      P1  H  7989  7998       L1    13  0.50
      P1  H  7997  8010       L1    11  2.00

> <Gold.PLP.Chemscore.Internal.Correction>
0.0197

> <Gold.Rescore>
     Score         DG    S(hbond)    S(metal)    S(lipo)     H(rot)  DE(clash)    DE(int)     intcor
     14.33     -17.22       2.50        0.00      75.69       2.14       0.06       2.83       ----

> <Gold.Chemscore.Fitness>
14.3301

> <Gold.Chemscore.DG>
-17.2186

> <Gold.Chemscore.ZeroCoef>
-5.4800

> <Gold.Chemscore.Hbond>
2.5012

> <Gold.Chemscore.Metal>
0.0000

> <Gold.Chemscore.Lipo>
75.6926

> <Gold.Chemscore.Internal_Hbond>
0.0000

> <Gold.Chemscore.DEClash>
0.0556

> <Gold.Chemscore.DEInternal>
2.8329

> <Gold.Chemscore.Rot>
2.1372

> <Gold.Chemscore.Internal.Correction>
   9.000000E+99

> <Gold.Chemscore.Hbonds>
donor molecule, donor type, donor heavy atom, donor atom, acceptor molecule, acceptor atom, score
      P1  H  6896  6907       L1    17  0.90
      P1  H  7989  7998       L1    13  0.49
      P1  H  7997  8010       L1    11  0.60

> <Gold.Chemscore.Hbond.Weighted>
-8.3539

> <Gold.Chemscore.Metal.Weighted>
-0.0000

> <Gold.Chemscore.Lipo.Weighted>
-8.8560

> <Gold.Chemscore.Internal_Hbond.Weighted>
0.0000

> <Gold.Chemscore.DEClash.Weighted>
0.0556

> <Gold.Chemscore.DEInternal.Weighted>
2.8329

> <Gold.Chemscore.Rot.Weighted>
5.4713

> <Gold.Chemscore.Internal.Correction.Weighted>
   9.000000E+99

> <Gold.Protein.RotatedTorsions>
[ 6907 6896 6895 6894 ] final  -22.26 input  -60.11 | X-H torsion
[ 7974 7965 7964 7962 ] final   71.95 input  175.53 | X-H torsion
[ 8008 7997 7996 7995 ] final   48.04 input   59.86 | X-H torsion
[ 10167 10162 10161 10158 ] final  -51.60 input  -65.29 | X-H torsion
[ 10718 10713 10712 10709 ] final -125.26 input   66.30 | X-H torsion
[ 10763 10752 10751 10750 ] final  -56.41 input  -60.55 | X-H torsion
[ 11005 11000 10999 10996 ] final   45.43 input  -57.11 | X-H torsion

> <Gold.Protein.ActiveResidues>
 VAL166  LYS551  ARG553  GLY616  TRP617  ASP618  TYR619  PRO620  LYS621  CYS622 
 ASP623  PHE694  ASN695  SER759  ASP760  ASP761  ALA762  ILE779  LEU786  VAL792 
 PHE793  MET794  SER795  GLU796  ALA797  LYS798  CYS799  TRP800  GLU811  SER814 

> <Gold.Protein.RotatedAtoms>
  151.2212  135.0519  159.8950 H   0  0  0  0  0  0  0  0  0  0  0  0  # atno 6907 bound_to 6896
  152.5415  134.0639  159.8174 H   0  0  0  0  0  0  0  0  0  0  0  0  # atno 6908 bound_to 6896
  151.0805  133.5345  159.2652 H   0  0  0  0  0  0  0  0  0  0  0  0  # atno 6909 bound_to 6896
  145.7595  139.2794  143.1384 H   0  0  0  0  0  0  0  0  0  0  0  0  # atno 7974 bound_to 7965
  155.3790  140.3427  155.4246 H   0  0  0  0  0  0  0  0  0  0  0  0  # atno 8008 bound_to 7997
  156.1621  140.1604  156.8628 H   0  0  0  0  0  0  0  0  0  0  0  0  # atno 8009 bound_to 7997
  154.5149  140.0781  156.8044 H   0  0  0  0  0  0  0  0  0  0  0  0  # atno 8010 bound_to 7997
  140.6580  143.2614  151.4527 H   0  0  0  0  0  0  0  0  0  0  0  0  # atno 10167 bound_to 10162
  156.1660  130.6635  151.0115 H   0  0  0  0  0  0  0  0  0  0  0  0  # atno 10718 bound_to 10713
  154.2062  135.6402  153.5101 H   0  0  0  0  0  0  0  0  0  0  0  0  # atno 10763 bound_to 10752
  153.0000  135.5463  154.6264 H   0  0  0  0  0  0  0  0  0  0  0  0  # atno 10764 bound_to 10752
  154.5689  135.2915  155.0820 H   0  0  0  0  0  0  0  0  0  0  0  0  # atno 10765 bound_to 10752
  140.1460  134.4522  155.8415 H   0  0  0  0  0  0  0  0  0  0  0  0  # atno 11005 bound_to 11000
  146.0278  140.8287  142.9891 LP  0  0  0  0  0  0  0  0  0  0  0  0  # atno 17320 bound_to 7965
  144.6833  140.2724  143.7304 LP  0  0  0  0  0  0  0  0  0  0  0  0  # atno 17321 bound_to 7965
  139.5807  144.1717  152.1964 LP  0  0  0  0  0  0  0  0  0  0  0  0  # atno 17342 bound_to 10162
  140.1041  144.5514  150.6969 LP  0  0  0  0  0  0  0  0  0  0  0  0  # atno 17343 bound_to 10162
  157.6768  131.0848  150.7473 LP  0  0  0  0  0  0  0  0  0  0  0  0  # atno 17370 bound_to 10713
  156.7534  130.4776  149.5452 LP  0  0  0  0  0  0  0  0  0  0  0  0  # atno 17371 bound_to 10713
  141.2192  133.6852  156.7334 LP  0  0  0  0  0  0  0  0  0  0  0  0  # atno 17394 bound_to 11000
  140.2663  134.8427  157.3806 LP  0  0  0  0  0  0  0  0  0  0  0  0  # atno 17395 bound_to 11000

$$$$
