AV-unprocessed.smi:1504|AV-procd|sdf|6073|dock1
  -GOLD-   22720 6193D 1   1.00000     0.00000
 Structure written by MMmdl.
 40 41  0  0  0  0  0  0  0  0  2 V2000
  145.8473  138.7791  153.8364 O   0  0  0  0  0  0  0  0  0  0  0  0
  146.6956  138.0908  153.2686 C   0  0  0  0  0  0  0  0  0  0  0  0
  146.4288  136.9365  152.6418 N   0  0  0  0  0  0  0  0  0  0  0  0
  145.1063  136.3308  152.5388 C   0  0  0  0  0  0  0  0  0  0  0  0
  144.7813  135.9243  151.0915 C   0  0  0  0  0  0  0  0  0  0  0  0
  145.0083  134.4458  150.8438 C   0  0  0  0  0  0  0  0  0  0  0  0
  146.2674  133.8365  151.0361 C   0  0  0  0  0  0  0  0  0  0  0  0
  146.4092  132.4552  150.7887 C   0  0  0  0  0  0  0  0  0  0  0  0
  145.2907  131.7126  150.3562 C   0  0  0  0  0  0  0  0  0  0  0  0
  144.0562  132.3715  150.1830 C   0  0  0  0  0  0  0  0  0  0  0  0
  143.9607  133.6966  150.4299 N   0  3  0  0  0  0  0  0  0  0  0  0
  147.9958  138.4034  153.2061 N   0  0  0  0  0  0  0  0  0  0  0  0
  148.5817  139.6003  153.7954 C   0  0  0  0  0  0  0  0  0  0  0  0
  149.7220  139.2408  154.7631 C   0  0  2  0  0  0  0  0  0  0  0  0
  150.2299  140.4625  155.5533 C   0  0  0  0  0  0  0  0  0  0  0  0
  151.5202  140.0704  156.2793 C   0  0  0  0  0  0  0  0  0  0  0  0
  152.3769  138.9043  155.1577 S   0  0  0  0  0  0  0  0  0  0  0  0
  153.4031  139.6266  154.3910 O   0  0  0  0  0  0  0  0  0  0  0  0
  152.7087  137.6794  155.9013 O   0  0  0  0  0  0  0  0  0  0  0  0
  150.9338  138.5923  154.0698 C   0  0  0  0  0  0  0  0  0  0  0  0
  147.1935  136.4438  152.2036 H   0  0  0  0  0  0  0  0  0  0  0  0
  145.0389  135.4671  153.2026 H   0  0  0  0  0  0  0  0  0  0  0  0
  144.3752  137.0559  152.8972 H   0  0  0  0  0  0  0  0  0  0  0  0
  143.7432  136.1657  150.8588 H   0  0  0  0  0  0  0  0  0  0  0  0
  145.3934  136.4956  150.3921 H   0  0  0  0  0  0  0  0  0  0  0  0
  147.1147  134.4183  151.3693 H   0  0  0  0  0  0  0  0  0  0  0  0
  147.3646  131.9711  150.9292 H   0  0  0  0  0  0  0  0  0  0  0  0
  145.3786  130.6538  150.1610 H   0  0  0  0  0  0  0  0  0  0  0  0
  143.1497  131.8831  149.8566 H   0  0  0  0  0  0  0  0  0  0  0  0
  148.6205  137.7776  152.7190 H   0  0  0  0  0  0  0  0  0  0  0  0
  148.9515  140.2498  153.0002 H   0  0  0  0  0  0  0  0  0  0  0  0
  147.8064  140.1550  154.3266 H   0  0  0  0  0  0  0  0  0  0  0  0
  149.3408  138.5244  155.4928 H   0  0  0  0  0  0  0  0  0  0  0  0
  150.4500  141.2741  154.8582 H   0  0  0  0  0  0  0  0  0  0  0  0
  149.4788  140.8346  156.2505 H   0  0  0  0  0  0  0  0  0  0  0  0
  152.1625  140.9217  156.5048 H   0  0  0  0  0  0  0  0  0  0  0  0
  151.2966  139.5438  157.2073 H   0  0  0  0  0  0  0  0  0  0  0  0
  150.8111  137.5211  153.9102 H   0  0  0  0  0  0  0  0  0  0  0  0
  151.1361  139.0650  153.1080 H   0  0  0  0  0  0  0  0  0  0  0  0
  143.0575  134.1525  150.2978 H   0  0  0  0  0  0  0  0  0  0  0  0
  1  2  2  0  0  0  0
  2  3  1  0  0  0  0
  2 12  1  0  0  0  0
  3  4  1  0  0  0  0
  3 21  1  0  0  0  0
  4  5  1  0  0  0  0
  4 22  1  0  0  0  0
  4 23  1  0  0  0  0
  5  6  1  0  0  0  0
  5 24  1  0  0  0  0
  5 25  1  0  0  0  0
  6 11  1  0  0  0  0
  6  7  2  0  0  0  0
  7  8  1  0  0  0  0
  7 26  1  0  0  0  0
  8  9  2  0  0  0  0
  8 27  1  0  0  0  0
  9 10  1  0  0  0  0
  9 28  1  0  0  0  0
 10 11  2  0  0  0  0
 10 29  1  0  0  0  0
 11 40  1  0  0  0  0
 12 13  1  0  0  0  0
 12 30  1  0  0  0  0
 13 14  1  0  0  0  0
 13 31  1  0  0  0  0
 13 32  1  0  0  0  0
 14 20  1  0  0  0  0
 14 15  1  0  0  0  0
 14 33  1  0  0  0  0
 15 16  1  0  0  0  0
 15 34  1  0  0  0  0
 15 35  1  0  0  0  0
 16 17  1  0  0  0  0
 16 36  1  0  0  0  0
 16 37  1  0  0  0  0
 17 18  2  0  0  0  0
 17 19  2  0  0  0  0
 17 20  1  0  0  0  0
 20 38  1  0  0  0  0
 20 39  1  0  0  0  0
M  CHG  1  11   1
M  END
> <s_m_source_file>
AV-unprocessed.smi

> <i_m_source_file_index>
1504

> <i_lp_mmshare_version>
43012

> <i_f3d_flags>
0

> <s_epik_input>
Tz1TMSg9TylbQ0gyXVtDSDJdW0NASF0oW0NIMl0xKVtDSDJdW05IXUMoPU8pW05IXVtDSDJdW0NIMl1jMltjSF1bY0hdW2NIXVtjSF1uMg==

> <s_epik_cmdline>
J2VwaWtfcHl0aG9uJywgJy1waCcsICc3LjAnLCAnLXRuJywgJzgnLCAnLW1hJywgJzIwMCcsICctbWV0YWxfYmluZGluZycsICctaW1hZScsICc8aW5maWxlLm1hZT4nLCAnLW9tYWUnLCAnPG91dGZpbGUubWFlPic=

> <r_epik_Ionization_Penalty>
1.57393

> <r_epik_Ionization_Penalty_Charging>
1.57388

> <r_epik_Ionization_Penalty_Neutral>
4.82054e-05

> <r_epik_State_Penalty>
1.66991

> <r_epik_Charging_Adjusted_Penalty>
3.24379

> <i_epik_Tot_Q>
1

> <i_epik_Tot_abs_Q>
1

> <r_epik_Metal_State_Penalty>
1.71052

> <b_epik_Metal_Only>
0

> <s_lp_Force_Field>
OPLS_2005

> <r_lp_Energy>
6.68719

> <b_lp_Chiralities_Consistent>
1

> <s_lp_Variant>
AV-unprocessed.smi:1504-3

> <Gold.Version>
5.8.1

> <Gold.Id.Protein>
6NUR|6NUR_protein|mol2

> <Gold.PLP.Fitness>
53.8220

> <Gold.PLP.PLP>
-37.5818

> <Gold.PLP.part.hbond>
-6.5461

> <Gold.PLP.part.metal>
0.0000

> <Gold.PLP.part.buried>
-1.1701

> <Gold.PLP.part.nonpolar>
-30.4156

> <Gold.PLP.part.repulsive>
0.2629

> <Gold.PLP.ligand.clash>
0.0000

> <Gold.PLP.ligand.torsion>
0.3631

> <Gold.PLP.Chemscore.Hbond>
5.6480

> <Gold.PLP.Chemscore.CHOScore>
0.0000

> <Gold.PLP.Chemscore.Metal>
0.0000

> <Gold.Chemscore.Hbonds>
donor molecule, donor type, donor heavy atom, donor atom, acceptor molecule, acceptor atom, score
      L1  H     3    21       P1  7948  1.00
      L1  H    11    40       P1 10186  1.17
      L1  H    12    30       P1  7948  1.00
      P1  H  7989  7998       L1    18  0.02
      P1  H  7997  8009       L1    18  1.00
      P1  H 10752 10765       L1    19  0.08

> <Gold.PLP.Chemscore.Internal.Correction>
0.0224

> <Gold.Rescore>
     Score         DG    S(hbond)    S(metal)    S(lipo)     H(rot)  DE(clash)    DE(int)     intcor
     24.34     -25.75       4.71        0.00      82.75       2.01       1.05       0.35       ----

> <Gold.Chemscore.Fitness>
24.3409

> <Gold.Chemscore.DG>
-25.7452

> <Gold.Chemscore.ZeroCoef>
-5.4800

> <Gold.Chemscore.Hbond>
4.7129

> <Gold.Chemscore.Metal>
0.0000

> <Gold.Chemscore.Lipo>
82.7473

> <Gold.Chemscore.Internal_Hbond>
0.0000

> <Gold.Chemscore.DEClash>
1.0519

> <Gold.Chemscore.DEInternal>
0.3524

> <Gold.Chemscore.Rot>
2.0146

> <Gold.Chemscore.Internal.Correction>
   9.000000E+99

> <Gold.Chemscore.Hbonds>
donor molecule, donor type, donor heavy atom, donor atom, acceptor molecule, acceptor atom, score
      L1  H     3    21       P1  7948  0.96
      L1  H    11    40       P1 10186  0.54
      L1  H    12    30       P1  7948  0.97
      P1  H  7997  8009       L1    18  0.45
      P1  H 10752 10765       L1    19  0.10

> <Gold.Chemscore.Hbond.Weighted>
-15.7411

> <Gold.Chemscore.Metal.Weighted>
-0.0000

> <Gold.Chemscore.Lipo.Weighted>
-9.6814

> <Gold.Chemscore.Internal_Hbond.Weighted>
0.0000

> <Gold.Chemscore.DEClash.Weighted>
1.0519

> <Gold.Chemscore.DEInternal.Weighted>
0.3524

> <Gold.Chemscore.Rot.Weighted>
5.1573

> <Gold.Chemscore.Internal.Correction.Weighted>
   9.000000E+99

> <Gold.Protein.RotatedTorsions>
[ 6907 6896 6895 6894 ] final  -19.34 input  -60.11 | X-H torsion
[ 7974 7965 7964 7962 ] final -159.41 input  175.53 | X-H torsion
[ 8008 7997 7996 7995 ] final -122.31 input   59.86 | X-H torsion
[ 10167 10162 10161 10158 ] final   44.03 input  -65.29 | X-H torsion
[ 10718 10713 10712 10709 ] final   69.00 input   66.30 | X-H torsion
[ 10763 10752 10751 10750 ] final -149.62 input  -60.55 | X-H torsion
[ 11005 11000 10999 10996 ] final  124.31 input  -57.11 | X-H torsion

> <Gold.Protein.ActiveResidues>
 VAL166  LYS551  ARG553  GLY616  TRP617  ASP618  TYR619  PRO620  LYS621  CYS622 
 ASP623  PHE694  ASN695  SER759  ASP760  ASP761  ALA762  ILE779  LEU786  VAL792 
 PHE793  MET794  SER795  GLU796  ALA797  LYS798  CYS799  TRP800  GLU811  SER814 

> <Gold.Protein.RotatedAtoms>
  151.2646  135.0665  159.9110 H   0  0  0  0  0  0  0  0  0  0  0  0  # atno 6907 bound_to 6896
  152.5360  134.0195  159.7985 H   0  0  0  0  0  0  0  0  0  0  0  0  # atno 6908 bound_to 6896
  151.0423  133.5645  159.2681 H   0  0  0  0  0  0  0  0  0  0  0  0  # atno 6909 bound_to 6896
  144.7466  140.3689  143.6080 H   0  0  0  0  0  0  0  0  0  0  0  0  # atno 7974 bound_to 7965
  155.1621  140.0406  157.2845 H   0  0  0  0  0  0  0  0  0  0  0  0  # atno 8008 bound_to 7997
  154.6329  140.2528  155.7386 H   0  0  0  0  0  0  0  0  0  0  0  0  # atno 8009 bound_to 7997
  156.2494  140.2871  156.0688 H   0  0  0  0  0  0  0  0  0  0  0  0  # atno 8010 bound_to 7997
  140.3384  144.2501  150.6159 H   0  0  0  0  0  0  0  0  0  0  0  0  # atno 10167 bound_to 10162
  157.6321  130.9403  150.0454 H   0  0  0  0  0  0  0  0  0  0  0  0  # atno 10718 bound_to 10713
  154.8166  135.3304  154.7157 H   0  0  0  0  0  0  0  0  0  0  0  0  # atno 10763 bound_to 10752
  153.7797  135.6919  153.4895 H   0  0  0  0  0  0  0  0  0  0  0  0  # atno 10764 bound_to 10752
  153.1988  135.4523  155.0189 H   0  0  0  0  0  0  0  0  0  0  0  0  # atno 10765 bound_to 10752
  139.9353  134.9640  156.8390 H   0  0  0  0  0  0  0  0  0  0  0  0  # atno 11005 bound_to 11000
  145.7099  139.1682  143.2545 LP  0  0  0  0  0  0  0  0  0  0  0  0  # atno 17320 bound_to 7965
  146.1355  140.7129  142.9392 LP  0  0  0  0  0  0  0  0  0  0  0  0  # atno 17321 bound_to 7965
  140.5332  143.2239  151.8205 LP  0  0  0  0  0  0  0  0  0  0  0  0  # atno 17342 bound_to 10162
  139.4844  144.4694  151.9444 LP  0  0  0  0  0  0  0  0  0  0  0  0  # atno 17343 bound_to 10162
  156.1533  130.3643  149.9406 LP  0  0  0  0  0  0  0  0  0  0  0  0  # atno 17370 bound_to 10713
  156.7421  130.9083  151.3633 LP  0  0  0  0  0  0  0  0  0  0  0  0  # atno 17371 bound_to 10713
  140.6093  134.0097  155.7570 LP  0  0  0  0  0  0  0  0  0  0  0  0  # atno 17394 bound_to 11000
  141.0963  133.9839  157.3155 LP  0  0  0  0  0  0  0  0  0  0  0  0  # atno 17395 bound_to 11000

$$$$
