AV-unprocessed.smi:2881|AV-procd|sdf|11059|dock2
  -GOLD-   2272015533D 1   1.00000     0.00000
 Structure written by MMmdl.
 40 42  0  0  0  0  0  0  0  0  1 V2000
  147.3401  138.1003  153.9525 C   0  0  0  0  0  0  0  0  0  0  0  0
  148.6955  138.5450  154.3866 C   0  0  0  0  0  0  0  0  0  0  0  0
  149.3506  138.4156  155.5785 C   0  0  0  0  0  0  0  0  0  0  0  0
  150.6081  139.0535  155.3625 C   0  0  0  0  0  0  0  0  0  0  0  0
  151.7394  139.2224  156.3403 C   0  0  0  0  0  0  0  0  0  0  0  0
  151.2478  139.9712  157.5789 C   0  0  0  0  0  0  0  0  0  0  0  0
  150.2752  139.5532  158.2069 O   0  0  0  0  0  0  0  0  0  0  0  0
  151.9287  141.0773  157.9171 N   0  0  0  0  0  0  0  0  0  0  0  0
  151.5910  141.9794  159.0185 C   0  0  2  0  0  0  0  0  0  0  0  0
  151.5798  143.4405  158.5195 C   0  0  1  0  0  0  0  0  0  0  0  0
  150.8534  144.3210  159.5526 C   0  0  0  0  0  0  0  0  0  0  0  0
  151.8618  144.3716  160.7162 C   0  0  0  0  0  0  0  0  0  0  0  0
  153.0327  143.5156  160.1934 C   0  0  2  0  0  0  0  0  0  0  0  0
  153.0293  143.8699  158.7118 C   0  0  0  0  0  0  0  0  0  0  0  0
  152.6182  142.0232  160.1913 C   0  0  2  0  0  0  0  0  0  0  0  0
  153.8193  141.0560  160.0883 C   0  0  0  0  0  0  0  0  0  0  0  0
  154.7247  141.2789  161.1492 O   0  0  0  0  0  0  0  0  0  0  0  0
  150.7252  139.5333  154.1315 N   0  0  0  0  0  0  0  0  0  0  0  0
  149.5535  139.2192  153.5483 N   0  0  0  0  0  0  0  0  0  0  0  0
  149.3551  139.4683  152.5897 H   0  0  0  0  0  0  0  0  0  0  0  0
  146.8612  137.4994  154.7259 H   0  0  0  0  0  0  0  0  0  0  0  0
  147.4003  137.4966  153.0467 H   0  0  0  0  0  0  0  0  0  0  0  0
  146.6987  138.9579  153.7475 H   0  0  0  0  0  0  0  0  0  0  0  0
  148.9851  137.9406  156.4770 H   0  0  0  0  0  0  0  0  0  0  0  0
  152.1293  138.2491  156.6404 H   0  0  0  0  0  0  0  0  0  0  0  0
  152.5731  139.7623  155.8880 H   0  0  0  0  0  0  0  0  0  0  0  0
  152.7151  141.3409  157.3408 H   0  0  0  0  0  0  0  0  0  0  0  0
  150.5998  141.7148  159.3924 H   0  0  0  0  0  0  0  0  0  0  0  0
  151.1936  143.5615  157.5064 H   0  0  0  0  0  0  0  0  0  0  0  0
  150.6781  145.3214  159.1549 H   0  0  0  0  0  0  0  0  0  0  0  0
  149.8900  143.9067  159.8518 H   0  0  0  0  0  0  0  0  0  0  0  0
  152.1828  145.3978  160.8987 H   0  0  0  0  0  0  0  0  0  0  0  0
  151.4452  143.9837  161.6464 H   0  0  0  0  0  0  0  0  0  0  0  0
  153.9717  143.7188  160.7092 H   0  0  0  0  0  0  0  0  0  0  0  0
  153.7380  143.2880  158.1208 H   0  0  0  0  0  0  0  0  0  0  0  0
  153.1952  144.9313  158.5198 H   0  0  0  0  0  0  0  0  0  0  0  0
  152.0962  141.7895  161.1208 H   0  0  0  0  0  0  0  0  0  0  0  0
  153.4841  140.0212  160.1559 H   0  0  0  0  0  0  0  0  0  0  0  0
  154.3452  141.1681  159.1401 H   0  0  0  0  0  0  0  0  0  0  0  0
  155.1515  142.1106  161.0103 H   0  0  0  0  0  0  0  0  0  0  0  0
  1  2  1  0  0  0  0
  1 21  1  0  0  0  0
  1 22  1  0  0  0  0
  1 23  1  0  0  0  0
  2 19  1  0  0  0  0
  2  3  2  0  0  0  0
  3  4  1  0  0  0  0
  3 24  1  0  0  0  0
  4  5  1  0  0  0  0
  4 18  2  0  0  0  0
  5  6  1  0  0  0  0
  5 25  1  0  0  0  0
  5 26  1  0  0  0  0
  6  7  2  0  0  0  0
  6  8  1  0  0  0  0
  8  9  1  0  0  0  0
  8 27  1  0  0  0  0
  9 15  1  0  0  0  0
  9 10  1  0  0  0  0
  9 28  1  0  0  0  0
 10 14  1  0  0  0  0
 10 11  1  0  0  0  0
 10 29  1  0  0  0  0
 11 12  1  0  0  0  0
 11 30  1  0  0  0  0
 11 31  1  0  0  0  0
 12 13  1  0  0  0  0
 12 32  1  0  0  0  0
 12 33  1  0  0  0  0
 13 14  1  0  0  0  0
 13 15  1  0  0  0  0
 13 34  1  0  0  0  0
 14 35  1  0  0  0  0
 14 36  1  0  0  0  0
 15 16  1  0  0  0  0
 15 37  1  0  0  0  0
 16 17  1  0  0  0  0
 16 38  1  0  0  0  0
 16 39  1  0  0  0  0
 17 40  1  0  0  0  0
 18 19  1  0  0  0  0
 19 20  1  0  0  0  0
M  END
> <s_m_source_file>
AV-unprocessed.smi

> <i_m_source_file_index>
2881

> <i_lp_mmshare_version>
43012

> <i_f3d_flags>
0

> <s_epik_input>
W0NIM11jMVtjSF1jKG5bbkhdMSlbQ0gyXUMoPU8pW05IXVtDQEhdKFtDQEBIXTIzKVtDQEhdKFtDSDJdW09IXSlbQ0BASF0oW0NIMl0zKVtDSDJdW0NIMl0y

> <s_epik_cmdline>
J2VwaWtfcHl0aG9uJywgJy1waCcsICc3LjAnLCAnLXRuJywgJzgnLCAnLW1hJywgJzIwMCcsICctbWV0YWxfYmluZGluZycsICctaW1hZScsICc8aW5maWxlLm1hZT4nLCAnLW9tYWUnLCAnPG91dGZpbGUubWFlPic=

> <r_lp_tautomer_probability>
0.5

> <r_epik_Ionization_Penalty>
9.4349e-05

> <r_epik_Ionization_Penalty_Charging>
0

> <r_epik_Ionization_Penalty_Neutral>
9.4349e-05

> <r_epik_State_Penalty>
0.41068

> <r_epik_Charging_Adjusted_Penalty>
0.41068

> <i_epik_Tot_Q>
0

> <i_epik_Tot_abs_Q>
0

> <r_epik_Metal_State_Penalty>
0.4107

> <b_epik_Metal_Only>
0

> <s_lp_Force_Field>
OPLS_2005

> <r_lp_Energy>
48.9716

> <b_lp_Chiralities_Consistent>
1

> <s_lp_Variant>
AV-unprocessed.smi:2881-5

> <Gold.Version>
5.8.1

> <Gold.Id.Protein>
6NUR|6NUR_protein|mol2

> <Gold.PLP.Fitness>
42.1239

> <Gold.PLP.PLP>
-36.3304

> <Gold.PLP.part.hbond>
-2.8435

> <Gold.PLP.part.metal>
0.0000

> <Gold.PLP.part.buried>
-5.7581

> <Gold.PLP.part.nonpolar>
-28.6179

> <Gold.PLP.part.repulsive>
0.3812

> <Gold.PLP.ligand.clash>
0.0000

> <Gold.PLP.ligand.torsion>
0.1105

> <Gold.PLP.Chemscore.Hbond>
2.0000

> <Gold.PLP.Chemscore.CHOScore>
0.0000

> <Gold.PLP.Chemscore.Metal>
0.0000

> <Gold.Chemscore.Hbonds>
donor molecule, donor type, donor heavy atom, donor atom, acceptor molecule, acceptor atom, score
      L1  H    19    20       P1  7957  1.00
      P1  H  7989  7998       L1    18  1.00

> <Gold.PLP.Chemscore.Internal.Correction>
0.0146

> <Gold.Rescore>
     Score         DG    S(hbond)    S(metal)    S(lipo)     H(rot)  DE(clash)    DE(int)     intcor
     17.49     -18.60       1.88        0.00     108.32       2.28       0.01       1.10       ----

> <Gold.Chemscore.Fitness>
17.4885

> <Gold.Chemscore.DG>
-18.6012

> <Gold.Chemscore.ZeroCoef>
-5.4800

> <Gold.Chemscore.Hbond>
1.8782

> <Gold.Chemscore.Metal>
0.0000

> <Gold.Chemscore.Lipo>
108.3188

> <Gold.Chemscore.Internal_Hbond>
0.0000

> <Gold.Chemscore.DEClash>
0.0098

> <Gold.Chemscore.DEInternal>
1.1029

> <Gold.Chemscore.Rot>
2.2755

> <Gold.Chemscore.Internal.Correction>
   9.000000E+99

> <Gold.Chemscore.Hbonds>
donor molecule, donor type, donor heavy atom, donor atom, acceptor molecule, acceptor atom, score
      L1  H    19    20       P1  7957  0.95
      P1  H  7989  7998       L1    18  0.96

> <Gold.Chemscore.Hbond.Weighted>
-6.2731

> <Gold.Chemscore.Metal.Weighted>
-0.0000

> <Gold.Chemscore.Lipo.Weighted>
-12.6733

> <Gold.Chemscore.Internal_Hbond.Weighted>
0.0000

> <Gold.Chemscore.DEClash.Weighted>
0.0098

> <Gold.Chemscore.DEInternal.Weighted>
1.1029

> <Gold.Chemscore.Rot.Weighted>
5.8252

> <Gold.Chemscore.Internal.Correction.Weighted>
   9.000000E+99

> <Gold.Protein.RotatedTorsions>
[ 6907 6896 6895 6894 ] final  -31.05 input  -60.11 | X-H torsion
[ 7974 7965 7964 7962 ] final -159.34 input  175.53 | X-H torsion
[ 8008 7997 7996 7995 ] final   73.42 input   59.86 | X-H torsion
[ 10167 10162 10161 10158 ] final   23.97 input  -65.29 | X-H torsion
[ 10718 10713 10712 10709 ] final   13.21 input   66.30 | X-H torsion
[ 10763 10752 10751 10750 ] final   73.93 input  -60.55 | X-H torsion
[ 11005 11000 10999 10996 ] final  129.25 input  -57.11 | X-H torsion

> <Gold.Protein.ActiveResidues>
 VAL166  LYS551  ARG553  GLY616  TRP617  ASP618  TYR619  PRO620  LYS621  CYS622 
 ASP623  PHE694  ASN695  SER759  ASP760  ASP761  ALA762  ILE779  LEU786  VAL792 
 PHE793  MET794  SER795  GLU796  ALA797  LYS798  CYS799  TRP800  GLU811  SER814 

> <Gold.Protein.RotatedAtoms>
  151.0973  134.9951  159.8431 H   0  0  0  0  0  0  0  0  0  0  0  0  # atno 6907 bound_to 6896
  152.5434  134.1993  159.8716 H   0  0  0  0  0  0  0  0  0  0  0  0  # atno 6908 bound_to 6896
  151.2034  133.4554  159.2630 H   0  0  0  0  0  0  0  0  0  0  0  0  # atno 6909 bound_to 6896
  144.7469  140.3698  143.6078 H   0  0  0  0  0  0  0  0  0  0  0  0  # atno 7974 bound_to 7965
  155.7834  140.3481  155.5309 H   0  0  0  0  0  0  0  0  0  0  0  0  # atno 8008 bound_to 7997
  155.8706  140.0986  157.1573 H   0  0  0  0  0  0  0  0  0  0  0  0  # atno 8009 bound_to 7997
  154.4017  140.1341  156.4061 H   0  0  0  0  0  0  0  0  0  0  0  0  # atno 8010 bound_to 7997
  140.5226  143.9977  150.6424 H   0  0  0  0  0  0  0  0  0  0  0  0  # atno 10167 bound_to 10162
  157.0213  130.6156  149.5721 H   0  0  0  0  0  0  0  0  0  0  0  0  # atno 10718 bound_to 10713
  153.0553  135.5044  154.7967 H   0  0  0  0  0  0  0  0  0  0  0  0  # atno 10763 bound_to 10752
  154.6797  135.2966  154.9632 H   0  0  0  0  0  0  0  0  0  0  0  0  # atno 10764 bound_to 10752
  154.0422  135.6715  153.4844 H   0  0  0  0  0  0  0  0  0  0  0  0  # atno 10765 bound_to 10752
  139.9605  134.9603  156.9121 H   0  0  0  0  0  0  0  0  0  0  0  0  # atno 11005 bound_to 11000
  145.7089  139.1680  143.2550 LP  0  0  0  0  0  0  0  0  0  0  0  0  # atno 17320 bound_to 7965
  146.1361  140.7120  142.9389 LP  0  0  0  0  0  0  0  0  0  0  0  0  # atno 17321 bound_to 7965
  140.3330  143.3066  152.0667 LP  0  0  0  0  0  0  0  0  0  0  0  0  # atno 17342 bound_to 10162
  139.4928  144.6496  151.6705 LP  0  0  0  0  0  0  0  0  0  0  0  0  # atno 17343 bound_to 10162
  156.0101  130.5192  150.7960 LP  0  0  0  0  0  0  0  0  0  0  0  0  # atno 17370 bound_to 10713
  157.5247  131.0933  151.0033 LP  0  0  0  0  0  0  0  0  0  0  0  0  # atno 17371 bound_to 10713
  140.5511  134.0626  155.7369 LP  0  0  0  0  0  0  0  0  0  0  0  0  # atno 17394 bound_to 11000
  141.1282  133.9347  157.2592 LP  0  0  0  0  0  0  0  0  0  0  0  0  # atno 17395 bound_to 11000

$$$$
