AV-unprocessed.smi:148|AV-procd|sdf|1233|dock4
  -GOLD-   2262018443D 1   1.00000     0.00000
 Structure written by MMmdl.
 63 67  0  0  0  0  0  0  0  0  1 V2000
  149.3118  142.2321  156.2397 O   0  0  0  0  0  0  0  0  0  0  0  0
  150.6520  141.8329  156.4376 C   0  0  0  0  0  0  0  0  0  0  0  0
  150.8324  141.1246  157.8025 C   0  0  1  0  0  0  0  0  0  0  0  0
  151.6147  139.7920  157.6662 C   0  0  0  0  0  0  0  0  0  0  0  0
  150.8813  138.6432  158.1689 N   0  0  0  0  0  0  0  0  0  0  0  0
  151.2985  137.7639  159.1432 C   0  0  0  0  0  0  0  0  0  0  0  0
  150.4623  136.7995  159.4180 N   0  0  0  0  0  0  0  0  0  0  0  0
  149.3909  137.0317  158.5651 C   0  0  0  0  0  0  0  0  0  0  0  0
  148.1577  136.3705  158.3279 C   0  0  0  0  0  0  0  0  0  0  0  0
  147.8024  135.2539  159.0052 N   0  0  0  0  0  0  0  0  0  0  0  0
  148.4503  134.0880  158.4040 C   0  0  0  0  0  0  0  0  0  0  0  0
  147.9098  132.7795  158.9925 C   0  0  0  0  0  0  0  0  0  0  0  0
  148.0620  132.7847  160.5158 C   0  0  0  0  0  0  0  0  0  0  0  0
  147.3519  134.0090  161.1074 C   0  0  0  0  0  0  0  0  0  0  0  0
  147.8538  135.3361  160.4779 C   0  0  2  0  0  0  0  0  0  0  0  0
  147.1148  136.5953  161.0336 C   0  0  1  0  0  0  0  0  0  0  0  0
  145.6422  136.7609  160.6085 C   0  0  0  0  0  0  0  0  0  0  0  0
  144.9476  137.5321  161.7431 C   0  0  0  0  0  0  0  0  0  0  0  0
  146.0311  137.8356  162.7827 C   0  0  0  0  0  0  0  0  0  0  0  0
  147.0838  136.7501  162.5613 C   0  0  2  0  0  0  0  0  0  0  0  0
  148.3377  137.1326  163.0871 O   0  0  0  0  0  0  0  0  0  0  0  0
  147.3199  136.8984  157.3962 N   0  0  0  0  0  0  0  0  0  0  0  0
  147.6776  137.9979  156.7258 C   0  0  0  0  0  0  0  0  0  0  0  0
  148.8001  138.7133  156.8320 N   0  0  0  0  0  0  0  0  0  0  0  0
  149.6360  138.1874  157.7733 C   0  0  0  0  0  0  0  0  0  0  0  0
  151.4242  142.0890  158.8702 C   0  0  1  0  0  0  0  0  0  0  0  0
  152.4870  141.5194  159.7926 C   0  0  0  0  0  0  0  0  0  0  0  0
  153.0481  142.7888  160.4258 C   0  0  0  0  0  0  0  0  0  0  0  0
  152.9621  143.7921  159.4174 O   0  0  0  0  0  0  0  0  0  0  0  0
  152.1198  143.3529  158.3544 C   0  0  0  0  0  0  0  0  0  0  0  0
  149.2517  143.1647  156.3817 H   0  0  0  0  0  0  0  0  0  0  0  0
  150.9079  141.1724  155.6098 H   0  0  0  0  0  0  0  0  0  0  0  0
  151.3046  142.7029  156.3610 H   0  0  0  0  0  0  0  0  0  0  0  0
  149.8328  140.8576  158.1494 H   0  0  0  0  0  0  0  0  0  0  0  0
  151.8735  139.5983  156.6260 H   0  0  0  0  0  0  0  0  0  0  0  0
  152.5535  139.8327  158.2162 H   0  0  0  0  0  0  0  0  0  0  0  0
  152.2493  137.8617  159.6466 H   0  0  0  0  0  0  0  0  0  0  0  0
  148.2929  134.0901  157.3240 H   0  0  0  0  0  0  0  0  0  0  0  0
  149.5275  134.1476  158.5682 H   0  0  0  0  0  0  0  0  0  0  0  0
  146.8590  132.6607  158.7251 H   0  0  0  0  0  0  0  0  0  0  0  0
  148.4403  131.9289  158.5641 H   0  0  0  0  0  0  0  0  0  0  0  0
  147.6483  131.8690  160.9392 H   0  0  0  0  0  0  0  0  0  0  0  0
  149.1195  132.8046  160.7827 H   0  0  0  0  0  0  0  0  0  0  0  0
  146.2790  133.8942  160.9573 H   0  0  0  0  0  0  0  0  0  0  0  0
  147.5158  134.0067  162.1838 H   0  0  0  0  0  0  0  0  0  0  0  0
  148.9059  135.4328  160.7499 H   0  0  0  0  0  0  0  0  0  0  0  0
  147.6332  137.4836  160.6693 H   0  0  0  0  0  0  0  0  0  0  0  0
  145.5687  137.2976  159.6624 H   0  0  0  0  0  0  0  0  0  0  0  0
  145.1467  135.8017  160.4654 H   0  0  0  0  0  0  0  0  0  0  0  0
  144.4691  138.4444  161.3860 H   0  0  0  0  0  0  0  0  0  0  0  0
  144.1710  136.9085  162.1872 H   0  0  0  0  0  0  0  0  0  0  0  0
  146.4588  138.8187  162.5794 H   0  0  0  0  0  0  0  0  0  0  0  0
  145.6447  137.8468  163.8024 H   0  0  0  0  0  0  0  0  0  0  0  0
  146.7474  135.8375  163.0508 H   0  0  0  0  0  0  0  0  0  0  0  0
  148.3882  136.8413  163.9847 H   0  0  0  0  0  0  0  0  0  0  0  0
  146.9625  138.3555  155.9997 H   0  0  0  0  0  0  0  0  0  0  0  0
  150.6083  142.4142  159.5177 H   0  0  0  0  0  0  0  0  0  0  0  0
  152.0879  140.8200  160.5276 H   0  0  0  0  0  0  0  0  0  0  0  0
  153.2801  141.0194  159.2386 H   0  0  0  0  0  0  0  0  0  0  0  0
  152.4341  143.0948  161.2738 H   0  0  0  0  0  0  0  0  0  0  0  0
  154.0725  142.6633  160.7772 H   0  0  0  0  0  0  0  0  0  0  0  0
  152.7530  143.1466  157.4926 H   0  0  0  0  0  0  0  0  0  0  0  0
  151.4097  144.1302  158.0708 H   0  0  0  0  0  0  0  0  0  0  0  0
  1  2  1  0  0  0  0
  1 31  1  0  0  0  0
  2  3  1  0  0  0  0
  2 32  1  0  0  0  0
  2 33  1  0  0  0  0
  3  4  1  0  0  0  0
  3 26  1  0  0  0  0
  3 34  1  0  0  0  0
  4  5  1  0  0  0  0
  4 35  1  0  0  0  0
  4 36  1  0  0  0  0
  5 25  1  0  0  0  0
  5  6  1  0  0  0  0
  6  7  2  0  0  0  0
  6 37  1  0  0  0  0
  7  8  1  0  0  0  0
  8 25  2  0  0  0  0
  8  9  1  0  0  0  0
  9 10  1  0  0  0  0
  9 22  2  0  0  0  0
 10 15  1  0  0  0  0
 10 11  1  0  0  0  0
 11 12  1  0  0  0  0
 11 38  1  0  0  0  0
 11 39  1  0  0  0  0
 12 13  1  0  0  0  0
 12 40  1  0  0  0  0
 12 41  1  0  0  0  0
 13 14  1  0  0  0  0
 13 42  1  0  0  0  0
 13 43  1  0  0  0  0
 14 15  1  0  0  0  0
 14 44  1  0  0  0  0
 14 45  1  0  0  0  0
 15 16  1  0  0  0  0
 15 46  1  0  0  0  0
 16 20  1  0  0  0  0
 16 17  1  0  0  0  0
 16 47  1  0  0  0  0
 17 18  1  0  0  0  0
 17 48  1  0  0  0  0
 17 49  1  0  0  0  0
 18 19  1  0  0  0  0
 18 50  1  0  0  0  0
 18 51  1  0  0  0  0
 19 20  1  0  0  0  0
 19 52  1  0  0  0  0
 19 53  1  0  0  0  0
 20 21  1  0  0  0  0
 20 54  1  0  0  0  0
 21 55  1  0  0  0  0
 22 23  1  0  0  0  0
 23 24  2  0  0  0  0
 23 56  1  0  0  0  0
 24 25  1  0  0  0  0
 26 30  1  0  0  0  0
 26 27  1  0  0  0  0
 26 57  1  0  0  0  0
 27 28  1  0  0  0  0
 27 58  1  0  0  0  0
 27 59  1  0  0  0  0
 28 29  1  0  0  0  0
 28 60  1  0  0  0  0
 28 61  1  0  0  0  0
 29 30  1  0  0  0  0
 30 62  1  0  0  0  0
 30 63  1  0  0  0  0
M  END
> <s_m_source_file>
AV-unprocessed.smi

> <i_m_source_file_index>
148

> <i_lp_mmshare_version>
43012

> <i_f3d_flags>
0

> <s_epik_input>
W0NIMl0xT1tDSDJdW0NIMl1bQ0BIXTFbQ0BIXShbQ0gyXVtPSF0pW0NIMl1uKFtjSF1uMiljKGMyMyluW2NIXW5jM040W0NIMl1bQ0gyXVtDSDJdW0NIMl1bQ0BIXTRbQ0BASF01W0NIMl1bQ0gyXVtDSDJdW0NASF01W09IXQ==

> <s_epik_cmdline>
J2VwaWtfcHl0aG9uJywgJy1waCcsICc3LjAnLCAnLXRuJywgJzgnLCAnLW1hJywgJzIwMCcsICctbWV0YWxfYmluZGluZycsICctaW1hZScsICc8aW5maWxlLm1hZT4nLCAnLW9tYWUnLCAnPG91dGZpbGUubWFlPic=

> <r_lp_tautomer_probability>
1

> <r_epik_Ionization_Penalty>
0.00556303

> <r_epik_Ionization_Penalty_Charging>
0

> <r_epik_Ionization_Penalty_Neutral>
0.00556303

> <r_epik_State_Penalty>
0.00401767

> <r_epik_Charging_Adjusted_Penalty>
0.00401767

> <i_epik_Tot_Q>
0

> <i_epik_Tot_abs_Q>
0

> <r_epik_Metal_State_Penalty>
-0

> <b_epik_Metal_Only>
0

> <s_lp_Force_Field>
OPLS_2005

> <r_lp_Energy>
68.5512

> <b_lp_Chiralities_Consistent>
1

> <s_lp_Variant>
AV-unprocessed.smi:148-32

> <Gold.Version>
5.8.1

> <Gold.Id.Protein>
6NUR|6NUR_protein|mol2

> <Gold.PLP.Fitness>
48.2630

> <Gold.PLP.PLP>
-45.7991

> <Gold.PLP.part.hbond>
-2.9642

> <Gold.PLP.part.metal>
0.0000

> <Gold.PLP.part.buried>
-7.1085

> <Gold.PLP.part.nonpolar>
-35.6651

> <Gold.PLP.part.repulsive>
0.0000

> <Gold.PLP.ligand.clash>
0.0000

> <Gold.PLP.ligand.torsion>
3.0149

> <Gold.PLP.Chemscore.Hbond>
2.6720

> <Gold.PLP.Chemscore.CHOScore>
0.0000

> <Gold.PLP.Chemscore.Metal>
0.0000

> <Gold.Chemscore.Hbonds>
donor molecule, donor type, donor heavy atom, donor atom, acceptor molecule, acceptor atom, score
      L1  H     1    31       P1  8028  0.93
      P1  H  6896  6908       L1     7  1.00
      P1  H  6931  6943       L1    21  0.67

> <Gold.PLP.Chemscore.Internal.Correction>
0.4776

> <Gold.Rescore>
     Score         DG    S(hbond)    S(metal)    S(lipo)     H(rot)  DE(clash)    DE(int)     intcor
     15.36     -18.26       2.54        0.00     109.48       3.32       0.01       2.90       ----

> <Gold.Chemscore.Fitness>
15.3570

> <Gold.Chemscore.DG>
-18.2637

> <Gold.Chemscore.ZeroCoef>
-5.4800

> <Gold.Chemscore.Hbond>
2.5372

> <Gold.Chemscore.Metal>
0.0000

> <Gold.Chemscore.Lipo>
109.4836

> <Gold.Chemscore.Internal_Hbond>
0.0000

> <Gold.Chemscore.DEClash>
0.0106

> <Gold.Chemscore.DEInternal>
2.8961

> <Gold.Chemscore.Rot>
3.3203

> <Gold.Chemscore.Internal.Correction>
   9.000000E+99

> <Gold.Chemscore.Hbonds>
donor molecule, donor type, donor heavy atom, donor atom, acceptor molecule, acceptor atom, score
      L1  H     1    31       P1  8028  0.90
      P1  H  6896  6908       L1     7  0.93
      P1  H  6931  6943       L1    21  0.41

> <Gold.Chemscore.Hbond.Weighted>
-8.4741

> <Gold.Chemscore.Metal.Weighted>
-0.0000

> <Gold.Chemscore.Lipo.Weighted>
-12.8096

> <Gold.Chemscore.Internal_Hbond.Weighted>
0.0000

> <Gold.Chemscore.DEClash.Weighted>
0.0106

> <Gold.Chemscore.DEInternal.Weighted>
2.8961

> <Gold.Chemscore.Rot.Weighted>
8.5000

> <Gold.Chemscore.Internal.Correction.Weighted>
   9.000000E+99

> <Gold.Protein.RotatedTorsions>
[ 6907 6896 6895 6894 ] final -163.61 input  -60.11 | X-H torsion
[ 7974 7965 7964 7962 ] final -169.32 input  175.53 | X-H torsion
[ 8008 7997 7996 7995 ] final  -28.90 input   59.86 | X-H torsion
[ 10167 10162 10161 10158 ] final  122.69 input  -65.29 | X-H torsion
[ 10718 10713 10712 10709 ] final -112.78 input   66.30 | X-H torsion
[ 10763 10752 10751 10750 ] final   35.27 input  -60.55 | X-H torsion
[ 11005 11000 10999 10996 ] final  -72.42 input  -57.11 | X-H torsion

> <Gold.Protein.ActiveResidues>
 VAL166  LYS551  ARG553  GLY616  TRP617  ASP618  TYR619  PRO620  LYS621  CYS622 
 ASP623  PHE694  ASN695  SER759  ASP760  ASP761  ALA762  ILE779  LEU786  VAL792 
 PHE793  MET794  SER795  GLU796  ALA797  LYS798  CYS799  TRP800  GLU811  SER814 

> <Gold.Protein.RotatedAtoms>
  151.3987  133.3765  159.2729 H   0  0  0  0  0  0  0  0  0  0  0  0  # atno 6907 bound_to 6896
  150.9450  134.8857  159.7647 H   0  0  0  0  0  0  0  0  0  0  0  0  # atno 6908 bound_to 6896
  152.5088  134.3939  159.9445 H   0  0  0  0  0  0  0  0  0  0  0  0  # atno 6909 bound_to 6896
  144.7187  140.2239  143.6312 H   0  0  0  0  0  0  0  0  0  0  0  0  # atno 7974 bound_to 7965
  154.4312  140.1833  156.1162 H   0  0  0  0  0  0  0  0  0  0  0  0  # atno 8008 bound_to 7997
  156.0179  140.3344  155.6982 H   0  0  0  0  0  0  0  0  0  0  0  0  # atno 8009 bound_to 7997
  155.6018  140.0641  157.2721 H   0  0  0  0  0  0  0  0  0  0  0  0  # atno 8010 bound_to 7997
  139.5843  144.7000  151.3448 H   0  0  0  0  0  0  0  0  0  0  0  0  # atno 10167 bound_to 10162
  156.0726  130.5938  150.8555 H   0  0  0  0  0  0  0  0  0  0  0  0  # atno 10718 bound_to 10713
  153.0127  135.6338  154.1800 H   0  0  0  0  0  0  0  0  0  0  0  0  # atno 10763 bound_to 10752
  154.1541  135.2827  155.3129 H   0  0  0  0  0  0  0  0  0  0  0  0  # atno 10764 bound_to 10752
  154.6031  135.5581  153.7456 H   0  0  0  0  0  0  0  0  0  0  0  0  # atno 10765 bound_to 10752
  141.1608  133.6846  156.7057 H   0  0  0  0  0  0  0  0  0  0  0  0  # atno 11005 bound_to 11000
  145.8475  139.2159  143.1792 LP  0  0  0  0  0  0  0  0  0  0  0  0  # atno 17320 bound_to 7965
  146.0291  140.8275  142.9885 LP  0  0  0  0  0  0  0  0  0  0  0  0  # atno 17321 bound_to 7965
  140.7117  143.7372  150.7580 LP  0  0  0  0  0  0  0  0  0  0  0  0  # atno 17342 bound_to 10162
  140.0913  143.4875  152.2477 LP  0  0  0  0  0  0  0  0  0  0  0  0  # atno 17343 bound_to 10162
  157.5806  131.0946  150.9277 LP  0  0  0  0  0  0  0  0  0  0  0  0  # atno 17370 bound_to 10713
  156.9474  130.5407  149.5281 LP  0  0  0  0  0  0  0  0  0  0  0  0  # atno 17371 bound_to 10713
  140.2925  134.8229  157.4029 LP  0  0  0  0  0  0  0  0  0  0  0  0  # atno 17394 bound_to 11000
  140.1334  134.5066  155.8088 LP  0  0  0  0  0  0  0  0  0  0  0  0  # atno 17395 bound_to 11000

$$$$
