AV-unprocessed.smi:37|AV-procd|sdf|316|dock5
  -GOLD-   2262016133D 1   1.00000     0.00000
 Structure written by MMmdl.
 44 45  0  0  0  0  0  0  0  0  1 V2000
  147.4968  140.7881  153.5325 C   0  0  0  0  0  0  0  0  0  0  0  0
  148.2463  141.7889  154.4231 C   0  0  0  0  0  0  0  0  0  0  0  0
  149.1951  141.1291  155.4255 C   0  0  0  0  0  0  0  0  0  0  0  0
  150.2942  140.6788  155.0978 O   0  0  0  0  0  0  0  0  0  0  0  0
  148.6832  141.1152  156.6641 O   0  0  0  0  0  0  0  0  0  0  0  0
  149.4298  140.5479  157.7290 C   0  0  0  0  0  0  0  0  0  0  0  0
  149.7124  139.0626  157.4620 C   0  0  1  0  0  0  0  0  0  0  0  0
  151.0740  138.8531  157.0875 O   0  0  0  0  0  0  0  0  0  0  0  0
  151.6941  137.9604  157.9665 C   0  0  1  0  0  0  0  0  0  0  0  0
  152.4562  138.7761  159.0045 N   0  0  0  0  0  0  0  0  0  0  0  0
  152.5345  140.1675  159.0098 C   0  0  0  0  0  0  0  0  0  0  0  0
  153.2461  140.8654  159.9267 C   0  0  0  0  0  0  0  0  0  0  0  0
  153.2729  142.2073  159.8627 F   0  0  0  0  0  0  0  0  0  0  0  0
  153.9890  140.1783  160.9772 C   0  0  0  0  0  0  0  0  0  0  0  0
  154.6650  140.7239  161.8467 O   0  0  0  0  0  0  0  0  0  0  0  0
  153.8899  138.7864  160.9336 N   0  0  0  0  0  0  0  0  0  0  0  0
  153.1603  138.0543  159.9962 C   0  0  0  0  0  0  0  0  0  0  0  0
  153.1494  136.8256  160.0564 O   0  0  0  0  0  0  0  0  0  0  0  0
  150.5545  137.1003  158.5235 C   0  0  2  0  0  0  0  0  0  0  0  0
  150.1050  135.7084  157.1644 Br  0  0  0  0  0  0  0  0  0  0  0  0
  149.4231  138.1194  158.6367 C   0  0  2  0  0  0  0  0  0  0  0  0
  148.1326  137.5301  158.5432 O   0  0  0  0  0  0  0  0  0  0  0  0
  147.5945  136.9117  159.6087 C   0  0  0  0  0  0  0  0  0  0  0  0
  147.8086  137.1976  160.7881 O   0  0  0  0  0  0  0  0  0  0  0  0
  146.6651  135.7684  159.1960 C   0  0  0  0  0  0  0  0  0  0  0  0
  147.0967  134.3985  159.7403 C   0  0  0  0  0  0  0  0  0  0  0  0
  154.3901  138.2655  161.6392 H   0  0  0  0  0  0  0  0  0  0  0  0
  146.8326  141.3111  152.8443 H   0  0  0  0  0  0  0  0  0  0  0  0
  146.8862  140.1072  154.1264 H   0  0  0  0  0  0  0  0  0  0  0  0
  148.1866  140.1915  152.9346 H   0  0  0  0  0  0  0  0  0  0  0  0
  148.8271  142.4675  153.7988 H   0  0  0  0  0  0  0  0  0  0  0  0
  147.5295  142.3991  154.9730 H   0  0  0  0  0  0  0  0  0  0  0  0
  150.3727  141.0859  157.8377 H   0  0  0  0  0  0  0  0  0  0  0  0
  148.8806  140.6606  158.6647 H   0  0  0  0  0  0  0  0  0  0  0  0
  149.1202  138.7498  156.6009 H   0  0  0  0  0  0  0  0  0  0  0  0
  152.4624  137.3636  157.4710 H   0  0  0  0  0  0  0  0  0  0  0  0
  152.0206  140.7590  158.2709 H   0  0  0  0  0  0  0  0  0  0  0  0
  150.8152  136.5795  159.4442 H   0  0  0  0  0  0  0  0  0  0  0  0
  149.5149  138.6798  159.5667 H   0  0  0  0  0  0  0  0  0  0  0  0
  145.6574  135.9994  159.5423 H   0  0  0  0  0  0  0  0  0  0  0  0
  146.6240  135.7342  158.1073 H   0  0  0  0  0  0  0  0  0  0  0  0
  146.3980  133.6235  159.4248 H   0  0  0  0  0  0  0  0  0  0  0  0
  147.1226  134.3940  160.8306 H   0  0  0  0  0  0  0  0  0  0  0  0
  148.0858  134.1179  159.3765 H   0  0  0  0  0  0  0  0  0  0  0  0
  1  2  1  0  0  0  0
  1 28  1  0  0  0  0
  1 29  1  0  0  0  0
  1 30  1  0  0  0  0
  2  3  1  0  0  0  0
  2 31  1  0  0  0  0
  2 32  1  0  0  0  0
  3  4  2  0  0  0  0
  3  5  1  0  0  0  0
  5  6  1  0  0  0  0
  6  7  1  0  0  0  0
  6 33  1  0  0  0  0
  6 34  1  0  0  0  0
  7 21  1  0  0  0  0
  7  8  1  0  0  0  0
  7 35  1  0  0  0  0
  8  9  1  0  0  0  0
  9 10  1  0  0  0  0
  9 19  1  0  0  0  0
  9 36  1  0  0  0  0
 10 17  1  0  0  0  0
 10 11  1  0  0  0  0
 11 12  2  0  0  0  0
 11 37  1  0  0  0  0
 12 13  1  0  0  0  0
 12 14  1  0  0  0  0
 14 15  2  0  0  0  0
 14 16  1  0  0  0  0
 16 27  1  0  0  0  0
 16 17  1  0  0  0  0
 17 18  2  0  0  0  0
 19 20  1  0  0  0  0
 19 21  1  0  0  0  0
 19 38  1  0  0  0  0
 21 22  1  0  0  0  0
 21 39  1  0  0  0  0
 22 23  1  0  0  0  0
 23 24  2  0  0  0  0
 23 25  1  0  0  0  0
 25 26  1  0  0  0  0
 25 40  1  0  0  0  0
 25 41  1  0  0  0  0
 26 42  1  0  0  0  0
 26 43  1  0  0  0  0
 26 44  1  0  0  0  0
M  END
> <s_m_source_file>
AV-unprocessed.smi

> <i_m_source_file_index>
37

> <i_lp_mmshare_version>
43012

> <i_f3d_flags>
0

> <s_epik_input>
W0NIM11bQ0gyXUMoPU8pT1tDSDJdW0NAQEhdMU9bQ0BASF0objJbY0hdYyhGKWMoPU8pW25IXWMyPU8pW0NAQEhdKEJyKVtDQEhdMU9DKD1PKVtDSDJdW0NIM10=

> <s_epik_cmdline>
J2VwaWtfcHl0aG9uJywgJy1waCcsICc3LjAnLCAnLXRuJywgJzgnLCAnLW1hJywgJzIwMCcsICctbWV0YWxfYmluZGluZycsICctaW1hZScsICc8aW5maWxlLm1hZT4nLCAnLW9tYWUnLCAnPG91dGZpbGUubWFlPic=

> <r_lp_tautomer_probability>
0.999537

> <r_epik_Ionization_Penalty>
0.104106

> <r_epik_Ionization_Penalty_Charging>
0.104106

> <r_epik_Ionization_Penalty_Neutral>
3.94675e-16

> <r_epik_State_Penalty>
0.0940182

> <r_epik_Charging_Adjusted_Penalty>
0.198124

> <i_epik_Tot_Q>
0

> <i_epik_Tot_abs_Q>
0

> <r_epik_Metal_State_Penalty>
3.05314

> <b_epik_Metal_Only>
0

> <s_epik_Chemistry_Notes>
This compound has an ester and may undergo hydrolysis at high or low pH. This compound contains an acetal/aminal-like group ( X-CH(R)-Y where X, Y are N, S, or O) that may be acid/base labile, releasing an aldehyde.

> <s_lp_Force_Field>
OPLS_2005

> <r_lp_Energy>
20.7256

> <b_lp_Chiralities_Consistent>
1

> <s_lp_Variant>
AV-unprocessed.smi:37-14

> <Gold.Version>
5.8.1

> <Gold.Id.Protein>
6NUR|6NUR_protein|mol2

> <Gold.PLP.Fitness>
42.7227

> <Gold.PLP.PLP>
-35.1503

> <Gold.PLP.part.hbond>
-4.3490

> <Gold.PLP.part.metal>
0.0000

> <Gold.PLP.part.buried>
-6.2421

> <Gold.PLP.part.nonpolar>
-25.5813

> <Gold.PLP.part.repulsive>
0.1727

> <Gold.PLP.ligand.clash>
0.0000

> <Gold.PLP.ligand.torsion>
1.4095

> <Gold.PLP.Chemscore.Hbond>
3.4043

> <Gold.PLP.Chemscore.CHOScore>
0.0000

> <Gold.PLP.Chemscore.Metal>
0.0000

> <Gold.Chemscore.Hbonds>
donor molecule, donor type, donor heavy atom, donor atom, acceptor molecule, acceptor atom, score
      P1  H  6896  6908       L1    18  0.84
      P1  H  6931  6943       L1    24  0.85
      P1  H  6934  6947       L1    24  0.85
      P1  H  7989  7998       L1     4  0.76

> <Gold.PLP.Chemscore.Internal.Correction>
0.1787

> <Gold.Rescore>
     Score         DG    S(hbond)    S(metal)    S(lipo)     H(rot)  DE(clash)    DE(int)     intcor
     10.77     -13.50       3.20        0.00      49.98       3.33       0.22       2.51       ----

> <Gold.Chemscore.Fitness>
10.7711

> <Gold.Chemscore.DG>
-13.4996

> <Gold.Chemscore.ZeroCoef>
-5.4800

> <Gold.Chemscore.Hbond>
3.2029

> <Gold.Chemscore.Metal>
0.0000

> <Gold.Chemscore.Lipo>
49.9801

> <Gold.Chemscore.Internal_Hbond>
0.0000

> <Gold.Chemscore.DEClash>
0.2211

> <Gold.Chemscore.DEInternal>
2.5074

> <Gold.Chemscore.Rot>
3.3303

> <Gold.Chemscore.Internal.Correction>
   9.000000E+99

> <Gold.Chemscore.Hbonds>
donor molecule, donor type, donor heavy atom, donor atom, acceptor molecule, acceptor atom, score
      P1  H  6896  6908       L1    18  0.82
      P1  H  6931  6943       L1    24  0.82
      P1  H  6934  6947       L1    24  0.38
      P1  H  7989  7998       L1     4  0.73

> <Gold.Chemscore.Hbond.Weighted>
-10.6975

> <Gold.Chemscore.Metal.Weighted>
-0.0000

> <Gold.Chemscore.Lipo.Weighted>
-5.8477

> <Gold.Chemscore.Internal_Hbond.Weighted>
0.0000

> <Gold.Chemscore.DEClash.Weighted>
0.2211

> <Gold.Chemscore.DEInternal.Weighted>
2.5074

> <Gold.Chemscore.Rot.Weighted>
8.5256

> <Gold.Chemscore.Internal.Correction.Weighted>
   9.000000E+99

> <Gold.Protein.RotatedTorsions>
[ 6907 6896 6895 6894 ] final  -87.18 input  -60.11 | X-H torsion
[ 7974 7965 7964 7962 ] final   55.87 input  175.53 | X-H torsion
[ 8008 7997 7996 7995 ] final -167.81 input   59.86 | X-H torsion
[ 10167 10162 10161 10158 ] final   37.18 input  -65.29 | X-H torsion
[ 10718 10713 10712 10709 ] final  -57.50 input   66.30 | X-H torsion
[ 10763 10752 10751 10750 ] final  173.42 input  -60.55 | X-H torsion
[ 11005 11000 10999 10996 ] final  -28.13 input  -57.11 | X-H torsion

> <Gold.Protein.ActiveResidues>
 VAL166  LYS551  ARG553  GLY616  TRP617  ASP618  TYR619  PRO620  LYS621  CYS622 
 ASP623  PHE694  ASN695  SER759  ASP760  ASP761  ALA762  ILE779  LEU786  VAL792 
 PHE793  MET794  SER795  GLU796  ALA797  LYS798  CYS799  TRP800  GLU811  SER814 

> <Gold.Protein.RotatedAtoms>
  150.6866  134.2936  159.4676 H   0  0  0  0  0  0  0  0  0  0  0  0  # atno 6907 bound_to 6896
  152.0839  134.9450  160.0582 H   0  0  0  0  0  0  0  0  0  0  0  0  # atno 6908 bound_to 6896
  152.0792  133.4110  159.4530 H   0  0  0  0  0  0  0  0  0  0  0  0  # atno 6909 bound_to 6896
  145.9458  139.3928  143.0336 H   0  0  0  0  0  0  0  0  0  0  0  0  # atno 7974 bound_to 7965
  155.8829  140.1012  157.1473 H   0  0  0  0  0  0  0  0  0  0  0  0  # atno 8008 bound_to 7997
  154.4007  140.1325  156.4282 H   0  0  0  0  0  0  0  0  0  0  0  0  # atno 8009 bound_to 7997
  155.7622  140.3463  155.5206 H   0  0  0  0  0  0  0  0  0  0  0  0  # atno 8010 bound_to 7997
  140.4057  144.1662  150.6136 H   0  0  0  0  0  0  0  0  0  0  0  0  # atno 10167 bound_to 10162
  156.1206  130.4166  150.0449 H   0  0  0  0  0  0  0  0  0  0  0  0  # atno 10718 bound_to 10713
  154.4399  135.2762  155.1855 H   0  0  0  0  0  0  0  0  0  0  0  0  # atno 10763 bound_to 10752
  154.3726  135.6105  153.5751 H   0  0  0  0  0  0  0  0  0  0  0  0  # atno 10764 bound_to 10752
  152.9840  135.5861  154.4724 H   0  0  0  0  0  0  0  0  0  0  0  0  # atno 10765 bound_to 10752
  140.9181  133.7417  156.0763 H   0  0  0  0  0  0  0  0  0  0  0  0  # atno 11005 bound_to 11000
  145.8238  140.9665  143.0885 LP  0  0  0  0  0  0  0  0  0  0  0  0  # atno 17320 bound_to 7965
  144.6787  140.0075  143.7484 LP  0  0  0  0  0  0  0  0  0  0  0  0  # atno 17321 bound_to 7965
  140.4692  143.2419  151.9113 LP  0  0  0  0  0  0  0  0  0  0  0  0  # atno 17342 bound_to 10162
  139.4783  144.5387  151.8560 LP  0  0  0  0  0  0  0  0  0  0  0  0  # atno 17343 bound_to 10162
  156.8388  130.9418  151.3633 LP  0  0  0  0  0  0  0  0  0  0  0  0  # atno 17370 bound_to 10713
  157.6389  130.8790  149.9412 LP  0  0  0  0  0  0  0  0  0  0  0  0  # atno 17371 bound_to 10713
  140.8023  134.3494  157.5436 LP  0  0  0  0  0  0  0  0  0  0  0  0  # atno 17394 bound_to 11000
  139.8770  134.9205  156.3253 LP  0  0  0  0  0  0  0  0  0  0  0  0  # atno 17395 bound_to 11000

$$$$
