AV-unprocessed.smi:1229|AV-procd|sdf|5150|dock10
  -GOLD-   22720 4223D 1   1.00000     0.00000
 Structure written by MMmdl.
 46 47  0  0  0  0  0  0  0  0  2 V2000
  148.0535  141.7033  155.2441 C   0  0  0  0  0  0  0  0  0  0  0  0
  149.4172  141.0673  155.4594 C   0  0  0  0  0  0  0  0  0  0  0  0
  150.2493  141.5518  156.4910 C   0  0  0  0  0  0  0  0  0  0  0  0
  151.5097  140.9628  156.6892 C   0  0  0  0  0  0  0  0  0  0  0  0
  151.8877  139.9081  155.8407 C   0  0  0  0  0  0  0  0  0  0  0  0
  151.0993  139.4392  154.8519 N   0  0  0  0  0  0  0  0  0  0  0  0
  149.8787  139.9960  154.6481 C   0  0  0  0  0  0  0  0  0  0  0  0
  148.9941  139.5537  153.6239 N   0  0  0  0  0  0  0  0  0  0  0  0
  147.8444  138.8678  153.7500 C   0  0  0  0  0  0  0  0  0  0  0  0
  147.3429  138.5007  154.8131 O   0  0  0  0  0  0  0  0  0  0  0  0
  147.2942  138.6161  152.5528 N   0  0  0  0  0  0  0  0  0  0  0  0
  146.0433  137.8930  152.3430 C   0  0  0  0  0  0  0  0  0  0  0  0
  146.1688  136.8315  151.2304 C   0  0  2  0  0  0  0  0  0  0  0  0
  146.1837  137.5004  149.9844 O   0  0  0  0  0  0  0  0  0  0  0  0
  144.9663  135.8661  151.2278 C   0  0  0  0  0  0  0  0  0  0  0  0
  145.2634  134.5932  150.5219 N   0  3  0  0  0  0  0  0  0  0  0  0
  144.0980  133.6714  150.5012 C   0  0  0  0  0  0  0  0  0  0  0  0
  144.3858  132.4316  149.6371 C   0  0  0  0  0  0  0  0  0  0  0  0
  145.6493  131.7054  150.1166 C   0  0  0  0  0  0  0  0  0  0  0  0
  146.8296  132.6842  150.1663 C   0  0  0  0  0  0  0  0  0  0  0  0
  146.4880  133.9137  151.0245 C   0  0  0  0  0  0  0  0  0  0  0  0
  147.8645  142.4935  155.9712 H   0  0  0  0  0  0  0  0  0  0  0  0
  147.2635  140.9586  155.3462 H   0  0  0  0  0  0  0  0  0  0  0  0
  147.9907  142.1425  154.2480 H   0  0  0  0  0  0  0  0  0  0  0  0
  149.9284  142.3650  157.1256 H   0  0  0  0  0  0  0  0  0  0  0  0
  152.1693  141.3106  157.4705 H   0  0  0  0  0  0  0  0  0  0  0  0
  152.8478  139.4277  155.9583 H   0  0  0  0  0  0  0  0  0  0  0  0
  149.2753  139.7861  152.6831 H   0  0  0  0  0  0  0  0  0  0  0  0
  147.7690  138.9542  151.7284 H   0  0  0  0  0  0  0  0  0  0  0  0
  145.7643  137.4173  153.2850 H   0  0  0  0  0  0  0  0  0  0  0  0
  145.2459  138.6031  152.1189 H   0  0  0  0  0  0  0  0  0  0  0  0
  147.0984  136.2759  151.3479 H   0  0  0  0  0  0  0  0  0  0  0  0
  145.6664  138.2885  150.0610 H   0  0  0  0  0  0  0  0  0  0  0  0
  144.6508  135.6400  152.2476 H   0  0  0  0  0  0  0  0  0  0  0  0
  144.1204  136.3684  150.7551 H   0  0  0  0  0  0  0  0  0  0  0  0
  143.8492  133.3729  151.5209 H   0  0  0  0  0  0  0  0  0  0  0  0
  143.2257  134.1886  150.0995 H   0  0  0  0  0  0  0  0  0  0  0  0
  143.5330  131.7525  149.6630 H   0  0  0  0  0  0  0  0  0  0  0  0
  144.5095  132.7330  148.5960 H   0  0  0  0  0  0  0  0  0  0  0  0
  145.4787  131.2820  151.1072 H   0  0  0  0  0  0  0  0  0  0  0  0
  145.8790  130.8699  149.4548 H   0  0  0  0  0  0  0  0  0  0  0  0
  147.7119  132.1835  150.5662 H   0  0  0  0  0  0  0  0  0  0  0  0
  147.0864  133.0031  149.1552 H   0  0  0  0  0  0  0  0  0  0  0  0
  147.3368  134.5963  151.0152 H   0  0  0  0  0  0  0  0  0  0  0  0
  146.3385  133.6139  152.0631 H   0  0  0  0  0  0  0  0  0  0  0  0
  145.4376  134.8441  149.5590 H   0  0  0  0  0  0  0  0  0  0  0  0
  1  2  1  0  0  0  0
  1 22  1  0  0  0  0
  1 23  1  0  0  0  0
  1 24  1  0  0  0  0
  2  7  1  0  0  0  0
  2  3  2  0  0  0  0
  3  4  1  0  0  0  0
  3 25  1  0  0  0  0
  4  5  2  0  0  0  0
  4 26  1  0  0  0  0
  5  6  1  0  0  0  0
  5 27  1  0  0  0  0
  6  7  2  0  0  0  0
  7  8  1  0  0  0  0
  8  9  1  0  0  0  0
  8 28  1  0  0  0  0
  9 10  2  0  0  0  0
  9 11  1  0  0  0  0
 11 12  1  0  0  0  0
 11 29  1  0  0  0  0
 12 13  1  0  0  0  0
 12 30  1  0  0  0  0
 12 31  1  0  0  0  0
 13 14  1  0  0  0  0
 13 15  1  0  0  0  0
 13 32  1  0  0  0  0
 14 33  1  0  0  0  0
 15 16  1  0  0  0  0
 15 34  1  0  0  0  0
 15 35  1  0  0  0  0
 16 21  1  0  0  0  0
 16 17  1  0  0  0  0
 16 46  1  0  0  0  0
 17 18  1  0  0  0  0
 17 36  1  0  0  0  0
 17 37  1  0  0  0  0
 18 19  1  0  0  0  0
 18 38  1  0  0  0  0
 18 39  1  0  0  0  0
 19 20  1  0  0  0  0
 19 40  1  0  0  0  0
 19 41  1  0  0  0  0
 20 21  1  0  0  0  0
 20 42  1  0  0  0  0
 20 43  1  0  0  0  0
 21 44  1  0  0  0  0
 21 45  1  0  0  0  0
M  CHG  1  16   1
M  END
> <s_m_source_file>
AV-unprocessed.smi

> <i_m_source_file_index>
1229

> <i_lp_mmshare_version>
43012

> <i_f3d_flags>
0

> <s_epik_input>
W0NIM11jMVtjSF1bY0hdW2NIXW5jMVtOSF1DKD1PKVtOSF1bQ0gyXVtDQEhdKFtPSF0pW0NIMl1OMltDSDJdW0NIMl1bQ0gyXVtDSDJdW0NIMl0y

> <s_epik_cmdline>
J2VwaWtfcHl0aG9uJywgJy1waCcsICc3LjAnLCAnLXRuJywgJzgnLCAnLW1hJywgJzIwMCcsICctbWV0YWxfYmluZGluZycsICctaW1hZScsICc8aW5maWxlLm1hZT4nLCAnLW9tYWUnLCAnPG91dGZpbGUubWFlPic=

> <r_epik_Ionization_Penalty>
0.00511007

> <r_epik_Ionization_Penalty_Charging>
0.00506051

> <r_epik_Ionization_Penalty_Neutral>
4.95577e-05

> <r_epik_State_Penalty>
0.00368188

> <r_epik_Charging_Adjusted_Penalty>
0.0087424

> <i_epik_Tot_Q>
1

> <i_epik_Tot_abs_Q>
1

> <r_epik_Metal_State_Penalty>
-0

> <b_epik_Metal_Only>
0

> <s_lp_Force_Field>
OPLS_2005

> <r_lp_Energy>
20.9384

> <b_lp_Chiralities_Consistent>
1

> <s_lp_Variant>
AV-unprocessed.smi:1229-1

> <Gold.Version>
5.8.1

> <Gold.Id.Protein>
6NUR|6NUR_protein|mol2

> <Gold.PLP.Fitness>
50.9039

> <Gold.PLP.PLP>
-41.2824

> <Gold.PLP.part.hbond>
-7.0000

> <Gold.PLP.part.metal>
0.0000

> <Gold.PLP.part.buried>
0.2317

> <Gold.PLP.part.nonpolar>
-36.3365

> <Gold.PLP.part.repulsive>
0.3798

> <Gold.PLP.ligand.clash>
0.0000

> <Gold.PLP.ligand.torsion>
1.0582

> <Gold.PLP.Chemscore.Hbond>
3.8923

> <Gold.PLP.Chemscore.CHOScore>
0.0000

> <Gold.PLP.Chemscore.Metal>
0.0000

> <Gold.Chemscore.Hbonds>
donor molecule, donor type, donor heavy atom, donor atom, acceptor molecule, acceptor atom, score
      L1  H     8    28       P1  7957  1.00
      L1  H    11    29       P1  7957  0.54
      L1  H    14    33       P1 10171  0.64
      L1  H    16    46       P1  7921  0.96
      P1  H  7954  7966       L1    14  0.58
      P1  H  7989  7998       L1     6  0.07

> <Gold.PLP.Chemscore.Internal.Correction>
0.0609

> <Gold.Rescore>
     Score         DG    S(hbond)    S(metal)    S(lipo)     H(rot)  DE(clash)    DE(int)     intcor
     19.48     -22.30       3.39        0.00      97.41       2.31       1.75       1.06       ----

> <Gold.Chemscore.Fitness>
19.4815

> <Gold.Chemscore.DG>
-22.2969

> <Gold.Chemscore.ZeroCoef>
-5.4800

> <Gold.Chemscore.Hbond>
3.3927

> <Gold.Chemscore.Metal>
0.0000

> <Gold.Chemscore.Lipo>
97.4150

> <Gold.Chemscore.Internal_Hbond>
0.0000

> <Gold.Chemscore.DEClash>
1.7515

> <Gold.Chemscore.DEInternal>
1.0639

> <Gold.Chemscore.Rot>
2.3095

> <Gold.Chemscore.Internal.Correction>
   9.000000E+99

> <Gold.Chemscore.Hbonds>
donor molecule, donor type, donor heavy atom, donor atom, acceptor molecule, acceptor atom, score
      L1  H     8    28       P1  7957  0.97
      L1  H    11    29       P1  7957  0.50
      L1  H    14    33       P1 10171  0.64
      L1  H    16    46       P1  7921  0.90
      P1  H  7954  7966       L1    14  0.11

> <Gold.Chemscore.Hbond.Weighted>
-11.3318

> <Gold.Chemscore.Metal.Weighted>
-0.0000

> <Gold.Chemscore.Lipo.Weighted>
-11.3976

> <Gold.Chemscore.Internal_Hbond.Weighted>
0.0000

> <Gold.Chemscore.DEClash.Weighted>
1.7515

> <Gold.Chemscore.DEInternal.Weighted>
1.0639

> <Gold.Chemscore.Rot.Weighted>
5.9124

> <Gold.Chemscore.Internal.Correction.Weighted>
   9.000000E+99

> <Gold.Protein.RotatedTorsions>
[ 6907 6896 6895 6894 ] final -145.75 input  -60.11 | X-H torsion
[ 7974 7965 7964 7962 ] final   -9.20 input  175.53 | X-H torsion
[ 8008 7997 7996 7995 ] final  -91.66 input   59.86 | X-H torsion
[ 10167 10162 10161 10158 ] final   71.52 input  -65.29 | X-H torsion
[ 10718 10713 10712 10709 ] final -109.71 input   66.30 | X-H torsion
[ 10763 10752 10751 10750 ] final -169.31 input  -60.55 | X-H torsion
[ 11005 11000 10999 10996 ] final  -43.48 input  -57.11 | X-H torsion

> <Gold.Protein.ActiveResidues>
 VAL166  LYS551  ARG553  GLY616  TRP617  ASP618  TYR619  PRO620  LYS621  CYS622 
 ASP623  PHE694  ASN695  SER759  ASP760  ASP761  ALA762  ILE779  LEU786  VAL792 
 PHE793  MET794  SER795  GLU796  ALA797  LYS798  CYS799  TRP800  GLU811  SER814 

> <Gold.Protein.RotatedAtoms>
  151.1320  133.5030  159.2598 H   0  0  0  0  0  0  0  0  0  0  0  0  # atno 6907 bound_to 6896
  151.1747  135.0333  159.8776 H   0  0  0  0  0  0  0  0  0  0  0  0  # atno 6908 bound_to 6896
  152.5460  134.1180  159.8440 H   0  0  0  0  0  0  0  0  0  0  0  0  # atno 6909 bound_to 6896
  146.2258  140.2582  142.8350 H   0  0  0  0  0  0  0  0  0  0  0  0  # atno 7974 bound_to 7965
  154.7135  140.0517  157.0572 H   0  0  0  0  0  0  0  0  0  0  0  0  # atno 8008 bound_to 7997
  155.0523  140.3180  155.4669 H   0  0  0  0  0  0  0  0  0  0  0  0  # atno 8009 bound_to 7997
  156.2796  140.2113  156.5649 H   0  0  0  0  0  0  0  0  0  0  0  0  # atno 8010 bound_to 7997
  140.0452  144.5357  150.7404 H   0  0  0  0  0  0  0  0  0  0  0  0  # atno 10167 bound_to 10162
  156.0551  130.5778  150.8137 H   0  0  0  0  0  0  0  0  0  0  0  0  # atno 10718 bound_to 10713
  154.6536  135.2915  154.9955 H   0  0  0  0  0  0  0  0  0  0  0  0  # atno 10763 bound_to 10752
  154.1040  135.6572  153.4877 H   0  0  0  0  0  0  0  0  0  0  0  0  # atno 10764 bound_to 10752
  153.0390  135.5249  154.7456 H   0  0  0  0  0  0  0  0  0  0  0  0  # atno 10765 bound_to 10752
  141.0386  133.6789  156.2739 H   0  0  0  0  0  0  0  0  0  0  0  0  # atno 11005 bound_to 11000
  144.9360  140.8027  143.5660 LP  0  0  0  0  0  0  0  0  0  0  0  0  # atno 17320 bound_to 7965
  145.2529  139.2024  143.4933 LP  0  0  0  0  0  0  0  0  0  0  0  0  # atno 17321 bound_to 7965
  140.7242  143.2619  151.4177 LP  0  0  0  0  0  0  0  0  0  0  0  0  # atno 17342 bound_to 10162
  139.5988  144.1339  152.2175 LP  0  0  0  0  0  0  0  0  0  0  0  0  # atno 17343 bound_to 10162
  157.5514  131.0944  150.9690 LP  0  0  0  0  0  0  0  0  0  0  0  0  # atno 17370 bound_to 10713
  156.9949  130.5577  149.5306 LP  0  0  0  0  0  0  0  0  0  0  0  0  # atno 17371 bound_to 10713
  140.6275  134.5298  157.5555 LP  0  0  0  0  0  0  0  0  0  0  0  0  # atno 17394 bound_to 11000
  139.9259  134.8057  156.1070 LP  0  0  0  0  0  0  0  0  0  0  0  0  # atno 17395 bound_to 11000

$$$$
