AV-unprocessed.smi:148|AV-procd|sdf|1213|dock8
  -GOLD-   2262018393D 1   1.00000     0.00000
 Structure written by MMmdl.
 63 67  0  0  0  0  0  0  0  0  1 V2000
  149.4585  136.0909  154.4735 O   0  0  0  0  0  0  0  0  0  0  0  0
  149.2536  134.6944  154.5162 C   0  0  0  0  0  0  0  0  0  0  0  0
  150.3927  133.9870  155.2878 C   0  0  1  0  0  0  0  0  0  0  0  0
  150.3495  134.2871  156.8119 C   0  0  0  0  0  0  0  0  0  0  0  0
  150.3560  135.7042  157.1465 N   0  0  0  0  0  0  0  0  0  0  0  0
  149.2997  136.4463  157.6279 C   0  0  0  0  0  0  0  0  0  0  0  0
  149.5559  137.7066  157.8477 N   0  0  0  0  0  0  0  0  0  0  0  0
  150.8965  137.8415  157.5108 C   0  0  0  0  0  0  0  0  0  0  0  0
  151.8183  138.9264  157.5133 C   0  0  0  0  0  0  0  0  0  0  0  0
  151.5143  140.1917  157.8759 N   0  0  0  0  0  0  0  0  0  0  0  0
  152.6368  140.7439  158.6387 C   0  0  0  0  0  0  0  0  0  0  0  0
  152.2680  142.0723  159.3044 C   0  0  0  0  0  0  0  0  0  0  0  0
  151.7715  143.0564  158.2457 C   0  0  0  0  0  0  0  0  0  0  0  0
  150.5903  142.4428  157.4849 C   0  0  0  0  0  0  0  0  0  0  0  0
  150.9361  141.0728  156.8379 C   0  0  2  0  0  0  0  0  0  0  0  0
  149.6679  140.4765  156.1326 C   0  0  2  0  0  0  0  0  0  0  0  0
  149.8985  139.3689  155.0810 C   0  0  0  0  0  0  0  0  0  0  0  0
  148.6836  139.3781  154.1421 C   0  0  0  0  0  0  0  0  0  0  0  0
  147.8561  140.6074  154.5260 C   0  0  0  0  0  0  0  0  0  0  0  0
  148.7977  141.4847  155.3516 C   0  0  2  0  0  0  0  0  0  0  0  0
  149.5797  142.2653  154.4643 O   0  0  0  0  0  0  0  0  0  0  0  0
  153.0868  138.6872  157.0987 N   0  0  0  0  0  0  0  0  0  0  0  0
  153.4444  137.4542  156.7269 C   0  0  0  0  0  0  0  0  0  0  0  0
  152.7009  136.3461  156.6845 N   0  0  0  0  0  0  0  0  0  0  0  0
  151.4184  136.5900  157.0801 C   0  0  0  0  0  0  0  0  0  0  0  0
  150.4138  132.4661  154.9814 C   0  0  2  0  0  0  0  0  0  0  0  0
  149.1113  131.7414  155.2777 C   0  0  0  0  0  0  0  0  0  0  0  0
  149.5562  130.2846  155.3372 C   0  0  0  0  0  0  0  0  0  0  0  0
  150.8841  130.3111  155.8471 O   0  0  0  0  0  0  0  0  0  0  0  0
  151.3781  131.6467  155.8472 C   0  0  0  0  0  0  0  0  0  0  0  0
  149.1719  136.4098  153.6307 H   0  0  0  0  0  0  0  0  0  0  0  0
  148.2795  134.4796  154.9557 H   0  0  0  0  0  0  0  0  0  0  0  0
  149.2127  134.3520  153.4829 H   0  0  0  0  0  0  0  0  0  0  0  0
  151.3317  134.3986  154.9141 H   0  0  0  0  0  0  0  0  0  0  0  0
  149.4667  133.8354  157.2644 H   0  0  0  0  0  0  0  0  0  0  0  0
  151.1983  133.8174  157.3097 H   0  0  0  0  0  0  0  0  0  0  0  0
  148.3216  136.0261  157.8075 H   0  0  0  0  0  0  0  0  0  0  0  0
  152.9546  140.0344  159.4049 H   0  0  0  0  0  0  0  0  0  0  0  0
  153.4894  140.8972  157.9758 H   0  0  0  0  0  0  0  0  0  0  0  0
  151.4939  141.9098  160.0555 H   0  0  0  0  0  0  0  0  0  0  0  0
  153.1319  142.4836  159.8273 H   0  0  0  0  0  0  0  0  0  0  0  0
  151.4738  143.9949  158.7141 H   0  0  0  0  0  0  0  0  0  0  0  0
  152.5774  143.2929  157.5493 H   0  0  0  0  0  0  0  0  0  0  0  0
  149.7489  142.3208  158.1688 H   0  0  0  0  0  0  0  0  0  0  0  0
  150.2718  143.1637  156.7333 H   0  0  0  0  0  0  0  0  0  0  0  0
  151.7030  141.2487  156.0827 H   0  0  0  0  0  0  0  0  0  0  0  0
  149.0290  140.0552  156.9110 H   0  0  0  0  0  0  0  0  0  0  0  0
  150.7984  139.5819  154.5028 H   0  0  0  0  0  0  0  0  0  0  0  0
  150.0206  138.3843  155.5296 H   0  0  0  0  0  0  0  0  0  0  0  0
  149.0139  139.4435  153.1045 H   0  0  0  0  0  0  0  0  0  0  0  0
  148.0928  138.4667  154.2398 H   0  0  0  0  0  0  0  0  0  0  0  0
  147.4358  141.1223  153.6609 H   0  0  0  0  0  0  0  0  0  0  0  0
  147.0199  140.2934  155.1525 H   0  0  0  0  0  0  0  0  0  0  0  0
  148.2357  142.1472  156.0106 H   0  0  0  0  0  0  0  0  0  0  0  0
  149.5571  143.1640  154.7556 H   0  0  0  0  0  0  0  0  0  0  0  0
  154.4732  137.3387  156.4193 H   0  0  0  0  0  0  0  0  0  0  0  0
  150.6782  132.3018  153.9357 H   0  0  0  0  0  0  0  0  0  0  0  0
  148.7158  132.0494  156.2467 H   0  0  0  0  0  0  0  0  0  0  0  0
  148.3369  131.9068  154.5296 H   0  0  0  0  0  0  0  0  0  0  0  0
  148.9016  129.6729  155.9585 H   0  0  0  0  0  0  0  0  0  0  0  0
  149.5773  129.8514  154.3363 H   0  0  0  0  0  0  0  0  0  0  0  0
  152.4029  131.6793  155.4764 H   0  0  0  0  0  0  0  0  0  0  0  0
  151.3797  132.0096  156.8760 H   0  0  0  0  0  0  0  0  0  0  0  0
  1  2  1  0  0  0  0
  1 31  1  0  0  0  0
  2  3  1  0  0  0  0
  2 32  1  0  0  0  0
  2 33  1  0  0  0  0
  3  4  1  0  0  0  0
  3 26  1  0  0  0  0
  3 34  1  0  0  0  0
  4  5  1  0  0  0  0
  4 35  1  0  0  0  0
  4 36  1  0  0  0  0
  5 25  1  0  0  0  0
  5  6  1  0  0  0  0
  6  7  2  0  0  0  0
  6 37  1  0  0  0  0
  7  8  1  0  0  0  0
  8 25  2  0  0  0  0
  8  9  1  0  0  0  0
  9 10  1  0  0  0  0
  9 22  2  0  0  0  0
 10 15  1  0  0  0  0
 10 11  1  0  0  0  0
 11 12  1  0  0  0  0
 11 38  1  0  0  0  0
 11 39  1  0  0  0  0
 12 13  1  0  0  0  0
 12 40  1  0  0  0  0
 12 41  1  0  0  0  0
 13 14  1  0  0  0  0
 13 42  1  0  0  0  0
 13 43  1  0  0  0  0
 14 15  1  0  0  0  0
 14 44  1  0  0  0  0
 14 45  1  0  0  0  0
 15 16  1  0  0  0  0
 15 46  1  0  0  0  0
 16 20  1  0  0  0  0
 16 17  1  0  0  0  0
 16 47  1  0  0  0  0
 17 18  1  0  0  0  0
 17 48  1  0  0  0  0
 17 49  1  0  0  0  0
 18 19  1  0  0  0  0
 18 50  1  0  0  0  0
 18 51  1  0  0  0  0
 19 20  1  0  0  0  0
 19 52  1  0  0  0  0
 19 53  1  0  0  0  0
 20 21  1  0  0  0  0
 20 54  1  0  0  0  0
 21 55  1  0  0  0  0
 22 23  1  0  0  0  0
 23 24  2  0  0  0  0
 23 56  1  0  0  0  0
 24 25  1  0  0  0  0
 26 30  1  0  0  0  0
 26 27  1  0  0  0  0
 26 57  1  0  0  0  0
 27 28  1  0  0  0  0
 27 58  1  0  0  0  0
 27 59  1  0  0  0  0
 28 29  1  0  0  0  0
 28 60  1  0  0  0  0
 28 61  1  0  0  0  0
 29 30  1  0  0  0  0
 30 62  1  0  0  0  0
 30 63  1  0  0  0  0
M  END
> <s_m_source_file>
AV-unprocessed.smi

> <i_m_source_file_index>
148

> <i_lp_mmshare_version>
43012

> <i_f3d_flags>
0

> <s_epik_input>
W0NIMl0xT1tDSDJdW0NIMl1bQ0BIXTFbQ0BIXShbQ0gyXVtPSF0pW0NIMl1uKFtjSF1uMiljKGMyMyluW2NIXW5jM040W0NIMl1bQ0gyXVtDSDJdW0NIMl1bQ0BIXTRbQ0BASF01W0NIMl1bQ0gyXVtDSDJdW0NASF01W09IXQ==

> <s_epik_cmdline>
J2VwaWtfcHl0aG9uJywgJy1waCcsICc3LjAnLCAnLXRuJywgJzgnLCAnLW1hJywgJzIwMCcsICctbWV0YWxfYmluZGluZycsICctaW1hZScsICc8aW5maWxlLm1hZT4nLCAnLW9tYWUnLCAnPG91dGZpbGUubWFlPic=

> <r_lp_tautomer_probability>
1

> <r_epik_Ionization_Penalty>
0.00556303

> <r_epik_Ionization_Penalty_Charging>
0

> <r_epik_Ionization_Penalty_Neutral>
0.00556303

> <r_epik_State_Penalty>
0.00401767

> <r_epik_Charging_Adjusted_Penalty>
0.00401767

> <i_epik_Tot_Q>
0

> <i_epik_Tot_abs_Q>
0

> <r_epik_Metal_State_Penalty>
-0

> <b_epik_Metal_Only>
0

> <s_lp_Force_Field>
OPLS_2005

> <r_lp_Energy>
69.1671

> <b_lp_Chiralities_Consistent>
1

> <s_lp_Variant>
AV-unprocessed.smi:148-12

> <Gold.Version>
5.8.1

> <Gold.Id.Protein>
6NUR|6NUR_protein|mol2

> <Gold.PLP.Fitness>
46.5777

> <Gold.PLP.PLP>
-36.0804

> <Gold.PLP.part.hbond>
-5.7927

> <Gold.PLP.part.metal>
0.0000

> <Gold.PLP.part.buried>
-0.9149

> <Gold.PLP.part.nonpolar>
-29.5773

> <Gold.PLP.part.repulsive>
0.0000

> <Gold.PLP.ligand.clash>
0.0000

> <Gold.PLP.ligand.torsion>
1.2943

> <Gold.PLP.Chemscore.Hbond>
4.1318

> <Gold.PLP.Chemscore.CHOScore>
0.0000

> <Gold.PLP.Chemscore.Metal>
0.0000

> <Gold.Chemscore.Hbonds>
donor molecule, donor type, donor heavy atom, donor atom, acceptor molecule, acceptor atom, score
      L1  H     1    31       P1  7948  1.00
      L1  H    21    55       P1  8028  1.00
      P1  H  7997  8009       L1    22  1.00
      P1  H  8011  8017       L1    21  0.14
      P1  H 10752 10764       L1    24  1.00

> <Gold.PLP.Chemscore.Internal.Correction>
0.6904

> <Gold.Rescore>
     Score         DG    S(hbond)    S(metal)    S(lipo)     H(rot)  DE(clash)    DE(int)     intcor
     18.04     -20.61       3.34        0.00     106.62       3.32       0.32       2.25       ----

> <Gold.Chemscore.Fitness>
18.0360

> <Gold.Chemscore.DG>
-20.6083

> <Gold.Chemscore.ZeroCoef>
-5.4800

> <Gold.Chemscore.Hbond>
3.3393

> <Gold.Chemscore.Metal>
0.0000

> <Gold.Chemscore.Lipo>
106.6236

> <Gold.Chemscore.Internal_Hbond>
0.0000

> <Gold.Chemscore.DEClash>
0.3187

> <Gold.Chemscore.DEInternal>
2.2535

> <Gold.Chemscore.Rot>
3.3203

> <Gold.Chemscore.Internal.Correction>
   9.000000E+99

> <Gold.Chemscore.Hbonds>
donor molecule, donor type, donor heavy atom, donor atom, acceptor molecule, acceptor atom, score
      L1  H     1    31       P1  7948  0.92
      L1  H    21    55       P1  8028  0.99
      P1  H  7997  8009       L1    22  0.84
      P1  H  8011  8017       L1    21  0.06
      P1  H 10752 10764       L1    24  0.49

> <Gold.Chemscore.Hbond.Weighted>
-11.1533

> <Gold.Chemscore.Metal.Weighted>
-0.0000

> <Gold.Chemscore.Lipo.Weighted>
-12.4750

> <Gold.Chemscore.Internal_Hbond.Weighted>
0.0000

> <Gold.Chemscore.DEClash.Weighted>
0.3187

> <Gold.Chemscore.DEInternal.Weighted>
2.2535

> <Gold.Chemscore.Rot.Weighted>
8.5000

> <Gold.Chemscore.Internal.Correction.Weighted>
   9.000000E+99

> <Gold.Protein.RotatedTorsions>
[ 6907 6896 6895 6894 ] final  -57.47 input  -60.11 | X-H torsion
[ 7974 7965 7964 7962 ] final  132.96 input  175.53 | X-H torsion
[ 8008 7997 7996 7995 ] final  159.53 input   59.86 | X-H torsion
[ 10167 10162 10161 10158 ] final   57.70 input  -65.29 | X-H torsion
[ 10718 10713 10712 10709 ] final  178.19 input   66.30 | X-H torsion
[ 10763 10752 10751 10750 ] final  -23.73 input  -60.55 | X-H torsion
[ 11005 11000 10999 10996 ] final  123.26 input  -57.11 | X-H torsion

> <Gold.Protein.ActiveResidues>
 VAL166  LYS551  ARG553  GLY616  TRP617  ASP618  TYR619  PRO620  LYS621  CYS622 
 ASP623  PHE694  ASN695  SER759  ASP760  ASP761  ALA762  ILE779  LEU786  VAL792 
 PHE793  MET794  SER795  GLU796  ALA797  LYS798  CYS799  TRP800  GLU811  SER814 

> <Gold.Protein.RotatedAtoms>
  150.8083  134.7222  159.6664 H   0  0  0  0  0  0  0  0  0  0  0  0  # atno 6907 bound_to 6896
  152.4203  134.5964  159.9998 H   0  0  0  0  0  0  0  0  0  0  0  0  # atno 6908 bound_to 6896
  151.6181  133.3304  159.3118 H   0  0  0  0  0  0  0  0  0  0  0  0  # atno 6909 bound_to 6896
  144.9914  139.4403  143.5337 H   0  0  0  0  0  0  0  0  0  0  0  0  # atno 7974 bound_to 7965
  156.2232  140.1828  156.7426 H   0  0  0  0  0  0  0  0  0  0  0  0  # atno 8008 bound_to 7997
  154.5899  140.0652  156.9252 H   0  0  0  0  0  0  0  0  0  0  0  0  # atno 8009 bound_to 7997
  155.2354  140.3318  155.4301 H   0  0  0  0  0  0  0  0  0  0  0  0  # atno 8010 bound_to 7997
  140.1952  144.4045  150.6553 H   0  0  0  0  0  0  0  0  0  0  0  0  # atno 10167 bound_to 10162
  156.8943  130.9858  151.3045 H   0  0  0  0  0  0  0  0  0  0  0  0  # atno 10718 bound_to 10713
  153.6725  135.6971  153.5143 H   0  0  0  0  0  0  0  0  0  0  0  0  # atno 10763 bound_to 10752
  153.2547  135.4264  155.0832 H   0  0  0  0  0  0  0  0  0  0  0  0  # atno 10764 bound_to 10752
  154.8422  135.3540  154.6269 H   0  0  0  0  0  0  0  0  0  0  0  0  # atno 10765 bound_to 10752
  139.9305  134.9641  156.8233 H   0  0  0  0  0  0  0  0  0  0  0  0  # atno 11005 bound_to 11000
  146.3432  139.9248  142.8761 LP  0  0  0  0  0  0  0  0  0  0  0  0  # atno 17320 bound_to 7965
  145.2280  140.9962  143.4007 LP  0  0  0  0  0  0  0  0  0  0  0  0  # atno 17321 bound_to 7965
  140.6428  143.2207  151.6252 LP  0  0  0  0  0  0  0  0  0  0  0  0  # atno 17342 bound_to 10162
  139.5239  144.3118  152.0986 LP  0  0  0  0  0  0  0  0  0  0  0  0  # atno 17343 bound_to 10162
  157.6065  130.8551  149.8883 LP  0  0  0  0  0  0  0  0  0  0  0  0  # atno 17370 bound_to 10713
  156.0613  130.3699  150.0975 LP  0  0  0  0  0  0  0  0  0  0  0  0  # atno 17371 bound_to 10713
  140.6216  133.9988  155.7621 LP  0  0  0  0  0  0  0  0  0  0  0  0  # atno 17394 bound_to 11000
  141.0890  133.9946  157.3268 LP  0  0  0  0  0  0  0  0  0  0  0  0  # atno 17395 bound_to 11000

$$$$
