AV-unprocessed.smi:461|AV-procd|sdf|2631|dock4
  -GOLD-   2262023 33D 1   1.00000     0.00000
 Structure written by MMmdl.
 33 34  0  0  0  0  0  0  0  0  1 V2000
  152.9771  136.4255  157.6321 C   0  0  0  0  0  0  0  0  0  0  0  0
  152.3918  137.6040  156.9911 N   0  0  0  0  0  0  0  0  0  0  0  0
  152.5544  138.7711  157.7197 N   0  0  0  0  0  0  0  0  0  0  0  0
  152.0540  139.8595  157.2122 C   0  0  0  0  0  0  0  0  0  0  0  0
  152.1041  141.1222  157.7884 N   0  0  0  0  0  0  0  0  0  0  0  0
  152.7307  141.4333  159.0649 C   0  0  0  0  0  0  0  0  0  0  0  0
  152.3584  142.8370  159.5702 C   0  0  1  0  0  0  0  0  0  0  0  0
  152.8379  143.9640  158.6620 C   0  0  0  0  0  0  0  0  0  0  0  0
  151.9398  145.1092  159.0832 C   0  0  0  0  0  0  0  0  0  0  0  0
  150.6496  144.4059  159.5140 C   0  0  0  0  0  0  0  0  0  0  0  0
  150.9489  143.0134  159.5604 O   0  0  0  0  0  0  0  0  0  0  0  0
  151.3304  139.8384  155.8751 C   0  0  0  0  0  0  0  0  0  0  0  0
  150.8561  140.8767  155.4043 O   0  0  0  0  0  0  0  0  0  0  0  0
  151.2469  138.6259  155.2607 N   0  0  0  0  0  0  0  0  0  0  0  0
  150.5463  138.5834  153.9642 C   0  0  0  0  0  0  0  0  0  0  0  0
  151.7593  137.4751  155.7877 C   0  0  0  0  0  0  0  0  0  0  0  0
  151.6633  136.3814  155.2253 O   0  0  0  0  0  0  0  0  0  0  0  0
  153.7482  135.9857  156.9979 H   0  0  0  0  0  0  0  0  0  0  0  0
  152.2137  135.6687  157.8176 H   0  0  0  0  0  0  0  0  0  0  0  0
  153.4392  136.6644  158.5916 H   0  0  0  0  0  0  0  0  0  0  0  0
  153.8119  141.3470  158.9531 H   0  0  0  0  0  0  0  0  0  0  0  0
  152.4359  140.6819  159.7989 H   0  0  0  0  0  0  0  0  0  0  0  0
  152.7330  143.0048  160.5816 H   0  0  0  0  0  0  0  0  0  0  0  0
  153.8984  144.1866  158.7826 H   0  0  0  0  0  0  0  0  0  0  0  0
  152.6571  143.7139  157.6157 H   0  0  0  0  0  0  0  0  0  0  0  0
  152.3784  145.6332  159.9334 H   0  0  0  0  0  0  0  0  0  0  0  0
  151.7810  145.8345  158.2848 H   0  0  0  0  0  0  0  0  0  0  0  0
  150.3211  144.7550  160.4934 H   0  0  0  0  0  0  0  0  0  0  0  0
  149.8402  144.5779  158.8042 H   0  0  0  0  0  0  0  0  0  0  0  0
  150.6076  137.6266  153.4446 H   0  0  0  0  0  0  0  0  0  0  0  0
  150.9560  139.3267  153.2780 H   0  0  0  0  0  0  0  0  0  0  0  0
  149.4868  138.8039  154.1025 H   0  0  0  0  0  0  0  0  0  0  0  0
  151.6234  141.9016  157.3618 H   0  0  0  0  0  0  0  0  0  0  0  0
  1 18  1  0  0  0  0
  1 19  1  0  0  0  0
  1 20  1  0  0  0  0
  1  2  1  0  0  0  0
  2 16  1  0  0  0  0
  2  3  1  0  0  0  0
  3  4  2  0  0  0  0
  4 12  1  0  0  0  0
  4  5  1  0  0  0  0
  5  6  1  0  0  0  0
  5 33  1  0  0  0  0
  6  7  1  0  0  0  0
  6 21  1  0  0  0  0
  6 22  1  0  0  0  0
  7 11  1  0  0  0  0
  7  8  1  0  0  0  0
  7 23  1  0  0  0  0
  8  9  1  0  0  0  0
  8 24  1  0  0  0  0
  8 25  1  0  0  0  0
  9 10  1  0  0  0  0
  9 26  1  0  0  0  0
  9 27  1  0  0  0  0
 10 11  1  0  0  0  0
 10 28  1  0  0  0  0
 10 29  1  0  0  0  0
 12 13  2  0  0  0  0
 12 14  1  0  0  0  0
 14 15  1  0  0  0  0
 14 16  1  0  0  0  0
 15 30  1  0  0  0  0
 15 31  1  0  0  0  0
 15 32  1  0  0  0  0
 16 17  2  0  0  0  0
M  END
> <s_m_source_file>
AV-unprocessed.smi

> <i_m_source_file_index>
461

> <i_lp_mmshare_version>
43012

> <i_f3d_flags>
0

> <s_epik_input>
Tz1jMW4oW0NIM10pYyg9TyljKG5uMVtDSDNdKVtOSF1bQ0gyXVtDQEBIXTJbQ0gyXVtDSDJdW0NIMl1PMg==

> <s_epik_cmdline>
J2VwaWtfcHl0aG9uJywgJy1waCcsICc3LjAnLCAnLXRuJywgJzgnLCAnLW1hJywgJzIwMCcsICctbWV0YWxfYmluZGluZycsICctaW1hZScsICc8aW5maWxlLm1hZT4nLCAnLW9tYWUnLCAnPG91dGZpbGUubWFlPic=

> <r_lp_tautomer_probability>
1

> <r_epik_Ionization_Penalty>
0.000103292

> <r_epik_Ionization_Penalty_Charging>
5.59445e-09

> <r_epik_Ionization_Penalty_Neutral>
0.000103287

> <r_epik_State_Penalty>
-0

> <r_epik_Charging_Adjusted_Penalty>
5.59445e-09

> <i_epik_Tot_Q>
0

> <i_epik_Tot_abs_Q>
0

> <r_epik_Metal_State_Penalty>
-0

> <b_epik_Metal_Only>
0

> <s_lp_Force_Field>
OPLS_2005

> <r_lp_Energy>
40.9993

> <b_lp_Chiralities_Consistent>
1

> <s_lp_Variant>
AV-unprocessed.smi:461-2

> <Gold.Version>
5.8.1

> <Gold.Id.Protein>
6NUR|6NUR_protein|mol2

> <Gold.PLP.Fitness>
37.4820

> <Gold.PLP.PLP>
-32.3716

> <Gold.PLP.part.hbond>
-2.3702

> <Gold.PLP.part.metal>
0.0000

> <Gold.PLP.part.buried>
-3.3476

> <Gold.PLP.part.nonpolar>
-26.6812

> <Gold.PLP.part.repulsive>
0.2687

> <Gold.PLP.ligand.clash>
0.0000

> <Gold.PLP.ligand.torsion>
0.0904

> <Gold.PLP.Chemscore.Hbond>
1.7613

> <Gold.PLP.Chemscore.CHOScore>
0.0000

> <Gold.PLP.Chemscore.Metal>
0.0000

> <Gold.Chemscore.Hbonds>
donor molecule, donor type, donor heavy atom, donor atom, acceptor molecule, acceptor atom, score
      P1  H  7989  7998       L1    13  0.74
      P1  H 10752 10764       L1    17  1.00

> <Gold.PLP.Chemscore.Internal.Correction>
0.0073

> <Gold.Rescore>
     Score         DG    S(hbond)    S(metal)    S(lipo)     H(rot)  DE(clash)    DE(int)     intcor
     15.92     -16.07       1.62        0.00      72.63       1.30       0.07       0.08       ----

> <Gold.Chemscore.Fitness>
15.9220

> <Gold.Chemscore.DG>
-16.0723

> <Gold.Chemscore.ZeroCoef>
-5.4800

> <Gold.Chemscore.Hbond>
1.6200

> <Gold.Chemscore.Metal>
0.0000

> <Gold.Chemscore.Lipo>
72.6312

> <Gold.Chemscore.Internal_Hbond>
0.0000

> <Gold.Chemscore.DEClash>
0.0733

> <Gold.Chemscore.DEInternal>
0.0770

> <Gold.Chemscore.Rot>
1.2954

> <Gold.Chemscore.Internal.Correction>
   9.000000E+99

> <Gold.Chemscore.Hbonds>
donor molecule, donor type, donor heavy atom, donor atom, acceptor molecule, acceptor atom, score
      P1  H  7989  7998       L1    13  0.27
      P1  H 10752 10764       L1    17  0.96

> <Gold.Chemscore.Hbond.Weighted>
-5.4108

> <Gold.Chemscore.Metal.Weighted>
-0.0000

> <Gold.Chemscore.Lipo.Weighted>
-8.4979

> <Gold.Chemscore.Internal_Hbond.Weighted>
0.0000

> <Gold.Chemscore.DEClash.Weighted>
0.0733

> <Gold.Chemscore.DEInternal.Weighted>
0.0770

> <Gold.Chemscore.Rot.Weighted>
3.3163

> <Gold.Chemscore.Internal.Correction.Weighted>
   9.000000E+99

> <Gold.Protein.RotatedTorsions>
[ 6907 6896 6895 6894 ] final  -43.40 input  -60.11 | X-H torsion
[ 7974 7965 7964 7962 ] final   -6.10 input  175.53 | X-H torsion
[ 8008 7997 7996 7995 ] final   13.37 input   59.86 | X-H torsion
[ 10167 10162 10161 10158 ] final   92.21 input  -65.29 | X-H torsion
[ 10718 10713 10712 10709 ] final   29.81 input   66.30 | X-H torsion
[ 10763 10752 10751 10750 ] final  -71.89 input  -60.55 | X-H torsion
[ 11005 11000 10999 10996 ] final  145.77 input  -57.11 | X-H torsion

> <Gold.Protein.ActiveResidues>
 VAL166  LYS551  ARG553  GLY616  TRP617  ASP618  TYR619  PRO620  LYS621  CYS622 
 ASP623  PHE694  ASN695  SER759  ASP760  ASP761  ALA762  ILE779  LEU786  VAL792 
 PHE793  MET794  SER795  GLU796  ALA797  LYS798  CYS799  TRP800  GLU811  SER814 

> <Gold.Protein.RotatedAtoms>
  150.9444  134.8850  159.7632 H   0  0  0  0  0  0  0  0  0  0  0  0  # atno 6907 bound_to 6896
  152.5094  134.3896  159.9389 H   0  0  0  0  0  0  0  0  0  0  0  0  # atno 6908 bound_to 6896
  151.3915  133.3747  159.2756 H   0  0  0  0  0  0  0  0  0  0  0  0  # atno 6909 bound_to 6896
  146.2338  140.2119  142.8335 H   0  0  0  0  0  0  0  0  0  0  0  0  # atno 7974 bound_to 7965
  154.8335  140.2903  155.5706 H   0  0  0  0  0  0  0  0  0  0  0  0  # atno 8008 bound_to 7997
  156.3007  140.2527  156.3196 H   0  0  0  0  0  0  0  0  0  0  0  0  # atno 8009 bound_to 7997
  154.9205  140.0386  157.1984 H   0  0  0  0  0  0  0  0  0  0  0  0  # atno 8010 bound_to 7997
  139.8298  144.6692  150.9413 H   0  0  0  0  0  0  0  0  0  0  0  0  # atno 10167 bound_to 10162
  157.2514  130.7117  149.6407 H   0  0  0  0  0  0  0  0  0  0  0  0  # atno 10718 bound_to 10713
  154.4380  135.5947  153.6111 H   0  0  0  0  0  0  0  0  0  0  0  0  # atno 10763 bound_to 10752
  152.9803  135.5991  154.3757 H   0  0  0  0  0  0  0  0  0  0  0  0  # atno 10764 bound_to 10752
  154.3603  135.2841  155.2302 H   0  0  0  0  0  0  0  0  0  0  0  0  # atno 10765 bound_to 10752
  140.0739  134.9136  157.1390 H   0  0  0  0  0  0  0  0  0  0  0  0  # atno 11005 bound_to 11000
  144.9700  140.8359  143.5461 LP  0  0  0  0  0  0  0  0  0  0  0  0  # atno 17320 bound_to 7965
  145.2100  139.2209  143.5148 LP  0  0  0  0  0  0  0  0  0  0  0  0  # atno 17321 bound_to 7965
  140.7807  143.4011  151.1147 LP  0  0  0  0  0  0  0  0  0  0  0  0  # atno 17342 bound_to 10162
  139.7666  143.8557  152.3112 LP  0  0  0  0  0  0  0  0  0  0  0  0  # atno 17343 bound_to 10162
  155.9666  130.4426  150.5388 LP  0  0  0  0  0  0  0  0  0  0  0  0  # atno 17370 bound_to 10713
  157.3273  131.0693  151.1887 LP  0  0  0  0  0  0  0  0  0  0  0  0  # atno 17371 bound_to 10713
  140.3587  134.2518  155.7189 LP  0  0  0  0  0  0  0  0  0  0  0  0  # atno 17394 bound_to 11000
  141.2022  133.7943  157.0402 LP  0  0  0  0  0  0  0  0  0  0  0  0  # atno 17395 bound_to 11000

$$$$
