AV-unprocessed.smi:1812|AV-procd|sdf|7339|dock10
  -GOLD-   22720 9 03D 1   1.00000     0.00000
 Structure written by MMmdl.
 33 35  0  0  0  0  0  0  0  0  2 V2000
  152.3657  140.1292  154.8853 O   0  0  0  0  0  0  0  0  0  0  0  0
  151.9639  139.6324  155.9399 C   0  0  0  0  0  0  0  0  0  0  0  0
  150.9000  138.8173  155.9381 N   0  0  0  0  0  0  0  0  0  0  0  0
  150.1031  138.4375  154.7767 C   0  0  0  0  0  0  0  0  0  0  0  0
  148.8151  139.2701  154.7196 C   0  0  1  0  0  0  0  0  0  0  0  0
  149.0485  140.7588  154.4685 C   0  0  0  0  0  0  0  0  0  0  0  0
  147.7510  141.2208  153.8217 C   0  0  0  0  0  0  0  0  0  0  0  0
  147.0395  139.9199  153.4375 C   0  0  0  0  0  0  0  0  0  0  0  0
  148.0148  138.9017  153.6074 O   0  0  0  0  0  0  0  0  0  0  0  0
  152.4960  139.8247  157.1684 N   0  5  0  0  0  0  0  0  0  0  0  0
  152.2226  140.9480  157.8523 C   0  0  0  0  0  0  0  0  0  0  0  0
  152.6461  141.1474  159.1084 N   0  0  0  0  0  0  0  0  0  0  0  0
  152.2449  142.3685  159.6307 N   0  0  0  0  0  0  0  0  0  0  0  0
  151.5155  143.0727  158.7621 C   0  0  0  0  0  0  0  0  0  0  0  0
  150.9624  144.4192  159.0892 C   0  0  0  0  0  0  0  0  0  0  0  0
  151.8668  145.5945  159.3910 C   0  0  0  0  0  0  0  0  0  0  0  0
  151.0490  144.9712  160.4935 C   0  0  0  0  0  0  0  0  0  0  0  0
  151.2583  142.2799  157.2160 S   0  0  0  0  0  0  0  0  0  0  0  0
  150.6139  138.4320  156.8263 H   0  0  0  0  0  0  0  0  0  0  0  0
  150.6630  138.5870  153.8523 H   0  0  0  0  0  0  0  0  0  0  0  0
  149.8706  137.3737  154.8395 H   0  0  0  0  0  0  0  0  0  0  0  0
  148.2360  139.1377  155.6359 H   0  0  0  0  0  0  0  0  0  0  0  0
  149.2863  141.3050  155.3815 H   0  0  0  0  0  0  0  0  0  0  0  0
  149.8735  140.8982  153.7686 H   0  0  0  0  0  0  0  0  0  0  0  0
  147.1421  141.8033  154.5138 H   0  0  0  0  0  0  0  0  0  0  0  0
  147.9534  141.8413  152.9483 H   0  0  0  0  0  0  0  0  0  0  0  0
  146.2017  139.7284  154.1096 H   0  0  0  0  0  0  0  0  0  0  0  0
  146.6597  139.9346  152.4157 H   0  0  0  0  0  0  0  0  0  0  0  0
  150.0548  144.6099  158.5199 H   0  0  0  0  0  0  0  0  0  0  0  0
  152.9417  145.4256  159.4144 H   0  0  0  0  0  0  0  0  0  0  0  0
  151.5569  146.5713  159.0257 H   0  0  0  0  0  0  0  0  0  0  0  0
  150.1936  145.5317  160.8651 H   0  0  0  0  0  0  0  0  0  0  0  0
  151.5785  144.3790  161.2374 H   0  0  0  0  0  0  0  0  0  0  0  0
  1  2  2  0  0  0  0
  2  3  1  0  0  0  0
  2 10  1  0  0  0  0
  3  4  1  0  0  0  0
  3 19  1  0  0  0  0
  4  5  1  0  0  0  0
  4 20  1  0  0  0  0
  4 21  1  0  0  0  0
  5  9  1  0  0  0  0
  5  6  1  0  0  0  0
  5 22  1  0  0  0  0
  6  7  1  0  0  0  0
  6 23  1  0  0  0  0
  6 24  1  0  0  0  0
  7  8  1  0  0  0  0
  7 25  1  0  0  0  0
  7 26  1  0  0  0  0
  8  9  1  0  0  0  0
  8 27  1  0  0  0  0
  8 28  1  0  0  0  0
 10 11  1  0  0  0  0
 11 18  1  0  0  0  0
 11 12  2  0  0  0  0
 12 13  1  0  0  0  0
 13 14  2  0  0  0  0
 14 15  1  0  0  0  0
 14 18  1  0  0  0  0
 15 17  1  0  0  0  0
 15 16  1  0  0  0  0
 15 29  1  0  0  0  0
 16 17  1  0  0  0  0
 16 30  1  0  0  0  0
 16 31  1  0  0  0  0
 17 32  1  0  0  0  0
 17 33  1  0  0  0  0
M  CHG  1  10  -1
M  END
> <s_m_source_file>
AV-unprocessed.smi

> <i_m_source_file_index>
1812

> <i_lp_mmshare_version>
43012

> <i_f3d_flags>
0

> <s_epik_input>
TzFbQ0gyXVtDSDJdW0NIMl1bQ0BIXTFbQ0gyXVtOSF1DKD1PKVtOSF1jMm5uYyhzMilbQ0hdM1tDSDJdW0NIMl0z

> <s_epik_cmdline>
J2VwaWtfcHl0aG9uJywgJy1waCcsICc3LjAnLCAnLXRuJywgJzgnLCAnLW1hJywgJzIwMCcsICctbWV0YWxfYmluZGluZycsICctaW1hZScsICc8aW5maWxlLm1hZT4nLCAnLW9tYWUnLCAnPG91dGZpbGUubWFlPic=

> <r_lp_tautomer_probability>
1

> <r_epik_Ionization_Penalty>
4.72991

> <r_epik_Ionization_Penalty_Charging>
4.58249

> <r_epik_Ionization_Penalty_Neutral>
0.147417

> <r_epik_State_Penalty>
4.58223

> <r_epik_Charging_Adjusted_Penalty>
9.16473

> <i_epik_Tot_Q>
-1

> <i_epik_Tot_abs_Q>
1

> <r_epik_Metal_State_Penalty>
0.861876

> <b_epik_Metal_Only>
1

> <s_lp_Force_Field>
OPLS_2005

> <r_lp_Energy>
14.1682

> <b_lp_Chiralities_Consistent>
1

> <s_lp_Variant>
AV-unprocessed.smi:1812-4

> <Gold.Version>
5.8.1

> <Gold.Id.Protein>
6NUR|6NUR_protein|mol2

> <Gold.PLP.Fitness>
40.0869

> <Gold.PLP.PLP>
-34.0439

> <Gold.PLP.part.hbond>
-2.2891

> <Gold.PLP.part.metal>
0.0000

> <Gold.PLP.part.buried>
-4.6568

> <Gold.PLP.part.nonpolar>
-27.9049

> <Gold.PLP.part.repulsive>
1.0367

> <Gold.PLP.ligand.clash>
0.0000

> <Gold.PLP.ligand.torsion>
0.9545

> <Gold.PLP.Chemscore.Hbond>
2.5920

> <Gold.PLP.Chemscore.CHOScore>
0.0000

> <Gold.PLP.Chemscore.Metal>
0.0000

> <Gold.Chemscore.Hbonds>
donor molecule, donor type, donor heavy atom, donor atom, acceptor molecule, acceptor atom, score
      P1  H  7989  7998       L1     1  0.59
      P1  H  7997  8009       L1    10  2.00

> <Gold.PLP.Chemscore.Internal.Correction>
0.1760

> <Gold.Rescore>
     Score         DG    S(hbond)    S(metal)    S(lipo)     H(rot)  DE(clash)    DE(int)     intcor
     13.77     -14.83       0.82        0.00      88.23       1.45       0.08       0.98       ----

> <Gold.Chemscore.Fitness>
13.7724

> <Gold.Chemscore.DG>
-14.8305

> <Gold.Chemscore.ZeroCoef>
-5.4800

> <Gold.Chemscore.Hbond>
0.8166

> <Gold.Chemscore.Metal>
0.0000

> <Gold.Chemscore.Lipo>
88.2278

> <Gold.Chemscore.Internal_Hbond>
0.0000

> <Gold.Chemscore.DEClash>
0.0824

> <Gold.Chemscore.DEInternal>
0.9757

> <Gold.Chemscore.Rot>
1.4451

> <Gold.Chemscore.Internal.Correction>
   9.000000E+99

> <Gold.Chemscore.Hbonds>
donor molecule, donor type, donor heavy atom, donor atom, acceptor molecule, acceptor atom, score
      P1  H  7989  7998       L1     1  0.60
      P1  H  7997  8009       L1    10  0.11

> <Gold.Chemscore.Hbond.Weighted>
-2.7274

> <Gold.Chemscore.Metal.Weighted>
-0.0000

> <Gold.Chemscore.Lipo.Weighted>
-10.3227

> <Gold.Chemscore.Internal_Hbond.Weighted>
0.0000

> <Gold.Chemscore.DEClash.Weighted>
0.0824

> <Gold.Chemscore.DEInternal.Weighted>
0.9757

> <Gold.Chemscore.Rot.Weighted>
3.6995

> <Gold.Chemscore.Internal.Correction.Weighted>
   9.000000E+99

> <Gold.Protein.RotatedTorsions>
[ 6907 6896 6895 6894 ] final   31.52 input  -60.11 | X-H torsion
[ 7974 7965 7964 7962 ] final  117.67 input  175.53 | X-H torsion
[ 8008 7997 7996 7995 ] final  169.51 input   59.86 | X-H torsion
[ 10167 10162 10161 10158 ] final  117.15 input  -65.29 | X-H torsion
[ 10718 10713 10712 10709 ] final   -3.18 input   66.30 | X-H torsion
[ 10763 10752 10751 10750 ] final   91.77 input  -60.55 | X-H torsion
[ 11005 11000 10999 10996 ] final   28.97 input  -57.11 | X-H torsion

> <Gold.Protein.ActiveResidues>
 VAL166  LYS551  ARG553  GLY616  TRP617  ASP618  TYR619  PRO620  LYS621  CYS622 
 ASP623  PHE694  ASN695  SER759  ASP760  ASP761  ALA762  ILE779  LEU786  VAL792 
 PHE793  MET794  SER795  GLU796  ALA797  LYS798  CYS799  TRP800  GLU811  SER814 

> <Gold.Protein.RotatedAtoms>
  152.0615  134.9591  160.0574 H   0  0  0  0  0  0  0  0  0  0  0  0  # atno 6907 bound_to 6896
  152.0952  133.4216  159.4570 H   0  0  0  0  0  0  0  0  0  0  0  0  # atno 6908 bound_to 6896
  150.6838  134.2744  159.4645 H   0  0  0  0  0  0  0  0  0  0  0  0  # atno 6909 bound_to 6896
  145.1645  139.3136  143.4500 H   0  0  0  0  0  0  0  0  0  0  0  0  # atno 7974 bound_to 7965
  156.1451  140.1562  156.8860 H   0  0  0  0  0  0  0  0  0  0  0  0  # atno 8008 bound_to 7997
  154.5021  140.0822  156.7856 H   0  0  0  0  0  0  0  0  0  0  0  0  # atno 8009 bound_to 7997
  155.4005  140.3414  155.4259 H   0  0  0  0  0  0  0  0  0  0  0  0  # atno 8010 bound_to 7997
  139.6198  144.7099  151.2660 H   0  0  0  0  0  0  0  0  0  0  0  0  # atno 10167 bound_to 10162
  156.7799  130.5327  149.5752 H   0  0  0  0  0  0  0  0  0  0  0  0  # atno 10718 bound_to 10713
  153.2118  135.4385  155.0389 H   0  0  0  0  0  0  0  0  0  0  0  0  # atno 10763 bound_to 10752
  154.8204  135.3335  154.7057 H   0  0  0  0  0  0  0  0  0  0  0  0  # atno 10764 bound_to 10752
  153.7494  135.6999  153.5005 H   0  0  0  0  0  0  0  0  0  0  0  0  # atno 10765 bound_to 10752
  140.3099  134.2661  155.7736 H   0  0  0  0  0  0  0  0  0  0  0  0  # atno 11005 bound_to 11000
  146.3478  140.1767  142.8589 LP  0  0  0  0  0  0  0  0  0  0  0  0  # atno 17320 bound_to 7965
  145.0297  140.8860  143.5117 LP  0  0  0  0  0  0  0  0  0  0  0  0  # atno 17321 bound_to 7965
  140.7374  143.6678  150.8108 LP  0  0  0  0  0  0  0  0  0  0  0  0  # atno 17342 bound_to 10162
  140.0286  143.5467  152.2770 LP  0  0  0  0  0  0  0  0  0  0  0  0  # atno 17343 bound_to 10162
  156.1224  130.6120  151.0214 LP  0  0  0  0  0  0  0  0  0  0  0  0  # atno 17370 bound_to 10713
  157.6651  131.0873  150.7747 LP  0  0  0  0  0  0  0  0  0  0  0  0  # atno 17371 bound_to 10713
  141.2110  133.7701  156.9892 LP  0  0  0  0  0  0  0  0  0  0  0  0  # atno 17394 bound_to 11000
  140.1034  134.9521  157.1957 LP  0  0  0  0  0  0  0  0  0  0  0  0  # atno 17395 bound_to 11000

$$$$
