AV-unprocessed.smi:1748|AV-procd|sdf|7043|dock10
  -GOLD-   22720 8263D 1   1.00000     0.00000
 Structure written by MMmdl.
 39 40  0  0  0  0  0  0  0  0  3 V2000
  146.5103  138.5136  151.2555 C   0  0  0  0  0  0  0  0  0  0  0  0
  147.1135  138.1965  152.5678 N   0  3  2  0  0  0  0  0  0  0  0  0
  146.1397  137.5777  153.5016 C   0  0  0  0  0  0  0  0  0  0  0  0
  146.8266  137.1445  154.8074 C   0  0  0  0  0  0  0  0  0  0  0  0
  147.5533  138.3248  155.4671 C   0  0  0  0  0  0  0  0  0  0  0  0
  148.5328  138.9676  154.4715 C   0  0  2  0  0  0  0  0  0  0  0  0
  149.1748  140.1279  155.0821 N   0  0  0  0  0  0  0  0  0  0  0  0
  149.8911  140.1059  156.2155 C   0  0  0  0  0  0  0  0  0  0  0  0
  150.0879  139.0789  156.8651 O   0  0  0  0  0  0  0  0  0  0  0  0
  150.3648  141.3301  156.5093 N   0  0  0  0  0  0  0  0  0  0  0  0
  151.1283  141.7459  157.6133 C   0  0  0  0  0  0  0  0  0  0  0  0
  150.9048  142.8850  158.3256 C   0  0  0  0  0  0  0  0  0  0  0  0
  151.7437  143.2755  159.4524 C   0  0  0  0  0  0  0  0  0  0  0  0
  151.5366  144.5304  160.2806 C   0  0  0  0  0  0  0  0  0  0  0  0
  151.9675  145.5995  159.6119 F   0  0  0  0  0  0  0  0  0  0  0  0
  150.2409  144.7025  160.5408 F   0  0  0  0  0  0  0  0  0  0  0  0
  152.1936  144.4647  161.4385 F   0  0  0  0  0  0  0  0  0  0  0  0
  152.7656  142.3766  159.6836 C   0  0  0  0  0  0  0  0  0  0  0  0
  153.0610  141.2357  159.0230 N   0  5  0  0  0  0  0  0  0  0  0  0
  152.2679  140.8767  157.9740 C   0  0  0  0  0  0  0  0  0  0  0  0
  152.4802  139.8504  157.3269 O   0  0  0  0  0  0  0  0  0  0  0  0
  147.7988  139.3657  153.1731 C   0  0  0  0  0  0  0  0  0  0  0  0
  145.7230  139.2618  151.3573 H   0  0  0  0  0  0  0  0  0  0  0  0
  146.0774  137.6202  150.8045 H   0  0  0  0  0  0  0  0  0  0  0  0
  147.2637  138.9001  150.5685 H   0  0  0  0  0  0  0  0  0  0  0  0
  145.3376  138.2860  153.7158 H   0  0  0  0  0  0  0  0  0  0  0  0
  145.6787  136.7099  153.0282 H   0  0  0  0  0  0  0  0  0  0  0  0
  146.0899  136.7291  155.4958 H   0  0  0  0  0  0  0  0  0  0  0  0
  147.5394  136.3456  154.5983 H   0  0  0  0  0  0  0  0  0  0  0  0
  146.8224  139.0620  155.8026 H   0  0  0  0  0  0  0  0  0  0  0  0
  148.0849  137.9840  156.3566 H   0  0  0  0  0  0  0  0  0  0  0  0
  149.3015  138.2301  154.2306 H   0  0  0  0  0  0  0  0  0  0  0  0
  149.0635  141.0137  154.6103 H   0  0  0  0  0  0  0  0  0  0  0  0
  150.1864  142.0582  155.8330 H   0  0  0  0  0  0  0  0  0  0  0  0
  150.1017  143.5517  158.0585 H   0  0  0  0  0  0  0  0  0  0  0  0
  153.4489  142.6131  160.5273 H   0  0  0  0  0  0  0  0  0  0  0  0
  148.5114  139.7717  152.4537 H   0  0  0  0  0  0  0  0  0  0  0  0
  147.0689  140.1522  153.3735 H   0  0  0  0  0  0  0  0  0  0  0  0
  147.8285  137.5043  152.3943 H   0  0  0  0  0  0  0  0  0  0  0  0
  1  2  1  0  0  0  0
  1 23  1  0  0  0  0
  1 24  1  0  0  0  0
  1 25  1  0  0  0  0
  2 22  1  0  0  0  0
  2  3  1  0  0  0  0
  2 39  1  0  0  0  0
  3  4  1  0  0  0  0
  3 26  1  0  0  0  0
  3 27  1  0  0  0  0
  4  5  1  0  0  0  0
  4 28  1  0  0  0  0
  4 29  1  0  0  0  0
  5  6  1  0  0  0  0
  5 30  1  0  0  0  0
  5 31  1  0  0  0  0
  6  7  1  0  0  0  0
  6 22  1  0  0  0  0
  6 32  1  0  0  0  0
  7  8  1  0  0  0  0
  7 33  1  0  0  0  0
  8  9  2  0  0  0  0
  8 10  1  0  0  0  0
 10 11  1  0  0  0  0
 10 34  1  0  0  0  0
 11 20  1  0  0  0  0
 11 12  2  0  0  0  0
 12 13  1  0  0  0  0
 12 35  1  0  0  0  0
 13 14  1  0  0  0  0
 13 18  2  0  0  0  0
 14 15  1  0  0  0  0
 14 16  1  0  0  0  0
 14 17  1  0  0  0  0
 18 19  1  0  0  0  0
 18 36  1  0  0  0  0
 19 20  1  0  0  0  0
 20 21  2  0  0  0  0
 22 37  1  0  0  0  0
 22 38  1  0  0  0  0
M  CHG  1   2   1
M  CHG  1  19  -1
M  END
> <s_m_source_file>
AV-unprocessed.smi

> <i_m_source_file_index>
1748

> <i_lp_mmshare_version>
43012

> <i_f3d_flags>
0

> <s_epik_input>
W0NIM11OMVtDSDJdW0NIMl1bQ0gyXVtDQEhdKFtDSDJdMSlbTkhdQyg9TylbTkhdYzJbY0hdYyhDKEYpKEYpRilbY0hdW25IXWMyPU8=

> <s_epik_cmdline>
J2VwaWtfcHl0aG9uJywgJy1waCcsICc3LjAnLCAnLXRuJywgJzgnLCAnLW1hJywgJzIwMCcsICctbWV0YWxfYmluZGluZycsICctaW1hZScsICc8aW5maWxlLm1hZT4nLCAnLW9tYWUnLCAnPG91dGZpbGUubWFlPic=

> <r_lp_tautomer_probability>
1

> <r_epik_Ionization_Penalty>
3.00907

> <r_epik_Ionization_Penalty_Charging>
0.148702

> <r_epik_Ionization_Penalty_Neutral>
2.86036

> <r_epik_State_Penalty>
2.85557

> <r_epik_Charging_Adjusted_Penalty>
3.00428

> <i_epik_Tot_Q>
0

> <i_epik_Tot_abs_Q>
2

> <r_epik_Metal_State_Penalty>
0.443779

> <b_epik_Metal_Only>
1

> <s_lp_Force_Field>
OPLS_2005

> <r_lp_Energy>
26.5131

> <b_lp_Chiralities_Consistent>
1

> <s_lp_Variant>
AV-unprocessed.smi:1748-8

> <Gold.Version>
5.8.1

> <Gold.Id.Protein>
6NUR|6NUR_protein|mol2

> <Gold.PLP.Fitness>
41.4833

> <Gold.PLP.PLP>
-34.6085

> <Gold.PLP.part.hbond>
-2.0000

> <Gold.PLP.part.metal>
0.0000

> <Gold.PLP.part.buried>
-0.1922

> <Gold.PLP.part.nonpolar>
-32.6441

> <Gold.PLP.part.repulsive>
0.1952

> <Gold.PLP.ligand.clash>
0.0000

> <Gold.PLP.ligand.torsion>
1.0650

> <Gold.PLP.Chemscore.Hbond>
3.0000

> <Gold.PLP.Chemscore.CHOScore>
0.0000

> <Gold.PLP.Chemscore.Metal>
0.0000

> <Gold.Chemscore.Hbonds>
donor molecule, donor type, donor heavy atom, donor atom, acceptor molecule, acceptor atom, score
      L1  H     2    39       P1  7948  2.00
      P1  H  7997  8009       L1    21  1.00

> <Gold.PLP.Chemscore.Internal.Correction>
0.0048

> <Gold.Rescore>
     Score         DG    S(hbond)    S(metal)    S(lipo)     H(rot)  DE(clash)    DE(int)     intcor
     11.73     -17.11       1.77        0.00      70.76       1.00       0.43       4.96       ----

> <Gold.Chemscore.Fitness>
11.7253

> <Gold.Chemscore.DG>
-17.1131

> <Gold.Chemscore.ZeroCoef>
-5.4800

> <Gold.Chemscore.Hbond>
1.7705

> <Gold.Chemscore.Metal>
0.0000

> <Gold.Chemscore.Lipo>
70.7650

> <Gold.Chemscore.Internal_Hbond>
0.0000

> <Gold.Chemscore.DEClash>
0.4263

> <Gold.Chemscore.DEInternal>
4.9615

> <Gold.Chemscore.Rot>
1.0000

> <Gold.Chemscore.Internal.Correction>
   9.000000E+99

> <Gold.Chemscore.Hbonds>
donor molecule, donor type, donor heavy atom, donor atom, acceptor molecule, acceptor atom, score
      L1  H     2    39       P1  7948  1.00
      P1  H  7997  8009       L1    21  0.37

> <Gold.Chemscore.Hbond.Weighted>
-5.9136

> <Gold.Chemscore.Metal.Weighted>
-0.0000

> <Gold.Chemscore.Lipo.Weighted>
-8.2795

> <Gold.Chemscore.Internal_Hbond.Weighted>
0.0000

> <Gold.Chemscore.DEClash.Weighted>
0.4263

> <Gold.Chemscore.DEInternal.Weighted>
4.9615

> <Gold.Chemscore.Rot.Weighted>
2.5600

> <Gold.Chemscore.Internal.Correction.Weighted>
   9.000000E+99

> <Gold.Protein.RotatedTorsions>
[ 6907 6896 6895 6894 ] final  -53.34 input  -60.11 | X-H torsion
[ 7974 7965 7964 7962 ] final   35.50 input  175.53 | X-H torsion
[ 8008 7997 7996 7995 ] final  176.88 input   59.86 | X-H torsion
[ 10167 10162 10161 10158 ] final  103.56 input  -65.29 | X-H torsion
[ 10718 10713 10712 10709 ] final -115.23 input   66.30 | X-H torsion
[ 10763 10752 10751 10750 ] final  113.85 input  -60.55 | X-H torsion
[ 11005 11000 10999 10996 ] final  -61.97 input  -57.11 | X-H torsion

> <Gold.Protein.ActiveResidues>
 VAL166  LYS551  ARG553  GLY616  TRP617  ASP618  TYR619  PRO620  LYS621  CYS622 
 ASP623  PHE694  ASN695  SER759  ASP760  ASP761  ALA762  ILE779  LEU786  VAL792 
 PHE793  MET794  SER795  GLU796  ALA797  LYS798  CYS799  TRP800  GLU811  SER814 

> <Gold.Protein.RotatedAtoms>
  150.8436  134.7737  159.6951 H   0  0  0  0  0  0  0  0  0  0  0  0  # atno 6907 bound_to 6896
  152.4518  134.5374  159.9839 H   0  0  0  0  0  0  0  0  0  0  0  0  # atno 6908 bound_to 6896
  151.5509  133.3380  159.2988 H   0  0  0  0  0  0  0  0  0  0  0  0  # atno 6909 bound_to 6896
  146.1278  139.6134  142.9247 H   0  0  0  0  0  0  0  0  0  0  0  0  # atno 7974 bound_to 7965
  156.0717  140.1372  156.9820 H   0  0  0  0  0  0  0  0  0  0  0  0  # atno 8008 bound_to 7997
  154.4535  140.0970  156.6741 H   0  0  0  0  0  0  0  0  0  0  0  0  # atno 8009 bound_to 7997
  155.5217  140.3456  155.4410 H   0  0  0  0  0  0  0  0  0  0  0  0  # atno 8010 bound_to 7997
  139.7252  144.7049  151.0809 H   0  0  0  0  0  0  0  0  0  0  0  0  # atno 10167 bound_to 10162
  156.0882  130.6070  150.8879 H   0  0  0  0  0  0  0  0  0  0  0  0  # atno 10718 bound_to 10713
  153.4986  135.3643  155.2528 H   0  0  0  0  0  0  0  0  0  0  0  0  # atno 10763 bound_to 10752
  154.8749  135.3994  154.3505 H   0  0  0  0  0  0  0  0  0  0  0  0  # atno 10764 bound_to 10752
  153.4137  135.7078  153.6407 H   0  0  0  0  0  0  0  0  0  0  0  0  # atno 10765 bound_to 10752
  141.1343  133.6635  156.5457 H   0  0  0  0  0  0  0  0  0  0  0  0  # atno 11005 bound_to 11000
  145.5326  141.0426  143.2374 LP  0  0  0  0  0  0  0  0  0  0  0  0  # atno 17320 bound_to 7965
  144.7660  139.6844  143.7214 LP  0  0  0  0  0  0  0  0  0  0  0  0  # atno 17321 bound_to 7965
  140.7761  143.5114  150.9648 LP  0  0  0  0  0  0  0  0  0  0  0  0  # atno 17342 bound_to 10162
  139.8802  143.7082  152.3158 LP  0  0  0  0  0  0  0  0  0  0  0  0  # atno 17343 bound_to 10162
  157.6023  131.0940  150.8939 LP  0  0  0  0  0  0  0  0  0  0  0  0  # atno 17370 bound_to 10713
  156.9093  130.5275  149.5280 LP  0  0  0  0  0  0  0  0  0  0  0  0  # atno 17371 bound_to 10713
  140.4104  134.7277  157.4832 LP  0  0  0  0  0  0  0  0  0  0  0  0  # atno 17394 bound_to 11000
  140.0431  134.6238  155.8955 LP  0  0  0  0  0  0  0  0  0  0  0  0  # atno 17395 bound_to 11000

$$$$
