AV-unprocessed.smi:1493|AV-procd|sdf|6049|dock1
  -GOLD-   22720 6163D 1   1.00000     0.00000
 Structure written by MMmdl.
 33 33  0  0  0  0  0  0  0  0  2 V2000
  147.8234  142.0030  154.4176 C   0  0  0  0  0  0  0  0  0  0  0  0
  147.8374  140.5514  153.9264 C   0  0  0  0  0  0  0  0  0  0  0  0
  148.5335  139.6006  154.9159 C   0  0  0  0  0  0  0  0  0  0  0  0
  147.7124  139.3159  156.1885 C   0  0  1  0  0  0  0  0  0  0  0  0
  146.3191  138.7657  155.8532 C   0  0  0  0  0  0  0  0  0  0  0  0
  148.4129  138.3621  157.0466 N   0  0  0  0  0  0  0  0  0  0  0  0
  147.9786  137.8911  158.2263 C   0  0  0  0  0  0  0  0  0  0  0  0
  146.9042  138.2198  158.7320 O   0  0  0  0  0  0  0  0  0  0  0  0
  148.9222  136.9003  158.9266 C   0  0  0  0  0  0  0  0  0  0  0  0
  148.3414  136.2448  160.1072 N   0  0  0  0  0  0  0  0  0  0  0  0
  148.0270  137.1650  161.1967 N   0  5  0  0  0  0  0  0  0  0  0  0
  147.4652  136.6771  162.3344 C   0  0  0  0  0  0  0  0  0  0  0  0
  147.1584  137.3918  163.2857 O   0  0  0  0  0  0  0  0  0  0  0  0
  147.2259  135.2461  162.4203 C   0  0  0  0  0  0  0  0  0  0  0  0
  147.5458  134.4172  161.4069 C   0  0  0  0  0  0  0  0  0  0  0  0
  148.1434  134.8969  160.1666 C   0  0  0  0  0  0  0  0  0  0  0  0
  148.4439  134.1446  159.2394 O   0  0  0  0  0  0  0  0  0  0  0  0
  147.3232  142.6510  153.6977 H   0  0  0  0  0  0  0  0  0  0  0  0
  148.8362  142.3814  154.5579 H   0  0  0  0  0  0  0  0  0  0  0  0
  147.2966  142.0922  155.3679 H   0  0  0  0  0  0  0  0  0  0  0  0
  146.8104  140.2273  153.7549 H   0  0  0  0  0  0  0  0  0  0  0  0
  148.3394  140.5048  152.9592 H   0  0  0  0  0  0  0  0  0  0  0  0
  148.7362  138.6558  154.4098 H   0  0  0  0  0  0  0  0  0  0  0  0
  149.5060  140.0113  155.1913 H   0  0  0  0  0  0  0  0  0  0  0  0
  147.5721  140.2630  156.7120 H   0  0  0  0  0  0  0  0  0  0  0  0
  145.7633  139.4629  155.2259 H   0  0  0  0  0  0  0  0  0  0  0  0
  145.7342  138.6007  156.7588 H   0  0  0  0  0  0  0  0  0  0  0  0
  146.3832  137.8167  155.3196 H   0  0  0  0  0  0  0  0  0  0  0  0
  149.3098  138.0346  156.7186 H   0  0  0  0  0  0  0  0  0  0  0  0
  149.2384  136.1461  158.2039 H   0  0  0  0  0  0  0  0  0  0  0  0
  149.8329  137.4343  159.2046 H   0  0  0  0  0  0  0  0  0  0  0  0
  146.7837  134.8389  163.3176 H   0  0  0  0  0  0  0  0  0  0  0  0
  147.3513  133.3607  161.5144 H   0  0  0  0  0  0  0  0  0  0  0  0
  1  2  1  0  0  0  0
  1 18  1  0  0  0  0
  1 19  1  0  0  0  0
  1 20  1  0  0  0  0
  2  3  1  0  0  0  0
  2 21  1  0  0  0  0
  2 22  1  0  0  0  0
  3  4  1  0  0  0  0
  3 23  1  0  0  0  0
  3 24  1  0  0  0  0
  4  5  1  0  0  0  0
  4  6  1  0  0  0  0
  4 25  1  0  0  0  0
  5 26  1  0  0  0  0
  5 27  1  0  0  0  0
  5 28  1  0  0  0  0
  6  7  1  0  0  0  0
  6 29  1  0  0  0  0
  7  8  2  0  0  0  0
  7  9  1  0  0  0  0
  9 30  1  0  0  0  0
  9 31  1  0  0  0  0
  9 10  1  0  0  0  0
 10 11  1  0  0  0  0
 10 16  1  0  0  0  0
 11 12  1  0  0  0  0
 12 13  2  0  0  0  0
 12 14  1  0  0  0  0
 14 32  1  0  0  0  0
 14 15  2  0  0  0  0
 15 33  1  0  0  0  0
 15 16  1  0  0  0  0
 16 17  2  0  0  0  0
M  CHG  1  11  -1
M  END
> <s_m_source_file>
AV-unprocessed.smi

> <i_m_source_file_index>
1493

> <i_lp_mmshare_version>
43012

> <i_f3d_flags>
0

> <s_epik_input>
W0NIM11bQ0gyXVtDSDJdW0NASF0oW0NIM10pW05IXUMoPU8pW0NIMl1uMVtuSF1jKD1PKVtjSF1bY0hdYzE9Tw==

> <s_epik_cmdline>
J2VwaWtfcHl0aG9uJywgJy1waCcsICc3LjAnLCAnLXRuJywgJzgnLCAnLW1hJywgJzIwMCcsICctbWV0YWxfYmluZGluZycsICctaW1hZScsICc8aW5maWxlLm1hZT4nLCAnLW9tYWUnLCAnPG91dGZpbGUubWFlPic=

> <r_lp_tautomer_probability>
1

> <r_epik_Ionization_Penalty>
0.0986298

> <r_epik_Ionization_Penalty_Charging>
0.0986298

> <r_epik_Ionization_Penalty_Neutral>
1.93017e-08

> <r_epik_State_Penalty>
0.0347731

> <r_epik_Charging_Adjusted_Penalty>
0.133403

> <i_epik_Tot_Q>
-1

> <i_epik_Tot_abs_Q>
1

> <r_epik_Metal_State_Penalty>
0.0347731

> <b_epik_Metal_Only>
0

> <s_lp_Force_Field>
OPLS_2005

> <r_lp_Energy>
19.264

> <b_lp_Chiralities_Consistent>
1

> <s_lp_Variant>
AV-unprocessed.smi:1493-2

> <Gold.Version>
5.8.1

> <Gold.Id.Protein>
6NUR|6NUR_protein|mol2

> <Gold.PLP.Fitness>
37.6363

> <Gold.PLP.PLP>
-24.2133

> <Gold.PLP.part.hbond>
-3.7628

> <Gold.PLP.part.metal>
0.0000

> <Gold.PLP.part.buried>
-2.5116

> <Gold.PLP.part.nonpolar>
-19.0482

> <Gold.PLP.part.repulsive>
0.0328

> <Gold.PLP.ligand.clash>
0.0000

> <Gold.PLP.ligand.torsion>
0.1427

> <Gold.PLP.Chemscore.Hbond>
4.5520

> <Gold.PLP.Chemscore.CHOScore>
0.0000

> <Gold.PLP.Chemscore.Metal>
0.0000

> <Gold.Chemscore.Hbonds>
donor molecule, donor type, donor heavy atom, donor atom, acceptor molecule, acceptor atom, score
      P1  H  6896  6909       L1    17  0.59
      P1  H  6931  6943       L1    11  1.80
      P1  H  6934  6947       L1    11  1.33

> <Gold.PLP.Chemscore.Internal.Correction>
0.0523

> <Gold.Rescore>
     Score         DG    S(hbond)    S(metal)    S(lipo)     H(rot)  DE(clash)    DE(int)     intcor
      8.09     -11.11       1.96        0.00      38.86       2.14       0.33       2.69       ----

> <Gold.Chemscore.Fitness>
8.0925

> <Gold.Chemscore.DG>
-11.1068

> <Gold.Chemscore.ZeroCoef>
-5.4800

> <Gold.Chemscore.Hbond>
1.9616

> <Gold.Chemscore.Metal>
0.0000

> <Gold.Chemscore.Lipo>
38.8586

> <Gold.Chemscore.Internal_Hbond>
0.0000

> <Gold.Chemscore.DEClash>
0.3270

> <Gold.Chemscore.DEInternal>
2.6874

> <Gold.Chemscore.Rot>
2.1372

> <Gold.Chemscore.Internal.Correction>
   9.000000E+99

> <Gold.Chemscore.Hbonds>
donor molecule, donor type, donor heavy atom, donor atom, acceptor molecule, acceptor atom, score
      P1  H  6896  6909       L1    17  0.13
      P1  H  6931  6943       L1    11  0.17
      P1  H  6934  6947       L1    11  0.31

> <Gold.Chemscore.Hbond.Weighted>
-6.5517

> <Gold.Chemscore.Metal.Weighted>
-0.0000

> <Gold.Chemscore.Lipo.Weighted>
-4.5465

> <Gold.Chemscore.Internal_Hbond.Weighted>
0.0000

> <Gold.Chemscore.DEClash.Weighted>
0.3270

> <Gold.Chemscore.DEInternal.Weighted>
2.6874

> <Gold.Chemscore.Rot.Weighted>
5.4713

> <Gold.Chemscore.Internal.Correction.Weighted>
   9.000000E+99

> <Gold.Protein.RotatedTorsions>
[ 6907 6896 6895 6894 ] final   28.69 input  -60.11 | X-H torsion
[ 7974 7965 7964 7962 ] final   40.12 input  175.53 | X-H torsion
[ 8008 7997 7996 7995 ] final   31.87 input   59.86 | X-H torsion
[ 10167 10162 10161 10158 ] final  -12.43 input  -65.29 | X-H torsion
[ 10718 10713 10712 10709 ] final   12.78 input   66.30 | X-H torsion
[ 10763 10752 10751 10750 ] final  -89.56 input  -60.55 | X-H torsion
[ 11005 11000 10999 10996 ] final -123.36 input  -57.11 | X-H torsion

> <Gold.Protein.ActiveResidues>
 VAL166  LYS551  ARG553  GLY616  TRP617  ASP618  TYR619  PRO620  LYS621  CYS622 
 ASP623  PHE694  ASN695  SER759  ASP760  ASP761  ALA762  ILE779  LEU786  VAL792 
 PHE793  MET794  SER795  GLU796  ALA797  LYS798  CYS799  TRP800  GLU811  SER814 

> <Gold.Protein.RotatedAtoms>
  152.0206  134.9825  160.0570 H   0  0  0  0  0  0  0  0  0  0  0  0  # atno 6907 bound_to 6896
  152.1341  133.4420  159.4743 H   0  0  0  0  0  0  0  0  0  0  0  0  # atno 6908 bound_to 6896
  150.6859  134.2303  159.4475 H   0  0  0  0  0  0  0  0  0  0  0  0  # atno 6909 bound_to 6896
  146.0930  139.5571  142.9463 H   0  0  0  0  0  0  0  0  0  0  0  0  # atno 7974 bound_to 7965
  155.1134  140.3241  155.4516 H   0  0  0  0  0  0  0  0  0  0  0  0  # atno 8008 bound_to 7997
  156.2684  140.2040  156.6205 H   0  0  0  0  0  0  0  0  0  0  0  0  # atno 8009 bound_to 7997
  154.6739  140.0533  157.0181 H   0  0  0  0  0  0  0  0  0  0  0  0  # atno 8010 bound_to 7997
  140.7161  143.5533  150.9276 H   0  0  0  0  0  0  0  0  0  0  0  0  # atno 10167 bound_to 10162
  157.0152  130.6133  149.5713 H   0  0  0  0  0  0  0  0  0  0  0  0  # atno 10718 bound_to 10713
  154.6565  135.5336  153.7965 H   0  0  0  0  0  0  0  0  0  0  0  0  # atno 10763 bound_to 10752
  153.0416  135.6495  154.0937 H   0  0  0  0  0  0  0  0  0  0  0  0  # atno 10764 bound_to 10752
  154.0849  135.2944  155.3263 H   0  0  0  0  0  0  0  0  0  0  0  0  # atno 10765 bound_to 10752
  140.9925  134.0519  157.3637 H   0  0  0  0  0  0  0  0  0  0  0  0  # atno 11005 bound_to 11000
  145.6002  141.0356  143.2022 LP  0  0  0  0  0  0  0  0  0  0  0  0  # atno 17320 bound_to 7965
  144.7374  139.7545  143.7324 LP  0  0  0  0  0  0  0  0  0  0  0  0  # atno 17321 bound_to 7965
  139.9258  143.6552  152.3087 LP  0  0  0  0  0  0  0  0  0  0  0  0  # atno 17342 bound_to 10162
  139.6985  144.7638  151.1315 LP  0  0  0  0  0  0  0  0  0  0  0  0  # atno 17343 bound_to 10162
  156.0122  130.5214  150.8023 LP  0  0  0  0  0  0  0  0  0  0  0  0  # atno 17370 bound_to 10713
  157.5291  131.0935  150.9979 LP  0  0  0  0  0  0  0  0  0  0  0  0  # atno 17371 bound_to 10713
  139.8999  135.0160  156.7216 LP  0  0  0  0  0  0  0  0  0  0  0  0  # atno 17394 bound_to 11000
  140.7018  133.9300  155.8029 LP  0  0  0  0  0  0  0  0  0  0  0  0  # atno 17395 bound_to 11000

$$$$
