AV-unprocessed.smi:2706|AV-procd|sdf|10452|dock8
  -GOLD-   2272014493D 1   1.00000     0.00000
 Structure written by MMmdl.
 43 46  0  0  0  0  0  0  0  0  1 V2000
  146.8902  131.3199  161.3646 C   0  0  0  0  0  0  0  0  0  0  0  0
  147.4683  132.4968  160.7239 N   0  0  0  0  0  0  0  0  0  0  0  0
  148.1509  132.2266  159.4637 C   0  0  0  0  0  0  0  0  0  0  0  0
  147.4255  133.7797  161.2728 C   0  0  0  0  0  0  0  0  0  0  0  0
  146.8299  134.0078  162.4649 C   0  0  0  0  0  0  0  0  0  0  0  0
  146.8028  135.3451  163.0206 C   0  0  0  0  0  0  0  0  0  0  0  0
  147.3560  136.3846  162.3657 C   0  0  0  0  0  0  0  0  0  0  0  0
  147.9913  136.1962  161.0750 C   0  0  0  0  0  0  0  0  0  0  0  0
  148.5321  137.2083  160.4567 N   0  0  0  0  0  0  0  0  0  0  0  0
  149.0599  137.1254  159.1682 C   0  0  0  0  0  0  0  0  0  0  0  0
  149.5172  136.0805  158.7064 O   0  0  0  0  0  0  0  0  0  0  0  0
  149.1474  138.2870  158.4873 N   0  0  0  0  0  0  0  0  0  0  0  0
  149.6751  138.4497  157.1715 C   0  0  2  0  0  0  0  0  0  0  0  0
  151.1081  138.0180  156.9412 C   0  0  1  0  0  0  0  0  0  0  0  0
  151.8214  137.8808  155.5981 C   0  0  1  0  0  0  0  0  0  0  0  0
  150.8347  138.0337  154.4215 C   0  0  0  0  0  0  0  0  0  0  0  0
  150.4801  139.5365  154.4769 C   0  0  0  0  0  0  0  0  0  0  0  0
  151.3124  140.0307  155.6780 C   0  0  2  0  0  0  0  0  0  0  0  0
  152.5812  139.2005  155.5088 C   0  0  0  0  0  0  0  0  0  0  0  0
  150.7572  139.4952  156.9957 C   0  0  1  0  0  0  0  0  0  0  0  0
  147.9989  134.8676  160.6081 N   0  0  0  0  0  0  0  0  0  0  0  0
  145.8017  131.3807  161.3545 H   0  0  0  0  0  0  0  0  0  0  0  0
  147.2221  131.2475  162.4006 H   0  0  0  0  0  0  0  0  0  0  0  0
  147.1804  130.3949  160.8656 H   0  0  0  0  0  0  0  0  0  0  0  0
  149.2255  132.1446  159.6280 H   0  0  0  0  0  0  0  0  0  0  0  0
  147.9744  133.0280  158.7466 H   0  0  0  0  0  0  0  0  0  0  0  0
  147.8034  131.3013  159.0033 H   0  0  0  0  0  0  0  0  0  0  0  0
  146.3642  133.2124  163.0272 H   0  0  0  0  0  0  0  0  0  0  0  0
  146.3342  135.5103  163.9794 H   0  0  0  0  0  0  0  0  0  0  0  0
  147.3062  137.3582  162.8320 H   0  0  0  0  0  0  0  0  0  0  0  0
  148.8075  139.1217  158.9428 H   0  0  0  0  0  0  0  0  0  0  0  0
  148.9690  138.3208  156.3549 H   0  0  0  0  0  0  0  0  0  0  0  0
  151.6653  137.6349  157.7948 H   0  0  0  0  0  0  0  0  0  0  0  0
  152.4439  136.9870  155.5495 H   0  0  0  0  0  0  0  0  0  0  0  0
  151.3219  137.7925  153.4758 H   0  0  0  0  0  0  0  0  0  0  0  0
  149.9641  137.3841  154.5162 H   0  0  0  0  0  0  0  0  0  0  0  0
  150.7941  140.0352  153.5591 H   0  0  0  0  0  0  0  0  0  0  0  0
  149.4127  139.7215  154.6014 H   0  0  0  0  0  0  0  0  0  0  0  0
  151.4675  141.1097  155.7030 H   0  0  0  0  0  0  0  0  0  0  0  0
  153.2985  139.3411  156.3194 H   0  0  0  0  0  0  0  0  0  0  0  0
  153.0849  139.3551  154.5527 H   0  0  0  0  0  0  0  0  0  0  0  0
  151.1032  140.0233  157.8823 H   0  0  0  0  0  0  0  0  0  0  0  0
  148.4453  134.6464  159.7299 H   0  0  0  0  0  0  0  0  0  0  0  0
  1  2  1  0  0  0  0
  1 22  1  0  0  0  0
  1 23  1  0  0  0  0
  1 24  1  0  0  0  0
  2  3  1  0  0  0  0
  2  4  1  0  0  0  0
  3 25  1  0  0  0  0
  3 26  1  0  0  0  0
  3 27  1  0  0  0  0
  4 21  1  0  0  0  0
  4  5  2  0  0  0  0
  5  6  1  0  0  0  0
  5 28  1  0  0  0  0
  6  7  2  0  0  0  0
  6 29  1  0  0  0  0
  7  8  1  0  0  0  0
  7 30  1  0  0  0  0
  8  9  2  0  0  0  0
  8 21  1  0  0  0  0
  9 10  1  0  0  0  0
 10 11  2  0  0  0  0
 10 12  1  0  0  0  0
 12 13  1  0  0  0  0
 12 31  1  0  0  0  0
 13 20  1  0  0  0  0
 13 14  1  0  0  0  0
 13 32  1  0  0  0  0
 14 20  1  0  0  0  0
 14 15  1  0  0  0  0
 14 33  1  0  0  0  0
 15 19  1  0  0  0  0
 15 16  1  0  0  0  0
 15 34  1  0  0  0  0
 16 17  1  0  0  0  0
 16 35  1  0  0  0  0
 16 36  1  0  0  0  0
 17 18  1  0  0  0  0
 17 37  1  0  0  0  0
 17 38  1  0  0  0  0
 18 19  1  0  0  0  0
 18 20  1  0  0  0  0
 18 39  1  0  0  0  0
 19 40  1  0  0  0  0
 19 41  1  0  0  0  0
 20 42  1  0  0  0  0
 21 43  1  0  0  0  0
M  END
> <s_m_source_file>
AV-unprocessed.smi

> <i_m_source_file_index>
2706

> <i_lp_mmshare_version>
43012

> <i_f3d_flags>
0

> <s_epik_input>
W0NIM11OKFtDSDNdKWMxW2NIXVtjSF1bY0hdYyhuMSlbTkhdQyg9TylbTkhdW0NASF0yW0NAQEhdM1tDQEBIXShbQ0gyXTQpW0NIMl1bQ0gyXVtDQEBIXTRbQ0BIXTIz

> <s_epik_cmdline>
J2VwaWtfcHl0aG9uJywgJy1waCcsICc3LjAnLCAnLXRuJywgJzgnLCAnLW1hJywgJzIwMCcsICctbWV0YWxfYmluZGluZycsICctaW1hZScsICc8aW5maWxlLm1hZT4nLCAnLW9tYWUnLCAnPG91dGZpbGUubWFlPic=

> <r_lp_tautomer_probability>
0.999994

> <r_epik_Ionization_Penalty>
2.07242

> <r_epik_Ionization_Penalty_Charging>
2.07242

> <r_epik_Ionization_Penalty_Neutral>
9.73808e-07

> <r_epik_State_Penalty>
3.96009

> <r_epik_Charging_Adjusted_Penalty>
6.03251

> <i_epik_Tot_Q>
0

> <i_epik_Tot_abs_Q>
0

> <r_epik_Metal_State_Penalty>
3.98849

> <b_epik_Metal_Only>
1

> <s_lp_Force_Field>
OPLS_2005

> <r_lp_Energy>
91.2091

> <b_lp_Chiralities_Consistent>
1

> <s_lp_Variant>
AV-unprocessed.smi:2706-9

> <Gold.Version>
5.8.1

> <Gold.Id.Protein>
6NUR|6NUR_protein|mol2

> <Gold.PLP.Fitness>
44.6874

> <Gold.PLP.PLP>
-39.3568

> <Gold.PLP.part.hbond>
-3.0000

> <Gold.PLP.part.metal>
0.0000

> <Gold.PLP.part.buried>
-2.5571

> <Gold.PLP.part.nonpolar>
-34.4770

> <Gold.PLP.part.repulsive>
0.2481

> <Gold.PLP.ligand.clash>
0.0000

> <Gold.PLP.ligand.torsion>
0.1639

> <Gold.PLP.Chemscore.Hbond>
1.8721

> <Gold.PLP.Chemscore.CHOScore>
0.0000

> <Gold.PLP.Chemscore.Metal>
0.0000

> <Gold.Chemscore.Hbonds>
donor molecule, donor type, donor heavy atom, donor atom, acceptor molecule, acceptor atom, score
      P1  H  6896  6907       L1    11  0.93
      P1  H  6931  6943       L1     9  0.70
      P1  H  6934  6947       L1     9  0.18

> <Gold.PLP.Chemscore.Internal.Correction>
0.0423

> <Gold.Rescore>
     Score         DG    S(hbond)    S(metal)    S(lipo)     H(rot)  DE(clash)    DE(int)     intcor
     17.97     -18.21       1.74        0.00      80.94       1.00       0.03       0.21       ----

> <Gold.Chemscore.Fitness>
17.9652

> <Gold.Chemscore.DG>
-18.2076

> <Gold.Chemscore.ZeroCoef>
-5.4800

> <Gold.Chemscore.Hbond>
1.7418

> <Gold.Chemscore.Metal>
0.0000

> <Gold.Chemscore.Lipo>
80.9403

> <Gold.Chemscore.Internal_Hbond>
0.0000

> <Gold.Chemscore.DEClash>
0.0310

> <Gold.Chemscore.DEInternal>
0.2114

> <Gold.Chemscore.Rot>
1.0000

> <Gold.Chemscore.Internal.Correction>
   9.000000E+99

> <Gold.Chemscore.Hbonds>
donor molecule, donor type, donor heavy atom, donor atom, acceptor molecule, acceptor atom, score
      P1  H  6896  6907       L1    11  0.88
      P1  H  6931  6943       L1     9  0.21
      P1  H  6934  6947       L1     9  0.10

> <Gold.Chemscore.Hbond.Weighted>
-5.8176

> <Gold.Chemscore.Metal.Weighted>
-0.0000

> <Gold.Chemscore.Lipo.Weighted>
-9.4700

> <Gold.Chemscore.Internal_Hbond.Weighted>
0.0000

> <Gold.Chemscore.DEClash.Weighted>
0.0310

> <Gold.Chemscore.DEInternal.Weighted>
0.2114

> <Gold.Chemscore.Rot.Weighted>
2.5600

> <Gold.Chemscore.Internal.Correction.Weighted>
   9.000000E+99

> <Gold.Protein.RotatedTorsions>
[ 6907 6896 6895 6894 ] final  -68.41 input  -60.11 | X-H torsion
[ 7974 7965 7964 7962 ] final -158.61 input  175.53 | X-H torsion
[ 8008 7997 7996 7995 ] final  -58.40 input   59.86 | X-H torsion
[ 10167 10162 10161 10158 ] final   92.16 input  -65.29 | X-H torsion
[ 10718 10713 10712 10709 ] final -163.43 input   66.30 | X-H torsion
[ 10763 10752 10751 10750 ] final  -67.87 input  -60.55 | X-H torsion
[ 11005 11000 10999 10996 ] final   59.22 input  -57.11 | X-H torsion

> <Gold.Protein.ActiveResidues>
 VAL166  LYS551  ARG553  GLY616  TRP617  ASP618  TYR619  PRO620  LYS621  CYS622 
 ASP623  PHE694  ASN695  SER759  ASP760  ASP761  ALA762  ILE779  LEU786  VAL792 
 PHE793  MET794  SER795  GLU796  ALA797  LYS798  CYS799  TRP800  GLU811  SER814 

> <Gold.Protein.RotatedAtoms>
  150.7357  134.5743  159.5905 H   0  0  0  0  0  0  0  0  0  0  0  0  # atno 6907 bound_to 6896
  152.3173  134.7420  160.0331 H   0  0  0  0  0  0  0  0  0  0  0  0  # atno 6908 bound_to 6896
  151.7948  133.3327  159.3546 H   0  0  0  0  0  0  0  0  0  0  0  0  # atno 6909 bound_to 6896
  144.7498  140.3802  143.6056 H   0  0  0  0  0  0  0  0  0  0  0  0  # atno 7974 bound_to 7965
  154.4307  140.1085  156.5951 H   0  0  0  0  0  0  0  0  0  0  0  0  # atno 8008 bound_to 7997
  155.5970  140.3493  155.4564 H   0  0  0  0  0  0  0  0  0  0  0  0  # atno 8009 bound_to 7997
  156.0202  140.1238  157.0354 H   0  0  0  0  0  0  0  0  0  0  0  0  # atno 8010 bound_to 7997
  139.8304  144.6690  150.9407 H   0  0  0  0  0  0  0  0  0  0  0  0  # atno 10167 bound_to 10162
  156.6246  130.8904  151.2965 H   0  0  0  0  0  0  0  0  0  0  0  0  # atno 10718 bound_to 10713
  154.3808  135.6074  153.5789 H   0  0  0  0  0  0  0  0  0  0  0  0  # atno 10763 bound_to 10752
  152.9788  135.5860  154.4413 H   0  0  0  0  0  0  0  0  0  0  0  0  # atno 10764 bound_to 10752
  154.4181  135.2845  155.1971 H   0  0  0  0  0  0  0  0  0  0  0  0  # atno 10765 bound_to 10752
  140.0319  134.5999  155.9495 H   0  0  0  0  0  0  0  0  0  0  0  0  # atno 11005 bound_to 11000
  145.6985  139.1655  143.2606 LP  0  0  0  0  0  0  0  0  0  0  0  0  # atno 17320 bound_to 7965
  146.1432  140.7028  142.9357 LP  0  0  0  0  0  0  0  0  0  0  0  0  # atno 17321 bound_to 7965
  140.7807  143.4006  151.1155 LP  0  0  0  0  0  0  0  0  0  0  0  0  # atno 17342 bound_to 10162
  139.7660  143.8564  152.3111 LP  0  0  0  0  0  0  0  0  0  0  0  0  # atno 17343 bound_to 10162
  157.7218  130.9568  150.1469 LP  0  0  0  0  0  0  0  0  0  0  0  0  # atno 17370 bound_to 10713
  156.2284  130.3680  149.8473 LP  0  0  0  0  0  0  0  0  0  0  0  0  # atno 17371 bound_to 10713
  141.1836  133.6551  156.5123 LP  0  0  0  0  0  0  0  0  0  0  0  0  # atno 17394 bound_to 11000
  140.4211  134.7187  157.4890 LP  0  0  0  0  0  0  0  0  0  0  0  0  # atno 17395 bound_to 11000

$$$$
