AV-unprocessed.smi:21|AV-procd|sdf|154|dock8
  -GOLD-   2262015383D 1   1.00000     0.00000
 Structure written by MMmdl.
 61 64  0  0  0  0  0  0  0  0  1 V2000
  152.7765  143.3166  161.7901 C   0  0  0  0  0  0  0  0  0  0  0  0
  151.8892  143.6388  160.7312 O   0  0  0  0  0  0  0  0  0  0  0  0
  152.3631  143.2318  159.4556 C   0  0  2  0  0  0  0  0  0  0  0  0
  151.3206  143.4181  158.3375 C   0  0  0  0  0  0  0  0  0  0  0  0
  151.0905  142.0039  157.7798 C   0  0  1  0  0  0  0  0  0  0  0  0
  150.7247  141.9836  156.2789 C   0  0  0  0  0  0  0  0  0  0  0  0
  149.9225  140.8209  155.8983 N   0  0  0  0  0  0  0  0  0  0  0  0
  148.6007  140.6736  156.5057 C   0  0  0  0  0  0  0  0  0  0  0  0
  150.5082  139.7302  155.3203 C   0  0  0  0  0  0  0  0  0  0  0  0
  151.7148  139.8937  154.7113 N   0  0  0  0  0  0  0  0  0  0  0  0
  152.3329  138.8699  154.1182 C   0  0  0  0  0  0  0  0  0  0  0  0
  151.9335  137.6032  154.0162 N   0  0  0  0  0  0  0  0  0  0  0  0
  150.7302  137.4178  154.6279 C   0  0  0  0  0  0  0  0  0  0  0  0
  149.9556  138.4106  155.2987 C   0  0  0  0  0  0  0  0  0  0  0  0
  148.7969  137.8226  155.7989 N   0  0  0  0  0  0  0  0  0  0  0  0
  148.8789  136.5710  155.4432 C   0  0  0  0  0  0  0  0  0  0  0  0
  150.0119  136.2404  154.7400 N   0  0  0  0  0  0  0  0  0  0  0  0
  150.3603  134.9261  154.2305 C   0  0  0  0  0  0  0  0  0  0  0  0
  149.4520  133.7849  154.7595 C   0  0  2  0  0  0  0  0  0  0  0  0
  150.2189  132.7906  155.6694 C   0  0  0  0  0  0  0  0  0  0  0  0
  150.8319  133.4432  156.7628 O   0  0  0  0  0  0  0  0  0  0  0  0
  148.7717  133.0436  153.5792 C   0  0  2  0  0  0  0  0  0  0  0  0
  147.6678  133.8208  152.8808 C   0  0  0  0  0  0  0  0  0  0  0  0
  146.9132  132.7180  152.1510 C   0  0  0  0  0  0  0  0  0  0  0  0
  146.9600  131.6001  153.0264 O   0  0  0  0  0  0  0  0  0  0  0  0
  148.0133  131.7670  153.9719 C   0  0  0  0  0  0  0  0  0  0  0  0
  152.2978  141.2672  158.1169 N   0  0  0  0  0  0  0  0  0  0  0  0
  152.1393  139.8203  158.0523 C   0  0  0  0  0  0  0  0  0  0  0  0
  152.6171  141.7225  159.4552 C   0  0  0  0  0  0  0  0  0  0  0  0
  153.2891  143.7498  159.1995 H   0  0  0  0  0  0  0  0  0  0  0  0
  150.2661  141.5684  158.3470 H   0  0  0  0  0  0  0  0  0  0  0  0
  152.3516  143.6511  162.7361 H   0  0  0  0  0  0  0  0  0  0  0  0
  153.7446  143.8034  161.6681 H   0  0  0  0  0  0  0  0  0  0  0  0
  152.9341  142.2394  161.8559 H   0  0  0  0  0  0  0  0  0  0  0  0
  150.3859  143.8504  158.6965 H   0  0  0  0  0  0  0  0  0  0  0  0
  151.7214  144.0842  157.5725 H   0  0  0  0  0  0  0  0  0  0  0  0
  150.1711  142.8919  156.0381 H   0  0  0  0  0  0  0  0  0  0  0  0
  151.6106  142.0333  155.6498 H   0  0  0  0  0  0  0  0  0  0  0  0
  147.8848  140.2831  155.7813 H   0  0  0  0  0  0  0  0  0  0  0  0
  148.2184  141.6311  156.8592 H   0  0  0  0  0  0  0  0  0  0  0  0
  148.6396  139.9939  157.3577 H   0  0  0  0  0  0  0  0  0  0  0  0
  153.2826  139.0998  153.6584 H   0  0  0  0  0  0  0  0  0  0  0  0
  148.1154  135.8485  155.6924 H   0  0  0  0  0  0  0  0  0  0  0  0
  150.3123  134.9823  153.1430 H   0  0  0  0  0  0  0  0  0  0  0  0
  151.4019  134.7216  154.4801 H   0  0  0  0  0  0  0  0  0  0  0  0
  148.6569  134.2382  155.3541 H   0  0  0  0  0  0  0  0  0  0  0  0
  149.5501  132.0445  156.0958 H   0  0  0  0  0  0  0  0  0  0  0  0
  150.9709  132.2441  155.0994 H   0  0  0  0  0  0  0  0  0  0  0  0
  151.1304  132.7887  157.3758 H   0  0  0  0  0  0  0  0  0  0  0  0
  149.5261  132.7830  152.8347 H   0  0  0  0  0  0  0  0  0  0  0  0
  147.0149  134.3012  153.6110 H   0  0  0  0  0  0  0  0  0  0  0  0
  148.0417  134.5852  152.1990 H   0  0  0  0  0  0  0  0  0  0  0  0
  145.8872  132.9978  151.9104 H   0  0  0  0  0  0  0  0  0  0  0  0
  147.4224  132.4580  151.2221 H   0  0  0  0  0  0  0  0  0  0  0  0
  148.6601  130.8896  153.9821 H   0  0  0  0  0  0  0  0  0  0  0  0
  147.5664  131.8658  154.9619 H   0  0  0  0  0  0  0  0  0  0  0  0
  153.0542  139.3201  158.3713 H   0  0  0  0  0  0  0  0  0  0  0  0
  151.9249  139.4946  157.0347 H   0  0  0  0  0  0  0  0  0  0  0  0
  151.3261  139.4817  158.6959 H   0  0  0  0  0  0  0  0  0  0  0  0
  153.6418  141.4736  159.7330 H   0  0  0  0  0  0  0  0  0  0  0  0
  151.9526  141.2428  160.1763 H   0  0  0  0  0  0  0  0  0  0  0  0
  1  2  1  0  0  0  0
  1 32  1  0  0  0  0
  1 33  1  0  0  0  0
  1 34  1  0  0  0  0
  2  3  1  0  0  0  0
  3 30  1  0  0  0  0
  3 29  1  0  0  0  0
  3  4  1  0  0  0  0
  4  5  1  0  0  0  0
  4 35  1  0  0  0  0
  4 36  1  0  0  0  0
  5 31  1  0  0  0  0
  5  6  1  0  0  0  0
  5 27  1  0  0  0  0
  6  7  1  0  0  0  0
  6 37  1  0  0  0  0
  6 38  1  0  0  0  0
  7  8  1  0  0  0  0
  7  9  1  0  0  0  0
  8 39  1  0  0  0  0
  8 40  1  0  0  0  0
  8 41  1  0  0  0  0
  9 14  1  0  0  0  0
  9 10  2  0  0  0  0
 10 11  1  0  0  0  0
 11 12  2  0  0  0  0
 11 42  1  0  0  0  0
 12 13  1  0  0  0  0
 13 17  1  0  0  0  0
 13 14  2  0  0  0  0
 14 15  1  0  0  0  0
 15 16  2  0  0  0  0
 16 17  1  0  0  0  0
 16 43  1  0  0  0  0
 17 18  1  0  0  0  0
 18 19  1  0  0  0  0
 18 44  1  0  0  0  0
 18 45  1  0  0  0  0
 19 20  1  0  0  0  0
 19 22  1  0  0  0  0
 19 46  1  0  0  0  0
 20 21  1  0  0  0  0
 20 47  1  0  0  0  0
 20 48  1  0  0  0  0
 21 49  1  0  0  0  0
 22 26  1  0  0  0  0
 22 23  1  0  0  0  0
 22 50  1  0  0  0  0
 23 24  1  0  0  0  0
 23 51  1  0  0  0  0
 23 52  1  0  0  0  0
 24 25  1  0  0  0  0
 24 53  1  0  0  0  0
 24 54  1  0  0  0  0
 25 26  1  0  0  0  0
 26 55  1  0  0  0  0
 26 56  1  0  0  0  0
 27 28  1  0  0  0  0
 27 29  1  0  0  0  0
 28 57  1  0  0  0  0
 28 58  1  0  0  0  0
 28 59  1  0  0  0  0
 29 60  1  0  0  0  0
 29 61  1  0  0  0  0
M  END
> <s_m_source_file>
AV-unprocessed.smi

> <i_m_source_file_index>
21

> <i_lp_mmshare_version>
43012

> <i_f3d_flags>
0

> <s_epik_input>
W0NIM11PW0NASF0xW0NIMl1bQ0BIXShOKFtDSDNdKVtDSDJdMSlbQ0gyXU4oW0NIM10pYyhuW2NIXW4yKWMoYzIzKW5bY0hdbjNbQ0gyXVtDQEhdKFtDSDJdW09IXSlbQ0BASF00W0NIMl1bQ0gyXU9bQ0gyXTQ=

> <s_epik_cmdline>
J2VwaWtfcHl0aG9uJywgJy1waCcsICc3LjAnLCAnLXRuJywgJzgnLCAnLW1hJywgJzIwMCcsICctbWV0YWxfYmluZGluZycsICctaW1hZScsICc8aW5maWxlLm1hZT4nLCAnLW9tYWUnLCAnPG91dGZpbGUubWFlPic=

> <r_lp_tautomer_probability>
1

> <r_epik_Ionization_Penalty>
2.17574

> <r_epik_Ionization_Penalty_Charging>
0

> <r_epik_Ionization_Penalty_Neutral>
2.17574

> <r_epik_State_Penalty>
2.31336

> <r_epik_Charging_Adjusted_Penalty>
2.31336

> <i_epik_Tot_Q>
0

> <i_epik_Tot_abs_Q>
0

> <r_epik_Metal_State_Penalty>
2.31025

> <b_epik_Metal_Only>
0

> <s_lp_Force_Field>
OPLS_2005

> <r_lp_Energy>
69.0307

> <b_lp_Chiralities_Consistent>
1

> <s_lp_Variant>
AV-unprocessed.smi:21-34

> <Gold.Version>
5.8.1

> <Gold.Id.Protein>
6NUR|6NUR_protein|mol2

> <Gold.PLP.Fitness>
53.3313

> <Gold.PLP.PLP>
-50.5344

> <Gold.PLP.part.hbond>
-3.0000

> <Gold.PLP.part.metal>
0.0000

> <Gold.PLP.part.buried>
-8.6139

> <Gold.PLP.part.nonpolar>
-40.3759

> <Gold.PLP.part.repulsive>
0.4401

> <Gold.PLP.ligand.clash>
0.0000

> <Gold.PLP.ligand.torsion>
1.6126

> <Gold.PLP.Chemscore.Hbond>
1.8880

> <Gold.PLP.Chemscore.CHOScore>
0.0000

> <Gold.PLP.Chemscore.Metal>
0.0000

> <Gold.Chemscore.Hbonds>
donor molecule, donor type, donor heavy atom, donor atom, acceptor molecule, acceptor atom, score
      P1  H  7989  7998       L1    10  0.90
      P1  H 10752 10763       L1    12  0.50

> <Gold.PLP.Chemscore.Internal.Correction>
0.3583

> <Gold.Rescore>
     Score         DG    S(hbond)    S(metal)    S(lipo)     H(rot)  DE(clash)    DE(int)     intcor
     12.16     -15.03       1.44        0.00     106.32       3.00       0.09       2.78       ----

> <Gold.Chemscore.Fitness>
12.1611

> <Gold.Chemscore.DG>
-15.0309

> <Gold.Chemscore.ZeroCoef>
-5.4800

> <Gold.Chemscore.Hbond>
1.4369

> <Gold.Chemscore.Metal>
0.0000

> <Gold.Chemscore.Lipo>
106.3214

> <Gold.Chemscore.Internal_Hbond>
0.0000

> <Gold.Chemscore.DEClash>
0.0908

> <Gold.Chemscore.DEInternal>
2.7789

> <Gold.Chemscore.Rot>
3.0031

> <Gold.Chemscore.Internal.Correction>
   9.000000E+99

> <Gold.Chemscore.Hbonds>
donor molecule, donor type, donor heavy atom, donor atom, acceptor molecule, acceptor atom, score
      P1  H  7989  7998       L1    10  0.14
      P1  H 10752 10763       L1    12  0.19

> <Gold.Chemscore.Hbond.Weighted>
-4.7993

> <Gold.Chemscore.Metal.Weighted>
-0.0000

> <Gold.Chemscore.Lipo.Weighted>
-12.4396

> <Gold.Chemscore.Internal_Hbond.Weighted>
0.0000

> <Gold.Chemscore.DEClash.Weighted>
0.0908

> <Gold.Chemscore.DEInternal.Weighted>
2.7789

> <Gold.Chemscore.Rot.Weighted>
7.6880

> <Gold.Chemscore.Internal.Correction.Weighted>
   9.000000E+99

> <Gold.Protein.RotatedTorsions>
[ 6907 6896 6895 6894 ] final   50.25 input  -60.11 | X-H torsion
[ 7974 7965 7964 7962 ] final -145.62 input  175.53 | X-H torsion
[ 8008 7997 7996 7995 ] final    5.57 input   59.86 | X-H torsion
[ 10167 10162 10161 10158 ] final   32.00 input  -65.29 | X-H torsion
[ 10718 10713 10712 10709 ] final -155.20 input   66.30 | X-H torsion
[ 10763 10752 10751 10750 ] final   43.64 input  -60.55 | X-H torsion
[ 11005 11000 10999 10996 ] final   44.26 input  -57.11 | X-H torsion

> <Gold.Protein.ActiveResidues>
 VAL166  LYS551  ARG553  GLY616  TRP617  ASP618  TYR619  PRO620  LYS621  CYS622 
 ASP623  PHE694  ASN695  SER759  ASP760  ASP761  ALA762  ILE779  LEU786  VAL792 
 PHE793  MET794  SER795  GLU796  ALA797  LYS798  CYS799  TRP800  GLU811  SER814 

> <Gold.Protein.RotatedAtoms>
  152.2998  134.7625  160.0360 H   0  0  0  0  0  0  0  0  0  0  0  0  # atno 6907 bound_to 6896
  151.8142  133.3380  159.3572 H   0  0  0  0  0  0  0  0  0  0  0  0  # atno 6908 bound_to 6896
  150.7268  134.5565  159.5865 H   0  0  0  0  0  0  0  0  0  0  0  0  # atno 6909 bound_to 6896
  144.8215  140.5560  143.5575 H   0  0  0  0  0  0  0  0  0  0  0  0  # atno 7974 bound_to 7965
  154.7300  140.2728  155.6464 H   0  0  0  0  0  0  0  0  0  0  0  0  # atno 8008 bound_to 7997
  156.2847  140.2717  156.1923 H   0  0  0  0  0  0  0  0  0  0  0  0  # atno 8009 bound_to 7997
  155.0393  140.0371  157.2493 H   0  0  0  0  0  0  0  0  0  0  0  0  # atno 8010 bound_to 7997
  140.4538  144.1008  150.6197 H   0  0  0  0  0  0  0  0  0  0  0  0  # atno 10167 bound_to 10162
  156.5096  130.8429  151.2641 H   0  0  0  0  0  0  0  0  0  0  0  0  # atno 10718 bound_to 10713
  152.9856  135.6095  154.3144 H   0  0  0  0  0  0  0  0  0  0  0  0  # atno 10763 bound_to 10752
  154.2857  135.2776  155.2679 H   0  0  0  0  0  0  0  0  0  0  0  0  # atno 10764 bound_to 10752
  154.4997  135.5870  153.6578 H   0  0  0  0  0  0  0  0  0  0  0  0  # atno 10765 bound_to 10752
  140.1568  134.4392  155.8344 H   0  0  0  0  0  0  0  0  0  0  0  0  # atno 11005 bound_to 11000
  145.5095  139.1480  143.3613 LP  0  0  0  0  0  0  0  0  0  0  0  0  # atno 17320 bound_to 7965
  146.2520  140.5235  142.8889 LP  0  0  0  0  0  0  0  0  0  0  0  0  # atno 17321 bound_to 7965
  140.4175  143.2627  151.9756 LP  0  0  0  0  0  0  0  0  0  0  0  0  # atno 17342 bound_to 10162
  139.4799  144.5860  151.7852 LP  0  0  0  0  0  0  0  0  0  0  0  0  # atno 17343 bound_to 10162
  157.7452  130.9954  150.2742 LP  0  0  0  0  0  0  0  0  0  0  0  0  # atno 17370 bound_to 10713
  156.3253  130.3792  149.7538 LP  0  0  0  0  0  0  0  0  0  0  0  0  # atno 17371 bound_to 10713
  141.2205  133.6896  156.7521 LP  0  0  0  0  0  0  0  0  0  0  0  0  # atno 17394 bound_to 11000
  140.2538  134.8520  157.3693 LP  0  0  0  0  0  0  0  0  0  0  0  0  # atno 17395 bound_to 11000

$$$$
