AV-unprocessed.smi:1033|AV-procd|sdf|4490|dock4
  -GOLD-   22720 2473D 1   1.00000     0.00000
 Structure written by MMmdl.
 56 58  0  0  0  0  0  0  0  0  2 V2000
  152.9392  143.1034  160.4951 C   0  0  0  0  0  0  0  0  0  0  0  0
  152.0902  142.6464  159.3218 C   0  0  0  0  0  0  0  0  0  0  0  0
  151.7212  141.2856  159.2297 C   0  0  0  0  0  0  0  0  0  0  0  0
  150.9357  140.8200  158.1528 C   0  0  0  0  0  0  0  0  0  0  0  0
  150.4699  139.5488  157.8641 N   0  0  0  0  0  0  0  0  0  0  0  0
  149.8058  139.7572  156.7315 C   0  0  0  0  0  0  0  0  0  0  0  0
  149.7887  141.0144  156.2484 N   0  0  0  0  0  0  0  0  0  0  0  0
  149.1403  141.4707  155.0317 C   0  0  0  0  0  0  0  0  0  0  0  0
  148.3012  140.3630  154.3660 C   0  0  2  0  0  0  0  0  0  0  0  0
  149.1664  139.4363  153.7378 O   0  0  0  0  0  0  0  0  0  0  0  0
  147.3360  140.9331  153.3078 C   0  0  0  0  0  0  0  0  0  0  0  0
  146.0538  141.4033  153.8916 N   0  3  0  0  0  0  0  0  0  0  0  0
  145.9760  142.8847  153.9697 C   0  0  0  0  0  0  0  0  0  0  0  0
  144.5958  143.3228  154.5010 C   0  0  0  0  0  0  0  0  0  0  0  0
  144.2699  142.7480  155.8058 N   0  0  0  0  0  0  0  0  0  0  0  0
  145.0536  143.3380  156.8977 C   0  0  0  0  0  0  0  0  0  0  0  0
  144.4445  144.5964  157.5478 C   0  0  2  0  0  0  0  0  0  0  0  0
  144.1114  145.6956  156.5285 C   0  0  0  0  0  0  0  0  0  0  0  0
  145.3890  145.1147  158.4599 O   0  0  0  0  0  0  0  0  0  0  0  0
  144.3593  141.2890  155.7068 C   0  0  0  0  0  0  0  0  0  0  0  0
  145.7318  140.7919  155.2091 C   0  0  0  0  0  0  0  0  0  0  0  0
  150.5250  141.7603  157.1630 C   0  0  0  0  0  0  0  0  0  0  0  0
  150.8834  143.1176  157.2453 C   0  0  0  0  0  0  0  0  0  0  0  0
  151.6701  143.5657  158.3271 C   0  0  0  0  0  0  0  0  0  0  0  0
  152.0550  145.0326  158.4063 C   0  0  0  0  0  0  0  0  0  0  0  0
  153.1780  142.2736  161.1609 H   0  0  0  0  0  0  0  0  0  0  0  0
  152.4110  143.8585  161.0778 H   0  0  0  0  0  0  0  0  0  0  0  0
  153.8787  143.5305  160.1437 H   0  0  0  0  0  0  0  0  0  0  0  0
  152.0409  140.5855  159.9876 H   0  0  0  0  0  0  0  0  0  0  0  0
  149.3054  138.9477  156.2203 H   0  0  0  0  0  0  0  0  0  0  0  0
  148.5054  142.3207  155.2855 H   0  0  0  0  0  0  0  0  0  0  0  0
  149.9018  141.8460  154.3465 H   0  0  0  0  0  0  0  0  0  0  0  0
  147.7458  139.8397  155.1436 H   0  0  0  0  0  0  0  0  0  0  0  0
  149.5258  139.8387  152.9609 H   0  0  0  0  0  0  0  0  0  0  0  0
  147.8048  141.7547  152.7640 H   0  0  0  0  0  0  0  0  0  0  0  0
  147.1355  140.1551  152.5693 H   0  0  0  0  0  0  0  0  0  0  0  0
  146.7780  143.2676  154.6023 H   0  0  0  0  0  0  0  0  0  0  0  0
  146.1284  143.3111  152.9774 H   0  0  0  0  0  0  0  0  0  0  0  0
  144.5462  144.4112  154.5520 H   0  0  0  0  0  0  0  0  0  0  0  0
  143.8314  143.0259  153.7815 H   0  0  0  0  0  0  0  0  0  0  0  0
  145.2355  142.5930  157.6722 H   0  0  0  0  0  0  0  0  0  0  0  0
  146.0397  143.6064  156.5160 H   0  0  0  0  0  0  0  0  0  0  0  0
  143.5531  144.3432  158.1209 H   0  0  0  0  0  0  0  0  0  0  0  0
  143.3607  145.3553  155.8148 H   0  0  0  0  0  0  0  0  0  0  0  0
  144.9945  145.9962  155.9632 H   0  0  0  0  0  0  0  0  0  0  0  0
  143.7135  146.5826  157.0220 H   0  0  0  0  0  0  0  0  0  0  0  0
  146.1674  145.3582  157.9820 H   0  0  0  0  0  0  0  0  0  0  0  0
  144.1179  140.8234  156.6614 H   0  0  0  0  0  0  0  0  0  0  0  0
  143.5920  140.9381  155.0152 H   0  0  0  0  0  0  0  0  0  0  0  0
  145.6981  139.7068  155.1233 H   0  0  0  0  0  0  0  0  0  0  0  0
  146.5153  141.0228  155.9316 H   0  0  0  0  0  0  0  0  0  0  0  0
  150.5581  143.8075  156.4809 H   0  0  0  0  0  0  0  0  0  0  0  0
  151.6537  145.5957  157.5633 H   0  0  0  0  0  0  0  0  0  0  0  0
  153.1395  145.1443  158.3970 H   0  0  0  0  0  0  0  0  0  0  0  0
  151.6677  145.4799  159.3220 H   0  0  0  0  0  0  0  0  0  0  0  0
  145.3284  141.1180  153.2487 H   0  0  0  0  0  0  0  0  0  0  0  0
  1  2  1  0  0  0  0
  1 26  1  0  0  0  0
  1 27  1  0  0  0  0
  1 28  1  0  0  0  0
  2 24  1  0  0  0  0
  2  3  2  0  0  0  0
  3  4  1  0  0  0  0
  3 29  1  0  0  0  0
  4 22  2  0  0  0  0
  4  5  1  0  0  0  0
  5  6  2  0  0  0  0
  6  7  1  0  0  0  0
  6 30  1  0  0  0  0
  7  8  1  0  0  0  0
  7 22  1  0  0  0  0
  8  9  1  0  0  0  0
  8 31  1  0  0  0  0
  8 32  1  0  0  0  0
  9 10  1  0  0  0  0
  9 11  1  0  0  0  0
  9 33  1  0  0  0  0
 10 34  1  0  0  0  0
 11 12  1  0  0  0  0
 11 35  1  0  0  0  0
 11 36  1  0  0  0  0
 12 21  1  0  0  0  0
 12 13  1  0  0  0  0
 12 56  1  0  0  0  0
 13 14  1  0  0  0  0
 13 37  1  0  0  0  0
 13 38  1  0  0  0  0
 14 15  1  0  0  0  0
 14 39  1  0  0  0  0
 14 40  1  0  0  0  0
 15 16  1  0  0  0  0
 15 20  1  0  0  0  0
 16 17  1  0  0  0  0
 16 41  1  0  0  0  0
 16 42  1  0  0  0  0
 17 18  1  0  0  0  0
 17 19  1  0  0  0  0
 17 43  1  0  0  0  0
 18 44  1  0  0  0  0
 18 45  1  0  0  0  0
 18 46  1  0  0  0  0
 19 47  1  0  0  0  0
 20 21  1  0  0  0  0
 20 48  1  0  0  0  0
 20 49  1  0  0  0  0
 21 50  1  0  0  0  0
 21 51  1  0  0  0  0
 22 23  1  0  0  0  0
 23 24  2  0  0  0  0
 23 52  1  0  0  0  0
 24 25  1  0  0  0  0
 25 53  1  0  0  0  0
 25 54  1  0  0  0  0
 25 55  1  0  0  0  0
M  CHG  1  12   1
M  END
> <s_m_source_file>
AV-unprocessed.smi

> <i_m_source_file_index>
1033

> <i_lp_mmshare_version>
43012

> <i_f3d_flags>
0

> <s_epik_input>
W0NIM11jKFtjSF0xKWMoW0NIM10pW2NIXWMoYzEyKW4oW2NIXW4yKVtDSDJdW0NASF0oW09IXSlbQ0gyXU4zW0NIMl1bQ0gyXU4oW0NIMl1bQ0gyXTMpW0NIMl1bQ0BIXShbQ0gzXSlbT0hd

> <s_epik_cmdline>
J2VwaWtfcHl0aG9uJywgJy1waCcsICc3LjAnLCAnLXRuJywgJzgnLCAnLW1hJywgJzIwMCcsICctbWV0YWxfYmluZGluZycsICctaW1hZScsICc8aW5maWxlLm1hZT4nLCAnLW9tYWUnLCAnPG91dGZpbGUubWFlPic=

> <r_epik_Ionization_Penalty>
0.131893

> <r_epik_Ionization_Penalty_Charging>
0.00208556

> <r_epik_Ionization_Penalty_Neutral>
0.129808

> <r_epik_State_Penalty>
0.452125

> <r_epik_Charging_Adjusted_Penalty>
0.454211

> <i_epik_Tot_Q>
1

> <i_epik_Tot_abs_Q>
1

> <r_epik_Metal_State_Penalty>
0.376389

> <b_epik_Metal_Only>
0

> <s_lp_Force_Field>
OPLS_2005

> <r_lp_Energy>
32.1786

> <b_lp_Chiralities_Consistent>
1

> <s_lp_Variant>
AV-unprocessed.smi:1033-1

> <Gold.Version>
5.8.1

> <Gold.Id.Protein>
6NUR|6NUR_protein|mol2

> <Gold.PLP.Fitness>
57.1367

> <Gold.PLP.PLP>
-48.2026

> <Gold.PLP.part.hbond>
-2.7528

> <Gold.PLP.part.metal>
0.0000

> <Gold.PLP.part.buried>
-6.6754

> <Gold.PLP.part.nonpolar>
-39.8347

> <Gold.PLP.part.repulsive>
0.1156

> <Gold.PLP.ligand.clash>
0.4353

> <Gold.PLP.ligand.torsion>
1.4226

> <Gold.PLP.Chemscore.Hbond>
4.0000

> <Gold.PLP.Chemscore.CHOScore>
0.0000

> <Gold.PLP.Chemscore.Metal>
0.0000

> <Gold.Chemscore.Hbonds>
donor molecule, donor type, donor heavy atom, donor atom, acceptor molecule, acceptor atom, score
      L1  H    10    34       P1  7957  1.00
      L1  H    12    56       P1 10175  2.00
      L1  H    19    47       P1  8029  1.00

> <Gold.PLP.Chemscore.Internal.Correction>
0.2147

> <Gold.Rescore>
     Score         DG    S(hbond)    S(metal)    S(lipo)     H(rot)  DE(clash)    DE(int)     intcor
     18.48     -20.40       2.47        0.00     124.18       3.07       0.22       1.70       ----

> <Gold.Chemscore.Fitness>
18.4775

> <Gold.Chemscore.DG>
-20.3983

> <Gold.Chemscore.ZeroCoef>
-5.4800

> <Gold.Chemscore.Hbond>
2.4659

> <Gold.Chemscore.Metal>
0.0000

> <Gold.Chemscore.Lipo>
124.1761

> <Gold.Chemscore.Internal_Hbond>
0.0000

> <Gold.Chemscore.DEClash>
0.2165

> <Gold.Chemscore.DEInternal>
1.7043

> <Gold.Chemscore.Rot>
3.0650

> <Gold.Chemscore.Internal.Correction>
   9.000000E+99

> <Gold.Chemscore.Hbonds>
donor molecule, donor type, donor heavy atom, donor atom, acceptor molecule, acceptor atom, score
      L1  H    10    34       P1  7957  0.96
      L1  H    12    56       P1 10175  0.30
      L1  H    19    47       P1  8029  0.88

> <Gold.Chemscore.Hbond.Weighted>
-8.2362

> <Gold.Chemscore.Metal.Weighted>
-0.0000

> <Gold.Chemscore.Lipo.Weighted>
-14.5286

> <Gold.Chemscore.Internal_Hbond.Weighted>
0.0000

> <Gold.Chemscore.DEClash.Weighted>
0.2165

> <Gold.Chemscore.DEInternal.Weighted>
1.7043

> <Gold.Chemscore.Rot.Weighted>
7.8465

> <Gold.Chemscore.Internal.Correction.Weighted>
   9.000000E+99

> <Gold.Protein.RotatedTorsions>
[ 6907 6896 6895 6894 ] final  -18.13 input  -60.11 | X-H torsion
[ 7974 7965 7964 7962 ] final  159.15 input  175.53 | X-H torsion
[ 8008 7997 7996 7995 ] final -122.29 input   59.86 | X-H torsion
[ 10167 10162 10161 10158 ] final -106.17 input  -65.29 | X-H torsion
[ 10718 10713 10712 10709 ] final  -27.69 input   66.30 | X-H torsion
[ 10763 10752 10751 10750 ] final   17.78 input  -60.55 | X-H torsion
[ 11005 11000 10999 10996 ] final -162.73 input  -57.11 | X-H torsion

> <Gold.Protein.ActiveResidues>
 VAL166  LYS551  ARG553  GLY616  TRP617  ASP618  TYR619  PRO620  LYS621  CYS622 
 ASP623  PHE694  ASN695  SER759  ASP760  ASP761  ALA762  ILE779  LEU786  VAL792 
 PHE793  MET794  SER795  GLU796  ALA797  LYS798  CYS799  TRP800  GLU811  SER814 

> <Gold.Protein.RotatedAtoms>
  151.2829  135.0719  159.9175 H   0  0  0  0  0  0  0  0  0  0  0  0  # atno 6907 bound_to 6896
  152.5331  134.0012  159.7906 H   0  0  0  0  0  0  0  0  0  0  0  0  # atno 6908 bound_to 6896
  151.0269  133.5775  159.2696 H   0  0  0  0  0  0  0  0  0  0  0  0  # atno 6909 bound_to 6896
  144.7806  139.7577  143.6261 H   0  0  0  0  0  0  0  0  0  0  0  0  # atno 7974 bound_to 7965
  155.1618  140.0406  157.2844 H   0  0  0  0  0  0  0  0  0  0  0  0  # atno 8008 bound_to 7997
  154.6331  140.2529  155.7383 H   0  0  0  0  0  0  0  0  0  0  0  0  # atno 8009 bound_to 7997
  156.2495  140.2871  156.0691 H   0  0  0  0  0  0  0  0  0  0  0  0  # atno 8010 bound_to 7997
  140.1906  143.3895  152.1209 H   0  0  0  0  0  0  0  0  0  0  0  0  # atno 10167 bound_to 10162
  156.4349  130.4452  149.7092 H   0  0  0  0  0  0  0  0  0  0  0  0  # atno 10718 bound_to 10713
  153.1307  135.6739  153.9182 H   0  0  0  0  0  0  0  0  0  0  0  0  # atno 10763 bound_to 10752
  153.8669  135.3074  155.3441 H   0  0  0  0  0  0  0  0  0  0  0  0  # atno 10764 bound_to 10752
  154.7705  135.4942  153.9721 H   0  0  0  0  0  0  0  0  0  0  0  0  # atno 10765 bound_to 10752
  140.6060  134.4898  157.5210 H   0  0  0  0  0  0  0  0  0  0  0  0  # atno 11005 bound_to 11000
  146.2012  139.5308  142.9742 LP  0  0  0  0  0  0  0  0  0  0  0  0  # atno 17320 bound_to 7965
  145.6061  141.0347  143.1992 LP  0  0  0  0  0  0  0  0  0  0  0  0  # atno 17321 bound_to 7965
  139.5257  144.7099  151.5238 LP  0  0  0  0  0  0  0  0  0  0  0  0  # atno 17342 bound_to 10162
  140.6458  143.8797  150.6736 LP  0  0  0  0  0  0  0  0  0  0  0  0  # atno 17343 bound_to 10162
  156.3980  130.7660  151.2666 LP  0  0  0  0  0  0  0  0  0  0  0  0  # atno 17370 bound_to 10713
  157.7507  131.0248  150.3893 LP  0  0  0  0  0  0  0  0  0  0  0  0  # atno 17371 bound_to 10713
  139.9212  134.8145  156.1206 LP  0  0  0  0  0  0  0  0  0  0  0  0  # atno 17394 bound_to 11000
  141.0840  133.6742  156.2396 LP  0  0  0  0  0  0  0  0  0  0  0  0  # atno 17395 bound_to 11000

$$$$
