AV-unprocessed.smi:1868|AV-procd|sdf|7587|dock1
  -GOLD-   22720 9293D 1   1.00000     0.00000
 Structure written by MMmdl.
 47 49  0  0  0  0  0  0  0  0  2 V2000
  152.1370  138.0662  154.1184 C   0  0  0  0  0  0  0  0  0  0  0  0
  151.6180  139.0480  155.1203 C   0  0  0  0  0  0  0  0  0  0  0  0
  152.4004  139.5951  156.0503 N   0  0  0  0  0  0  0  0  0  0  0  0
  151.5297  140.4257  156.7290 C   0  0  0  0  0  0  0  0  0  0  0  0
  151.7497  141.2862  157.8282 C   0  0  0  0  0  0  0  0  0  0  0  0
  150.6896  142.0482  158.3614 C   0  0  0  0  0  0  0  0  0  0  0  0
  149.3972  141.9606  157.8049 C   0  0  0  0  0  0  0  0  0  0  0  0
  149.1561  141.1099  156.7090 C   0  0  0  0  0  0  0  0  0  0  0  0
  150.2178  140.3518  156.1800 C   0  0  0  0  0  0  0  0  0  0  0  0
  150.3198  139.4387  155.1343 N   0  0  0  0  0  0  0  0  0  0  0  0
  149.2455  139.0103  154.2483 C   0  0  0  0  0  0  0  0  0  0  0  0
  148.3252  140.1711  153.8206 C   0  0  1  0  0  0  0  0  0  0  0  0
  149.1063  141.3223  153.5636 O   0  0  0  0  0  0  0  0  0  0  0  0
  147.5290  139.8244  152.5470 C   0  0  0  0  0  0  0  0  0  0  0  0
  147.0315  138.4242  152.5423 N   0  3  2  0  0  0  0  0  0  0  0  0
  146.2165  138.0900  151.3442 C   0  0  0  0  0  0  0  0  0  0  0  0
  145.8406  136.5972  151.3261 C   0  0  0  0  0  0  0  0  0  0  0  0
  145.1150  136.1620  152.6123 C   0  0  2  0  0  0  0  0  0  0  0  0
  143.6627  136.6670  152.6769 C   0  0  0  0  0  0  0  0  0  0  0  0
  145.9478  136.5837  153.8361 C   0  0  0  0  0  0  0  0  0  0  0  0
  146.3218  138.0762  153.8000 C   0  0  0  0  0  0  0  0  0  0  0  0
  153.1885  137.8472  154.3078 H   0  0  0  0  0  0  0  0  0  0  0  0
  152.0486  138.4737  153.1112 H   0  0  0  0  0  0  0  0  0  0  0  0
  151.5779  137.1325  154.1737 H   0  0  0  0  0  0  0  0  0  0  0  0
  152.7360  141.3605  158.2616 H   0  0  0  0  0  0  0  0  0  0  0  0
  150.8692  142.7031  159.2015 H   0  0  0  0  0  0  0  0  0  0  0  0
  148.5909  142.5478  158.2198 H   0  0  0  0  0  0  0  0  0  0  0  0
  148.1666  141.0412  156.2822 H   0  0  0  0  0  0  0  0  0  0  0  0
  149.6894  138.5357  153.3720 H   0  0  0  0  0  0  0  0  0  0  0  0
  148.6669  138.2332  154.7485 H   0  0  0  0  0  0  0  0  0  0  0  0
  147.6482  140.3992  154.6425 H   0  0  0  0  0  0  0  0  0  0  0  0
  149.7095  141.4430  154.2820 H   0  0  0  0  0  0  0  0  0  0  0  0
  146.6860  140.5136  152.4737 H   0  0  0  0  0  0  0  0  0  0  0  0
  148.1362  139.9934  151.6563 H   0  0  0  0  0  0  0  0  0  0  0  0
  145.3190  138.7096  151.3269 H   0  0  0  0  0  0  0  0  0  0  0  0
  146.7685  138.3202  150.4338 H   0  0  0  0  0  0  0  0  0  0  0  0
  145.2263  136.3756  150.4526 H   0  0  0  0  0  0  0  0  0  0  0  0
  146.7505  136.0060  151.2119 H   0  0  0  0  0  0  0  0  0  0  0  0
  145.0622  135.0723  152.6095 H   0  0  0  0  0  0  0  0  0  0  0  0
  143.6043  137.7549  152.6828 H   0  0  0  0  0  0  0  0  0  0  0  0
  143.1636  136.3064  153.5767 H   0  0  0  0  0  0  0  0  0  0  0  0
  143.0879  136.3112  151.8213 H   0  0  0  0  0  0  0  0  0  0  0  0
  145.4106  136.3540  154.7570 H   0  0  0  0  0  0  0  0  0  0  0  0
  146.8636  135.9915  153.8665 H   0  0  0  0  0  0  0  0  0  0  0  0
  146.9604  138.2991  154.6558 H   0  0  0  0  0  0  0  0  0  0  0  0
  145.4316  138.6982  153.9030 H   0  0  0  0  0  0  0  0  0  0  0  0
  147.8534  137.8372  152.5140 H   0  0  0  0  0  0  0  0  0  0  0  0
  1  2  1  0  0  0  0
  1 22  1  0  0  0  0
  1 23  1  0  0  0  0
  1 24  1  0  0  0  0
  2 10  1  0  0  0  0
  2  3  2  0  0  0  0
  3  4  1  0  0  0  0
  4  9  2  0  0  0  0
  4  5  1  0  0  0  0
  5  6  2  0  0  0  0
  5 25  1  0  0  0  0
  6  7  1  0  0  0  0
  6 26  1  0  0  0  0
  7  8  2  0  0  0  0
  7 27  1  0  0  0  0
  8  9  1  0  0  0  0
  8 28  1  0  0  0  0
  9 10  1  0  0  0  0
 10 11  1  0  0  0  0
 11 12  1  0  0  0  0
 11 29  1  0  0  0  0
 11 30  1  0  0  0  0
 12 13  1  0  0  0  0
 12 14  1  0  0  0  0
 12 31  1  0  0  0  0
 13 32  1  0  0  0  0
 14 15  1  0  0  0  0
 14 33  1  0  0  0  0
 14 34  1  0  0  0  0
 15 21  1  0  0  0  0
 15 16  1  0  0  0  0
 15 47  1  0  0  0  0
 16 17  1  0  0  0  0
 16 35  1  0  0  0  0
 16 36  1  0  0  0  0
 17 18  1  0  0  0  0
 17 37  1  0  0  0  0
 17 38  1  0  0  0  0
 18 19  1  0  0  0  0
 18 20  1  0  0  0  0
 18 39  1  0  0  0  0
 19 40  1  0  0  0  0
 19 41  1  0  0  0  0
 19 42  1  0  0  0  0
 20 21  1  0  0  0  0
 20 43  1  0  0  0  0
 20 44  1  0  0  0  0
 21 45  1  0  0  0  0
 21 46  1  0  0  0  0
M  CHG  1  15   1
M  END
> <s_m_source_file>
AV-unprocessed.smi

> <i_m_source_file_index>
1868

> <i_lp_mmshare_version>
43012

> <i_f3d_flags>
0

> <s_epik_input>
W2NIXTFbY0hdW2NIXVtjSF1jKGMxMiluKGMobjIpW0NIM10pW0NIMl1bQ0BIXShbT0hdKVtDSDJdTjNbQ0gyXVtDSDJdW0NIXShbQ0gzXSlbQ0gyXVtDSDJdMw==

> <s_epik_cmdline>
J2VwaWtfcHl0aG9uJywgJy1waCcsICc3LjAnLCAnLXRuJywgJzgnLCAnLW1hJywgJzIwMCcsICctbWV0YWxfYmluZGluZycsICctaW1hZScsICc8aW5maWxlLm1hZT4nLCAnLW9tYWUnLCAnPG91dGZpbGUubWFlPic=

> <r_epik_Ionization_Penalty>
0.101157

> <r_epik_Ionization_Penalty_Charging>
0.00181365

> <r_epik_Ionization_Penalty_Neutral>
0.0993436

> <r_epik_State_Penalty>
0.0871902

> <r_epik_Charging_Adjusted_Penalty>
0.0890039

> <i_epik_Tot_Q>
1

> <i_epik_Tot_abs_Q>
1

> <r_epik_Metal_State_Penalty>
9.24346e-05

> <b_epik_Metal_Only>
0

> <s_lp_Force_Field>
OPLS_2005

> <r_lp_Energy>
23.8168

> <b_lp_Chiralities_Consistent>
1

> <s_lp_Variant>
AV-unprocessed.smi:1868-4

> <Gold.Version>
5.8.1

> <Gold.Id.Protein>
6NUR|6NUR_protein|mol2

> <Gold.PLP.Fitness>
45.7450

> <Gold.PLP.PLP>
-35.0102

> <Gold.PLP.part.hbond>
-5.1059

> <Gold.PLP.part.metal>
0.0000

> <Gold.PLP.part.buried>
4.5555

> <Gold.PLP.part.nonpolar>
-34.0832

> <Gold.PLP.part.repulsive>
0.0568

> <Gold.PLP.ligand.clash>
0.0000

> <Gold.PLP.ligand.torsion>
0.6438

> <Gold.PLP.Chemscore.Hbond>
3.9600

> <Gold.PLP.Chemscore.CHOScore>
0.0000

> <Gold.PLP.Chemscore.Metal>
0.0000

> <Gold.Chemscore.Hbonds>
donor molecule, donor type, donor heavy atom, donor atom, acceptor molecule, acceptor atom, score
      L1  H    15    47       P1  7948  1.98
      P1  H  7997  8008       L1     3  1.00
      P1  H  8011  8017       L1    13  0.91

> <Gold.PLP.Chemscore.Internal.Correction>
0.1424

> <Gold.Rescore>
     Score         DG    S(hbond)    S(metal)    S(lipo)     H(rot)  DE(clash)    DE(int)     intcor
     16.32     -19.44       2.50        0.00      89.91       1.92       2.67       0.45       ----

> <Gold.Chemscore.Fitness>
16.3231

> <Gold.Chemscore.DG>
-19.4415

> <Gold.Chemscore.ZeroCoef>
-5.4800

> <Gold.Chemscore.Hbond>
2.5021

> <Gold.Chemscore.Metal>
0.0000

> <Gold.Chemscore.Lipo>
89.9083

> <Gold.Chemscore.Internal_Hbond>
0.0000

> <Gold.Chemscore.DEClash>
2.6708

> <Gold.Chemscore.DEInternal>
0.4475

> <Gold.Chemscore.Rot>
1.9198

> <Gold.Chemscore.Internal.Correction>
   9.000000E+99

> <Gold.Chemscore.Hbonds>
donor molecule, donor type, donor heavy atom, donor atom, acceptor molecule, acceptor atom, score
      L1  H    15    47       P1  7948  0.90
      P1  H  7997  8008       L1     3  0.77
      P1  H  8011  8017       L1    13  0.31

> <Gold.Chemscore.Hbond.Weighted>
-8.3569

> <Gold.Chemscore.Metal.Weighted>
-0.0000

> <Gold.Chemscore.Lipo.Weighted>
-10.5193

> <Gold.Chemscore.Internal_Hbond.Weighted>
0.0000

> <Gold.Chemscore.DEClash.Weighted>
2.6708

> <Gold.Chemscore.DEInternal.Weighted>
0.4475

> <Gold.Chemscore.Rot.Weighted>
4.9147

> <Gold.Chemscore.Internal.Correction.Weighted>
   9.000000E+99

> <Gold.Protein.RotatedTorsions>
[ 6907 6896 6895 6894 ] final  -51.37 input  -60.11 | X-H torsion
[ 7974 7965 7964 7962 ] final -150.35 input  175.53 | X-H torsion
[ 8008 7997 7996 7995 ] final  -44.84 input   59.86 | X-H torsion
[ 10167 10162 10161 10158 ] final -101.84 input  -65.29 | X-H torsion
[ 10718 10713 10712 10709 ] final   51.27 input   66.30 | X-H torsion
[ 10763 10752 10751 10750 ] final   89.55 input  -60.55 | X-H torsion
[ 11005 11000 10999 10996 ] final    4.51 input  -57.11 | X-H torsion

> <Gold.Protein.ActiveResidues>
 VAL166  LYS551  ARG553  GLY616  TRP617  ASP618  TYR619  PRO620  LYS621  CYS622 
 ASP623  PHE694  ASN695  SER759  ASP760  ASP761  ALA762  ILE779  LEU786  VAL792 
 PHE793  MET794  SER795  GLU796  ALA797  LYS798  CYS799  TRP800  GLU811  SER814 

> <Gold.Protein.RotatedAtoms>
  150.8617  134.7971  159.7087 H   0  0  0  0  0  0  0  0  0  0  0  0  # atno 6907 bound_to 6896
  152.4652  134.5088  159.9757 H   0  0  0  0  0  0  0  0  0  0  0  0  # atno 6908 bound_to 6896
  151.5191  133.3431  159.2934 H   0  0  0  0  0  0  0  0  0  0  0  0  # atno 6909 bound_to 6896
  144.7912  140.4943  143.5771 H   0  0  0  0  0  0  0  0  0  0  0  0  # atno 7974 bound_to 7965
  154.3998  140.1412  156.3748 H   0  0  0  0  0  0  0  0  0  0  0  0  # atno 8008 bound_to 7997
  155.8058  140.3474  155.5408 H   0  0  0  0  0  0  0  0  0  0  0  0  # atno 8009 bound_to 7997
  155.8437  140.0930  157.1709 H   0  0  0  0  0  0  0  0  0  0  0  0  # atno 8010 bound_to 7997
  140.2371  143.3565  152.0835 H   0  0  0  0  0  0  0  0  0  0  0  0  # atno 10167 bound_to 10162
  157.4964  130.8409  149.8264 H   0  0  0  0  0  0  0  0  0  0  0  0  # atno 10718 bound_to 10713
  153.1883  135.4466  155.0116 H   0  0  0  0  0  0  0  0  0  0  0  0  # atno 10763 bound_to 10752
  154.8074  135.3280  154.7398 H   0  0  0  0  0  0  0  0  0  0  0  0  # atno 10764 bound_to 10752
  153.7855  135.6974  153.4936 H   0  0  0  0  0  0  0  0  0  0  0  0  # atno 10765 bound_to 10752
  140.5811  134.0012  155.8048 H   0  0  0  0  0  0  0  0  0  0  0  0  # atno 11005 bound_to 11000
  145.5789  139.1487  143.3247 LP  0  0  0  0  0  0  0  0  0  0  0  0  # atno 17320 bound_to 7965
  146.2165  140.5919  142.9036 LP  0  0  0  0  0  0  0  0  0  0  0  0  # atno 17321 bound_to 7965
  139.5090  144.6860  151.5887 LP  0  0  0  0  0  0  0  0  0  0  0  0  # atno 17342 bound_to 10162
  140.6142  143.9380  150.6476 LP  0  0  0  0  0  0  0  0  0  0  0  0  # atno 17343 bound_to 10162
  156.0203  130.3798  150.1982 LP  0  0  0  0  0  0  0  0  0  0  0  0  # atno 17370 bound_to 10713
  157.0171  130.9968  151.3350 LP  0  0  0  0  0  0  0  0  0  0  0  0  # atno 17371 bound_to 10713
  141.0996  133.9790  157.3102 LP  0  0  0  0  0  0  0  0  0  0  0  0  # atno 17394 bound_to 11000
  139.9317  135.0199  156.8422 LP  0  0  0  0  0  0  0  0  0  0  0  0  # atno 17395 bound_to 11000

$$$$
