AV-unprocessed.smi:438|AV-procd|sdf|2564|dock4
  -GOLD-   2262022533D 1   1.00000     0.00000
 Structure written by MMmdl.
 48 49  0  0  0  0  0  0  0  0  1 V2000
  145.7670  134.4034  150.7148 C   0  0  0  0  0  0  0  0  0  0  0  0
  146.4388  133.3132  151.5311 C   0  0  0  0  0  0  0  0  0  0  0  0
  147.5709  133.7095  152.2529 N   0  0  0  0  0  0  0  0  0  0  0  0
  148.2107  132.8526  152.9831 C   0  0  0  0  0  0  0  0  0  0  0  0
  149.6780  133.0939  154.0310 S   0  0  0  0  0  0  0  0  0  0  0  0
  149.1631  134.4608  155.1153 C   0  0  0  0  0  0  0  0  0  0  0  0
  150.3338  135.3620  155.5063 C   0  0  0  0  0  0  0  0  0  0  0  0
  151.3874  134.8647  155.9022 O   0  0  0  0  0  0  0  0  0  0  0  0
  150.1224  136.6841  155.4151 N   0  0  0  0  0  0  0  0  0  0  0  0
  151.0387  137.7447  155.8338 C   0  0  1  0  0  0  0  0  0  0  0  0
  151.3617  138.6586  154.6351 C   0  0  0  0  0  0  0  0  0  0  0  0
  150.1490  139.5012  154.2047 C   0  0  0  0  0  0  0  0  0  0  0  0
  149.5914  140.3160  155.3808 C   0  0  0  0  0  0  0  0  0  0  0  0
  149.2489  139.4143  156.5769 C   0  0  0  0  0  0  0  0  0  0  0  0
  150.4590  138.5640  157.0169 C   0  0  1  0  0  0  0  0  0  0  0  0
  150.1178  137.6994  158.2426 C   0  0  0  0  0  0  0  0  0  0  0  0
  147.7818  131.5274  153.0548 N   0  0  0  0  0  0  0  0  0  0  0  0
  146.6938  131.0491  152.4119 C   0  0  0  0  0  0  0  0  0  0  0  0
  146.3615  129.8726  152.5455 O   0  0  0  0  0  0  0  0  0  0  0  0
  145.9815  132.0305  151.5755 C   0  0  0  0  0  0  0  0  0  0  0  0
  144.7360  131.5651  150.8219 C   0  0  0  0  0  0  0  0  0  0  0  0
  143.5070  132.4590  151.0643 C   0  0  0  0  0  0  0  0  0  0  0  0
  142.6131  132.4071  149.9730 O   0  0  0  0  0  0  0  0  0  0  0  0
  145.6526  134.0980  149.6753 H   0  0  0  0  0  0  0  0  0  0  0  0
  146.3532  135.3230  150.7264 H   0  0  0  0  0  0  0  0  0  0  0  0
  144.7810  134.6300  151.1209 H   0  0  0  0  0  0  0  0  0  0  0  0
  148.6589  134.0788  156.0035 H   0  0  0  0  0  0  0  0  0  0  0  0
  148.4279  135.0591  154.5763 H   0  0  0  0  0  0  0  0  0  0  0  0
  149.2209  136.9854  155.0734 H   0  0  0  0  0  0  0  0  0  0  0  0
  151.9789  137.2971  156.1607 H   0  0  0  0  0  0  0  0  0  0  0  0
  152.1812  139.3260  154.9048 H   0  0  0  0  0  0  0  0  0  0  0  0
  151.7205  138.0643  153.7936 H   0  0  0  0  0  0  0  0  0  0  0  0
  150.4315  140.1702  153.3916 H   0  0  0  0  0  0  0  0  0  0  0  0
  149.3711  138.8489  153.8083 H   0  0  0  0  0  0  0  0  0  0  0  0
  150.3249  141.0631  155.6865 H   0  0  0  0  0  0  0  0  0  0  0  0
  148.7042  140.8654  155.0646 H   0  0  0  0  0  0  0  0  0  0  0  0
  148.9064  140.0311  157.4083 H   0  0  0  0  0  0  0  0  0  0  0  0
  148.4125  138.7657  156.3177 H   0  0  0  0  0  0  0  0  0  0  0  0
  151.2398  139.2573  157.3331 H   0  0  0  0  0  0  0  0  0  0  0  0
  149.2858  137.0239  158.0418 H   0  0  0  0  0  0  0  0  0  0  0  0
  149.8350  138.3214  159.0922 H   0  0  0  0  0  0  0  0  0  0  0  0
  150.9729  137.0954  158.5468 H   0  0  0  0  0  0  0  0  0  0  0  0
  148.3009  130.8843  153.6346 H   0  0  0  0  0  0  0  0  0  0  0  0
  144.4961  130.5471  151.1280 H   0  0  0  0  0  0  0  0  0  0  0  0
  144.9425  131.4920  149.7534 H   0  0  0  0  0  0  0  0  0  0  0  0
  142.9774  132.1283  151.9579 H   0  0  0  0  0  0  0  0  0  0  0  0
  143.8028  133.4943  151.2332 H   0  0  0  0  0  0  0  0  0  0  0  0
  142.0606  133.1732  149.9997 H   0  0  0  0  0  0  0  0  0  0  0  0
  1 24  1  0  0  0  0
  1 25  1  0  0  0  0
  1 26  1  0  0  0  0
  1  2  1  0  0  0  0
  2 20  2  0  0  0  0
  2  3  1  0  0  0  0
  3  4  2  0  0  0  0
  4  5  1  0  0  0  0
  4 17  1  0  0  0  0
  5  6  1  0  0  0  0
  6  7  1  0  0  0  0
  6 27  1  0  0  0  0
  6 28  1  0  0  0  0
  7  8  2  0  0  0  0
  7  9  1  0  0  0  0
  9 10  1  0  0  0  0
  9 29  1  0  0  0  0
 10 15  1  0  0  0  0
 10 11  1  0  0  0  0
 10 30  1  0  0  0  0
 11 12  1  0  0  0  0
 11 31  1  0  0  0  0
 11 32  1  0  0  0  0
 12 13  1  0  0  0  0
 12 33  1  0  0  0  0
 12 34  1  0  0  0  0
 13 14  1  0  0  0  0
 13 35  1  0  0  0  0
 13 36  1  0  0  0  0
 14 15  1  0  0  0  0
 14 37  1  0  0  0  0
 14 38  1  0  0  0  0
 15 16  1  0  0  0  0
 15 39  1  0  0  0  0
 16 40  1  0  0  0  0
 16 41  1  0  0  0  0
 16 42  1  0  0  0  0
 17 43  1  0  0  0  0
 17 18  1  0  0  0  0
 18 19  2  0  0  0  0
 18 20  1  0  0  0  0
 20 21  1  0  0  0  0
 21 22  1  0  0  0  0
 21 44  1  0  0  0  0
 21 45  1  0  0  0  0
 22 23  1  0  0  0  0
 22 46  1  0  0  0  0
 22 47  1  0  0  0  0
 23 48  1  0  0  0  0
M  END
> <s_m_source_file>
AV-unprocessed.smi

> <i_m_source_file_index>
438

> <i_lp_mmshare_version>
43012

> <i_f3d_flags>
0

> <s_epik_input>
W09IXVtDSDJdW0NIMl1jMWMoW09IXSluYyhuYzFbQ0gzXSlTW0NIMl1DKD1PKVtOSF1bQ0BASF0yW0NIMl1bQ0gyXVtDSDJdW0NIMl1bQ0BIXTJbQ0gzXQ==

> <s_epik_cmdline>
J2VwaWtfcHl0aG9uJywgJy1waCcsICc3LjAnLCAnLXRuJywgJzgnLCAnLW1hJywgJzIwMCcsICctbWV0YWxfYmluZGluZycsICctaW1hZScsICc8aW5maWxlLm1hZT4nLCAnLW9tYWUnLCAnPG91dGZpbGUubWFlPic=

> <r_lp_tautomer_probability>
0.660323

> <r_epik_Ionization_Penalty>
0.00860626

> <r_epik_Ionization_Penalty_Charging>
0.00860522

> <r_epik_Ionization_Penalty_Neutral>
1.04215e-06

> <r_epik_State_Penalty>
0.156825

> <r_epik_Charging_Adjusted_Penalty>
0.16543

> <i_epik_Tot_Q>
0

> <i_epik_Tot_abs_Q>
0

> <r_epik_Metal_State_Penalty>
0.752038

> <b_epik_Metal_Only>
0

> <s_lp_Force_Field>
OPLS_2005

> <r_lp_Energy>
10.8925

> <b_lp_Chiralities_Consistent>
1

> <s_lp_Variant>
AV-unprocessed.smi:438-2

> <Gold.Version>
5.8.1

> <Gold.Id.Protein>
6NUR|6NUR_protein|mol2

> <Gold.PLP.Fitness>
41.7175

> <Gold.PLP.PLP>
-37.3941

> <Gold.PLP.part.hbond>
-3.8440

> <Gold.PLP.part.metal>
0.0000

> <Gold.PLP.part.buried>
-4.8854

> <Gold.PLP.part.nonpolar>
-28.9586

> <Gold.PLP.part.repulsive>
2.1945

> <Gold.PLP.ligand.clash>
0.0000

> <Gold.PLP.ligand.torsion>
0.6373

> <Gold.PLP.Chemscore.Hbond>
1.8445

> <Gold.PLP.Chemscore.CHOScore>
0.0000

> <Gold.PLP.Chemscore.Metal>
0.0000

> <Gold.Chemscore.Hbonds>
donor molecule, donor type, donor heavy atom, donor atom, acceptor molecule, acceptor atom, score
      L1  H    23    48       P1 10186  1.00
      P1  H 10752 10764       L1     8  0.88

> <Gold.PLP.Chemscore.Internal.Correction>
0.0646

> <Gold.Rescore>
     Score         DG    S(hbond)    S(metal)    S(lipo)     H(rot)  DE(clash)    DE(int)     intcor
     12.05     -15.41       2.34        0.00      80.84       2.86       1.17       2.19       ----

> <Gold.Chemscore.Fitness>
12.0487

> <Gold.Chemscore.DG>
-15.4053

> <Gold.Chemscore.ZeroCoef>
-5.4800

> <Gold.Chemscore.Hbond>
2.3353

> <Gold.Chemscore.Metal>
0.0000

> <Gold.Chemscore.Lipo>
80.8423

> <Gold.Chemscore.Internal_Hbond>
0.0000

> <Gold.Chemscore.DEClash>
1.1714

> <Gold.Chemscore.DEInternal>
2.1853

> <Gold.Chemscore.Rot>
2.8645

> <Gold.Chemscore.Internal.Correction>
   9.000000E+99

> <Gold.Chemscore.Hbonds>
donor molecule, donor type, donor heavy atom, donor atom, acceptor molecule, acceptor atom, score
      L1  H    23    48       P1 10186  1.00
      P1  H 10752 10764       L1     8  0.77

> <Gold.Chemscore.Hbond.Weighted>
-7.7998

> <Gold.Chemscore.Metal.Weighted>
-0.0000

> <Gold.Chemscore.Lipo.Weighted>
-9.4586

> <Gold.Chemscore.Internal_Hbond.Weighted>
0.0000

> <Gold.Chemscore.DEClash.Weighted>
1.1714

> <Gold.Chemscore.DEInternal.Weighted>
2.1853

> <Gold.Chemscore.Rot.Weighted>
7.3331

> <Gold.Chemscore.Internal.Correction.Weighted>
   9.000000E+99

> <Gold.Protein.RotatedTorsions>
[ 6907 6896 6895 6894 ] final  154.65 input  -60.11 | X-H torsion
[ 7974 7965 7964 7962 ] final -130.91 input  175.53 | X-H torsion
[ 8008 7997 7996 7995 ] final -151.47 input   59.86 | X-H torsion
[ 10167 10162 10161 10158 ] final   78.69 input  -65.29 | X-H torsion
[ 10718 10713 10712 10709 ] final  -22.73 input   66.30 | X-H torsion
[ 10763 10752 10751 10750 ] final  -33.96 input  -60.55 | X-H torsion
[ 11005 11000 10999 10996 ] final   -9.39 input  -57.11 | X-H torsion

> <Gold.Protein.ActiveResidues>
 VAL166  LYS551  ARG553  GLY616  TRP617  ASP618  TYR619  PRO620  LYS621  CYS622 
 ASP623  PHE694  ASN695  SER759  ASP760  ASP761  ALA762  ILE779  LEU786  VAL792 
 PHE793  MET794  SER795  GLU796  ALA797  LYS798  CYS799  TRP800  GLU811  SER814 

> <Gold.Protein.RotatedAtoms>
  152.0554  133.4038  159.4394 H   0  0  0  0  0  0  0  0  0  0  0  0  # atno 6907 bound_to 6896
  150.6868  134.3261  159.4816 H   0  0  0  0  0  0  0  0  0  0  0  0  # atno 6908 bound_to 6896
  152.1075  134.9297  160.0618 H   0  0  0  0  0  0  0  0  0  0  0  0  # atno 6909 bound_to 6896
  144.9430  140.7259  143.4835 H   0  0  0  0  0  0  0  0  0  0  0  0  # atno 7974 bound_to 7965
  155.6400  140.0700  157.2621 H   0  0  0  0  0  0  0  0  0  0  0  0  # atno 8008 bound_to 7997
  154.4186  140.1752  156.1612 H   0  0  0  0  0  0  0  0  0  0  0  0  # atno 8009 bound_to 7997
  155.9863  140.3349  155.6714 H   0  0  0  0  0  0  0  0  0  0  0  0  # atno 8010 bound_to 7997
  139.9682  144.5913  150.8009 H   0  0  0  0  0  0  0  0  0  0  0  0  # atno 10167 bound_to 10162
  156.5006  130.4587  149.6703 H   0  0  0  0  0  0  0  0  0  0  0  0  # atno 10718 bound_to 10713
  153.8389  135.6859  153.4805 H   0  0  0  0  0  0  0  0  0  0  0  0  # atno 10763 bound_to 10752
  153.1466  135.4635  154.9573 H   0  0  0  0  0  0  0  0  0  0  0  0  # atno 10764 bound_to 10752
  154.7854  135.3283  154.7844 H   0  0  0  0  0  0  0  0  0  0  0  0  # atno 10765 bound_to 10752
  140.7337  133.8728  155.8912 H   0  0  0  0  0  0  0  0  0  0  0  0  # atno 11005 bound_to 11000
  145.2962  139.1866  143.4714 LP  0  0  0  0  0  0  0  0  0  0  0  0  # atno 17320 bound_to 7965
  146.3293  140.2946  142.8617 LP  0  0  0  0  0  0  0  0  0  0  0  0  # atno 17321 bound_to 7965
  140.7531  143.3002  151.3101 LP  0  0  0  0  0  0  0  0  0  0  0  0  # atno 17342 bound_to 10162
  139.6501  144.0377  152.2620 LP  0  0  0  0  0  0  0  0  0  0  0  0  # atno 17343 bound_to 10162
  156.3337  130.7345  151.2279 LP  0  0  0  0  0  0  0  0  0  0  0  0  # atno 17370 bound_to 10713
  157.7463  131.0423  150.4687 LP  0  0  0  0  0  0  0  0  0  0  0  0  # atno 17371 bound_to 10713
  140.9899  134.1293  157.4418 LP  0  0  0  0  0  0  0  0  0  0  0  0  # atno 17394 bound_to 11000
  139.8821  135.0037  156.6203 LP  0  0  0  0  0  0  0  0  0  0  0  0  # atno 17395 bound_to 11000

$$$$
