AV-unprocessed.smi:102|AV-procd|sdf|967|dock8
  -GOLD-   2262017513D 1   1.00000     0.00000
 Structure written by MMmdl.
 43 44  0  0  0  0  0  0  0  0  2 V2000
  147.0909  144.3866  160.4664 C   0  0  0  0  0  0  0  0  0  0  0  0
  147.2185  143.2214  159.4940 C   0  0  0  0  0  0  0  0  0  0  0  0
  146.3726  142.3281  159.4447 O   0  0  0  0  0  0  0  0  0  0  0  0
  148.3250  143.3029  158.7431 O   0  0  0  0  0  0  0  0  0  0  0  0
  148.5727  142.3307  157.7400 C   0  0  0  0  0  0  0  0  0  0  0  0
  150.0764  142.2494  157.4435 C   0  0  2  0  0  0  0  0  0  0  0  0
  150.3600  141.1725  156.5638 O   0  0  0  0  0  0  0  0  0  0  0  0
  151.6747  140.7448  156.7574 C   0  0  2  0  0  0  0  0  0  0  0  0
  151.6652  139.2326  156.8464 N   0  0  0  0  0  0  0  0  0  0  0  0
  150.8821  138.6007  157.7971 C   0  0  0  0  0  0  0  0  0  0  0  0
  150.8659  137.2576  157.9104 C   0  0  0  0  0  0  0  0  0  0  0  0
  150.0976  136.6742  158.8464 F   0  0  0  0  0  0  0  0  0  0  0  0
  151.6907  136.4478  157.0157 C   0  0  0  0  0  0  0  0  0  0  0  0
  151.6651  135.2223  157.1164 O   0  0  0  0  0  0  0  0  0  0  0  0
  152.4647  137.0979  156.0984 N   0  5  0  0  0  0  0  0  0  0  0  0
  152.4920  138.4585  155.9868 C   0  0  0  0  0  0  0  0  0  0  0  0
  153.2114  139.0511  155.1827 O   0  0  0  0  0  0  0  0  0  0  0  0
  152.2221  141.4097  158.0415 C   0  0  2  0  0  0  0  0  0  0  0  0
  152.8223  140.4687  158.9268 O   0  0  0  0  0  0  0  0  0  0  0  0
  153.3992  140.8772  160.0673 C   0  0  0  0  0  0  0  0  0  0  0  0
  154.1110  139.7428  160.7918 C   0  0  0  0  0  0  0  0  0  0  0  0
  153.3805  142.0210  160.5225 O   0  0  0  0  0  0  0  0  0  0  0  0
  150.9729  142.0165  158.6612 C   0  0  1  0  0  0  0  0  0  0  0  0
  151.3023  143.2401  159.3051 O   0  0  0  0  0  0  0  0  0  0  0  0
  151.7169  144.2946  158.5830 C   0  0  0  0  0  0  0  0  0  0  0  0
  151.9568  145.5278  159.4435 C   0  0  0  0  0  0  0  0  0  0  0  0
  151.9020  144.3144  157.3661 O   0  0  0  0  0  0  0  0  0  0  0  0
  147.4702  145.3048  160.0169 H   0  0  0  0  0  0  0  0  0  0  0  0
  147.6610  144.1841  161.3731 H   0  0  0  0  0  0  0  0  0  0  0  0
  146.0473  144.5425  160.7402 H   0  0  0  0  0  0  0  0  0  0  0  0
  148.1972  141.3598  158.0649 H   0  0  0  0  0  0  0  0  0  0  0  0
  148.0368  142.5991  156.8285 H   0  0  0  0  0  0  0  0  0  0  0  0
  150.3924  143.1613  156.9340 H   0  0  0  0  0  0  0  0  0  0  0  0
  152.2482  141.0111  155.8693 H   0  0  0  0  0  0  0  0  0  0  0  0
  150.2769  139.1891  158.4698 H   0  0  0  0  0  0  0  0  0  0  0  0
  152.9219  142.1872  157.7302 H   0  0  0  0  0  0  0  0  0  0  0  0
  153.3850  139.0247  161.1731 H   0  0  0  0  0  0  0  0  0  0  0  0
  154.6918  140.1275  161.6303 H   0  0  0  0  0  0  0  0  0  0  0  0
  154.7874  139.2244  160.1116 H   0  0  0  0  0  0  0  0  0  0  0  0
  150.5243  141.2888  159.3395 H   0  0  0  0  0  0  0  0  0  0  0  0
  152.8905  145.4260  159.9967 H   0  0  0  0  0  0  0  0  0  0  0  0
  151.1427  145.6591  160.1566 H   0  0  0  0  0  0  0  0  0  0  0  0
  152.0183  146.4215  158.8220 H   0  0  0  0  0  0  0  0  0  0  0  0
  1  2  1  0  0  0  0
  1 28  1  0  0  0  0
  1 29  1  0  0  0  0
  1 30  1  0  0  0  0
  2  3  2  0  0  0  0
  2  4  1  0  0  0  0
  4  5  1  0  0  0  0
  5  6  1  0  0  0  0
  5 31  1  0  0  0  0
  5 32  1  0  0  0  0
  6 23  1  0  0  0  0
  6  7  1  0  0  0  0
  6 33  1  0  0  0  0
  7  8  1  0  0  0  0
  8  9  1  0  0  0  0
  8 18  1  0  0  0  0
  8 34  1  0  0  0  0
  9 16  1  0  0  0  0
  9 10  1  0  0  0  0
 10 11  2  0  0  0  0
 10 35  1  0  0  0  0
 11 12  1  0  0  0  0
 11 13  1  0  0  0  0
 13 14  2  0  0  0  0
 13 15  1  0  0  0  0
 15 16  1  0  0  0  0
 16 17  2  0  0  0  0
 18 19  1  0  0  0  0
 18 23  1  0  0  0  0
 18 36  1  0  0  0  0
 19 20  1  0  0  0  0
 20 21  1  0  0  0  0
 20 22  2  0  0  0  0
 21 37  1  0  0  0  0
 21 38  1  0  0  0  0
 21 39  1  0  0  0  0
 23 24  1  0  0  0  0
 23 40  1  0  0  0  0
 24 25  1  0  0  0  0
 25 26  1  0  0  0  0
 25 27  2  0  0  0  0
 26 41  1  0  0  0  0
 26 42  1  0  0  0  0
 26 43  1  0  0  0  0
M  CHG  1  15  -1
M  END
> <s_m_source_file>
AV-unprocessed.smi

> <i_m_source_file_index>
102

> <i_lp_mmshare_version>
43012

> <i_f3d_flags>
0

> <s_epik_input>
W0NIM11DKD1PKU9bQ0gyXVtDQEBIXTFPW0NASF0oW0NAQEhdKE9DKD1PKVtDSDNdKVtDQEhdMU9DKD1PKVtDSDNdKW4yW2NIXWMoRiljKD1PKVtuSF1jMj1P

> <s_epik_cmdline>
J2VwaWtfcHl0aG9uJywgJy1waCcsICc3LjAnLCAnLXRuJywgJzgnLCAnLW1hJywgJzIwMCcsICctbWV0YWxfYmluZGluZycsICctaW1hZScsICc8aW5maWxlLm1hZT4nLCAnLW9tYWUnLCAnPG91dGZpbGUubWFlPic=

> <r_epik_Ionization_Penalty>
1.40304

> <r_epik_Ionization_Penalty_Charging>
1.43915e-08

> <r_epik_Ionization_Penalty_Neutral>
1.40304

> <r_epik_State_Penalty>
1.48536

> <r_epik_Charging_Adjusted_Penalty>
1.48536

> <i_epik_Tot_Q>
-1

> <i_epik_Tot_abs_Q>
1

> <r_epik_Metal_State_Penalty>
0.00663881

> <b_epik_Metal_Only>
0

> <s_epik_Chemistry_Notes>
This compound has an ester and may undergo hydrolysis at high or low pH. This compound contains an acetal/aminal-like group ( X-CH(R)-Y where X, Y are N, S, or O) that may be acid/base labile, releasing an aldehyde.

> <s_lp_Force_Field>
OPLS_2005

> <r_lp_Energy>
21.6407

> <b_lp_Chiralities_Consistent>
1

> <s_lp_Variant>
AV-unprocessed.smi:102-23

> <Gold.Version>
5.8.1

> <Gold.Id.Protein>
6NUR|6NUR_protein|mol2

> <Gold.PLP.Fitness>
48.1602

> <Gold.PLP.PLP>
-37.4662

> <Gold.PLP.part.hbond>
-4.0000

> <Gold.PLP.part.metal>
0.0000

> <Gold.PLP.part.buried>
-6.1437

> <Gold.PLP.part.nonpolar>
-26.6946

> <Gold.PLP.part.repulsive>
0.9022

> <Gold.PLP.ligand.clash>
0.0000

> <Gold.PLP.ligand.torsion>
0.3177

> <Gold.PLP.Chemscore.Hbond>
3.7446

> <Gold.PLP.Chemscore.CHOScore>
0.0000

> <Gold.PLP.Chemscore.Metal>
0.0000

> <Gold.Chemscore.Hbonds>
donor molecule, donor type, donor heavy atom, donor atom, acceptor molecule, acceptor atom, score
      P1  H  6934  6946       L1     3  1.00
      P1  H  7997  8010       L1    17  1.00
      P1  H 10752 10765       L1    15  1.74

> <Gold.PLP.Chemscore.Internal.Correction>
0.0955

> <Gold.Rescore>
     Score         DG    S(hbond)    S(metal)    S(lipo)     H(rot)  DE(clash)    DE(int)     intcor
      3.65      -9.27       2.30        0.00      54.00       4.00       0.13       5.48       ----

> <Gold.Chemscore.Fitness>
3.6550

> <Gold.Chemscore.DG>
-9.2667

> <Gold.Chemscore.ZeroCoef>
-5.4800

> <Gold.Chemscore.Hbond>
2.3043

> <Gold.Chemscore.Metal>
0.0000

> <Gold.Chemscore.Lipo>
53.9970

> <Gold.Chemscore.Internal_Hbond>
0.0000

> <Gold.Chemscore.DEClash>
0.1314

> <Gold.Chemscore.DEInternal>
5.4804

> <Gold.Chemscore.Rot>
3.9951

> <Gold.Chemscore.Internal.Correction>
   9.000000E+99

> <Gold.Chemscore.Hbonds>
donor molecule, donor type, donor heavy atom, donor atom, acceptor molecule, acceptor atom, score
      P1  H  6934  6946       L1     3  0.66
      P1  H  7997  8010       L1    17  0.96
      P1  H 10752 10765       L1    15  0.21

> <Gold.Chemscore.Hbond.Weighted>
-7.6965

> <Gold.Chemscore.Metal.Weighted>
-0.0000

> <Gold.Chemscore.Lipo.Weighted>
-6.3176

> <Gold.Chemscore.Internal_Hbond.Weighted>
0.0000

> <Gold.Chemscore.DEClash.Weighted>
0.1314

> <Gold.Chemscore.DEInternal.Weighted>
5.4804

> <Gold.Chemscore.Rot.Weighted>
10.2274

> <Gold.Chemscore.Internal.Correction.Weighted>
   9.000000E+99

> <Gold.Protein.RotatedTorsions>
[ 6907 6896 6895 6894 ] final   -1.13 input  -60.11 | X-H torsion
[ 7974 7965 7964 7962 ] final  170.71 input  175.53 | X-H torsion
[ 8008 7997 7996 7995 ] final  110.30 input   59.86 | X-H torsion
[ 10167 10162 10161 10158 ] final  -34.03 input  -65.29 | X-H torsion
[ 10718 10713 10712 10709 ] final  -14.30 input   66.30 | X-H torsion
[ 10763 10752 10751 10750 ] final -150.50 input  -60.55 | X-H torsion
[ 11005 11000 10999 10996 ] final  152.53 input  -57.11 | X-H torsion

> <Gold.Protein.ActiveResidues>
 VAL166  LYS551  ARG553  GLY616  TRP617  ASP618  TYR619  PRO620  LYS621  CYS622 
 ASP623  PHE694  ASN695  SER759  ASP760  ASP761  ALA762  ILE779  LEU786  VAL792 
 PHE793  MET794  SER795  GLU796  ALA797  LYS798  CYS799  TRP800  GLU811  SER814 

> <Gold.Protein.RotatedAtoms>
  151.5511  135.1067  159.9949 H   0  0  0  0  0  0  0  0  0  0  0  0  # atno 6907 bound_to 6896
  152.4491  133.7589  159.6746 H   0  0  0  0  0  0  0  0  0  0  0  0  # atno 6908 bound_to 6896
  150.8414  133.7863  159.3083 H   0  0  0  0  0  0  0  0  0  0  0  0  # atno 6909 bound_to 6896
  144.7316  139.9242  143.6421 H   0  0  0  0  0  0  0  0  0  0  0  0  # atno 7974 bound_to 7965
  156.2042  140.3041  155.9592 H   0  0  0  0  0  0  0  0  0  0  0  0  # atno 8008 bound_to 7997
  155.2880  140.0441  157.3038 H   0  0  0  0  0  0  0  0  0  0  0  0  # atno 8009 bound_to 7997
  154.5611  140.2320  155.8342 H   0  0  0  0  0  0  0  0  0  0  0  0  # atno 8010 bound_to 7997
  140.7193  143.3577  151.2025 H   0  0  0  0  0  0  0  0  0  0  0  0  # atno 10167 bound_to 10162
  156.6179  130.4867  149.6176 H   0  0  0  0  0  0  0  0  0  0  0  0  # atno 10718 bound_to 10713
  154.8115  135.3283  154.7292 H   0  0  0  0  0  0  0  0  0  0  0  0  # atno 10763 bound_to 10752
  153.7941  135.6909  153.4871 H   0  0  0  0  0  0  0  0  0  0  0  0  # atno 10764 bound_to 10752
  153.1897  135.4555  155.0080 H   0  0  0  0  0  0  0  0  0  0  0  0  # atno 10765 bound_to 10752
  140.1316  134.8798  157.2211 H   0  0  0  0  0  0  0  0  0  0  0  0  # atno 11005 bound_to 11000
  146.0907  139.3896  143.0408 LP  0  0  0  0  0  0  0  0  0  0  0  0  # atno 17320 bound_to 7965
  145.7715  140.9894  143.1147 LP  0  0  0  0  0  0  0  0  0  0  0  0  # atno 17321 bound_to 7965
  139.7122  143.9358  152.2952 LP  0  0  0  0  0  0  0  0  0  0  0  0  # atno 17342 bound_to 10162
  139.9086  144.6869  150.8586 LP  0  0  0  0  0  0  0  0  0  0  0  0  # atno 17343 bound_to 10162
  156.2335  130.6809  151.1487 LP  0  0  0  0  0  0  0  0  0  0  0  0  # atno 17370 bound_to 10713
  157.7236  131.0665  150.6031 LP  0  0  0  0  0  0  0  0  0  0  0  0  # atno 17371 bound_to 10713
  140.2835  134.3322  155.7336 LP  0  0  0  0  0  0  0  0  0  0  0  0  # atno 17394 bound_to 11000
  141.2171  133.7492  156.9399 LP  0  0  0  0  0  0  0  0  0  0  0  0  # atno 17395 bound_to 11000

$$$$
