AV-unprocessed.smi:527|AV-procd|sdf|2819|dock7
  -GOLD-   2262023303D 1   1.00000     0.00000
 Structure written by MMmdl.
 42 43  0  0  0  0  0  0  0  0  1 V2000
  149.4202  140.8662  156.1340 C   0  0  0  0  0  0  0  0  0  0  0  0
  149.3472  140.8105  154.5942 C   0  0  2  0  0  0  0  0  0  0  0  0
  148.2233  141.7132  154.0465 C   0  0  0  0  0  0  0  0  0  0  0  0
  146.8278  141.1264  154.3092 C   0  0  0  0  0  0  0  0  0  0  0  0
  146.7059  139.7071  153.7376 C   0  0  0  0  0  0  0  0  0  0  0  0
  147.8135  138.7737  154.2706 C   0  0  1  0  0  0  0  0  0  0  0  0
  147.6992  137.4614  153.6365 N   0  0  0  0  0  0  0  0  0  0  0  0
  146.8501  136.4905  154.0047 C   0  0  0  0  0  0  0  0  0  0  0  0
  146.0334  136.6161  154.9199 O   0  0  0  0  0  0  0  0  0  0  0  0
  147.0200  135.3893  153.2477 N   0  0  0  0  0  0  0  0  0  0  0  0
  146.1830  134.3391  153.1229 C   0  0  0  0  0  0  0  0  0  0  0  0
  145.0967  134.2316  153.6980 O   0  0  0  0  0  0  0  0  0  0  0  0
  146.6800  133.2317  152.1839 C   0  0  0  0  0  0  0  0  0  0  0  0
  145.7835  132.9861  151.0668 N   0  0  0  0  0  0  0  0  0  0  0  0
  144.5878  133.6378  150.7909 C   0  0  0  0  0  0  0  0  0  0  0  0
  144.0900  133.0744  149.6377 C   0  0  0  0  0  0  0  0  0  0  0  0
  144.9572  132.0810  149.1889 N   0  0  0  0  0  0  0  0  0  0  0  0
  145.9370  132.0879  150.0837 C   0  0  0  0  0  0  0  0  0  0  0  0
  149.2196  139.3760  154.0149 C   0  0  2  0  0  0  0  0  0  0  0  0
  150.3639  138.4525  154.4780 C   0  0  0  0  0  0  0  0  0  0  0  0
  148.5442  140.4215  156.6049 H   0  0  0  0  0  0  0  0  0  0  0  0
  149.4897  141.8970  156.4823 H   0  0  0  0  0  0  0  0  0  0  0  0
  150.2990  140.3449  156.5125 H   0  0  0  0  0  0  0  0  0  0  0  0
  150.2880  141.2260  154.2302 H   0  0  0  0  0  0  0  0  0  0  0  0
  148.2955  142.7120  154.4785 H   0  0  0  0  0  0  0  0  0  0  0  0
  148.3575  141.8410  152.9717 H   0  0  0  0  0  0  0  0  0  0  0  0
  146.6237  141.1105  155.3800 H   0  0  0  0  0  0  0  0  0  0  0  0
  146.0673  141.7688  153.8646 H   0  0  0  0  0  0  0  0  0  0  0  0
  145.7223  139.3029  153.9802 H   0  0  0  0  0  0  0  0  0  0  0  0
  146.7577  139.7547  152.6489 H   0  0  0  0  0  0  0  0  0  0  0  0
  147.6824  138.6511  155.3471 H   0  0  0  0  0  0  0  0  0  0  0  0
  148.3256  137.2773  152.8668 H   0  0  0  0  0  0  0  0  0  0  0  0
  147.8746  135.3427  152.7130 H   0  0  0  0  0  0  0  0  0  0  0  0
  147.6621  133.4990  151.7913 H   0  0  0  0  0  0  0  0  0  0  0  0
  146.7984  132.3047  152.7465 H   0  0  0  0  0  0  0  0  0  0  0  0
  144.2021  134.4273  151.4189 H   0  0  0  0  0  0  0  0  0  0  0  0
  143.1818  133.3056  149.1007 H   0  0  0  0  0  0  0  0  0  0  0  0
  146.7865  131.4238  150.0227 H   0  0  0  0  0  0  0  0  0  0  0  0
  149.3305  139.4733  152.9334 H   0  0  0  0  0  0  0  0  0  0  0  0
  150.2682  138.1920  155.5323 H   0  0  0  0  0  0  0  0  0  0  0  0
  151.3342  138.9293  154.3371 H   0  0  0  0  0  0  0  0  0  0  0  0
  150.3797  137.5209  153.9124 H   0  0  0  0  0  0  0  0  0  0  0  0
  1  2  1  0  0  0  0
  1 21  1  0  0  0  0
  1 22  1  0  0  0  0
  1 23  1  0  0  0  0
  2 19  1  0  0  0  0
  2  3  1  0  0  0  0
  2 24  1  0  0  0  0
  3  4  1  0  0  0  0
  3 25  1  0  0  0  0
  3 26  1  0  0  0  0
  4  5  1  0  0  0  0
  4 27  1  0  0  0  0
  4 28  1  0  0  0  0
  5  6  1  0  0  0  0
  5 29  1  0  0  0  0
  5 30  1  0  0  0  0
  6  7  1  0  0  0  0
  6 19  1  0  0  0  0
  6 31  1  0  0  0  0
  7  8  1  0  0  0  0
  7 32  1  0  0  0  0
  8  9  2  0  0  0  0
  8 10  1  0  0  0  0
 10 11  1  0  0  0  0
 10 33  1  0  0  0  0
 11 12  2  0  0  0  0
 11 13  1  0  0  0  0
 13 14  1  0  0  0  0
 13 34  1  0  0  0  0
 13 35  1  0  0  0  0
 14 18  1  0  0  0  0
 14 15  1  0  0  0  0
 15 16  2  0  0  0  0
 15 36  1  0  0  0  0
 16 17  1  0  0  0  0
 16 37  1  0  0  0  0
 17 18  2  0  0  0  0
 18 38  1  0  0  0  0
 19 20  1  0  0  0  0
 19 39  1  0  0  0  0
 20 40  1  0  0  0  0
 20 41  1  0  0  0  0
 20 42  1  0  0  0  0
M  END
> <s_m_source_file>
AV-unprocessed.smi

> <i_m_source_file_index>
527

> <i_lp_mmshare_version>
43012

> <i_f3d_flags>
0

> <s_epik_input>
W0NIM11bQ0BASF0xW0NIMl1bQ0gyXVtDSDJdW0NASF0oW0NASF0xW0NIM10pW05IXUMoPU8pW05IXUMoPU8pW0NIMl1uMltjSF1bY0hdbltjSF0y

> <s_epik_cmdline>
J2VwaWtfcHl0aG9uJywgJy1waCcsICc3LjAnLCAnLXRuJywgJzgnLCAnLW1hJywgJzIwMCcsICctbWV0YWxfYmluZGluZycsICctaW1hZScsICc8aW5maWxlLm1hZT4nLCAnLW9tYWUnLCAnPG91dGZpbGUubWFlPic=

> <r_lp_tautomer_probability>
1

> <r_epik_Ionization_Penalty>
0.172132

> <r_epik_Ionization_Penalty_Charging>
0.172105

> <r_epik_Ionization_Penalty_Neutral>
2.71747e-05

> <r_epik_State_Penalty>
0.161503

> <r_epik_Charging_Adjusted_Penalty>
0.333607

> <i_epik_Tot_Q>
0

> <i_epik_Tot_abs_Q>
0

> <r_epik_Metal_State_Penalty>
0.124763

> <b_epik_Metal_Only>
0

> <s_lp_Force_Field>
OPLS_2005

> <r_lp_Energy>
17.7357

> <b_lp_Chiralities_Consistent>
1

> <s_lp_Variant>
AV-unprocessed.smi:527-5

> <Gold.Version>
5.8.1

> <Gold.Id.Protein>
6NUR|6NUR_protein|mol2

> <Gold.PLP.Fitness>
43.3825

> <Gold.PLP.PLP>
-32.3798

> <Gold.PLP.part.hbond>
-2.2259

> <Gold.PLP.part.metal>
0.0000

> <Gold.PLP.part.buried>
-2.2264

> <Gold.PLP.part.nonpolar>
-28.0499

> <Gold.PLP.part.repulsive>
0.3123

> <Gold.PLP.ligand.clash>
0.0000

> <Gold.PLP.ligand.torsion>
0.3729

> <Gold.PLP.Chemscore.Hbond>
1.9120

> <Gold.PLP.Chemscore.CHOScore>
2.0000

> <Gold.PLP.Chemscore.Metal>
0.0000

> <Gold.Chemscore.Hbonds>
donor molecule, donor type, donor heavy atom, donor atom, acceptor molecule, acceptor atom, score
      L1  H     7    32       P1  7948  0.99
      L1  H    10    33       P1  7948  0.91
      L1  C    16    37       P1 10186  1.00
      L1  C    18    38       P1 10747  1.00

> <Gold.PLP.Chemscore.Internal.Correction>
0.0124

> <Gold.Rescore>
     Score         DG    S(hbond)    S(metal)    S(lipo)     H(rot)  DE(clash)    DE(int)     intcor
     13.78     -15.60       1.92        0.00      67.98       1.66       0.04       1.78       ----

> <Gold.Chemscore.Fitness>
13.7814

> <Gold.Chemscore.DG>
-15.5977

> <Gold.Chemscore.ZeroCoef>
-5.4800

> <Gold.Chemscore.Hbond>
1.9226

> <Gold.Chemscore.Metal>
0.0000

> <Gold.Chemscore.Lipo>
67.9759

> <Gold.Chemscore.Internal_Hbond>
0.0000

> <Gold.Chemscore.DEClash>
0.0381

> <Gold.Chemscore.DEInternal>
1.7782

> <Gold.Chemscore.Rot>
1.6629

> <Gold.Chemscore.Internal.Correction>
   9.000000E+99

> <Gold.Chemscore.Hbonds>
donor molecule, donor type, donor heavy atom, donor atom, acceptor molecule, acceptor atom, score
      L1  H     7    32       P1  7948  0.91
      L1  H    10    33       P1  7948  0.87

> <Gold.Chemscore.Hbond.Weighted>
-6.4214

> <Gold.Chemscore.Metal.Weighted>
-0.0000

> <Gold.Chemscore.Lipo.Weighted>
-7.9532

> <Gold.Chemscore.Internal_Hbond.Weighted>
0.0000

> <Gold.Chemscore.DEClash.Weighted>
0.0381

> <Gold.Chemscore.DEInternal.Weighted>
1.7782

> <Gold.Chemscore.Rot.Weighted>
4.2569

> <Gold.Chemscore.Internal.Correction.Weighted>
   9.000000E+99

> <Gold.Protein.RotatedTorsions>
[ 6907 6896 6895 6894 ] final -133.68 input  -60.11 | X-H torsion
[ 7974 7965 7964 7962 ] final   23.45 input  175.53 | X-H torsion
[ 8008 7997 7996 7995 ] final   31.36 input   59.86 | X-H torsion
[ 10167 10162 10161 10158 ] final  -52.33 input  -65.29 | X-H torsion
[ 10718 10713 10712 10709 ] final  -91.61 input   66.30 | X-H torsion
[ 10763 10752 10751 10750 ] final  -73.64 input  -60.55 | X-H torsion
[ 11005 11000 10999 10996 ] final  133.60 input  -57.11 | X-H torsion

> <Gold.Protein.ActiveResidues>
 VAL166  LYS551  ARG553  GLY616  TRP617  ASP618  TYR619  PRO620  LYS621  CYS622 
 ASP623  PHE694  ASN695  SER759  ASP760  ASP761  ALA762  ILE779  LEU786  VAL792 
 PHE793  MET794  SER795  GLU796  ALA797  LYS798  CYS799  TRP800  GLU811  SER814 

> <Gold.Protein.RotatedAtoms>
  150.9769  133.6286  159.2728 H   0  0  0  0  0  0  0  0  0  0  0  0  # atno 6907 bound_to 6896
  151.3554  135.0892  159.9427 H   0  0  0  0  0  0  0  0  0  0  0  0  # atno 6908 bound_to 6896
  152.5202  133.9353  159.7655 H   0  0  0  0  0  0  0  0  0  0  0  0  # atno 6909 bound_to 6896
  146.1984  139.7743  142.8780 H   0  0  0  0  0  0  0  0  0  0  0  0  # atno 7974 bound_to 7965
  155.1052  140.3233  155.4536 H   0  0  0  0  0  0  0  0  0  0  0  0  # atno 8008 bound_to 7997
  156.2706  140.2054  156.6124 H   0  0  0  0  0  0  0  0  0  0  0  0  # atno 8009 bound_to 7997
  154.6798  140.0527  157.0241 H   0  0  0  0  0  0  0  0  0  0  0  0  # atno 8010 bound_to 7997
  140.6543  143.2588  151.4632 H   0  0  0  0  0  0  0  0  0  0  0  0  # atno 10167 bound_to 10162
  155.9995  130.4954  150.5500 H   0  0  0  0  0  0  0  0  0  0  0  0  # atno 10718 bound_to 10713
  154.4622  135.5891  153.6263 H   0  0  0  0  0  0  0  0  0  0  0  0  # atno 10763 bound_to 10752
  152.9824  135.6046  154.3472 H   0  0  0  0  0  0  0  0  0  0  0  0  # atno 10764 bound_to 10752
  154.3345  135.2842  155.2434 H   0  0  0  0  0  0  0  0  0  0  0  0  # atno 10765 bound_to 10752
  139.9862  134.9531  156.9748 H   0  0  0  0  0  0  0  0  0  0  0  0  # atno 11005 bound_to 11000
  145.3568  141.0318  143.3307 LP  0  0  0  0  0  0  0  0  0  0  0  0  # atno 17320 bound_to 7965
  144.8629  139.5151  143.6804 LP  0  0  0  0  0  0  0  0  0  0  0  0  # atno 17321 bound_to 7965
  139.5763  144.1812  152.1907 LP  0  0  0  0  0  0  0  0  0  0  0  0  # atno 17342 bound_to 10162
  140.1124  144.5445  150.6916 LP  0  0  0  0  0  0  0  0  0  0  0  0  # atno 17343 bound_to 10162
  157.3424  131.0719  151.1777 LP  0  0  0  0  0  0  0  0  0  0  0  0  # atno 17370 bound_to 10713
  157.2621  130.6664  149.5979 LP  0  0  0  0  0  0  0  0  0  0  0  0  # atno 17371 bound_to 10713
  140.4998  134.1109  155.7248 LP  0  0  0  0  0  0  0  0  0  0  0  0  # atno 17394 bound_to 11000
  141.1526  133.8940  157.2058 LP  0  0  0  0  0  0  0  0  0  0  0  0  # atno 17395 bound_to 11000

$$$$
