AV-unprocessed.smi:1697|AV-procd|sdf|6812|dock1
  -GOLD-   22720 7593D 1   1.00000     0.00000
 Structure written by MMmdl.
 53 55  0  0  0  0  0  0  0  0  1 V2000
  143.5529  147.5188  155.4821 C   0  0  0  0  0  0  0  0  0  0  0  0
  143.5362  146.0649  154.9899 C   0  0  0  0  0  0  0  0  0  0  0  0
  144.2357  145.1972  155.8726 O   0  0  0  0  0  0  0  0  0  0  0  0
  144.6542  143.9622  155.3033 C   0  0  0  0  0  0  0  0  0  0  0  0
  145.5857  143.2340  156.2856 C   0  0  0  0  0  0  0  0  0  0  0  0
  146.1894  141.9845  155.6226 C   0  0  0  0  0  0  0  0  0  0  0  0
  146.9258  142.2941  154.3951 N   0  0  0  0  0  0  0  0  0  0  0  0
  147.5320  141.0802  153.8425 C   0  0  0  0  0  0  0  0  0  0  0  0
  148.9499  140.7486  154.3509 C   0  0  1  0  0  0  0  0  0  0  0  0
  149.8426  140.8140  153.2560 O   0  0  0  0  0  0  0  0  0  0  0  0
  149.4054  141.7420  155.4366 C   0  0  0  0  0  0  0  0  0  0  0  0
  150.3776  141.1650  156.3482 N   0  0  0  0  0  0  0  0  0  0  0  0
  150.9634  139.9567  156.2459 C   0  0  0  0  0  0  0  0  0  0  0  0
  151.8289  139.6163  157.1963 N   0  0  0  0  0  0  0  0  0  0  0  0
  151.8013  140.7351  158.0112 C   0  0  0  0  0  0  0  0  0  0  0  0
  152.5000  141.0152  159.2059 C   0  0  0  0  0  0  0  0  0  0  0  0
  152.3137  142.2408  159.8840 C   0  0  0  0  0  0  0  0  0  0  0  0
  153.0838  142.4989  161.1670 C   0  0  0  0  0  0  0  0  0  0  0  0
  151.4175  143.2103  159.3663 C   0  0  0  0  0  0  0  0  0  0  0  0
  151.2011  144.5339  160.0781 C   0  0  0  0  0  0  0  0  0  0  0  0
  150.7124  142.9469  158.1732 C   0  0  0  0  0  0  0  0  0  0  0  0
  150.9040  141.7226  157.5087 C   0  0  0  0  0  0  0  0  0  0  0  0
  146.0314  142.9571  153.4388 C   0  0  0  0  0  0  0  0  0  0  0  0
  145.4151  144.2499  154.0005 C   0  0  0  0  0  0  0  0  0  0  0  0
  143.0788  148.1775  154.7542 H   0  0  0  0  0  0  0  0  0  0  0  0
  144.5747  147.8681  155.6318 H   0  0  0  0  0  0  0  0  0  0  0  0
  143.0168  147.6326  156.4242 H   0  0  0  0  0  0  0  0  0  0  0  0
  142.5152  145.7132  154.8344 H   0  0  0  0  0  0  0  0  0  0  0  0
  144.0305  146.0147  154.0196 H   0  0  0  0  0  0  0  0  0  0  0  0
  143.8045  143.3168  155.0706 H   0  0  0  0  0  0  0  0  0  0  0  0
  146.3879  143.9025  156.6014 H   0  0  0  0  0  0  0  0  0  0  0  0
  145.0418  142.9531  157.1875 H   0  0  0  0  0  0  0  0  0  0  0  0
  146.8557  141.4996  156.3373 H   0  0  0  0  0  0  0  0  0  0  0  0
  145.3950  141.2677  155.4077 H   0  0  0  0  0  0  0  0  0  0  0  0
  146.8916  140.2233  154.0577 H   0  0  0  0  0  0  0  0  0  0  0  0
  147.5521  141.1625  152.7546 H   0  0  0  0  0  0  0  0  0  0  0  0
  148.9916  139.7440  154.7689 H   0  0  0  0  0  0  0  0  0  0  0  0
  149.6460  140.0992  152.6697 H   0  0  0  0  0  0  0  0  0  0  0  0
  149.8349  142.6364  154.9832 H   0  0  0  0  0  0  0  0  0  0  0  0
  148.5481  142.0736  156.0238 H   0  0  0  0  0  0  0  0  0  0  0  0
  150.7414  139.2892  155.4260 H   0  0  0  0  0  0  0  0  0  0  0  0
  153.1826  140.2764  159.5994 H   0  0  0  0  0  0  0  0  0  0  0  0
  152.3973  142.6598  161.9986 H   0  0  0  0  0  0  0  0  0  0  0  0
  153.7156  143.3811  161.0625 H   0  0  0  0  0  0  0  0  0  0  0  0
  153.7263  141.6556  161.4223 H   0  0  0  0  0  0  0  0  0  0  0  0
  150.4848  145.1597  159.5452 H   0  0  0  0  0  0  0  0  0  0  0  0
  152.1380  145.0862  160.1517 H   0  0  0  0  0  0  0  0  0  0  0  0
  150.8163  144.3675  161.0843 H   0  0  0  0  0  0  0  0  0  0  0  0
  150.0289  143.6773  157.7660 H   0  0  0  0  0  0  0  0  0  0  0  0
  146.5696  143.2129  152.5279 H   0  0  0  0  0  0  0  0  0  0  0  0
  145.2334  142.2739  153.1439 H   0  0  0  0  0  0  0  0  0  0  0  0
  144.7441  144.6961  153.2659 H   0  0  0  0  0  0  0  0  0  0  0  0
  146.2050  144.9795  154.1854 H   0  0  0  0  0  0  0  0  0  0  0  0
  1  2  1  0  0  0  0
  1 25  1  0  0  0  0
  1 26  1  0  0  0  0
  1 27  1  0  0  0  0
  2  3  1  0  0  0  0
  2 28  1  0  0  0  0
  2 29  1  0  0  0  0
  3  4  1  0  0  0  0
  4 24  1  0  0  0  0
  4  5  1  0  0  0  0
  4 30  1  0  0  0  0
  5  6  1  0  0  0  0
  5 31  1  0  0  0  0
  5 32  1  0  0  0  0
  6  7  1  0  0  0  0
  6 33  1  0  0  0  0
  6 34  1  0  0  0  0
  7  8  1  0  0  0  0
  7 23  1  0  0  0  0
  8  9  1  0  0  0  0
  8 35  1  0  0  0  0
  8 36  1  0  0  0  0
  9 10  1  0  0  0  0
  9 11  1  0  0  0  0
  9 37  1  0  0  0  0
 10 38  1  0  0  0  0
 11 12  1  0  0  0  0
 11 39  1  0  0  0  0
 11 40  1  0  0  0  0
 12 22  1  0  0  0  0
 12 13  1  0  0  0  0
 13 14  2  0  0  0  0
 13 41  1  0  0  0  0
 14 15  1  0  0  0  0
 15 22  2  0  0  0  0
 15 16  1  0  0  0  0
 16 17  2  0  0  0  0
 16 42  1  0  0  0  0
 17 18  1  0  0  0  0
 17 19  1  0  0  0  0
 18 43  1  0  0  0  0
 18 44  1  0  0  0  0
 18 45  1  0  0  0  0
 19 20  1  0  0  0  0
 19 21  2  0  0  0  0
 20 46  1  0  0  0  0
 20 47  1  0  0  0  0
 20 48  1  0  0  0  0
 21 22  1  0  0  0  0
 21 49  1  0  0  0  0
 23 24  1  0  0  0  0
 23 50  1  0  0  0  0
 23 51  1  0  0  0  0
 24 52  1  0  0  0  0
 24 53  1  0  0  0  0
M  END
> <s_m_source_file>
AV-unprocessed.smi

> <i_m_source_file_index>
1697

> <i_lp_mmshare_version>
43012

> <i_f3d_flags>
0

> <s_epik_input>
W0NIM11bQ0gyXU9bQ0hdMVtDSDJdW0NIMl1OKFtDSDJdW0NIMl0xKVtDSDJdW0NASF0oW09IXSlbQ0gyXW4oW2NIXW4yKWMoYzIzKVtjSF1jKFtDSDNdKWMoW2NIXTMpW0NIM10=

> <s_epik_cmdline>
J2VwaWtfcHl0aG9uJywgJy1waCcsICc3LjAnLCAnLXRuJywgJzgnLCAnLW1hJywgJzIwMCcsICctbWV0YWxfYmluZGluZycsICctaW1hZScsICc8aW5maWxlLm1hZT4nLCAnLW9tYWUnLCAnPG91dGZpbGUubWFlPic=

> <r_epik_Ionization_Penalty>
1.9836

> <r_epik_Ionization_Penalty_Charging>
0

> <r_epik_Ionization_Penalty_Neutral>
1.9836

> <r_epik_State_Penalty>
2.07269

> <r_epik_Charging_Adjusted_Penalty>
2.07269

> <i_epik_Tot_Q>
0

> <i_epik_Tot_abs_Q>
0

> <r_epik_Metal_State_Penalty>
2.00215

> <b_epik_Metal_Only>
0

> <s_lp_Force_Field>
OPLS_2005

> <r_lp_Energy>
35.1996

> <b_lp_Chiralities_Consistent>
1

> <s_lp_Variant>
AV-unprocessed.smi:1697-10

> <Gold.Version>
5.8.1

> <Gold.Id.Protein>
6NUR|6NUR_protein|mol2

> <Gold.PLP.Fitness>
52.0620

> <Gold.PLP.PLP>
-49.5382

> <Gold.PLP.part.hbond>
-1.5432

> <Gold.PLP.part.metal>
0.0000

> <Gold.PLP.part.buried>
-4.7075

> <Gold.PLP.part.nonpolar>
-42.8247

> <Gold.PLP.part.repulsive>
0.2337

> <Gold.PLP.ligand.clash>
0.0000

> <Gold.PLP.ligand.torsion>
1.6216

> <Gold.PLP.Chemscore.Hbond>
1.7704

> <Gold.PLP.Chemscore.CHOScore>
0.0000

> <Gold.PLP.Chemscore.Metal>
0.0000

> <Gold.Chemscore.Hbonds>
donor molecule, donor type, donor heavy atom, donor atom, acceptor molecule, acceptor atom, score
      L1  H    10    38       P1  7957  0.57
      P1  H  7989  7998       L1    10  0.24
      P1  H  8011  8017       L1    10  1.00

> <Gold.PLP.Chemscore.Internal.Correction>
0.4558

> <Gold.Rescore>
     Score         DG    S(hbond)    S(metal)    S(lipo)     H(rot)  DE(clash)    DE(int)     intcor
     18.56     -20.29       1.46        0.00     132.94       2.19       0.10       1.63       ----

> <Gold.Chemscore.Fitness>
18.5575

> <Gold.Chemscore.DG>
-20.2868

> <Gold.Chemscore.ZeroCoef>
-5.4800

> <Gold.Chemscore.Hbond>
1.4582

> <Gold.Chemscore.Metal>
0.0000

> <Gold.Chemscore.Lipo>
132.9389

> <Gold.Chemscore.Internal_Hbond>
0.0000

> <Gold.Chemscore.DEClash>
0.1008

> <Gold.Chemscore.DEInternal>
1.6285

> <Gold.Chemscore.Rot>
2.1943

> <Gold.Chemscore.Internal.Correction>
   9.000000E+99

> <Gold.Chemscore.Hbonds>
donor molecule, donor type, donor heavy atom, donor atom, acceptor molecule, acceptor atom, score
      L1  H    10    38       P1  7957  0.56
      P1  H  7989  7998       L1    10  0.16
      P1  H  8011  8017       L1    10  0.63

> <Gold.Chemscore.Hbond.Weighted>
-4.8703

> <Gold.Chemscore.Metal.Weighted>
-0.0000

> <Gold.Chemscore.Lipo.Weighted>
-15.5539

> <Gold.Chemscore.Internal_Hbond.Weighted>
0.0000

> <Gold.Chemscore.DEClash.Weighted>
0.1008

> <Gold.Chemscore.DEInternal.Weighted>
1.6285

> <Gold.Chemscore.Rot.Weighted>
5.6174

> <Gold.Chemscore.Internal.Correction.Weighted>
   9.000000E+99

> <Gold.Protein.RotatedTorsions>
[ 6907 6896 6895 6894 ] final  -18.87 input  -60.11 | X-H torsion
[ 7974 7965 7964 7962 ] final  -19.42 input  175.53 | X-H torsion
[ 8008 7997 7996 7995 ] final  121.52 input   59.86 | X-H torsion
[ 10167 10162 10161 10158 ] final -176.05 input  -65.29 | X-H torsion
[ 10718 10713 10712 10709 ] final  122.59 input   66.30 | X-H torsion
[ 10763 10752 10751 10750 ] final  173.23 input  -60.55 | X-H torsion
[ 11005 11000 10999 10996 ] final  102.50 input  -57.11 | X-H torsion

> <Gold.Protein.ActiveResidues>
 VAL166  LYS551  ARG553  GLY616  TRP617  ASP618  TYR619  PRO620  LYS621  CYS622 
 ASP623  PHE694  ASN695  SER759  ASP760  ASP761  ALA762  ILE779  LEU786  VAL792 
 PHE793  MET794  SER795  GLU796  ALA797  LYS798  CYS799  TRP800  GLU811  SER814 

> <Gold.Protein.RotatedAtoms>
  151.2717  135.0686  159.9136 H   0  0  0  0  0  0  0  0  0  0  0  0  # atno 6907 bound_to 6896
  152.5349  134.0124  159.7954 H   0  0  0  0  0  0  0  0  0  0  0  0  # atno 6908 bound_to 6896
  151.0363  133.5695  159.2686 H   0  0  0  0  0  0  0  0  0  0  0  0  # atno 6909 bound_to 6896
  146.1842  140.4059  142.8483 H   0  0  0  0  0  0  0  0  0  0  0  0  # atno 7974 bound_to 7965
  156.2690  140.2806  156.1322 H   0  0  0  0  0  0  0  0  0  0  0  0  # atno 8008 bound_to 7997
  155.1042  140.0390  157.2723 H   0  0  0  0  0  0  0  0  0  0  0  0  # atno 8009 bound_to 7997
  154.6792  140.2605  155.6932 H   0  0  0  0  0  0  0  0  0  0  0  0  # atno 8010 bound_to 7997
  139.5549  144.2014  152.1142 H   0  0  0  0  0  0  0  0  0  0  0  0  # atno 10167 bound_to 10162
  157.5730  131.1081  150.8331 H   0  0  0  0  0  0  0  0  0  0  0  0  # atno 10718 bound_to 10713
  154.4371  135.2761  155.1873 H   0  0  0  0  0  0  0  0  0  0  0  0  # atno 10763 bound_to 10752
  154.3754  135.6099  153.5766 H   0  0  0  0  0  0  0  0  0  0  0  0  # atno 10764 bound_to 10752
  152.9839  135.5867  154.4692 H   0  0  0  0  0  0  0  0  0  0  0  0  # atno 10765 bound_to 10752
  139.8778  134.9226  156.5067 H   0  0  0  0  0  0  0  0  0  0  0  0  # atno 11005 bound_to 11000
  144.8368  140.6794  143.6255 LP  0  0  0  0  0  0  0  0  0  0  0  0  # atno 17320 bound_to 7965
  145.3987  139.1602  143.4189 LP  0  0  0  0  0  0  0  0  0  0  0  0  # atno 17321 bound_to 7965
  140.1516  144.5109  150.6684 LP  0  0  0  0  0  0  0  0  0  0  0  0  # atno 17342 bound_to 10162
  140.6820  143.2331  151.5359 LP  0  0  0  0  0  0  0  0  0  0  0  0  # atno 17343 bound_to 10162
  156.8797  130.5175  149.5291 LP  0  0  0  0  0  0  0  0  0  0  0  0  # atno 17370 bound_to 10713
  156.0775  130.5794  150.9501 LP  0  0  0  0  0  0  0  0  0  0  0  0  # atno 17371 bound_to 10713
  140.8550  133.8103  155.9207 LP  0  0  0  0  0  0  0  0  0  0  0  0  # atno 17394 bound_to 11000
  140.9107  134.2264  157.4987 LP  0  0  0  0  0  0  0  0  0  0  0  0  # atno 17395 bound_to 11000

$$$$
