AV-unprocessed.smi:157|AV-procd|sdf|1308|dock8
  -GOLD-   2262018593D 1   1.00000     0.00000
 Structure written by MMmdl.
 36 38  0  0  0  0  0  0  0  0  2 V2000
  154.9346  139.3247  153.7268 O   0  0  0  0  0  0  0  0  0  0  0  0
  154.0072  138.3001  154.0151 C   0  0  0  0  0  0  0  0  0  0  0  0
  152.6377  138.9052  154.3688 C   0  0  2  0  0  0  0  0  0  0  0  0
  152.6879  139.5943  155.6174 O   0  0  0  0  0  0  0  0  0  0  0  0
  151.4986  139.4021  156.3223 C   0  0  1  0  0  0  0  0  0  0  0  0
  150.9792  140.7350  156.7574 N   0  0  0  0  0  0  0  0  0  0  0  0
  149.8879  141.3460  156.2525 C   0  0  0  0  0  0  0  0  0  0  0  0
  149.6112  142.5153  156.8041 N   0  3  0  0  0  0  0  0  0  0  0  0
  150.5745  142.7309  157.7664 C   0  0  0  0  0  0  0  0  0  0  0  0
  151.4207  141.6198  157.7183 C   0  0  0  0  0  0  0  0  0  0  0  0
  152.5622  141.3318  158.4825 N   0  0  0  0  0  0  0  0  0  0  0  0
  153.1887  142.2215  159.1813 C   0  0  0  0  0  0  0  0  0  0  0  0
  152.8574  143.5470  159.4071 N   0  0  0  0  0  0  0  0  0  0  0  0
  151.5198  143.9760  159.7744 C   0  0  0  0  0  0  0  0  0  0  0  0
  150.5287  143.9712  158.6033 C   0  0  1  0  0  0  0  0  0  0  0  0
  150.7229  145.1457  157.8428 O   0  0  0  0  0  0  0  0  0  0  0  0
  150.5124  138.7003  155.3870 C   0  0  0  0  0  0  0  0  0  0  0  0
  151.4534  137.9313  154.4837 C   0  0  2  0  0  0  0  0  0  0  0  0
  151.8189  136.6999  155.0783 O   0  0  0  0  0  0  0  0  0  0  0  0
  152.3846  139.6579  153.6203 H   0  0  0  0  0  0  0  0  0  0  0  0
  151.6958  138.8427  157.2379 H   0  0  0  0  0  0  0  0  0  0  0  0
  149.5250  144.0489  159.0225 H   0  0  0  0  0  0  0  0  0  0  0  0
  151.0050  137.7246  153.5115 H   0  0  0  0  0  0  0  0  0  0  0  0
  155.7495  138.9263  153.4609 H   0  0  0  0  0  0  0  0  0  0  0  0
  153.9388  137.6137  153.1709 H   0  0  0  0  0  0  0  0  0  0  0  0
  154.3863  137.7251  154.8602 H   0  0  0  0  0  0  0  0  0  0  0  0
  149.2938  140.9128  155.4678 H   0  0  0  0  0  0  0  0  0  0  0  0
  154.1102  141.9379  159.6918 H   0  0  0  0  0  0  0  0  0  0  0  0
  153.5607  144.1618  159.7919 H   0  0  0  0  0  0  0  0  0  0  0  0
  151.1588  143.2936  160.5454 H   0  0  0  0  0  0  0  0  0  0  0  0
  151.5645  144.9611  160.2399 H   0  0  0  0  0  0  0  0  0  0  0  0
  150.2348  145.0702  157.0374 H   0  0  0  0  0  0  0  0  0  0  0  0
  149.8068  138.0801  155.9409 H   0  0  0  0  0  0  0  0  0  0  0  0
  149.9555  139.4370  154.8068 H   0  0  0  0  0  0  0  0  0  0  0  0
  151.7961  136.8034  156.0177 H   0  0  0  0  0  0  0  0  0  0  0  0
  148.8364  143.1228  156.5698 H   0  0  0  0  0  0  0  0  0  0  0  0
  1  2  1  0  0  0  0
  1 24  1  0  0  0  0
  2  3  1  0  0  0  0
  2 25  1  0  0  0  0
  2 26  1  0  0  0  0
  3 20  1  0  0  0  0
  3 18  1  0  0  0  0
  3  4  1  0  0  0  0
  4  5  1  0  0  0  0
  5 21  1  0  0  0  0
  5  6  1  0  0  0  0
  5 17  1  0  0  0  0
  6 10  1  0  0  0  0
  6  7  1  0  0  0  0
  7  8  2  0  0  0  0
  7 27  1  0  0  0  0
  8  9  1  0  0  0  0
  8 36  1  0  0  0  0
  9 15  1  0  0  0  0
  9 10  2  0  0  0  0
 10 11  1  0  0  0  0
 11 12  2  0  0  0  0
 12 13  1  0  0  0  0
 12 28  1  0  0  0  0
 13 14  1  0  0  0  0
 13 29  1  0  0  0  0
 14 15  1  0  0  0  0
 14 30  1  0  0  0  0
 14 31  1  0  0  0  0
 15 22  1  0  0  0  0
 15 16  1  0  0  0  0
 16 32  1  0  0  0  0
 17 18  1  0  0  0  0
 17 33  1  0  0  0  0
 17 34  1  0  0  0  0
 18 23  1  0  0  0  0
 18 19  1  0  0  0  0
 19 35  1  0  0  0  0
M  CHG  1   8   1
M  END
> <s_m_source_file>
AV-unprocessed.smi

> <i_m_source_file_index>
157

> <i_lp_mmshare_version>
43012

> <i_f3d_flags>
0

> <s_epik_input>
W09IXVtDSDJdW0NASF0xT1tDQEhdKFtDSDJdW0NAQEhdMVtPSF0pbihbY0hdbjIpYyhjMjMpTj1bQ0hdW05IXVtDSDJdW0NASF0zW09IXQ==

> <s_epik_cmdline>
J2VwaWtfcHl0aG9uJywgJy1waCcsICc3LjAnLCAnLXRuJywgJzgnLCAnLW1hJywgJzIwMCcsICctbWV0YWxfYmluZGluZycsICctaW1hZScsICc8aW5maWxlLm1hZT4nLCAnLW9tYWUnLCAnPG91dGZpbGUubWFlPic=

> <r_epik_Ionization_Penalty>
1.68594

> <r_epik_Ionization_Penalty_Charging>
0

> <r_epik_Ionization_Penalty_Neutral>
1.68594

> <r_epik_State_Penalty>
1.79006

> <r_epik_Charging_Adjusted_Penalty>
1.79006

> <i_epik_Tot_Q>
1

> <i_epik_Tot_abs_Q>
1

> <r_epik_Metal_State_Penalty>
5.85324

> <b_epik_Metal_Only>
0

> <s_epik_Chemistry_Notes>
This compound has an imine and may undergo hydrolysis. This compound contains an acetal/aminal-like group ( X-CH(R)-Y where X, Y are N, S, or O) that may be acid/base labile, releasing an aldehyde.

> <s_lp_Force_Field>
OPLS_2005

> <r_lp_Energy>
54.692

> <b_lp_Chiralities_Consistent>
1

> <s_lp_Variant>
AV-unprocessed.smi:157-18

> <Gold.Version>
5.8.1

> <Gold.Id.Protein>
6NUR|6NUR_protein|mol2

> <Gold.PLP.Fitness>
48.0584

> <Gold.PLP.PLP>
-33.1355

> <Gold.PLP.part.hbond>
-5.5007

> <Gold.PLP.part.metal>
0.0000

> <Gold.PLP.part.buried>
-3.9687

> <Gold.PLP.part.nonpolar>
-26.2052

> <Gold.PLP.part.repulsive>
0.0634

> <Gold.PLP.ligand.clash>
0.0000

> <Gold.PLP.ligand.torsion>
0.2513

> <Gold.PLP.Chemscore.Hbond>
5.1405

> <Gold.PLP.Chemscore.CHOScore>
0.0000

> <Gold.PLP.Chemscore.Metal>
0.0000

> <Gold.Chemscore.Hbonds>
donor molecule, donor type, donor heavy atom, donor atom, acceptor molecule, acceptor atom, score
      L1  H     8    36       P1  8028  1.15
      L1  H    16    32       P1  8028  0.85
      P1  H  7997  8008       L1     1  0.69
      P1  H  7997  8010       L1     4  0.85
      P1  H 10752 10764       L1    19  1.00

> <Gold.PLP.Chemscore.Internal.Correction>
0.0040

> <Gold.Rescore>
     Score         DG    S(hbond)    S(metal)    S(lipo)     H(rot)  DE(clash)    DE(int)     intcor
     12.53     -13.26       3.10        0.00      58.31       3.67       0.34       0.38       ----

> <Gold.Chemscore.Fitness>
12.5338

> <Gold.Chemscore.DG>
-13.2598

> <Gold.Chemscore.ZeroCoef>
-5.4800

> <Gold.Chemscore.Hbond>
3.0966

> <Gold.Chemscore.Metal>
0.0000

> <Gold.Chemscore.Lipo>
58.3076

> <Gold.Chemscore.Internal_Hbond>
0.0000

> <Gold.Chemscore.DEClash>
0.3449

> <Gold.Chemscore.DEInternal>
0.3811

> <Gold.Chemscore.Rot>
3.6659

> <Gold.Chemscore.Internal.Correction>
   9.000000E+99

> <Gold.Chemscore.Hbonds>
donor molecule, donor type, donor heavy atom, donor atom, acceptor molecule, acceptor atom, score
      L1  H     8    36       P1  8028  0.55
      L1  H    16    32       P1  8028  0.15
      P1  H  7997  8008       L1     1  0.13
      P1  H  7997  8010       L1     4  0.79
      P1  H 10752 10764       L1    19  0.87

> <Gold.Chemscore.Hbond.Weighted>
-10.3426

> <Gold.Chemscore.Metal.Weighted>
-0.0000

> <Gold.Chemscore.Lipo.Weighted>
-6.8220

> <Gold.Chemscore.Internal_Hbond.Weighted>
0.0000

> <Gold.Chemscore.DEClash.Weighted>
0.3449

> <Gold.Chemscore.DEInternal.Weighted>
0.3811

> <Gold.Chemscore.Rot.Weighted>
9.3848

> <Gold.Chemscore.Internal.Correction.Weighted>
   9.000000E+99

> <Gold.Protein.RotatedTorsions>
[ 6907 6896 6895 6894 ] final  123.73 input  -60.11 | X-H torsion
[ 7974 7965 7964 7962 ] final   14.88 input  175.53 | X-H torsion
[ 8008 7997 7996 7995 ] final   62.97 input   59.86 | X-H torsion
[ 10167 10162 10161 10158 ] final -141.64 input  -65.29 | X-H torsion
[ 10718 10713 10712 10709 ] final  103.12 input   66.30 | X-H torsion
[ 10763 10752 10751 10750 ] final  -62.77 input  -60.55 | X-H torsion
[ 11005 11000 10999 10996 ] final -109.59 input  -57.11 | X-H torsion

> <Gold.Protein.ActiveResidues>
 VAL166  LYS551  ARG553  GLY616  TRP617  ASP618  TYR619  PRO620  LYS621  CYS622 
 ASP623  PHE694  ASN695  SER759  ASP760  ASP761  ALA762  ILE779  LEU786  VAL792 
 PHE793  MET794  SER795  GLU796  ALA797  LYS798  CYS799  TRP800  GLU811  SER814 

> <Gold.Protein.RotatedAtoms>
  152.4137  133.7004  159.6420 H   0  0  0  0  0  0  0  0  0  0  0  0  # atno 6907 bound_to 6896
  150.8016  133.8577  159.3232 H   0  0  0  0  0  0  0  0  0  0  0  0  # atno 6908 bound_to 6896
  151.6313  135.1024  160.0174 H   0  0  0  0  0  0  0  0  0  0  0  0  # atno 6909 bound_to 6896
  146.2293  139.8975  142.8544 H   0  0  0  0  0  0  0  0  0  0  0  0  # atno 7974 bound_to 7965
  155.6228  140.3496  155.4657 H   0  0  0  0  0  0  0  0  0  0  0  0  # atno 8008 bound_to 7997
  156.0066  140.1224  157.0519 H   0  0  0  0  0  0  0  0  0  0  0  0  # atno 8009 bound_to 7997
  154.4266  140.1090  156.5756 H   0  0  0  0  0  0  0  0  0  0  0  0  # atno 8010 bound_to 7997
  139.8165  143.7631  152.2665 H   0  0  0  0  0  0  0  0  0  0  0  0  # atno 10167 bound_to 10162
  157.6782  131.0771  150.5507 H   0  0  0  0  0  0  0  0  0  0  0  0  # atno 10718 bound_to 10713
  154.3049  135.6227  153.5440 H   0  0  0  0  0  0  0  0  0  0  0  0  # atno 10763 bound_to 10752
  152.9836  135.5687  154.5243 H   0  0  0  0  0  0  0  0  0  0  0  0  # atno 10764 bound_to 10752
  154.4880  135.2866  155.1495 H   0  0  0  0  0  0  0  0  0  0  0  0  # atno 10765 bound_to 10752
  141.0839  133.9172  157.2228 H   0  0  0  0  0  0  0  0  0  0  0  0  # atno 11005 bound_to 11000
  145.2356  140.9990  143.3965 LP  0  0  0  0  0  0  0  0  0  0  0  0  # atno 17320 bound_to 7965
  144.9494  139.4099  143.6410 LP  0  0  0  0  0  0  0  0  0  0  0  0  # atno 17321 bound_to 7965
  139.7796  144.7449  151.0107 LP  0  0  0  0  0  0  0  0  0  0  0  0  # atno 17342 bound_to 10162
  140.7815  143.4556  151.0350 LP  0  0  0  0  0  0  0  0  0  0  0  0  # atno 17343 bound_to 10162
  156.5812  130.4305  149.5976 LP  0  0  0  0  0  0  0  0  0  0  0  0  # atno 17370 bound_to 10713
  156.2660  130.6989  151.1773 LP  0  0  0  0  0  0  0  0  0  0  0  0  # atno 17371 bound_to 10713
  139.9655  135.0143  156.9376 LP  0  0  0  0  0  0  0  0  0  0  0  0  # atno 17394 bound_to 11000
  140.5407  134.0723  155.7340 LP  0  0  0  0  0  0  0  0  0  0  0  0  # atno 17395 bound_to 11000

$$$$
