AV-unprocessed.smi:963|AV-procd|sdf|4276|dock9
  -GOLD-   22720 2183D 1   1.00000     0.00000
 Structure written by MMmdl.
 36 37  0  0  0  0  0  0  0  0  1 V2000
  154.3627  140.0824  159.8718 C   0  0  0  0  0  0  0  0  0  0  0  0
  154.2146  141.0630  161.0402 C   0  0  0  0  0  0  0  0  0  0  0  0
  153.1607  142.0998  160.7835 C   0  0  0  0  0  0  0  0  0  0  0  0
  152.4961  142.1112  159.5532 N   0  0  0  0  0  0  0  0  0  0  0  0
  151.5957  143.0918  159.4622 C   0  0  0  0  0  0  0  0  0  0  0  0
  150.7203  143.2994  158.2720 C   0  0  0  0  0  0  0  0  0  0  0  0
  151.0639  142.3439  157.1217 C   0  0  0  0  0  0  0  0  0  0  0  0
  149.9734  142.2915  156.1548 N   0  0  0  0  0  0  0  0  0  0  0  0
  149.8356  141.3798  155.1793 C   0  0  0  0  0  0  0  0  0  0  0  0
  150.6425  140.4766  154.9609 O   0  0  0  0  0  0  0  0  0  0  0  0
  148.7617  141.6028  154.4046 N   0  0  0  0  0  0  0  0  0  0  0  0
  147.4887  142.2520  154.7043 C   0  0  0  0  0  0  0  0  0  0  0  0
  147.0123  141.7310  153.3504 C   0  0  0  0  0  0  0  0  0  0  0  0
  148.2016  140.7732  153.3450 C   0  0  0  0  0  0  0  0  0  0  0  0
  151.4913  144.0709  160.9183 S   0  0  0  0  0  0  0  0  0  0  0  0
  152.7470  143.0958  161.6378 C   0  0  0  0  0  0  0  0  0  0  0  0
  153.2407  143.3842  163.0167 C   0  0  0  0  0  0  0  0  0  0  0  0
  155.1320  139.3398  160.0836 H   0  0  0  0  0  0  0  0  0  0  0  0
  154.6447  140.6030  158.9562 H   0  0  0  0  0  0  0  0  0  0  0  0
  153.4297  139.5508  159.6823 H   0  0  0  0  0  0  0  0  0  0  0  0
  153.9751  140.5056  161.9465 H   0  0  0  0  0  0  0  0  0  0  0  0
  155.1758  141.5397  161.2331 H   0  0  0  0  0  0  0  0  0  0  0  0
  149.6823  143.1620  158.5772 H   0  0  0  0  0  0  0  0  0  0  0  0
  150.8155  144.3354  157.9440 H   0  0  0  0  0  0  0  0  0  0  0  0
  151.9613  142.6863  156.6057 H   0  0  0  0  0  0  0  0  0  0  0  0
  151.2914  141.3549  157.5232 H   0  0  0  0  0  0  0  0  0  0  0  0
  149.2687  143.0107  156.2269 H   0  0  0  0  0  0  0  0  0  0  0  0
  146.9605  141.8141  155.5529 H   0  0  0  0  0  0  0  0  0  0  0  0
  147.5316  143.3399  154.7656 H   0  0  0  0  0  0  0  0  0  0  0  0
  146.0381  141.2414  153.3715 H   0  0  0  0  0  0  0  0  0  0  0  0
  147.0707  142.4834  152.5621 H   0  0  0  0  0  0  0  0  0  0  0  0
  148.7679  140.7791  152.4130 H   0  0  0  0  0  0  0  0  0  0  0  0
  147.9513  139.7605  153.6649 H   0  0  0  0  0  0  0  0  0  0  0  0
  154.3305  143.3950  163.0444 H   0  0  0  0  0  0  0  0  0  0  0  0
  152.8912  142.6262  163.7180 H   0  0  0  0  0  0  0  0  0  0  0  0
  152.8881  144.3545  163.3670 H   0  0  0  0  0  0  0  0  0  0  0  0
  1  2  1  0  0  0  0
  1 18  1  0  0  0  0
  1 19  1  0  0  0  0
  1 20  1  0  0  0  0
  2  3  1  0  0  0  0
  2 21  1  0  0  0  0
  2 22  1  0  0  0  0
  3 16  2  0  0  0  0
  3  4  1  0  0  0  0
  4  5  2  0  0  0  0
  5  6  1  0  0  0  0
  5 15  1  0  0  0  0
  6  7  1  0  0  0  0
  6 23  1  0  0  0  0
  6 24  1  0  0  0  0
  7  8  1  0  0  0  0
  7 25  1  0  0  0  0
  7 26  1  0  0  0  0
  8  9  1  0  0  0  0
  8 27  1  0  0  0  0
  9 10  2  0  0  0  0
  9 11  1  0  0  0  0
 11 14  1  0  0  0  0
 11 12  1  0  0  0  0
 12 13  1  0  0  0  0
 12 28  1  0  0  0  0
 12 29  1  0  0  0  0
 13 14  1  0  0  0  0
 13 30  1  0  0  0  0
 13 31  1  0  0  0  0
 14 32  1  0  0  0  0
 14 33  1  0  0  0  0
 15 16  1  0  0  0  0
 16 17  1  0  0  0  0
 17 34  1  0  0  0  0
 17 35  1  0  0  0  0
 17 36  1  0  0  0  0
M  END
> <s_m_source_file>
AV-unprocessed.smi

> <i_m_source_file_index>
963

> <i_lp_mmshare_version>
43012

> <i_f3d_flags>
0

> <s_epik_input>
W0NIM11bQ0gyXWMxbmMoc2MxW0NIM10pW0NIMl1bQ0gyXVtOSF1DKD1PKU4yW0NIMl1bQ0gyXVtDSDJdMg==

> <s_epik_cmdline>
J2VwaWtfcHl0aG9uJywgJy1waCcsICc3LjAnLCAnLXRuJywgJzgnLCAnLW1hJywgJzIwMCcsICctbWV0YWxfYmluZGluZycsICctaW1hZScsICc8aW5maWxlLm1hZT4nLCAnLW9tYWUnLCAnPG91dGZpbGUubWFlPic=

> <r_epik_Ionization_Penalty>
0.00446738

> <r_epik_Ionization_Penalty_Charging>
0

> <r_epik_Ionization_Penalty_Neutral>
0.00446738

> <r_epik_State_Penalty>
0.00317617

> <r_epik_Charging_Adjusted_Penalty>
0.00317617

> <i_epik_Tot_Q>
0

> <i_epik_Tot_abs_Q>
0

> <r_epik_Metal_State_Penalty>
-0

> <b_epik_Metal_Only>
0

> <s_lp_Force_Field>
OPLS_2005

> <r_lp_Energy>
11.733

> <b_lp_Chiralities_Consistent>
1

> <s_lp_Variant>
AV-unprocessed.smi:963-1

> <Gold.Version>
5.8.1

> <Gold.Id.Protein>
6NUR|6NUR_protein|mol2

> <Gold.PLP.Fitness>
46.7007

> <Gold.PLP.PLP>
-41.7315

> <Gold.PLP.part.hbond>
-2.0000

> <Gold.PLP.part.metal>
0.0000

> <Gold.PLP.part.buried>
-3.3461

> <Gold.PLP.part.nonpolar>
-36.1667

> <Gold.PLP.part.repulsive>
0.1498

> <Gold.PLP.ligand.clash>
0.0000

> <Gold.PLP.ligand.torsion>
0.3359

> <Gold.PLP.Chemscore.Hbond>
1.7840

> <Gold.PLP.Chemscore.CHOScore>
0.0000

> <Gold.PLP.Chemscore.Metal>
0.0000

> <Gold.Chemscore.Hbonds>
donor molecule, donor type, donor heavy atom, donor atom, acceptor molecule, acceptor atom, score
      L1  H     8    27       P1  8028  0.83
      P1  H  7989  7998       L1    10  1.00

> <Gold.PLP.Chemscore.Internal.Correction>
0.2890

> <Gold.Rescore>
     Score         DG    S(hbond)    S(metal)    S(lipo)     H(rot)  DE(clash)    DE(int)     intcor
     16.92     -19.74       1.46        0.00     112.63       1.48       2.49       0.33       ----

> <Gold.Chemscore.Fitness>
16.9178

> <Gold.Chemscore.DG>
-19.7399

> <Gold.Chemscore.ZeroCoef>
-5.4800

> <Gold.Chemscore.Hbond>
1.4552

> <Gold.Chemscore.Metal>
0.0000

> <Gold.Chemscore.Lipo>
112.6291

> <Gold.Chemscore.Internal_Hbond>
0.0000

> <Gold.Chemscore.DEClash>
2.4930

> <Gold.Chemscore.DEInternal>
0.3291

> <Gold.Chemscore.Rot>
1.4758

> <Gold.Chemscore.Internal.Correction>
   9.000000E+99

> <Gold.Chemscore.Hbonds>
donor molecule, donor type, donor heavy atom, donor atom, acceptor molecule, acceptor atom, score
      L1  H     8    27       P1  8028  0.83
      P1  H  7989  7998       L1    10  0.67

> <Gold.Chemscore.Hbond.Weighted>
-4.8602

> <Gold.Chemscore.Metal.Weighted>
-0.0000

> <Gold.Chemscore.Lipo.Weighted>
-13.1776

> <Gold.Chemscore.Internal_Hbond.Weighted>
0.0000

> <Gold.Chemscore.DEClash.Weighted>
2.4930

> <Gold.Chemscore.DEInternal.Weighted>
0.3291

> <Gold.Chemscore.Rot.Weighted>
3.7780

> <Gold.Chemscore.Internal.Correction.Weighted>
   9.000000E+99

> <Gold.Protein.RotatedTorsions>
[ 6907 6896 6895 6894 ] final   30.35 input  -60.11 | X-H torsion
[ 7974 7965 7964 7962 ] final   29.33 input  175.53 | X-H torsion
[ 8008 7997 7996 7995 ] final -156.42 input   59.86 | X-H torsion
[ 10167 10162 10161 10158 ] final  161.98 input  -65.29 | X-H torsion
[ 10718 10713 10712 10709 ] final  174.82 input   66.30 | X-H torsion
[ 10763 10752 10751 10750 ] final -108.63 input  -60.55 | X-H torsion
[ 11005 11000 10999 10996 ] final  -18.69 input  -57.11 | X-H torsion

> <Gold.Protein.ActiveResidues>
 VAL166  LYS551  ARG553  GLY616  TRP617  ASP618  TYR619  PRO620  LYS621  CYS622 
 ASP623  PHE694  ASN695  SER759  ASP760  ASP761  ALA762  ILE779  LEU786  VAL792 
 PHE793  MET794  SER795  GLU796  ALA797  LYS798  CYS799  TRP800  GLU811  SER814 

> <Gold.Protein.RotatedAtoms>
  152.0447  134.9690  160.0574 H   0  0  0  0  0  0  0  0  0  0  0  0  # atno 6907 bound_to 6896
  152.1115  133.4298  159.4641 H   0  0  0  0  0  0  0  0  0  0  0  0  # atno 6908 bound_to 6896
  150.6844  134.2562  159.4574 H   0  0  0  0  0  0  0  0  0  0  0  0  # atno 6909 bound_to 6896
  146.1677  139.6936  142.8989 H   0  0  0  0  0  0  0  0  0  0  0  0  # atno 7974 bound_to 7965
  155.7169  140.0785  157.2347 H   0  0  0  0  0  0  0  0  0  0  0  0  # atno 8008 bound_to 7997
  154.4050  140.1620  156.2412 H   0  0  0  0  0  0  0  0  0  0  0  0  # atno 8009 bound_to 7997
  155.9232  140.3396  155.6192 H   0  0  0  0  0  0  0  0  0  0  0  0  # atno 8010 bound_to 7997
  139.4855  144.4482  151.8864 H   0  0  0  0  0  0  0  0  0  0  0  0  # atno 10167 bound_to 10162
  156.9440  131.0010  151.2962 H   0  0  0  0  0  0  0  0  0  0  0  0  # atno 10718 bound_to 10713
  154.8146  135.4631  154.0609 H   0  0  0  0  0  0  0  0  0  0  0  0  # atno 10763 bound_to 10752
  153.2012  135.6869  153.8235 H   0  0  0  0  0  0  0  0  0  0  0  0  # atno 10764 bound_to 10752
  153.7719  135.3269  155.3330 H   0  0  0  0  0  0  0  0  0  0  0  0  # atno 10765 bound_to 10752
  140.8293  133.8009  155.9741 H   0  0  0  0  0  0  0  0  0  0  0  0  # atno 11005 bound_to 11000
  145.4423  141.0423  143.2851 LP  0  0  0  0  0  0  0  0  0  0  0  0  # atno 17320 bound_to 7965
  144.8117  139.5950  143.7026 LP  0  0  0  0  0  0  0  0  0  0  0  0  # atno 17321 bound_to 7965
  140.3938  144.2582  150.5897 LP  0  0  0  0  0  0  0  0  0  0  0  0  # atno 17342 bound_to 10162
  140.5121  143.2288  151.8519 LP  0  0  0  0  0  0  0  0  0  0  0  0  # atno 17343 bound_to 10162
  157.5766  130.8347  149.8464 LP  0  0  0  0  0  0  0  0  0  0  0  0  # atno 17370 bound_to 10713
  156.0392  130.3743  150.1480 LP  0  0  0  0  0  0  0  0  0  0  0  0  # atno 17371 bound_to 10713
  140.9015  134.2372  157.5039 LP  0  0  0  0  0  0  0  0  0  0  0  0  # atno 17394 bound_to 11000
  139.8705  134.9709  156.4717 LP  0  0  0  0  0  0  0  0  0  0  0  0  # atno 17395 bound_to 11000

$$$$
