AV-unprocessed.smi:673|AV-procd|sdf|3298|dock6
  -GOLD-   22720 0263D 1   1.00000     0.00000
 Structure written by MMmdl.
 45 46  0  0  0  0  0  0  0  0  1 V2000
  149.7222  136.1439  155.4475 C   0  0  0  0  0  0  0  0  0  0  0  0
  148.9921  137.3867  154.9137 C   0  0  1  0  0  0  0  0  0  0  0  0
  149.9395  138.4056  154.2368 C   0  0  0  0  0  0  0  0  0  0  0  0
  151.2089  138.5690  154.9255 N   0  0  0  0  0  0  0  0  0  0  0  0
  151.7304  139.6283  155.5468 C   0  0  0  0  0  0  0  0  0  0  0  0
  152.9281  139.4064  156.0699 N   0  0  0  0  0  0  0  0  0  0  0  0
  153.0988  138.1014  155.7035 C   0  0  0  0  0  0  0  0  0  0  0  0
  152.0988  137.5523  155.0144 N   0  0  0  0  0  0  0  0  0  0  0  0
  147.9304  136.9640  154.0036 N   0  0  0  0  0  0  0  0  0  0  0  0
  146.7204  136.4999  154.3622 C   0  0  0  0  0  0  0  0  0  0  0  0
  146.3914  136.3791  155.5438 O   0  0  0  0  0  0  0  0  0  0  0  0
  145.8801  136.2444  153.3243 N   0  0  0  0  0  0  0  0  0  0  0  0
  146.0564  136.8006  151.9670 C   0  0  0  0  0  0  0  0  0  0  0  0
  145.5907  135.8817  150.8198 C   0  0  0  0  0  0  0  0  0  0  0  0
  146.0748  134.4195  150.9276 C   0  0  0  0  0  0  0  0  0  0  0  0
  145.1957  133.4567  151.7723 C   0  0  0  0  0  0  0  0  0  0  0  0
  143.7813  133.3167  151.1647 C   0  0  0  0  0  0  0  0  0  0  0  0
  145.8509  132.0610  151.7240 C   0  0  0  0  0  0  0  0  0  0  0  0
  145.1037  133.8816  153.2603 C   0  0  0  0  0  0  0  0  0  0  0  0
  144.7264  135.3537  153.5170 C   0  0  0  0  0  0  0  0  0  0  0  0
  150.5323  136.4258  156.1206 H   0  0  0  0  0  0  0  0  0  0  0  0
  150.1498  135.5471  154.6410 H   0  0  0  0  0  0  0  0  0  0  0  0
  149.0404  135.5009  156.0053 H   0  0  0  0  0  0  0  0  0  0  0  0
  148.5283  137.8810  155.7688 H   0  0  0  0  0  0  0  0  0  0  0  0
  150.1367  138.1239  153.2013 H   0  0  0  0  0  0  0  0  0  0  0  0
  149.4538  139.3812  154.1955 H   0  0  0  0  0  0  0  0  0  0  0  0
  151.2218  140.5783  155.6226 H   0  0  0  0  0  0  0  0  0  0  0  0
  153.9868  137.5391  155.9514 H   0  0  0  0  0  0  0  0  0  0  0  0
  148.1182  137.0590  153.0162 H   0  0  0  0  0  0  0  0  0  0  0  0
  145.5379  137.7582  151.9082 H   0  0  0  0  0  0  0  0  0  0  0  0
  147.1088  137.0104  151.7712 H   0  0  0  0  0  0  0  0  0  0  0  0
  144.5102  135.9345  150.7028 H   0  0  0  0  0  0  0  0  0  0  0  0
  145.9839  136.3012  149.8931 H   0  0  0  0  0  0  0  0  0  0  0  0
  146.1349  134.0187  149.9147 H   0  0  0  0  0  0  0  0  0  0  0  0
  147.1007  134.4109  151.2988 H   0  0  0  0  0  0  0  0  0  0  0  0
  143.2060  132.5475  151.6811 H   0  0  0  0  0  0  0  0  0  0  0  0
  143.8289  133.0331  150.1128 H   0  0  0  0  0  0  0  0  0  0  0  0
  143.2005  134.2353  151.2281 H   0  0  0  0  0  0  0  0  0  0  0  0
  145.2808  131.3321  152.3013 H   0  0  0  0  0  0  0  0  0  0  0  0
  146.8622  132.0795  152.1319 H   0  0  0  0  0  0  0  0  0  0  0  0
  145.9194  131.6863  150.7021 H   0  0  0  0  0  0  0  0  0  0  0  0
  144.3697  133.2469  153.7584 H   0  0  0  0  0  0  0  0  0  0  0  0
  146.0475  133.6683  153.7644 H   0  0  0  0  0  0  0  0  0  0  0  0
  144.3523  135.4490  154.5379 H   0  0  0  0  0  0  0  0  0  0  0  0
  143.8847  135.6669  152.9007 H   0  0  0  0  0  0  0  0  0  0  0  0
  1  2  1  0  0  0  0
  1 21  1  0  0  0  0
  1 22  1  0  0  0  0
  1 23  1  0  0  0  0
  2  3  1  0  0  0  0
  2  9  1  0  0  0  0
  2 24  1  0  0  0  0
  3  4  1  0  0  0  0
  3 25  1  0  0  0  0
  3 26  1  0  0  0  0
  4  8  1  0  0  0  0
  4  5  1  0  0  0  0
  5  6  2  0  0  0  0
  5 27  1  0  0  0  0
  6  7  1  0  0  0  0
  7  8  2  0  0  0  0
  7 28  1  0  0  0  0
  9 10  1  0  0  0  0
  9 29  1  0  0  0  0
 10 11  2  0  0  0  0
 10 12  1  0  0  0  0
 12 20  1  0  0  0  0
 12 13  1  0  0  0  0
 13 14  1  0  0  0  0
 13 30  1  0  0  0  0
 13 31  1  0  0  0  0
 14 15  1  0  0  0  0
 14 32  1  0  0  0  0
 14 33  1  0  0  0  0
 15 16  1  0  0  0  0
 15 34  1  0  0  0  0
 15 35  1  0  0  0  0
 16 17  1  0  0  0  0
 16 18  1  0  0  0  0
 16 19  1  0  0  0  0
 17 36  1  0  0  0  0
 17 37  1  0  0  0  0
 17 38  1  0  0  0  0
 18 39  1  0  0  0  0
 18 40  1  0  0  0  0
 18 41  1  0  0  0  0
 19 20  1  0  0  0  0
 19 42  1  0  0  0  0
 19 43  1  0  0  0  0
 20 44  1  0  0  0  0
 20 45  1  0  0  0  0
M  END
> <s_m_source_file>
AV-unprocessed.smi

> <i_m_source_file_index>
673

> <i_lp_mmshare_version>
43012

> <i_f3d_flags>
0

> <s_epik_input>
bjFbY0hdbltjSF1uMVtDSDJdW0NAQEhdKFtDSDNdKVtOSF1DKD1PKU4oW0NIMl1bQ0gyXTIpW0NIMl1bQ0gyXVtDSDJdQzIoW0NIM10pW0NIM10=

> <s_epik_cmdline>
J2VwaWtfcHl0aG9uJywgJy1waCcsICc3LjAnLCAnLXRuJywgJzgnLCAnLW1hJywgJzIwMCcsICctbWV0YWxfYmluZGluZycsICctaW1hZScsICc8aW5maWxlLm1hZT4nLCAnLW9tYWUnLCAnPG91dGZpbGUubWFlPic=

> <r_lp_tautomer_probability>
1

> <r_epik_Ionization_Penalty>
0.000118908

> <r_epik_Ionization_Penalty_Charging>
0

> <r_epik_Ionization_Penalty_Neutral>
0.000118908

> <r_epik_State_Penalty>
-0

> <r_epik_Charging_Adjusted_Penalty>
0

> <i_epik_Tot_Q>
0

> <i_epik_Tot_abs_Q>
0

> <r_epik_Metal_State_Penalty>
-0

> <b_epik_Metal_Only>
0

> <s_lp_Force_Field>
OPLS_2005

> <r_lp_Energy>
39.1702

> <b_lp_Chiralities_Consistent>
1

> <s_lp_Variant>
AV-unprocessed.smi:673-2

> <Gold.Version>
5.8.1

> <Gold.Id.Protein>
6NUR|6NUR_protein|mol2

> <Gold.PLP.Fitness>
34.6627

> <Gold.PLP.PLP>
-28.9345

> <Gold.PLP.part.hbond>
-2.8624

> <Gold.PLP.part.metal>
0.0000

> <Gold.PLP.part.buried>
-2.9288

> <Gold.PLP.part.nonpolar>
-24.6460

> <Gold.PLP.part.repulsive>
0.0960

> <Gold.PLP.ligand.clash>
0.0000

> <Gold.PLP.ligand.torsion>
0.6910

> <Gold.PLP.Chemscore.Hbond>
2.3413

> <Gold.PLP.Chemscore.CHOScore>
0.0000

> <Gold.PLP.Chemscore.Metal>
0.0000

> <Gold.Chemscore.Hbonds>
donor molecule, donor type, donor heavy atom, donor atom, acceptor molecule, acceptor atom, score
      L1  H     9    29       P1  7948  0.75
      P1  H  7997  8008       L1     6  1.00
      P1  H 10752 10764       L1     8  0.52

> <Gold.PLP.Chemscore.Internal.Correction>
0.0864

> <Gold.Rescore>
     Score         DG    S(hbond)    S(metal)    S(lipo)     H(rot)  DE(clash)    DE(int)     intcor
     11.13     -14.08       1.93        0.00      59.02       1.86       0.89       2.06       ----

> <Gold.Chemscore.Fitness>
11.1297

> <Gold.Chemscore.DG>
-14.0828

> <Gold.Chemscore.ZeroCoef>
-5.4800

> <Gold.Chemscore.Hbond>
1.9348

> <Gold.Chemscore.Metal>
0.0000

> <Gold.Chemscore.Lipo>
59.0238

> <Gold.Chemscore.Internal_Hbond>
0.0000

> <Gold.Chemscore.DEClash>
0.8920

> <Gold.Chemscore.DEInternal>
2.0611

> <Gold.Chemscore.Rot>
1.8614

> <Gold.Chemscore.Internal.Correction>
   9.000000E+99

> <Gold.Chemscore.Hbonds>
donor molecule, donor type, donor heavy atom, donor atom, acceptor molecule, acceptor atom, score
      L1  H     9    29       P1  7948  0.76
      P1  H  7997  8008       L1     6  0.74
      P1  H 10752 10764       L1     8  0.16

> <Gold.Chemscore.Hbond.Weighted>
-6.4623

> <Gold.Chemscore.Metal.Weighted>
-0.0000

> <Gold.Chemscore.Lipo.Weighted>
-6.9058

> <Gold.Chemscore.Internal_Hbond.Weighted>
0.0000

> <Gold.Chemscore.DEClash.Weighted>
0.8920

> <Gold.Chemscore.DEInternal.Weighted>
2.0611

> <Gold.Chemscore.Rot.Weighted>
4.7653

> <Gold.Chemscore.Internal.Correction.Weighted>
   9.000000E+99

> <Gold.Protein.RotatedTorsions>
[ 6907 6896 6895 6894 ] final   46.68 input  -60.11 | X-H torsion
[ 7974 7965 7964 7962 ] final -126.68 input  175.53 | X-H torsion
[ 8008 7997 7996 7995 ] final  -33.15 input   59.86 | X-H torsion
[ 10167 10162 10161 10158 ] final   -4.69 input  -65.29 | X-H torsion
[ 10718 10713 10712 10709 ] final  141.69 input   66.30 | X-H torsion
[ 10763 10752 10751 10750 ] final  -66.98 input  -60.55 | X-H torsion
[ 11005 11000 10999 10996 ] final -118.43 input  -57.11 | X-H torsion

> <Gold.Protein.ActiveResidues>
 VAL166  LYS551  ARG553  GLY616  TRP617  ASP618  TYR619  PRO620  LYS621  CYS622 
 ASP623  PHE694  ASN695  SER759  ASP760  ASP761  ALA762  ILE779  LEU786  VAL792 
 PHE793  MET794  SER795  GLU796  ALA797  LYS798  CYS799  TRP800  GLU811  SER814 

> <Gold.Protein.RotatedAtoms>
  152.2592  134.8051  160.0433 H   0  0  0  0  0  0  0  0  0  0  0  0  # atno 6907 bound_to 6896
  151.8704  133.3469  159.3741 H   0  0  0  0  0  0  0  0  0  0  0  0  # atno 6908 bound_to 6896
  150.7111  134.5046  159.5622 H   0  0  0  0  0  0  0  0  0  0  0  0  # atno 6909 bound_to 6896
  144.9848  140.7675  143.4590 H   0  0  0  0  0  0  0  0  0  0  0  0  # atno 7974 bound_to 7965
  154.4157  140.1718  156.1842 H   0  0  0  0  0  0  0  0  0  0  0  0  # atno 8008 bound_to 7997
  155.9657  140.3390  155.6506 H   0  0  0  0  0  0  0  0  0  0  0  0  # atno 8009 bound_to 7997
  155.6691  140.0709  157.2517 H   0  0  0  0  0  0  0  0  0  0  0  0  # atno 8010 bound_to 7997
  140.6936  143.6395  150.8449 H   0  0  0  0  0  0  0  0  0  0  0  0  # atno 10167 bound_to 10162
  157.3891  131.1002  151.0664 H   0  0  0  0  0  0  0  0  0  0  0  0  # atno 10718 bound_to 10713
  154.3678  135.6102  153.5724 H   0  0  0  0  0  0  0  0  0  0  0  0  # atno 10763 bound_to 10752
  152.9791  135.5830  154.4558 H   0  0  0  0  0  0  0  0  0  0  0  0  # atno 10764 bound_to 10752
  154.4306  135.2848  155.1892 H   0  0  0  0  0  0  0  0  0  0  0  0  # atno 10765 bound_to 10752
  141.0286  134.0015  157.3176 H   0  0  0  0  0  0  0  0  0  0  0  0  # atno 11005 bound_to 11000
  145.2370  139.2089  143.5013 LP  0  0  0  0  0  0  0  0  0  0  0  0  # atno 17320 bound_to 7965
  146.3417  140.2258  142.8592 LP  0  0  0  0  0  0  0  0  0  0  0  0  # atno 17321 bound_to 7965
  140.0110  143.5642  152.2839 LP  0  0  0  0  0  0  0  0  0  0  0  0  # atno 17342 bound_to 10162
  139.6366  144.7650  151.2425 LP  0  0  0  0  0  0  0  0  0  0  0  0  # atno 17343 bound_to 10162
  157.1704  130.6265  149.5639 LP  0  0  0  0  0  0  0  0  0  0  0  0  # atno 17370 bound_to 10713
  155.9794  130.4787  150.6712 LP  0  0  0  0  0  0  0  0  0  0  0  0  # atno 17371 bound_to 10713
  139.9193  135.0199  156.8002 LP  0  0  0  0  0  0  0  0  0  0  0  0  # atno 17394 bound_to 11000
  140.6446  133.9787  155.7724 LP  0  0  0  0  0  0  0  0  0  0  0  0  # atno 17395 bound_to 11000

$$$$
