AV-unprocessed.smi:3075|AV-procd|sdf|11723|dock1
  -GOLD-   2272017123D 1   1.00000     0.00000
 Structure written by MMmdl.
 30 31  0  0  0  0  0  0  0  0  2 V2000
  149.0938  142.7857  157.3085 N   0  3  0  0  0  0  0  0  0  0  0  0
  149.9255  141.6590  156.8542 C   0  0  0  0  0  0  0  0  0  0  0  0
  151.1409  141.4822  157.7525 C   0  0  0  0  0  0  0  0  0  0  0  0
  151.5103  142.5226  158.6319 C   0  0  0  0  0  0  0  0  0  0  0  0
  152.6240  142.3487  159.4730 C   0  0  0  0  0  0  0  0  0  0  0  0
  153.3289  141.1333  159.4035 C   0  0  0  0  0  0  0  0  0  0  0  0
  152.9875  140.1298  158.5690 N   0  0  0  0  0  0  0  0  0  0  0  0
  151.9164  140.2925  157.7549 C   0  0  0  0  0  0  0  0  0  0  0  0
  151.5962  139.2353  156.8852 N   0  0  0  0  0  0  0  0  0  0  0  0
  152.5117  139.1373  155.7553 C   0  0  0  0  0  0  0  0  0  0  0  0
  151.9891  138.1017  154.7447 C   0  0  0  0  0  0  0  0  0  0  0  0
  151.7935  136.8503  155.3975 O   0  0  0  0  0  0  0  0  0  0  0  0
  150.8466  136.9385  156.4587 C   0  0  0  0  0  0  0  0  0  0  0  0
  151.3477  137.9410  157.5122 C   0  0  0  0  0  0  0  0  0  0  0  0
  149.3782  143.6294  156.8316 H   0  0  0  0  0  0  0  0  0  0  0  0
  149.2055  142.9075  158.3048 H   0  0  0  0  0  0  0  0  0  0  0  0
  149.3242  140.7507  156.8279 H   0  0  0  0  0  0  0  0  0  0  0  0
  150.2455  141.8496  155.8293 H   0  0  0  0  0  0  0  0  0  0  0  0
  150.9470  143.4438  158.6655 H   0  0  0  0  0  0  0  0  0  0  0  0
  152.9307  143.1272  160.1559 H   0  0  0  0  0  0  0  0  0  0  0  0
  154.1887  140.9620  160.0339 H   0  0  0  0  0  0  0  0  0  0  0  0
  152.6268  140.1075  155.2715 H   0  0  0  0  0  0  0  0  0  0  0  0
  153.4982  138.8415  156.1153 H   0  0  0  0  0  0  0  0  0  0  0  0
  151.0543  138.4371  154.2929 H   0  0  0  0  0  0  0  0  0  0  0  0
  152.7063  137.9716  153.9343 H   0  0  0  0  0  0  0  0  0  0  0  0
  149.8731  137.2384  156.0676 H   0  0  0  0  0  0  0  0  0  0  0  0
  150.7211  135.9526  156.9063 H   0  0  0  0  0  0  0  0  0  0  0  0
  152.2651  137.5642  157.9669 H   0  0  0  0  0  0  0  0  0  0  0  0
  150.6108  138.0503  158.3086 H   0  0  0  0  0  0  0  0  0  0  0  0
  148.1246  142.5919  157.1003 H   0  0  0  0  0  0  0  0  0  0  0  0
  1  2  1  0  0  0  0
  1 15  1  0  0  0  0
  1 16  1  0  0  0  0
  1 30  1  0  0  0  0
  2  3  1  0  0  0  0
  2 17  1  0  0  0  0
  2 18  1  0  0  0  0
  3  8  1  0  0  0  0
  3  4  2  0  0  0  0
  4  5  1  0  0  0  0
  4 19  1  0  0  0  0
  5  6  2  0  0  0  0
  5 20  1  0  0  0  0
  6  7  1  0  0  0  0
  6 21  1  0  0  0  0
  7  8  2  0  0  0  0
  8  9  1  0  0  0  0
  9 14  1  0  0  0  0
  9 10  1  0  0  0  0
 10 11  1  0  0  0  0
 10 22  1  0  0  0  0
 10 23  1  0  0  0  0
 11 12  1  0  0  0  0
 11 24  1  0  0  0  0
 11 25  1  0  0  0  0
 12 13  1  0  0  0  0
 13 14  1  0  0  0  0
 13 26  1  0  0  0  0
 13 27  1  0  0  0  0
 14 28  1  0  0  0  0
 14 29  1  0  0  0  0
M  CHG  1   1   1
M  END
> <s_m_source_file>
AV-unprocessed.smi

> <i_m_source_file_index>
3075

> <i_lp_mmshare_version>
43012

> <i_f3d_flags>
0

> <s_epik_input>
W05IMl1bQ0gyXWMxW2NIXVtjSF1bY0hdbmMxTjJbQ0gyXVtDSDJdT1tDSDJdW0NIMl0y

> <s_epik_cmdline>
J2VwaWtfcHl0aG9uJywgJy1waCcsICc3LjAnLCAnLXRuJywgJzgnLCAnLW1hJywgJzIwMCcsICctbWV0YWxfYmluZGluZycsICctaW1hZScsICc8aW5maWxlLm1hZT4nLCAnLW9tYWUnLCAnPG91dGZpbGUubWFlPic=

> <r_lp_tautomer_probability>
1

> <r_epik_Ionization_Penalty>
0.0619672

> <r_epik_Ionization_Penalty_Charging>
0.0611992

> <r_epik_Ionization_Penalty_Neutral>
0.000768062

> <r_epik_State_Penalty>
0.0535001

> <r_epik_Charging_Adjusted_Penalty>
0.114699

> <i_epik_Tot_Q>
1

> <i_epik_Tot_abs_Q>
1

> <r_epik_Metal_State_Penalty>
0.053574

> <b_epik_Metal_Only>
0

> <s_lp_Force_Field>
OPLS_2005

> <r_lp_Energy>
18.0321

> <b_lp_Chiralities_Consistent>
1

> <s_lp_Variant>
AV-unprocessed.smi:3075-1

> <Gold.Version>
5.8.1

> <Gold.Id.Protein>
6NUR|6NUR_protein|mol2

> <Gold.PLP.Fitness>
35.3207

> <Gold.PLP.PLP>
-23.9828

> <Gold.PLP.part.hbond>
-3.0000

> <Gold.PLP.part.metal>
0.0000

> <Gold.PLP.part.buried>
-3.0560

> <Gold.PLP.part.nonpolar>
-16.6614

> <Gold.PLP.part.repulsive>
0.1552

> <Gold.PLP.ligand.clash>
0.0000

> <Gold.PLP.ligand.torsion>
0.4000

> <Gold.PLP.Chemscore.Hbond>
4.0000

> <Gold.PLP.Chemscore.CHOScore>
0.0000

> <Gold.PLP.Chemscore.Metal>
0.0000

> <Gold.Chemscore.Hbonds>
donor molecule, donor type, donor heavy atom, donor atom, acceptor molecule, acceptor atom, score
      L1  H     1    15       P1  8028  1.70
      P1  H  7997  8009       L1     7  0.47
      P1  H 10752 10763       L1    12  0.96

> <Gold.PLP.Chemscore.Internal.Correction>
0.1380

> <Gold.Rescore>
     Score         DG    S(hbond)    S(metal)    S(lipo)     H(rot)  DE(clash)    DE(int)     intcor
     15.33     -16.48       2.01        0.00      65.42       1.32       0.24       0.91       ----

> <Gold.Chemscore.Fitness>
15.3261

> <Gold.Chemscore.DG>
-16.4767

> <Gold.Chemscore.ZeroCoef>
-5.4800

> <Gold.Chemscore.Hbond>
2.0091

> <Gold.Chemscore.Metal>
0.0000

> <Gold.Chemscore.Lipo>
65.4240

> <Gold.Chemscore.Internal_Hbond>
0.0000

> <Gold.Chemscore.DEClash>
0.2450

> <Gold.Chemscore.DEInternal>
0.9056

> <Gold.Chemscore.Rot>
1.3158

> <Gold.Chemscore.Internal.Correction>
   9.000000E+99

> <Gold.Chemscore.Hbonds>
donor molecule, donor type, donor heavy atom, donor atom, acceptor molecule, acceptor atom, score
      L1  H     1    15       P1  8028  0.79
      P1  H  7997  8009       L1     7  0.05
      P1  H 10752 10763       L1    12  0.46

> <Gold.Chemscore.Hbond.Weighted>
-6.7105

> <Gold.Chemscore.Metal.Weighted>
-0.0000

> <Gold.Chemscore.Lipo.Weighted>
-7.6546

> <Gold.Chemscore.Internal_Hbond.Weighted>
0.0000

> <Gold.Chemscore.DEClash.Weighted>
0.2450

> <Gold.Chemscore.DEInternal.Weighted>
0.9056

> <Gold.Chemscore.Rot.Weighted>
3.3684

> <Gold.Chemscore.Internal.Correction.Weighted>
   9.000000E+99

> <Gold.Protein.RotatedTorsions>
[ 6907 6896 6895 6894 ] final   37.37 input  -60.11 | X-H torsion
[ 7974 7965 7964 7962 ] final  -47.44 input  175.53 | X-H torsion
[ 8008 7997 7996 7995 ] final  156.91 input   59.86 | X-H torsion
[ 10167 10162 10161 10158 ] final  134.90 input  -65.29 | X-H torsion
[ 10718 10713 10712 10709 ] final   38.10 input   66.30 | X-H torsion
[ 10763 10752 10751 10750 ] final   50.58 input  -60.55 | X-H torsion
[ 11005 11000 10999 10996 ] final   26.91 input  -57.11 | X-H torsion

> <Gold.Protein.ActiveResidues>
 VAL166  LYS551  ARG553  GLY616  TRP617  ASP618  TYR619  PRO620  LYS621  CYS622 
 ASP623  PHE694  ASN695  SER759  ASP760  ASP761  ALA762  ILE779  LEU786  VAL792 
 PHE793  MET794  SER795  GLU796  ALA797  LYS798  CYS799  TRP800  GLU811  SER814 

> <Gold.Protein.RotatedAtoms>
  152.1423  134.9053  160.0552 H   0  0  0  0  0  0  0  0  0  0  0  0  # atno 6907 bound_to 6896
  152.0117  133.3859  159.4230 H   0  0  0  0  0  0  0  0  0  0  0  0  # atno 6908 bound_to 6896
  150.6866  134.3645  159.5009 H   0  0  0  0  0  0  0  0  0  0  0  0  # atno 6909 bound_to 6896
  145.9616  140.7474  142.9455 H   0  0  0  0  0  0  0  0  0  0  0  0  # atno 7974 bound_to 7965
  156.2395  140.1900  156.7027 H   0  0  0  0  0  0  0  0  0  0  0  0  # atno 8008 bound_to 7997
  154.6170  140.0614  156.9593 H   0  0  0  0  0  0  0  0  0  0  0  0  # atno 8009 bound_to 7997
  155.1923  140.3285  155.4359 H   0  0  0  0  0  0  0  0  0  0  0  0  # atno 8010 bound_to 7997
  139.5238  144.6544  151.5207 H   0  0  0  0  0  0  0  0  0  0  0  0  # atno 10167 bound_to 10162
  157.3548  130.7618  149.7004 H   0  0  0  0  0  0  0  0  0  0  0  0  # atno 10718 bound_to 10713
  152.9784  135.5874  154.4276 H   0  0  0  0  0  0  0  0  0  0  0  0  # atno 10763 bound_to 10752
  154.3893  135.2767  155.2166 H   0  0  0  0  0  0  0  0  0  0  0  0  # atno 10764 bound_to 10752
  154.4045  135.6096  153.5971 H   0  0  0  0  0  0  0  0  0  0  0  0  # atno 10765 bound_to 10752
  140.3319  134.2428  155.7701 H   0  0  0  0  0  0  0  0  0  0  0  0  # atno 11005 bound_to 11000
  144.6816  140.2600  143.7320 LP  0  0  0  0  0  0  0  0  0  0  0  0  # atno 17320 bound_to 7965
  145.8032  139.1973  143.2036 LP  0  0  0  0  0  0  0  0  0  0  0  0  # atno 17321 bound_to 7965
  140.6363  143.8978  150.6650 LP  0  0  0  0  0  0  0  0  0  0  0  0  # atno 17342 bound_to 10162
  140.2298  143.3744  152.1575 LP  0  0  0  0  0  0  0  0  0  0  0  0  # atno 17343 bound_to 10162
  155.9727  130.4130  150.4062 LP  0  0  0  0  0  0  0  0  0  0  0  0  # atno 17370 bound_to 10713
  157.2130  131.0465  151.2589 LP  0  0  0  0  0  0  0  0  0  0  0  0  # atno 17371 bound_to 10713
  141.2061  133.7842  157.0195 LP  0  0  0  0  0  0  0  0  0  0  0  0  # atno 17394 bound_to 11000
  140.0853  134.9624  157.1691 LP  0  0  0  0  0  0  0  0  0  0  0  0  # atno 17395 bound_to 11000

$$$$
