AV-unprocessed.smi:1522|AV-procd|sdf|6137|dock5
  -GOLD-   22720 6283D 1   1.00000     0.00000
 Structure written by MMmdl.
 34 35  0  0  0  0  0  0  0  0  3 V2000
  145.3517  136.8346  154.8932 C   0  0  0  0  0  0  0  0  0  0  0  0
  146.7401  136.7350  154.2206 C   0  0  1  0  0  0  0  0  0  0  0  0
  147.7358  135.9750  155.1287 C   0  0  0  0  0  0  0  0  0  0  0  0
  149.1089  136.1143  154.6599 N   0  0  0  0  0  0  0  0  0  0  0  0
  150.1316  136.5738  155.3915 C   0  0  0  0  0  0  0  0  0  0  0  0
  149.9438  136.9166  156.5611 O   0  0  0  0  0  0  0  0  0  0  0  0
  151.3049  136.6083  154.7212 N   0  5  0  0  0  0  0  0  0  0  0  0
  151.9711  137.7674  154.5920 C   0  0  0  0  0  0  0  0  0  0  0  0
  153.2797  137.8141  154.2949 N   0  0  0  0  0  0  0  0  0  0  0  0
  153.7724  139.1087  154.2018 N   0  0  0  0  0  0  0  0  0  0  0  0
  152.8160  140.0098  154.4249 C   0  0  0  0  0  0  0  0  0  0  0  0
  151.2264  139.3594  154.7645 S   0  0  0  0  0  0  0  0  0  0  0  0
  146.6445  136.0847  152.8816 N   0  3  0  0  0  0  0  0  0  0  0  0
  146.2108  134.6701  152.8849 C   0  0  0  0  0  0  0  0  0  0  0  0
  145.7237  134.4017  151.4660 C   0  0  0  0  0  0  0  0  0  0  0  0
  145.0484  135.7130  151.0821 C   0  0  0  0  0  0  0  0  0  0  0  0
  145.7855  136.7874  151.8940 C   0  0  0  0  0  0  0  0  0  0  0  0
  145.4109  137.3023  155.8760 H   0  0  0  0  0  0  0  0  0  0  0  0
  144.9062  135.8481  155.0259 H   0  0  0  0  0  0  0  0  0  0  0  0
  144.6569  137.4402  154.3120 H   0  0  0  0  0  0  0  0  0  0  0  0
  147.1155  137.7488  154.0710 H   0  0  0  0  0  0  0  0  0  0  0  0
  147.6678  136.3478  156.1521 H   0  0  0  0  0  0  0  0  0  0  0  0
  147.5038  134.9101  155.1629 H   0  0  0  0  0  0  0  0  0  0  0  0
  149.3027  135.8438  153.7069 H   0  0  0  0  0  0  0  0  0  0  0  0
  153.0469  141.0637  154.3846 H   0  0  0  0  0  0  0  0  0  0  0  0
  147.0170  133.9944  153.1723 H   0  0  0  0  0  0  0  0  0  0  0  0
  145.3862  134.5389  153.5879 H   0  0  0  0  0  0  0  0  0  0  0  0
  146.5757  134.2157  150.8106 H   0  0  0  0  0  0  0  0  0  0  0  0
  145.0537  133.5438  151.4012 H   0  0  0  0  0  0  0  0  0  0  0  0
  145.0826  135.9002  150.0084 H   0  0  0  0  0  0  0  0  0  0  0  0
  143.9991  135.6855  151.3793 H   0  0  0  0  0  0  0  0  0  0  0  0
  145.0584  137.4384  152.3814 H   0  0  0  0  0  0  0  0  0  0  0  0
  146.4120  137.4091  151.2535 H   0  0  0  0  0  0  0  0  0  0  0  0
  147.5748  136.0854  152.4883 H   0  0  0  0  0  0  0  0  0  0  0  0
  1  2  1  0  0  0  0
  1 18  1  0  0  0  0
  1 19  1  0  0  0  0
  1 20  1  0  0  0  0
  2  3  1  0  0  0  0
  2 13  1  0  0  0  0
  2 21  1  0  0  0  0
  3  4  1  0  0  0  0
  3 22  1  0  0  0  0
  3 23  1  0  0  0  0
  4  5  1  0  0  0  0
  4 24  1  0  0  0  0
  5  6  2  0  0  0  0
  5  7  1  0  0  0  0
  7  8  1  0  0  0  0
  8 12  1  0  0  0  0
  8  9  2  0  0  0  0
  9 10  1  0  0  0  0
 10 11  2  0  0  0  0
 11 12  1  0  0  0  0
 11 25  1  0  0  0  0
 13 17  1  0  0  0  0
 13 14  1  0  0  0  0
 13 34  1  0  0  0  0
 14 15  1  0  0  0  0
 14 26  1  0  0  0  0
 14 27  1  0  0  0  0
 15 16  1  0  0  0  0
 15 28  1  0  0  0  0
 15 29  1  0  0  0  0
 16 17  1  0  0  0  0
 16 30  1  0  0  0  0
 16 31  1  0  0  0  0
 17 32  1  0  0  0  0
 17 33  1  0  0  0  0
M  CHG  1   7  -1
M  CHG  1  13   1
M  END
> <s_m_source_file>
AV-unprocessed.smi

> <i_m_source_file_index>
1522

> <i_lp_mmshare_version>
43012

> <i_f3d_flags>
0

> <s_epik_input>
W0NIMl0xW0NIMl1bQ0gyXVtDSDJdTjFbQ0BIXShbQ0gzXSlbQ0gyXVtOSF1DKD1PKVtOSF1jMm5uW2NIXXMy

> <s_epik_cmdline>
J2VwaWtfcHl0aG9uJywgJy1waCcsICc3LjAnLCAnLXRuJywgJzgnLCAnLW1hJywgJzIwMCcsICctbWV0YWxfYmluZGluZycsICctaW1hZScsICc8aW5maWxlLm1hZT4nLCAnLW9tYWUnLCAnPG91dGZpbGUubWFlPic=

> <r_lp_tautomer_probability>
1

> <r_epik_Ionization_Penalty>
3.04208

> <r_epik_Ionization_Penalty_Charging>
3.00964

> <r_epik_Ionization_Penalty_Neutral>
0.0324455

> <r_epik_State_Penalty>
3.0051

> <r_epik_Charging_Adjusted_Penalty>
6.01474

> <i_epik_Tot_Q>
0

> <i_epik_Tot_abs_Q>
2

> <r_epik_Metal_State_Penalty>
0.454155

> <b_epik_Metal_Only>
1

> <s_lp_Force_Field>
OPLS_2005

> <r_lp_Energy>
23.3187

> <b_lp_Chiralities_Consistent>
1

> <s_lp_Variant>
AV-unprocessed.smi:1522-4

> <Gold.Version>
5.8.1

> <Gold.Id.Protein>
6NUR|6NUR_protein|mol2

> <Gold.PLP.Fitness>
41.8910

> <Gold.PLP.PLP>
-25.8107

> <Gold.PLP.part.hbond>
-5.4319

> <Gold.PLP.part.metal>
0.0000

> <Gold.PLP.part.buried>
-4.4039

> <Gold.PLP.part.nonpolar>
-16.5401

> <Gold.PLP.part.repulsive>
0.2550

> <Gold.PLP.ligand.clash>
0.0000

> <Gold.PLP.ligand.torsion>
0.7029

> <Gold.PLP.Chemscore.Hbond>
5.8000

> <Gold.PLP.Chemscore.CHOScore>
0.0000

> <Gold.PLP.Chemscore.Metal>
0.0000

> <Gold.Chemscore.Hbonds>
donor molecule, donor type, donor heavy atom, donor atom, acceptor molecule, acceptor atom, score
      L1  H     4    24       P1  7948  0.93
      L1  H    13    34       P1  7948  1.92
      P1  H 10752 10764       L1     7  1.00

> <Gold.PLP.Chemscore.Internal.Correction>
0.0861

> <Gold.Rescore>
     Score         DG    S(hbond)    S(metal)    S(lipo)     H(rot)  DE(clash)    DE(int)     intcor
     15.27     -16.26       3.33        0.00      33.77       1.68       0.02       0.97       ----

> <Gold.Chemscore.Fitness>
15.2660

> <Gold.Chemscore.DG>
-16.2563

> <Gold.Chemscore.ZeroCoef>
-5.4800

> <Gold.Chemscore.Hbond>
3.3283

> <Gold.Chemscore.Metal>
0.0000

> <Gold.Chemscore.Lipo>
33.7664

> <Gold.Chemscore.Internal_Hbond>
0.0000

> <Gold.Chemscore.DEClash>
0.0202

> <Gold.Chemscore.DEInternal>
0.9700

> <Gold.Chemscore.Rot>
1.6762

> <Gold.Chemscore.Internal.Correction>
   9.000000E+99

> <Gold.Chemscore.Hbonds>
donor molecule, donor type, donor heavy atom, donor atom, acceptor molecule, acceptor atom, score
      L1  H     4    24       P1  7948  0.59
      L1  H    13    34       P1  7948  0.90
      P1  H 10752 10764       L1     7  0.02

> <Gold.Chemscore.Hbond.Weighted>
-11.1166

> <Gold.Chemscore.Metal.Weighted>
-0.0000

> <Gold.Chemscore.Lipo.Weighted>
-3.9507

> <Gold.Chemscore.Internal_Hbond.Weighted>
0.0000

> <Gold.Chemscore.DEClash.Weighted>
0.0202

> <Gold.Chemscore.DEInternal.Weighted>
0.9700

> <Gold.Chemscore.Rot.Weighted>
4.2910

> <Gold.Chemscore.Internal.Correction.Weighted>
   9.000000E+99

> <Gold.Protein.RotatedTorsions>
[ 6907 6896 6895 6894 ] final -115.17 input  -60.11 | X-H torsion
[ 7974 7965 7964 7962 ] final   38.90 input  175.53 | X-H torsion
[ 8008 7997 7996 7995 ] final -153.99 input   59.86 | X-H torsion
[ 10167 10162 10161 10158 ] final  -76.09 input  -65.29 | X-H torsion
[ 10718 10713 10712 10709 ] final  -49.88 input   66.30 | X-H torsion
[ 10763 10752 10751 10750 ] final  -73.48 input  -60.55 | X-H torsion
[ 11005 11000 10999 10996 ] final   36.83 input  -57.11 | X-H torsion

> <Gold.Protein.ActiveResidues>
 VAL166  LYS551  ARG553  GLY616  TRP617  ASP618  TYR619  PRO620  LYS621  CYS622 
 ASP623  PHE694  ASN695  SER759  ASP760  ASP761  ALA762  ILE779  LEU786  VAL792 
 PHE793  MET794  SER795  GLU796  ALA797  LYS798  CYS799  TRP800  GLU811  SER814 

> <Gold.Protein.RotatedAtoms>
  150.7957  133.8697  159.3254 H   0  0  0  0  0  0  0  0  0  0  0  0  # atno 6907 bound_to 6896
  151.6522  135.0998  160.0172 H   0  0  0  0  0  0  0  0  0  0  0  0  # atno 6908 bound_to 6896
  152.4039  133.6819  159.6374 H   0  0  0  0  0  0  0  0  0  0  0  0  # atno 6909 bound_to 6896
  146.1026  139.5716  142.9404 H   0  0  0  0  0  0  0  0  0  0  0  0  # atno 7974 bound_to 7965
  155.6794  140.0742  157.2490 H   0  0  0  0  0  0  0  0  0  0  0  0  # atno 8008 bound_to 7997
  154.4108  140.1684  156.2017 H   0  0  0  0  0  0  0  0  0  0  0  0  # atno 8009 bound_to 7997
  155.9548  140.3374  155.6442 H   0  0  0  0  0  0  0  0  0  0  0  0  # atno 8010 bound_to 7997
  140.4886  143.2385  151.7943 H   0  0  0  0  0  0  0  0  0  0  0  0  # atno 10167 bound_to 10162
  156.1852  130.4151  149.9450 H   0  0  0  0  0  0  0  0  0  0  0  0  # atno 10718 bound_to 10713
  154.4600  135.5896  153.6249 H   0  0  0  0  0  0  0  0  0  0  0  0  # atno 10763 bound_to 10752
  152.9822  135.6041  154.3498 H   0  0  0  0  0  0  0  0  0  0  0  0  # atno 10764 bound_to 10752
  154.3369  135.2842  155.2422 H   0  0  0  0  0  0  0  0  0  0  0  0  # atno 10765 bound_to 10752
  140.2286  134.3555  155.7973 H   0  0  0  0  0  0  0  0  0  0  0  0  # atno 11005 bound_to 11000
  145.5825  141.0380  143.2114 LP  0  0  0  0  0  0  0  0  0  0  0  0  # atno 17320 bound_to 7965
  144.7445  139.7359  143.7298 LP  0  0  0  0  0  0  0  0  0  0  0  0  # atno 17321 bound_to 7965
  139.4847  144.4679  151.9462 LP  0  0  0  0  0  0  0  0  0  0  0  0  # atno 17342 bound_to 10162
  140.3765  144.2790  150.5913 LP  0  0  0  0  0  0  0  0  0  0  0  0  # atno 17343 bound_to 10162
  156.7208  130.9006  151.3618 LP  0  0  0  0  0  0  0  0  0  0  0  0  # atno 17370 bound_to 10713
  157.6894  130.9218  150.0472 LP  0  0  0  0  0  0  0  0  0  0  0  0  # atno 17371 bound_to 10713
  141.2219  133.7233  156.8694 LP  0  0  0  0  0  0  0  0  0  0  0  0  # atno 17394 bound_to 11000
  140.1774  134.9057  157.2907 LP  0  0  0  0  0  0  0  0  0  0  0  0  # atno 17395 bound_to 11000

$$$$
