AV-unprocessed.smi:2078|AV-procd|sdf|8473|dock2
  -GOLD-   2272011173D 1   1.00000     0.00000
 Structure written by MMmdl.
 41 42  0  0  0  0  0  0  0  0  3 V2000
  147.3983  136.4142  163.0671 C   0  0  0  0  0  0  0  0  0  0  0  0
  147.5744  136.2270  161.5991 C   0  0  0  0  0  0  0  0  0  0  0  0
  147.2032  135.2324  160.7387 C   0  0  0  0  0  0  0  0  0  0  0  0
  147.6867  135.6947  159.4860 C   0  0  0  0  0  0  0  0  0  0  0  0
  147.4823  134.9348  158.3045 N   0  0  0  0  0  0  0  0  0  0  0  0
  148.3937  134.2875  157.5569 C   0  0  0  0  0  0  0  0  0  0  0  0
  149.5673  134.2033  157.9386 O   0  0  0  0  0  0  0  0  0  0  0  0
  147.8638  133.7901  156.4051 N   0  5  0  0  0  0  0  0  0  0  0  0
  148.6397  133.2015  155.3087 C   0  0  0  0  0  0  0  0  0  0  0  0
  148.7847  134.2077  154.1454 C   0  0  0  0  0  0  0  0  0  0  0  0
  147.7213  134.0402  153.1178 N   0  3  1  0  0  0  0  0  0  0  0  0
  147.6607  132.6775  152.5254 C   0  0  0  0  0  0  0  0  0  0  0  0
  146.6940  132.6452  151.3320 C   0  0  0  0  0  0  0  0  0  0  0  0
  145.2971  133.1350  151.7417 C   0  0  0  0  0  0  0  0  0  0  0  0
  145.3620  134.5171  152.4194 C   0  0  2  0  0  0  0  0  0  0  0  0
  145.6208  135.6590  151.4201 C   0  0  0  0  0  0  0  0  0  0  0  0
  146.3863  134.5075  153.5735 C   0  0  0  0  0  0  0  0  0  0  0  0
  148.2913  136.8705  159.5733 N   0  0  0  0  0  0  0  0  0  0  0  0
  148.2239  137.2165  160.9282 O   0  0  0  0  0  0  0  0  0  0  0  0
  146.4778  136.9583  163.2779 H   0  0  0  0  0  0  0  0  0  0  0  0
  148.2299  136.9772  163.4917 H   0  0  0  0  0  0  0  0  0  0  0  0
  147.3475  135.4522  163.5772 H   0  0  0  0  0  0  0  0  0  0  0  0
  146.6724  134.3210  160.9700 H   0  0  0  0  0  0  0  0  0  0  0  0
  146.5339  134.9116  157.9597 H   0  0  0  0  0  0  0  0  0  0  0  0
  149.6308  132.8752  155.6267 H   0  0  0  0  0  0  0  0  0  0  0  0
  148.1517  132.3043  154.9283 H   0  0  0  0  0  0  0  0  0  0  0  0
  148.7760  135.2300  154.5259 H   0  0  0  0  0  0  0  0  0  0  0  0
  149.7702  134.0706  153.6975 H   0  0  0  0  0  0  0  0  0  0  0  0
  148.6520  132.3704  152.1903 H   0  0  0  0  0  0  0  0  0  0  0  0
  147.3471  131.9613  153.2861 H   0  0  0  0  0  0  0  0  0  0  0  0
  147.0869  133.2657  150.5255 H   0  0  0  0  0  0  0  0  0  0  0  0
  146.6298  131.6324  150.9337 H   0  0  0  0  0  0  0  0  0  0  0  0
  144.6359  133.1627  150.8751 H   0  0  0  0  0  0  0  0  0  0  0  0
  144.8595  132.4165  152.4361 H   0  0  0  0  0  0  0  0  0  0  0  0
  144.3818  134.7111  152.8565 H   0  0  0  0  0  0  0  0  0  0  0  0
  146.5833  135.5548  150.9210 H   0  0  0  0  0  0  0  0  0  0  0  0
  145.6157  136.6274  151.9210 H   0  0  0  0  0  0  0  0  0  0  0  0
  144.8512  135.6856  150.6484 H   0  0  0  0  0  0  0  0  0  0  0  0
  146.0385  133.8584  154.3785 H   0  0  0  0  0  0  0  0  0  0  0  0
  146.4679  135.5114  153.9928 H   0  0  0  0  0  0  0  0  0  0  0  0
  147.9876  134.6674  152.3706 H   0  0  0  0  0  0  0  0  0  0  0  0
  1  2  1  0  0  0  0
  1 20  1  0  0  0  0
  1 21  1  0  0  0  0
  1 22  1  0  0  0  0
  2 19  1  0  0  0  0
  2  3  2  0  0  0  0
  3  4  1  0  0  0  0
  3 23  1  0  0  0  0
  4  5  1  0  0  0  0
  4 18  2  0  0  0  0
  5  6  1  0  0  0  0
  5 24  1  0  0  0  0
  6  7  2  0  0  0  0
  6  8  1  0  0  0  0
  8  9  1  0  0  0  0
  9 10  1  0  0  0  0
  9 25  1  0  0  0  0
  9 26  1  0  0  0  0
 10 11  1  0  0  0  0
 10 27  1  0  0  0  0
 10 28  1  0  0  0  0
 11 17  1  0  0  0  0
 11 12  1  0  0  0  0
 11 41  1  0  0  0  0
 12 13  1  0  0  0  0
 12 29  1  0  0  0  0
 12 30  1  0  0  0  0
 13 14  1  0  0  0  0
 13 31  1  0  0  0  0
 13 32  1  0  0  0  0
 14 15  1  0  0  0  0
 14 33  1  0  0  0  0
 14 34  1  0  0  0  0
 15 16  1  0  0  0  0
 15 17  1  0  0  0  0
 15 35  1  0  0  0  0
 16 36  1  0  0  0  0
 16 37  1  0  0  0  0
 16 38  1  0  0  0  0
 17 39  1  0  0  0  0
 17 40  1  0  0  0  0
 18 19  1  0  0  0  0
M  CHG  1   8  -1
M  CHG  1  11   1
M  END
> <s_m_source_file>
AV-unprocessed.smi

> <i_m_source_file_index>
2078

> <i_lp_mmshare_version>
43012

> <i_f3d_flags>
0

> <s_epik_input>
W0NIM11jMVtjSF1jKG5vMSlbTkhdQyg9TylbTkhdW0NIMl1bQ0gyXU4yW0NIMl1bQ0gyXVtDSDJdW0NAQEhdKFtDSDNdKVtDSDJdMg==

> <s_epik_cmdline>
J2VwaWtfcHl0aG9uJywgJy1waCcsICc3LjAnLCAnLXRuJywgJzgnLCAnLW1hJywgJzIwMCcsICctbWV0YWxfYmluZGluZycsICctaW1hZScsICc8aW5maWxlLm1hZT4nLCAnLW9tYWUnLCAnPG91dGZpbGUubWFlPic=

> <r_epik_Ionization_Penalty>
6.76934

> <r_epik_Ionization_Penalty_Charging>
6.76934

> <r_epik_Ionization_Penalty_Neutral>
5.77849e-06

> <r_epik_State_Penalty>
6.79457

> <r_epik_Charging_Adjusted_Penalty>
13.5639

> <i_epik_Tot_Q>
0

> <i_epik_Tot_abs_Q>
2

> <r_epik_Metal_State_Penalty>
2.72837

> <b_epik_Metal_Only>
1

> <s_lp_Force_Field>
OPLS_2005

> <r_lp_Energy>
11.5184

> <b_lp_Chiralities_Consistent>
1

> <s_lp_Variant>
AV-unprocessed.smi:2078-11

> <Gold.Version>
5.8.1

> <Gold.Id.Protein>
6NUR|6NUR_protein|mol2

> <Gold.PLP.Fitness>
38.8579

> <Gold.PLP.PLP>
-27.8083

> <Gold.PLP.part.hbond>
-3.7934

> <Gold.PLP.part.metal>
0.0000

> <Gold.PLP.part.buried>
-2.0277

> <Gold.PLP.part.nonpolar>
-22.3448

> <Gold.PLP.part.repulsive>
0.0301

> <Gold.PLP.ligand.clash>
0.0000

> <Gold.PLP.ligand.torsion>
1.0524

> <Gold.PLP.Chemscore.Hbond>
4.3344

> <Gold.PLP.Chemscore.CHOScore>
0.0000

> <Gold.PLP.Chemscore.Metal>
0.0000

> <Gold.Chemscore.Hbonds>
donor molecule, donor type, donor heavy atom, donor atom, acceptor molecule, acceptor atom, score
      L1  H    11    41       P1  7948  1.92
      P1  H  6896  6909       L1     7  1.00
      P1  H  6931  6943       L1    19  0.93
      P1  H  6934  6947       L1    19  0.56

> <Gold.PLP.Chemscore.Internal.Correction>
0.1512

> <Gold.Rescore>
     Score         DG    S(hbond)    S(metal)    S(lipo)     H(rot)  DE(clash)    DE(int)     intcor
     17.31     -18.49       2.88        0.00      62.77       1.54       0.22       0.96       ----

> <Gold.Chemscore.Fitness>
17.3088

> <Gold.Chemscore.DG>
-18.4924

> <Gold.Chemscore.ZeroCoef>
-5.4800

> <Gold.Chemscore.Hbond>
2.8782

> <Gold.Chemscore.Metal>
0.0000

> <Gold.Chemscore.Lipo>
62.7678

> <Gold.Chemscore.Internal_Hbond>
0.0000

> <Gold.Chemscore.DEClash>
0.2228

> <Gold.Chemscore.DEInternal>
0.9609

> <Gold.Chemscore.Rot>
1.5409

> <Gold.Chemscore.Internal.Correction>
   9.000000E+99

> <Gold.Chemscore.Hbonds>
donor molecule, donor type, donor heavy atom, donor atom, acceptor molecule, acceptor atom, score
      L1  H    11    41       P1  7948  0.46
      P1  H  6896  6909       L1     7  0.96
      P1  H  6931  6943       L1    19  0.79
      P1  H  6934  6947       L1    19  0.21

> <Gold.Chemscore.Hbond.Weighted>
-9.6132

> <Gold.Chemscore.Metal.Weighted>
-0.0000

> <Gold.Chemscore.Lipo.Weighted>
-7.3438

> <Gold.Chemscore.Internal_Hbond.Weighted>
0.0000

> <Gold.Chemscore.DEClash.Weighted>
0.2228

> <Gold.Chemscore.DEInternal.Weighted>
0.9609

> <Gold.Chemscore.Rot.Weighted>
3.9446

> <Gold.Chemscore.Internal.Correction.Weighted>
   9.000000E+99

> <Gold.Protein.RotatedTorsions>
[ 6907 6896 6895 6894 ] final    1.55 input  -60.11 | X-H torsion
[ 7974 7965 7964 7962 ] final -150.33 input  175.53 | X-H torsion
[ 8008 7997 7996 7995 ] final  -34.34 input   59.86 | X-H torsion
[ 10167 10162 10161 10158 ] final   71.40 input  -65.29 | X-H torsion
[ 10718 10713 10712 10709 ] final  -81.46 input   66.30 | X-H torsion
[ 10763 10752 10751 10750 ] final -141.21 input  -60.55 | X-H torsion
[ 11005 11000 10999 10996 ] final  -58.84 input  -57.11 | X-H torsion

> <Gold.Protein.ActiveResidues>
 VAL166  LYS551  ARG553  GLY616  TRP617  ASP618  TYR619  PRO620  LYS621  CYS622 
 ASP623  PHE694  ASN695  SER759  ASP760  ASP761  ALA762  ILE779  LEU786  VAL792 
 PHE793  MET794  SER795  GLU796  ALA797  LYS798  CYS799  TRP800  GLU811  SER814 

> <Gold.Protein.RotatedAtoms>
  151.5945  135.1051  160.0046 H   0  0  0  0  0  0  0  0  0  0  0  0  # atno 6907 bound_to 6896
  152.4289  133.7239  159.6560 H   0  0  0  0  0  0  0  0  0  0  0  0  # atno 6908 bound_to 6896
  150.8180  133.8231  159.3174 H   0  0  0  0  0  0  0  0  0  0  0  0  # atno 6909 bound_to 6896
  144.7914  140.4947  143.5770 H   0  0  0  0  0  0  0  0  0  0  0  0  # atno 7974 bound_to 7965
  154.4123  140.1686  156.2034 H   0  0  0  0  0  0  0  0  0  0  0  0  # atno 8008 bound_to 7997
  155.9505  140.3401  155.6380 H   0  0  0  0  0  0  0  0  0  0  0  0  # atno 8009 bound_to 7997
  155.6876  140.0730  157.2451 H   0  0  0  0  0  0  0  0  0  0  0  0  # atno 8010 bound_to 7997
  140.0465  144.5347  150.7395 H   0  0  0  0  0  0  0  0  0  0  0  0  # atno 10167 bound_to 10162
  156.0050  130.4604  150.3956 H   0  0  0  0  0  0  0  0  0  0  0  0  # atno 10718 bound_to 10713
  154.8553  135.3531  154.5832 H   0  0  0  0  0  0  0  0  0  0  0  0  # atno 10763 bound_to 10752
  153.6442  135.6997  153.5235 H   0  0  0  0  0  0  0  0  0  0  0  0  # atno 10764 bound_to 10752
  153.2946  135.4224  155.1156 H   0  0  0  0  0  0  0  0  0  0  0  0  # atno 10765 bound_to 10752
  141.1224  133.6614  156.4981 H   0  0  0  0  0  0  0  0  0  0  0  0  # atno 11005 bound_to 11000
  145.5784  139.1487  143.3249 LP  0  0  0  0  0  0  0  0  0  0  0  0  # atno 17320 bound_to 7965
  146.2167  140.5915  142.9035 LP  0  0  0  0  0  0  0  0  0  0  0  0  # atno 17321 bound_to 7965
  140.7236  143.2613  151.4195 LP  0  0  0  0  0  0  0  0  0  0  0  0  # atno 17342 bound_to 10162
  139.5980  144.1355  152.2166 LP  0  0  0  0  0  0  0  0  0  0  0  0  # atno 17343 bound_to 10162
  157.2028  131.0442  151.2641 LP  0  0  0  0  0  0  0  0  0  0  0  0  # atno 17370 bound_to 10713
  157.3960  130.7308  149.6732 LP  0  0  0  0  0  0  0  0  0  0  0  0  # atno 17371 bound_to 10713
  140.4468  134.6965  157.5020 LP  0  0  0  0  0  0  0  0  0  0  0  0  # atno 17394 bound_to 11000
  140.0192  134.6573  155.9265 LP  0  0  0  0  0  0  0  0  0  0  0  0  # atno 17395 bound_to 11000

$$$$
