AV-unprocessed.smi:2178|AV-procd|sdf|8854|dock9
  -GOLD-   2272012 53D 1   1.00000     0.00000
 Structure written by MMmdl.
 47 49  0  0  0  0  0  0  0  0  2 V2000
  150.9771  144.7307  159.2923 C   0  0  0  0  0  0  0  0  0  0  0  0
  151.8429  143.7656  160.0811 C   0  0  0  0  0  0  0  0  0  0  0  0
  152.1621  144.0632  161.4221 C   0  0  0  0  0  0  0  0  0  0  0  0
  152.9803  143.1940  162.1668 C   0  0  0  0  0  0  0  0  0  0  0  0
  153.4882  142.0243  161.5723 C   0  0  0  0  0  0  0  0  0  0  0  0
  153.1732  141.7142  160.2332 C   0  0  0  0  0  0  0  0  0  0  0  0
  153.7335  140.4535  159.6019 C   0  0  0  0  0  0  0  0  0  0  0  0
  152.3367  142.5783  159.4883 C   0  0  0  0  0  0  0  0  0  0  0  0
  152.0335  142.2715  158.1866 O   0  0  0  0  0  0  0  0  0  0  0  0
  151.2123  141.1213  158.0476 C   0  0  0  0  0  0  0  0  0  0  0  0
  150.0821  141.4334  157.0551 C   0  0  2  0  0  0  0  0  0  0  0  0
  149.4468  142.6308  157.4577 O   0  0  0  0  0  0  0  0  0  0  0  0
  149.0386  140.3001  156.9961 C   0  0  0  0  0  0  0  0  0  0  0  0
  149.4018  139.2398  156.0415 N   0  0  0  0  0  0  0  0  0  0  0  0
  148.9196  138.9894  154.7901 C   0  0  0  0  0  0  0  0  0  0  0  0
  147.8713  139.7645  154.0624 C   0  0  0  0  0  0  0  0  0  0  0  0
  148.3345  141.0283  153.6411 O   0  0  0  0  0  0  0  0  0  0  0  0
  149.5809  137.8977  154.3129 N   0  3  0  0  0  0  0  0  0  0  0  0
  150.4910  137.4421  155.2671 C   0  0  0  0  0  0  0  0  0  0  0  0
  151.3779  136.3704  155.2392 C   0  0  0  0  0  0  0  0  0  0  0  0
  152.1721  136.1761  156.3884 C   0  0  0  0  0  0  0  0  0  0  0  0
  152.0679  137.0303  157.5052 C   0  0  0  0  0  0  0  0  0  0  0  0
  151.1662  138.1148  157.5210 C   0  0  0  0  0  0  0  0  0  0  0  0
  150.3832  138.3000  156.3813 C   0  0  0  0  0  0  0  0  0  0  0  0
  151.0751  145.7453  159.6791 H   0  0  0  0  0  0  0  0  0  0  0  0
  149.9289  144.4403  159.3610 H   0  0  0  0  0  0  0  0  0  0  0  0
  151.2634  144.7478  158.2402 H   0  0  0  0  0  0  0  0  0  0  0  0
  151.7833  144.9635  161.8836 H   0  0  0  0  0  0  0  0  0  0  0  0
  153.2237  143.4279  163.1926 H   0  0  0  0  0  0  0  0  0  0  0  0
  154.1222  141.3667  162.1490 H   0  0  0  0  0  0  0  0  0  0  0  0
  154.1509  140.6697  158.6181 H   0  0  0  0  0  0  0  0  0  0  0  0
  152.9479  139.7069  159.4860 H   0  0  0  0  0  0  0  0  0  0  0  0
  154.5255  140.0218  160.2145 H   0  0  0  0  0  0  0  0  0  0  0  0
  151.8276  140.3092  157.6572 H   0  0  0  0  0  0  0  0  0  0  0  0
  150.8145  140.7834  159.0057 H   0  0  0  0  0  0  0  0  0  0  0  0
  150.5043  141.5779  156.0598 H   0  0  0  0  0  0  0  0  0  0  0  0
  149.2729  143.1513  156.6887 H   0  0  0  0  0  0  0  0  0  0  0  0
  148.9490  139.8279  157.9752 H   0  0  0  0  0  0  0  0  0  0  0  0
  148.0464  140.6831  156.7566 H   0  0  0  0  0  0  0  0  0  0  0  0
  147.5399  139.1991  153.1911 H   0  0  0  0  0  0  0  0  0  0  0  0
  147.0024  139.8984  154.7066 H   0  0  0  0  0  0  0  0  0  0  0  0
  148.8242  140.9178  152.8401 H   0  0  0  0  0  0  0  0  0  0  0  0
  151.4588  135.7146  154.3846 H   0  0  0  0  0  0  0  0  0  0  0  0
  152.8745  135.3555  156.4137 H   0  0  0  0  0  0  0  0  0  0  0  0
  152.6919  136.8497  158.3685 H   0  0  0  0  0  0  0  0  0  0  0  0
  151.0939  138.7588  158.3843 H   0  0  0  0  0  0  0  0  0  0  0  0
  149.4197  137.4967  153.3981 H   0  0  0  0  0  0  0  0  0  0  0  0
  1  2  1  0  0  0  0
  1 25  1  0  0  0  0
  1 26  1  0  0  0  0
  1 27  1  0  0  0  0
  2  8  1  0  0  0  0
  2  3  2  0  0  0  0
  3  4  1  0  0  0  0
  3 28  1  0  0  0  0
  4  5  2  0  0  0  0
  4 29  1  0  0  0  0
  5  6  1  0  0  0  0
  5 30  1  0  0  0  0
  6  7  1  0  0  0  0
  6  8  2  0  0  0  0
  7 31  1  0  0  0  0
  7 32  1  0  0  0  0
  7 33  1  0  0  0  0
  8  9  1  0  0  0  0
  9 10  1  0  0  0  0
 10 11  1  0  0  0  0
 10 34  1  0  0  0  0
 10 35  1  0  0  0  0
 11 12  1  0  0  0  0
 11 13  1  0  0  0  0
 11 36  1  0  0  0  0
 12 37  1  0  0  0  0
 13 14  1  0  0  0  0
 13 38  1  0  0  0  0
 13 39  1  0  0  0  0
 14 24  1  0  0  0  0
 14 15  1  0  0  0  0
 15 16  1  0  0  0  0
 15 18  2  0  0  0  0
 16 17  1  0  0  0  0
 16 40  1  0  0  0  0
 16 41  1  0  0  0  0
 17 42  1  0  0  0  0
 18 19  1  0  0  0  0
 18 47  1  0  0  0  0
 19 24  2  0  0  0  0
 19 20  1  0  0  0  0
 20 21  2  0  0  0  0
 20 43  1  0  0  0  0
 21 22  1  0  0  0  0
 21 44  1  0  0  0  0
 22 23  2  0  0  0  0
 22 45  1  0  0  0  0
 23 24  1  0  0  0  0
 23 46  1  0  0  0  0
M  CHG  1  18   1
M  END
> <s_m_source_file>
AV-unprocessed.smi

> <i_m_source_file_index>
2178

> <i_lp_mmshare_version>
43012

> <i_f3d_flags>
0

> <s_epik_input>
W0NIM11jMVtjSF1bY0hdW2NIXWMoW0NIM10pYzFPW0NIMl1bQ0BIXShbT0hdKVtDSDJdbihjKG4yKVtDSDJdW09IXSljKGMyMylbY0hdW2NIXVtjSF1bY0hdMw==

> <s_epik_cmdline>
J2VwaWtfcHl0aG9uJywgJy1waCcsICc3LjAnLCAnLXRuJywgJzgnLCAnLW1hJywgJzIwMCcsICctbWV0YWxfYmluZGluZycsICctaW1hZScsICc8aW5maWxlLm1hZT4nLCAnLW9tYWUnLCAnPG91dGZpbGUubWFlPic=

> <r_lp_tautomer_probability>
1

> <r_epik_Ionization_Penalty>
1.43125

> <r_epik_Ionization_Penalty_Charging>
1.43039

> <r_epik_Ionization_Penalty_Neutral>
0.000858184

> <r_epik_State_Penalty>
1.51493

> <r_epik_Charging_Adjusted_Penalty>
2.94531

> <i_epik_Tot_Q>
1

> <i_epik_Tot_abs_Q>
1

> <r_epik_Metal_State_Penalty>
5.5599

> <b_epik_Metal_Only>
0

> <s_lp_Force_Field>
OPLS_2005

> <r_lp_Energy>
23.8242

> <b_lp_Chiralities_Consistent>
1

> <s_lp_Variant>
AV-unprocessed.smi:2178-3

> <Gold.Version>
5.8.1

> <Gold.Id.Protein>
6NUR|6NUR_protein|mol2

> <Gold.PLP.Fitness>
55.6224

> <Gold.PLP.PLP>
-46.0653

> <Gold.PLP.part.hbond>
-4.0000

> <Gold.PLP.part.metal>
0.0000

> <Gold.PLP.part.buried>
-4.6910

> <Gold.PLP.part.nonpolar>
-37.0070

> <Gold.PLP.part.repulsive>
0.0269

> <Gold.PLP.ligand.clash>
0.0000

> <Gold.PLP.ligand.torsion>
1.0668

> <Gold.PLP.Chemscore.Hbond>
3.8640

> <Gold.PLP.Chemscore.CHOScore>
0.0000

> <Gold.PLP.Chemscore.Metal>
0.0000

> <Gold.Chemscore.Hbonds>
donor molecule, donor type, donor heavy atom, donor atom, acceptor molecule, acceptor atom, score
      L1  H    12    37       P1  8028  1.00
      L1  H    17    42       P1  7957  0.98
      L1  H    18    47       P1  7948  2.00

> <Gold.PLP.Chemscore.Internal.Correction>
0.0986

> <Gold.Rescore>
     Score         DG    S(hbond)    S(metal)    S(lipo)     H(rot)  DE(clash)    DE(int)     intcor
     20.88     -22.31       2.78        0.00     131.04       3.05       0.23       1.20       ----

> <Gold.Chemscore.Fitness>
20.8772

> <Gold.Chemscore.DG>
-22.3068

> <Gold.Chemscore.ZeroCoef>
-5.4800

> <Gold.Chemscore.Hbond>
2.7834

> <Gold.Chemscore.Metal>
0.0000

> <Gold.Chemscore.Lipo>
131.0421

> <Gold.Chemscore.Internal_Hbond>
0.0000

> <Gold.Chemscore.DEClash>
0.2331

> <Gold.Chemscore.DEInternal>
1.1964

> <Gold.Chemscore.Rot>
3.0476

> <Gold.Chemscore.Internal.Correction>
   9.000000E+99

> <Gold.Chemscore.Hbonds>
donor molecule, donor type, donor heavy atom, donor atom, acceptor molecule, acceptor atom, score
      L1  H    12    37       P1  8028  0.98
      L1  H    17    42       P1  7957  0.91
      L1  H    18    47       P1  7948  0.89

> <Gold.Chemscore.Hbond.Weighted>
-9.2966

> <Gold.Chemscore.Metal.Weighted>
-0.0000

> <Gold.Chemscore.Lipo.Weighted>
-15.3319

> <Gold.Chemscore.Internal_Hbond.Weighted>
0.0000

> <Gold.Chemscore.DEClash.Weighted>
0.2331

> <Gold.Chemscore.DEInternal.Weighted>
1.1964

> <Gold.Chemscore.Rot.Weighted>
7.8018

> <Gold.Chemscore.Internal.Correction.Weighted>
   9.000000E+99

> <Gold.Protein.RotatedTorsions>
[ 6907 6896 6895 6894 ] final  -95.61 input  -60.11 | X-H torsion
[ 7974 7965 7964 7962 ] final  -69.48 input  175.53 | X-H torsion
[ 8008 7997 7996 7995 ] final   77.21 input   59.86 | X-H torsion
[ 10167 10162 10161 10158 ] final  171.27 input  -65.29 | X-H torsion
[ 10718 10713 10712 10709 ] final  -72.61 input   66.30 | X-H torsion
[ 10763 10752 10751 10750 ] final   50.59 input  -60.55 | X-H torsion
[ 11005 11000 10999 10996 ] final -156.92 input  -57.11 | X-H torsion

> <Gold.Protein.ActiveResidues>
 VAL166  LYS551  ARG553  GLY616  TRP617  ASP618  TYR619  PRO620  LYS621  CYS622 
 ASP623  PHE694  ASN695  SER759  ASP760  ASP761  ALA762  ILE779  LEU786  VAL792 
 PHE793  MET794  SER795  GLU796  ALA797  LYS798  CYS799  TRP800  GLU811  SER814 

> <Gold.Protein.RotatedAtoms>
  150.6968  134.1631  159.4183 H   0  0  0  0  0  0  0  0  0  0  0  0  # atno 6907 bound_to 6896
  151.9611  135.0121  160.0557 H   0  0  0  0  0  0  0  0  0  0  0  0  # atno 6908 bound_to 6896
  152.1926  133.4749  159.5053 H   0  0  0  0  0  0  0  0  0  0  0  0  # atno 6909 bound_to 6896
  145.7032  140.9108  143.0720 H   0  0  0  0  0  0  0  0  0  0  0  0  # atno 7974 bound_to 7965
  155.8383  140.3463  155.5616 H   0  0  0  0  0  0  0  0  0  0  0  0  # atno 8008 bound_to 7997
  155.8168  140.0907  157.1892 H   0  0  0  0  0  0  0  0  0  0  0  0  # atno 8009 bound_to 7997
  154.4004  140.1437  156.3439 H   0  0  0  0  0  0  0  0  0  0  0  0  # atno 8010 bound_to 7997
  139.5042  144.3505  151.9927 H   0  0  0  0  0  0  0  0  0  0  0  0  # atno 10167 bound_to 10162
  156.0313  130.4376  150.2618 H   0  0  0  0  0  0  0  0  0  0  0  0  # atno 10718 bound_to 10713
  152.9784  135.5874  154.4277 H   0  0  0  0  0  0  0  0  0  0  0  0  # atno 10763 bound_to 10752
  154.3894  135.2767  155.2166 H   0  0  0  0  0  0  0  0  0  0  0  0  # atno 10764 bound_to 10752
  154.4045  135.6096  153.5971 H   0  0  0  0  0  0  0  0  0  0  0  0  # atno 10765 bound_to 10752
  140.6703  134.4254  157.5232 H   0  0  0  0  0  0  0  0  0  0  0  0  # atno 11005 bound_to 11000
  144.6962  139.8975  143.7456 LP  0  0  0  0  0  0  0  0  0  0  0  0  # atno 17320 bound_to 7965
  146.0779  139.3767  143.0483 LP  0  0  0  0  0  0  0  0  0  0  0  0  # atno 17321 bound_to 7965
  140.2942  144.3720  150.6079 LP  0  0  0  0  0  0  0  0  0  0  0  0  # atno 17342 bound_to 10162
  140.5923  143.2167  151.7229 LP  0  0  0  0  0  0  0  0  0  0  0  0  # atno 17343 bound_to 10162
  157.0720  131.0119  151.3187 LP  0  0  0  0  0  0  0  0  0  0  0  0  # atno 17370 bound_to 10713
  157.4992  130.7869  149.7587 LP  0  0  0  0  0  0  0  0  0  0  0  0  # atno 17371 bound_to 10713
  139.8984  134.8615  156.2004 LP  0  0  0  0  0  0  0  0  0  0  0  0  # atno 17394 bound_to 11000
  141.0397  133.6944  156.1576 LP  0  0  0  0  0  0  0  0  0  0  0  0  # atno 17395 bound_to 11000

$$$$
