AV-unprocessed.smi:20|AV-procd|sdf|113|dock4
  -GOLD-   2262015273D 1   1.00000     0.00000
 Structure written by MMmdl.
 57 61  0  0  0  0  0  0  0  0  1 V2000
  140.3601  143.5183  160.1756 O   0  0  0  0  0  0  0  0  0  0  0  0
  141.1907  144.1908  159.5695 C   0  0  0  0  0  0  0  0  0  0  0  0
  141.9167  143.7131  158.3236 C   0  0  0  0  0  0  0  0  0  0  0  0
  142.5362  145.0100  157.7488 C   0  0  2  0  0  0  0  0  0  0  0  0
  141.6205  145.6549  156.6739 C   0  0  0  0  0  0  0  0  0  0  0  0
  141.6305  144.8659  155.3530 C   0  0  0  0  0  0  0  0  0  0  0  0
  143.0648  144.6458  154.8527 C   0  0  0  0  0  0  0  0  0  0  0  0
  143.8864  144.0345  155.8951 N   0  0  0  0  0  0  0  0  0  0  0  0
  145.0289  143.4508  155.4512 C   0  0  0  0  0  0  0  0  0  0  0  0
  145.3724  143.5419  154.1381 N   0  0  0  0  0  0  0  0  0  0  0  0
  146.4914  142.9647  153.6908 C   0  0  0  0  0  0  0  0  0  0  0  0
  147.3964  142.2599  154.3718 N   0  0  0  0  0  0  0  0  0  0  0  0
  147.0611  142.1678  155.6905 C   0  0  0  0  0  0  0  0  0  0  0  0
  145.9080  142.7295  156.3081 C   0  0  0  0  0  0  0  0  0  0  0  0
  145.9140  142.4425  157.6680 N   0  0  0  0  0  0  0  0  0  0  0  0
  147.0008  141.7414  157.8416 C   0  0  0  0  0  0  0  0  0  0  0  0
  147.7394  141.5106  156.7029 N   0  0  0  0  0  0  0  0  0  0  0  0
  148.9918  140.7774  156.6134 C   0  0  0  0  0  0  0  0  0  0  0  0
  150.2497  141.6791  156.4820 C   0  0  2  0  0  0  0  0  0  0  0  0
  151.4795  140.8057  156.1381 C   0  0  0  0  0  0  0  0  0  0  0  0
  151.2432  140.0224  154.9859 O   0  0  0  0  0  0  0  0  0  0  0  0
  150.5225  142.5347  157.7528 C   0  0  2  0  0  0  0  0  0  0  0  0
  151.5298  143.6632  157.6026 C   0  0  0  0  0  0  0  0  0  0  0  0
  151.9198  143.9506  159.0460 C   0  0  0  0  0  0  0  0  0  0  0  0
  151.8978  142.6881  159.6956 O   0  0  0  0  0  0  0  0  0  0  0  0
  151.1575  141.7555  158.9146 C   0  0  0  0  0  0  0  0  0  0  0  0
  143.9444  144.7820  157.1530 C   0  0  0  0  0  0  0  0  0  0  0  0
  142.6045  145.9292  158.9918 C   0  0  0  0  0  0  0  0  0  0  0  0
  141.5880  145.4193  159.8910 N   0  0  0  0  0  0  0  0  0  0  0  0
  142.6831  142.9979  158.6244 H   0  0  0  0  0  0  0  0  0  0  0  0
  141.2359  143.2096  157.6380 H   0  0  0  0  0  0  0  0  0  0  0  0
  140.5981  145.7506  157.0418 H   0  0  0  0  0  0  0  0  0  0  0  0
  141.9640  146.6695  156.4672 H   0  0  0  0  0  0  0  0  0  0  0  0
  141.1389  143.9019  155.4834 H   0  0  0  0  0  0  0  0  0  0  0  0
  141.0534  145.3997  154.5976 H   0  0  0  0  0  0  0  0  0  0  0  0
  143.0421  144.0393  153.9479 H   0  0  0  0  0  0  0  0  0  0  0  0
  143.5101  145.6021  154.5745 H   0  0  0  0  0  0  0  0  0  0  0  0
  146.6884  143.0815  152.6354 H   0  0  0  0  0  0  0  0  0  0  0  0
  147.2942  141.3684  158.8122 H   0  0  0  0  0  0  0  0  0  0  0  0
  149.0892  140.1230  157.4803 H   0  0  0  0  0  0  0  0  0  0  0  0
  148.8987  140.1186  155.7500 H   0  0  0  0  0  0  0  0  0  0  0  0
  150.1033  142.3647  155.6463 H   0  0  0  0  0  0  0  0  0  0  0  0
  152.3564  141.4160  155.9260 H   0  0  0  0  0  0  0  0  0  0  0  0
  151.7389  140.1545  156.9734 H   0  0  0  0  0  0  0  0  0  0  0  0
  151.5425  139.1416  155.1539 H   0  0  0  0  0  0  0  0  0  0  0  0
  149.5825  142.9654  158.1022 H   0  0  0  0  0  0  0  0  0  0  0  0
  152.4005  143.3316  157.0353 H   0  0  0  0  0  0  0  0  0  0  0  0
  151.1184  144.5492  157.1219 H   0  0  0  0  0  0  0  0  0  0  0  0
  152.8957  144.4291  159.1302 H   0  0  0  0  0  0  0  0  0  0  0  0
  151.1802  144.5992  159.5173 H   0  0  0  0  0  0  0  0  0  0  0  0
  150.4119  141.2504  159.5289 H   0  0  0  0  0  0  0  0  0  0  0  0
  151.8534  141.0020  158.5433 H   0  0  0  0  0  0  0  0  0  0  0  0
  144.4265  145.7428  156.9660 H   0  0  0  0  0  0  0  0  0  0  0  0
  144.5661  144.2521  157.8766 H   0  0  0  0  0  0  0  0  0  0  0  0
  143.5709  145.8536  159.4927 H   0  0  0  0  0  0  0  0  0  0  0  0
  142.4341  146.9806  158.7577 H   0  0  0  0  0  0  0  0  0  0  0  0
  141.2427  145.9423  160.6828 H   0  0  0  0  0  0  0  0  0  0  0  0
  1  2  2  0  0  0  0
  2 29  1  0  0  0  0
  2  3  1  0  0  0  0
  3  4  1  0  0  0  0
  3 30  1  0  0  0  0
  3 31  1  0  0  0  0
  4 27  1  0  0  0  0
  4  5  1  0  0  0  0
  4 28  1  0  0  0  0
  5  6  1  0  0  0  0
  5 32  1  0  0  0  0
  5 33  1  0  0  0  0
  6  7  1  0  0  0  0
  6 34  1  0  0  0  0
  6 35  1  0  0  0  0
  7  8  1  0  0  0  0
  7 36  1  0  0  0  0
  7 37  1  0  0  0  0
  8  9  1  0  0  0  0
  8 27  1  0  0  0  0
  9 14  1  0  0  0  0
  9 10  2  0  0  0  0
 10 11  1  0  0  0  0
 11 12  2  0  0  0  0
 11 38  1  0  0  0  0
 12 13  1  0  0  0  0
 13 17  1  0  0  0  0
 13 14  2  0  0  0  0
 14 15  1  0  0  0  0
 15 16  2  0  0  0  0
 16 17  1  0  0  0  0
 16 39  1  0  0  0  0
 17 18  1  0  0  0  0
 18 19  1  0  0  0  0
 18 40  1  0  0  0  0
 18 41  1  0  0  0  0
 19 20  1  0  0  0  0
 19 22  1  0  0  0  0
 19 42  1  0  0  0  0
 20 21  1  0  0  0  0
 20 43  1  0  0  0  0
 20 44  1  0  0  0  0
 21 45  1  0  0  0  0
 22 26  1  0  0  0  0
 22 23  1  0  0  0  0
 22 46  1  0  0  0  0
 23 24  1  0  0  0  0
 23 47  1  0  0  0  0
 23 48  1  0  0  0  0
 24 25  1  0  0  0  0
 24 49  1  0  0  0  0
 24 50  1  0  0  0  0
 25 26  1  0  0  0  0
 26 51  1  0  0  0  0
 26 52  1  0  0  0  0
 27 53  1  0  0  0  0
 27 54  1  0  0  0  0
 28 29  1  0  0  0  0
 28 55  1  0  0  0  0
 28 56  1  0  0  0  0
 29 57  1  0  0  0  0
M  END
> <s_m_source_file>
AV-unprocessed.smi

> <i_m_source_file_index>
20

> <i_lp_mmshare_version>
43012

> <i_f3d_flags>
0

> <s_epik_input>
W0NIMl0xW05IXUMoPU8pW0NIMl1bQ0BAXTEyW0NIMl1bQ0gyXVtDSDJdTihbQ0gyXTIpYyhuW2NIXW4zKWMoYzM0KW5bY0hdbjRbQ0gyXVtDQEhdKFtDSDJdW09IXSlbQ0BASF01W0NIMl1bQ0gyXU9bQ0gyXTU=

> <s_epik_cmdline>
J2VwaWtfcHl0aG9uJywgJy1waCcsICc3LjAnLCAnLXRuJywgJzgnLCAnLW1hJywgJzIwMCcsICctbWV0YWxfYmluZGluZycsICctaW1hZScsICc8aW5maWxlLm1hZT4nLCAnLW9tYWUnLCAnPG91dGZpbGUubWFlPic=

> <r_lp_tautomer_probability>
1

> <r_epik_Ionization_Penalty>
0.0019697

> <r_epik_Ionization_Penalty_Charging>
0

> <r_epik_Ionization_Penalty_Neutral>
0.0019697

> <r_epik_State_Penalty>
0.00113613

> <r_epik_Charging_Adjusted_Penalty>
0.00113613

> <i_epik_Tot_Q>
0

> <i_epik_Tot_abs_Q>
0

> <r_epik_Metal_State_Penalty>
-0

> <b_epik_Metal_Only>
0

> <s_lp_Force_Field>
OPLS_2005

> <r_lp_Energy>
60.2496

> <b_lp_Chiralities_Consistent>
1

> <s_lp_Variant>
AV-unprocessed.smi:20-1

> <Gold.Version>
5.8.1

> <Gold.Id.Protein>
6NUR|6NUR_protein|mol2

> <Gold.PLP.Fitness>
39.2713

> <Gold.PLP.PLP>
-37.1525

> <Gold.PLP.part.hbond>
-2.0000

> <Gold.PLP.part.metal>
0.0000

> <Gold.PLP.part.buried>
-8.0132

> <Gold.PLP.part.nonpolar>
-27.3282

> <Gold.PLP.part.repulsive>
0.5337

> <Gold.PLP.ligand.clash>
0.0000

> <Gold.PLP.ligand.torsion>
0.6579

> <Gold.PLP.Chemscore.Hbond>
1.0000

> <Gold.PLP.Chemscore.CHOScore>
0.0000

> <Gold.PLP.Chemscore.Metal>
0.0000

> <Gold.Chemscore.Hbonds>
donor molecule, donor type, donor heavy atom, donor atom, acceptor molecule, acceptor atom, score
      P1  H  7989  7998       L1    21  1.00

> <Gold.PLP.Chemscore.Internal.Correction>
0.4346

> <Gold.Rescore>
     Score         DG    S(hbond)    S(metal)    S(lipo)     H(rot)  DE(clash)    DE(int)     intcor
     10.07     -10.89       0.96        0.00      78.79       2.74       0.12       0.71       ----

> <Gold.Chemscore.Fitness>
10.0654

> <Gold.Chemscore.DG>
-10.8942

> <Gold.Chemscore.ZeroCoef>
-5.4800

> <Gold.Chemscore.Hbond>
0.9624

> <Gold.Chemscore.Metal>
0.0000

> <Gold.Chemscore.Lipo>
78.7858

> <Gold.Chemscore.Internal_Hbond>
0.0000

> <Gold.Chemscore.DEClash>
0.1198

> <Gold.Chemscore.DEInternal>
0.7090

> <Gold.Chemscore.Rot>
2.7415

> <Gold.Chemscore.Internal.Correction>
   9.000000E+99

> <Gold.Chemscore.Hbonds>
donor molecule, donor type, donor heavy atom, donor atom, acceptor molecule, acceptor atom, score
      P1  H  7989  7998       L1    21  0.81

> <Gold.Chemscore.Hbond.Weighted>
-3.2144

> <Gold.Chemscore.Metal.Weighted>
-0.0000

> <Gold.Chemscore.Lipo.Weighted>
-9.2179

> <Gold.Chemscore.Internal_Hbond.Weighted>
0.0000

> <Gold.Chemscore.DEClash.Weighted>
0.1198

> <Gold.Chemscore.DEInternal.Weighted>
0.7090

> <Gold.Chemscore.Rot.Weighted>
7.0182

> <Gold.Chemscore.Internal.Correction.Weighted>
   9.000000E+99

> <Gold.Protein.RotatedTorsions>
[ 6907 6896 6895 6894 ] final -104.41 input  -60.11 | X-H torsion
[ 7974 7965 7964 7962 ] final  -74.26 input  175.53 | X-H torsion
[ 8008 7997 7996 7995 ] final   59.62 input   59.86 | X-H torsion
[ 10167 10162 10161 10158 ] final  143.07 input  -65.29 | X-H torsion
[ 10718 10713 10712 10709 ] final  107.56 input   66.30 | X-H torsion
[ 10763 10752 10751 10750 ] final  -88.21 input  -60.55 | X-H torsion
[ 11005 11000 10999 10996 ] final  176.92 input  -57.11 | X-H torsion

> <Gold.Protein.ActiveResidues>
 VAL166  LYS551  ARG553  GLY616  TRP617  ASP618  TYR619  PRO620  LYS621  CYS622 
 ASP623  PHE694  ASN695  SER759  ASP760  ASP761  ALA762  ILE779  LEU786  VAL792 
 PHE793  MET794  SER795  GLU796  ALA797  LYS798  CYS799  TRP800  GLU811  SER814 

> <Gold.Protein.RotatedAtoms>
  150.7286  134.0281  159.3723 H   0  0  0  0  0  0  0  0  0  0  0  0  # atno 6907 bound_to 6896
  151.8249  135.0638  160.0439 H   0  0  0  0  0  0  0  0  0  0  0  0  # atno 6908 bound_to 6896
  152.2976  133.5587  159.5634 H   0  0  0  0  0  0  0  0  0  0  0  0  # atno 6909 bound_to 6896
  145.6415  140.9309  143.1033 H   0  0  0  0  0  0  0  0  0  0  0  0  # atno 7974 bound_to 7965
  155.5691  140.3489  155.4511 H   0  0  0  0  0  0  0  0  0  0  0  0  # atno 8008 bound_to 7997
  156.0457  140.1306  157.0132 H   0  0  0  0  0  0  0  0  0  0  0  0  # atno 8009 bound_to 7997
  154.4411  140.1015  156.6288 H   0  0  0  0  0  0  0  0  0  0  0  0  # atno 8010 bound_to 7997
  139.4978  144.6065  151.6367 H   0  0  0  0  0  0  0  0  0  0  0  0  # atno 10167 bound_to 10162
  157.6623  131.0875  150.6174 H   0  0  0  0  0  0  0  0  0  0  0  0  # atno 10718 bound_to 10713
  154.6420  135.5385  153.7801 H   0  0  0  0  0  0  0  0  0  0  0  0  # atno 10763 bound_to 10752
  153.0339  135.6461  154.1145 H   0  0  0  0  0  0  0  0  0  0  0  0  # atno 10764 bound_to 10752
  154.1068  135.2929  155.3219 H   0  0  0  0  0  0  0  0  0  0  0  0  # atno 10765 bound_to 10752
  140.3784  134.6968  157.4436 H   0  0  0  0  0  0  0  0  0  0  0  0  # atno 11005 bound_to 11000
  144.7156  139.8210  143.7400 LP  0  0  0  0  0  0  0  0  0  0  0  0  # atno 17320 bound_to 7965
  146.1277  139.4306  143.0188 LP  0  0  0  0  0  0  0  0  0  0  0  0  # atno 17321 bound_to 7965
  140.5728  144.0080  150.6226 LP  0  0  0  0  0  0  0  0  0  0  0  0  # atno 17342 bound_to 10162
  140.3203  143.3141  152.0791 LP  0  0  0  0  0  0  0  0  0  0  0  0  # atno 17343 bound_to 10162
  156.6476  130.4476  149.5730 LP  0  0  0  0  0  0  0  0  0  0  0  0  # atno 17370 bound_to 10713
  156.2162  130.6709  151.1321 LP  0  0  0  0  0  0  0  0  0  0  0  0  # atno 17371 bound_to 10713
  140.0497  134.6148  155.8877 LP  0  0  0  0  0  0  0  0  0  0  0  0  # atno 17394 bound_to 11000
  141.1931  133.6578  156.5535 LP  0  0  0  0  0  0  0  0  0  0  0  0  # atno 17395 bound_to 11000

$$$$
