AV-unprocessed.smi:13|AV-procd|sdf|72|dock7
  -GOLD-   2262015193D 1   1.00000     0.00000
 Structure written by MMmdl.
 54 58  0  0  0  0  0  0  0  0  1 V2000
  146.3723  132.6634  157.8971 C   0  0  0  0  0  0  0  0  0  0  0  0
  147.4557  133.1300  158.8688 C   0  0  0  0  0  0  0  0  0  0  0  0
  147.6644  131.9913  159.8770 C   0  0  0  0  0  0  0  0  0  0  0  0
  148.7371  133.6866  158.2247 C   0  0  0  0  0  0  0  0  0  0  0  0
  148.7323  134.6932  159.2718 N   0  0  0  0  0  0  0  0  0  0  0  0
  149.2307  135.9597  158.8627 C   0  0  0  0  0  0  0  0  0  0  0  0
  150.2329  136.5846  159.5384 N   0  0  0  0  0  0  0  0  0  0  0  0
  150.6976  137.7699  159.1334 C   0  0  0  0  0  0  0  0  0  0  0  0
  150.3065  138.5070  158.0932 N   0  0  0  0  0  0  0  0  0  0  0  0
  149.2945  137.8966  157.4139 C   0  0  0  0  0  0  0  0  0  0  0  0
  148.7086  136.6383  157.7290 C   0  0  0  0  0  0  0  0  0  0  0  0
  147.7130  136.3356  156.8095 N   0  0  0  0  0  0  0  0  0  0  0  0
  147.7124  137.3553  155.9951 C   0  0  0  0  0  0  0  0  0  0  0  0
  148.6204  138.3478  156.2918 N   0  0  0  0  0  0  0  0  0  0  0  0
  148.8442  139.5821  155.5529 C   0  0  0  0  0  0  0  0  0  0  0  0
  150.2896  139.7788  155.0267 C   0  0  2  0  0  0  0  0  0  0  0  0
  150.1933  140.5945  153.8730 O   0  0  0  0  0  0  0  0  0  0  0  0
  151.0290  138.4971  154.6398 C   0  0  0  0  0  0  0  0  0  0  0  0
  152.4850  138.8450  154.9166 C   0  0  0  0  0  0  0  0  0  0  0  0
  152.3940  139.5966  156.1138 O   0  0  0  0  0  0  0  0  0  0  0  0
  151.2666  140.4590  156.0110 C   0  0  0  0  0  0  0  0  0  0  0  0
  147.2876  134.5606  159.4253 C   0  0  2  0  0  0  0  0  0  0  0  0
  146.8470  134.8396  160.8626 C   0  0  2  0  0  0  0  0  0  0  0  0
  147.1663  136.2559  161.3470 C   0  0  0  0  0  0  0  0  0  0  0  0
  147.4267  136.0908  162.8382 C   0  0  0  0  0  0  0  0  0  0  0  0
  147.4011  134.5777  163.0591 C   0  0  0  0  0  0  0  0  0  0  0  0
  147.5876  134.0312  161.7638 O   0  0  0  0  0  0  0  0  0  0  0  0
  146.6601  131.7434  157.3874 H   0  0  0  0  0  0  0  0  0  0  0  0
  146.1777  133.4108  157.1273 H   0  0  0  0  0  0  0  0  0  0  0  0
  145.4287  132.4768  158.4107 H   0  0  0  0  0  0  0  0  0  0  0  0
  148.3989  132.2540  160.6389 H   0  0  0  0  0  0  0  0  0  0  0  0
  148.0256  131.0876  159.3852 H   0  0  0  0  0  0  0  0  0  0  0  0
  146.7398  131.7338  160.3937 H   0  0  0  0  0  0  0  0  0  0  0  0
  149.5959  133.0160  158.2633 H   0  0  0  0  0  0  0  0  0  0  0  0
  148.5812  134.1015  157.2267 H   0  0  0  0  0  0  0  0  0  0  0  0
  151.4974  138.1859  159.7280 H   0  0  0  0  0  0  0  0  0  0  0  0
  147.0456  137.4058  155.1469 H   0  0  0  0  0  0  0  0  0  0  0  0
  148.1412  139.6037  154.7187 H   0  0  0  0  0  0  0  0  0  0  0  0
  148.5677  140.4154  156.2002 H   0  0  0  0  0  0  0  0  0  0  0  0
  150.0090  140.0410  153.1296 H   0  0  0  0  0  0  0  0  0  0  0  0
  150.7565  137.6681  155.2902 H   0  0  0  0  0  0  0  0  0  0  0  0
  150.8511  138.1786  153.6118 H   0  0  0  0  0  0  0  0  0  0  0  0
  153.1149  137.9637  155.0401 H   0  0  0  0  0  0  0  0  0  0  0  0
  152.9026  139.4631  154.1202 H   0  0  0  0  0  0  0  0  0  0  0  0
  151.5969  141.4339  155.6484 H   0  0  0  0  0  0  0  0  0  0  0  0
  150.8427  140.6187  157.0004 H   0  0  0  0  0  0  0  0  0  0  0  0
  146.7331  135.1614  158.7022 H   0  0  0  0  0  0  0  0  0  0  0  0
  145.7832  134.6366  161.0017 H   0  0  0  0  0  0  0  0  0  0  0  0
  148.0658  136.6334  160.8586 H   0  0  0  0  0  0  0  0  0  0  0  0
  146.3564  136.9554  161.1398 H   0  0  0  0  0  0  0  0  0  0  0  0
  148.4008  136.5065  163.0986 H   0  0  0  0  0  0  0  0  0  0  0  0
  146.6734  136.5919  163.4469 H   0  0  0  0  0  0  0  0  0  0  0  0
  148.1724  134.2387  163.7512 H   0  0  0  0  0  0  0  0  0  0  0  0
  146.4314  134.2606  163.4459 H   0  0  0  0  0  0  0  0  0  0  0  0
  1  2  1  0  0  0  0
  1 28  1  0  0  0  0
  1 29  1  0  0  0  0
  1 30  1  0  0  0  0
  2 22  1  0  0  0  0
  2  3  1  0  0  0  0
  2  4  1  0  0  0  0
  3 31  1  0  0  0  0
  3 32  1  0  0  0  0
  3 33  1  0  0  0  0
  4  5  1  0  0  0  0
  4 34  1  0  0  0  0
  4 35  1  0  0  0  0
  5  6  1  0  0  0  0
  5 22  1  0  0  0  0
  6 11  1  0  0  0  0
  6  7  2  0  0  0  0
  7  8  1  0  0  0  0
  8  9  2  0  0  0  0
  8 36  1  0  0  0  0
  9 10  1  0  0  0  0
 10 14  1  0  0  0  0
 10 11  2  0  0  0  0
 11 12  1  0  0  0  0
 12 13  2  0  0  0  0
 13 14  1  0  0  0  0
 13 37  1  0  0  0  0
 14 15  1  0  0  0  0
 15 16  1  0  0  0  0
 15 38  1  0  0  0  0
 15 39  1  0  0  0  0
 16 21  1  0  0  0  0
 16 17  1  0  0  0  0
 16 18  1  0  0  0  0
 17 40  1  0  0  0  0
 18 19  1  0  0  0  0
 18 41  1  0  0  0  0
 18 42  1  0  0  0  0
 19 20  1  0  0  0  0
 19 43  1  0  0  0  0
 19 44  1  0  0  0  0
 20 21  1  0  0  0  0
 21 45  1  0  0  0  0
 21 46  1  0  0  0  0
 22 23  1  0  0  0  0
 22 47  1  0  0  0  0
 23 27  1  0  0  0  0
 23 24  1  0  0  0  0
 23 48  1  0  0  0  0
 24 25  1  0  0  0  0
 24 49  1  0  0  0  0
 24 50  1  0  0  0  0
 25 26  1  0  0  0  0
 25 51  1  0  0  0  0
 25 52  1  0  0  0  0
 26 27  1  0  0  0  0
 26 53  1  0  0  0  0
 26 54  1  0  0  0  0
M  END
> <s_m_source_file>
AV-unprocessed.smi

> <i_m_source_file_index>
13

> <i_lp_mmshare_version>
43012

> <i_f3d_flags>
0

> <s_epik_input>
TzFbQ0gyXVtDSDJdW0NIMl1bQ0BIXTFbQ0BASF0yTihbQ0gyXUMyKFtDSDNdKVtDSDNdKWMobltjSF1uMyljKGMzNCluW2NIXW40W0NIMl1bQ0BAXTUoW09IXSlbQ0gyXVtDSDJdT1tDSDJdNQ==

> <s_epik_cmdline>
J2VwaWtfcHl0aG9uJywgJy1waCcsICc3LjAnLCAnLXRuJywgJzgnLCAnLW1hJywgJzIwMCcsICctbWV0YWxfYmluZGluZycsICctaW1hZScsICc8aW5maWxlLm1hZT4nLCAnLW9tYWUnLCAnPG91dGZpbGUubWFlPic=

> <r_lp_tautomer_probability>
1

> <r_epik_Ionization_Penalty>
0.00202764

> <r_epik_Ionization_Penalty_Charging>
0

> <r_epik_Ionization_Penalty_Neutral>
0.00202764

> <r_epik_State_Penalty>
0.00134017

> <r_epik_Charging_Adjusted_Penalty>
0.00134017

> <i_epik_Tot_Q>
0

> <i_epik_Tot_abs_Q>
0

> <r_epik_Metal_State_Penalty>
-0

> <b_epik_Metal_Only>
0

> <s_lp_Force_Field>
OPLS_2005

> <r_lp_Energy>
64.4217

> <b_lp_Chiralities_Consistent>
1

> <s_lp_Variant>
AV-unprocessed.smi:13-4

> <Gold.Version>
5.8.1

> <Gold.Id.Protein>
6NUR|6NUR_protein|mol2

> <Gold.PLP.Fitness>
44.3904

> <Gold.PLP.PLP>
-35.6572

> <Gold.PLP.part.hbond>
-4.0931

> <Gold.PLP.part.metal>
0.0000

> <Gold.PLP.part.buried>
-4.5378

> <Gold.PLP.part.nonpolar>
-27.7830

> <Gold.PLP.part.repulsive>
0.0000

> <Gold.PLP.ligand.clash>
0.0000

> <Gold.PLP.ligand.torsion>
0.7567

> <Gold.PLP.Chemscore.Hbond>
3.2624

> <Gold.PLP.Chemscore.CHOScore>
0.0000

> <Gold.PLP.Chemscore.Metal>
0.0000

> <Gold.Chemscore.Hbonds>
donor molecule, donor type, donor heavy atom, donor atom, acceptor molecule, acceptor atom, score
      L1  H    17    40       P1  7957  0.88
      P1  H  6896  6907       L1     7  0.55
      P1  H  7989  7998       L1    17  0.46
      P1  H  7997  8009       L1    20  1.00
      P1  H  8011  8017       L1    17  0.01

> <Gold.PLP.Chemscore.Internal.Correction>
0.4595

> <Gold.Rescore>
     Score         DG    S(hbond)    S(metal)    S(lipo)     H(rot)  DE(clash)    DE(int)     intcor
     13.90     -16.22       2.34        0.00      75.31       2.30       0.04       2.29       ----

> <Gold.Chemscore.Fitness>
13.8989

> <Gold.Chemscore.DG>
-16.2221

> <Gold.Chemscore.ZeroCoef>
-5.4800

> <Gold.Chemscore.Hbond>
2.3405

> <Gold.Chemscore.Metal>
0.0000

> <Gold.Chemscore.Lipo>
75.3139

> <Gold.Chemscore.Internal_Hbond>
0.0000

> <Gold.Chemscore.DEClash>
0.0361

> <Gold.Chemscore.DEInternal>
2.2871

> <Gold.Chemscore.Rot>
2.2996

> <Gold.Chemscore.Internal.Correction>
   9.000000E+99

> <Gold.Chemscore.Hbonds>
donor molecule, donor type, donor heavy atom, donor atom, acceptor molecule, acceptor atom, score
      L1  H    17    40       P1  7957  0.83
      P1  H  6896  6907       L1     7  0.03
      P1  H  7989  7998       L1    17  0.03
      P1  H  7997  8009       L1    20  0.24

> <Gold.Chemscore.Hbond.Weighted>
-7.8173

> <Gold.Chemscore.Metal.Weighted>
-0.0000

> <Gold.Chemscore.Lipo.Weighted>
-8.8117

> <Gold.Chemscore.Internal_Hbond.Weighted>
0.0000

> <Gold.Chemscore.DEClash.Weighted>
0.0361

> <Gold.Chemscore.DEInternal.Weighted>
2.2871

> <Gold.Chemscore.Rot.Weighted>
5.8869

> <Gold.Chemscore.Internal.Correction.Weighted>
   9.000000E+99

> <Gold.Protein.RotatedTorsions>
[ 6907 6896 6895 6894 ] final  -33.05 input  -60.11 | X-H torsion
[ 7974 7965 7964 7962 ] final  162.25 input  175.53 | X-H torsion
[ 8008 7997 7996 7995 ] final -162.78 input   59.86 | X-H torsion
[ 10167 10162 10161 10158 ] final   52.61 input  -65.29 | X-H torsion
[ 10718 10713 10712 10709 ] final  -22.40 input   66.30 | X-H torsion
[ 10763 10752 10751 10750 ] final  -48.76 input  -60.55 | X-H torsion
[ 11005 11000 10999 10996 ] final  136.20 input  -57.11 | X-H torsion

> <Gold.Protein.ActiveResidues>
 VAL166  LYS551  ARG553  GLY616  TRP617  ASP618  TYR619  PRO620  LYS621  CYS622 
 ASP623  PHE694  ASN695  SER759  ASP760  ASP761  ALA762  ILE779  LEU786  VAL792 
 PHE793  MET794  SER795  GLU796  ALA797  LYS798  CYS799  TRP800  GLU811  SER814 

> <Gold.Protein.RotatedAtoms>
  151.0707  134.9796  159.8306 H   0  0  0  0  0  0  0  0  0  0  0  0  # atno 6907 bound_to 6896
  152.5408  134.2302  159.8832 H   0  0  0  0  0  0  0  0  0  0  0  0  # atno 6908 bound_to 6896
  151.2327  133.4398  159.2638 H   0  0  0  0  0  0  0  0  0  0  0  0  # atno 6909 bound_to 6896
  144.7646  139.8013  143.6320 H   0  0  0  0  0  0  0  0  0  0  0  0  # atno 7974 bound_to 7965
  155.8118  140.0906  157.1899 H   0  0  0  0  0  0  0  0  0  0  0  0  # atno 8008 bound_to 7997
  154.3980  140.1453  156.3455 H   0  0  0  0  0  0  0  0  0  0  0  0  # atno 8009 bound_to 7997
  155.8357  140.3441  155.5603 H   0  0  0  0  0  0  0  0  0  0  0  0  # atno 8010 bound_to 7997
  140.2496  144.3494  150.6352 H   0  0  0  0  0  0  0  0  0  0  0  0  # atno 10167 bound_to 10162
  156.5050  130.4597  149.6679 H   0  0  0  0  0  0  0  0  0  0  0  0  # atno 10718 bound_to 10713
  154.0830  135.6588  153.4841 H   0  0  0  0  0  0  0  0  0  0  0  0  # atno 10763 bound_to 10752
  153.0349  135.5184  154.7455 H   0  0  0  0  0  0  0  0  0  0  0  0  # atno 10764 bound_to 10752
  154.6556  135.3007  154.9901 H   0  0  0  0  0  0  0  0  0  0  0  0  # atno 10765 bound_to 10752
  140.0030  134.9471  157.0114 H   0  0  0  0  0  0  0  0  0  0  0  0  # atno 11005 bound_to 11000
  146.1741  139.4904  142.9909 LP  0  0  0  0  0  0  0  0  0  0  0  0  # atno 17320 bound_to 7965
  145.6511  141.0263  143.1759 LP  0  0  0  0  0  0  0  0  0  0  0  0  # atno 17321 bound_to 7965
  140.6051  143.2167  151.6997 LP  0  0  0  0  0  0  0  0  0  0  0  0  # atno 17342 bound_to 10162
  139.5050  144.3731  152.0450 LP  0  0  0  0  0  0  0  0  0  0  0  0  # atno 17343 bound_to 10162
  156.3295  130.7324  151.2251 LP  0  0  0  0  0  0  0  0  0  0  0  0  # atno 17370 bound_to 10713
  157.7458  131.0433  150.4740 LP  0  0  0  0  0  0  0  0  0  0  0  0  # atno 17371 bound_to 10713
  140.4693  134.1403  155.7201 LP  0  0  0  0  0  0  0  0  0  0  0  0  # atno 17394 bound_to 11000
  141.1656  133.8709  157.1724 LP  0  0  0  0  0  0  0  0  0  0  0  0  # atno 17395 bound_to 11000

$$$$
