AV-unprocessed.smi:1917|AV-procd|sdf|7768|dock8
  -GOLD-   22720 9513D 1   1.00000     0.00000
 Structure written by MMmdl.
 44 45  0  0  0  0  0  0  0  0  1 V2000
  150.3878  131.7453  157.2427 C   0  0  0  0  0  0  0  0  0  0  0  0
  150.0762  133.1579  156.7401 C   0  0  0  0  0  0  0  0  0  0  0  0
  150.0654  134.0762  157.5609 O   0  0  0  0  0  0  0  0  0  0  0  0
  149.8247  133.3568  155.4230 N   0  0  0  0  0  0  0  0  0  0  0  0
  149.8811  132.2236  154.4945 C   0  0  0  0  0  0  0  0  0  0  0  0
  149.5143  134.6657  154.8264 C   0  0  0  0  0  0  0  0  0  0  0  0
  150.6174  135.7035  155.0721 C   0  0  0  0  0  0  0  0  0  0  0  0
  151.4673  135.5276  155.9458 O   0  0  0  0  0  0  0  0  0  0  0  0
  150.5901  136.7897  154.2849 N   0  0  0  0  0  0  0  0  0  0  0  0
  151.5764  137.8661  154.3099 C   0  0  0  0  0  0  0  0  0  0  0  0
  151.1049  139.1627  154.9608 C   0  0  0  0  0  0  0  0  0  0  0  0
  150.0036  139.8480  154.4130 C   0  0  0  0  0  0  0  0  0  0  0  0
  149.5829  141.0425  155.0248 C   0  0  0  0  0  0  0  0  0  0  0  0
  150.1810  141.5660  156.1146 N   0  0  0  0  0  0  0  0  0  0  0  0
  151.2428  140.9218  156.6560 C   0  0  0  0  0  0  0  0  0  0  0  0
  151.8136  141.5023  157.8108 N   0  0  0  0  0  0  0  0  0  0  0  0
  151.3940  142.8452  158.2039 C   0  0  0  0  0  0  0  0  0  0  0  0
  152.3605  143.4285  159.2481 C   0  0  0  0  0  0  0  0  0  0  0  0
  152.4751  142.5345  160.3496 O   0  0  0  0  0  0  0  0  0  0  0  0
  153.0130  141.2774  159.9534 C   0  0  0  0  0  0  0  0  0  0  0  0
  152.0764  140.6051  158.9349 C   0  0  0  0  0  0  0  0  0  0  0  0
  151.7400  139.7178  156.0961 C   0  0  0  0  0  0  0  0  0  0  0  0
  149.6051  131.0433  156.9552 H   0  0  0  0  0  0  0  0  0  0  0  0
  150.4580  131.7333  158.3309 H   0  0  0  0  0  0  0  0  0  0  0  0
  151.3405  131.3960  156.8444 H   0  0  0  0  0  0  0  0  0  0  0  0
  149.1107  131.4899  154.7360 H   0  0  0  0  0  0  0  0  0  0  0  0
  150.8531  131.7301  154.5453 H   0  0  0  0  0  0  0  0  0  0  0  0
  149.7313  132.5314  153.4591 H   0  0  0  0  0  0  0  0  0  0  0  0
  149.3727  134.5397  153.7518 H   0  0  0  0  0  0  0  0  0  0  0  0
  148.5672  135.0678  155.1855 H   0  0  0  0  0  0  0  0  0  0  0  0
  149.8543  136.8612  153.5972 H   0  0  0  0  0  0  0  0  0  0  0  0
  152.4499  137.5097  154.8562 H   0  0  0  0  0  0  0  0  0  0  0  0
  151.9134  138.0750  153.2930 H   0  0  0  0  0  0  0  0  0  0  0  0
  149.4889  139.4676  153.5428 H   0  0  0  0  0  0  0  0  0  0  0  0
  148.7413  141.5921  154.6299 H   0  0  0  0  0  0  0  0  0  0  0  0
  151.3746  143.5051  157.3362 H   0  0  0  0  0  0  0  0  0  0  0  0
  150.3831  142.8027  158.6112 H   0  0  0  0  0  0  0  0  0  0  0  0
  153.3428  143.6112  158.8093 H   0  0  0  0  0  0  0  0  0  0  0  0
  151.9895  144.3890  159.6060 H   0  0  0  0  0  0  0  0  0  0  0  0
  154.0109  141.4129  159.5325 H   0  0  0  0  0  0  0  0  0  0  0  0
  153.1236  140.6449  160.8342 H   0  0  0  0  0  0  0  0  0  0  0  0
  151.1278  140.3515  159.4099 H   0  0  0  0  0  0  0  0  0  0  0  0
  152.5289  139.6693  158.6066 H   0  0  0  0  0  0  0  0  0  0  0  0
  152.5968  139.2206  156.5227 H   0  0  0  0  0  0  0  0  0  0  0  0
  1  2  1  0  0  0  0
  1 23  1  0  0  0  0
  1 24  1  0  0  0  0
  1 25  1  0  0  0  0
  2  3  2  0  0  0  0
  2  4  1  0  0  0  0
  4  5  1  0  0  0  0
  4  6  1  0  0  0  0
  5 26  1  0  0  0  0
  5 27  1  0  0  0  0
  5 28  1  0  0  0  0
  6  7  1  0  0  0  0
  6 29  1  0  0  0  0
  6 30  1  0  0  0  0
  7  8  2  0  0  0  0
  7  9  1  0  0  0  0
  9 10  1  0  0  0  0
  9 31  1  0  0  0  0
 10 11  1  0  0  0  0
 10 32  1  0  0  0  0
 10 33  1  0  0  0  0
 11 22  1  0  0  0  0
 11 12  2  0  0  0  0
 12 13  1  0  0  0  0
 12 34  1  0  0  0  0
 13 14  2  0  0  0  0
 13 35  1  0  0  0  0
 14 15  1  0  0  0  0
 15 16  1  0  0  0  0
 15 22  2  0  0  0  0
 16 21  1  0  0  0  0
 16 17  1  0  0  0  0
 17 18  1  0  0  0  0
 17 36  1  0  0  0  0
 17 37  1  0  0  0  0
 18 19  1  0  0  0  0
 18 38  1  0  0  0  0
 18 39  1  0  0  0  0
 19 20  1  0  0  0  0
 20 21  1  0  0  0  0
 20 40  1  0  0  0  0
 20 41  1  0  0  0  0
 21 42  1  0  0  0  0
 21 43  1  0  0  0  0
 22 44  1  0  0  0  0
M  END
> <s_m_source_file>
AV-unprocessed.smi

> <i_m_source_file_index>
1917

> <i_lp_mmshare_version>
43012

> <i_f3d_flags>
0

> <s_epik_input>
W0NIM11DKD1PKU4oW0NIM10pW0NIMl1DKD1PKVtOSF1bQ0gyXWMxW2NIXVtjSF1uYyhbY0hdMSlOMltDSDJdW0NIMl1PW0NIMl1bQ0gyXTI=

> <s_epik_cmdline>
J2VwaWtfcHl0aG9uJywgJy1waCcsICc3LjAnLCAnLXRuJywgJzgnLCAnLW1hJywgJzIwMCcsICctbWV0YWxfYmluZGluZycsICctaW1hZScsICc8aW5maWxlLm1hZT4nLCAnLW9tYWUnLCAnPG91dGZpbGUubWFlPic=

> <r_lp_tautomer_probability>
1

> <r_epik_Ionization_Penalty>
0.00469141

> <r_epik_Ionization_Penalty_Charging>
0

> <r_epik_Ionization_Penalty_Neutral>
0.00469141

> <r_epik_State_Penalty>
0.00339539

> <r_epik_Charging_Adjusted_Penalty>
0.00339539

> <i_epik_Tot_Q>
0

> <i_epik_Tot_abs_Q>
0

> <r_epik_Metal_State_Penalty>
-0

> <b_epik_Metal_Only>
0

> <s_lp_Force_Field>
OPLS_2005

> <r_lp_Energy>
17.0747

> <b_lp_Chiralities_Consistent>
1

> <s_lp_Variant>
AV-unprocessed.smi:1917-1

> <Gold.Version>
5.8.1

> <Gold.Id.Protein>
6NUR|6NUR_protein|mol2

> <Gold.PLP.Fitness>
50.7179

> <Gold.PLP.PLP>
-42.8448

> <Gold.PLP.part.hbond>
-4.0000

> <Gold.PLP.part.metal>
0.0000

> <Gold.PLP.part.buried>
-3.6371

> <Gold.PLP.part.nonpolar>
-36.2541

> <Gold.PLP.part.repulsive>
0.1981

> <Gold.PLP.ligand.clash>
0.0000

> <Gold.PLP.ligand.torsion>
0.5563

> <Gold.PLP.Chemscore.Hbond>
2.8240

> <Gold.PLP.Chemscore.CHOScore>
0.0000

> <Gold.PLP.Chemscore.Metal>
0.0000

> <Gold.Chemscore.Hbonds>
donor molecule, donor type, donor heavy atom, donor atom, acceptor molecule, acceptor atom, score
      L1  H     9    31       P1  7948  0.99
      P1  H  6896  6908       L1     3  0.86
      P1  H 10752 10763       L1     8  1.00

> <Gold.PLP.Chemscore.Internal.Correction>
0.5137

> <Gold.Rescore>
     Score         DG    S(hbond)    S(metal)    S(lipo)     H(rot)  DE(clash)    DE(int)     intcor
     18.40     -19.12       2.49        0.00      89.18       2.00       0.05       0.67       ----

> <Gold.Chemscore.Fitness>
18.3954

> <Gold.Chemscore.DG>
-19.1172

> <Gold.Chemscore.ZeroCoef>
-5.4800

> <Gold.Chemscore.Hbond>
2.4885

> <Gold.Chemscore.Metal>
0.0000

> <Gold.Chemscore.Lipo>
89.1818

> <Gold.Chemscore.Internal_Hbond>
0.0000

> <Gold.Chemscore.DEClash>
0.0480

> <Gold.Chemscore.DEInternal>
0.6738

> <Gold.Chemscore.Rot>
1.9956

> <Gold.Chemscore.Internal.Correction>
   9.000000E+99

> <Gold.Chemscore.Hbonds>
donor molecule, donor type, donor heavy atom, donor atom, acceptor molecule, acceptor atom, score
      L1  H     9    31       P1  7948  0.40
      P1  H  6896  6908       L1     3  0.85
      P1  H 10752 10763       L1     8  0.30

> <Gold.Chemscore.Hbond.Weighted>
-8.3116

> <Gold.Chemscore.Metal.Weighted>
-0.0000

> <Gold.Chemscore.Lipo.Weighted>
-10.4343

> <Gold.Chemscore.Internal_Hbond.Weighted>
0.0000

> <Gold.Chemscore.DEClash.Weighted>
0.0480

> <Gold.Chemscore.DEInternal.Weighted>
0.6738

> <Gold.Chemscore.Rot.Weighted>
5.1087

> <Gold.Chemscore.Internal.Correction.Weighted>
   9.000000E+99

> <Gold.Protein.RotatedTorsions>
[ 6907 6896 6895 6894 ] final  140.77 input  -60.11 | X-H torsion
[ 7974 7965 7964 7962 ] final  -70.96 input  175.53 | X-H torsion
[ 8008 7997 7996 7995 ] final  -45.07 input   59.86 | X-H torsion
[ 10167 10162 10161 10158 ] final  -51.84 input  -65.29 | X-H torsion
[ 10718 10713 10712 10709 ] final  -86.32 input   66.30 | X-H torsion
[ 10763 10752 10751 10750 ] final   79.81 input  -60.55 | X-H torsion
[ 11005 11000 10999 10996 ] final   49.28 input  -57.11 | X-H torsion

> <Gold.Protein.ActiveResidues>
 VAL166  LYS551  ARG553  GLY616  TRP617  ASP618  TYR619  PRO620  LYS621  CYS622 
 ASP623  PHE694  ASN695  SER759  ASP760  ASP761  ALA762  ILE779  LEU786  VAL792 
 PHE793  MET794  SER795  GLU796  ALA797  LYS798  CYS799  TRP800  GLU811  SER814 

> <Gold.Protein.RotatedAtoms>
  152.2390  133.5119  159.5258 H   0  0  0  0  0  0  0  0  0  0  0  0  # atno 6907 bound_to 6896
  150.7059  134.1115  159.4011 H   0  0  0  0  0  0  0  0  0  0  0  0  # atno 6908 bound_to 6896
  151.9036  135.0368  160.0559 H   0  0  0  0  0  0  0  0  0  0  0  0  # atno 6909 bound_to 6896
  145.6842  140.9177  143.0816 H   0  0  0  0  0  0  0  0  0  0  0  0  # atno 7974 bound_to 7965
  154.3999  140.1406  156.3787 H   0  0  0  0  0  0  0  0  0  0  0  0  # atno 8008 bound_to 7997
  155.8024  140.3475  155.5390 H   0  0  0  0  0  0  0  0  0  0  0  0  # atno 8009 bound_to 7997
  155.8470  140.0935  157.1689 H   0  0  0  0  0  0  0  0  0  0  0  0  # atno 8010 bound_to 7997
  140.6568  143.2605  151.4562 H   0  0  0  0  0  0  0  0  0  0  0  0  # atno 10167 bound_to 10162
  155.9990  130.4761  150.4696 H   0  0  0  0  0  0  0  0  0  0  0  0  # atno 10718 bound_to 10713
  153.0983  135.4826  154.8819 H   0  0  0  0  0  0  0  0  0  0  0  0  # atno 10763 bound_to 10752
  154.7349  135.3068  154.8830 H   0  0  0  0  0  0  0  0  0  0  0  0  # atno 10764 bound_to 10752
  153.9455  135.6829  153.4797 H   0  0  0  0  0  0  0  0  0  0  0  0  # atno 10765 bound_to 10752
  140.1117  134.4945  155.8672 H   0  0  0  0  0  0  0  0  0  0  0  0  # atno 11005 bound_to 11000
  144.7016  139.8736  143.7442 LP  0  0  0  0  0  0  0  0  0  0  0  0  # atno 17320 bound_to 7965
  146.0938  139.3929  143.0389 LP  0  0  0  0  0  0  0  0  0  0  0  0  # atno 17321 bound_to 7965
  139.5792  144.1748  152.1945 LP  0  0  0  0  0  0  0  0  0  0  0  0  # atno 17342 bound_to 10162
  140.1068  144.5492  150.6951 LP  0  0  0  0  0  0  0  0  0  0  0  0  # atno 17343 bound_to 10162
  157.2713  131.0587  151.2258 LP  0  0  0  0  0  0  0  0  0  0  0  0  # atno 17370 bound_to 10713
  157.3337  130.6998  149.6340 LP  0  0  0  0  0  0  0  0  0  0  0  0  # atno 17371 bound_to 10713
  141.2132  133.6730  156.6718 LP  0  0  0  0  0  0  0  0  0  0  0  0  # atno 17394 bound_to 11000
  140.3082  134.8108  157.4154 LP  0  0  0  0  0  0  0  0  0  0  0  0  # atno 17395 bound_to 11000

$$$$
