AV-unprocessed.smi:171|AV-procd|sdf|1417|dock5
  -GOLD-   2262019183D 1   1.00000     0.00000
 Structure written by MMmdl.
 56 59  0  0  0  0  0  0  0  0  1 V2000
  151.9751  144.9903  158.9502 C   0  0  0  0  0  0  0  0  0  0  0  0
  151.4458  143.5505  159.0611 C   0  0  0  0  0  0  0  0  0  0  0  0
  152.5273  142.6235  159.6361 C   0  0  0  0  0  0  0  0  0  0  0  0
  150.9221  143.0023  157.7126 C   0  0  0  0  0  0  0  0  0  0  0  0
  150.0113  141.7538  157.8103 C   0  0  1  0  0  0  0  0  0  0  0  0
  148.6688  142.0126  157.0896 C   0  0  0  0  0  0  0  0  0  0  0  0
  147.8698  142.8155  157.5674 O   0  0  0  0  0  0  0  0  0  0  0  0
  148.3963  141.3503  155.9507 N   0  0  0  0  0  0  0  0  0  0  0  0
  149.2613  140.3621  155.3062 C   0  0  0  0  0  0  0  0  0  0  0  0
  150.7085  140.4093  155.8251 C   0  0  0  0  0  0  0  0  0  0  0  0
  150.7153  140.5790  157.2745 N   0  0  0  0  0  0  0  0  0  0  0  0
  150.6922  139.4228  157.9833 C   0  0  0  0  0  0  0  0  0  0  0  0
  151.8251  138.9585  158.5740 N   0  0  0  0  0  0  0  0  0  0  0  0
  151.7988  137.8234  159.2783 C   0  0  0  0  0  0  0  0  0  0  0  0
  150.7660  137.0121  159.5157 N   0  0  0  0  0  0  0  0  0  0  0  0
  149.6262  137.4762  158.9274 C   0  0  0  0  0  0  0  0  0  0  0  0
  149.5032  138.6625  158.1515 C   0  0  0  0  0  0  0  0  0  0  0  0
  148.1957  138.8063  157.7059 N   0  0  0  0  0  0  0  0  0  0  0  0
  147.5793  137.7639  158.1925 C   0  0  0  0  0  0  0  0  0  0  0  0
  148.3602  136.9165  158.9469 N   0  0  0  0  0  0  0  0  0  0  0  0
  147.9364  135.6843  159.5962 C   0  0  0  0  0  0  0  0  0  0  0  0
  146.9845  135.8980  160.7993 C   0  0  2  0  0  0  0  0  0  0  0  0
  147.2746  137.1564  161.3856 O   0  0  0  0  0  0  0  0  0  0  0  0
  147.0919  134.8222  161.8899 C   0  0  0  0  0  0  0  0  0  0  0  0
  145.7097  134.1750  161.9239 C   0  0  0  0  0  0  0  0  0  0  0  0
  144.8459  135.2003  161.4665 O   0  0  0  0  0  0  0  0  0  0  0  0
  145.4983  135.8303  160.3752 C   0  0  1  0  0  0  0  0  0  0  0  0
  144.8129  137.1576  160.0120 C   0  0  0  0  0  0  0  0  0  0  0  0
  152.7684  145.0654  158.2060 H   0  0  0  0  0  0  0  0  0  0  0  0
  152.3799  145.3328  159.9029 H   0  0  0  0  0  0  0  0  0  0  0  0
  151.1857  145.6882  158.6715 H   0  0  0  0  0  0  0  0  0  0  0  0
  150.6238  143.5546  159.7779 H   0  0  0  0  0  0  0  0  0  0  0  0
  153.3949  142.5705  158.9775 H   0  0  0  0  0  0  0  0  0  0  0  0
  152.1479  141.6101  159.7693 H   0  0  0  0  0  0  0  0  0  0  0  0
  152.8696  142.9746  160.6100 H   0  0  0  0  0  0  0  0  0  0  0  0
  150.3818  143.7995  157.1994 H   0  0  0  0  0  0  0  0  0  0  0  0
  151.7770  142.7730  157.0744 H   0  0  0  0  0  0  0  0  0  0  0  0
  149.7723  141.6076  158.8643 H   0  0  0  0  0  0  0  0  0  0  0  0
  147.5116  141.5389  155.5021 H   0  0  0  0  0  0  0  0  0  0  0  0
  148.8355  139.3773  155.5024 H   0  0  0  0  0  0  0  0  0  0  0  0
  149.2391  140.5047  154.2256 H   0  0  0  0  0  0  0  0  0  0  0  0
  151.2509  139.5170  155.5098 H   0  0  0  0  0  0  0  0  0  0  0  0
  151.2342  141.2531  155.3777 H   0  0  0  0  0  0  0  0  0  0  0  0
  152.7401  137.5224  159.7140 H   0  0  0  0  0  0  0  0  0  0  0  0
  146.5290  137.5840  158.0149 H   0  0  0  0  0  0  0  0  0  0  0  0
  147.4571  135.0541  158.8460 H   0  0  0  0  0  0  0  0  0  0  0  0
  148.8286  135.1460  159.9181 H   0  0  0  0  0  0  0  0  0  0  0  0
  146.8050  137.2178  162.2037 H   0  0  0  0  0  0  0  0  0  0  0  0
  147.8622  134.0767  161.6974 H   0  0  0  0  0  0  0  0  0  0  0  0
  147.3122  135.2647  162.8627 H   0  0  0  0  0  0  0  0  0  0  0  0
  145.6620  133.3267  161.2392 H   0  0  0  0  0  0  0  0  0  0  0  0
  145.4312  133.8278  162.9191 H   0  0  0  0  0  0  0  0  0  0  0  0
  145.4002  135.1528  159.5248 H   0  0  0  0  0  0  0  0  0  0  0  0
  145.3384  137.6593  159.1990 H   0  0  0  0  0  0  0  0  0  0  0  0
  144.7736  137.8394  160.8618 H   0  0  0  0  0  0  0  0  0  0  0  0
  143.7872  136.9850  159.6860 H   0  0  0  0  0  0  0  0  0  0  0  0
  1  2  1  0  0  0  0
  1 29  1  0  0  0  0
  1 30  1  0  0  0  0
  1 31  1  0  0  0  0
  2  3  1  0  0  0  0
  2  4  1  0  0  0  0
  2 32  1  0  0  0  0
  3 33  1  0  0  0  0
  3 34  1  0  0  0  0
  3 35  1  0  0  0  0
  4  5  1  0  0  0  0
  4 36  1  0  0  0  0
  4 37  1  0  0  0  0
  5 11  1  0  0  0  0
  5  6  1  0  0  0  0
  5 38  1  0  0  0  0
  6  7  2  0  0  0  0
  6  8  1  0  0  0  0
  8  9  1  0  0  0  0
  8 39  1  0  0  0  0
  9 10  1  0  0  0  0
  9 40  1  0  0  0  0
  9 41  1  0  0  0  0
 10 11  1  0  0  0  0
 10 42  1  0  0  0  0
 10 43  1  0  0  0  0
 11 12  1  0  0  0  0
 12 17  1  0  0  0  0
 12 13  2  0  0  0  0
 13 14  1  0  0  0  0
 14 15  2  0  0  0  0
 14 44  1  0  0  0  0
 15 16  1  0  0  0  0
 16 20  1  0  0  0  0
 16 17  2  0  0  0  0
 17 18  1  0  0  0  0
 18 19  2  0  0  0  0
 19 20  1  0  0  0  0
 19 45  1  0  0  0  0
 20 21  1  0  0  0  0
 21 22  1  0  0  0  0
 21 46  1  0  0  0  0
 21 47  1  0  0  0  0
 22 27  1  0  0  0  0
 22 23  1  0  0  0  0
 22 24  1  0  0  0  0
 23 48  1  0  0  0  0
 24 25  1  0  0  0  0
 24 49  1  0  0  0  0
 24 50  1  0  0  0  0
 25 26  1  0  0  0  0
 25 51  1  0  0  0  0
 25 52  1  0  0  0  0
 26 27  1  0  0  0  0
 27 28  1  0  0  0  0
 27 53  1  0  0  0  0
 28 54  1  0  0  0  0
 28 55  1  0  0  0  0
 28 56  1  0  0  0  0
M  END
> <s_m_source_file>
AV-unprocessed.smi

> <i_m_source_file_index>
171

> <i_lp_mmshare_version>
43012

> <i_f3d_flags>
0

> <s_epik_input>
W0NIM11bQ0hdKFtDSDNdKVtDSDJdW0NAQEhdMUMoPU8pW05IXVtDSDJdW0NIMl1OMWMobltjSF1uMiljKGMyMyluW2NIXW4zW0NIMl1bQ0BAXTQoW09IXSlbQ0gyXVtDSDJdT1tDQEhdNFtDSDNd

> <s_epik_cmdline>
J2VwaWtfcHl0aG9uJywgJy1waCcsICc3LjAnLCAnLXRuJywgJzgnLCAnLW1hJywgJzIwMCcsICctbWV0YWxfYmluZGluZycsICctaW1hZScsICc8aW5maWxlLm1hZT4nLCAnLW9tYWUnLCAnPG91dGZpbGUubWFlPic=

> <r_lp_tautomer_probability>
1

> <r_epik_Ionization_Penalty>
0.000670584

> <r_epik_Ionization_Penalty_Charging>
0

> <r_epik_Ionization_Penalty_Neutral>
0.000670584

> <r_epik_State_Penalty>
0.000304767

> <r_epik_Charging_Adjusted_Penalty>
0.000304767

> <i_epik_Tot_Q>
0

> <i_epik_Tot_abs_Q>
0

> <r_epik_Metal_State_Penalty>
-0

> <b_epik_Metal_Only>
0

> <s_lp_Force_Field>
OPLS_2005

> <r_lp_Energy>
42.7698

> <b_lp_Chiralities_Consistent>
1

> <s_lp_Variant>
AV-unprocessed.smi:171-4

> <Gold.Version>
5.8.1

> <Gold.Id.Protein>
6NUR|6NUR_protein|mol2

> <Gold.PLP.Fitness>
49.2421

> <Gold.PLP.PLP>
-46.5303

> <Gold.PLP.part.hbond>
-3.0000

> <Gold.PLP.part.metal>
0.0000

> <Gold.PLP.part.buried>
-6.3147

> <Gold.PLP.part.nonpolar>
-37.9396

> <Gold.PLP.part.repulsive>
1.0323

> <Gold.PLP.ligand.clash>
0.0000

> <Gold.PLP.ligand.torsion>
2.8689

> <Gold.PLP.Chemscore.Hbond>
2.7137

> <Gold.PLP.Chemscore.CHOScore>
0.0000

> <Gold.PLP.Chemscore.Metal>
0.0000

> <Gold.Chemscore.Hbonds>
donor molecule, donor type, donor heavy atom, donor atom, acceptor molecule, acceptor atom, score
      P1  H  6896  6907       L1    15  1.00
      P1  H  6931  6943       L1    23  0.62
      P1  H  6934  6947       L1    23  0.79

> <Gold.PLP.Chemscore.Internal.Correction>
0.3085

> <Gold.Rescore>
     Score         DG    S(hbond)    S(metal)    S(lipo)     H(rot)  DE(clash)    DE(int)     intcor
     15.25     -18.18       2.10        0.00      98.81       2.29       0.11       2.81       ----

> <Gold.Chemscore.Fitness>
15.2523

> <Gold.Chemscore.DG>
-18.1804

> <Gold.Chemscore.ZeroCoef>
-5.4800

> <Gold.Chemscore.Hbond>
2.0984

> <Gold.Chemscore.Metal>
0.0000

> <Gold.Chemscore.Lipo>
98.8137

> <Gold.Chemscore.Internal_Hbond>
0.0000

> <Gold.Chemscore.DEClash>
0.1145

> <Gold.Chemscore.DEInternal>
2.8136

> <Gold.Chemscore.Rot>
2.2928

> <Gold.Chemscore.Internal.Correction>
   9.000000E+99

> <Gold.Chemscore.Hbonds>
donor molecule, donor type, donor heavy atom, donor atom, acceptor molecule, acceptor atom, score
      P1  H  6896  6907       L1    15  0.91
      P1  H  6931  6943       L1    23  0.14
      P1  H  6934  6947       L1    23  0.11

> <Gold.Chemscore.Hbond.Weighted>
-7.0087

> <Gold.Chemscore.Metal.Weighted>
-0.0000

> <Gold.Chemscore.Lipo.Weighted>
-11.5612

> <Gold.Chemscore.Internal_Hbond.Weighted>
0.0000

> <Gold.Chemscore.DEClash.Weighted>
0.1145

> <Gold.Chemscore.DEInternal.Weighted>
2.8136

> <Gold.Chemscore.Rot.Weighted>
5.8696

> <Gold.Chemscore.Internal.Correction.Weighted>
   9.000000E+99

> <Gold.Protein.RotatedTorsions>
[ 6907 6896 6895 6894 ] final  -32.77 input  -60.11 | X-H torsion
[ 7974 7965 7964 7962 ] final -174.81 input  175.53 | X-H torsion
[ 8008 7997 7996 7995 ] final -179.42 input   59.86 | X-H torsion
[ 10167 10162 10161 10158 ] final   51.89 input  -65.29 | X-H torsion
[ 10718 10713 10712 10709 ] final -134.74 input   66.30 | X-H torsion
[ 10763 10752 10751 10750 ] final   78.08 input  -60.55 | X-H torsion
[ 11005 11000 10999 10996 ] final   89.32 input  -57.11 | X-H torsion

> <Gold.Protein.ActiveResidues>
 VAL166  LYS551  ARG553  GLY616  TRP617  ASP618  TYR619  PRO620  LYS621  CYS622 
 ASP623  PHE694  ASN695  SER759  ASP760  ASP761  ALA762  ILE779  LEU786  VAL792 
 PHE793  MET794  SER795  GLU796  ALA797  LYS798  CYS799  TRP800  GLU811  SER814 

> <Gold.Protein.RotatedAtoms>
  151.0744  134.9819  159.8324 H   0  0  0  0  0  0  0  0  0  0  0  0  # atno 6907 bound_to 6896
  152.5412  134.2259  159.8816 H   0  0  0  0  0  0  0  0  0  0  0  0  # atno 6908 bound_to 6896
  151.2286  133.4419  159.2636 H   0  0  0  0  0  0  0  0  0  0  0  0  # atno 6909 bound_to 6896
  144.7130  140.1416  143.6391 H   0  0  0  0  0  0  0  0  0  0  0  0  # atno 7974 bound_to 7965
  156.0303  140.1280  157.0265 H   0  0  0  0  0  0  0  0  0  0  0  0  # atno 8008 bound_to 7997
  154.4347  140.1051  156.6160 H   0  0  0  0  0  0  0  0  0  0  0  0  # atno 8009 bound_to 7997
  155.5816  140.3468  155.4544 H   0  0  0  0  0  0  0  0  0  0  0  0  # atno 8010 bound_to 7997
  140.2572  144.3413  150.6329 H   0  0  0  0  0  0  0  0  0  0  0  0  # atno 10167 bound_to 10162
  156.2587  130.7196  151.1122 H   0  0  0  0  0  0  0  0  0  0  0  0  # atno 10718 bound_to 10713
  153.0847  135.4890  154.8573 H   0  0  0  0  0  0  0  0  0  0  0  0  # atno 10763 bound_to 10752
  154.7195  135.3036  154.9072 H   0  0  0  0  0  0  0  0  0  0  0  0  # atno 10764 bound_to 10752
  153.9740  135.6797  153.4801 H   0  0  0  0  0  0  0  0  0  0  0  0  # atno 10765 bound_to 10752
  139.8878  134.8544  156.3125 H   0  0  0  0  0  0  0  0  0  0  0  0  # atno 11005 bound_to 11000
  145.9197  139.2538  143.1389 LP  0  0  0  0  0  0  0  0  0  0  0  0  # atno 17320 bound_to 7965
  145.9633  140.8818  143.0200 LP  0  0  0  0  0  0  0  0  0  0  0  0  # atno 17321 bound_to 7965
  140.5994  143.2167  151.7101 LP  0  0  0  0  0  0  0  0  0  0  0  0  # atno 17342 bound_to 10162
  139.5028  144.3816  152.0370 LP  0  0  0  0  0  0  0  0  0  0  0  0  # atno 17343 bound_to 10162
  157.7242  131.0661  150.6004 LP  0  0  0  0  0  0  0  0  0  0  0  0  # atno 17370 bound_to 10713
  156.6090  130.4375  149.5866 LP  0  0  0  0  0  0  0  0  0  0  0  0  # atno 17371 bound_to 10713
  140.9840  133.7249  156.0715 LP  0  0  0  0  0  0  0  0  0  0  0  0  # atno 17394 bound_to 11000
  140.7712  134.3831  157.5507 LP  0  0  0  0  0  0  0  0  0  0  0  0  # atno 17395 bound_to 11000

$$$$
