AV-unprocessed.smi:525|AV-procd|sdf|2808|dock1
  -GOLD-   2262023283D 1   1.00000     0.00000
 Structure written by MMmdl.
 43 45  0  0  0  0  0  0  0  0  1 V2000
  150.7381  133.1618  156.5360 C   0  0  0  0  0  0  0  0  0  0  0  0
  149.8631  133.8245  157.4356 O   0  0  0  0  0  0  0  0  0  0  0  0
  149.4653  135.1148  156.9949 C   0  0  0  0  0  0  0  0  0  0  0  0
  148.1395  135.5617  157.6359 C   0  0  0  0  0  0  0  0  0  0  0  0
  148.3254  136.0528  158.9946 N   0  0  0  0  0  0  0  0  0  0  0  0
  149.0657  137.1071  159.4212 C   0  0  0  0  0  0  0  0  0  0  0  0
  149.9802  138.1184  158.2940 S   0  0  0  0  0  0  0  0  0  0  0  0
  151.5477  138.3157  159.2105 C   0  0  1  0  0  0  0  0  0  0  0  0
  152.7112  137.4836  158.6480 C   0  0  0  0  0  0  0  0  0  0  0  0
  153.0921  137.7461  157.3951 N   0  0  0  0  0  0  0  0  0  0  0  0
  153.2619  136.6205  159.3285 O   0  0  0  0  0  0  0  0  0  0  0  0
  151.9339  139.7907  159.2419 C   0  0  0  0  0  0  0  0  0  0  0  0
  153.1145  140.2197  159.8919 C   0  0  0  0  0  0  0  0  0  0  0  0
  153.4611  141.5845  159.9114 C   0  0  0  0  0  0  0  0  0  0  0  0
  152.6315  142.5310  159.2811 C   0  0  0  0  0  0  0  0  0  0  0  0
  151.4544  142.1119  158.6323 C   0  0  0  0  0  0  0  0  0  0  0  0
  151.1071  140.7471  158.6124 C   0  0  0  0  0  0  0  0  0  0  0  0
  149.0362  137.3320  160.7368 N   0  0  0  0  0  0  0  0  0  0  0  0
  148.2201  136.3231  161.2057 C   0  0  0  0  0  0  0  0  0  0  0  0
  147.8060  136.0121  162.5208 C   0  0  0  0  0  0  0  0  0  0  0  0
  146.9545  134.9134  162.7593 C   0  0  0  0  0  0  0  0  0  0  0  0
  146.5052  134.1131  161.6889 C   0  0  0  0  0  0  0  0  0  0  0  0
  146.9057  134.4070  160.3713 C   0  0  0  0  0  0  0  0  0  0  0  0
  147.7568  135.5039  160.1393 C   0  0  0  0  0  0  0  0  0  0  0  0
  151.0255  132.1955  156.9501 H   0  0  0  0  0  0  0  0  0  0  0  0
  151.6497  133.7324  156.3603 H   0  0  0  0  0  0  0  0  0  0  0  0
  150.2511  132.9822  155.5769 H   0  0  0  0  0  0  0  0  0  0  0  0
  150.2518  135.8491  157.1756 H   0  0  0  0  0  0  0  0  0  0  0  0
  149.3386  135.0687  155.9131 H   0  0  0  0  0  0  0  0  0  0  0  0
  147.6426  136.3186  157.0305 H   0  0  0  0  0  0  0  0  0  0  0  0
  147.4526  134.7158  157.6740 H   0  0  0  0  0  0  0  0  0  0  0  0
  151.3586  137.9966  160.2364 H   0  0  0  0  0  0  0  0  0  0  0  0
  153.8497  137.2248  156.9785 H   0  0  0  0  0  0  0  0  0  0  0  0
  152.6171  138.4645  156.8681 H   0  0  0  0  0  0  0  0  0  0  0  0
  153.7581  139.5019  160.3793 H   0  0  0  0  0  0  0  0  0  0  0  0
  154.3640  141.9047  160.4102 H   0  0  0  0  0  0  0  0  0  0  0  0
  152.8973  143.5776  159.2959 H   0  0  0  0  0  0  0  0  0  0  0  0
  150.8168  142.8382  158.1499 H   0  0  0  0  0  0  0  0  0  0  0  0
  150.2010  140.4385  158.1120 H   0  0  0  0  0  0  0  0  0  0  0  0
  148.1444  136.6193  163.3473 H   0  0  0  0  0  0  0  0  0  0  0  0
  146.6447  134.6836  163.7682 H   0  0  0  0  0  0  0  0  0  0  0  0
  145.8533  133.2732  161.8796 H   0  0  0  0  0  0  0  0  0  0  0  0
  146.5645  133.7957  159.5492 H   0  0  0  0  0  0  0  0  0  0  0  0
  1  2  1  0  0  0  0
  1 25  1  0  0  0  0
  1 26  1  0  0  0  0
  1 27  1  0  0  0  0
  2  3  1  0  0  0  0
  3  4  1  0  0  0  0
  3 28  1  0  0  0  0
  3 29  1  0  0  0  0
  4  5  1  0  0  0  0
  4 30  1  0  0  0  0
  4 31  1  0  0  0  0
  5 24  1  0  0  0  0
  5  6  1  0  0  0  0
  6  7  1  0  0  0  0
  6 18  2  0  0  0  0
  7  8  1  0  0  0  0
  8  9  1  0  0  0  0
  8 12  1  0  0  0  0
  8 32  1  0  0  0  0
  9 10  1  0  0  0  0
  9 11  2  0  0  0  0
 10 33  1  0  0  0  0
 10 34  1  0  0  0  0
 12 17  1  0  0  0  0
 12 13  2  0  0  0  0
 13 14  1  0  0  0  0
 13 35  1  0  0  0  0
 14 15  2  0  0  0  0
 14 36  1  0  0  0  0
 15 16  1  0  0  0  0
 15 37  1  0  0  0  0
 16 17  2  0  0  0  0
 16 38  1  0  0  0  0
 17 39  1  0  0  0  0
 18 19  1  0  0  0  0
 19 24  2  0  0  0  0
 19 20  1  0  0  0  0
 20 21  2  0  0  0  0
 20 40  1  0  0  0  0
 21 22  1  0  0  0  0
 21 41  1  0  0  0  0
 22 23  2  0  0  0  0
 22 42  1  0  0  0  0
 23 24  1  0  0  0  0
 23 43  1  0  0  0  0
M  END
> <s_m_source_file>
AV-unprocessed.smi

> <i_m_source_file_index>
525

> <i_lp_mmshare_version>
43012

> <i_f3d_flags>
0

> <s_epik_input>
W2NIXTFbY0hdW2NIXVtjSF1jKGMxMiluKFtDSDJdW0NIMl1PW0NIM10pYyhuMilTW0NASF0oQyg9TylbTkgyXSljM1tjSF1bY0hdW2NIXVtjSF1bY0hdMw==

> <s_epik_cmdline>
J2VwaWtfcHl0aG9uJywgJy1waCcsICc3LjAnLCAnLXRuJywgJzgnLCAnLW1hJywgJzIwMCcsICctbWV0YWxfYmluZGluZycsICctaW1hZScsICc8aW5maWxlLm1hZT4nLCAnLW9tYWUnLCAnPG91dGZpbGUubWFlPic=

> <r_epik_Ionization_Penalty>
0.0706634

> <r_epik_Ionization_Penalty_Charging>
0

> <r_epik_Ionization_Penalty_Neutral>
0.0706634

> <r_epik_State_Penalty>
0.0619781

> <r_epik_Charging_Adjusted_Penalty>
0.0619781

> <i_epik_Tot_Q>
0

> <i_epik_Tot_abs_Q>
0

> <r_epik_Metal_State_Penalty>
0.0552401

> <b_epik_Metal_Only>
0

> <s_lp_Force_Field>
OPLS_2005

> <r_lp_Energy>
10.3034

> <b_lp_Chiralities_Consistent>
1

> <s_lp_Variant>
AV-unprocessed.smi:525-2

> <Gold.Version>
5.8.1

> <Gold.Id.Protein>
6NUR|6NUR_protein|mol2

> <Gold.PLP.Fitness>
48.7312

> <Gold.PLP.PLP>
-42.8325

> <Gold.PLP.part.hbond>
-3.1217

> <Gold.PLP.part.metal>
0.0000

> <Gold.PLP.part.buried>
-4.9641

> <Gold.PLP.part.nonpolar>
-35.4335

> <Gold.PLP.part.repulsive>
0.1479

> <Gold.PLP.ligand.clash>
0.0000

> <Gold.PLP.ligand.torsion>
1.1366

> <Gold.PLP.Chemscore.Hbond>
2.5440

> <Gold.PLP.Chemscore.CHOScore>
0.0000

> <Gold.PLP.Chemscore.Metal>
0.0000

> <Gold.Chemscore.Hbonds>
donor molecule, donor type, donor heavy atom, donor atom, acceptor molecule, acceptor atom, score
      P1  H  6896  6908       L1     2  0.93
      P1  H  6896  6909       L1    11  0.58
      P1  H  6931  6943       L1    18  0.54

> <Gold.PLP.Chemscore.Internal.Correction>
0.5400

> <Gold.Rescore>
     Score         DG    S(hbond)    S(metal)    S(lipo)     H(rot)  DE(clash)    DE(int)     intcor
     18.13     -19.33       2.24        0.00     107.89       2.44       0.02       1.18       ----

> <Gold.Chemscore.Fitness>
18.1317

> <Gold.Chemscore.DG>
-19.3346

> <Gold.Chemscore.ZeroCoef>
-5.4800

> <Gold.Chemscore.Hbond>
2.2386

> <Gold.Chemscore.Metal>
0.0000

> <Gold.Chemscore.Lipo>
107.8889

> <Gold.Chemscore.Internal_Hbond>
0.0000

> <Gold.Chemscore.DEClash>
0.0202

> <Gold.Chemscore.DEInternal>
1.1826

> <Gold.Chemscore.Rot>
2.4396

> <Gold.Chemscore.Internal.Correction>
   9.000000E+99

> <Gold.Chemscore.Hbonds>
donor molecule, donor type, donor heavy atom, donor atom, acceptor molecule, acceptor atom, score
      P1  H  6896  6908       L1     2  0.45
      P1  H  6896  6909       L1    11  0.47
      P1  H  6931  6943       L1    18  0.18

> <Gold.Chemscore.Hbond.Weighted>
-7.4771

> <Gold.Chemscore.Metal.Weighted>
-0.0000

> <Gold.Chemscore.Lipo.Weighted>
-12.6230

> <Gold.Chemscore.Internal_Hbond.Weighted>
0.0000

> <Gold.Chemscore.DEClash.Weighted>
0.0202

> <Gold.Chemscore.DEInternal.Weighted>
1.1826

> <Gold.Chemscore.Rot.Weighted>
6.2454

> <Gold.Chemscore.Internal.Correction.Weighted>
   9.000000E+99

> <Gold.Protein.RotatedTorsions>
[ 6907 6896 6895 6894 ] final  135.31 input  -60.11 | X-H torsion
[ 7974 7965 7964 7962 ] final  -58.47 input  175.53 | X-H torsion
[ 8008 7997 7996 7995 ] final -179.29 input   59.86 | X-H torsion
[ 10167 10162 10161 10158 ] final   92.14 input  -65.29 | X-H torsion
[ 10718 10713 10712 10709 ] final  -90.12 input   66.30 | X-H torsion
[ 10763 10752 10751 10750 ] final -168.15 input  -60.55 | X-H torsion
[ 11005 11000 10999 10996 ] final  -50.76 input  -57.11 | X-H torsion

> <Gold.Protein.ActiveResidues>
 VAL166  LYS551  ARG553  GLY616  TRP617  ASP618  TYR619  PRO620  LYS621  CYS622 
 ASP623  PHE694  ASN695  SER759  ASP760  ASP761  ALA762  ILE779  LEU786  VAL792 
 PHE793  MET794  SER795  GLU796  ALA797  LYS798  CYS799  TRP800  GLU811  SER814 

> <Gold.Protein.RotatedAtoms>
  152.3018  133.5663  159.5623 H   0  0  0  0  0  0  0  0  0  0  0  0  # atno 6907 bound_to 6896
  150.7281  134.0280  159.3733 H   0  0  0  0  0  0  0  0  0  0  0  0  # atno 6908 bound_to 6896
  151.8180  135.0661  160.0472 H   0  0  0  0  0  0  0  0  0  0  0  0  # atno 6909 bound_to 6896
  145.8390  140.8430  143.0044 H   0  0  0  0  0  0  0  0  0  0  0  0  # atno 7974 bound_to 7965
  156.0288  140.1277  157.0280 H   0  0  0  0  0  0  0  0  0  0  0  0  # atno 8008 bound_to 7997
  154.4341  140.1053  156.6140 H   0  0  0  0  0  0  0  0  0  0  0  0  # atno 8009 bound_to 7997
  155.5837  140.3468  155.4549 H   0  0  0  0  0  0  0  0  0  0  0  0  # atno 8010 bound_to 7997
  139.8306  144.6689  150.9404 H   0  0  0  0  0  0  0  0  0  0  0  0  # atno 10167 bound_to 10162
  155.9986  130.4898  150.5274 H   0  0  0  0  0  0  0  0  0  0  0  0  # atno 10718 bound_to 10713
  154.6658  135.2932  154.9806 H   0  0  0  0  0  0  0  0  0  0  0  0  # atno 10763 bound_to 10752
  154.0850  135.6599  153.4847 H   0  0  0  0  0  0  0  0  0  0  0  0  # atno 10764 bound_to 10752
  153.0457  135.5206  154.7631 H   0  0  0  0  0  0  0  0  0  0  0  0  # atno 10765 bound_to 10752
  141.0833  133.6648  156.3777 H   0  0  0  0  0  0  0  0  0  0  0  0  # atno 11005 bound_to 11000
  144.6734  140.0784  143.7470 LP  0  0  0  0  0  0  0  0  0  0  0  0  # atno 17320 bound_to 7965
  145.9487  139.2718  143.1225 LP  0  0  0  0  0  0  0  0  0  0  0  0  # atno 17321 bound_to 7965
  140.7807  143.4004  151.1158 LP  0  0  0  0  0  0  0  0  0  0  0  0  # atno 17342 bound_to 10162
  139.7658  143.8567  152.3110 LP  0  0  0  0  0  0  0  0  0  0  0  0  # atno 17343 bound_to 10162
  157.3228  131.0685  151.1919 LP  0  0  0  0  0  0  0  0  0  0  0  0  # atno 17370 bound_to 10713
  157.2827  130.6758  149.6074 LP  0  0  0  0  0  0  0  0  0  0  0  0  # atno 17371 bound_to 10713
  140.5418  134.6112  157.5382 LP  0  0  0  0  0  0  0  0  0  0  0  0  # atno 17394 bound_to 11000
  139.9649  134.7389  156.0159 LP  0  0  0  0  0  0  0  0  0  0  0  0  # atno 17395 bound_to 11000

$$$$
