AV-unprocessed.smi:3341|AV-procd|sdf|12886|dock3
  -GOLD-   2272019293D 1   1.00000     0.00000
 Structure written by MMmdl.
 46 47  0  0  0  0  0  0  0  0  2 V2000
  150.1191  142.8217  158.2355 C   0  0  0  0  0  0  0  0  0  0  0  0
  151.3297  142.4442  157.3741 C   0  0  0  0  0  0  0  0  0  0  0  0
  150.9867  141.4490  156.3772 N   0  0  0  0  0  0  0  0  0  0  0  0
  150.0316  141.5316  155.3836 C   0  0  0  0  0  0  0  0  0  0  0  0
  150.0900  140.3413  154.7154 C   0  0  0  0  0  0  0  0  0  0  0  0
  149.3292  139.8937  153.6058 N   0  0  0  0  0  0  0  0  0  0  0  0
  148.1093  139.3324  153.6275 C   0  0  0  0  0  0  0  0  0  0  0  0
  147.4529  139.1006  154.6430 O   0  0  0  0  0  0  0  0  0  0  0  0
  147.6776  139.0511  152.3897 N   0  0  0  0  0  0  0  0  0  0  0  0
  146.3914  138.4390  152.0754 C   0  0  0  0  0  0  0  0  0  0  0  0
  146.0459  137.3099  153.0663 C   0  0  0  0  0  0  0  0  0  0  0  0
  146.3142  135.9599  152.5095 N   0  3  2  0  0  0  0  0  0  0  0  0
  145.3910  135.6238  151.3946 C   0  0  0  0  0  0  0  0  0  0  0  0
  145.7675  134.2827  150.7455 C   0  0  0  0  0  0  0  0  0  0  0  0
  145.7929  133.1576  151.7873 C   0  0  0  0  0  0  0  0  0  0  0  0
  146.7314  133.5279  152.9478 C   0  0  2  0  0  0  0  0  0  0  0  0
  146.7576  132.4294  154.0201 C   0  0  0  0  0  0  0  0  0  0  0  0
  146.3299  134.8916  153.5459 C   0  0  0  0  0  0  0  0  0  0  0  0
  151.1031  139.5847  155.3601 C   0  0  0  0  0  0  0  0  0  0  0  0
  151.6395  140.2604  156.3651 N   0  0  0  0  0  0  0  0  0  0  0  0
  150.3886  143.5774  158.9733 H   0  0  0  0  0  0  0  0  0  0  0  0
  149.7312  141.9555  158.7723 H   0  0  0  0  0  0  0  0  0  0  0  0
  149.3124  143.2264  157.6236 H   0  0  0  0  0  0  0  0  0  0  0  0
  151.7199  143.3263  156.8650 H   0  0  0  0  0  0  0  0  0  0  0  0
  152.1353  142.0567  157.9993 H   0  0  0  0  0  0  0  0  0  0  0  0
  149.4160  142.4092  155.2525 H   0  0  0  0  0  0  0  0  0  0  0  0
  149.7578  140.0210  152.7006 H   0  0  0  0  0  0  0  0  0  0  0  0
  148.2824  139.2724  151.6120 H   0  0  0  0  0  0  0  0  0  0  0  0
  145.6277  139.2158  152.1172 H   0  0  0  0  0  0  0  0  0  0  0  0
  146.4129  138.0800  151.0461 H   0  0  0  0  0  0  0  0  0  0  0  0
  146.5876  137.4282  154.0062 H   0  0  0  0  0  0  0  0  0  0  0  0
  144.9860  137.3938  153.3116 H   0  0  0  0  0  0  0  0  0  0  0  0
  144.3661  135.5875  151.7678 H   0  0  0  0  0  0  0  0  0  0  0  0
  145.4256  136.4072  150.6363 H   0  0  0  0  0  0  0  0  0  0  0  0
  145.0585  134.0401  149.9534 H   0  0  0  0  0  0  0  0  0  0  0  0
  146.7456  134.3664  150.2697 H   0  0  0  0  0  0  0  0  0  0  0  0
  144.7839  132.9841  152.1643 H   0  0  0  0  0  0  0  0  0  0  0  0
  146.1157  132.2266  151.3199 H   0  0  0  0  0  0  0  0  0  0  0  0
  147.7425  133.6197  152.5481 H   0  0  0  0  0  0  0  0  0  0  0  0
  145.7737  132.2891  154.4693 H   0  0  0  0  0  0  0  0  0  0  0  0
  147.4562  132.6770  154.8199 H   0  0  0  0  0  0  0  0  0  0  0  0
  147.0688  131.4742  153.5963 H   0  0  0  0  0  0  0  0  0  0  0  0
  147.0326  135.1484  154.3376 H   0  0  0  0  0  0  0  0  0  0  0  0
  145.3452  134.8243  154.0117 H   0  0  0  0  0  0  0  0  0  0  0  0
  151.4595  138.5896  155.1382 H   0  0  0  0  0  0  0  0  0  0  0  0
  147.2398  135.9943  152.1065 H   0  0  0  0  0  0  0  0  0  0  0  0
  1  2  1  0  0  0  0
  1 21  1  0  0  0  0
  1 22  1  0  0  0  0
  1 23  1  0  0  0  0
  2  3  1  0  0  0  0
  2 24  1  0  0  0  0
  2 25  1  0  0  0  0
  3 20  1  0  0  0  0
  3  4  1  0  0  0  0
  4  5  2  0  0  0  0
  4 26  1  0  0  0  0
  5  6  1  0  0  0  0
  5 19  1  0  0  0  0
  6  7  1  0  0  0  0
  6 27  1  0  0  0  0
  7  8  2  0  0  0  0
  7  9  1  0  0  0  0
  9 10  1  0  0  0  0
  9 28  1  0  0  0  0
 10 11  1  0  0  0  0
 10 29  1  0  0  0  0
 10 30  1  0  0  0  0
 11 12  1  0  0  0  0
 11 31  1  0  0  0  0
 11 32  1  0  0  0  0
 12 18  1  0  0  0  0
 12 13  1  0  0  0  0
 12 46  1  0  0  0  0
 13 14  1  0  0  0  0
 13 33  1  0  0  0  0
 13 34  1  0  0  0  0
 14 15  1  0  0  0  0
 14 35  1  0  0  0  0
 14 36  1  0  0  0  0
 15 16  1  0  0  0  0
 15 37  1  0  0  0  0
 15 38  1  0  0  0  0
 16 17  1  0  0  0  0
 16 18  1  0  0  0  0
 16 39  1  0  0  0  0
 17 40  1  0  0  0  0
 17 41  1  0  0  0  0
 17 42  1  0  0  0  0
 18 43  1  0  0  0  0
 18 44  1  0  0  0  0
 19 20  2  0  0  0  0
 19 45  1  0  0  0  0
M  CHG  1  12   1
M  END
> <s_m_source_file>
AV-unprocessed.smi

> <i_m_source_file_index>
3341

> <i_lp_mmshare_version>
43012

> <i_f3d_flags>
0

> <s_epik_input>
W0NIM11bQ0gyXW4xW2NIXWMoW2NIXW4xKVtOSF1DKD1PKVtOSF1bQ0gyXVtDSDJdTjJbQ0gyXVtDSDJdW0NIMl1bQ0BASF0oW0NIM10pW0NIMl0y

> <s_epik_cmdline>
J2VwaWtfcHl0aG9uJywgJy1waCcsICc3LjAnLCAnLXRuJywgJzgnLCAnLW1hJywgJzIwMCcsICctbWV0YWxfYmluZGluZycsICctaW1hZScsICc8aW5maWxlLm1hZT4nLCAnLW9tYWUnLCAnPG91dGZpbGUubWFlPic=

> <r_lp_tautomer_probability>
1

> <r_epik_Ionization_Penalty>
0.00203389

> <r_epik_Ionization_Penalty_Charging>
0.00188267

> <r_epik_Ionization_Penalty_Neutral>
0.000151224

> <r_epik_State_Penalty>
0.0012808

> <r_epik_Charging_Adjusted_Penalty>
0.00316346

> <i_epik_Tot_Q>
1

> <i_epik_Tot_abs_Q>
1

> <r_epik_Metal_State_Penalty>
-0

> <b_epik_Metal_Only>
0

> <s_lp_Force_Field>
OPLS_2005

> <r_lp_Energy>
20.62

> <b_lp_Chiralities_Consistent>
1

> <s_lp_Variant>
AV-unprocessed.smi:3341-4

> <Gold.Version>
5.8.1

> <Gold.Id.Protein>
6NUR|6NUR_protein|mol2

> <Gold.PLP.Fitness>
47.3480

> <Gold.PLP.PLP>
-34.7281

> <Gold.PLP.part.hbond>
-3.7652

> <Gold.PLP.part.metal>
0.0000

> <Gold.PLP.part.buried>
-3.1045

> <Gold.PLP.part.nonpolar>
-28.2808

> <Gold.PLP.part.repulsive>
0.3158

> <Gold.PLP.ligand.clash>
0.0000

> <Gold.PLP.ligand.torsion>
1.2355

> <Gold.PLP.Chemscore.Hbond>
4.0000

> <Gold.PLP.Chemscore.CHOScore>
1.0000

> <Gold.PLP.Chemscore.Metal>
0.0000

> <Gold.Chemscore.Hbonds>
donor molecule, donor type, donor heavy atom, donor atom, acceptor molecule, acceptor atom, score
      L1  H     6    27       P1  7957  0.99
      L1  H     9    28       P1  7957  0.94
      L1  H    12    46       P1  7948  2.00
      L1  C     4    26       P1  8028  1.00

> <Gold.PLP.Chemscore.Internal.Correction>
0.0909

> <Gold.Rescore>
     Score         DG    S(hbond)    S(metal)    S(lipo)     H(rot)  DE(clash)    DE(int)     intcor
     17.36     -20.15       2.92        0.00      76.88       1.59       0.21       2.58       ----

> <Gold.Chemscore.Fitness>
17.3565

> <Gold.Chemscore.DG>
-20.1473

> <Gold.Chemscore.ZeroCoef>
-5.4800

> <Gold.Chemscore.Hbond>
2.9177

> <Gold.Chemscore.Metal>
0.0000

> <Gold.Chemscore.Lipo>
76.8809

> <Gold.Chemscore.Internal_Hbond>
0.0000

> <Gold.Chemscore.DEClash>
0.2066

> <Gold.Chemscore.DEInternal>
2.5842

> <Gold.Chemscore.Rot>
1.5909

> <Gold.Chemscore.Internal.Correction>
   9.000000E+99

> <Gold.Chemscore.Hbonds>
donor molecule, donor type, donor heavy atom, donor atom, acceptor molecule, acceptor atom, score
      L1  H     6    27       P1  7957  0.88
      L1  H     9    28       P1  7957  0.84
      L1  H    12    46       P1  7948  1.00

> <Gold.Chemscore.Hbond.Weighted>
-9.7450

> <Gold.Chemscore.Metal.Weighted>
-0.0000

> <Gold.Chemscore.Lipo.Weighted>
-8.9951

> <Gold.Chemscore.Internal_Hbond.Weighted>
0.0000

> <Gold.Chemscore.DEClash.Weighted>
0.2066

> <Gold.Chemscore.DEInternal.Weighted>
2.5842

> <Gold.Chemscore.Rot.Weighted>
4.0728

> <Gold.Chemscore.Internal.Correction.Weighted>
   9.000000E+99

> <Gold.Protein.RotatedTorsions>
[ 6907 6896 6895 6894 ] final -116.33 input  -60.11 | X-H torsion
[ 7974 7965 7964 7962 ] final -178.48 input  175.53 | X-H torsion
[ 8008 7997 7996 7995 ] final  -38.10 input   59.86 | X-H torsion
[ 10167 10162 10161 10158 ] final  136.20 input  -65.29 | X-H torsion
[ 10718 10713 10712 10709 ] final  -92.04 input   66.30 | X-H torsion
[ 10763 10752 10751 10750 ] final  133.82 input  -60.55 | X-H torsion
[ 11005 11000 10999 10996 ] final   90.60 input  -57.11 | X-H torsion

> <Gold.Protein.ActiveResidues>
 VAL166  LYS551  ARG553  GLY616  TRP617  ASP618  TYR619  PRO620  LYS621  CYS622 
 ASP623  PHE694  ASN695  SER759  ASP760  ASP761  ALA762  ILE779  LEU786  VAL792 
 PHE793  MET794  SER795  GLU796  ALA797  LYS798  CYS799  TRP800  GLU811  SER814 

> <Gold.Protein.RotatedAtoms>
  150.8047  133.8532  159.3210 H   0  0  0  0  0  0  0  0  0  0  0  0  # atno 6907 bound_to 6896
  151.6334  135.1019  160.0136 H   0  0  0  0  0  0  0  0  0  0  0  0  # atno 6908 bound_to 6896
  152.4137  133.6964  159.6455 H   0  0  0  0  0  0  0  0  0  0  0  0  # atno 6909 bound_to 6896
  144.7131  140.0861  143.6423 H   0  0  0  0  0  0  0  0  0  0  0  0  # atno 7974 bound_to 7965
  154.4042  140.1586  156.2645 H   0  0  0  0  0  0  0  0  0  0  0  0  # atno 8008 bound_to 7997
  155.9007  140.3433  155.6002 H   0  0  0  0  0  0  0  0  0  0  0  0  # atno 8009 bound_to 7997
  155.7451  140.0797  157.2218 H   0  0  0  0  0  0  0  0  0  0  0  0  # atno 8010 bound_to 7997
  139.5188  144.6477  151.5393 H   0  0  0  0  0  0  0  0  0  0  0  0  # atno 10167 bound_to 10162
  155.9998  130.4971  150.5565 H   0  0  0  0  0  0  0  0  0  0  0  0  # atno 10718 bound_to 10713
  153.8133  135.3126  155.3403 H   0  0  0  0  0  0  0  0  0  0  0  0  # atno 10763 bound_to 10752
  154.8042  135.4708  154.0354 H   0  0  0  0  0  0  0  0  0  0  0  0  # atno 10764 bound_to 10752
  153.1740  135.6882  153.8658 H   0  0  0  0  0  0  0  0  0  0  0  0  # atno 10765 bound_to 10752
  139.8853  134.8624  156.3308 H   0  0  0  0  0  0  0  0  0  0  0  0  # atno 11005 bound_to 11000
  145.9660  139.2835  143.1127 LP  0  0  0  0  0  0  0  0  0  0  0  0  # atno 17320 bound_to 7965
  145.9169  140.9142  143.0425 LP  0  0  0  0  0  0  0  0  0  0  0  0  # atno 17321 bound_to 7965
  140.6269  143.9152  150.6572 LP  0  0  0  0  0  0  0  0  0  0  0  0  # atno 17342 bound_to 10162
  140.2443  143.3640  152.1460 LP  0  0  0  0  0  0  0  0  0  0  0  0  # atno 17343 bound_to 10162
  157.3481  131.0728  151.1735 LP  0  0  0  0  0  0  0  0  0  0  0  0  # atno 17370 bound_to 10713
  157.2561  130.6637  149.5953 LP  0  0  0  0  0  0  0  0  0  0  0  0  # atno 17371 bound_to 10713
  140.9724  133.7319  156.0553 LP  0  0  0  0  0  0  0  0  0  0  0  0  # atno 17394 bound_to 11000
  140.7854  134.3678  157.5477 LP  0  0  0  0  0  0  0  0  0  0  0  0  # atno 17395 bound_to 11000

$$$$
