AV-unprocessed.smi:2855|AV-procd|sdf|10977|dock2
  -GOLD-   2272015433D 1   1.00000     0.00000
 Structure written by MMmdl.
 47 48  0  0  0  0  0  0  0  0  1 V2000
  148.3463  141.5549  154.3231 C   0  0  0  0  0  0  0  0  0  0  0  0
  149.1577  140.6001  155.2105 C   0  0  2  0  0  0  0  0  0  0  0  0
  149.9228  141.3611  156.3044 C   0  0  0  0  0  0  0  0  0  0  0  0
  150.7383  140.4114  157.1959 C   0  0  0  0  0  0  0  0  0  0  0  0
  151.7362  139.5458  156.3857 C   0  0  1  0  0  0  0  0  0  0  0  0
  152.5843  138.6043  157.2977 C   0  0  0  0  0  0  0  0  0  0  0  0
  153.4751  139.3826  158.2851 C   0  0  0  0  0  0  0  0  0  0  0  0
  153.4705  137.6322  156.4942 C   0  0  0  0  0  0  0  0  0  0  0  0
  150.9838  138.8006  155.2462 C   0  0  1  0  0  0  0  0  0  0  0  0
  150.1548  137.7229  155.7856 N   0  0  0  0  0  0  0  0  0  0  0  0
  150.3396  136.4107  155.5797 C   0  0  0  0  0  0  0  0  0  0  0  0
  151.2086  135.9549  154.8358 O   0  0  0  0  0  0  0  0  0  0  0  0
  149.3882  135.4679  156.3266 C   0  0  0  0  0  0  0  0  0  0  0  0
  149.5402  134.0727  155.8910 N   0  0  0  0  0  0  0  0  0  0  0  0
  149.1921  133.6963  154.6015 C   0  0  0  0  0  0  0  0  0  0  0  0
  149.3182  132.4313  154.1348 C   0  0  0  0  0  0  0  0  0  0  0  0
  149.8432  131.3755  154.9941 C   0  0  0  0  0  0  0  0  0  0  0  0
  149.9940  130.2017  154.6634 O   0  0  0  0  0  0  0  0  0  0  0  0
  150.1841  131.7940  156.2832 N   0  0  0  0  0  0  0  0  0  0  0  0
  150.0575  133.0957  156.7706 C   0  0  0  0  0  0  0  0  0  0  0  0
  150.3919  133.3591  157.9255 O   0  0  0  0  0  0  0  0  0  0  0  0
  150.1382  139.7548  154.3785 C   0  0  0  0  0  0  0  0  0  0  0  0
  150.5546  131.0976  156.9133 H   0  0  0  0  0  0  0  0  0  0  0  0
  148.9941  142.2638  153.8065 H   0  0  0  0  0  0  0  0  0  0  0  0
  147.6309  142.1272  154.9142 H   0  0  0  0  0  0  0  0  0  0  0  0
  147.7843  141.0060  153.5671 H   0  0  0  0  0  0  0  0  0  0  0  0
  148.4502  139.9271  155.6969 H   0  0  0  0  0  0  0  0  0  0  0  0
  150.5916  142.0920  155.8476 H   0  0  0  0  0  0  0  0  0  0  0  0
  149.2237  141.9273  156.9210 H   0  0  0  0  0  0  0  0  0  0  0  0
  151.2636  141.0200  157.9301 H   0  0  0  0  0  0  0  0  0  0  0  0
  150.0613  139.7685  157.7601 H   0  0  0  0  0  0  0  0  0  0  0  0
  152.4324  140.2333  155.9025 H   0  0  0  0  0  0  0  0  0  0  0  0
  151.9041  137.9969  157.8963 H   0  0  0  0  0  0  0  0  0  0  0  0
  154.1194  140.0915  157.7643 H   0  0  0  0  0  0  0  0  0  0  0  0
  154.1180  138.7072  158.8504 H   0  0  0  0  0  0  0  0  0  0  0  0
  152.8890  139.9336  159.0195 H   0  0  0  0  0  0  0  0  0  0  0  0
  154.1313  138.1690  155.8130 H   0  0  0  0  0  0  0  0  0  0  0  0
  152.8806  136.9284  155.9080 H   0  0  0  0  0  0  0  0  0  0  0  0
  154.0948  137.0317  157.1561 H   0  0  0  0  0  0  0  0  0  0  0  0
  151.7327  138.3697  154.5805 H   0  0  0  0  0  0  0  0  0  0  0  0
  149.4063  137.9991  156.4045 H   0  0  0  0  0  0  0  0  0  0  0  0
  149.5438  135.5391  157.4054 H   0  0  0  0  0  0  0  0  0  0  0  0
  148.3679  135.8154  156.1585 H   0  0  0  0  0  0  0  0  0  0  0  0
  148.8029  134.4461  153.9273 H   0  0  0  0  0  0  0  0  0  0  0  0
  149.0308  132.1996  153.1194 H   0  0  0  0  0  0  0  0  0  0  0  0
  149.5946  139.1863  153.6226 H   0  0  0  0  0  0  0  0  0  0  0  0
  150.8077  140.4191  153.8304 H   0  0  0  0  0  0  0  0  0  0  0  0
  1  2  1  0  0  0  0
  1 24  1  0  0  0  0
  1 25  1  0  0  0  0
  1 26  1  0  0  0  0
  2 22  1  0  0  0  0
  2  3  1  0  0  0  0
  2 27  1  0  0  0  0
  3  4  1  0  0  0  0
  3 28  1  0  0  0  0
  3 29  1  0  0  0  0
  4  5  1  0  0  0  0
  4 30  1  0  0  0  0
  4 31  1  0  0  0  0
  5  6  1  0  0  0  0
  5  9  1  0  0  0  0
  5 32  1  0  0  0  0
  6  7  1  0  0  0  0
  6  8  1  0  0  0  0
  6 33  1  0  0  0  0
  7 34  1  0  0  0  0
  7 35  1  0  0  0  0
  7 36  1  0  0  0  0
  8 37  1  0  0  0  0
  8 38  1  0  0  0  0
  8 39  1  0  0  0  0
  9 10  1  0  0  0  0
  9 22  1  0  0  0  0
  9 40  1  0  0  0  0
 10 11  1  0  0  0  0
 10 41  1  0  0  0  0
 11 12  2  0  0  0  0
 11 13  1  0  0  0  0
 13 14  1  0  0  0  0
 13 42  1  0  0  0  0
 13 43  1  0  0  0  0
 14 20  1  0  0  0  0
 14 15  1  0  0  0  0
 15 16  2  0  0  0  0
 15 44  1  0  0  0  0
 16 17  1  0  0  0  0
 16 45  1  0  0  0  0
 17 18  2  0  0  0  0
 17 19  1  0  0  0  0
 19 23  1  0  0  0  0
 19 20  1  0  0  0  0
 20 21  2  0  0  0  0
 22 46  1  0  0  0  0
 22 47  1  0  0  0  0
M  END
> <s_m_source_file>
AV-unprocessed.smi

> <i_m_source_file_index>
2855

> <i_lp_mmshare_version>
43012

> <i_f3d_flags>
0

> <s_epik_input>
W0NIM11bQ0BASF0xW0NIMl1bQ0gyXVtDQEBIXShbQ0hdKFtDSDNdKVtDSDNdKVtDQEhdKFtDSDJdMSlbTkhdQyg9TylbQ0gyXW4yW2NIXVtjSF1jKD1PKVtuSF1jMj1P

> <s_epik_cmdline>
J2VwaWtfcHl0aG9uJywgJy1waCcsICc3LjAnLCAnLXRuJywgJzgnLCAnLW1hJywgJzIwMCcsICctbWV0YWxfYmluZGluZycsICctaW1hZScsICc8aW5maWxlLm1hZT4nLCAnLW9tYWUnLCAnPG91dGZpbGUubWFlPic=

> <r_lp_tautomer_probability>
0.999537

> <r_epik_Ionization_Penalty>
0.00306256

> <r_epik_Ionization_Penalty_Charging>
0.00306254

> <r_epik_Ionization_Penalty_Neutral>
2.0223e-08

> <r_epik_State_Penalty>
0.0021533

> <r_epik_Charging_Adjusted_Penalty>
0.00521583

> <i_epik_Tot_Q>
0

> <i_epik_Tot_abs_Q>
0

> <r_epik_Metal_State_Penalty>
0.362116

> <b_epik_Metal_Only>
0

> <s_lp_Force_Field>
OPLS_2005

> <r_lp_Energy>
12.8991

> <b_lp_Chiralities_Consistent>
1

> <s_lp_Variant>
AV-unprocessed.smi:2855-1

> <Gold.Version>
5.8.1

> <Gold.Id.Protein>
6NUR|6NUR_protein|mol2

> <Gold.PLP.Fitness>
40.5946

> <Gold.PLP.PLP>
-31.9508

> <Gold.PLP.part.hbond>
-2.0000

> <Gold.PLP.part.metal>
0.0000

> <Gold.PLP.part.buried>
-2.1897

> <Gold.PLP.part.nonpolar>
-27.8254

> <Gold.PLP.part.repulsive>
0.2594

> <Gold.PLP.ligand.clash>
0.0000

> <Gold.PLP.ligand.torsion>
0.1912

> <Gold.PLP.Chemscore.Hbond>
2.0000

> <Gold.PLP.Chemscore.CHOScore>
0.9931

> <Gold.PLP.Chemscore.Metal>
0.0000

> <Gold.Chemscore.Hbonds>
donor molecule, donor type, donor heavy atom, donor atom, acceptor molecule, acceptor atom, score
      P1  H  6896  6909       L1    21  0.82
      P1  H 10752 10763       L1    12  1.00
      L1  C    15    44       P1  7948  0.58

> <Gold.PLP.Chemscore.Internal.Correction>
0.0468

> <Gold.Rescore>
     Score         DG    S(hbond)    S(metal)    S(lipo)     H(rot)  DE(clash)    DE(int)     intcor
     13.49     -15.38       1.98        0.00      68.52       1.85       0.43       1.46       ----

> <Gold.Chemscore.Fitness>
13.4870

> <Gold.Chemscore.DG>
-15.3779

> <Gold.Chemscore.ZeroCoef>
-5.4800

> <Gold.Chemscore.Hbond>
1.9842

> <Gold.Chemscore.Metal>
0.0000

> <Gold.Chemscore.Lipo>
68.5185

> <Gold.Chemscore.Internal_Hbond>
0.0000

> <Gold.Chemscore.DEClash>
0.4301

> <Gold.Chemscore.DEInternal>
1.4609

> <Gold.Chemscore.Rot>
1.8539

> <Gold.Chemscore.Internal.Correction>
   9.000000E+99

> <Gold.Chemscore.Hbonds>
donor molecule, donor type, donor heavy atom, donor atom, acceptor molecule, acceptor atom, score
      P1  H  6896  6909       L1    21  0.76
      P1  H 10752 10763       L1    12  0.99

> <Gold.Chemscore.Hbond.Weighted>
-6.6273

> <Gold.Chemscore.Metal.Weighted>
-0.0000

> <Gold.Chemscore.Lipo.Weighted>
-8.0167

> <Gold.Chemscore.Internal_Hbond.Weighted>
0.0000

> <Gold.Chemscore.DEClash.Weighted>
0.4301

> <Gold.Chemscore.DEInternal.Weighted>
1.4609

> <Gold.Chemscore.Rot.Weighted>
4.7460

> <Gold.Chemscore.Internal.Correction.Weighted>
   9.000000E+99

> <Gold.Protein.RotatedTorsions>
[ 6907 6896 6895 6894 ] final    1.75 input  -60.11 | X-H torsion
[ 7974 7965 7964 7962 ] final   -9.52 input  175.53 | X-H torsion
[ 8008 7997 7996 7995 ] final -169.44 input   59.86 | X-H torsion
[ 10167 10162 10161 10158 ] final   57.22 input  -65.29 | X-H torsion
[ 10718 10713 10712 10709 ] final  -89.27 input   66.30 | X-H torsion
[ 10763 10752 10751 10750 ] final   43.89 input  -60.55 | X-H torsion
[ 11005 11000 10999 10996 ] final  -10.47 input  -57.11 | X-H torsion

> <Gold.Protein.ActiveResidues>
 VAL166  LYS551  ARG553  GLY616  TRP617  ASP618  TYR619  PRO620  LYS621  CYS622 
 ASP623  PHE694  ASN695  SER759  ASP760  ASP761  ALA762  ILE779  LEU786  VAL792 
 PHE793  MET794  SER795  GLU796  ALA797  LYS798  CYS799  TRP800  GLU811  SER814 

> <Gold.Protein.RotatedAtoms>
  151.5977  135.1049  160.0052 H   0  0  0  0  0  0  0  0  0  0  0  0  # atno 6907 bound_to 6896
  152.4274  133.7214  159.6546 H   0  0  0  0  0  0  0  0  0  0  0  0  # atno 6908 bound_to 6896
  150.8164  133.8258  159.3181 H   0  0  0  0  0  0  0  0  0  0  0  0  # atno 6909 bound_to 6896
  146.2249  140.2629  142.8352 H   0  0  0  0  0  0  0  0  0  0  0  0  # atno 7974 bound_to 7965
  155.9050  140.1047  157.1322 H   0  0  0  0  0  0  0  0  0  0  0  0  # atno 8008 bound_to 7997
  154.4031  140.1285  156.4548 H   0  0  0  0  0  0  0  0  0  0  0  0  # atno 8009 bound_to 7997
  155.7378  140.3467  155.5092 H   0  0  0  0  0  0  0  0  0  0  0  0  # atno 8010 bound_to 7997
  140.2004  144.3994  150.6532 H   0  0  0  0  0  0  0  0  0  0  0  0  # atno 10167 bound_to 10162
  155.9984  130.4866  150.5146 H   0  0  0  0  0  0  0  0  0  0  0  0  # atno 10718 bound_to 10713
  152.9851  135.6087  154.3185 H   0  0  0  0  0  0  0  0  0  0  0  0  # atno 10763 bound_to 10752
  154.2896  135.2775  155.2662 H   0  0  0  0  0  0  0  0  0  0  0  0  # atno 10764 bound_to 10752
  154.4964  135.5878  153.6554 H   0  0  0  0  0  0  0  0  0  0  0  0  # atno 10765 bound_to 10752
  140.7451  133.8638  155.8999 H   0  0  0  0  0  0  0  0  0  0  0  0  # atno 11005 bound_to 11000
  144.9326  140.7991  143.5680 LP  0  0  0  0  0  0  0  0  0  0  0  0  # atno 17320 bound_to 7965
  145.2574  139.2006  143.4910 LP  0  0  0  0  0  0  0  0  0  0  0  0  # atno 17321 bound_to 7965
  140.6395  143.2201  151.6322 LP  0  0  0  0  0  0  0  0  0  0  0  0  # atno 17342 bound_to 10162
  139.5220  144.3177  152.0938 LP  0  0  0  0  0  0  0  0  0  0  0  0  # atno 17343 bound_to 10162
  157.3115  131.0664  151.1997 LP  0  0  0  0  0  0  0  0  0  0  0  0  # atno 17370 bound_to 10713
  157.2942  130.6811  149.6130 LP  0  0  0  0  0  0  0  0  0  0  0  0  # atno 17371 bound_to 10713
  140.9802  134.1416  157.4501 LP  0  0  0  0  0  0  0  0  0  0  0  0  # atno 17394 bound_to 11000
  139.8798  135.0008  156.6030 LP  0  0  0  0  0  0  0  0  0  0  0  0  # atno 17395 bound_to 11000

$$$$
