AV-unprocessed.smi:1702|AV-procd|sdf|6847|dock9
  -GOLD-   22720 8 23D 1   1.00000     0.00000
 Structure written by MMmdl.
 44 46  0  0  0  0  0  0  0  0  2 V2000
  145.1240  131.7439  151.5906 C   0  0  0  0  0  0  0  0  0  0  0  0
  146.5055  132.4171  151.6632 C   0  0  2  0  0  0  0  0  0  0  0  0
  146.7509  133.1273  153.0071 C   0  0  0  0  0  0  0  0  0  0  0  0
  145.9589  134.4421  153.1260 C   0  0  0  0  0  0  0  0  0  0  0  0
  146.2578  135.3529  151.9914 N   0  3  2  0  0  0  0  0  0  0  0  0
  145.6266  136.6881  152.1550 C   0  0  0  0  0  0  0  0  0  0  0  0
  146.2363  137.4898  153.3221 C   0  0  2  0  0  0  0  0  0  0  0  0
  145.2671  137.6084  154.3467 O   0  0  0  0  0  0  0  0  0  0  0  0
  146.6875  138.8950  152.8782 C   0  0  0  0  0  0  0  0  0  0  0  0
  147.1435  139.7102  153.9905 N   0  0  0  0  0  0  0  0  0  0  0  0
  146.6257  140.8854  154.3969 C   0  0  0  0  0  0  0  0  0  0  0  0
  147.1971  141.4741  155.4432 N   0  0  0  0  0  0  0  0  0  0  0  0
  148.2025  140.5753  155.7556 C   0  0  0  0  0  0  0  0  0  0  0  0
  149.1784  140.6101  156.7769 C   0  0  0  0  0  0  0  0  0  0  0  0
  150.1164  139.5648  156.9055 C   0  0  0  0  0  0  0  0  0  0  0  0
  151.0448  139.6135  157.8900 F   0  0  0  0  0  0  0  0  0  0  0  0
  150.0929  138.4706  156.0153 C   0  0  0  0  0  0  0  0  0  0  0  0
  150.9966  137.4707  156.1454 F   0  0  0  0  0  0  0  0  0  0  0  0
  149.1302  138.4143  154.9892 C   0  0  0  0  0  0  0  0  0  0  0  0
  148.1957  139.4591  154.8653 C   0  0  0  0  0  0  0  0  0  0  0  0
  145.9537  134.7130  150.6841 C   0  0  0  0  0  0  0  0  0  0  0  0
  146.7486  133.4065  150.5089 C   0  0  0  0  0  0  0  0  0  0  0  0
  144.3099  132.4628  151.6785 H   0  0  0  0  0  0  0  0  0  0  0  0
  145.0045  131.0129  152.3908 H   0  0  0  0  0  0  0  0  0  0  0  0
  144.9963  131.2158  150.6453 H   0  0  0  0  0  0  0  0  0  0  0  0
  147.2425  131.6180  151.5724 H   0  0  0  0  0  0  0  0  0  0  0  0
  146.5036  132.4642  153.8368 H   0  0  0  0  0  0  0  0  0  0  0  0
  147.8150  133.3470  153.1047 H   0  0  0  0  0  0  0  0  0  0  0  0
  144.8870  134.2444  153.1667 H   0  0  0  0  0  0  0  0  0  0  0  0
  146.2238  134.9281  154.0658 H   0  0  0  0  0  0  0  0  0  0  0  0
  145.7145  137.2432  151.2197 H   0  0  0  0  0  0  0  0  0  0  0  0
  144.5569  136.5747  152.3383 H   0  0  0  0  0  0  0  0  0  0  0  0
  147.0984  136.9652  153.7330 H   0  0  0  0  0  0  0  0  0  0  0  0
  144.5942  138.2080  154.0614 H   0  0  0  0  0  0  0  0  0  0  0  0
  147.5039  138.8174  152.1589 H   0  0  0  0  0  0  0  0  0  0  0  0
  145.8757  139.4174  152.3703 H   0  0  0  0  0  0  0  0  0  0  0  0
  145.7824  141.3355  153.8937 H   0  0  0  0  0  0  0  0  0  0  0  0
  149.2064  141.4427  157.4640 H   0  0  0  0  0  0  0  0  0  0  0  0
  149.1126  137.5774  154.3077 H   0  0  0  0  0  0  0  0  0  0  0  0
  144.8827  134.5200  150.6102 H   0  0  0  0  0  0  0  0  0  0  0  0
  146.2035  135.3862  149.8652 H   0  0  0  0  0  0  0  0  0  0  0  0
  147.8120  133.6448  150.4614 H   0  0  0  0  0  0  0  0  0  0  0  0
  146.5013  132.9419  149.5538 H   0  0  0  0  0  0  0  0  0  0  0  0
  147.2555  135.5109  152.0168 H   0  0  0  0  0  0  0  0  0  0  0  0
  1  2  1  0  0  0  0
  1 23  1  0  0  0  0
  1 24  1  0  0  0  0
  1 25  1  0  0  0  0
  2 22  1  0  0  0  0
  2  3  1  0  0  0  0
  2 26  1  0  0  0  0
  3  4  1  0  0  0  0
  3 27  1  0  0  0  0
  3 28  1  0  0  0  0
  4  5  1  0  0  0  0
  4 29  1  0  0  0  0
  4 30  1  0  0  0  0
  5  6  1  0  0  0  0
  5 21  1  0  0  0  0
  5 44  1  0  0  0  0
  6  7  1  0  0  0  0
  6 31  1  0  0  0  0
  6 32  1  0  0  0  0
  7  8  1  0  0  0  0
  7  9  1  0  0  0  0
  7 33  1  0  0  0  0
  8 34  1  0  0  0  0
  9 10  1  0  0  0  0
  9 35  1  0  0  0  0
  9 36  1  0  0  0  0
 10 20  1  0  0  0  0
 10 11  1  0  0  0  0
 11 12  2  0  0  0  0
 11 37  1  0  0  0  0
 12 13  1  0  0  0  0
 13 20  2  0  0  0  0
 13 14  1  0  0  0  0
 14 15  2  0  0  0  0
 14 38  1  0  0  0  0
 15 16  1  0  0  0  0
 15 17  1  0  0  0  0
 17 18  1  0  0  0  0
 17 19  2  0  0  0  0
 19 20  1  0  0  0  0
 19 39  1  0  0  0  0
 21 22  1  0  0  0  0
 21 40  1  0  0  0  0
 21 41  1  0  0  0  0
 22 42  1  0  0  0  0
 22 43  1  0  0  0  0
M  CHG  1   5   1
M  END
> <s_m_source_file>
AV-unprocessed.smi

> <i_m_source_file_index>
1702

> <i_lp_mmshare_version>
43012

> <i_f3d_flags>
0

> <s_epik_input>
W0NIM11bQ0hdMVtDSDJdW0NIMl1OKFtDSDJdW0NIMl0xKVtDSDJdW0NASF0oW09IXSlbQ0gyXW4oW2NIXW4yKWMoYzIzKVtjSF1jKEYpYyhGKVtjSF0z

> <s_epik_cmdline>
J2VwaWtfcHl0aG9uJywgJy1waCcsICc3LjAnLCAnLXRuJywgJzgnLCAnLW1hJywgJzIwMCcsICctbWV0YWxfYmluZGluZycsICctaW1hZScsICc8aW5maWxlLm1hZT4nLCAnLW9tYWUnLCAnPG91dGZpbGUubWFlPic=

> <r_epik_Ionization_Penalty>
0.0135195

> <r_epik_Ionization_Penalty_Charging>
0.00181365

> <r_epik_Ionization_Penalty_Neutral>
0.0117059

> <r_epik_State_Penalty>
0.00902283

> <r_epik_Charging_Adjusted_Penalty>
0.0108365

> <i_epik_Tot_Q>
1

> <i_epik_Tot_abs_Q>
1

> <r_epik_Metal_State_Penalty>
9.09181e-06

> <b_epik_Metal_Only>
0

> <s_lp_Force_Field>
OPLS_2005

> <r_lp_Energy>
24.0829

> <b_lp_Chiralities_Consistent>
1

> <s_lp_Variant>
AV-unprocessed.smi:1702-3

> <Gold.Version>
5.8.1

> <Gold.Id.Protein>
6NUR|6NUR_protein|mol2

> <Gold.PLP.Fitness>
47.5319

> <Gold.PLP.PLP>
-40.4863

> <Gold.PLP.part.hbond>
-1.0000

> <Gold.PLP.part.metal>
0.0000

> <Gold.PLP.part.buried>
-1.1190

> <Gold.PLP.part.nonpolar>
-39.5364

> <Gold.PLP.part.repulsive>
0.1748

> <Gold.PLP.ligand.clash>
0.0000

> <Gold.PLP.ligand.torsion>
0.8074

> <Gold.PLP.Chemscore.Hbond>
2.0000

> <Gold.PLP.Chemscore.CHOScore>
0.8751

> <Gold.PLP.Chemscore.Metal>
0.0000

> <Gold.Chemscore.Hbonds>
donor molecule, donor type, donor heavy atom, donor atom, acceptor molecule, acceptor atom, score
      L1  H     5    44       P1  7948  2.00
      L1  C    11    37       P1 10175  0.67

> <Gold.PLP.Chemscore.Internal.Correction>
0.0350

> <Gold.Rescore>
     Score         DG    S(hbond)    S(metal)    S(lipo)     H(rot)  DE(clash)    DE(int)     intcor
     12.71     -13.88       1.00        0.00      92.82       2.26       0.10       1.07       ----

> <Gold.Chemscore.Fitness>
12.7108

> <Gold.Chemscore.DG>
-13.8818

> <Gold.Chemscore.ZeroCoef>
-5.4800

> <Gold.Chemscore.Hbond>
0.9975

> <Gold.Chemscore.Metal>
0.0000

> <Gold.Chemscore.Lipo>
92.8242

> <Gold.Chemscore.Internal_Hbond>
0.0000

> <Gold.Chemscore.DEClash>
0.1034

> <Gold.Chemscore.DEInternal>
1.0676

> <Gold.Chemscore.Rot>
2.2619

> <Gold.Chemscore.Internal.Correction>
   9.000000E+99

> <Gold.Chemscore.Hbonds>
donor molecule, donor type, donor heavy atom, donor atom, acceptor molecule, acceptor atom, score
      L1  H     5    44       P1  7948  1.00

> <Gold.Chemscore.Hbond.Weighted>
-3.3318

> <Gold.Chemscore.Metal.Weighted>
-0.0000

> <Gold.Chemscore.Lipo.Weighted>
-10.8604

> <Gold.Chemscore.Internal_Hbond.Weighted>
0.0000

> <Gold.Chemscore.DEClash.Weighted>
0.1034

> <Gold.Chemscore.DEInternal.Weighted>
1.0676

> <Gold.Chemscore.Rot.Weighted>
5.7904

> <Gold.Chemscore.Internal.Correction.Weighted>
   9.000000E+99

> <Gold.Protein.RotatedTorsions>
[ 6907 6896 6895 6894 ] final -144.98 input  -60.11 | X-H torsion
[ 7974 7965 7964 7962 ] final -165.57 input  175.53 | X-H torsion
[ 8008 7997 7996 7995 ] final  -56.18 input   59.86 | X-H torsion
[ 10167 10162 10161 10158 ] final  -97.91 input  -65.29 | X-H torsion
[ 10718 10713 10712 10709 ] final -177.03 input   66.30 | X-H torsion
[ 10763 10752 10751 10750 ] final  177.47 input  -60.55 | X-H torsion
[ 11005 11000 10999 10996 ] final   66.18 input  -57.11 | X-H torsion

> <Gold.Protein.ActiveResidues>
 VAL166  LYS551  ARG553  GLY616  TRP617  ASP618  TYR619  PRO620  LYS621  CYS622 
 ASP623  PHE694  ASN695  SER759  ASP760  ASP761  ALA762  ILE779  LEU786  VAL792 
 PHE793  MET794  SER795  GLU796  ALA797  LYS798  CYS799  TRP800  GLU811  SER814 

> <Gold.Protein.RotatedAtoms>
  151.1215  133.5101  159.2601 H   0  0  0  0  0  0  0  0  0  0  0  0  # atno 6907 bound_to 6896
  151.1856  135.0380  159.8821 H   0  0  0  0  0  0  0  0  0  0  0  0  # atno 6908 bound_to 6896
  152.5456  134.1062  159.8392 H   0  0  0  0  0  0  0  0  0  0  0  0  # atno 6909 bound_to 6896
  144.7266  140.2794  143.6238 H   0  0  0  0  0  0  0  0  0  0  0  0  # atno 7974 bound_to 7965
  154.4221  140.1135  156.5596 H   0  0  0  0  0  0  0  0  0  0  0  0  # atno 8008 bound_to 7997
  155.6325  140.3496  155.4668 H   0  0  0  0  0  0  0  0  0  0  0  0  # atno 8009 bound_to 7997
  155.9936  140.1184  157.0604 H   0  0  0  0  0  0  0  0  0  0  0  0  # atno 8010 bound_to 7997
  140.2785  143.3297  152.0464 H   0  0  0  0  0  0  0  0  0  0  0  0  # atno 10167 bound_to 10162
  156.8234  130.9628  151.3110 H   0  0  0  0  0  0  0  0  0  0  0  0  # atno 10718 bound_to 10713
  154.4948  135.2780  155.1468 H   0  0  0  0  0  0  0  0  0  0  0  0  # atno 10763 bound_to 10752
  154.3125  135.6226  153.5475 H   0  0  0  0  0  0  0  0  0  0  0  0  # atno 10764 bound_to 10752
  152.9893  135.5723  154.5378 H   0  0  0  0  0  0  0  0  0  0  0  0  # atno 10765 bound_to 10752
  139.9848  134.6686  156.0196 H   0  0  0  0  0  0  0  0  0  0  0  0  # atno 11005 bound_to 11000
  145.7964  139.1947  143.2073 LP  0  0  0  0  0  0  0  0  0  0  0  0  # atno 17320 bound_to 7965
  146.0713  140.7866  142.9686 LP  0  0  0  0  0  0  0  0  0  0  0  0  # atno 17321 bound_to 7965
  139.4969  144.6608  151.6469 LP  0  0  0  0  0  0  0  0  0  0  0  0  # atno 17342 bound_to 10162
  140.5831  143.9911  150.6280 LP  0  0  0  0  0  0  0  0  0  0  0  0  # atno 17343 bound_to 10162
  157.6445  130.8833  149.9511 LP  0  0  0  0  0  0  0  0  0  0  0  0  # atno 17370 bound_to 10713
  156.0975  130.3658  150.0278 LP  0  0  0  0  0  0  0  0  0  0  0  0  # atno 17371 bound_to 10713
  141.1515  133.6548  156.4027 LP  0  0  0  0  0  0  0  0  0  0  0  0  # atno 17394 bound_to 11000
  140.5024  134.6473  157.5253 LP  0  0  0  0  0  0  0  0  0  0  0  0  # atno 17395 bound_to 11000

$$$$
