AV-unprocessed.smi:1120|AV-procd|sdf|4823|dock10
  -GOLD-   22720 3383D 1   1.00000     0.00000
 Structure written by MMmdl.
 47 48  0  0  0  0  0  0  0  0  2 V2000
  148.1062  141.7508  154.7800 C   0  0  0  0  0  0  0  0  0  0  0  0
  149.3658  140.8951  154.5891 C   0  0  2  0  0  0  0  0  0  0  0  0
  149.0221  139.4574  154.1368 C   0  0  0  0  0  0  0  0  0  0  0  0
  150.2742  138.5555  153.9803 C   0  0  0  0  0  0  0  0  0  0  0  0
  151.1732  138.4901  155.2398 C   0  0  2  0  0  0  0  0  0  0  0  0
  150.5071  137.7232  156.2846 N   0  5  0  0  0  0  0  0  0  0  0  0
  151.0749  136.2648  156.7130 S   0  0  0  0  0  0  0  0  0  0  0  0
  152.5432  136.2543  156.8137 O   0  0  0  0  0  0  0  0  0  0  0  0
  150.3267  135.6620  157.8291 O   0  0  0  0  0  0  0  0  0  0  0  0
  150.6760  135.2777  155.1988 C   0  0  0  0  0  0  0  0  0  0  0  0
  149.2098  134.8413  155.1843 C   0  0  0  0  0  0  0  0  0  0  0  0
  148.3845  135.4313  155.8816 O   0  0  0  0  0  0  0  0  0  0  0  0
  148.8939  133.8226  154.3696 N   0  0  0  0  0  0  0  0  0  0  0  0
  147.5577  133.2657  154.2003 C   0  0  0  0  0  0  0  0  0  0  0  0
  147.5377  132.1623  153.1295 C   0  0  0  0  0  0  0  0  0  0  0  0
  146.4199  132.3582  152.1230 C   0  0  0  0  0  0  0  0  0  0  0  0
  145.4129  131.3821  151.9655 C   0  0  0  0  0  0  0  0  0  0  0  0
  144.4005  131.6101  151.0134 C   0  0  0  0  0  0  0  0  0  0  0  0
  144.4350  132.7977  150.2578 C   0  0  0  0  0  0  0  0  0  0  0  0
  145.4850  133.7085  150.4888 C   0  0  0  0  0  0  0  0  0  0  0  0
  146.4598  133.5003  151.3998 N   0  0  0  0  0  0  0  0  0  0  0  0
  151.4740  139.9323  155.7234 C   0  0  0  0  0  0  0  0  0  0  0  0
  150.2166  140.8266  155.8776 C   0  0  0  0  0  0  0  0  0  0  0  0
  147.4585  141.3352  155.5523 H   0  0  0  0  0  0  0  0  0  0  0  0
  147.5285  141.8094  153.8572 H   0  0  0  0  0  0  0  0  0  0  0  0
  148.3643  142.7686  155.0731 H   0  0  0  0  0  0  0  0  0  0  0  0
  149.9701  141.3600  153.8086 H   0  0  0  0  0  0  0  0  0  0  0  0
  148.3244  139.0068  154.8461 H   0  0  0  0  0  0  0  0  0  0  0  0
  148.4905  139.4943  153.1855 H   0  0  0  0  0  0  0  0  0  0  0  0
  149.9712  137.5506  153.6829 H   0  0  0  0  0  0  0  0  0  0  0  0
  150.8701  138.9399  153.1516 H   0  0  0  0  0  0  0  0  0  0  0  0
  152.1135  138.0174  154.9537 H   0  0  0  0  0  0  0  0  0  0  0  0
  150.9190  135.8708  154.3171 H   0  0  0  0  0  0  0  0  0  0  0  0
  151.3191  134.3978  155.1921 H   0  0  0  0  0  0  0  0  0  0  0  0
  149.6387  133.3891  153.8431 H   0  0  0  0  0  0  0  0  0  0  0  0
  147.2409  132.8598  155.1612 H   0  0  0  0  0  0  0  0  0  0  0  0
  146.8499  134.0571  153.9485 H   0  0  0  0  0  0  0  0  0  0  0  0
  148.4914  132.1332  152.6007 H   0  0  0  0  0  0  0  0  0  0  0  0
  147.4207  131.1857  153.6015 H   0  0  0  0  0  0  0  0  0  0  0  0
  145.4162  130.4788  152.5580 H   0  0  0  0  0  0  0  0  0  0  0  0
  143.6120  130.8870  150.8654 H   0  0  0  0  0  0  0  0  0  0  0  0
  143.6756  133.0059  149.5186 H   0  0  0  0  0  0  0  0  0  0  0  0
  145.5428  134.6293  149.9276 H   0  0  0  0  0  0  0  0  0  0  0  0
  152.0292  139.9141  156.6611 H   0  0  0  0  0  0  0  0  0  0  0  0
  152.1403  140.4039  155.0005 H   0  0  0  0  0  0  0  0  0  0  0  0
  150.5301  141.8324  156.1589 H   0  0  0  0  0  0  0  0  0  0  0  0
  149.6022  140.4669  156.7060 H   0  0  0  0  0  0  0  0  0  0  0  0
  1  2  1  0  0  0  0
  1 24  1  0  0  0  0
  1 25  1  0  0  0  0
  1 26  1  0  0  0  0
  2 23  1  0  0  0  0
  2  3  1  0  0  0  0
  2 27  1  0  0  0  0
  3  4  1  0  0  0  0
  3 28  1  0  0  0  0
  3 29  1  0  0  0  0
  4  5  1  0  0  0  0
  4 30  1  0  0  0  0
  4 31  1  0  0  0  0
  5  6  1  0  0  0  0
  5 22  1  0  0  0  0
  5 32  1  0  0  0  0
  6  7  1  0  0  0  0
  7  8  2  0  0  0  0
  7  9  2  0  0  0  0
  7 10  1  0  0  0  0
 10 11  1  0  0  0  0
 10 33  1  0  0  0  0
 10 34  1  0  0  0  0
 11 12  2  0  0  0  0
 11 13  1  0  0  0  0
 13 14  1  0  0  0  0
 13 35  1  0  0  0  0
 14 15  1  0  0  0  0
 14 36  1  0  0  0  0
 14 37  1  0  0  0  0
 15 16  1  0  0  0  0
 15 38  1  0  0  0  0
 15 39  1  0  0  0  0
 16 21  1  0  0  0  0
 16 17  2  0  0  0  0
 17 18  1  0  0  0  0
 17 40  1  0  0  0  0
 18 19  2  0  0  0  0
 18 41  1  0  0  0  0
 19 20  1  0  0  0  0
 19 42  1  0  0  0  0
 20 21  2  0  0  0  0
 20 43  1  0  0  0  0
 22 23  1  0  0  0  0
 22 44  1  0  0  0  0
 22 45  1  0  0  0  0
 23 46  1  0  0  0  0
 23 47  1  0  0  0  0
M  CHG  1   6  -1
M  END
> <s_m_source_file>
AV-unprocessed.smi

> <i_m_source_file_index>
1120

> <i_lp_mmshare_version>
43012

> <i_f3d_flags>
0

> <s_epik_input>
W0NIM11bQ0BASF0xW0NIMl1bQ0gyXVtDQEhdKFtDSDJdW0NIMl0xKVtOSF1TKD1PKSg9TylbQ0gyXUMoPU8pW05IXVtDSDJdW0NIMl1jMltjSF1bY0hdW2NIXVtjSF1uMg==

> <s_epik_cmdline>
J2VwaWtfcHl0aG9uJywgJy1waCcsICc3LjAnLCAnLXRuJywgJzgnLCAnLW1hJywgJzIwMCcsICctbWV0YWxfYmluZGluZycsICctaW1hZScsICc8aW5maWxlLm1hZT4nLCAnLW9tYWUnLCAnPG91dGZpbGUubWFlPic=

> <r_epik_Ionization_Penalty>
5.68623

> <r_epik_Ionization_Penalty_Charging>
5.66033

> <r_epik_Ionization_Penalty_Neutral>
0.0259005

> <r_epik_State_Penalty>
5.67764

> <r_epik_Charging_Adjusted_Penalty>
11.338

> <i_epik_Tot_Q>
-1

> <i_epik_Tot_abs_Q>
1

> <r_epik_Metal_State_Penalty>
1.68319

> <b_epik_Metal_Only>
1

> <s_lp_Force_Field>
OPLS_2005

> <r_lp_Energy>
10.049

> <b_lp_Chiralities_Consistent>
1

> <s_lp_Variant>
AV-unprocessed.smi:1120-6

> <Gold.Version>
5.8.1

> <Gold.Id.Protein>
6NUR|6NUR_protein|mol2

> <Gold.PLP.Fitness>
44.8390

> <Gold.PLP.PLP>
-38.9456

> <Gold.PLP.part.hbond>
-2.0000

> <Gold.PLP.part.metal>
0.0000

> <Gold.PLP.part.buried>
-2.1860

> <Gold.PLP.part.nonpolar>
-34.8926

> <Gold.PLP.part.repulsive>
0.2329

> <Gold.PLP.ligand.clash>
0.0000

> <Gold.PLP.ligand.torsion>
1.6141

> <Gold.PLP.Chemscore.Hbond>
1.6978

> <Gold.PLP.Chemscore.CHOScore>
1.0000

> <Gold.PLP.Chemscore.Metal>
0.0000

> <Gold.Chemscore.Hbonds>
donor molecule, donor type, donor heavy atom, donor atom, acceptor molecule, acceptor atom, score
      P1  H  6896  6908       L1     9  0.69
      P1  H 10752 10763       L1     8  1.00
      L1  C    20    43       P1  7921  0.91

> <Gold.PLP.Chemscore.Internal.Correction>
1.0280

> <Gold.Rescore>
     Score         DG    S(hbond)    S(metal)    S(lipo)     H(rot)  DE(clash)    DE(int)     intcor
     15.43     -18.49       1.63        0.00     105.30       1.86       0.01       3.05       ----

> <Gold.Chemscore.Fitness>
15.4313

> <Gold.Chemscore.DG>
-18.4879

> <Gold.Chemscore.ZeroCoef>
-5.4800

> <Gold.Chemscore.Hbond>
1.6316

> <Gold.Chemscore.Metal>
0.0000

> <Gold.Chemscore.Lipo>
105.3045

> <Gold.Chemscore.Internal_Hbond>
0.0000

> <Gold.Chemscore.DEClash>
0.0077

> <Gold.Chemscore.DEInternal>
3.0489

> <Gold.Chemscore.Rot>
1.8602

> <Gold.Chemscore.Internal.Correction>
   9.000000E+99

> <Gold.Chemscore.Hbonds>
donor molecule, donor type, donor heavy atom, donor atom, acceptor molecule, acceptor atom, score
      P1  H  6896  6908       L1     9  0.64
      P1  H 10752 10763       L1     8  0.89

> <Gold.Chemscore.Hbond.Weighted>
-5.4494

> <Gold.Chemscore.Metal.Weighted>
-0.0000

> <Gold.Chemscore.Lipo.Weighted>
-12.3206

> <Gold.Chemscore.Internal_Hbond.Weighted>
0.0000

> <Gold.Chemscore.DEClash.Weighted>
0.0077

> <Gold.Chemscore.DEInternal.Weighted>
3.0489

> <Gold.Chemscore.Rot.Weighted>
4.7622

> <Gold.Chemscore.Internal.Correction.Weighted>
   9.000000E+99

> <Gold.Protein.RotatedTorsions>
[ 6907 6896 6895 6894 ] final  170.49 input  -60.11 | X-H torsion
[ 7974 7965 7964 7962 ] final   32.13 input  175.53 | X-H torsion
[ 8008 7997 7996 7995 ] final   42.87 input   59.86 | X-H torsion
[ 10167 10162 10161 10158 ] final -108.25 input  -65.29 | X-H torsion
[ 10718 10713 10712 10709 ] final  127.90 input   66.30 | X-H torsion
[ 10763 10752 10751 10750 ] final  115.52 input  -60.55 | X-H torsion
[ 11005 11000 10999 10996 ] final  145.17 input  -57.11 | X-H torsion

> <Gold.Protein.ActiveResidues>
 VAL166  LYS551  ARG553  GLY616  TRP617  ASP618  TYR619  PRO620  LYS621  CYS622 
 ASP623  PHE694  ASN695  SER759  ASP760  ASP761  ALA762  ILE779  LEU786  VAL792 
 PHE793  MET794  SER795  GLU796  ALA797  LYS798  CYS799  TRP800  GLU811  SER814 

> <Gold.Protein.RotatedAtoms>
  151.8152  133.3387  159.3567 H   0  0  0  0  0  0  0  0  0  0  0  0  # atno 6907 bound_to 6896
  150.7313  134.5626  159.5859 H   0  0  0  0  0  0  0  0  0  0  0  0  # atno 6908 bound_to 6896
  152.3046  134.7571  160.0401 H   0  0  0  0  0  0  0  0  0  0  0  0  # atno 6909 bound_to 6896
  146.1506  139.6566  142.9101 H   0  0  0  0  0  0  0  0  0  0  0  0  # atno 7974 bound_to 7965
  155.2933  140.3380  155.4251 H   0  0  0  0  0  0  0  0  0  0  0  0  # atno 8008 bound_to 7997
  156.2035  140.1742  156.7888 H   0  0  0  0  0  0  0  0  0  0  0  0  # atno 8009 bound_to 7997
  154.5590  140.0691  156.8774 H   0  0  0  0  0  0  0  0  0  0  0  0  # atno 8010 bound_to 7997
  140.1682  143.4064  152.1374 H   0  0  0  0  0  0  0  0  0  0  0  0  # atno 10167 bound_to 10162
  157.5292  131.1098  150.9035 H   0  0  0  0  0  0  0  0  0  0  0  0  # atno 10718 bound_to 10713
  153.5234  135.3593  155.2642 H   0  0  0  0  0  0  0  0  0  0  0  0  # atno 10763 bound_to 10752
  154.8733  135.4051  154.3234 H   0  0  0  0  0  0  0  0  0  0  0  0  # atno 10764 bound_to 10752
  153.3908  135.7071  153.6563 H   0  0  0  0  0  0  0  0  0  0  0  0  # atno 10765 bound_to 10752
  140.0690  134.9162  157.1313 H   0  0  0  0  0  0  0  0  0  0  0  0  # atno 11005 bound_to 11000
  145.4832  141.0438  143.2634 LP  0  0  0  0  0  0  0  0  0  0  0  0  # atno 17320 bound_to 7965
  144.7899  139.6349  143.7117 LP  0  0  0  0  0  0  0  0  0  0  0  0  # atno 17321 bound_to 7965
  139.5350  144.7200  151.4925 LP  0  0  0  0  0  0  0  0  0  0  0  0  # atno 17342 bound_to 10162
  140.6599  143.8520  150.6876 LP  0  0  0  0  0  0  0  0  0  0  0  0  # atno 17343 bound_to 10162
  156.9622  130.5459  149.5286 LP  0  0  0  0  0  0  0  0  0  0  0  0  # atno 17370 bound_to 10713
  156.0410  130.5492  150.8769 LP  0  0  0  0  0  0  0  0  0  0  0  0  # atno 17371 bound_to 10713
  140.3655  134.2447  155.7183 LP  0  0  0  0  0  0  0  0  0  0  0  0  # atno 17394 bound_to 11000
  141.2004  133.7987  157.0489 LP  0  0  0  0  0  0  0  0  0  0  0  0  # atno 17395 bound_to 11000

$$$$
