AV-unprocessed.smi:27|AV-procd|sdf|187|dock4
  -GOLD-   2262015453D 1   1.00000     0.00000
 Structure written by MMmdl.
 53 56  0  0  0  0  0  0  0  0  1 V2000
  153.4078  139.4677  156.3355 O   0  0  0  0  0  0  0  0  0  0  0  0
  152.7326  138.6486  156.9571 C   0  0  0  0  0  0  0  0  0  0  0  0
  153.0855  138.3281  158.4220 C   0  0  0  0  0  0  0  0  0  0  0  0
  153.3763  139.5216  159.2530 N   0  0  0  0  0  0  0  0  0  0  0  0
  154.5003  139.4923  160.1144 C   0  0  0  0  0  0  0  0  0  0  0  0
  155.2461  138.5132  160.1593 O   0  0  0  0  0  0  0  0  0  0  0  0
  154.6909  140.6790  160.9393 C   0  0  0  0  0  0  0  0  0  0  0  0
  155.7451  140.7483  161.7698 F   0  0  0  0  0  0  0  0  0  0  0  0
  153.8224  141.7103  160.8888 C   0  0  0  0  0  0  0  0  0  0  0  0
  152.7141  141.7190  160.0584 N   0  0  0  0  0  0  0  0  0  0  0  0
  151.6866  142.8332  160.0563 C   0  0  2  0  0  0  0  0  0  0  0  0
  151.6830  143.7351  158.8190 C   0  0  0  0  0  0  0  0  0  0  0  0
  150.9883  144.9495  159.3898 C   0  0  0  0  0  0  0  0  0  0  0  0
  151.6005  145.0218  160.7886 C   0  0  0  0  0  0  0  0  0  0  0  0
  151.9610  143.6837  161.1298 O   0  0  0  0  0  0  0  0  0  0  0  0
  152.4794  140.6161  159.2075 C   0  0  0  0  0  0  0  0  0  0  0  0
  151.5021  140.5986  158.4559 O   0  0  0  0  0  0  0  0  0  0  0  0
  151.6850  138.0035  156.4199 N   0  0  0  0  0  0  0  0  0  0  0  0
  151.1516  138.1535  155.0702 C   0  0  0  0  0  0  0  0  0  0  0  0
  150.2283  139.3640  154.9717 C   0  0  0  0  0  0  0  0  0  0  0  0
  149.6279  139.7343  153.7444 C   0  0  0  0  0  0  0  0  0  0  0  0
  148.7778  140.8547  153.6772 C   0  0  0  0  0  0  0  0  0  0  0  0
  148.5239  141.6175  154.8325 C   0  0  0  0  0  0  0  0  0  0  0  0
  149.1244  141.2612  156.0548 C   0  0  0  0  0  0  0  0  0  0  0  0
  149.9740  140.1400  156.1233 C   0  0  0  0  0  0  0  0  0  0  0  0
  150.4477  136.8919  154.5820 C   0  0  0  0  0  0  0  0  0  0  0  0
  149.0439  136.8577  154.4151 C   0  0  0  0  0  0  0  0  0  0  0  0
  148.4107  135.6856  153.9588 C   0  0  0  0  0  0  0  0  0  0  0  0
  149.1749  134.5412  153.6614 C   0  0  0  0  0  0  0  0  0  0  0  0
  150.5737  134.5706  153.8178 C   0  0  0  0  0  0  0  0  0  0  0  0
  151.2075  135.7422  154.2754 C   0  0  0  0  0  0  0  0  0  0  0  0
  152.2724  137.7381  158.8474 H   0  0  0  0  0  0  0  0  0  0  0  0
  153.9346  137.6429  158.4244 H   0  0  0  0  0  0  0  0  0  0  0  0
  154.0405  142.5520  161.5248 H   0  0  0  0  0  0  0  0  0  0  0  0
  150.7213  142.3420  160.1977 H   0  0  0  0  0  0  0  0  0  0  0  0
  152.6943  144.0237  158.5340 H   0  0  0  0  0  0  0  0  0  0  0  0
  151.1673  143.2709  157.9781 H   0  0  0  0  0  0  0  0  0  0  0  0
  151.1526  145.8551  158.8051 H   0  0  0  0  0  0  0  0  0  0  0  0
  149.9137  144.7726  159.4543 H   0  0  0  0  0  0  0  0  0  0  0  0
  152.5030  145.6332  160.7823 H   0  0  0  0  0  0  0  0  0  0  0  0
  150.9099  145.4446  161.5186 H   0  0  0  0  0  0  0  0  0  0  0  0
  151.1954  137.3521  157.0156 H   0  0  0  0  0  0  0  0  0  0  0  0
  151.9950  138.3455  154.4036 H   0  0  0  0  0  0  0  0  0  0  0  0
  149.8136  139.1672  152.8439 H   0  0  0  0  0  0  0  0  0  0  0  0
  148.3221  141.1297  152.7376 H   0  0  0  0  0  0  0  0  0  0  0  0
  147.8720  142.4769  154.7807 H   0  0  0  0  0  0  0  0  0  0  0  0
  148.9336  141.8485  156.9410 H   0  0  0  0  0  0  0  0  0  0  0  0
  150.4304  139.8756  157.0661 H   0  0  0  0  0  0  0  0  0  0  0  0
  148.4445  137.7297  154.6327 H   0  0  0  0  0  0  0  0  0  0  0  0
  147.3379  135.6651  153.8357 H   0  0  0  0  0  0  0  0  0  0  0  0
  148.6889  133.6425  153.3113 H   0  0  0  0  0  0  0  0  0  0  0  0
  151.1611  133.6943  153.5862 H   0  0  0  0  0  0  0  0  0  0  0  0
  152.2815  135.7549  154.3913 H   0  0  0  0  0  0  0  0  0  0  0  0
  1  2  2  0  0  0  0
  2  3  1  0  0  0  0
  2 18  1  0  0  0  0
  3  4  1  0  0  0  0
  3 32  1  0  0  0  0
  3 33  1  0  0  0  0
  4 16  1  0  0  0  0
  4  5  1  0  0  0  0
  5  6  2  0  0  0  0
  5  7  1  0  0  0  0
  7  8  1  0  0  0  0
  7  9  2  0  0  0  0
  9 10  1  0  0  0  0
  9 34  1  0  0  0  0
 10 11  1  0  0  0  0
 10 16  1  0  0  0  0
 11 15  1  0  0  0  0
 11 12  1  0  0  0  0
 11 35  1  0  0  0  0
 12 13  1  0  0  0  0
 12 36  1  0  0  0  0
 12 37  1  0  0  0  0
 13 14  1  0  0  0  0
 13 38  1  0  0  0  0
 13 39  1  0  0  0  0
 14 15  1  0  0  0  0
 14 40  1  0  0  0  0
 14 41  1  0  0  0  0
 16 17  2  0  0  0  0
 18 19  1  0  0  0  0
 18 42  1  0  0  0  0
 19 20  1  0  0  0  0
 19 26  1  0  0  0  0
 19 43  1  0  0  0  0
 20 25  1  0  0  0  0
 20 21  2  0  0  0  0
 21 22  1  0  0  0  0
 21 44  1  0  0  0  0
 22 23  2  0  0  0  0
 22 45  1  0  0  0  0
 23 24  1  0  0  0  0
 23 46  1  0  0  0  0
 24 25  2  0  0  0  0
 24 47  1  0  0  0  0
 25 48  1  0  0  0  0
 26 31  1  0  0  0  0
 26 27  2  0  0  0  0
 27 28  1  0  0  0  0
 27 49  1  0  0  0  0
 28 29  2  0  0  0  0
 28 50  1  0  0  0  0
 29 30  1  0  0  0  0
 29 51  1  0  0  0  0
 30 31  2  0  0  0  0
 30 52  1  0  0  0  0
 31 53  1  0  0  0  0
M  END
> <s_m_source_file>
AV-unprocessed.smi

> <i_m_source_file_index>
27

> <i_lp_mmshare_version>
43012

> <i_f3d_flags>
0

> <s_epik_input>
W2NIXTFbY0hdW2NIXVtjSF1bY0hdYzFbQ0hdKGMyW2NIXVtjSF1bY0hdW2NIXVtjSF0yKVtOSF1DKD1PKVtDSDJdbjNjKD1PKWMoRilbY0hdbihjMz1PKVtDQEBIXTRbQ0gyXVtDSDJdW0NIMl1PNA==

> <s_epik_cmdline>
J2VwaWtfcHl0aG9uJywgJy1waCcsICc3LjAnLCAnLXRuJywgJzgnLCAnLW1hJywgJzIwMCcsICctbWV0YWxfYmluZGluZycsICctaW1hZScsICc8aW5maWxlLm1hZT4nLCAnLW9tYWUnLCAnPG91dGZpbGUubWFlPic=

> <r_lp_tautomer_probability>
1

> <r_epik_Ionization_Penalty>
5.29953e-08

> <r_epik_Ionization_Penalty_Charging>
3.6115e-09

> <r_epik_Ionization_Penalty_Neutral>
4.93838e-08

> <r_epik_State_Penalty>
-0

> <r_epik_Charging_Adjusted_Penalty>
3.6115e-09

> <i_epik_Tot_Q>
0

> <i_epik_Tot_abs_Q>
0

> <r_epik_Metal_State_Penalty>
-0

> <b_epik_Metal_Only>
0

> <s_epik_Chemistry_Notes>
This compound contains an acetal/aminal-like group ( X-CH(R)-Y where X, Y are N, S, or O) that may be acid/base labile, releasing an aldehyde.

> <s_lp_Force_Field>
OPLS_2005

> <r_lp_Energy>
32.38

> <b_lp_Chiralities_Consistent>
1

> <s_lp_Variant>
AV-unprocessed.smi:27-1

> <Gold.Version>
5.8.1

> <Gold.Id.Protein>
6NUR|6NUR_protein|mol2

> <Gold.PLP.Fitness>
50.1816

> <Gold.PLP.PLP>
-49.3665

> <Gold.PLP.part.hbond>
-1.0000

> <Gold.PLP.part.metal>
0.0000

> <Gold.PLP.part.buried>
1.6698

> <Gold.PLP.part.nonpolar>
-49.4084

> <Gold.PLP.part.repulsive>
0.1317

> <Gold.PLP.ligand.clash>
0.0000

> <Gold.PLP.ligand.torsion>
1.2255

> <Gold.PLP.Chemscore.Hbond>
1.0000

> <Gold.PLP.Chemscore.CHOScore>
0.0000

> <Gold.PLP.Chemscore.Metal>
0.0000

> <Gold.Chemscore.Hbonds>
donor molecule, donor type, donor heavy atom, donor atom, acceptor molecule, acceptor atom, score
      P1  H  7997  8010       L1     1  0.02

> <Gold.PLP.Chemscore.Internal.Correction>
0.2662

> <Gold.Rescore>
     Score         DG    S(hbond)    S(metal)    S(lipo)     H(rot)  DE(clash)    DE(int)     intcor
     12.84     -16.73       1.00        0.00     115.00       2.16       0.79       3.11       ----

> <Gold.Chemscore.Fitness>
12.8379

> <Gold.Chemscore.DG>
-16.7328

> <Gold.Chemscore.ZeroCoef>
-5.4800

> <Gold.Chemscore.Hbond>
0.9994

> <Gold.Chemscore.Metal>
0.0000

> <Gold.Chemscore.Lipo>
115.0018

> <Gold.Chemscore.Internal_Hbond>
0.0000

> <Gold.Chemscore.DEClash>
0.7864

> <Gold.Chemscore.DEInternal>
3.1085

> <Gold.Chemscore.Rot>
2.1642

> <Gold.Chemscore.Internal.Correction>
   9.000000E+99

> <Gold.Chemscore.Hbonds>
donor molecule, donor type, donor heavy atom, donor atom, acceptor molecule, acceptor atom, score
      P1  H  7997  8010       L1     1  0.07

> <Gold.Chemscore.Hbond.Weighted>
-3.3380

> <Gold.Chemscore.Metal.Weighted>
-0.0000

> <Gold.Chemscore.Lipo.Weighted>
-13.4552

> <Gold.Chemscore.Internal_Hbond.Weighted>
0.0000

> <Gold.Chemscore.DEClash.Weighted>
0.7864

> <Gold.Chemscore.DEInternal.Weighted>
3.1085

> <Gold.Chemscore.Rot.Weighted>
5.5404

> <Gold.Chemscore.Internal.Correction.Weighted>
   9.000000E+99

> <Gold.Protein.RotatedTorsions>
[ 6907 6896 6895 6894 ] final   78.00 input  -60.11 | X-H torsion
[ 7974 7965 7964 7962 ] final  -33.89 input  175.53 | X-H torsion
[ 8008 7997 7996 7995 ] final   80.32 input   59.86 | X-H torsion
[ 10167 10162 10161 10158 ] final -140.28 input  -65.29 | X-H torsion
[ 10718 10713 10712 10709 ] final   39.05 input   66.30 | X-H torsion
[ 10763 10752 10751 10750 ] final   16.36 input  -60.55 | X-H torsion
[ 11005 11000 10999 10996 ] final  122.18 input  -57.11 | X-H torsion

> <Gold.Protein.ActiveResidues>
 VAL166  LYS551  ARG553  GLY616  TRP617  ASP618  TYR619  PRO620  LYS621  CYS622 
 ASP623  PHE694  ASN695  SER759  ASP760  ASP761  ALA762  ILE779  LEU786  VAL792 
 PHE793  MET794  SER795  GLU796  ALA797  LYS798  CYS799  TRP800  GLU811  SER814 

> <Gold.Protein.RotatedAtoms>
  152.5141  134.3731  159.9324 H   0  0  0  0  0  0  0  0  0  0  0  0  # atno 6907 bound_to 6896
  151.3686  133.3857  159.2705 H   0  0  0  0  0  0  0  0  0  0  0  0  # atno 6908 bound_to 6896
  150.9596  134.9005  159.7780 H   0  0  0  0  0  0  0  0  0  0  0  0  # atno 6909 bound_to 6896
  146.0874  140.5971  142.8880 H   0  0  0  0  0  0  0  0  0  0  0  0  # atno 7974 bound_to 7965
  155.8819  140.3443  155.5894 H   0  0  0  0  0  0  0  0  0  0  0  0  # atno 8008 bound_to 7997
  155.7710  140.0845  157.2127 H   0  0  0  0  0  0  0  0  0  0  0  0  # atno 8009 bound_to 7997
  154.4025  140.1518  156.2929 H   0  0  0  0  0  0  0  0  0  0  0  0  # atno 8010 bound_to 7997
  139.8297  143.7463  152.2666 H   0  0  0  0  0  0  0  0  0  0  0  0  # atno 10167 bound_to 10162
  157.3661  130.7675  149.7083 H   0  0  0  0  0  0  0  0  0  0  0  0  # atno 10718 bound_to 10713
  153.1438  135.6765  153.8986 H   0  0  0  0  0  0  0  0  0  0  0  0  # atno 10763 bound_to 10752
  153.8434  135.3102  155.3429 H   0  0  0  0  0  0  0  0  0  0  0  0  # atno 10764 bound_to 10752
  154.7809  135.4889  153.9926 H   0  0  0  0  0  0  0  0  0  0  0  0  # atno 10765 bound_to 10752
  139.9257  134.9640  156.8070 H   0  0  0  0  0  0  0  0  0  0  0  0  # atno 11005 bound_to 11000
  144.7336  140.4742  143.6920 LP  0  0  0  0  0  0  0  0  0  0  0  0  # atno 17320 bound_to 7965
  145.6103  139.1512  143.3079 LP  0  0  0  0  0  0  0  0  0  0  0  0  # atno 17321 bound_to 7965
  139.7667  144.7490  151.0284 LP  0  0  0  0  0  0  0  0  0  0  0  0  # atno 17342 bound_to 10162
  140.7807  143.4690  151.0172 LP  0  0  0  0  0  0  0  0  0  0  0  0  # atno 17343 bound_to 10162
  155.9746  130.4100  150.3909 LP  0  0  0  0  0  0  0  0  0  0  0  0  # atno 17370 bound_to 10713
  157.1993  131.0434  151.2659 LP  0  0  0  0  0  0  0  0  0  0  0  0  # atno 17371 bound_to 10713
  140.6343  133.9877  155.7677 LP  0  0  0  0  0  0  0  0  0  0  0  0  # atno 17394 bound_to 11000
  141.0813  134.0058  157.3382 LP  0  0  0  0  0  0  0  0  0  0  0  0  # atno 17395 bound_to 11000

$$$$
