AV-unprocessed.smi:3314|AV-procd|sdf|12747|dock3
  -GOLD-   2272019 83D 1   1.00000     0.00000
 Structure written by MMmdl.
 37 38  0  0  0  0  0  0  0  0  1 V2000
  151.5213  145.6081  160.0853 C   0  0  0  0  0  0  0  0  0  0  0  0
  151.9176  144.2114  159.6512 C   0  0  0  0  0  0  0  0  0  0  0  0
  152.8112  143.4122  160.4722 C   0  0  0  0  0  0  0  0  0  0  0  0
  153.1520  142.1765  160.0685 C   0  0  0  0  0  0  0  0  0  0  0  0
  154.0743  141.2627  160.8477 C   0  0  0  0  0  0  0  0  0  0  0  0
  152.6616  141.6544  158.8782 N   0  0  0  0  0  0  0  0  0  0  0  0
  151.7908  142.3613  158.0306 C   0  0  0  0  0  0  0  0  0  0  0  0
  151.2993  141.9149  156.9111 N   0  0  0  0  0  0  0  0  0  0  0  0
  151.5994  140.6506  156.4089 C   0  0  0  0  0  0  0  0  0  0  0  0
  152.4834  139.8616  156.7552 O   0  0  0  0  0  0  0  0  0  0  0  0
  150.6524  140.2448  155.2731 C   0  0  2  0  0  0  0  0  0  0  0  0
  149.5089  141.2685  155.1084 C   0  0  0  0  0  0  0  0  0  0  0  0
  148.5494  140.8506  154.0938 N   0  0  0  0  0  0  0  0  0  0  0  0
  147.4697  141.8146  153.9455 C   0  0  0  0  0  0  0  0  0  0  0  0
  148.0438  139.5223  154.4146 C   0  0  0  0  0  0  0  0  0  0  0  0
  149.1859  138.5050  154.5780 C   0  0  0  0  0  0  0  0  0  0  0  0
  150.0950  138.9652  155.5733 O   0  0  0  0  0  0  0  0  0  0  0  0
  151.4410  143.6962  158.4930 C   0  0  0  0  0  0  0  0  0  0  0  0
  151.9880  145.8740  161.0342 H   0  0  0  0  0  0  0  0  0  0  0  0
  150.4399  145.6753  160.2077 H   0  0  0  0  0  0  0  0  0  0  0  0
  151.8299  146.3397  159.3382 H   0  0  0  0  0  0  0  0  0  0  0  0
  153.1986  143.8082  161.3998 H   0  0  0  0  0  0  0  0  0  0  0  0
  154.4300  141.7447  161.7588 H   0  0  0  0  0  0  0  0  0  0  0  0
  154.9416  140.9942  160.2441 H   0  0  0  0  0  0  0  0  0  0  0  0
  153.5526  140.3474  161.1287 H   0  0  0  0  0  0  0  0  0  0  0  0
  151.2171  140.1649  154.3415 H   0  0  0  0  0  0  0  0  0  0  0  0
  148.9980  141.4031  156.0637 H   0  0  0  0  0  0  0  0  0  0  0  0
  149.9246  142.2406  154.8392 H   0  0  0  0  0  0  0  0  0  0  0  0
  146.7755  141.5002  153.1656 H   0  0  0  0  0  0  0  0  0  0  0  0
  147.8613  142.7935  153.6669 H   0  0  0  0  0  0  0  0  0  0  0  0
  146.9087  141.9247  154.8746 H   0  0  0  0  0  0  0  0  0  0  0  0
  147.4605  139.5605  155.3359 H   0  0  0  0  0  0  0  0  0  0  0  0
  147.3660  139.1845  153.6298 H   0  0  0  0  0  0  0  0  0  0  0  0
  148.7906  137.5342  154.8770 H   0  0  0  0  0  0  0  0  0  0  0  0
  149.7133  138.3602  153.6339 H   0  0  0  0  0  0  0  0  0  0  0  0
  150.7792  144.3198  157.9088 H   0  0  0  0  0  0  0  0  0  0  0  0
  152.9640  140.7196  158.6432 H   0  0  0  0  0  0  0  0  0  0  0  0
  1  2  1  0  0  0  0
  1 19  1  0  0  0  0
  1 20  1  0  0  0  0
  1 21  1  0  0  0  0
  2 18  2  0  0  0  0
  2  3  1  0  0  0  0
  3  4  2  0  0  0  0
  3 22  1  0  0  0  0
  4  5  1  0  0  0  0
  4  6  1  0  0  0  0
  5 23  1  0  0  0  0
  5 24  1  0  0  0  0
  5 25  1  0  0  0  0
  6  7  1  0  0  0  0
  6 37  1  0  0  0  0
  7  8  2  0  0  0  0
  7 18  1  0  0  0  0
  8  9  1  0  0  0  0
  9 10  2  0  0  0  0
  9 11  1  0  0  0  0
 11 17  1  0  0  0  0
 11 12  1  0  0  0  0
 11 26  1  0  0  0  0
 12 13  1  0  0  0  0
 12 27  1  0  0  0  0
 12 28  1  0  0  0  0
 13 14  1  0  0  0  0
 13 15  1  0  0  0  0
 14 29  1  0  0  0  0
 14 30  1  0  0  0  0
 14 31  1  0  0  0  0
 15 16  1  0  0  0  0
 15 32  1  0  0  0  0
 15 33  1  0  0  0  0
 16 17  1  0  0  0  0
 16 34  1  0  0  0  0
 16 35  1  0  0  0  0
 18 36  1  0  0  0  0
M  END
> <s_m_source_file>
AV-unprocessed.smi

> <i_m_source_file_index>
3314

> <i_lp_mmshare_version>
43012

> <i_f3d_flags>
0

> <s_epik_input>
W0NIM11jMVtjSF1jKFtDSDNdKW5jKFtjSF0xKVtOSF1DKD1PKVtDQEBIXTJbQ0gyXU4oW0NIM10pW0NIMl1bQ0gyXU8y

> <s_epik_cmdline>
J2VwaWtfcHl0aG9uJywgJy1waCcsICc3LjAnLCAnLXRuJywgJzgnLCAnLW1hJywgJzIwMCcsICctbWV0YWxfYmluZGluZycsICctaW1hZScsICc8aW5maWxlLm1hZT4nLCAnLW9tYWUnLCAnPG91dGZpbGUubWFlPic=

> <r_epik_Ionization_Penalty>
1.13914

> <r_epik_Ionization_Penalty_Charging>
0.583937

> <r_epik_Ionization_Penalty_Neutral>
0.555199

> <r_epik_State_Penalty>
2.94598

> <r_epik_Charging_Adjusted_Penalty>
3.52991

> <i_epik_Tot_Q>
0

> <i_epik_Tot_abs_Q>
0

> <r_epik_Metal_State_Penalty>
2.95583

> <b_epik_Metal_Only>
1

> <s_lp_Force_Field>
OPLS_2005

> <r_lp_Energy>
39.2006

> <b_lp_Chiralities_Consistent>
1

> <s_lp_Variant>
AV-unprocessed.smi:3314-17

> <Gold.Version>
5.8.1

> <Gold.Id.Protein>
6NUR|6NUR_protein|mol2

> <Gold.PLP.Fitness>
42.7120

> <Gold.PLP.PLP>
-40.0082

> <Gold.PLP.part.hbond>
-1.0000

> <Gold.PLP.part.metal>
0.0000

> <Gold.PLP.part.buried>
-4.3761

> <Gold.PLP.part.nonpolar>
-34.3397

> <Gold.PLP.part.repulsive>
0.3215

> <Gold.PLP.ligand.clash>
0.0000

> <Gold.PLP.ligand.torsion>
0.1482

> <Gold.PLP.Chemscore.Hbond>
1.0000

> <Gold.PLP.Chemscore.CHOScore>
0.0000

> <Gold.PLP.Chemscore.Metal>
0.0000

> <Gold.Chemscore.Hbonds>
donor molecule, donor type, donor heavy atom, donor atom, acceptor molecule, acceptor atom, score
      P1  H  7997  8008       L1    10  1.00

> <Gold.PLP.Chemscore.Internal.Correction>
0.0003

> <Gold.Rescore>
     Score         DG    S(hbond)    S(metal)    S(lipo)     H(rot)  DE(clash)    DE(int)     intcor
     16.03     -17.86       1.00        0.00      99.16       1.00       0.34       1.50       ----

> <Gold.Chemscore.Fitness>
16.0256

> <Gold.Chemscore.DG>
-17.8584

> <Gold.Chemscore.ZeroCoef>
-5.4800

> <Gold.Chemscore.Hbond>
0.9991

> <Gold.Chemscore.Metal>
0.0000

> <Gold.Chemscore.Lipo>
99.1574

> <Gold.Chemscore.Internal_Hbond>
0.0000

> <Gold.Chemscore.DEClash>
0.3375

> <Gold.Chemscore.DEInternal>
1.4953

> <Gold.Chemscore.Rot>
1.0000

> <Gold.Chemscore.Internal.Correction>
   9.000000E+99

> <Gold.Chemscore.Hbonds>
donor molecule, donor type, donor heavy atom, donor atom, acceptor molecule, acceptor atom, score
      P1  H  7997  8008       L1    10  0.98

> <Gold.Chemscore.Hbond.Weighted>
-3.3370

> <Gold.Chemscore.Metal.Weighted>
-0.0000

> <Gold.Chemscore.Lipo.Weighted>
-11.6014

> <Gold.Chemscore.Internal_Hbond.Weighted>
0.0000

> <Gold.Chemscore.DEClash.Weighted>
0.3375

> <Gold.Chemscore.DEInternal.Weighted>
1.4953

> <Gold.Chemscore.Rot.Weighted>
2.5600

> <Gold.Chemscore.Internal.Correction.Weighted>
   9.000000E+99

> <Gold.Protein.RotatedTorsions>
[ 6907 6896 6895 6894 ] final  -50.53 input  -60.11 | X-H torsion
[ 7974 7965 7964 7962 ] final  150.57 input  175.53 | X-H torsion
[ 8008 7997 7996 7995 ] final  -42.77 input   59.86 | X-H torsion
[ 10167 10162 10161 10158 ] final   29.22 input  -65.29 | X-H torsion
[ 10718 10713 10712 10709 ] final  128.90 input   66.30 | X-H torsion
[ 10763 10752 10751 10750 ] final   84.79 input  -60.55 | X-H torsion
[ 11005 11000 10999 10996 ] final    8.47 input  -57.11 | X-H torsion

> <Gold.Protein.ActiveResidues>
 VAL166  LYS551  ARG553  GLY616  TRP617  ASP618  TYR619  PRO620  LYS621  CYS622 
 ASP623  PHE694  ASN695  SER759  ASP760  ASP761  ALA762  ILE779  LEU786  VAL792 
 PHE793  MET794  SER795  GLU796  ALA797  LYS798  CYS799  TRP800  GLU811  SER814 

> <Gold.Protein.RotatedAtoms>
  150.8698  134.8069  159.7145 H   0  0  0  0  0  0  0  0  0  0  0  0  # atno 6907 bound_to 6896
  152.4707  134.4965  159.9721 H   0  0  0  0  0  0  0  0  0  0  0  0  # atno 6908 bound_to 6896
  151.5055  133.3457  159.2911 H   0  0  0  0  0  0  0  0  0  0  0  0  # atno 6909 bound_to 6896
  144.8354  139.6426  143.6040 H   0  0  0  0  0  0  0  0  0  0  0  0  # atno 7974 bound_to 7965
  154.3998  140.1465  156.3409 H   0  0  0  0  0  0  0  0  0  0  0  0  # atno 8008 bound_to 7997
  155.8357  140.3464  155.5579 H   0  0  0  0  0  0  0  0  0  0  0  0  # atno 8009 bound_to 7997
  155.8140  140.0888  157.1878 H   0  0  0  0  0  0  0  0  0  0  0  0  # atno 8010 bound_to 7997
  140.4784  144.0653  150.6258 H   0  0  0  0  0  0  0  0  0  0  0  0  # atno 10167 bound_to 10162
  157.5203  131.1098  150.9164 H   0  0  0  0  0  0  0  0  0  0  0  0  # atno 10718 bound_to 10713
  153.1414  135.4641  154.9501 H   0  0  0  0  0  0  0  0  0  0  0  0  # atno 10763 bound_to 10752
  154.7750  135.3170  154.8113 H   0  0  0  0  0  0  0  0  0  0  0  0  # atno 10764 bound_to 10752
  153.8635  135.6910  153.4835 H   0  0  0  0  0  0  0  0  0  0  0  0  # atno 10765 bound_to 10752
  140.5367  134.0414  155.7890 H   0  0  0  0  0  0  0  0  0  0  0  0  # atno 11005 bound_to 11000
  146.2653  139.6506  142.9333 LP  0  0  0  0  0  0  0  0  0  0  0  0  # atno 17320 bound_to 7965
  145.4805  141.0438  143.2648 LP  0  0  0  0  0  0  0  0  0  0  0  0  # atno 17321 bound_to 7965
  140.3888  143.2763  152.0084 LP  0  0  0  0  0  0  0  0  0  0  0  0  # atno 17342 bound_to 10162
  139.4829  144.6094  151.7461 LP  0  0  0  0  0  0  0  0  0  0  0  0  # atno 17343 bound_to 10162
  156.9777  130.5515  149.5294 LP  0  0  0  0  0  0  0  0  0  0  0  0  # atno 17370 bound_to 10713
  156.0348  130.5437  150.8627 LP  0  0  0  0  0  0  0  0  0  0  0  0  # atno 17371 bound_to 10713
  141.1251  133.9397  157.2652 LP  0  0  0  0  0  0  0  0  0  0  0  0  # atno 17394 bound_to 11000
  139.9525  135.0172  156.9036 LP  0  0  0  0  0  0  0  0  0  0  0  0  # atno 17395 bound_to 11000

$$$$
