AV-unprocessed.smi:72|AV-procd|sdf|757|dock1
  -GOLD-   2262017 93D 1   1.00000     0.00000
 Structure written by MMmdl.
 29 30  0  0  0  0  0  0  0  0  1 V2000
  154.2264  138.3039  154.5328 N   0  0  0  0  0  0  0  0  0  0  0  0
  152.8838  138.5698  154.6999 C   0  0  0  0  0  0  0  0  0  0  0  0
  151.9936  137.5862  154.2478 N   0  0  0  0  0  0  0  0  0  0  0  0
  150.7309  137.8305  154.4021 C   0  0  0  0  0  0  0  0  0  0  0  0
  150.2710  139.0659  155.0147 N   0  0  0  0  0  0  0  0  0  0  0  0
  148.7979  139.3825  155.2048 C   0  0  2  0  0  0  0  0  0  0  0  0
  148.0179  138.2997  154.7828 O   0  0  0  0  0  0  0  0  0  0  0  0
  147.3336  138.6242  153.5751 C   0  0  1  0  0  0  0  0  0  0  0  0
  146.0731  137.7555  153.4442 C   0  0  0  0  0  0  0  0  0  0  0  0
  145.4071  138.0490  152.2344 O   0  0  0  0  0  0  0  0  0  0  0  0
  147.0397  140.1103  153.7760 C   0  0  2  0  0  0  0  0  0  0  0  0
  146.6941  140.7770  152.5760 O   0  0  0  0  0  0  0  0  0  0  0  0
  148.3301  140.6240  154.4080 C   0  0  2  0  0  0  0  0  0  0  0  0
  149.2652  141.0618  153.4330 O   0  0  0  0  0  0  0  0  0  0  0  0
  151.2313  140.0214  155.4469 C   0  0  0  0  0  0  0  0  0  0  0  0
  150.8623  141.0804  155.9549 O   0  0  0  0  0  0  0  0  0  0  0  0
  152.5821  139.7064  155.2591 N   0  0  0  0  0  0  0  0  0  0  0  0
  148.6559  139.4829  156.2821 H   0  0  0  0  0  0  0  0  0  0  0  0
  147.9968  138.4934  152.7177 H   0  0  0  0  0  0  0  0  0  0  0  0
  146.2236  140.2252  154.4912 H   0  0  0  0  0  0  0  0  0  0  0  0
  148.1386  141.4483  155.0957 H   0  0  0  0  0  0  0  0  0  0  0  0
  154.9566  138.9393  154.8198 H   0  0  0  0  0  0  0  0  0  0  0  0
  154.5782  137.4548  154.1153 H   0  0  0  0  0  0  0  0  0  0  0  0
  149.9525  137.1361  154.0860 H   0  0  0  0  0  0  0  0  0  0  0  0
  146.3147  136.6935  153.4976 H   0  0  0  0  0  0  0  0  0  0  0  0
  145.3809  137.9719  154.2585 H   0  0  0  0  0  0  0  0  0  0  0  0
  144.7857  138.7429  152.3936 H   0  0  0  0  0  0  0  0  0  0  0  0
  145.7594  140.7092  152.4547 H   0  0  0  0  0  0  0  0  0  0  0  0
  149.1245  140.5674  152.6398 H   0  0  0  0  0  0  0  0  0  0  0  0
  1  2  1  0  0  0  0
  1 22  1  0  0  0  0
  1 23  1  0  0  0  0
  2 17  2  0  0  0  0
  2  3  1  0  0  0  0
  3  4  2  0  0  0  0
  4  5  1  0  0  0  0
  4 24  1  0  0  0  0
  5  6  1  0  0  0  0
  5 15  1  0  0  0  0
  6 18  1  0  0  0  0
  6 13  1  0  0  0  0
  6  7  1  0  0  0  0
  7  8  1  0  0  0  0
  8 19  1  0  0  0  0
  8  9  1  0  0  0  0
  8 11  1  0  0  0  0
  9 10  1  0  0  0  0
  9 25  1  0  0  0  0
  9 26  1  0  0  0  0
 10 27  1  0  0  0  0
 11 20  1  0  0  0  0
 11 12  1  0  0  0  0
 11 13  1  0  0  0  0
 12 28  1  0  0  0  0
 13 21  1  0  0  0  0
 13 14  1  0  0  0  0
 14 29  1  0  0  0  0
 15 16  2  0  0  0  0
 15 17  1  0  0  0  0
M  END
> <s_m_source_file>
AV-unprocessed.smi

> <i_m_source_file_index>
72

> <i_lp_mmshare_version>
43012

> <i_f3d_flags>
0

> <s_epik_input>
W05IMl1jMW5bY0hdbihjKD1PKW4xKVtDQEBIXTJPW0NASF0oW0NIMl1bT0hdKVtDQEBIXShbT0hdKVtDQEhdMltPSF0=

> <s_epik_cmdline>
J2VwaWtfcHl0aG9uJywgJy1waCcsICc3LjAnLCAnLXRuJywgJzgnLCAnLW1hJywgJzIwMCcsICctbWV0YWxfYmluZGluZycsICctaW1hZScsICc8aW5maWxlLm1hZT4nLCAnLW9tYWUnLCAnPG91dGZpbGUubWFlPic=

> <r_lp_tautomer_probability>
4.77166e-05

> <r_epik_Ionization_Penalty>
1.3546

> <r_epik_Ionization_Penalty_Charging>
1.46833e-10

> <r_epik_Ionization_Penalty_Neutral>
1.3546

> <r_epik_State_Penalty>
3.51908

> <r_epik_Charging_Adjusted_Penalty>
3.51908

> <i_epik_Tot_Q>
0

> <i_epik_Tot_abs_Q>
0

> <r_epik_Metal_State_Penalty>
3.44088

> <b_epik_Metal_Only>
1

> <s_epik_Chemistry_Notes>
This compound contains an acetal/aminal-like group ( X-CH(R)-Y where X, Y are N, S, or O) that may be acid/base labile, releasing an aldehyde.

> <s_lp_Force_Field>
OPLS_2005

> <r_lp_Energy>
34.5765

> <b_lp_Chiralities_Consistent>
1

> <s_lp_Variant>
AV-unprocessed.smi:72-95

> <Gold.Version>
5.8.1

> <Gold.Id.Protein>
6NUR|6NUR_protein|mol2

> <Gold.PLP.Fitness>
44.8733

> <Gold.PLP.PLP>
-27.7014

> <Gold.PLP.part.hbond>
-9.0198

> <Gold.PLP.part.metal>
0.0000

> <Gold.PLP.part.buried>
-4.6147

> <Gold.PLP.part.nonpolar>
-16.9206

> <Gold.PLP.part.repulsive>
0.9236

> <Gold.PLP.ligand.clash>
0.0000

> <Gold.PLP.ligand.torsion>
0.0378

> <Gold.PLP.Chemscore.Hbond>
4.7278

> <Gold.PLP.Chemscore.CHOScore>
1.0000

> <Gold.PLP.Chemscore.Metal>
0.0000

> <Gold.Chemscore.Hbonds>
donor molecule, donor type, donor heavy atom, donor atom, acceptor molecule, acceptor atom, score
      L1  H    10    27       P1 10175  0.98
      L1  H    12    28       P1 10175  0.89
      L1  H    14    29       P1  7957  1.00
      P1  H  7989  7998       L1    14  0.05
      P1  H  7997  8008       L1    17  0.95
      P1  H  8011  8017       L1    14  0.25
      P1  H 10752 10764       L1     3  0.56
      L1  C     4    24       P1  7948  0.91

> <Gold.PLP.Chemscore.Internal.Correction>
0.0641

> <Gold.Rescore>
     Score         DG    S(hbond)    S(metal)    S(lipo)     H(rot)  DE(clash)    DE(int)     intcor
      7.06      -8.23       3.23        0.00      20.06       4.06       0.94       0.24       ----

> <Gold.Chemscore.Fitness>
7.0581

> <Gold.Chemscore.DG>
-8.2323

> <Gold.Chemscore.ZeroCoef>
-5.4800

> <Gold.Chemscore.Hbond>
3.2332

> <Gold.Chemscore.Metal>
0.0000

> <Gold.Chemscore.Lipo>
20.0591

> <Gold.Chemscore.Internal_Hbond>
0.0000

> <Gold.Chemscore.DEClash>
0.9365

> <Gold.Chemscore.DEInternal>
0.2376

> <Gold.Chemscore.Rot>
4.0600

> <Gold.Chemscore.Internal.Correction>
   9.000000E+99

> <Gold.Chemscore.Hbonds>
donor molecule, donor type, donor heavy atom, donor atom, acceptor molecule, acceptor atom, score
      L1  H    10    27       P1 10175  0.92
      L1  H    12    28       P1 10175  0.22
      L1  H    14    29       P1  7957  0.95
      P1  H  7989  7998       L1    14  0.01
      P1  H  7997  8008       L1    17  0.20
      P1  H 10752 10764       L1     3  0.38

> <Gold.Chemscore.Hbond.Weighted>
-10.7990

> <Gold.Chemscore.Metal.Weighted>
-0.0000

> <Gold.Chemscore.Lipo.Weighted>
-2.3469

> <Gold.Chemscore.Internal_Hbond.Weighted>
0.0000

> <Gold.Chemscore.DEClash.Weighted>
0.9365

> <Gold.Chemscore.DEInternal.Weighted>
0.2376

> <Gold.Chemscore.Rot.Weighted>
10.3936

> <Gold.Chemscore.Internal.Correction.Weighted>
   9.000000E+99

> <Gold.Protein.RotatedTorsions>
[ 6907 6896 6895 6894 ] final  174.24 input  -60.11 | X-H torsion
[ 7974 7965 7964 7962 ] final  -83.60 input  175.53 | X-H torsion
[ 8008 7997 7996 7995 ] final  -26.74 input   59.86 | X-H torsion
[ 10167 10162 10161 10158 ] final  -77.36 input  -65.29 | X-H torsion
[ 10718 10713 10712 10709 ] final -118.17 input   66.30 | X-H torsion
[ 10763 10752 10751 10750 ] final  -97.08 input  -60.55 | X-H torsion
[ 11005 11000 10999 10996 ] final  -22.27 input  -57.11 | X-H torsion

> <Gold.Protein.ActiveResidues>
 VAL166  LYS551  ARG553  GLY616  TRP617  ASP618  TYR619  PRO620  LYS621  CYS622 
 ASP623  PHE694  ASN695  SER759  ASP760  ASP761  ALA762  ILE779  LEU786  VAL792 
 PHE793  MET794  SER795  GLU796  ALA797  LYS798  CYS799  TRP800  GLU811  SER814 

> <Gold.Protein.RotatedAtoms>
  151.7555  133.3330  159.3402 H   0  0  0  0  0  0  0  0  0  0  0  0  # atno 6907 bound_to 6896
  150.7518  134.6154  159.6117 H   0  0  0  0  0  0  0  0  0  0  0  0  # atno 6908 bound_to 6896
  152.3440  134.7098  160.0307 H   0  0  0  0  0  0  0  0  0  0  0  0  # atno 6909 bound_to 6896
  145.5178  140.9534  143.1672 H   0  0  0  0  0  0  0  0  0  0  0  0  # atno 7974 bound_to 7965
  154.4410  140.1891  156.0823 H   0  0  0  0  0  0  0  0  0  0  0  0  # atno 8008 bound_to 7997
  156.0429  140.3317  155.7238 H   0  0  0  0  0  0  0  0  0  0  0  0  # atno 8009 bound_to 7997
  155.5672  140.0609  157.2806 H   0  0  0  0  0  0  0  0  0  0  0  0  # atno 8010 bound_to 7997
  140.4777  143.2410  151.8107 H   0  0  0  0  0  0  0  0  0  0  0  0  # atno 10167 bound_to 10162
  156.1087  130.6231  150.9258 H   0  0  0  0  0  0  0  0  0  0  0  0  # atno 10718 bound_to 10713
  154.7297  135.5059  153.8943 H   0  0  0  0  0  0  0  0  0  0  0  0  # atno 10763 bound_to 10752
  153.0938  135.6666  153.9811 H   0  0  0  0  0  0  0  0  0  0  0  0  # atno 10764 bound_to 10752
  153.9616  135.3047  155.3412 H   0  0  0  0  0  0  0  0  0  0  0  0  # atno 10765 bound_to 10752
  140.8641  133.7767  156.0108 H   0  0  0  0  0  0  0  0  0  0  0  0  # atno 11005 bound_to 11000
  144.7692  139.6774  143.7202 LP  0  0  0  0  0  0  0  0  0  0  0  0  # atno 17320 bound_to 7965
  146.2125  139.5492  142.9671 LP  0  0  0  0  0  0  0  0  0  0  0  0  # atno 17321 bound_to 7965
  139.4828  144.4812  151.9303 LP  0  0  0  0  0  0  0  0  0  0  0  0  # atno 17342 bound_to 10162
  140.3898  144.2630  150.5900 LP  0  0  0  0  0  0  0  0  0  0  0  0  # atno 17343 bound_to 10162
  157.6266  131.0925  150.8521 LP  0  0  0  0  0  0  0  0  0  0  0  0  # atno 17370 bound_to 10713
  156.8636  130.5121  149.5302 LP  0  0  0  0  0  0  0  0  0  0  0  0  # atno 17371 bound_to 10713
  140.8649  134.2796  157.5217 LP  0  0  0  0  0  0  0  0  0  0  0  0  # atno 17394 bound_to 11000
  139.8708  134.9537  156.4155 LP  0  0  0  0  0  0  0  0  0  0  0  0  # atno 17395 bound_to 11000

$$$$
