AV-unprocessed.smi:2226|AV-procd|sdf|9009|dock8
  -GOLD-   2272012213D 1   1.00000     0.00000
 Structure written by MMmdl.
 40 42  0  0  0  0  0  0  0  0  2 V2000
  145.6857  140.1208  155.4104 C   0  0  0  0  0  0  0  0  0  0  0  0
  145.6773  139.3411  154.1497 N   0  3  2  0  0  0  0  0  0  0  0  0
  144.9016  138.0790  154.2031 C   0  0  2  0  0  0  0  0  0  0  0  0
  145.6030  137.0197  155.0900 C   0  0  0  0  0  0  0  0  0  0  0  0
  147.0839  136.7845  154.7410 C   0  0  0  0  0  0  0  0  0  0  0  0
  147.8318  138.0893  154.4146 C   0  0  0  0  0  0  0  0  0  0  0  0
  147.0150  139.0918  153.5615 C   0  0  1  0  0  0  0  0  0  0  0  0
  146.8480  138.7063  152.0730 C   0  0  0  0  0  0  0  0  0  0  0  0
  145.7730  137.6257  151.7715 C   0  0  1  0  0  0  0  0  0  0  0  0
  146.3377  136.2876  151.6130 N   0  0  0  0  0  0  0  0  0  0  0  0
  145.6636  135.1721  151.2933 C   0  0  0  0  0  0  0  0  0  0  0  0
  144.4444  135.1870  151.0965 O   0  0  0  0  0  0  0  0  0  0  0  0
  146.5380  134.0989  151.2117 N   0  0  0  0  0  0  0  0  0  0  0  0
  146.0645  132.8957  151.1081 C   0  0  0  0  0  0  0  0  0  0  0  0
  146.7767  131.7096  151.0290 N   0  0  0  0  0  0  0  0  0  0  0  0
  145.8807  130.6813  150.9251 C   0  0  0  0  0  0  0  0  0  0  0  0
  144.6551  131.1974  150.9361 C   0  0  0  0  0  0  0  0  0  0  0  0
  144.7333  132.5528  151.0461 O   0  0  0  0  0  0  0  0  0  0  0  0
  144.5792  137.6249  152.7603 C   0  0  0  0  0  0  0  0  0  0  0  0
  146.1860  139.5913  156.2207 H   0  0  0  0  0  0  0  0  0  0  0  0
  144.6660  140.3388  155.7287 H   0  0  0  0  0  0  0  0  0  0  0  0
  146.1951  141.0736  155.2645 H   0  0  0  0  0  0  0  0  0  0  0  0
  143.9417  138.2994  154.6728 H   0  0  0  0  0  0  0  0  0  0  0  0
  145.5445  137.3419  156.1300 H   0  0  0  0  0  0  0  0  0  0  0  0
  145.0593  136.0754  155.0497 H   0  0  0  0  0  0  0  0  0  0  0  0
  147.5770  136.2834  155.5744 H   0  0  0  0  0  0  0  0  0  0  0  0
  147.1724  136.0838  153.9177 H   0  0  0  0  0  0  0  0  0  0  0  0
  148.1061  138.5708  155.3535 H   0  0  0  0  0  0  0  0  0  0  0  0
  148.7769  137.8592  153.9214 H   0  0  0  0  0  0  0  0  0  0  0  0
  147.5625  140.0354  153.5712 H   0  0  0  0  0  0  0  0  0  0  0  0
  146.5451  139.6113  151.5446 H   0  0  0  0  0  0  0  0  0  0  0  0
  147.8127  138.4401  151.6394 H   0  0  0  0  0  0  0  0  0  0  0  0
  145.3481  137.8664  150.7947 H   0  0  0  0  0  0  0  0  0  0  0  0
  147.3335  136.1993  151.7562 H   0  0  0  0  0  0  0  0  0  0  0  0
  147.7778  131.5781  151.0403 H   0  0  0  0  0  0  0  0  0  0  0  0
  146.2258  129.6605  150.8521 H   0  0  0  0  0  0  0  0  0  0  0  0
  143.6716  130.7554  150.8762 H   0  0  0  0  0  0  0  0  0  0  0  0
  144.0777  136.6560  152.7662 H   0  0  0  0  0  0  0  0  0  0  0  0
  143.8379  138.3226  152.3680 H   0  0  0  0  0  0  0  0  0  0  0  0
  145.1939  139.9307  153.4872 H   0  0  0  0  0  0  0  0  0  0  0  0
  1  2  1  0  0  0  0
  1 20  1  0  0  0  0
  1 21  1  0  0  0  0
  1 22  1  0  0  0  0
  2  7  1  0  0  0  0
  2  3  1  0  0  0  0
  2 40  1  0  0  0  0
  3 19  1  0  0  0  0
  3  4  1  0  0  0  0
  3 23  1  0  0  0  0
  4  5  1  0  0  0  0
  4 24  1  0  0  0  0
  4 25  1  0  0  0  0
  5  6  1  0  0  0  0
  5 26  1  0  0  0  0
  5 27  1  0  0  0  0
  6  7  1  0  0  0  0
  6 28  1  0  0  0  0
  6 29  1  0  0  0  0
  7  8  1  0  0  0  0
  7 30  1  0  0  0  0
  8  9  1  0  0  0  0
  8 31  1  0  0  0  0
  8 32  1  0  0  0  0
  9 10  1  0  0  0  0
  9 19  1  0  0  0  0
  9 33  1  0  0  0  0
 10 34  1  0  0  0  0
 10 11  1  0  0  0  0
 11 13  1  0  0  0  0
 11 12  2  0  0  0  0
 13 14  2  0  0  0  0
 14 18  1  0  0  0  0
 14 15  1  0  0  0  0
 15 35  1  0  0  0  0
 15 16  1  0  0  0  0
 16 36  1  0  0  0  0
 16 17  2  0  0  0  0
 17 37  1  0  0  0  0
 17 18  1  0  0  0  0
 19 38  1  0  0  0  0
 19 39  1  0  0  0  0
M  CHG  1   2   1
M  END
> <s_m_source_file>
AV-unprocessed.smi

> <i_m_source_file_index>
2226

> <i_lp_mmshare_version>
43012

> <i_f3d_flags>
0

> <s_epik_input>
W0NIMl0xW0NIMl1bQ0gyXVtDQEhdKE4oW0NIM10pW0NIXTEyKVtDSDJdW0NASF0oW0NIMl0yKVtOSF1DKD1PKVtOSF1jM25bY0hdW2NIXW8z

> <s_epik_cmdline>
J2VwaWtfcHl0aG9uJywgJy1waCcsICc3LjAnLCAnLXRuJywgJzgnLCAnLW1hJywgJzIwMCcsICctbWV0YWxfYmluZGluZycsICctaW1hZScsICc8aW5maWxlLm1hZT4nLCAnLW9tYWUnLCAnPG91dGZpbGUubWFlPic=

> <r_lp_tautomer_probability>
0.107061

> <r_epik_Ionization_Penalty>
1.08307

> <r_epik_Ionization_Penalty_Charging>
1.08272

> <r_epik_Ionization_Penalty_Neutral>
0.000345913

> <r_epik_State_Penalty>
2.5744

> <r_epik_Charging_Adjusted_Penalty>
3.65713

> <i_epik_Tot_Q>
1

> <i_epik_Tot_abs_Q>
1

> <r_epik_Metal_State_Penalty>
3.72133

> <b_epik_Metal_Only>
0

> <s_lp_Force_Field>
OPLS_2005

> <r_lp_Energy>
58.5529

> <b_lp_Chiralities_Consistent>
1

> <s_lp_Variant>
AV-unprocessed.smi:2226-9

> <Gold.Version>
5.8.1

> <Gold.Id.Protein>
6NUR|6NUR_protein|mol2

> <Gold.PLP.Fitness>
35.1426

> <Gold.PLP.PLP>
-23.5139

> <Gold.PLP.part.hbond>
-2.8904

> <Gold.PLP.part.metal>
0.0000

> <Gold.PLP.part.buried>
-0.2388

> <Gold.PLP.part.nonpolar>
-20.6586

> <Gold.PLP.part.repulsive>
0.6190

> <Gold.PLP.ligand.clash>
0.0000

> <Gold.PLP.ligand.torsion>
0.0558

> <Gold.PLP.Chemscore.Hbond>
3.8960

> <Gold.PLP.Chemscore.CHOScore>
0.0000

> <Gold.PLP.Chemscore.Metal>
0.0000

> <Gold.Chemscore.Hbonds>
donor molecule, donor type, donor heavy atom, donor atom, acceptor molecule, acceptor atom, score
      L1  H     2    40       P1 10175  2.00
      L1  H    10    34       P1  7948  1.00
      L1  H    15    35       P1 10747  0.86

> <Gold.PLP.Chemscore.Internal.Correction>
0.0522

> <Gold.Rescore>
     Score         DG    S(hbond)    S(metal)    S(lipo)     H(rot)  DE(clash)    DE(int)     intcor
     16.37     -19.35       2.93        0.00      56.66       1.00       1.28       1.69       ----

> <Gold.Chemscore.Fitness>
16.3726

> <Gold.Chemscore.DG>
-19.3457

> <Gold.Chemscore.ZeroCoef>
-5.4800

> <Gold.Chemscore.Hbond>
2.9332

> <Gold.Chemscore.Metal>
0.0000

> <Gold.Chemscore.Lipo>
56.6561

> <Gold.Chemscore.Internal_Hbond>
0.0000

> <Gold.Chemscore.DEClash>
1.2843

> <Gold.Chemscore.DEInternal>
1.6888

> <Gold.Chemscore.Rot>
1.0000

> <Gold.Chemscore.Internal.Correction>
   9.000000E+99

> <Gold.Chemscore.Hbonds>
donor molecule, donor type, donor heavy atom, donor atom, acceptor molecule, acceptor atom, score
      L1  H     2    40       P1 10175  0.97
      L1  H    10    34       P1  7948  0.98
      L1  H    15    35       P1 10747  0.83

> <Gold.Chemscore.Hbond.Weighted>
-9.7970

> <Gold.Chemscore.Metal.Weighted>
-0.0000

> <Gold.Chemscore.Lipo.Weighted>
-6.6288

> <Gold.Chemscore.Internal_Hbond.Weighted>
0.0000

> <Gold.Chemscore.DEClash.Weighted>
1.2843

> <Gold.Chemscore.DEInternal.Weighted>
1.6888

> <Gold.Chemscore.Rot.Weighted>
2.5600

> <Gold.Chemscore.Internal.Correction.Weighted>
   9.000000E+99

> <Gold.Protein.RotatedTorsions>
[ 6907 6896 6895 6894 ] final -157.14 input  -60.11 | X-H torsion
[ 7974 7965 7964 7962 ] final  -57.45 input  175.53 | X-H torsion
[ 8008 7997 7996 7995 ] final   26.64 input   59.86 | X-H torsion
[ 10167 10162 10161 10158 ] final  147.32 input  -65.29 | X-H torsion
[ 10718 10713 10712 10709 ] final -165.66 input   66.30 | X-H torsion
[ 10763 10752 10751 10750 ] final -154.88 input  -60.55 | X-H torsion
[ 11005 11000 10999 10996 ] final -103.40 input  -57.11 | X-H torsion

> <Gold.Protein.ActiveResidues>
 VAL166  LYS551  ARG553  GLY616  TRP617  ASP618  TYR619  PRO620  LYS621  CYS622 
 ASP623  PHE694  ASN695  SER759  ASP760  ASP761  ALA762  ILE779  LEU786  VAL792 
 PHE793  MET794  SER795  GLU796  ALA797  LYS798  CYS799  TRP800  GLU811  SER814 

> <Gold.Protein.RotatedAtoms>
  151.2983  133.4134  159.2637 H   0  0  0  0  0  0  0  0  0  0  0  0  # atno 6907 bound_to 6896
  151.0218  134.9475  159.8074 H   0  0  0  0  0  0  0  0  0  0  0  0  # atno 6908 bound_to 6896
  152.5326  134.2945  159.9108 H   0  0  0  0  0  0  0  0  0  0  0  0  # atno 6909 bound_to 6896
  145.8509  140.8353  142.9986 H   0  0  0  0  0  0  0  0  0  0  0  0  # atno 7974 bound_to 7965
  155.0305  140.3158  155.4760 H   0  0  0  0  0  0  0  0  0  0  0  0  # atno 8008 bound_to 7997
  156.2875  140.2181  156.5369 H   0  0  0  0  0  0  0  0  0  0  0  0  # atno 8009 bound_to 7997
  154.7374  140.0476  157.0769 H   0  0  0  0  0  0  0  0  0  0  0  0  # atno 8010 bound_to 7997
  139.4892  144.5764  151.6956 H   0  0  0  0  0  0  0  0  0  0  0  0  # atno 10167 bound_to 10162
  156.6566  130.9029  151.3022 H   0  0  0  0  0  0  0  0  0  0  0  0  # atno 10718 bound_to 10713
  154.7827  135.3180  154.7954 H   0  0  0  0  0  0  0  0  0  0  0  0  # atno 10763 bound_to 10752
  153.8661  135.6848  153.4782 H   0  0  0  0  0  0  0  0  0  0  0  0  # atno 10764 bound_to 10752
  153.1469  135.4716  154.9517 H   0  0  0  0  0  0  0  0  0  0  0  0  # atno 10765 bound_to 10752
  141.1147  133.8637  157.1482 H   0  0  0  0  0  0  0  0  0  0  0  0  # atno 11005 bound_to 11000
  144.6729  140.0951  143.7463 LP  0  0  0  0  0  0  0  0  0  0  0  0  # atno 17320 bound_to 7965
  145.9359  139.2637  143.1297 LP  0  0  0  0  0  0  0  0  0  0  0  0  # atno 17321 bound_to 7965
  140.5361  144.0653  150.6071 LP  0  0  0  0  0  0  0  0  0  0  0  0  # atno 17342 bound_to 10162
  140.3659  143.2881  152.0332 LP  0  0  0  0  0  0  0  0  0  0  0  0  # atno 17343 bound_to 10162
  157.7123  130.9455  150.1134 LP  0  0  0  0  0  0  0  0  0  0  0  0  # atno 17370 bound_to 10713
  156.2043  130.3662  149.8749 LP  0  0  0  0  0  0  0  0  0  0  0  0  # atno 17371 bound_to 10713
  140.0062  135.0007  157.0297 LP  0  0  0  0  0  0  0  0  0  0  0  0  # atno 17394 bound_to 11000
  140.4679  134.1417  155.7199 LP  0  0  0  0  0  0  0  0  0  0  0  0  # atno 17395 bound_to 11000

$$$$
