AV-unprocessed.smi:254|AV-procd|sdf|1946|dock8
  -GOLD-   2262021 83D 1   1.00000     0.00000
 Structure written by MMmdl.
 50 53  0  0  0  0  0  0  0  0  1 V2000
  154.5786  141.7703  162.7141 O   0  0  0  0  0  0  0  0  0  0  0  0
  154.1285  141.3930  161.6334 C   0  0  0  0  0  0  0  0  0  0  0  0
  152.9064  142.0144  160.9822 C   0  0  0  0  0  0  0  0  0  0  0  0
  152.8077  141.2357  159.7537 N   0  0  0  0  0  0  0  0  0  0  0  0
  151.8707  141.4701  158.7990 C   0  0  0  0  0  0  0  0  0  0  0  0
  150.9772  142.4718  159.0112 N   0  0  0  0  0  0  0  0  0  0  0  0
  150.0331  142.7441  158.1068 C   0  0  0  0  0  0  0  0  0  0  0  0
  149.8054  142.1490  156.9358 N   0  0  0  0  0  0  0  0  0  0  0  0
  150.6979  141.1435  156.7095 C   0  0  0  0  0  0  0  0  0  0  0  0
  151.7502  140.7366  157.5806 C   0  0  0  0  0  0  0  0  0  0  0  0
  152.4367  139.6710  157.0089 N   0  0  0  0  0  0  0  0  0  0  0  0
  151.8287  139.4622  155.8742 C   0  0  0  0  0  0  0  0  0  0  0  0
  150.7812  140.3127  155.6043 N   0  0  0  0  0  0  0  0  0  0  0  0
  149.9324  140.3098  154.4208 C   0  0  0  0  0  0  0  0  0  0  0  0
  148.4106  140.3958  154.7215 C   0  0  1  0  0  0  0  0  0  0  0  0
  147.7496  141.6266  154.0574 C   0  0  0  0  0  0  0  0  0  0  0  0
  148.5602  142.7743  154.1966 O   0  0  0  0  0  0  0  0  0  0  0  0
  147.6608  139.0875  154.3554 C   0  0  2  0  0  0  0  0  0  0  0  0
  147.3844  138.8973  152.8732 C   0  0  0  0  0  0  0  0  0  0  0  0
  146.2744  137.8512  152.8766 C   0  0  0  0  0  0  0  0  0  0  0  0
  145.5484  138.0600  154.0823 O   0  0  0  0  0  0  0  0  0  0  0  0
  146.2318  139.0004  154.9032 C   0  0  0  0  0  0  0  0  0  0  0  0
  153.8682  140.2450  159.6336 C   0  0  0  0  0  0  0  0  0  0  0  0
  154.6196  140.4129  160.8665 N   0  0  0  0  0  0  0  0  0  0  0  0
  155.7963  139.5922  161.1434 C   0  0  0  0  0  0  0  0  0  0  0  0
  155.6411  138.7574  162.4269 C   0  0  0  0  0  0  0  0  0  0  0  0
  154.4849  138.0972  162.3770 F   0  0  0  0  0  0  0  0  0  0  0  0
  156.6287  137.8705  162.5487 F   0  0  0  0  0  0  0  0  0  0  0  0
  155.6307  139.5515  163.4975 F   0  0  0  0  0  0  0  0  0  0  0  0
  152.0240  141.8892  161.6104 H   0  0  0  0  0  0  0  0  0  0  0  0
  153.0713  143.0733  160.7787 H   0  0  0  0  0  0  0  0  0  0  0  0
  149.3656  143.5555  158.3572 H   0  0  0  0  0  0  0  0  0  0  0  0
  152.1359  138.6775  155.1991 H   0  0  0  0  0  0  0  0  0  0  0  0
  150.2436  141.1323  153.7770 H   0  0  0  0  0  0  0  0  0  0  0  0
  150.1477  139.4052  153.8513 H   0  0  0  0  0  0  0  0  0  0  0  0
  148.3119  140.5252  155.8005 H   0  0  0  0  0  0  0  0  0  0  0  0
  147.5437  141.4495  153.0018 H   0  0  0  0  0  0  0  0  0  0  0  0
  146.7953  141.8580  154.5288 H   0  0  0  0  0  0  0  0  0  0  0  0
  148.7404  142.9041  155.1158 H   0  0  0  0  0  0  0  0  0  0  0  0
  148.2277  138.2235  154.7043 H   0  0  0  0  0  0  0  0  0  0  0  0
  147.0206  139.8259  152.4306 H   0  0  0  0  0  0  0  0  0  0  0  0
  148.2568  138.5682  152.3082 H   0  0  0  0  0  0  0  0  0  0  0  0
  145.6280  137.9283  152.0021 H   0  0  0  0  0  0  0  0  0  0  0  0
  146.6980  136.8465  152.8977 H   0  0  0  0  0  0  0  0  0  0  0  0
  146.1949  138.6996  155.9496 H   0  0  0  0  0  0  0  0  0  0  0  0
  145.7253  139.9626  154.8138 H   0  0  0  0  0  0  0  0  0  0  0  0
  153.4613  139.2351  159.5665 H   0  0  0  0  0  0  0  0  0  0  0  0
  154.5008  140.4450  158.7675 H   0  0  0  0  0  0  0  0  0  0  0  0
  155.9727  138.9297  160.2949 H   0  0  0  0  0  0  0  0  0  0  0  0
  156.6775  140.2316  161.2173 H   0  0  0  0  0  0  0  0  0  0  0  0
  1  2  2  0  0  0  0
  2 24  1  0  0  0  0
  2  3  1  0  0  0  0
  3  4  1  0  0  0  0
  3 30  1  0  0  0  0
  3 31  1  0  0  0  0
  4  5  1  0  0  0  0
  4 23  1  0  0  0  0
  5 10  1  0  0  0  0
  5  6  2  0  0  0  0
  6  7  1  0  0  0  0
  7  8  2  0  0  0  0
  7 32  1  0  0  0  0
  8  9  1  0  0  0  0
  9 13  1  0  0  0  0
  9 10  2  0  0  0  0
 10 11  1  0  0  0  0
 11 12  2  0  0  0  0
 12 13  1  0  0  0  0
 12 33  1  0  0  0  0
 13 14  1  0  0  0  0
 14 15  1  0  0  0  0
 14 34  1  0  0  0  0
 14 35  1  0  0  0  0
 15 16  1  0  0  0  0
 15 18  1  0  0  0  0
 15 36  1  0  0  0  0
 16 17  1  0  0  0  0
 16 37  1  0  0  0  0
 16 38  1  0  0  0  0
 17 39  1  0  0  0  0
 18 22  1  0  0  0  0
 18 19  1  0  0  0  0
 18 40  1  0  0  0  0
 19 20  1  0  0  0  0
 19 41  1  0  0  0  0
 19 42  1  0  0  0  0
 20 21  1  0  0  0  0
 20 43  1  0  0  0  0
 20 44  1  0  0  0  0
 21 22  1  0  0  0  0
 22 45  1  0  0  0  0
 22 46  1  0  0  0  0
 23 24  1  0  0  0  0
 23 47  1  0  0  0  0
 23 48  1  0  0  0  0
 24 25  1  0  0  0  0
 25 26  1  0  0  0  0
 25 49  1  0  0  0  0
 25 50  1  0  0  0  0
 26 27  1  0  0  0  0
 26 28  1  0  0  0  0
 26 29  1  0  0  0  0
M  END
> <s_m_source_file>
AV-unprocessed.smi

> <i_m_source_file_index>
254

> <i_lp_mmshare_version>
43012

> <i_f3d_flags>
0

> <s_epik_input>
RkMoRikoRilbQ0gyXU4xW0NIMl1OKFtDSDJdQzE9TyljKG5bY0hdbjIpYyhjMjMpbltjSF1uM1tDSDJdW0NASF0oW0NIMl1bT0hdKVtDQEBIXTRbQ0gyXVtDSDJdT1tDSDJdNA==

> <s_epik_cmdline>
J2VwaWtfcHl0aG9uJywgJy1waCcsICc3LjAnLCAnLXRuJywgJzgnLCAnLW1hJywgJzIwMCcsICctbWV0YWxfYmluZGluZycsICctaW1hZScsICc8aW5maWxlLm1hZT4nLCAnLW9tYWUnLCAnPG91dGZpbGUubWFlPic=

> <r_lp_tautomer_probability>
1

> <r_epik_Ionization_Penalty>
0.000292924

> <r_epik_Ionization_Penalty_Charging>
0

> <r_epik_Ionization_Penalty_Neutral>
0.000292924

> <r_epik_State_Penalty>
-0

> <r_epik_Charging_Adjusted_Penalty>
0

> <i_epik_Tot_Q>
0

> <i_epik_Tot_abs_Q>
0

> <r_epik_Metal_State_Penalty>
-0

> <b_epik_Metal_Only>
0

> <s_epik_Chemistry_Notes>
This compound contains an acetal/aminal-like group ( X-CH(R)-Y where X, Y are N, S, or O) that may be acid/base labile, releasing an aldehyde.

> <s_lp_Force_Field>
OPLS_2005

> <r_lp_Energy>
38.5559

> <b_lp_Chiralities_Consistent>
1

> <s_lp_Variant>
AV-unprocessed.smi:254-2

> <Gold.Version>
5.8.1

> <Gold.Id.Protein>
6NUR|6NUR_protein|mol2

> <Gold.PLP.Fitness>
52.9667

> <Gold.PLP.PLP>
-48.1142

> <Gold.PLP.part.hbond>
-4.3602

> <Gold.PLP.part.metal>
0.0000

> <Gold.PLP.part.buried>
0.5180

> <Gold.PLP.part.nonpolar>
-43.6851

> <Gold.PLP.part.repulsive>
1.4110

> <Gold.PLP.ligand.clash>
0.0000

> <Gold.PLP.ligand.torsion>
1.2061

> <Gold.PLP.Chemscore.Hbond>
2.2793

> <Gold.PLP.Chemscore.CHOScore>
0.0049

> <Gold.PLP.Chemscore.Metal>
0.0000

> <Gold.Chemscore.Hbonds>
donor molecule, donor type, donor heavy atom, donor atom, acceptor molecule, acceptor atom, score
      L1  H    17    39       P1  8028  0.27
      P1  H  7997  8010       L1    11  1.00
      P1  H  8022  8030       L1    17  0.82

> <Gold.PLP.Chemscore.Internal.Correction>
0.4122

> <Gold.Rescore>
     Score         DG    S(hbond)    S(metal)    S(lipo)     H(rot)  DE(clash)    DE(int)     intcor
      4.22      -8.61       1.22        0.00      64.11       3.30       0.98       3.41       ----

> <Gold.Chemscore.Fitness>
4.2172

> <Gold.Chemscore.DG>
-8.6095

> <Gold.Chemscore.ZeroCoef>
-5.4800

> <Gold.Chemscore.Hbond>
1.2187

> <Gold.Chemscore.Metal>
0.0000

> <Gold.Chemscore.Lipo>
64.1073

> <Gold.Chemscore.Internal_Hbond>
0.0000

> <Gold.Chemscore.DEClash>
0.9792

> <Gold.Chemscore.DEInternal>
3.4131

> <Gold.Chemscore.Rot>
3.2974

> <Gold.Chemscore.Internal.Correction>
   9.000000E+99

> <Gold.Chemscore.Hbonds>
donor molecule, donor type, donor heavy atom, donor atom, acceptor molecule, acceptor atom, score
      L1  H    17    39       P1  8028  0.28
      P1  H  7997  8010       L1    11  0.56
      P1  H  8022  8030       L1    17  0.15

> <Gold.Chemscore.Hbond.Weighted>
-4.0704

> <Gold.Chemscore.Metal.Weighted>
-0.0000

> <Gold.Chemscore.Lipo.Weighted>
-7.5005

> <Gold.Chemscore.Internal_Hbond.Weighted>
0.0000

> <Gold.Chemscore.DEClash.Weighted>
0.9792

> <Gold.Chemscore.DEInternal.Weighted>
3.4131

> <Gold.Chemscore.Rot.Weighted>
8.4414

> <Gold.Chemscore.Internal.Correction.Weighted>
   9.000000E+99

> <Gold.Protein.RotatedTorsions>
[ 6907 6896 6895 6894 ] final   97.44 input  -60.11 | X-H torsion
[ 7974 7965 7964 7962 ] final -119.38 input  175.53 | X-H torsion
[ 8008 7997 7996 7995 ] final   58.59 input   59.86 | X-H torsion
[ 10167 10162 10161 10158 ] final -134.30 input  -65.29 | X-H torsion
[ 10718 10713 10712 10709 ] final   56.86 input   66.30 | X-H torsion
[ 10763 10752 10751 10750 ] final  105.77 input  -60.55 | X-H torsion
[ 11005 11000 10999 10996 ] final  -99.50 input  -57.11 | X-H torsion

> <Gold.Protein.ActiveResidues>
 VAL166  LYS551  ARG553  GLY616  TRP617  ASP618  TYR619  PRO620  LYS621  CYS622 
 ASP623  PHE694  ASN695  SER759  ASP760  ASP761  ALA762  ILE779  LEU786  VAL792 
 PHE793  MET794  SER795  GLU796  ALA797  LYS798  CYS799  TRP800  GLU811  SER814 

> <Gold.Protein.RotatedAtoms>
  152.5423  134.0733  159.8203 H   0  0  0  0  0  0  0  0  0  0  0  0  # atno 6907 bound_to 6896
  151.0844  133.5357  159.2626 H   0  0  0  0  0  0  0  0  0  0  0  0  # atno 6908 bound_to 6896
  151.2172  135.0513  159.8989 H   0  0  0  0  0  0  0  0  0  0  0  0  # atno 6909 bound_to 6896
  145.0632  140.8305  143.4140 H   0  0  0  0  0  0  0  0  0  0  0  0  # atno 7974 bound_to 7965
  155.5524  140.3486  155.4472 H   0  0  0  0  0  0  0  0  0  0  0  0  # atno 8008 bound_to 7997
  156.0573  140.1332  157.0007 H   0  0  0  0  0  0  0  0  0  0  0  0  # atno 8009 bound_to 7997
  154.4463  140.0992  156.6450 H   0  0  0  0  0  0  0  0  0  0  0  0  # atno 8010 bound_to 7997
  139.8895  143.6740  152.2614 H   0  0  0  0  0  0  0  0  0  0  0  0  # atno 10167 bound_to 10162
  157.5466  130.8736  149.8901 H   0  0  0  0  0  0  0  0  0  0  0  0  # atno 10718 bound_to 10713
  153.3839  135.3899  155.1876 H   0  0  0  0  0  0  0  0  0  0  0  0  # atno 10763 bound_to 10752
  154.8711  135.3732  154.4822 H   0  0  0  0  0  0  0  0  0  0  0  0  # atno 10764 bound_to 10752
  153.5302  135.7086  153.5748 H   0  0  0  0  0  0  0  0  0  0  0  0  # atno 10765 bound_to 10752
  141.1306  133.8326  157.0979 H   0  0  0  0  0  0  0  0  0  0  0  0  # atno 11005 bound_to 11000
  145.1383  139.2588  143.5503 LP  0  0  0  0  0  0  0  0  0  0  0  0  # atno 17320 bound_to 7965
  146.3525  140.1054  142.8606 LP  0  0  0  0  0  0  0  0  0  0  0  0  # atno 17321 bound_to 7965
  139.7123  144.7618  151.1092 LP  0  0  0  0  0  0  0  0  0  0  0  0  # atno 17342 bound_to 10162
  140.7729  143.5315  150.9418 LP  0  0  0  0  0  0  0  0  0  0  0  0  # atno 17343 bound_to 10162
  156.0541  130.3712  150.1132 LP  0  0  0  0  0  0  0  0  0  0  0  0  # atno 17370 bound_to 10713
  156.9308  130.9713  151.3533 LP  0  0  0  0  0  0  0  0  0  0  0  0  # atno 17371 bound_to 10713
  140.0351  134.9882  157.0856 LP  0  0  0  0  0  0  0  0  0  0  0  0  # atno 17394 bound_to 11000
  140.4223  134.1868  155.7165 LP  0  0  0  0  0  0  0  0  0  0  0  0  # atno 17395 bound_to 11000

$$$$
