AV-unprocessed.smi:1130|AV-procd|sdf|4849|dock2
  -GOLD-   22720 3413D 1   1.00000     0.00000
 Structure written by MMmdl.
 36 37  0  0  0  0  0  0  0  0  1 V2000
  151.6729  138.1311  154.5549 C   0  0  0  0  0  0  0  0  0  0  0  0
  150.4764  139.0111  154.4287 C   0  0  0  0  0  0  0  0  0  0  0  0
  150.5584  140.3225  154.6180 N   0  0  0  0  0  0  0  0  0  0  0  0
  149.2452  140.7633  154.3991 O   0  0  0  0  0  0  0  0  0  0  0  0
  148.5234  139.6508  154.1218 C   0  0  0  0  0  0  0  0  0  0  0  0
  147.0769  139.7939  153.7874 C   0  0  0  0  0  0  0  0  0  0  0  0
  146.7551  139.3053  152.3656 C   0  0  0  0  0  0  0  0  0  0  0  0
  146.8862  137.8575  152.2469 N   0  0  0  0  0  0  0  0  0  0  0  0
  145.8984  136.9784  152.4650 C   0  0  0  0  0  0  0  0  0  0  0  0
  144.7528  137.2955  152.7857 O   0  0  0  0  0  0  0  0  0  0  0  0
  146.3087  135.7147  152.2893 N   0  0  0  0  0  0  0  0  0  0  0  0
  145.4622  134.5345  152.4237 C   0  0  0  0  0  0  0  0  0  0  0  0
  145.1864  133.8836  151.0588 C   0  0  1  0  0  0  0  0  0  0  0  0
  146.2575  132.8832  150.6309 C   0  0  0  0  0  0  0  0  0  0  0  0
  145.4969  132.0303  149.6416 C   0  0  0  0  0  0  0  0  0  0  0  0
  144.1172  131.9477  150.2898 C   0  0  0  0  0  0  0  0  0  0  0  0
  143.9804  133.1242  151.0832 O   0  0  0  0  0  0  0  0  0  0  0  0
  149.2431  138.5314  154.1100 N   0  0  0  0  0  0  0  0  0  0  0  0
  152.5702  138.7178  154.7545 H   0  0  0  0  0  0  0  0  0  0  0  0
  151.8270  137.5704  153.6328 H   0  0  0  0  0  0  0  0  0  0  0  0
  151.5344  137.4235  155.3726 H   0  0  0  0  0  0  0  0  0  0  0  0
  146.4966  139.2362  154.5235 H   0  0  0  0  0  0  0  0  0  0  0  0
  146.7967  140.8423  153.8978 H   0  0  0  0  0  0  0  0  0  0  0  0
  145.7313  139.5742  152.1041 H   0  0  0  0  0  0  0  0  0  0  0  0
  147.4017  139.7982  151.6375 H   0  0  0  0  0  0  0  0  0  0  0  0
  147.7941  137.5006  151.9867 H   0  0  0  0  0  0  0  0  0  0  0  0
  147.2708  135.5574  152.0274 H   0  0  0  0  0  0  0  0  0  0  0  0
  145.9846  133.8258  153.0666 H   0  0  0  0  0  0  0  0  0  0  0  0
  144.5271  134.7782  152.9309 H   0  0  0  0  0  0  0  0  0  0  0  0
  145.0876  134.6493  150.2874 H   0  0  0  0  0  0  0  0  0  0  0  0
  147.1375  133.3598  150.1985 H   0  0  0  0  0  0  0  0  0  0  0  0
  146.5784  132.2751  151.4781 H   0  0  0  0  0  0  0  0  0  0  0  0
  145.4314  132.5433  148.6811 H   0  0  0  0  0  0  0  0  0  0  0  0
  145.9501  131.0523  149.4774 H   0  0  0  0  0  0  0  0  0  0  0  0
  143.3190  131.8723  149.5510 H   0  0  0  0  0  0  0  0  0  0  0  0
  144.0528  131.0796  150.9464 H   0  0  0  0  0  0  0  0  0  0  0  0
  1  2  1  0  0  0  0
  1 19  1  0  0  0  0
  1 20  1  0  0  0  0
  1 21  1  0  0  0  0
  2 18  1  0  0  0  0
  2  3  2  0  0  0  0
  3  4  1  0  0  0  0
  4  5  1  0  0  0  0
  5  6  1  0  0  0  0
  5 18  2  0  0  0  0
  6  7  1  0  0  0  0
  6 22  1  0  0  0  0
  6 23  1  0  0  0  0
  7  8  1  0  0  0  0
  7 24  1  0  0  0  0
  7 25  1  0  0  0  0
  8  9  1  0  0  0  0
  8 26  1  0  0  0  0
  9 10  2  0  0  0  0
  9 11  1  0  0  0  0
 11 12  1  0  0  0  0
 11 27  1  0  0  0  0
 12 13  1  0  0  0  0
 12 28  1  0  0  0  0
 12 29  1  0  0  0  0
 13 17  1  0  0  0  0
 13 14  1  0  0  0  0
 13 30  1  0  0  0  0
 14 15  1  0  0  0  0
 14 31  1  0  0  0  0
 14 32  1  0  0  0  0
 15 16  1  0  0  0  0
 15 33  1  0  0  0  0
 15 34  1  0  0  0  0
 16 17  1  0  0  0  0
 16 35  1  0  0  0  0
 16 36  1  0  0  0  0
M  END
> <s_m_source_file>
AV-unprocessed.smi

> <i_m_source_file_index>
1130

> <i_lp_mmshare_version>
43012

> <i_f3d_flags>
0

> <s_epik_input>
W0NIM11jMW5vYyhuMSlbQ0gyXVtDSDJdW05IXUMoPU8pW05IXVtDSDJdW0NAQEhdMltDSDJdW0NIMl1bQ0gyXU8y

> <s_epik_cmdline>
J2VwaWtfcHl0aG9uJywgJy1waCcsICc3LjAnLCAnLXRuJywgJzgnLCAnLW1hJywgJzIwMCcsICctbWV0YWxfYmluZGluZycsICctaW1hZScsICc8aW5maWxlLm1hZT4nLCAnLW9tYWUnLCAnPG91dGZpbGUubWFlPic=

> <r_lp_tautomer_probability>
1

> <r_epik_Ionization_Penalty>
4.67036e-05

> <r_epik_Ionization_Penalty_Charging>
0

> <r_epik_Ionization_Penalty_Neutral>
4.67036e-05

> <r_epik_State_Penalty>
-0

> <r_epik_Charging_Adjusted_Penalty>
0

> <i_epik_Tot_Q>
0

> <i_epik_Tot_abs_Q>
0

> <r_epik_Metal_State_Penalty>
-0

> <b_epik_Metal_Only>
0

> <s_lp_Force_Field>
OPLS_2005

> <r_lp_Energy>
9.65739

> <b_lp_Chiralities_Consistent>
1

> <s_lp_Variant>
AV-unprocessed.smi:1130-2

> <Gold.Version>
5.8.1

> <Gold.Id.Protein>
6NUR|6NUR_protein|mol2

> <Gold.PLP.Fitness>
41.1373

> <Gold.PLP.PLP>
-33.2087

> <Gold.PLP.part.hbond>
-3.4654

> <Gold.PLP.part.metal>
0.0000

> <Gold.PLP.part.buried>
-4.8621

> <Gold.PLP.part.nonpolar>
-26.9262

> <Gold.PLP.part.repulsive>
0.9763

> <Gold.PLP.ligand.clash>
0.0000

> <Gold.PLP.ligand.torsion>
0.5529

> <Gold.PLP.Chemscore.Hbond>
2.9920

> <Gold.PLP.Chemscore.CHOScore>
0.0000

> <Gold.PLP.Chemscore.Metal>
0.0000

> <Gold.Chemscore.Hbonds>
donor molecule, donor type, donor heavy atom, donor atom, acceptor molecule, acceptor atom, score
      L1  H     8    26       P1  7948  1.00
      L1  H    11    27       P1  7948  0.99
      P1  H  7989  7998       L1     3  1.00

> <Gold.PLP.Chemscore.Internal.Correction>
0.0584

> <Gold.Rescore>
     Score         DG    S(hbond)    S(metal)    S(lipo)     H(rot)  DE(clash)    DE(int)     intcor
     15.02     -15.53       2.68        0.00      60.46       2.33       0.01       0.50       ----

> <Gold.Chemscore.Fitness>
15.0219

> <Gold.Chemscore.DG>
-15.5311

> <Gold.Chemscore.ZeroCoef>
-5.4800

> <Gold.Chemscore.Hbond>
2.6765

> <Gold.Chemscore.Metal>
0.0000

> <Gold.Chemscore.Lipo>
60.4564

> <Gold.Chemscore.Internal_Hbond>
0.0000

> <Gold.Chemscore.DEClash>
0.0073

> <Gold.Chemscore.DEInternal>
0.5019

> <Gold.Chemscore.Rot>
2.3288

> <Gold.Chemscore.Internal.Correction>
   9.000000E+99

> <Gold.Chemscore.Hbonds>
donor molecule, donor type, donor heavy atom, donor atom, acceptor molecule, acceptor atom, score
      L1  H     8    26       P1  7948  0.97
      L1  H    11    27       P1  7948  0.93
      P1  H  7989  7998       L1     3  0.46

> <Gold.Chemscore.Hbond.Weighted>
-8.9394

> <Gold.Chemscore.Metal.Weighted>
-0.0000

> <Gold.Chemscore.Lipo.Weighted>
-7.0734

> <Gold.Chemscore.Internal_Hbond.Weighted>
0.0000

> <Gold.Chemscore.DEClash.Weighted>
0.0073

> <Gold.Chemscore.DEInternal.Weighted>
0.5019

> <Gold.Chemscore.Rot.Weighted>
5.9617

> <Gold.Chemscore.Internal.Correction.Weighted>
   9.000000E+99

> <Gold.Protein.RotatedTorsions>
[ 6907 6896 6895 6894 ] final   67.02 input  -60.11 | X-H torsion
[ 7974 7965 7964 7962 ] final -169.88 input  175.53 | X-H torsion
[ 8008 7997 7996 7995 ] final  -99.50 input   59.86 | X-H torsion
[ 10167 10162 10161 10158 ] final  -50.82 input  -65.29 | X-H torsion
[ 10718 10713 10712 10709 ] final   21.40 input   66.30 | X-H torsion
[ 10763 10752 10751 10750 ] final  148.23 input  -60.55 | X-H torsion
[ 11005 11000 10999 10996 ] final -117.21 input  -57.11 | X-H torsion

> <Gold.Protein.ActiveResidues>
 VAL166  LYS551  ARG553  GLY616  TRP617  ASP618  TYR619  PRO620  LYS621  CYS622 
 ASP623  PHE694  ASN695  SER759  ASP760  ASP761  ALA762  ILE779  LEU786  VAL792 
 PHE793  MET794  SER795  GLU796  ALA797  LYS798  CYS799  TRP800  GLU811  SER814 

> <Gold.Protein.RotatedAtoms>
  152.4522  134.5368  159.9827 H   0  0  0  0  0  0  0  0  0  0  0  0  # atno 6907 bound_to 6896
  151.5438  133.3422  159.2948 H   0  0  0  0  0  0  0  0  0  0  0  0  # atno 6908 bound_to 6896
  150.8455  134.7793  159.7030 H   0  0  0  0  0  0  0  0  0  0  0  0  # atno 6909 bound_to 6896
  144.7178  140.2155  143.6322 H   0  0  0  0  0  0  0  0  0  0  0  0  # atno 7974 bound_to 7965
  154.8156  140.0447  157.1374 H   0  0  0  0  0  0  0  0  0  0  0  0  # atno 8008 bound_to 7997
  154.9318  140.3041  155.5144 H   0  0  0  0  0  0  0  0  0  0  0  0  # atno 8009 bound_to 7997
  156.2976  140.2321  156.4378 H   0  0  0  0  0  0  0  0  0  0  0  0  # atno 8010 bound_to 7997
  140.6619  143.2643  151.4415 H   0  0  0  0  0  0  0  0  0  0  0  0  # atno 10167 bound_to 10162
  157.1379  130.6619  149.5972 H   0  0  0  0  0  0  0  0  0  0  0  0  # atno 10718 bound_to 10713
  154.0514  135.2881  155.3340 H   0  0  0  0  0  0  0  0  0  0  0  0  # atno 10763 bound_to 10752
  154.6867  135.5242  153.8339 H   0  0  0  0  0  0  0  0  0  0  0  0  # atno 10764 bound_to 10752
  153.0559  135.6595  154.0710 H   0  0  0  0  0  0  0  0  0  0  0  0  # atno 10765 bound_to 10752
  141.0370  133.9894  157.3055 H   0  0  0  0  0  0  0  0  0  0  0  0  # atno 11005 bound_to 11000
  145.8551  139.2194  143.1749 LP  0  0  0  0  0  0  0  0  0  0  0  0  # atno 17320 bound_to 7965
  146.0225  140.8334  142.9916 LP  0  0  0  0  0  0  0  0  0  0  0  0  # atno 17321 bound_to 7965
  139.5855  144.1614  152.2023 LP  0  0  0  0  0  0  0  0  0  0  0  0  # atno 17342 bound_to 10162
  140.0953  144.5586  150.7026 LP  0  0  0  0  0  0  0  0  0  0  0  0  # atno 17343 bound_to 10162
  155.9794  130.4788  150.6715 LP  0  0  0  0  0  0  0  0  0  0  0  0  # atno 17370 bound_to 10713
  157.4334  131.0852  151.1016 LP  0  0  0  0  0  0  0  0  0  0  0  0  # atno 17371 bound_to 10713
  139.9248  135.0201  156.8194 LP  0  0  0  0  0  0  0  0  0  0  0  0  # atno 17394 bound_to 11000
  140.6304  133.9911  155.7659 LP  0  0  0  0  0  0  0  0  0  0  0  0  # atno 17395 bound_to 11000

$$$$
