AV-unprocessed.smi:2833|AV-procd|sdf|10914|dock8
  -GOLD-   2272015363D 1   1.00000     0.00000
 Structure written by MMmdl.
 28 29  0  0  0  0  0  0  0  0  1 V2000
  148.4824  139.1811  152.7216 O   0  0  0  0  0  0  0  0  0  0  0  0
  148.7342  140.3196  153.5177 C   0  0  0  0  0  0  0  0  0  0  0  0
  149.6078  139.9418  154.7238 C   0  0  2  0  0  0  0  0  0  0  0  0
  150.0272  141.1865  155.5319 C   0  0  0  0  0  0  0  0  0  0  0  0
  150.9296  140.8045  156.6110 N   0  0  0  0  0  0  0  0  0  0  0  0
  151.2524  141.8585  157.4781 C   0  0  0  0  0  0  0  0  0  0  0  0
  151.0159  143.1267  157.0612 N   0  0  0  0  0  0  0  0  0  0  0  0
  151.3293  144.1433  157.8931 C   0  0  0  0  0  0  0  0  0  0  0  0
  151.8889  143.9497  159.1714 C   0  0  0  0  0  0  0  0  0  0  0  0
  152.2651  145.2954  160.1833 Cl  0  0  0  0  0  0  0  0  0  0  0  0
  152.1342  142.6327  159.6039 C   0  0  0  0  0  0  0  0  0  0  0  0
  151.8113  141.5666  158.7422 C   0  0  0  0  0  0  0  0  0  0  0  0
  152.0353  140.2864  159.1258 F   0  0  0  0  0  0  0  0  0  0  0  0
  152.0932  140.0706  156.1314 C   0  0  0  0  0  0  0  0  0  0  0  0
  151.6414  138.8645  155.2919 C   0  0  0  0  0  0  0  0  0  0  0  0
  150.7928  139.3117  154.2384 O   0  0  0  0  0  0  0  0  0  0  0  0
  149.0212  139.2306  151.9468 H   0  0  0  0  0  0  0  0  0  0  0  0
  149.1978  141.1067  152.9221 H   0  0  0  0  0  0  0  0  0  0  0  0
  147.7684  140.6968  153.8555 H   0  0  0  0  0  0  0  0  0  0  0  0
  149.0583  139.2600  155.3765 H   0  0  0  0  0  0  0  0  0  0  0  0
  150.5183  141.9078  154.8769 H   0  0  0  0  0  0  0  0  0  0  0  0
  149.1469  141.6764  155.9503 H   0  0  0  0  0  0  0  0  0  0  0  0
  151.1282  145.1393  157.5270 H   0  0  0  0  0  0  0  0  0  0  0  0
  152.5622  142.4418  160.5770 H   0  0  0  0  0  0  0  0  0  0  0  0
  152.7211  140.7271  155.5271 H   0  0  0  0  0  0  0  0  0  0  0  0
  152.6946  139.7351  156.9773 H   0  0  0  0  0  0  0  0  0  0  0  0
  152.5065  138.3597  154.8623 H   0  0  0  0  0  0  0  0  0  0  0  0
  151.1189  138.1326  155.9099 H   0  0  0  0  0  0  0  0  0  0  0  0
  1  2  1  0  0  0  0
  1 17  1  0  0  0  0
  2  3  1  0  0  0  0
  2 18  1  0  0  0  0
  2 19  1  0  0  0  0
  3 16  1  0  0  0  0
  3  4  1  0  0  0  0
  3 20  1  0  0  0  0
  4  5  1  0  0  0  0
  4 21  1  0  0  0  0
  4 22  1  0  0  0  0
  5  6  1  0  0  0  0
  5 14  1  0  0  0  0
  6 12  1  0  0  0  0
  6  7  2  0  0  0  0
  7  8  1  0  0  0  0
  8  9  2  0  0  0  0
  8 23  1  0  0  0  0
  9 10  1  0  0  0  0
  9 11  1  0  0  0  0
 11 12  2  0  0  0  0
 11 24  1  0  0  0  0
 12 13  1  0  0  0  0
 14 15  1  0  0  0  0
 14 25  1  0  0  0  0
 14 26  1  0  0  0  0
 15 16  1  0  0  0  0
 15 27  1  0  0  0  0
 15 28  1  0  0  0  0
M  END
> <s_m_source_file>
AV-unprocessed.smi

> <i_m_source_file_index>
2833

> <i_lp_mmshare_version>
43012

> <i_f3d_flags>
0

> <s_epik_input>
W09IXVtDSDJdW0NAQEhdMVtDSDJdTihbQ0gyXVtDSDJdTzEpYzJuW2NIXWMoQ2wpW2NIXWMyRg==

> <s_epik_cmdline>
J2VwaWtfcHl0aG9uJywgJy1waCcsICc3LjAnLCAnLXRuJywgJzgnLCAnLW1hJywgJzIwMCcsICctbWV0YWxfYmluZGluZycsICctaW1hZScsICc8aW5maWxlLm1hZT4nLCAnLW9tYWUnLCAnPG91dGZpbGUubWFlPic=

> <r_lp_tautomer_probability>
1

> <r_epik_Ionization_Penalty>
1.06846e-07

> <r_epik_Ionization_Penalty_Charging>
0

> <r_epik_Ionization_Penalty_Neutral>
1.06846e-07

> <r_epik_State_Penalty>
-0

> <r_epik_Charging_Adjusted_Penalty>
0

> <i_epik_Tot_Q>
0

> <i_epik_Tot_abs_Q>
0

> <r_epik_Metal_State_Penalty>
-0

> <b_epik_Metal_Only>
0

> <s_lp_Force_Field>
OPLS_2005

> <r_lp_Energy>
22.731

> <b_lp_Chiralities_Consistent>
1

> <s_lp_Variant>
AV-unprocessed.smi:2833-1

> <Gold.Version>
5.8.1

> <Gold.Id.Protein>
6NUR|6NUR_protein|mol2

> <Gold.PLP.Fitness>
39.2334

> <Gold.PLP.PLP>
-32.9273

> <Gold.PLP.part.hbond>
-2.6410

> <Gold.PLP.part.metal>
0.0000

> <Gold.PLP.part.buried>
-1.2612

> <Gold.PLP.part.nonpolar>
-29.2003

> <Gold.PLP.part.repulsive>
1.3594

> <Gold.PLP.ligand.clash>
0.0000

> <Gold.PLP.ligand.torsion>
0.2805

> <Gold.PLP.Chemscore.Hbond>
2.0000

> <Gold.PLP.Chemscore.CHOScore>
0.2531

> <Gold.PLP.Chemscore.Metal>
0.0000

> <Gold.Chemscore.Hbonds>
donor molecule, donor type, donor heavy atom, donor atom, acceptor molecule, acceptor atom, score
      L1  H     1    17       P1  7957  0.28
      P1  H  7989  7998       L1    16  0.90
      L1  C     8    23       P1  8028  0.04

> <Gold.PLP.Chemscore.Internal.Correction>
0.1080

> <Gold.Rescore>
     Score         DG    S(hbond)    S(metal)    S(lipo)     H(rot)  DE(clash)    DE(int)     intcor
     14.88     -15.90       1.51        0.00      84.88       1.78       0.49       0.53       ----

> <Gold.Chemscore.Fitness>
14.8789

> <Gold.Chemscore.DG>
-15.9010

> <Gold.Chemscore.ZeroCoef>
-5.4800

> <Gold.Chemscore.Hbond>
1.5091

> <Gold.Chemscore.Metal>
0.0000

> <Gold.Chemscore.Lipo>
84.8770

> <Gold.Chemscore.Internal_Hbond>
0.0000

> <Gold.Chemscore.DEClash>
0.4879

> <Gold.Chemscore.DEInternal>
0.5342

> <Gold.Chemscore.Rot>
1.7773

> <Gold.Chemscore.Internal.Correction>
   9.000000E+99

> <Gold.Chemscore.Hbonds>
donor molecule, donor type, donor heavy atom, donor atom, acceptor molecule, acceptor atom, score
      L1  H     1    17       P1  7957  0.26
      P1  H  7989  7998       L1    16  0.11

> <Gold.Chemscore.Hbond.Weighted>
-5.0403

> <Gold.Chemscore.Metal.Weighted>
-0.0000

> <Gold.Chemscore.Lipo.Weighted>
-9.9306

> <Gold.Chemscore.Internal_Hbond.Weighted>
0.0000

> <Gold.Chemscore.DEClash.Weighted>
0.4879

> <Gold.Chemscore.DEInternal.Weighted>
0.5342

> <Gold.Chemscore.Rot.Weighted>
4.5499

> <Gold.Chemscore.Internal.Correction.Weighted>
   9.000000E+99

> <Gold.Protein.RotatedTorsions>
[ 6907 6896 6895 6894 ] final  -26.79 input  -60.11 | X-H torsion
[ 7974 7965 7964 7962 ] final -167.72 input  175.53 | X-H torsion
[ 8008 7997 7996 7995 ] final   30.99 input   59.86 | X-H torsion
[ 10167 10162 10161 10158 ] final  113.97 input  -65.29 | X-H torsion
[ 10718 10713 10712 10709 ] final    9.65 input   66.30 | X-H torsion
[ 10763 10752 10751 10750 ] final  -72.80 input  -60.55 | X-H torsion
[ 11005 11000 10999 10996 ] final  -29.48 input  -57.11 | X-H torsion

> <Gold.Protein.ActiveResidues>
 VAL166  LYS551  ARG553  GLY616  TRP617  ASP618  TYR619  PRO620  LYS621  CYS622 
 ASP623  PHE694  ASN695  SER759  ASP760  ASP761  ALA762  ILE779  LEU786  VAL792 
 PHE793  MET794  SER795  GLU796  ALA797  LYS798  CYS799  TRP800  GLU811  SER814 

> <Gold.Protein.RotatedAtoms>
  151.1561  135.0250  159.8689 H   0  0  0  0  0  0  0  0  0  0  0  0  # atno 6907 bound_to 6896
  152.5452  134.1333  159.8458 H   0  0  0  0  0  0  0  0  0  0  0  0  # atno 6908 bound_to 6896
  151.1423  133.4917  159.2629 H   0  0  0  0  0  0  0  0  0  0  0  0  # atno 6909 bound_to 6896
  144.7217  140.2476  143.6283 H   0  0  0  0  0  0  0  0  0  0  0  0  # atno 7974 bound_to 7965
  155.0993  140.3228  155.4551 H   0  0  0  0  0  0  0  0  0  0  0  0  # atno 8008 bound_to 7997
  156.2721  140.2064  156.6066 H   0  0  0  0  0  0  0  0  0  0  0  0  # atno 8009 bound_to 7997
  154.6842  140.0523  157.0284 H   0  0  0  0  0  0  0  0  0  0  0  0  # atno 8010 bound_to 7997
  139.6423  144.7124  151.2213 H   0  0  0  0  0  0  0  0  0  0  0  0  # atno 10167 bound_to 10162
  156.9694  130.5963  149.5667 H   0  0  0  0  0  0  0  0  0  0  0  0  # atno 10718 bound_to 10713
  154.4507  135.5918  153.6190 H   0  0  0  0  0  0  0  0  0  0  0  0  # atno 10763 bound_to 10752
  152.9813  135.6020  154.3608 H   0  0  0  0  0  0  0  0  0  0  0  0  # atno 10764 bound_to 10752
  154.3469  135.2841  155.2372 H   0  0  0  0  0  0  0  0  0  0  0  0  # atno 10765 bound_to 10752
  140.9299  133.7344  156.0922 H   0  0  0  0  0  0  0  0  0  0  0  0  # atno 11005 bound_to 11000
  145.8259  139.2064  143.1911 LP  0  0  0  0  0  0  0  0  0  0  0  0  # atno 17320 bound_to 7965
  146.0473  140.8105  142.9799 LP  0  0  0  0  0  0  0  0  0  0  0  0  # atno 17321 bound_to 7965
  140.7497  143.6291  150.8440 LP  0  0  0  0  0  0  0  0  0  0  0  0  # atno 17342 bound_to 10162
  139.9930  143.5826  152.2903 LP  0  0  0  0  0  0  0  0  0  0  0  0  # atno 17343 bound_to 10162
  156.0289  130.5381  150.8481 LP  0  0  0  0  0  0  0  0  0  0  0  0  # atno 17370 bound_to 10713
  157.5603  131.0945  150.9568 LP  0  0  0  0  0  0  0  0  0  0  0  0  # atno 17371 bound_to 10713
  140.7876  134.3654  157.5472 LP  0  0  0  0  0  0  0  0  0  0  0  0  # atno 17394 bound_to 11000
  139.8794  134.9120  156.3050 LP  0  0  0  0  0  0  0  0  0  0  0  0  # atno 17395 bound_to 11000

$$$$
