AV-unprocessed.smi:1285|AV-procd|sdf|5369|dock8
  -GOLD-   22720 4513D 1   1.00000     0.00000
 Structure written by MMmdl.
 46 47  0  0  0  0  0  0  0  0  1 V2000
  149.4801  134.7091  155.5769 C   0  0  0  0  0  0  0  0  0  0  0  0
  148.3369  135.6129  156.0735 C   0  0  0  0  0  0  0  0  0  0  0  0
  148.7709  136.8501  156.9227 C   0  0  1  0  0  0  0  0  0  0  0  0
  147.4835  137.6823  157.1705 C   0  0  0  0  0  0  0  0  0  0  0  0
  149.3005  136.3495  158.3060 C   0  0  0  0  0  0  0  0  0  0  0  0
  148.2609  135.7888  159.1694 N   0  0  0  0  0  0  0  0  0  0  0  0
  147.9842  136.1811  160.4237 C   0  0  0  0  0  0  0  0  0  0  0  0
  148.5900  137.0878  160.9960 O   0  0  0  0  0  0  0  0  0  0  0  0
  146.8567  135.4223  161.1395 C   0  0  1  0  0  0  0  0  0  0  0  0
  147.3639  134.6392  162.3677 C   0  0  0  0  0  0  0  0  0  0  0  0
  145.7687  136.3341  161.4712 N   0  0  0  0  0  0  0  0  0  0  0  0
  144.5946  136.0889  162.0575 C   0  0  0  0  0  0  0  0  0  0  0  0
  143.8126  137.1538  162.1653 N   0  0  0  0  0  0  0  0  0  0  0  0
  144.6149  138.0864  161.5716 C   0  0  0  0  0  0  0  0  0  0  0  0
  145.7923  137.6464  161.1282 N   0  0  0  0  0  0  0  0  0  0  0  0
  149.7874  137.6628  156.1960 N   0  0  0  0  0  0  0  0  0  0  0  0
  149.4450  138.0061  154.8108 C   0  0  0  0  0  0  0  0  0  0  0  0
  150.6061  138.7118  154.0893 C   0  0  0  0  0  0  0  0  0  0  0  0
  150.9862  139.8752  154.8146 O   0  0  0  0  0  0  0  0  0  0  0  0
  151.3784  139.5789  156.1496 C   0  0  0  0  0  0  0  0  0  0  0  0
  150.2207  138.8842  156.8859 C   0  0  0  0  0  0  0  0  0  0  0  0
  149.0801  133.8700  155.0075 H   0  0  0  0  0  0  0  0  0  0  0  0
  150.0588  134.2935  156.4015 H   0  0  0  0  0  0  0  0  0  0  0  0
  150.1654  135.2464  154.9221 H   0  0  0  0  0  0  0  0  0  0  0  0
  147.7839  135.9408  155.1933 H   0  0  0  0  0  0  0  0  0  0  0  0
  147.6239  135.0047  156.6300 H   0  0  0  0  0  0  0  0  0  0  0  0
  146.6467  137.0587  157.4871 H   0  0  0  0  0  0  0  0  0  0  0  0
  147.1663  138.2109  156.2712 H   0  0  0  0  0  0  0  0  0  0  0  0
  147.6231  138.4280  157.9534 H   0  0  0  0  0  0  0  0  0  0  0  0
  150.1025  135.6225  158.1770 H   0  0  0  0  0  0  0  0  0  0  0  0
  149.7400  137.1738  158.8663 H   0  0  0  0  0  0  0  0  0  0  0  0
  147.7158  135.0323  158.7825 H   0  0  0  0  0  0  0  0  0  0  0  0
  146.4547  134.6895  160.4375 H   0  0  0  0  0  0  0  0  0  0  0  0
  148.1402  133.9275  162.0846 H   0  0  0  0  0  0  0  0  0  0  0  0
  146.5546  134.0725  162.8289 H   0  0  0  0  0  0  0  0  0  0  0  0
  147.7835  135.2961  163.1308 H   0  0  0  0  0  0  0  0  0  0  0  0
  144.3043  135.1101  162.4103 H   0  0  0  0  0  0  0  0  0  0  0  0
  144.3202  139.1191  161.4578 H   0  0  0  0  0  0  0  0  0  0  0  0
  149.1923  137.1153  154.2385 H   0  0  0  0  0  0  0  0  0  0  0  0
  148.5719  138.6580  154.7867 H   0  0  0  0  0  0  0  0  0  0  0  0
  151.4614  138.0418  153.9877 H   0  0  0  0  0  0  0  0  0  0  0  0
  150.3059  139.0026  153.0826 H   0  0  0  0  0  0  0  0  0  0  0  0
  152.2676  138.9465  156.1451 H   0  0  0  0  0  0  0  0  0  0  0  0
  151.6472  140.5061  156.6559 H   0  0  0  0  0  0  0  0  0  0  0  0
  149.3913  139.5862  156.9692 H   0  0  0  0  0  0  0  0  0  0  0  0
  150.5532  138.6661  157.8989 H   0  0  0  0  0  0  0  0  0  0  0  0
  1  2  1  0  0  0  0
  1 22  1  0  0  0  0
  1 23  1  0  0  0  0
  1 24  1  0  0  0  0
  2  3  1  0  0  0  0
  2 25  1  0  0  0  0
  2 26  1  0  0  0  0
  3  4  1  0  0  0  0
  3  5  1  0  0  0  0
  3 16  1  0  0  0  0
  4 27  1  0  0  0  0
  4 28  1  0  0  0  0
  4 29  1  0  0  0  0
  5  6  1  0  0  0  0
  5 30  1  0  0  0  0
  5 31  1  0  0  0  0
  6  7  1  0  0  0  0
  6 32  1  0  0  0  0
  7  8  2  0  0  0  0
  7  9  1  0  0  0  0
  9 10  1  0  0  0  0
  9 11  1  0  0  0  0
  9 33  1  0  0  0  0
 10 34  1  0  0  0  0
 10 35  1  0  0  0  0
 10 36  1  0  0  0  0
 11 15  1  0  0  0  0
 11 12  1  0  0  0  0
 12 13  2  0  0  0  0
 12 37  1  0  0  0  0
 13 14  1  0  0  0  0
 14 15  2  0  0  0  0
 14 38  1  0  0  0  0
 16 21  1  0  0  0  0
 16 17  1  0  0  0  0
 17 18  1  0  0  0  0
 17 39  1  0  0  0  0
 17 40  1  0  0  0  0
 18 19  1  0  0  0  0
 18 41  1  0  0  0  0
 18 42  1  0  0  0  0
 19 20  1  0  0  0  0
 20 21  1  0  0  0  0
 20 43  1  0  0  0  0
 20 44  1  0  0  0  0
 21 45  1  0  0  0  0
 21 46  1  0  0  0  0
M  END
> <s_m_source_file>
AV-unprocessed.smi

> <i_m_source_file_index>
1285

> <i_lp_mmshare_version>
43012

> <i_f3d_flags>
0

> <s_epik_input>
W0NIMl0xW0NIMl1PW0NIMl1bQ0gyXU4xW0NAQF0oW0NIM10pKFtDSDJdW0NIM10pW0NIMl1bTkhdQyg9TylbQ0BIXShbQ0gzXSluMltjSF1uW2NIXW4y

> <s_epik_cmdline>
J2VwaWtfcHl0aG9uJywgJy1waCcsICc3LjAnLCAnLXRuJywgJzgnLCAnLW1hJywgJzIwMCcsICctbWV0YWxfYmluZGluZycsICctaW1hZScsICc8aW5maWxlLm1hZT4nLCAnLW9tYWUnLCAnPG91dGZpbGUubWFlPic=

> <r_lp_tautomer_probability>
1

> <r_epik_Ionization_Penalty>
0.285697

> <r_epik_Ionization_Penalty_Charging>
0

> <r_epik_Ionization_Penalty_Neutral>
0.285697

> <r_epik_State_Penalty>
0.278478

> <r_epik_Charging_Adjusted_Penalty>
0.278478

> <i_epik_Tot_Q>
0

> <i_epik_Tot_abs_Q>
0

> <r_epik_Metal_State_Penalty>
0.278477

> <b_epik_Metal_Only>
0

> <s_lp_Force_Field>
OPLS_2005

> <r_lp_Energy>
48.702

> <b_lp_Chiralities_Consistent>
1

> <s_lp_Variant>
AV-unprocessed.smi:1285-3

> <Gold.Version>
5.8.1

> <Gold.Id.Protein>
6NUR|6NUR_protein|mol2

> <Gold.PLP.Fitness>
35.2303

> <Gold.PLP.PLP>
-26.5659

> <Gold.PLP.part.hbond>
-3.5452

> <Gold.PLP.part.metal>
0.0000

> <Gold.PLP.part.buried>
-5.3441

> <Gold.PLP.part.nonpolar>
-18.7026

> <Gold.PLP.part.repulsive>
0.2138

> <Gold.PLP.ligand.clash>
0.0000

> <Gold.PLP.ligand.torsion>
0.2909

> <Gold.PLP.Chemscore.Hbond>
3.0000

> <Gold.PLP.Chemscore.CHOScore>
0.0000

> <Gold.PLP.Chemscore.Metal>
0.0000

> <Gold.Chemscore.Hbonds>
donor molecule, donor type, donor heavy atom, donor atom, acceptor molecule, acceptor atom, score
      P1  H  6931  6943       L1     8  0.99
      P1  H  6934  6947       L1    15  1.00
      P1  H  7989  7998       L1    19  1.00

> <Gold.PLP.Chemscore.Internal.Correction>
0.2462

> <Gold.Rescore>
     Score         DG    S(hbond)    S(metal)    S(lipo)     H(rot)  DE(clash)    DE(int)     intcor
     11.71     -13.28       2.68        0.00      48.86       2.68       0.04       1.53       ----

> <Gold.Chemscore.Fitness>
11.7086

> <Gold.Chemscore.DG>
-13.2800

> <Gold.Chemscore.ZeroCoef>
-5.4800

> <Gold.Chemscore.Hbond>
2.6794

> <Gold.Chemscore.Metal>
0.0000

> <Gold.Chemscore.Lipo>
48.8629

> <Gold.Chemscore.Internal_Hbond>
0.0000

> <Gold.Chemscore.DEClash>
0.0371

> <Gold.Chemscore.DEInternal>
1.5342

> <Gold.Chemscore.Rot>
2.6821

> <Gold.Chemscore.Internal.Correction>
   9.000000E+99

> <Gold.Chemscore.Hbonds>
donor molecule, donor type, donor heavy atom, donor atom, acceptor molecule, acceptor atom, score
      P1  H  6931  6943       L1     8  0.88
      P1  H  6934  6947       L1    15  0.84
      P1  H  7989  7998       L1    19  0.26

> <Gold.Chemscore.Hbond.Weighted>
-8.9492

> <Gold.Chemscore.Metal.Weighted>
-0.0000

> <Gold.Chemscore.Lipo.Weighted>
-5.7170

> <Gold.Chemscore.Internal_Hbond.Weighted>
0.0000

> <Gold.Chemscore.DEClash.Weighted>
0.0371

> <Gold.Chemscore.DEInternal.Weighted>
1.5342

> <Gold.Chemscore.Rot.Weighted>
6.8661

> <Gold.Chemscore.Internal.Correction.Weighted>
   9.000000E+99

> <Gold.Protein.RotatedTorsions>
[ 6907 6896 6895 6894 ] final  137.22 input  -60.11 | X-H torsion
[ 7974 7965 7964 7962 ] final   57.94 input  175.53 | X-H torsion
[ 8008 7997 7996 7995 ] final -132.27 input   59.86 | X-H torsion
[ 10167 10162 10161 10158 ] final  -57.51 input  -65.29 | X-H torsion
[ 10718 10713 10712 10709 ] final  -71.04 input   66.30 | X-H torsion
[ 10763 10752 10751 10750 ] final  -24.08 input  -60.55 | X-H torsion
[ 11005 11000 10999 10996 ] final  -27.07 input  -57.11 | X-H torsion

> <Gold.Protein.ActiveResidues>
 VAL166  LYS551  ARG553  GLY616  TRP617  ASP618  TYR619  PRO620  LYS621  CYS622 
 ASP623  PHE694  ASN695  SER759  ASP760  ASP761  ALA762  ILE779  LEU786  VAL792 
 PHE793  MET794  SER795  GLU796  ALA797  LYS798  CYS799  TRP800  GLU811  SER814 

> <Gold.Protein.RotatedAtoms>
  152.2806  133.5466  159.5494 H   0  0  0  0  0  0  0  0  0  0  0  0  # atno 6907 bound_to 6896
  150.7194  134.0570  159.3827 H   0  0  0  0  0  0  0  0  0  0  0  0  # atno 6908 bound_to 6896
  151.8480  135.0567  160.0506 H   0  0  0  0  0  0  0  0  0  0  0  0  # atno 6909 bound_to 6896
  145.9236  139.3749  143.0463 H   0  0  0  0  0  0  0  0  0  0  0  0  # atno 7974 bound_to 7965
  155.3262  140.0464  157.3041 H   0  0  0  0  0  0  0  0  0  0  0  0  # atno 8008 bound_to 7997
  154.5353  140.2270  155.8699 H   0  0  0  0  0  0  0  0  0  0  0  0  # atno 8009 bound_to 7997
  156.1829  140.3069  155.9188 H   0  0  0  0  0  0  0  0  0  0  0  0  # atno 8010 bound_to 7997
  140.6253  143.2436  151.5378 H   0  0  0  0  0  0  0  0  0  0  0  0  # atno 10167 bound_to 10162
  156.0380  130.4343  150.2385 H   0  0  0  0  0  0  0  0  0  0  0  0  # atno 10718 bound_to 10713
  153.6780  135.6968  153.5126 H   0  0  0  0  0  0  0  0  0  0  0  0  # atno 10763 bound_to 10752
  153.2506  135.4276  155.0793 H   0  0  0  0  0  0  0  0  0  0  0  0  # atno 10764 bound_to 10752
  154.8408  135.3530  154.6324 H   0  0  0  0  0  0  0  0  0  0  0  0  # atno 10765 bound_to 10752
  140.9086  133.7476  156.0640 H   0  0  0  0  0  0  0  0  0  0  0  0  # atno 11005 bound_to 11000
  145.8518  140.9524  143.0746 LP  0  0  0  0  0  0  0  0  0  0  0  0  # atno 17320 bound_to 7965
  144.6756  140.0417  143.7481 LP  0  0  0  0  0  0  0  0  0  0  0  0  # atno 17321 bound_to 7965
  139.5475  144.2483  152.1469 LP  0  0  0  0  0  0  0  0  0  0  0  0  # atno 17342 bound_to 10162
  140.1713  144.4933  150.6578 LP  0  0  0  0  0  0  0  0  0  0  0  0  # atno 17343 bound_to 10162
  157.0483  131.0055  151.3262 LP  0  0  0  0  0  0  0  0  0  0  0  0  # atno 17370 bound_to 10713
  157.5159  130.7967  149.7756 LP  0  0  0  0  0  0  0  0  0  0  0  0  # atno 17371 bound_to 10713
  140.8139  134.3367  157.5403 LP  0  0  0  0  0  0  0  0  0  0  0  0  # atno 17394 bound_to 11000
  139.8753  134.9270  156.3414 LP  0  0  0  0  0  0  0  0  0  0  0  0  # atno 17395 bound_to 11000

$$$$
