AV-unprocessed.smi:2831|AV-procd|sdf|10909|dock6
  -GOLD-   2272015353D 1   1.00000     0.00000
 Structure written by MMmdl.
 30 31  0  0  0  0  0  0  0  0  1 V2000
  146.6924  134.1575  162.4929 C   0  0  0  0  0  0  0  0  0  0  0  0
  147.3058  135.1427  161.5574 C   0  0  0  0  0  0  0  0  0  0  0  0
  147.3667  136.4522  161.8274 N   0  0  0  0  0  0  0  0  0  0  0  0
  147.9852  137.1703  160.8135 N   0  0  0  0  0  0  0  0  0  0  0  0
  148.3753  136.3777  159.8057 C   0  0  0  0  0  0  0  0  0  0  0  0
  149.0358  136.8496  158.6405 N   0  0  0  0  0  0  0  0  0  0  0  0
  149.2471  138.1218  158.2602 C   0  0  0  0  0  0  0  0  0  0  0  0
  148.8779  139.1189  158.8807 O   0  0  0  0  0  0  0  0  0  0  0  0
  149.9228  138.1730  157.1003 N   0  0  0  0  0  0  0  0  0  0  0  0
  150.3670  139.3725  156.3812 C   0  0  2  0  0  0  0  0  0  0  0  0
  151.5057  140.0779  157.1500 C   0  0  0  0  0  0  0  0  0  0  0  0
  149.2086  140.3355  156.0630 C   0  0  0  0  0  0  0  0  0  0  0  0
  149.1586  140.4029  154.5376 C   0  0  0  0  0  0  0  0  0  0  0  0
  150.4681  140.0389  154.1418 O   0  0  0  0  0  0  0  0  0  0  0  0
  150.8497  138.9617  154.9793 C   0  0  0  0  0  0  0  0  0  0  0  0
  148.0118  134.6733  160.0152 S   0  0  0  0  0  0  0  0  0  0  0  0
  145.7770  134.5645  162.9232 H   0  0  0  0  0  0  0  0  0  0  0  0
  147.3880  133.9271  163.3000 H   0  0  0  0  0  0  0  0  0  0  0  0
  146.4491  133.2347  161.9659 H   0  0  0  0  0  0  0  0  0  0  0  0
  149.4004  136.1330  158.0303 H   0  0  0  0  0  0  0  0  0  0  0  0
  150.1700  137.2919  156.6741 H   0  0  0  0  0  0  0  0  0  0  0  0
  151.9073  140.9141  156.5765 H   0  0  0  0  0  0  0  0  0  0  0  0
  152.3308  139.3936  157.3514 H   0  0  0  0  0  0  0  0  0  0  0  0
  151.1665  140.4760  158.1063 H   0  0  0  0  0  0  0  0  0  0  0  0
  148.2453  140.0177  156.4633 H   0  0  0  0  0  0  0  0  0  0  0  0
  149.4103  141.3272  156.4703 H   0  0  0  0  0  0  0  0  0  0  0  0
  148.4452  139.6786  154.1406 H   0  0  0  0  0  0  0  0  0  0  0  0
  148.8855  141.3914  154.1676 H   0  0  0  0  0  0  0  0  0  0  0  0
  151.9240  138.7806  154.9290 H   0  0  0  0  0  0  0  0  0  0  0  0
  150.3458  138.0584  154.6291 H   0  0  0  0  0  0  0  0  0  0  0  0
  1  2  1  0  0  0  0
  1 17  1  0  0  0  0
  1 18  1  0  0  0  0
  1 19  1  0  0  0  0
  2 16  1  0  0  0  0
  2  3  2  0  0  0  0
  3  4  1  0  0  0  0
  4  5  2  0  0  0  0
  5  6  1  0  0  0  0
  5 16  1  0  0  0  0
  6  7  1  0  0  0  0
  6 20  1  0  0  0  0
  7  8  2  0  0  0  0
  7  9  1  0  0  0  0
  9 10  1  0  0  0  0
  9 21  1  0  0  0  0
 10 15  1  0  0  0  0
 10 11  1  0  0  0  0
 10 12  1  0  0  0  0
 11 22  1  0  0  0  0
 11 23  1  0  0  0  0
 11 24  1  0  0  0  0
 12 13  1  0  0  0  0
 12 25  1  0  0  0  0
 12 26  1  0  0  0  0
 13 14  1  0  0  0  0
 13 27  1  0  0  0  0
 13 28  1  0  0  0  0
 14 15  1  0  0  0  0
 15 29  1  0  0  0  0
 15 30  1  0  0  0  0
M  END
> <s_m_source_file>
AV-unprocessed.smi

> <i_m_source_file_index>
2831

> <i_lp_mmshare_version>
43012

> <i_f3d_flags>
0

> <s_epik_input>
W0NIM11jMW5uYyhzMSlbTkhdQyg9TylbTkhdW0NAQF0yKFtDSDNdKVtDSDJdW0NIMl1PW0NIMl0y

> <s_epik_cmdline>
J2VwaWtfcHl0aG9uJywgJy1waCcsICc3LjAnLCAnLXRuJywgJzgnLCAnLW1hJywgJzIwMCcsICctbWV0YWxfYmluZGluZycsICctaW1hZScsICc8aW5maWxlLm1hZT4nLCAnLW9tYWUnLCAnPG91dGZpbGUubWFlPic=

> <r_lp_tautomer_probability>
1

> <r_epik_Ionization_Penalty>
0.00277018

> <r_epik_Ionization_Penalty_Charging>
0

> <r_epik_Ionization_Penalty_Neutral>
0.00277018

> <r_epik_State_Penalty>
-0

> <r_epik_Charging_Adjusted_Penalty>
0

> <i_epik_Tot_Q>
0

> <i_epik_Tot_abs_Q>
0

> <r_epik_Metal_State_Penalty>
0.356997

> <b_epik_Metal_Only>
0

> <s_lp_Force_Field>
OPLS_2005

> <r_lp_Energy>
14.9894

> <b_lp_Chiralities_Consistent>
1

> <s_lp_Variant>
AV-unprocessed.smi:2831-2

> <Gold.Version>
5.8.1

> <Gold.Id.Protein>
6NUR|6NUR_protein|mol2

> <Gold.PLP.Fitness>
30.0753

> <Gold.PLP.PLP>
-22.6187

> <Gold.PLP.part.hbond>
-4.7167

> <Gold.PLP.part.metal>
0.0000

> <Gold.PLP.part.buried>
-1.8675

> <Gold.PLP.part.nonpolar>
-16.8266

> <Gold.PLP.part.repulsive>
0.5269

> <Gold.PLP.ligand.clash>
0.0000

> <Gold.PLP.ligand.torsion>
0.1243

> <Gold.PLP.Chemscore.Hbond>
2.5584

> <Gold.PLP.Chemscore.CHOScore>
0.0000

> <Gold.PLP.Chemscore.Metal>
0.0000

> <Gold.Chemscore.Hbonds>
donor molecule, donor type, donor heavy atom, donor atom, acceptor molecule, acceptor atom, score
      P1  H  6931  6943       L1     4  0.79
      P1  H  6934  6947       L1     4  0.77
      P1  H  7989  7998       L1    14  1.00

> <Gold.PLP.Chemscore.Internal.Correction>
0.0300

> <Gold.Rescore>
     Score         DG    S(hbond)    S(metal)    S(lipo)     H(rot)  DE(clash)    DE(int)     intcor
     13.83     -16.63       2.53        0.00      45.04       1.00       1.49       1.31       ----

> <Gold.Chemscore.Fitness>
13.8254

> <Gold.Chemscore.DG>
-16.6277

> <Gold.Chemscore.ZeroCoef>
-5.4800

> <Gold.Chemscore.Hbond>
2.5265

> <Gold.Chemscore.Metal>
0.0000

> <Gold.Chemscore.Lipo>
45.0368

> <Gold.Chemscore.Internal_Hbond>
0.0000

> <Gold.Chemscore.DEClash>
1.4884

> <Gold.Chemscore.DEInternal>
1.3138

> <Gold.Chemscore.Rot>
1.0000

> <Gold.Chemscore.Internal.Correction>
   9.000000E+99

> <Gold.Chemscore.Hbonds>
donor molecule, donor type, donor heavy atom, donor atom, acceptor molecule, acceptor atom, score
      P1  H  6931  6943       L1     4  0.15
      P1  H  6934  6947       L1     4  0.36
      P1  H  7989  7998       L1    14  0.90

> <Gold.Chemscore.Hbond.Weighted>
-8.4383

> <Gold.Chemscore.Metal.Weighted>
-0.0000

> <Gold.Chemscore.Lipo.Weighted>
-5.2693

> <Gold.Chemscore.Internal_Hbond.Weighted>
0.0000

> <Gold.Chemscore.DEClash.Weighted>
1.4884

> <Gold.Chemscore.DEInternal.Weighted>
1.3138

> <Gold.Chemscore.Rot.Weighted>
2.5600

> <Gold.Chemscore.Internal.Correction.Weighted>
   9.000000E+99

> <Gold.Protein.RotatedTorsions>
[ 6907 6896 6895 6894 ] final -168.51 input  -60.11 | X-H torsion
[ 7974 7965 7964 7962 ] final -102.96 input  175.53 | X-H torsion
[ 8008 7997 7996 7995 ] final  131.81 input   59.86 | X-H torsion
[ 10167 10162 10161 10158 ] final  134.11 input  -65.29 | X-H torsion
[ 10718 10713 10712 10709 ] final  -79.64 input   66.30 | X-H torsion
[ 10763 10752 10751 10750 ] final -154.04 input  -60.55 | X-H torsion
[ 11005 11000 10999 10996 ] final -170.78 input  -57.11 | X-H torsion

> <Gold.Protein.ActiveResidues>
 VAL166  LYS551  ARG553  GLY616  TRP617  ASP618  TYR619  PRO620  LYS621  CYS622 
 ASP623  PHE694  ASN695  SER759  ASP760  ASP761  ALA762  ILE779  LEU786  VAL792 
 PHE793  MET794  SER795  GLU796  ALA797  LYS798  CYS799  TRP800  GLU811  SER814 

> <Gold.Protein.RotatedAtoms>
  151.4767  133.3556  159.2831 H   0  0  0  0  0  0  0  0  0  0  0  0  # atno 6907 bound_to 6896
  150.8925  134.8332  159.7314 H   0  0  0  0  0  0  0  0  0  0  0  0  # atno 6908 bound_to 6896
  152.4831  134.4678  159.9677 H   0  0  0  0  0  0  0  0  0  0  0  0  # atno 6909 bound_to 6896
  145.2620  140.9272  143.3035 H   0  0  0  0  0  0  0  0  0  0  0  0  # atno 7974 bound_to 7965
  156.2975  140.2562  156.2986 H   0  0  0  0  0  0  0  0  0  0  0  0  # atno 8008 bound_to 7997
  154.9440  140.0395  157.2129 H   0  0  0  0  0  0  0  0  0  0  0  0  # atno 8009 bound_to 7997
  154.8099  140.2842  155.5865 H   0  0  0  0  0  0  0  0  0  0  0  0  # atno 8010 bound_to 7997
  139.5269  144.6583  151.5092 H   0  0  0  0  0  0  0  0  0  0  0  0  # atno 10167 bound_to 10162
  156.0088  130.4551  150.3679 H   0  0  0  0  0  0  0  0  0  0  0  0  # atno 10718 bound_to 10713
  154.7886  135.3199  154.7829 H   0  0  0  0  0  0  0  0  0  0  0  0  # atno 10763 bound_to 10752
  153.8524  135.6861  153.4795 H   0  0  0  0  0  0  0  0  0  0  0  0  # atno 10764 bound_to 10752
  153.1547  135.4685  154.9627 H   0  0  0  0  0  0  0  0  0  0  0  0  # atno 10765 bound_to 10752
  140.5156  134.5759  157.5032 H   0  0  0  0  0  0  0  0  0  0  0  0  # atno 11005 bound_to 11000
  144.9410  139.4189  143.6449 LP  0  0  0  0  0  0  0  0  0  0  0  0  # atno 17320 bound_to 7965
  146.3272  139.8369  142.8897 LP  0  0  0  0  0  0  0  0  0  0  0  0  # atno 17321 bound_to 7965
  140.6420  143.8871  150.6700 LP  0  0  0  0  0  0  0  0  0  0  0  0  # atno 17342 bound_to 10162
  140.2208  143.3810  152.1644 LP  0  0  0  0  0  0  0  0  0  0  0  0  # atno 17343 bound_to 10162
  157.1764  131.0381  151.2770 LP  0  0  0  0  0  0  0  0  0  0  0  0  # atno 17370 bound_to 10713
  157.4184  130.7424  149.6893 LP  0  0  0  0  0  0  0  0  0  0  0  0  # atno 17371 bound_to 10713
  139.9634  134.7414  156.0189 LP  0  0  0  0  0  0  0  0  0  0  0  0  # atno 17394 bound_to 11000
  141.1362  133.6574  156.3600 LP  0  0  0  0  0  0  0  0  0  0  0  0  # atno 17395 bound_to 11000

$$$$
