AV-unprocessed.smi:1775|AV-procd|sdf|7172|dock8
  -GOLD-   22720 8413D 1   1.00000     0.00000
 Structure written by MMmdl.
 37 39  0  0  0  0  0  0  0  0  2 V2000
  150.9134  143.0316  157.4030 O   0  0  0  0  0  0  0  0  0  0  0  0
  151.6463  142.0982  157.7295 C   0  0  0  0  0  0  0  0  0  0  0  0
  151.6815  140.8851  157.1492 N   0  0  0  0  0  0  0  0  0  0  0  0
  150.9583  140.4070  156.0437 C   0  0  0  0  0  0  0  0  0  0  0  0
  149.7015  140.8084  155.7061 C   0  0  0  0  0  0  0  0  0  0  0  0
  149.0041  140.2882  154.5368 C   0  0  0  0  0  0  0  0  0  0  0  0
  147.5684  140.6379  154.1872 C   0  0  0  0  0  0  0  0  0  0  0  0
  147.4407  141.9395  153.9287 F   0  0  0  0  0  0  0  0  0  0  0  0
  147.1560  139.9544  153.1195 F   0  0  0  0  0  0  0  0  0  0  0  0
  146.7674  140.3367  155.2081 F   0  0  0  0  0  0  0  0  0  0  0  0
  149.7590  139.3597  153.8466 C   0  0  0  0  0  0  0  0  0  0  0  0
  151.0156  138.9306  154.0952 N   0  5  0  0  0  0  0  0  0  0  0  0
  151.6595  139.4262  155.1896 C   0  0  0  0  0  0  0  0  0  0  0  0
  152.8049  139.0759  155.4768 O   0  0  0  0  0  0  0  0  0  0  0  0
  152.5171  142.1600  158.7487 N   0  0  0  0  0  0  0  0  0  0  0  0
  152.7530  143.2998  159.6326 C   0  0  0  0  0  0  0  0  0  0  0  0
  153.4181  142.9267  160.9491 C   0  0  0  0  0  0  0  0  0  0  0  0
  153.3870  141.5089  161.4685 C   0  0  0  0  0  0  0  0  0  0  0  0
  152.5970  142.5908  162.1703 C   0  0  0  0  0  0  0  0  0  0  0  0
  151.5209  144.1605  159.8700 C   0  0  0  0  0  0  0  0  0  0  0  0
  151.1753  145.2997  158.9420 C   0  0  0  0  0  0  0  0  0  0  0  0
  151.6410  145.5868  160.3521 C   0  0  0  0  0  0  0  0  0  0  0  0
  152.2787  140.1965  157.5828 H   0  0  0  0  0  0  0  0  0  0  0  0
  149.1842  141.5516  156.2906 H   0  0  0  0  0  0  0  0  0  0  0  0
  149.2791  138.8877  152.9629 H   0  0  0  0  0  0  0  0  0  0  0  0
  153.0676  141.3345  158.9345 H   0  0  0  0  0  0  0  0  0  0  0  0
  153.4660  143.9196  159.0870 H   0  0  0  0  0  0  0  0  0  0  0  0
  154.3420  143.4695  161.1403 H   0  0  0  0  0  0  0  0  0  0  0  0
  152.8248  140.7689  160.9027 H   0  0  0  0  0  0  0  0  0  0  0  0
  154.2815  141.1365  161.9637 H   0  0  0  0  0  0  0  0  0  0  0  0
  152.9647  142.9404  163.1329 H   0  0  0  0  0  0  0  0  0  0  0  0
  151.5142  142.5724  162.0634 H   0  0  0  0  0  0  0  0  0  0  0  0
  150.6731  143.6083  160.2714 H   0  0  0  0  0  0  0  0  0  0  0  0
  151.8656  145.5191  158.1301 H   0  0  0  0  0  0  0  0  0  0  0  0
  150.1230  145.4586  158.7153 H   0  0  0  0  0  0  0  0  0  0  0  0
  150.8988  145.9388  161.0656 H   0  0  0  0  0  0  0  0  0  0  0  0
  152.6389  146.0035  160.4733 H   0  0  0  0  0  0  0  0  0  0  0  0
  1  2  2  0  0  0  0
  2  3  1  0  0  0  0
  2 15  1  0  0  0  0
  3  4  1  0  0  0  0
  3 23  1  0  0  0  0
  4 13  1  0  0  0  0
  4  5  2  0  0  0  0
  5  6  1  0  0  0  0
  5 24  1  0  0  0  0
  6  7  1  0  0  0  0
  6 11  2  0  0  0  0
  7  8  1  0  0  0  0
  7  9  1  0  0  0  0
  7 10  1  0  0  0  0
 11 12  1  0  0  0  0
 11 25  1  0  0  0  0
 12 13  1  0  0  0  0
 13 14  2  0  0  0  0
 15 16  1  0  0  0  0
 15 26  1  0  0  0  0
 16 17  1  0  0  0  0
 16 20  1  0  0  0  0
 16 27  1  0  0  0  0
 17 19  1  0  0  0  0
 17 18  1  0  0  0  0
 17 28  1  0  0  0  0
 18 19  1  0  0  0  0
 18 29  1  0  0  0  0
 18 30  1  0  0  0  0
 19 31  1  0  0  0  0
 19 32  1  0  0  0  0
 20 22  1  0  0  0  0
 20 21  1  0  0  0  0
 20 33  1  0  0  0  0
 21 22  1  0  0  0  0
 21 34  1  0  0  0  0
 21 35  1  0  0  0  0
 22 36  1  0  0  0  0
 22 37  1  0  0  0  0
M  CHG  1  12  -1
M  END
> <s_m_source_file>
AV-unprocessed.smi

> <i_m_source_file_index>
1775

> <i_lp_mmshare_version>
43012

> <i_f3d_flags>
0

> <s_epik_input>
W0NIMl0xW0NIMl1bQ0hdMVtDSF0oW0NIXTJbQ0gyXVtDSDJdMilbTkhdQyg9TylbTkhdYzNbY0hdYyhDKEYpKEYpRilbY0hdW25IXWMzPU8=

> <s_epik_cmdline>
J2VwaWtfcHl0aG9uJywgJy1waCcsICc3LjAnLCAnLXRuJywgJzgnLCAnLW1hJywgJzIwMCcsICctbWV0YWxfYmluZGluZycsICctaW1hZScsICc8aW5maWxlLm1hZT4nLCAnLW9tYWUnLCAnPG91dGZpbGUubWFlPic=

> <r_lp_tautomer_probability>
1

> <r_epik_Ionization_Penalty>
3.19177

> <r_epik_Ionization_Penalty_Charging>
0.180322

> <r_epik_Ionization_Penalty_Neutral>
3.01145

> <r_epik_State_Penalty>
3.00772

> <r_epik_Charging_Adjusted_Penalty>
3.18804

> <i_epik_Tot_Q>
-1

> <i_epik_Tot_abs_Q>
1

> <r_epik_Metal_State_Penalty>
0.454354

> <b_epik_Metal_Only>
1

> <s_lp_Force_Field>
OPLS_2005

> <r_lp_Energy>
38.3623

> <b_lp_Chiralities_Consistent>
1

> <s_lp_Variant>
AV-unprocessed.smi:1775-2

> <Gold.Version>
5.8.1

> <Gold.Id.Protein>
6NUR|6NUR_protein|mol2

> <Gold.PLP.Fitness>
47.4067

> <Gold.PLP.PLP>
-46.3293

> <Gold.PLP.part.hbond>
-1.6905

> <Gold.PLP.part.metal>
0.0000

> <Gold.PLP.part.buried>
-3.0265

> <Gold.PLP.part.nonpolar>
-41.9804

> <Gold.PLP.part.repulsive>
0.5128

> <Gold.PLP.ligand.clash>
0.0000

> <Gold.PLP.ligand.torsion>
2.0635

> <Gold.PLP.Chemscore.Hbond>
0.9913

> <Gold.PLP.Chemscore.CHOScore>
0.0000

> <Gold.PLP.Chemscore.Metal>
0.0000

> <Gold.Chemscore.Hbonds>
donor molecule, donor type, donor heavy atom, donor atom, acceptor molecule, acceptor atom, score
      P1  H  7997  8009       L1    14  1.00

> <Gold.PLP.Chemscore.Internal.Correction>
2.2306

> <Gold.Rescore>
     Score         DG    S(hbond)    S(metal)    S(lipo)     H(rot)  DE(clash)    DE(int)     intcor
     11.64     -18.19       1.00        0.00     112.71       1.49       1.10       5.45       ----

> <Gold.Chemscore.Fitness>
11.6368

> <Gold.Chemscore.DG>
-18.1926

> <Gold.Chemscore.ZeroCoef>
-5.4800

> <Gold.Chemscore.Hbond>
0.9972

> <Gold.Chemscore.Metal>
0.0000

> <Gold.Chemscore.Lipo>
112.7097

> <Gold.Chemscore.Internal_Hbond>
0.0000

> <Gold.Chemscore.DEClash>
1.1027

> <Gold.Chemscore.DEInternal>
5.4531

> <Gold.Chemscore.Rot>
1.4864

> <Gold.Chemscore.Internal.Correction>
   9.000000E+99

> <Gold.Chemscore.Hbonds>
donor molecule, donor type, donor heavy atom, donor atom, acceptor molecule, acceptor atom, score
      P1  H  7997  8009       L1    14  0.96

> <Gold.Chemscore.Hbond.Weighted>
-3.3307

> <Gold.Chemscore.Metal.Weighted>
-0.0000

> <Gold.Chemscore.Lipo.Weighted>
-13.1870

> <Gold.Chemscore.Internal_Hbond.Weighted>
0.0000

> <Gold.Chemscore.DEClash.Weighted>
1.1027

> <Gold.Chemscore.DEInternal.Weighted>
5.4531

> <Gold.Chemscore.Rot.Weighted>
3.8052

> <Gold.Chemscore.Internal.Correction.Weighted>
   9.000000E+99

> <Gold.Protein.RotatedTorsions>
[ 6907 6896 6895 6894 ] final   51.35 input  -60.11 | X-H torsion
[ 7974 7965 7964 7962 ] final  130.62 input  175.53 | X-H torsion
[ 8008 7997 7996 7995 ] final -152.90 input   59.86 | X-H torsion
[ 10167 10162 10161 10158 ] final   15.81 input  -65.29 | X-H torsion
[ 10718 10713 10712 10709 ] final   95.14 input   66.30 | X-H torsion
[ 10763 10752 10751 10750 ] final  -42.51 input  -60.55 | X-H torsion
[ 11005 11000 10999 10996 ] final -147.99 input  -57.11 | X-H torsion

> <Gold.Protein.ActiveResidues>
 VAL166  LYS551  ARG553  GLY616  TRP617  ASP618  TYR619  PRO620  LYS621  CYS622 
 ASP623  PHE694  ASN695  SER759  ASP760  ASP761  ALA762  ILE779  LEU786  VAL792 
 PHE793  MET794  SER795  GLU796  ALA797  LYS798  CYS799  TRP800  GLU811  SER814 

> <Gold.Protein.RotatedAtoms>
  152.3117  134.7489  160.0334 H   0  0  0  0  0  0  0  0  0  0  0  0  # atno 6907 bound_to 6896
  151.7967  133.3360  159.3523 H   0  0  0  0  0  0  0  0  0  0  0  0  # atno 6908 bound_to 6896
  150.7324  134.5722  159.5940 H   0  0  0  0  0  0  0  0  0  0  0  0  # atno 6909 bound_to 6896
  145.0160  139.4176  143.5221 H   0  0  0  0  0  0  0  0  0  0  0  0  # atno 7974 bound_to 7965
  155.6623  140.0724  157.2549 H   0  0  0  0  0  0  0  0  0  0  0  0  # atno 8008 bound_to 7997
  154.4140  140.1714  156.1841 H   0  0  0  0  0  0  0  0  0  0  0  0  # atno 8009 bound_to 7997
  155.9686  140.3364  155.6558 H   0  0  0  0  0  0  0  0  0  0  0  0  # atno 8010 bound_to 7997
  140.5841  143.8923  150.6815 H   0  0  0  0  0  0  0  0  0  0  0  0  # atno 10167 bound_to 10162
  157.6941  131.0536  150.4293 H   0  0  0  0  0  0  0  0  0  0  0  0  # atno 10718 bound_to 10713
  153.9802  135.6718  153.4750 H   0  0  0  0  0  0  0  0  0  0  0  0  # atno 10763 bound_to 10752
  153.0752  135.4952  154.8386 H   0  0  0  0  0  0  0  0  0  0  0  0  # atno 10764 bound_to 10752
  154.7169  135.3109  154.9071 H   0  0  0  0  0  0  0  0  0  0  0  0  # atno 10765 bound_to 10752
  140.7659  134.3245  157.5089 H   0  0  0  0  0  0  0  0  0  0  0  0  # atno 11005 bound_to 11000
  146.3478  139.9631  142.8715 LP  0  0  0  0  0  0  0  0  0  0  0  0  # atno 17320 bound_to 7965
  145.1959  140.9833  143.4184 LP  0  0  0  0  0  0  0  0  0  0  0  0  # atno 17321 bound_to 7965
  140.2430  143.3650  152.1471 LP  0  0  0  0  0  0  0  0  0  0  0  0  # atno 17342 bound_to 10162
  139.5187  144.7010  151.5494 LP  0  0  0  0  0  0  0  0  0  0  0  0  # atno 17343 bound_to 10162
  156.4661  130.4042  149.6546 LP  0  0  0  0  0  0  0  0  0  0  0  0  # atno 17370 bound_to 10713
  156.3644  130.7498  151.2474 LP  0  0  0  0  0  0  0  0  0  0  0  0  # atno 17371 bound_to 10713
  139.8763  134.9231  156.3316 LP  0  0  0  0  0  0  0  0  0  0  0  0  # atno 17394 bound_to 11000
  140.9619  133.7383  156.0413 LP  0  0  0  0  0  0  0  0  0  0  0  0  # atno 17395 bound_to 11000

$$$$
