AV-unprocessed.smi:1286|AV-procd|sdf|5378|dock8
  -GOLD-   22720 4523D 1   1.00000     0.00000
 Structure written by MMmdl.
 36 37  0  0  0  0  0  0  0  0  1 V2000
  147.4432  142.1676  154.8307 C   0  0  0  0  0  0  0  0  0  0  0  0
  148.6562  141.3085  155.2325 C   0  0  1  0  0  0  0  0  0  0  0  0
  149.2752  140.5344  154.0517 C   0  0  0  0  0  0  0  0  0  0  0  0
  150.1824  139.4849  154.4806 N   0  0  0  0  0  0  0  0  0  0  0  0
  149.9992  138.1198  154.4204 C   0  0  0  0  0  0  0  0  0  0  0  0
  151.1203  137.5364  154.9372 C   0  0  0  0  0  0  0  0  0  0  0  0
  151.9419  138.6416  155.2954 C   0  0  0  0  0  0  0  0  0  0  0  0
  151.3770  139.8067  155.0230 N   0  0  0  0  0  0  0  0  0  0  0  0
  149.6841  142.1476  155.8418 N   0  0  0  0  0  0  0  0  0  0  0  0
  150.5266  141.7677  156.8148 C   0  0  0  0  0  0  0  0  0  0  0  0
  150.5182  140.6440  157.3174 O   0  0  0  0  0  0  0  0  0  0  0  0
  151.5281  142.8225  157.2983 C   0  0  0  0  0  0  0  0  0  0  0  0
  151.3569  143.2106  158.7834 C   0  0  1  0  0  0  0  0  0  0  0  0
  152.4696  144.0811  159.3167 C   0  0  0  0  0  0  0  0  0  0  0  0
  152.0223  145.2023  159.8772 C   0  0  0  0  0  0  0  0  0  0  0  0
  150.5238  145.3117  159.8300 C   0  0  0  0  0  0  0  0  0  0  0  0
  150.0832  144.0541  159.0476 C   0  0  0  0  0  0  0  0  0  0  0  0
  146.6310  141.5544  154.4394 H   0  0  0  0  0  0  0  0  0  0  0  0
  147.7107  142.8947  154.0633 H   0  0  0  0  0  0  0  0  0  0  0  0
  147.0468  142.7162  155.6856 H   0  0  0  0  0  0  0  0  0  0  0  0
  148.3217  140.5742  155.9678 H   0  0  0  0  0  0  0  0  0  0  0  0
  148.4904  140.0934  153.4345 H   0  0  0  0  0  0  0  0  0  0  0  0
  149.8312  141.2160  153.4065 H   0  0  0  0  0  0  0  0  0  0  0  0
  149.0976  137.6831  154.0162 H   0  0  0  0  0  0  0  0  0  0  0  0
  151.3227  136.4812  155.0432 H   0  0  0  0  0  0  0  0  0  0  0  0
  152.9249  138.6321  155.7426 H   0  0  0  0  0  0  0  0  0  0  0  0
  149.7629  143.0922  155.4937 H   0  0  0  0  0  0  0  0  0  0  0  0
  152.5447  142.4633  157.1285 H   0  0  0  0  0  0  0  0  0  0  0  0
  151.4077  143.7086  156.6741 H   0  0  0  0  0  0  0  0  0  0  0  0
  151.3239  142.3094  159.3977 H   0  0  0  0  0  0  0  0  0  0  0  0
  153.5090  143.7937  159.2543 H   0  0  0  0  0  0  0  0  0  0  0  0
  152.6412  145.9606  160.3335 H   0  0  0  0  0  0  0  0  0  0  0  0
  150.1195  145.3201  160.8425 H   0  0  0  0  0  0  0  0  0  0  0  0
  150.2222  146.2303  159.3256 H   0  0  0  0  0  0  0  0  0  0  0  0
  149.6104  144.3519  158.1106 H   0  0  0  0  0  0  0  0  0  0  0  0
  149.3430  143.4816  159.6075 H   0  0  0  0  0  0  0  0  0  0  0  0
  1  2  1  0  0  0  0
  1 18  1  0  0  0  0
  1 19  1  0  0  0  0
  1 20  1  0  0  0  0
  2  3  1  0  0  0  0
  2  9  1  0  0  0  0
  2 21  1  0  0  0  0
  3  4  1  0  0  0  0
  3 22  1  0  0  0  0
  3 23  1  0  0  0  0
  4  8  1  0  0  0  0
  4  5  1  0  0  0  0
  5  6  2  0  0  0  0
  5 24  1  0  0  0  0
  6  7  1  0  0  0  0
  6 25  1  0  0  0  0
  7  8  2  0  0  0  0
  7 26  1  0  0  0  0
  9 10  1  0  0  0  0
  9 27  1  0  0  0  0
 10 11  2  0  0  0  0
 10 12  1  0  0  0  0
 12 13  1  0  0  0  0
 12 28  1  0  0  0  0
 12 29  1  0  0  0  0
 13 17  1  0  0  0  0
 13 14  1  0  0  0  0
 13 30  1  0  0  0  0
 14 15  2  0  0  0  0
 14 31  1  0  0  0  0
 15 16  1  0  0  0  0
 15 32  1  0  0  0  0
 16 17  1  0  0  0  0
 16 33  1  0  0  0  0
 16 34  1  0  0  0  0
 17 35  1  0  0  0  0
 17 36  1  0  0  0  0
M  END
> <s_m_source_file>
AV-unprocessed.smi

> <i_m_source_file_index>
1286

> <i_lp_mmshare_version>
43012

> <i_f3d_flags>
0

> <s_epik_input>
bjFbY0hdW2NIXVtjSF1uMVtDSDJdW0NAQEhdKFtDSDNdKVtOSF1DKD1PKVtDSDJdW0NAQEhdMltDSF09W0NIXVtDSDJdW0NIMl0y

> <s_epik_cmdline>
J2VwaWtfcHl0aG9uJywgJy1waCcsICc3LjAnLCAnLXRuJywgJzgnLCAnLW1hJywgJzIwMCcsICctbWV0YWxfYmluZGluZycsICctaW1hZScsICc8aW5maWxlLm1hZT4nLCAnLW9tYWUnLCAnPG91dGZpbGUubWFlPic=

> <r_lp_tautomer_probability>
1

> <r_epik_Ionization_Penalty>
0.000301761

> <r_epik_Ionization_Penalty_Charging>
0

> <r_epik_Ionization_Penalty_Neutral>
0.000301761

> <r_epik_State_Penalty>
-0

> <r_epik_Charging_Adjusted_Penalty>
0

> <i_epik_Tot_Q>
0

> <i_epik_Tot_abs_Q>
0

> <r_epik_Metal_State_Penalty>
-0

> <b_epik_Metal_Only>
0

> <s_lp_Force_Field>
OPLS_2005

> <r_lp_Energy>
16.9784

> <b_lp_Chiralities_Consistent>
1

> <s_lp_Variant>
AV-unprocessed.smi:1286-4

> <Gold.Version>
5.8.1

> <Gold.Id.Protein>
6NUR|6NUR_protein|mol2

> <Gold.PLP.Fitness>
47.9412

> <Gold.PLP.PLP>
-40.5561

> <Gold.PLP.part.hbond>
-1.9921

> <Gold.PLP.part.metal>
0.0000

> <Gold.PLP.part.buried>
-3.4162

> <Gold.PLP.part.nonpolar>
-35.6940

> <Gold.PLP.part.repulsive>
0.2083

> <Gold.PLP.ligand.clash>
0.0000

> <Gold.PLP.ligand.torsion>
0.6229

> <Gold.PLP.Chemscore.Hbond>
2.0000

> <Gold.PLP.Chemscore.CHOScore>
0.8644

> <Gold.PLP.Chemscore.Metal>
0.0000

> <Gold.Chemscore.Hbonds>
donor molecule, donor type, donor heavy atom, donor atom, acceptor molecule, acceptor atom, score
      L1  H     9    27       P1  8028  0.78
      P1  H  7989  7998       L1     8  0.35
      L1  C     5    24       P1  7948  0.77

> <Gold.PLP.Chemscore.Internal.Correction>
0.0376

> <Gold.Rescore>
     Score         DG    S(hbond)    S(metal)    S(lipo)     H(rot)  DE(clash)    DE(int)     intcor
     17.18     -19.47       1.97        0.00      99.11       1.64       0.03       2.26       ----

> <Gold.Chemscore.Fitness>
17.1813

> <Gold.Chemscore.DG>
-19.4657

> <Gold.Chemscore.ZeroCoef>
-5.4800

> <Gold.Chemscore.Hbond>
1.9720

> <Gold.Chemscore.Metal>
0.0000

> <Gold.Chemscore.Lipo>
99.1129

> <Gold.Chemscore.Internal_Hbond>
0.0000

> <Gold.Chemscore.DEClash>
0.0276

> <Gold.Chemscore.DEInternal>
2.2568

> <Gold.Chemscore.Rot>
1.6394

> <Gold.Chemscore.Internal.Correction>
   9.000000E+99

> <Gold.Chemscore.Hbonds>
donor molecule, donor type, donor heavy atom, donor atom, acceptor molecule, acceptor atom, score
      L1  H     9    27       P1  8028  0.78
      P1  H  7989  7998       L1     8  0.01

> <Gold.Chemscore.Hbond.Weighted>
-6.5864

> <Gold.Chemscore.Metal.Weighted>
-0.0000

> <Gold.Chemscore.Lipo.Weighted>
-11.5962

> <Gold.Chemscore.Internal_Hbond.Weighted>
0.0000

> <Gold.Chemscore.DEClash.Weighted>
0.0276

> <Gold.Chemscore.DEInternal.Weighted>
2.2568

> <Gold.Chemscore.Rot.Weighted>
4.1969

> <Gold.Chemscore.Internal.Correction.Weighted>
   9.000000E+99

> <Gold.Protein.RotatedTorsions>
[ 6907 6896 6895 6894 ] final   30.56 input  -60.11 | X-H torsion
[ 7974 7965 7964 7962 ] final  -83.50 input  175.53 | X-H torsion
[ 8008 7997 7996 7995 ] final  -99.45 input   59.86 | X-H torsion
[ 10167 10162 10161 10158 ] final  -41.07 input  -65.29 | X-H torsion
[ 10718 10713 10712 10709 ] final -121.46 input   66.30 | X-H torsion
[ 10763 10752 10751 10750 ] final   83.24 input  -60.55 | X-H torsion
[ 11005 11000 10999 10996 ] final -170.16 input  -57.11 | X-H torsion

> <Gold.Protein.ActiveResidues>
 VAL166  LYS551  ARG553  GLY616  TRP617  ASP618  TYR619  PRO620  LYS621  CYS622 
 ASP623  PHE694  ASN695  SER759  ASP760  ASP761  ALA762  ILE779  LEU786  VAL792 
 PHE793  MET794  SER795  GLU796  ALA797  LYS798  CYS799  TRP800  GLU811  SER814 

> <Gold.Protein.RotatedAtoms>
  152.0477  134.9673  160.0574 H   0  0  0  0  0  0  0  0  0  0  0  0  # atno 6907 bound_to 6896
  152.1086  133.4284  159.4629 H   0  0  0  0  0  0  0  0  0  0  0  0  # atno 6908 bound_to 6896
  150.6842  134.2594  159.4586 H   0  0  0  0  0  0  0  0  0  0  0  0  # atno 6909 bound_to 6896
  145.5192  140.9533  143.1665 H   0  0  0  0  0  0  0  0  0  0  0  0  # atno 7974 bound_to 7965
  154.8151  140.0448  157.1370 H   0  0  0  0  0  0  0  0  0  0  0  0  # atno 8008 bound_to 7997
  154.9324  140.3041  155.5141 H   0  0  0  0  0  0  0  0  0  0  0  0  # atno 8009 bound_to 7997
  156.2975  140.2320  156.4385 H   0  0  0  0  0  0  0  0  0  0  0  0  # atno 8010 bound_to 7997
  140.7014  143.3116  151.3014 H   0  0  0  0  0  0  0  0  0  0  0  0  # atno 10167 bound_to 10162
  156.1339  130.6416  150.9665 H   0  0  0  0  0  0  0  0  0  0  0  0  # atno 10718 bound_to 10713
  153.1273  135.4698  154.9293 H   0  0  0  0  0  0  0  0  0  0  0  0  # atno 10763 bound_to 10752
  154.7632  135.3137  154.8340 H   0  0  0  0  0  0  0  0  0  0  0  0  # atno 10764 bound_to 10752
  153.8890  135.6886  153.4815 H   0  0  0  0  0  0  0  0  0  0  0  0  # atno 10765 bound_to 10752
  140.5226  134.5694  157.5052 H   0  0  0  0  0  0  0  0  0  0  0  0  # atno 11005 bound_to 11000
  144.7685  139.6789  143.7204 LP  0  0  0  0  0  0  0  0  0  0  0  0  # atno 17320 bound_to 7965
  146.2117  139.5478  142.9677 LP  0  0  0  0  0  0  0  0  0  0  0  0  # atno 17321 bound_to 7965
  139.6541  144.0309  152.2647 LP  0  0  0  0  0  0  0  0  0  0  0  0  # atno 17342 bound_to 10162
  139.9855  144.6398  150.7862 LP  0  0  0  0  0  0  0  0  0  0  0  0  # atno 17343 bound_to 10162
  157.6514  131.0896  150.8042 LP  0  0  0  0  0  0  0  0  0  0  0  0  # atno 17370 bound_to 10713
  156.8124  130.4957  149.5354 LP  0  0  0  0  0  0  0  0  0  0  0  0  # atno 17371 bound_to 10713
  139.9597  134.7473  156.0263 LP  0  0  0  0  0  0  0  0  0  0  0  0  # atno 17394 bound_to 11000
  141.1326  133.6583  156.3505 LP  0  0  0  0  0  0  0  0  0  0  0  0  # atno 17395 bound_to 11000

$$$$
