AV-unprocessed.smi:1632|AV-procd|sdf|6528|dock2
  -GOLD-   22720 7203D 1   1.00000     0.00000
 Structure written by MMmdl.
 42 44  0  0  0  0  0  0  0  0  1 V2000
  151.3156  135.4977  155.6546 O   0  0  0  0  0  0  0  0  0  0  0  0
  151.0961  136.3237  156.7780 C   0  0  0  0  0  0  0  0  0  0  0  0
  152.0005  137.5630  156.7232 C   0  0  0  0  0  0  0  0  0  0  0  0
  152.1295  138.1617  155.3123 C   0  0  0  0  0  0  0  0  0  0  0  0
  150.9080  138.9319  154.8943 C   0  0  0  0  0  0  0  0  0  0  0  0
  150.0462  138.4119  154.0187 N   0  0  0  0  0  0  0  0  0  0  0  0
  149.0915  139.4003  153.8977 C   0  0  0  0  0  0  0  0  0  0  0  0
  147.9099  139.4462  153.1238 C   0  0  0  0  0  0  0  0  0  0  0  0
  147.0775  140.5840  153.1589 C   0  0  0  0  0  0  0  0  0  0  0  0
  147.4154  141.6898  153.9657 C   0  0  0  0  0  0  0  0  0  0  0  0
  148.5893  141.6641  154.7428 C   0  0  0  0  0  0  0  0  0  0  0  0
  149.4159  140.5247  154.7058 C   0  0  0  0  0  0  0  0  0  0  0  0
  150.6130  140.1873  155.3317 N   0  0  0  0  0  0  0  0  0  0  0  0
  151.3490  141.0588  156.2415 C   0  0  0  0  0  0  0  0  0  0  0  0
  151.2315  140.6205  157.7148 C   0  0  2  0  0  0  0  0  0  0  0  0
  149.8798  140.2911  157.9638 O   0  0  0  0  0  0  0  0  0  0  0  0
  151.7525  141.6679  158.6914 C   0  0  0  0  0  0  0  0  0  0  0  0
  151.2539  142.9892  158.6482 C   0  0  0  0  0  0  0  0  0  0  0  0
  151.7211  143.9576  159.5575 C   0  0  0  0  0  0  0  0  0  0  0  0
  152.6921  143.6123  160.5161 C   0  0  0  0  0  0  0  0  0  0  0  0
  153.1986  142.2993  160.5610 C   0  0  0  0  0  0  0  0  0  0  0  0
  152.7345  141.3295  159.6507 C   0  0  0  0  0  0  0  0  0  0  0  0
  153.2400  140.0737  159.7041 F   0  0  0  0  0  0  0  0  0  0  0  0
  150.4782  135.2598  155.2871 H   0  0  0  0  0  0  0  0  0  0  0  0
  150.0486  136.6259  156.7842 H   0  0  0  0  0  0  0  0  0  0  0  0
  151.2710  135.7534  157.6905 H   0  0  0  0  0  0  0  0  0  0  0  0
  151.6381  138.3177  157.4227 H   0  0  0  0  0  0  0  0  0  0  0  0
  152.9911  137.2806  157.0751 H   0  0  0  0  0  0  0  0  0  0  0  0
  153.0177  138.7863  155.2807 H   0  0  0  0  0  0  0  0  0  0  0  0
  152.2949  137.3665  154.5847 H   0  0  0  0  0  0  0  0  0  0  0  0
  147.6438  138.6043  152.5018 H   0  0  0  0  0  0  0  0  0  0  0  0
  146.1768  140.6088  152.5634 H   0  0  0  0  0  0  0  0  0  0  0  0
  146.7734  142.5582  153.9867 H   0  0  0  0  0  0  0  0  0  0  0  0
  148.8504  142.5102  155.3608 H   0  0  0  0  0  0  0  0  0  0  0  0
  152.3885  141.1562  155.9363 H   0  0  0  0  0  0  0  0  0  0  0  0
  150.9283  142.0595  156.1320 H   0  0  0  0  0  0  0  0  0  0  0  0
  151.7910  139.6951  157.8530 H   0  0  0  0  0  0  0  0  0  0  0  0
  149.7073  139.4376  157.5962 H   0  0  0  0  0  0  0  0  0  0  0  0
  150.5091  143.2645  157.9157 H   0  0  0  0  0  0  0  0  0  0  0  0
  151.3347  144.9654  159.5186 H   0  0  0  0  0  0  0  0  0  0  0  0
  153.0515  144.3545  161.2135 H   0  0  0  0  0  0  0  0  0  0  0  0
  153.9478  142.0360  161.2928 H   0  0  0  0  0  0  0  0  0  0  0  0
  1  2  1  0  0  0  0
  1 24  1  0  0  0  0
  2  3  1  0  0  0  0
  2 25  1  0  0  0  0
  2 26  1  0  0  0  0
  3  4  1  0  0  0  0
  3 27  1  0  0  0  0
  3 28  1  0  0  0  0
  4  5  1  0  0  0  0
  4 29  1  0  0  0  0
  4 30  1  0  0  0  0
  5 13  1  0  0  0  0
  5  6  2  0  0  0  0
  6  7  1  0  0  0  0
  7 12  2  0  0  0  0
  7  8  1  0  0  0  0
  8  9  2  0  0  0  0
  8 31  1  0  0  0  0
  9 10  1  0  0  0  0
  9 32  1  0  0  0  0
 10 11  2  0  0  0  0
 10 33  1  0  0  0  0
 11 12  1  0  0  0  0
 11 34  1  0  0  0  0
 12 13  1  0  0  0  0
 13 14  1  0  0  0  0
 14 15  1  0  0  0  0
 14 35  1  0  0  0  0
 14 36  1  0  0  0  0
 15 16  1  0  0  0  0
 15 17  1  0  0  0  0
 15 37  1  0  0  0  0
 16 38  1  0  0  0  0
 17 22  1  0  0  0  0
 17 18  2  0  0  0  0
 18 19  1  0  0  0  0
 18 39  1  0  0  0  0
 19 20  2  0  0  0  0
 19 40  1  0  0  0  0
 20 21  1  0  0  0  0
 20 41  1  0  0  0  0
 21 22  2  0  0  0  0
 21 42  1  0  0  0  0
 22 23  1  0  0  0  0
M  END
> <s_m_source_file>
AV-unprocessed.smi

> <i_m_source_file_index>
1632

> <i_lp_mmshare_version>
43012

> <i_f3d_flags>
0

> <s_epik_input>
W09IXVtDSDJdW0NIMl1bQ0gyXWMobjEpbihjKGMxMilbY0hdW2NIXVtjSF1bY0hdMilbQ0gyXVtDQEhdKFtPSF0pYzNbY0hdW2NIXVtjSF1bY0hdYzNG

> <s_epik_cmdline>
J2VwaWtfcHl0aG9uJywgJy1waCcsICc3LjAnLCAnLXRuJywgJzgnLCAnLW1hJywgJzIwMCcsICctbWV0YWxfYmluZGluZycsICctaW1hZScsICc8aW5maWxlLm1hZT4nLCAnLW9tYWUnLCAnPG91dGZpbGUubWFlPic=

> <r_epik_Ionization_Penalty>
0.182561

> <r_epik_Ionization_Penalty_Charging>
0

> <r_epik_Ionization_Penalty_Neutral>
0.182561

> <r_epik_State_Penalty>
0.172086

> <r_epik_Charging_Adjusted_Penalty>
0.172086

> <i_epik_Tot_Q>
0

> <i_epik_Tot_abs_Q>
0

> <r_epik_Metal_State_Penalty>
0.000199649

> <b_epik_Metal_Only>
0

> <s_lp_Force_Field>
OPLS_2005

> <r_lp_Energy>
12.9461

> <b_lp_Chiralities_Consistent>
1

> <s_lp_Variant>
AV-unprocessed.smi:1632-1

> <Gold.Version>
5.8.1

> <Gold.Id.Protein>
6NUR|6NUR_protein|mol2

> <Gold.PLP.Fitness>
48.3796

> <Gold.PLP.PLP>
-46.7687

> <Gold.PLP.part.hbond>
-1.0000

> <Gold.PLP.part.metal>
0.0000

> <Gold.PLP.part.buried>
0.3714

> <Gold.PLP.part.nonpolar>
-45.7232

> <Gold.PLP.part.repulsive>
0.2556

> <Gold.PLP.ligand.clash>
0.0000

> <Gold.PLP.ligand.torsion>
0.7279

> <Gold.PLP.Chemscore.Hbond>
1.0000

> <Gold.PLP.Chemscore.CHOScore>
0.0000

> <Gold.PLP.Chemscore.Metal>
0.0000

> <Gold.Chemscore.Hbonds>
donor molecule, donor type, donor heavy atom, donor atom, acceptor molecule, acceptor atom, score
      P1  H 10752 10764       L1     1  1.00

> <Gold.PLP.Chemscore.Internal.Correction>
0.0667

> <Gold.Rescore>
     Score         DG    S(hbond)    S(metal)    S(lipo)     H(rot)  DE(clash)    DE(int)     intcor
     15.25     -16.13       0.98        0.00     130.40       3.07       0.16       0.72       ----

> <Gold.Chemscore.Fitness>
15.2508

> <Gold.Chemscore.DG>
-16.1282

> <Gold.Chemscore.ZeroCoef>
-5.4800

> <Gold.Chemscore.Hbond>
0.9765

> <Gold.Chemscore.Metal>
0.0000

> <Gold.Chemscore.Lipo>
130.3985

> <Gold.Chemscore.Internal_Hbond>
0.0000

> <Gold.Chemscore.DEClash>
0.1589

> <Gold.Chemscore.DEInternal>
0.7185

> <Gold.Chemscore.Rot>
3.0741

> <Gold.Chemscore.Internal.Correction>
   9.000000E+99

> <Gold.Chemscore.Hbonds>
donor molecule, donor type, donor heavy atom, donor atom, acceptor molecule, acceptor atom, score
      P1  H 10752 10764       L1     1  0.97

> <Gold.Chemscore.Hbond.Weighted>
-3.2614

> <Gold.Chemscore.Metal.Weighted>
-0.0000

> <Gold.Chemscore.Lipo.Weighted>
-15.2566

> <Gold.Chemscore.Internal_Hbond.Weighted>
0.0000

> <Gold.Chemscore.DEClash.Weighted>
0.1589

> <Gold.Chemscore.DEInternal.Weighted>
0.7185

> <Gold.Chemscore.Rot.Weighted>
7.8698

> <Gold.Chemscore.Internal.Correction.Weighted>
   9.000000E+99

> <Gold.Protein.RotatedTorsions>
[ 6907 6896 6895 6894 ] final -166.47 input  -60.11 | X-H torsion
[ 7974 7965 7964 7962 ] final  -23.62 input  175.53 | X-H torsion
[ 8008 7997 7996 7995 ] final   33.33 input   59.86 | X-H torsion
[ 10167 10162 10161 10158 ] final  179.27 input  -65.29 | X-H torsion
[ 10718 10713 10712 10709 ] final   83.25 input   66.30 | X-H torsion
[ 10763 10752 10751 10750 ] final  -52.02 input  -60.55 | X-H torsion
[ 11005 11000 10999 10996 ] final    6.40 input  -57.11 | X-H torsion

> <Gold.Protein.ActiveResidues>
 VAL166  LYS551  ARG553  GLY616  TRP617  ASP618  TYR619  PRO620  LYS621  CYS622 
 ASP623  PHE694  ASN695  SER759  ASP760  ASP761  ALA762  ILE779  LEU786  VAL792 
 PHE793  MET794  SER795  GLU796  ALA797  LYS798  CYS799  TRP800  GLU811  SER814 

> <Gold.Protein.RotatedAtoms>
  151.4442  133.3635  159.2785 H   0  0  0  0  0  0  0  0  0  0  0  0  # atno 6907 bound_to 6896
  150.9136  134.8555  159.7453 H   0  0  0  0  0  0  0  0  0  0  0  0  # atno 6908 bound_to 6896
  152.4945  134.4374  159.9584 H   0  0  0  0  0  0  0  0  0  0  0  0  # atno 6909 bound_to 6896
  146.1605  140.4640  142.8573 H   0  0  0  0  0  0  0  0  0  0  0  0  # atno 7974 bound_to 7965
  155.1368  140.3262  155.4461 H   0  0  0  0  0  0  0  0  0  0  0  0  # atno 8008 bound_to 7997
  156.2617  140.2000  156.6435 H   0  0  0  0  0  0  0  0  0  0  0  0  # atno 8009 bound_to 7997
  154.6572  140.0551  157.0008 H   0  0  0  0  0  0  0  0  0  0  0  0  # atno 8010 bound_to 7997
  139.5329  144.2581  152.0729 H   0  0  0  0  0  0  0  0  0  0  0  0  # atno 10167 bound_to 10162
  157.6875  131.0082  150.2495 H   0  0  0  0  0  0  0  0  0  0  0  0  # atno 10718 bound_to 10713
  154.1359  135.6512  153.4932 H   0  0  0  0  0  0  0  0  0  0  0  0  # atno 10763 bound_to 10752
  153.0180  135.5304  154.6953 H   0  0  0  0  0  0  0  0  0  0  0  0  # atno 10764 bound_to 10752
  154.6201  135.2964  155.0306 H   0  0  0  0  0  0  0  0  0  0  0  0  # atno 10765 bound_to 10752
  140.5599  134.0202  155.7968 H   0  0  0  0  0  0  0  0  0  0  0  0  # atno 11005 bound_to 11000
  144.8021  140.6232  143.6471 LP  0  0  0  0  0  0  0  0  0  0  0  0  # atno 17320 bound_to 7965
  145.4600  139.1514  143.3871 LP  0  0  0  0  0  0  0  0  0  0  0  0  # atno 17321 bound_to 7965
  140.2047  144.4622  150.6414 LP  0  0  0  0  0  0  0  0  0  0  0  0  # atno 17342 bound_to 10162
  140.6518  143.2227  151.6059 LP  0  0  0  0  0  0  0  0  0  0  0  0  # atno 17343 bound_to 10162
  156.3094  130.3770  149.7675 LP  0  0  0  0  0  0  0  0  0  0  0  0  # atno 17370 bound_to 10713
  156.5280  130.8245  151.3227 LP  0  0  0  0  0  0  0  0  0  0  0  0  # atno 17371 bound_to 10713
  141.1121  133.9600  157.2892 LP  0  0  0  0  0  0  0  0  0  0  0  0  # atno 17394 bound_to 11000
  139.9413  135.0190  156.8716 LP  0  0  0  0  0  0  0  0  0  0  0  0  # atno 17395 bound_to 11000

$$$$
