AV-unprocessed.smi:1047|AV-procd|sdf|4583|dock5
  -GOLD-   22720 3 53D 1   1.00000     0.00000
 Structure written by MMmdl.
 58 60  0  0  0  0  0  0  0  0  4 V2000
  146.1598  143.2774  153.7396 C   0  0  0  0  0  0  0  0  0  0  0  0
  145.1653  142.7060  154.7604 C   0  0  0  0  0  0  0  0  0  0  0  0
  144.9798  141.2396  154.6196 N   0  3  2  0  0  0  0  0  0  0  0  0
  143.9962  140.6730  155.5749 C   0  0  0  0  0  0  0  0  0  0  0  0
  143.8418  139.1603  155.3524 C   0  0  0  0  0  0  0  0  0  0  0  0
  145.1107  138.5307  155.4762 O   0  0  0  0  0  0  0  0  0  0  0  0
  146.0412  138.9846  154.5002 C   0  0  2  0  0  0  0  0  0  0  0  0
  147.3280  138.1617  154.6806 C   0  0  0  0  0  0  0  0  0  0  0  0
  148.3751  138.5467  153.7114 N   0  3  0  0  0  0  0  0  0  0  0  0
  149.5448  139.2042  154.3288 C   0  0  0  0  0  0  0  0  0  0  0  0
  149.2685  140.6852  154.6436 C   0  0  2  0  0  0  0  0  0  0  0  0
  148.8653  141.3105  153.4425 O   0  0  0  0  0  0  0  0  0  0  0  0
  150.4979  141.4149  155.2252 C   0  0  0  0  0  0  0  0  0  0  0  0
  150.9682  140.8312  156.4908 N   0  0  0  0  0  0  0  0  0  0  0  0
  151.1829  139.5281  156.8213 C   0  0  0  0  0  0  0  0  0  0  0  0
  151.6288  139.4973  158.1073 N   0  3  0  0  0  0  0  0  0  0  0  0
  151.7013  140.7991  158.6072 C   0  0  0  0  0  0  0  0  0  0  0  0
  152.0956  141.2743  159.8523 C   0  0  0  0  0  0  0  0  0  0  0  0
  152.0532  142.6726  160.0520 C   0  0  0  0  0  0  0  0  0  0  0  0
  152.4776  143.2258  161.4019 C   0  0  0  0  0  0  0  0  0  0  0  0
  151.6229  143.5446  159.0187 C   0  0  0  0  0  0  0  0  0  0  0  0
  151.5770  145.0462  159.2455 C   0  0  0  0  0  0  0  0  0  0  0  0
  151.2266  143.0413  157.7590 C   0  0  0  0  0  0  0  0  0  0  0  0
  151.2770  141.6608  157.5769 C   0  0  0  0  0  0  0  0  0  0  0  0
  146.2636  140.5000  154.6992 C   0  0  0  0  0  0  0  0  0  0  0  0
  146.3415  144.3348  153.9337 H   0  0  0  0  0  0  0  0  0  0  0  0
  145.7887  143.1989  152.7179 H   0  0  0  0  0  0  0  0  0  0  0  0
  147.1203  142.7636  153.7916 H   0  0  0  0  0  0  0  0  0  0  0  0
  145.5509  142.9210  155.7579 H   0  0  0  0  0  0  0  0  0  0  0  0
  144.2032  143.2150  154.6844 H   0  0  0  0  0  0  0  0  0  0  0  0
  144.3234  140.8670  156.5977 H   0  0  0  0  0  0  0  0  0  0  0  0
  143.0251  141.1519  155.4538 H   0  0  0  0  0  0  0  0  0  0  0  0
  143.1646  138.7388  156.0954 H   0  0  0  0  0  0  0  0  0  0  0  0
  143.4096  138.9506  154.3725 H   0  0  0  0  0  0  0  0  0  0  0  0
  145.6309  138.7918  153.5069 H   0  0  0  0  0  0  0  0  0  0  0  0
  147.7068  138.2668  155.6982 H   0  0  0  0  0  0  0  0  0  0  0  0
  147.1029  137.1042  154.5347 H   0  0  0  0  0  0  0  0  0  0  0  0
  148.6936  137.7167  153.2318 H   0  0  0  0  0  0  0  0  0  0  0  0
  149.8324  138.6701  155.2358 H   0  0  0  0  0  0  0  0  0  0  0  0
  150.3833  139.1259  153.6349 H   0  0  0  0  0  0  0  0  0  0  0  0
  148.4342  140.7592  155.3426 H   0  0  0  0  0  0  0  0  0  0  0  0
  149.2474  140.8431  152.7149 H   0  0  0  0  0  0  0  0  0  0  0  0
  151.3307  141.3615  154.5230 H   0  0  0  0  0  0  0  0  0  0  0  0
  150.2953  142.4759  155.3723 H   0  0  0  0  0  0  0  0  0  0  0  0
  151.0307  138.6714  156.1804 H   0  0  0  0  0  0  0  0  0  0  0  0
  152.4209  140.6042  160.6350 H   0  0  0  0  0  0  0  0  0  0  0  0
  153.3280  143.8988  161.2900 H   0  0  0  0  0  0  0  0  0  0  0  0
  152.7717  142.4289  162.0856 H   0  0  0  0  0  0  0  0  0  0  0  0
  151.6583  143.7758  161.8655 H   0  0  0  0  0  0  0  0  0  0  0  0
  151.2412  145.5749  158.3529 H   0  0  0  0  0  0  0  0  0  0  0  0
  152.5659  145.4258  159.5039 H   0  0  0  0  0  0  0  0  0  0  0  0
  150.8892  145.2903  160.0555 H   0  0  0  0  0  0  0  0  0  0  0  0
  150.8951  143.7083  156.9771 H   0  0  0  0  0  0  0  0  0  0  0  0
  146.9477  140.8767  153.9377 H   0  0  0  0  0  0  0  0  0  0  0  0
  146.7286  140.6889  155.6683 H   0  0  0  0  0  0  0  0  0  0  0  0
  147.9740  139.1809  153.0356 H   0  0  0  0  0  0  0  0  0  0  0  0
  144.6135  141.0831  153.6912 H   0  0  0  0  0  0  0  0  0  0  0  0
  151.8680  138.6489  158.6048 H   0  0  0  0  0  0  0  0  0  0  0  0
  1  2  1  0  0  0  0
  1 26  1  0  0  0  0
  1 27  1  0  0  0  0
  1 28  1  0  0  0  0
  2  3  1  0  0  0  0
  2 29  1  0  0  0  0
  2 30  1  0  0  0  0
  3 25  1  0  0  0  0
  3  4  1  0  0  0  0
  3 57  1  0  0  0  0
  4  5  1  0  0  0  0
  4 31  1  0  0  0  0
  4 32  1  0  0  0  0
  5  6  1  0  0  0  0
  5 33  1  0  0  0  0
  5 34  1  0  0  0  0
  6  7  1  0  0  0  0
  7  8  1  0  0  0  0
  7 25  1  0  0  0  0
  7 35  1  0  0  0  0
  8  9  1  0  0  0  0
  8 36  1  0  0  0  0
  8 37  1  0  0  0  0
  9 10  1  0  0  0  0
  9 38  1  0  0  0  0
  9 56  1  0  0  0  0
 10 11  1  0  0  0  0
 10 39  1  0  0  0  0
 10 40  1  0  0  0  0
 11 12  1  0  0  0  0
 11 13  1  0  0  0  0
 11 41  1  0  0  0  0
 12 42  1  0  0  0  0
 13 14  1  0  0  0  0
 13 43  1  0  0  0  0
 13 44  1  0  0  0  0
 14 24  1  0  0  0  0
 14 15  1  0  0  0  0
 15 16  2  0  0  0  0
 15 45  1  0  0  0  0
 16 17  1  0  0  0  0
 16 58  1  0  0  0  0
 17 24  2  0  0  0  0
 17 18  1  0  0  0  0
 18 19  2  0  0  0  0
 18 46  1  0  0  0  0
 19 20  1  0  0  0  0
 19 21  1  0  0  0  0
 20 47  1  0  0  0  0
 20 48  1  0  0  0  0
 20 49  1  0  0  0  0
 21 22  1  0  0  0  0
 21 23  2  0  0  0  0
 22 50  1  0  0  0  0
 22 51  1  0  0  0  0
 22 52  1  0  0  0  0
 23 24  1  0  0  0  0
 23 53  1  0  0  0  0
 25 54  1  0  0  0  0
 25 55  1  0  0  0  0
M  CHG  1   3   1
M  CHG  1   9   1
M  CHG  1  16   1
M  END
> <s_m_source_file>
AV-unprocessed.smi

> <i_m_source_file_index>
1047

> <i_lp_mmshare_version>
43012

> <i_f3d_flags>
0

> <s_epik_input>
W0NIM11bQ0gyXU4xW0NIMl1bQ0gyXU9bQ0BIXShbQ0gyXTEpW0NIMl1bTkhdW0NIMl1bQ0BIXShbT0hdKVtDSDJdbihbY0hdbjIpYyhjMjMpW2NIXWMoW0NIM10pYyhbY0hdMylbQ0gzXQ==

> <s_epik_cmdline>
J2VwaWtfcHl0aG9uJywgJy1waCcsICc3LjAnLCAnLXRuJywgJzgnLCAnLW1hJywgJzIwMCcsICctbWV0YWxfYmluZGluZycsICctaW1hZScsICc8aW5maWxlLm1hZT4nLCAnLW9tYWUnLCAnPG91dGZpbGUubWFlPic=

> <r_epik_Ionization_Penalty>
1.6114

> <r_epik_Ionization_Penalty_Charging>
1.61139

> <r_epik_Ionization_Penalty_Neutral>
5.04732e-06

> <r_epik_State_Penalty>
1.63724

> <r_epik_Charging_Adjusted_Penalty>
3.24864

> <i_epik_Tot_Q>
3

> <i_epik_Tot_abs_Q>
3

> <r_epik_Metal_State_Penalty>
5.64594

> <b_epik_Metal_Only>
0

> <s_lp_Force_Field>
OPLS_2005

> <r_lp_Energy>
40.251

> <b_lp_Chiralities_Consistent>
1

> <s_lp_Variant>
AV-unprocessed.smi:1047-24

> <Gold.Version>
5.8.1

> <Gold.Id.Protein>
6NUR|6NUR_protein|mol2

> <Gold.PLP.Fitness>
59.6444

> <Gold.PLP.PLP>
-45.7524

> <Gold.PLP.part.hbond>
-4.4141

> <Gold.PLP.part.metal>
0.0000

> <Gold.PLP.part.buried>
-5.1973

> <Gold.PLP.part.nonpolar>
-37.0428

> <Gold.PLP.part.repulsive>
0.1360

> <Gold.PLP.ligand.clash>
0.0000

> <Gold.PLP.ligand.torsion>
0.6199

> <Gold.PLP.Chemscore.Hbond>
5.0000

> <Gold.PLP.Chemscore.CHOScore>
0.0000

> <Gold.PLP.Chemscore.Metal>
0.0000

> <Gold.Chemscore.Hbonds>
donor molecule, donor type, donor heavy atom, donor atom, acceptor molecule, acceptor atom, score
      L1  H     3    57       P1 10175  2.00
      L1  H     9    38       P1  7948  2.00
      L1  H    12    42       P1  7957  1.00

> <Gold.PLP.Chemscore.Internal.Correction>
0.1319

> <Gold.Rescore>
     Score         DG    S(hbond)    S(metal)    S(lipo)     H(rot)  DE(clash)    DE(int)     intcor
     19.60     -22.98       2.97        0.00     125.62       2.78       2.66       0.72       ----

> <Gold.Chemscore.Fitness>
19.5967

> <Gold.Chemscore.DG>
-22.9766

> <Gold.Chemscore.ZeroCoef>
-5.4800

> <Gold.Chemscore.Hbond>
2.9724

> <Gold.Chemscore.Metal>
0.0000

> <Gold.Chemscore.Lipo>
125.6215

> <Gold.Chemscore.Internal_Hbond>
0.0000

> <Gold.Chemscore.DEClash>
2.6634

> <Gold.Chemscore.DEInternal>
0.7165

> <Gold.Chemscore.Rot>
2.7848

> <Gold.Chemscore.Internal.Correction>
   9.000000E+99

> <Gold.Chemscore.Hbonds>
donor molecule, donor type, donor heavy atom, donor atom, acceptor molecule, acceptor atom, score
      L1  H     3    57       P1 10175  0.60
      L1  H     9    38       P1  7948  0.94
      L1  H    12    42       P1  7957  1.00

> <Gold.Chemscore.Hbond.Weighted>
-9.9279

> <Gold.Chemscore.Metal.Weighted>
-0.0000

> <Gold.Chemscore.Lipo.Weighted>
-14.6977

> <Gold.Chemscore.Internal_Hbond.Weighted>
0.0000

> <Gold.Chemscore.DEClash.Weighted>
2.6634

> <Gold.Chemscore.DEInternal.Weighted>
0.7165

> <Gold.Chemscore.Rot.Weighted>
7.1291

> <Gold.Chemscore.Internal.Correction.Weighted>
   9.000000E+99

> <Gold.Protein.RotatedTorsions>
[ 6907 6896 6895 6894 ] final  146.87 input  -60.11 | X-H torsion
[ 7974 7965 7964 7962 ] final  121.16 input  175.53 | X-H torsion
[ 8008 7997 7996 7995 ] final  167.93 input   59.86 | X-H torsion
[ 10167 10162 10161 10158 ] final   85.76 input  -65.29 | X-H torsion
[ 10718 10713 10712 10709 ] final   43.91 input   66.30 | X-H torsion
[ 10763 10752 10751 10750 ] final  135.11 input  -60.55 | X-H torsion
[ 11005 11000 10999 10996 ] final   38.11 input  -57.11 | X-H torsion

> <Gold.Protein.ActiveResidues>
 VAL166  LYS551  ARG553  GLY616  TRP617  ASP618  TYR619  PRO620  LYS621  CYS622 
 ASP623  PHE694  ASN695  SER759  ASP760  ASP761  ALA762  ILE779  LEU786  VAL792 
 PHE793  MET794  SER795  GLU796  ALA797  LYS798  CYS799  TRP800  GLU811  SER814 

> <Gold.Protein.RotatedAtoms>
  152.1622  133.4589  159.4866 H   0  0  0  0  0  0  0  0  0  0  0  0  # atno 6907 bound_to 6896
  150.6908  134.2057  159.4349 H   0  0  0  0  0  0  0  0  0  0  0  0  # atno 6908 bound_to 6896
  151.9960  134.9953  160.0614 H   0  0  0  0  0  0  0  0  0  0  0  0  # atno 6909 bound_to 6896
  145.1226  139.3379  143.4706 H   0  0  0  0  0  0  0  0  0  0  0  0  # atno 7974 bound_to 7965
  156.1592  140.1604  156.8642 H   0  0  0  0  0  0  0  0  0  0  0  0  # atno 8008 bound_to 7997
  154.5144  140.0793  156.8088 H   0  0  0  0  0  0  0  0  0  0  0  0  # atno 8009 bound_to 7997
  155.3742  140.3402  155.4246 H   0  0  0  0  0  0  0  0  0  0  0  0  # atno 8010 bound_to 7997
  139.8945  144.6366  150.8703 H   0  0  0  0  0  0  0  0  0  0  0  0  # atno 10167 bound_to 10162
  157.4210  130.7969  149.7515 H   0  0  0  0  0  0  0  0  0  0  0  0  # atno 10718 bound_to 10713
  153.8347  135.3099  155.3421 H   0  0  0  0  0  0  0  0  0  0  0  0  # atno 10763 bound_to 10752
  154.7958  135.4756  154.0161 H   0  0  0  0  0  0  0  0  0  0  0  0  # atno 10764 bound_to 10752
  153.1612  135.6861  153.8830 H   0  0  0  0  0  0  0  0  0  0  0  0  # atno 10765 bound_to 10752
  140.2159  134.3699  155.8027 H   0  0  0  0  0  0  0  0  0  0  0  0  # atno 11005 bound_to 11000
  146.3520  140.1192  142.8601 LP  0  0  0  0  0  0  0  0  0  0  0  0  # atno 17320 bound_to 7965
  145.0723  140.9164  143.4874 LP  0  0  0  0  0  0  0  0  0  0  0  0  # atno 17321 bound_to 7965
  140.7720  143.3484  151.2064 LP  0  0  0  0  0  0  0  0  0  0  0  0  # atno 17342 bound_to 10162
  139.7080  143.9423  152.2935 LP  0  0  0  0  0  0  0  0  0  0  0  0  # atno 17343 bound_to 10162
  155.9881  130.3962  150.3135 LP  0  0  0  0  0  0  0  0  0  0  0  0  # atno 17370 bound_to 10713
  157.1283  131.0265  151.2980 LP  0  0  0  0  0  0  0  0  0  0  0  0  # atno 17371 bound_to 10713
  141.2225  133.7167  156.8495 LP  0  0  0  0  0  0  0  0  0  0  0  0  # atno 17394 bound_to 11000
  140.1901  134.8971  157.3051 LP  0  0  0  0  0  0  0  0  0  0  0  0  # atno 17395 bound_to 11000

$$$$
