AV-unprocessed.smi:1127|AV-procd|sdf|4840|dock3
  -GOLD-   22720 3403D 1   1.00000     0.00000
 Structure written by MMmdl.
 42 43  0  0  0  0  0  0  0  0  1 V2000
  145.6716  142.8612  154.4522 C   0  0  0  0  0  0  0  0  0  0  0  0
  145.7263  141.6430  155.8496 S   0  0  2  0  0  0  0  0  0  0  0  0
  146.7218  142.1811  156.8790 O   0  0  0  0  0  0  0  0  0  0  0  0
  146.6723  140.3841  154.9217 C   0  0  0  0  0  0  0  0  0  0  0  0
  146.2218  139.1515  154.6692 N   0  0  0  0  0  0  0  0  0  0  0  0
  147.2406  138.5367  153.9665 N   0  0  0  0  0  0  0  0  0  0  0  0
  148.1939  139.4657  153.8687 C   0  0  0  0  0  0  0  0  0  0  0  0
  147.9028  140.6446  154.4412 N   0  0  0  0  0  0  0  0  0  0  0  0
  148.7175  141.8444  154.5138 C   0  0  0  0  0  0  0  0  0  0  0  0
  149.9714  141.6009  155.3528 C   0  0  0  0  0  0  0  0  0  0  0  0
  150.6284  140.5729  155.1933 O   0  0  0  0  0  0  0  0  0  0  0  0
  150.2791  142.5486  156.2514 N   0  0  0  0  0  0  0  0  0  0  0  0
  151.4086  142.5180  157.1780 C   0  0  0  0  0  0  0  0  0  0  0  0
  151.0083  141.7211  158.4411 C   0  0  0  0  0  0  0  0  0  0  0  0
  152.1049  141.4807  159.4963 C   0  0  0  0  0  0  0  0  0  0  0  0
  152.6330  142.7067  160.2689 C   0  0  0  0  0  0  0  0  0  0  0  0
  151.5749  143.7489  160.6855 C   0  0  0  0  0  0  0  0  0  0  0  0
  151.5137  144.9993  159.7842 C   0  0  0  0  0  0  0  0  0  0  0  0
  150.9610  144.8020  158.3588 C   0  0  0  0  0  0  0  0  0  0  0  0
  151.8684  143.9708  157.4272 C   0  0  0  0  0  0  0  0  0  0  0  0
  145.6329  142.3507  153.4896 H   0  0  0  0  0  0  0  0  0  0  0  0
  146.5560  143.4980  154.4720 H   0  0  0  0  0  0  0  0  0  0  0  0
  144.7887  143.4937  154.5412 H   0  0  0  0  0  0  0  0  0  0  0  0
  149.1318  139.2794  153.3664 H   0  0  0  0  0  0  0  0  0  0  0  0
  149.0050  142.1378  153.5032 H   0  0  0  0  0  0  0  0  0  0  0  0
  148.1236  142.6614  154.9258 H   0  0  0  0  0  0  0  0  0  0  0  0
  149.6783  143.3582  156.3036 H   0  0  0  0  0  0  0  0  0  0  0  0
  152.2346  141.9982  156.6891 H   0  0  0  0  0  0  0  0  0  0  0  0
  150.1328  142.1668  158.9089 H   0  0  0  0  0  0  0  0  0  0  0  0
  150.6677  140.7359  158.1203 H   0  0  0  0  0  0  0  0  0  0  0  0
  151.6950  140.7843  160.2286 H   0  0  0  0  0  0  0  0  0  0  0  0
  152.9443  140.9569  159.0380 H   0  0  0  0  0  0  0  0  0  0  0  0
  153.1110  142.3285  161.1734 H   0  0  0  0  0  0  0  0  0  0  0  0
  153.4445  143.1860  159.7236 H   0  0  0  0  0  0  0  0  0  0  0  0
  150.5899  143.2965  160.7994 H   0  0  0  0  0  0  0  0  0  0  0  0
  151.8379  144.0964  161.6852 H   0  0  0  0  0  0  0  0  0  0  0  0
  150.8822  145.7351  160.2834 H   0  0  0  0  0  0  0  0  0  0  0  0
  152.5018  145.4577  159.7305 H   0  0  0  0  0  0  0  0  0  0  0  0
  149.9472  144.4034  158.3886 H   0  0  0  0  0  0  0  0  0  0  0  0
  150.8579  145.7940  157.9177 H   0  0  0  0  0  0  0  0  0  0  0  0
  152.8978  143.9904  157.7796 H   0  0  0  0  0  0  0  0  0  0  0  0
  151.9198  144.4758  156.4610 H   0  0  0  0  0  0  0  0  0  0  0  0
  1  2  1  0  0  0  0
  1 21  1  0  0  0  0
  1 22  1  0  0  0  0
  1 23  1  0  0  0  0
  2  3  2  0  0  0  0
  2  4  1  0  0  0  0
  4  8  1  0  0  0  0
  4  5  2  0  0  0  0
  5  6  1  0  0  0  0
  6  7  2  0  0  0  0
  7  8  1  0  0  0  0
  7 24  1  0  0  0  0
  8  9  1  0  0  0  0
  9 10  1  0  0  0  0
  9 25  1  0  0  0  0
  9 26  1  0  0  0  0
 10 11  2  0  0  0  0
 10 12  1  0  0  0  0
 12 13  1  0  0  0  0
 12 27  1  0  0  0  0
 13 20  1  0  0  0  0
 13 14  1  0  0  0  0
 13 28  1  0  0  0  0
 14 15  1  0  0  0  0
 14 29  1  0  0  0  0
 14 30  1  0  0  0  0
 15 16  1  0  0  0  0
 15 31  1  0  0  0  0
 15 32  1  0  0  0  0
 16 17  1  0  0  0  0
 16 33  1  0  0  0  0
 16 34  1  0  0  0  0
 17 18  1  0  0  0  0
 17 35  1  0  0  0  0
 17 36  1  0  0  0  0
 18 19  1  0  0  0  0
 18 37  1  0  0  0  0
 18 38  1  0  0  0  0
 19 20  1  0  0  0  0
 19 39  1  0  0  0  0
 19 40  1  0  0  0  0
 20 41  1  0  0  0  0
 20 42  1  0  0  0  0
M  END
> <s_m_source_file>
AV-unprocessed.smi

> <i_m_source_file_index>
1127

> <i_lp_mmshare_version>
43012

> <i_f3d_flags>
0

> <s_epik_input>
W0NIM11bU0BdKD1PKWMxbm5bY0hdbjFbQ0gyXUMoPU8pW05IXVtDSF0yW0NIMl1bQ0gyXVtDSDJdW0NIMl1bQ0gyXVtDSDJdW0NIMl0y

> <s_epik_cmdline>
J2VwaWtfcHl0aG9uJywgJy1waCcsICc3LjAnLCAnLXRuJywgJzgnLCAnLW1hJywgJzIwMCcsICctbWV0YWxfYmluZGluZycsICctaW1hZScsICc8aW5maWxlLm1hZT4nLCAnLW9tYWUnLCAnPG91dGZpbGUubWFlPic=

> <r_lp_tautomer_probability>
1

> <r_epik_Ionization_Penalty>
7.34999e-08

> <r_epik_Ionization_Penalty_Charging>
0

> <r_epik_Ionization_Penalty_Neutral>
7.34999e-08

> <r_epik_State_Penalty>
-0

> <r_epik_Charging_Adjusted_Penalty>
0

> <i_epik_Tot_Q>
0

> <i_epik_Tot_abs_Q>
0

> <r_epik_Metal_State_Penalty>
-0

> <b_epik_Metal_Only>
0

> <s_lp_Force_Field>
OPLS_2005

> <r_lp_Energy>
17.7529

> <b_lp_Chiralities_Consistent>
1

> <s_lp_Variant>
AV-unprocessed.smi:1127-1

> <Gold.Version>
5.8.1

> <Gold.Id.Protein>
6NUR|6NUR_protein|mol2

> <Gold.PLP.Fitness>
44.8257

> <Gold.PLP.PLP>
-38.4359

> <Gold.PLP.part.hbond>
-2.0000

> <Gold.PLP.part.metal>
0.0000

> <Gold.PLP.part.buried>
-4.0600

> <Gold.PLP.part.nonpolar>
-32.7261

> <Gold.PLP.part.repulsive>
0.5326

> <Gold.PLP.ligand.clash>
0.0000

> <Gold.PLP.ligand.torsion>
1.5650

> <Gold.PLP.Chemscore.Hbond>
1.9760

> <Gold.PLP.Chemscore.CHOScore>
0.8508

> <Gold.PLP.Chemscore.Metal>
0.0000

> <Gold.Chemscore.Hbonds>
donor molecule, donor type, donor heavy atom, donor atom, acceptor molecule, acceptor atom, score
      L1  H    12    27       P1  8028  1.00
      P1  H  7989  7998       L1    11  0.96
      L1  C     7    24       P1  7957  0.87

> <Gold.PLP.Chemscore.Internal.Correction>
1.0397

> <Gold.Rescore>
     Score         DG    S(hbond)    S(metal)    S(lipo)     H(rot)  DE(clash)    DE(int)     intcor
     15.70     -17.73       1.58        0.00      96.79       1.70       0.37       1.66       ----

> <Gold.Chemscore.Fitness>
15.6988

> <Gold.Chemscore.DG>
-17.7275

> <Gold.Chemscore.ZeroCoef>
-5.4800

> <Gold.Chemscore.Hbond>
1.5827

> <Gold.Chemscore.Metal>
0.0000

> <Gold.Chemscore.Lipo>
96.7913

> <Gold.Chemscore.Internal_Hbond>
0.0000

> <Gold.Chemscore.DEClash>
0.3674

> <Gold.Chemscore.DEInternal>
1.6613

> <Gold.Chemscore.Rot>
1.7044

> <Gold.Chemscore.Internal.Correction>
   9.000000E+99

> <Gold.Chemscore.Hbonds>
donor molecule, donor type, donor heavy atom, donor atom, acceptor molecule, acceptor atom, score
      L1  H    12    27       P1  8028  0.98
      P1  H  7989  7998       L1    11  0.40

> <Gold.Chemscore.Hbond.Weighted>
-5.2861

> <Gold.Chemscore.Metal.Weighted>
-0.0000

> <Gold.Chemscore.Lipo.Weighted>
-11.3246

> <Gold.Chemscore.Internal_Hbond.Weighted>
0.0000

> <Gold.Chemscore.DEClash.Weighted>
0.3674

> <Gold.Chemscore.DEInternal.Weighted>
1.6613

> <Gold.Chemscore.Rot.Weighted>
4.3631

> <Gold.Chemscore.Internal.Correction.Weighted>
   9.000000E+99

> <Gold.Protein.RotatedTorsions>
[ 6907 6896 6895 6894 ] final   -2.07 input  -60.11 | X-H torsion
[ 7974 7965 7964 7962 ] final -159.66 input  175.53 | X-H torsion
[ 8008 7997 7996 7995 ] final -170.33 input   59.86 | X-H torsion
[ 10167 10162 10161 10158 ] final -109.58 input  -65.29 | X-H torsion
[ 10718 10713 10712 10709 ] final -155.66 input   66.30 | X-H torsion
[ 10763 10752 10751 10750 ] final   56.74 input  -60.55 | X-H torsion
[ 11005 11000 10999 10996 ] final    7.11 input  -57.11 | X-H torsion

> <Gold.Protein.ActiveResidues>
 VAL166  LYS551  ARG553  GLY616  TRP617  ASP618  TYR619  PRO620  LYS621  CYS622 
 ASP623  PHE694  ASN695  SER759  ASP760  ASP761  ALA762  ILE779  LEU786  VAL792 
 PHE793  MET794  SER795  GLU796  ALA797  LYS798  CYS799  TRP800  GLU811  SER814 

> <Gold.Protein.RotatedAtoms>
  151.5359  135.1068  159.9913 H   0  0  0  0  0  0  0  0  0  0  0  0  # atno 6907 bound_to 6896
  152.4558  133.7715  159.6812 H   0  0  0  0  0  0  0  0  0  0  0  0  # atno 6908 bound_to 6896
  150.8501  133.7735  159.3053 H   0  0  0  0  0  0  0  0  0  0  0  0  # atno 6909 bound_to 6896
  144.7456  140.3653  143.6087 H   0  0  0  0  0  0  0  0  0  0  0  0  # atno 7974 bound_to 7965
  155.9169  140.1067  157.1237 H   0  0  0  0  0  0  0  0  0  0  0  0  # atno 8008 bound_to 7997
  154.4048  140.1263  156.4693 H   0  0  0  0  0  0  0  0  0  0  0  0  # atno 8009 bound_to 7997
  155.7243  140.3469  155.5032 H   0  0  0  0  0  0  0  0  0  0  0  0  # atno 8010 bound_to 7997
  140.1538  143.4177  152.1476 H   0  0  0  0  0  0  0  0  0  0  0  0  # atno 10167 bound_to 10162
  156.5159  130.8456  151.2664 H   0  0  0  0  0  0  0  0  0  0  0  0  # atno 10718 bound_to 10713
  152.9837  135.5666  154.5278 H   0  0  0  0  0  0  0  0  0  0  0  0  # atno 10763 bound_to 10752
  154.4755  135.2786  155.1612 H   0  0  0  0  0  0  0  0  0  0  0  0  # atno 10764 bound_to 10752
  154.3143  135.6282  153.5532 H   0  0  0  0  0  0  0  0  0  0  0  0  # atno 10765 bound_to 10752
  140.5520  134.0274  155.7940 H   0  0  0  0  0  0  0  0  0  0  0  0  # atno 11005 bound_to 11000
  145.7135  139.1691  143.2525 LP  0  0  0  0  0  0  0  0  0  0  0  0  # atno 17320 bound_to 7965
  146.1330  140.7161  142.9403 LP  0  0  0  0  0  0  0  0  0  0  0  0  # atno 17321 bound_to 7965
  139.5413  144.7259  151.4724 LP  0  0  0  0  0  0  0  0  0  0  0  0  # atno 17342 bound_to 10162
  140.6686  143.8343  150.6972 LP  0  0  0  0  0  0  0  0  0  0  0  0  # atno 17343 bound_to 10162
  157.7444  130.9934  150.2669 LP  0  0  0  0  0  0  0  0  0  0  0  0  # atno 17370 bound_to 10713
  156.3195  130.3784  149.7588 LP  0  0  0  0  0  0  0  0  0  0  0  0  # atno 17371 bound_to 10713
  141.1166  133.9530  157.2810 LP  0  0  0  0  0  0  0  0  0  0  0  0  # atno 17394 bound_to 11000
  139.9450  135.0185  156.8826 LP  0  0  0  0  0  0  0  0  0  0  0  0  # atno 17395 bound_to 11000

$$$$
