AV-unprocessed.smi:1926|AV-procd|sdf|7795|dock2
  -GOLD-   22720 9533D 1   1.00000     0.00000
 Structure written by MMmdl.
 35 36  0  0  0  0  0  0  0  0  1 V2000
  151.6989  138.3139  154.5020 C   0  0  0  0  0  0  0  0  0  0  0  0
  150.3420  138.2340  154.0793 O   0  0  0  0  0  0  0  0  0  0  0  0
  149.5523  139.3640  154.1781 C   0  0  0  0  0  0  0  0  0  0  0  0
  150.1058  140.4942  154.6855 N   0  0  0  0  0  0  0  0  0  0  0  0
  149.3362  141.5970  154.7877 C   0  0  0  0  0  0  0  0  0  0  0  0
  147.9841  141.6306  154.4014 C   0  0  0  0  0  0  0  0  0  0  0  0
  147.4073  140.4596  153.8756 C   0  0  0  0  0  0  0  0  0  0  0  0
  148.2069  139.2976  153.7458 C   0  0  0  0  0  0  0  0  0  0  0  0
  147.7264  138.0572  153.2400 N   0  0  0  0  0  0  0  0  0  0  0  0
  146.4695  137.5813  153.2262 C   0  0  0  0  0  0  0  0  0  0  0  0
  145.4808  138.1638  153.6705 O   0  0  0  0  0  0  0  0  0  0  0  0
  146.4175  136.3767  152.6402 N   0  0  0  0  0  0  0  0  0  0  0  0
  145.2114  135.5762  152.4509 C   0  0  0  0  0  0  0  0  0  0  0  0
  145.3282  134.6375  151.2351 C   0  0  1  0  0  0  0  0  0  0  0  0
  146.5648  133.7624  151.2552 C   0  0  0  0  0  0  0  0  0  0  0  0
  146.1996  132.6718  150.2520 C   0  0  0  0  0  0  0  0  0  0  0  0
  144.7831  132.5353  150.3214 O   0  0  0  0  0  0  0  0  0  0  0  0
  144.2308  133.5776  151.1199 C   0  0  0  0  0  0  0  0  0  0  0  0
  152.1778  137.3451  154.3618 H   0  0  0  0  0  0  0  0  0  0  0  0
  151.7734  138.5688  155.5601 H   0  0  0  0  0  0  0  0  0  0  0  0
  152.2568  139.0460  153.9163 H   0  0  0  0  0  0  0  0  0  0  0  0
  149.8107  142.4772  155.1955 H   0  0  0  0  0  0  0  0  0  0  0  0
  147.4010  142.5332  154.5096 H   0  0  0  0  0  0  0  0  0  0  0  0
  146.3654  140.4758  153.5978 H   0  0  0  0  0  0  0  0  0  0  0  0
  148.4181  137.4912  152.7704 H   0  0  0  0  0  0  0  0  0  0  0  0
  147.2808  135.9798  152.2995 H   0  0  0  0  0  0  0  0  0  0  0  0
  145.0678  134.9824  153.3538 H   0  0  0  0  0  0  0  0  0  0  0  0
  144.3297  136.2136  152.3636 H   0  0  0  0  0  0  0  0  0  0  0  0
  145.3416  135.2303  150.3186 H   0  0  0  0  0  0  0  0  0  0  0  0
  147.4749  134.2986  150.9852 H   0  0  0  0  0  0  0  0  0  0  0  0
  146.7067  133.3258  152.2451 H   0  0  0  0  0  0  0  0  0  0  0  0
  146.4678  132.9797  149.2408 H   0  0  0  0  0  0  0  0  0  0  0  0
  146.7024  131.7276  150.4627 H   0  0  0  0  0  0  0  0  0  0  0  0
  143.9882  133.1654  152.1004 H   0  0  0  0  0  0  0  0  0  0  0  0
  143.3126  133.9697  150.6820 H   0  0  0  0  0  0  0  0  0  0  0  0
  1  2  1  0  0  0  0
  1 19  1  0  0  0  0
  1 20  1  0  0  0  0
  1 21  1  0  0  0  0
  2  3  1  0  0  0  0
  3  8  1  0  0  0  0
  3  4  2  0  0  0  0
  4  5  1  0  0  0  0
  5  6  2  0  0  0  0
  5 22  1  0  0  0  0
  6  7  1  0  0  0  0
  6 23  1  0  0  0  0
  7  8  2  0  0  0  0
  7 24  1  0  0  0  0
  8  9  1  0  0  0  0
  9 10  1  0  0  0  0
  9 25  1  0  0  0  0
 10 11  2  0  0  0  0
 10 12  1  0  0  0  0
 12 13  1  0  0  0  0
 12 26  1  0  0  0  0
 13 14  1  0  0  0  0
 13 27  1  0  0  0  0
 13 28  1  0  0  0  0
 14 18  1  0  0  0  0
 14 15  1  0  0  0  0
 14 29  1  0  0  0  0
 15 16  1  0  0  0  0
 15 30  1  0  0  0  0
 15 31  1  0  0  0  0
 16 17  1  0  0  0  0
 16 32  1  0  0  0  0
 16 33  1  0  0  0  0
 17 18  1  0  0  0  0
 18 34  1  0  0  0  0
 18 35  1  0  0  0  0
M  END
> <s_m_source_file>
AV-unprocessed.smi

> <i_m_source_file_index>
1926

> <i_lp_mmshare_version>
43012

> <i_f3d_flags>
0

> <s_epik_input>
W0NIM11PYzFuW2NIXVtjSF1bY0hdYzFbTkhdQyg9TylbTkhdW0NIMl1bQ0BASF0yW0NIMl1bQ0gyXU9bQ0gyXTI=

> <s_epik_cmdline>
J2VwaWtfcHl0aG9uJywgJy1waCcsICc3LjAnLCAnLXRuJywgJzgnLCAnLW1hJywgJzIwMCcsICctbWV0YWxfYmluZGluZycsICctaW1hZScsICc8aW5maWxlLm1hZT4nLCAnLW9tYWUnLCAnPG91dGZpbGUubWFlPic=

> <r_lp_tautomer_probability>
1

> <r_epik_Ionization_Penalty>
9.48928e-05

> <r_epik_Ionization_Penalty_Charging>
0

> <r_epik_Ionization_Penalty_Neutral>
9.48928e-05

> <r_epik_State_Penalty>
-0

> <r_epik_Charging_Adjusted_Penalty>
0

> <i_epik_Tot_Q>
0

> <i_epik_Tot_abs_Q>
0

> <r_epik_Metal_State_Penalty>
-0

> <b_epik_Metal_Only>
0

> <s_lp_Force_Field>
OPLS_2005

> <r_lp_Energy>
22.4817

> <b_lp_Chiralities_Consistent>
1

> <s_lp_Variant>
AV-unprocessed.smi:1926-2

> <Gold.Version>
5.8.1

> <Gold.Id.Protein>
6NUR|6NUR_protein|mol2

> <Gold.PLP.Fitness>
41.6189

> <Gold.PLP.PLP>
-30.6348

> <Gold.PLP.part.hbond>
-3.0000

> <Gold.PLP.part.metal>
0.0000

> <Gold.PLP.part.buried>
-3.0969

> <Gold.PLP.part.nonpolar>
-25.6197

> <Gold.PLP.part.repulsive>
0.9463

> <Gold.PLP.ligand.clash>
0.0000

> <Gold.PLP.ligand.torsion>
0.3697

> <Gold.PLP.Chemscore.Hbond>
2.9200

> <Gold.PLP.Chemscore.CHOScore>
0.9827

> <Gold.PLP.Chemscore.Metal>
0.0000

> <Gold.Chemscore.Hbonds>
donor molecule, donor type, donor heavy atom, donor atom, acceptor molecule, acceptor atom, score
      L1  H     9    25       P1  7948  1.00
      L1  H    12    26       P1  7948  0.98
      P1  H  7989  7998       L1     4  0.93
      L1  C     5    22       P1  8028  1.00

> <Gold.PLP.Chemscore.Internal.Correction>
0.0155

> <Gold.Rescore>
     Score         DG    S(hbond)    S(metal)    S(lipo)     H(rot)  DE(clash)    DE(int)     intcor
     15.57     -17.27       2.42        0.00      64.37       1.50       0.31       1.38       ----

> <Gold.Chemscore.Fitness>
15.5749

> <Gold.Chemscore.DG>
-17.2673

> <Gold.Chemscore.ZeroCoef>
-5.4800

> <Gold.Chemscore.Hbond>
2.4219

> <Gold.Chemscore.Metal>
0.0000

> <Gold.Chemscore.Lipo>
64.3661

> <Gold.Chemscore.Internal_Hbond>
0.0000

> <Gold.Chemscore.DEClash>
0.3137

> <Gold.Chemscore.DEInternal>
1.3787

> <Gold.Chemscore.Rot>
1.4971

> <Gold.Chemscore.Internal.Correction>
   9.000000E+99

> <Gold.Chemscore.Hbonds>
donor molecule, donor type, donor heavy atom, donor atom, acceptor molecule, acceptor atom, score
      L1  H     9    25       P1  7948  0.98
      L1  H    12    26       P1  7948  0.93
      P1  H  7989  7998       L1     4  0.31

> <Gold.Chemscore.Hbond.Weighted>
-8.0890

> <Gold.Chemscore.Metal.Weighted>
-0.0000

> <Gold.Chemscore.Lipo.Weighted>
-7.5308

> <Gold.Chemscore.Internal_Hbond.Weighted>
0.0000

> <Gold.Chemscore.DEClash.Weighted>
0.3137

> <Gold.Chemscore.DEInternal.Weighted>
1.3787

> <Gold.Chemscore.Rot.Weighted>
3.8326

> <Gold.Chemscore.Internal.Correction.Weighted>
   9.000000E+99

> <Gold.Protein.RotatedTorsions>
[ 6907 6896 6895 6894 ] final  -50.28 input  -60.11 | X-H torsion
[ 7974 7965 7964 7962 ] final -149.04 input  175.53 | X-H torsion
[ 8008 7997 7996 7995 ] final   84.58 input   59.86 | X-H torsion
[ 10167 10162 10161 10158 ] final   43.02 input  -65.29 | X-H torsion
[ 10718 10713 10712 10709 ] final   -1.73 input   66.30 | X-H torsion
[ 10763 10752 10751 10750 ] final   20.87 input  -60.55 | X-H torsion
[ 11005 11000 10999 10996 ] final  -93.10 input  -57.11 | X-H torsion

> <Gold.Protein.ActiveResidues>
 VAL166  LYS551  ARG553  GLY616  TRP617  ASP618  TYR619  PRO620  LYS621  CYS622 
 ASP623  PHE694  ASN695  SER759  ASP760  ASP761  ALA762  ILE779  LEU786  VAL792 
 PHE793  MET794  SER795  GLU796  ALA797  LYS798  CYS799  TRP800  GLU811  SER814 

> <Gold.Protein.RotatedAtoms>
  150.8723  134.8099  159.7163 H   0  0  0  0  0  0  0  0  0  0  0  0  # atno 6907 bound_to 6896
  152.4723  134.4927  159.9710 H   0  0  0  0  0  0  0  0  0  0  0  0  # atno 6908 bound_to 6896
  151.5014  133.3465  159.2905 H   0  0  0  0  0  0  0  0  0  0  0  0  # atno 6909 bound_to 6896
  144.7992  140.5118  143.5719 H   0  0  0  0  0  0  0  0  0  0  0  0  # atno 7974 bound_to 7965
  155.9389  140.3409  155.6311 H   0  0  0  0  0  0  0  0  0  0  0  0  # atno 8008 bound_to 7997
  155.7064  140.0766  157.2407 H   0  0  0  0  0  0  0  0  0  0  0  0  # atno 8009 bound_to 7997
  154.4099  140.1630  156.2235 H   0  0  0  0  0  0  0  0  0  0  0  0  # atno 8010 bound_to 7997
  140.3485  144.2380  150.6148 H   0  0  0  0  0  0  0  0  0  0  0  0  # atno 10167 bound_to 10162
  156.8013  130.5394  149.5721 H   0  0  0  0  0  0  0  0  0  0  0  0  # atno 10718 bound_to 10713
  153.1042  135.6680  153.9618 H   0  0  0  0  0  0  0  0  0  0  0  0  # atno 10763 bound_to 10752
  153.9180  135.3017  155.3449 H   0  0  0  0  0  0  0  0  0  0  0  0  # atno 10764 bound_to 10752
  154.7463  135.5056  153.9285 H   0  0  0  0  0  0  0  0  0  0  0  0  # atno 10765 bound_to 10752
  141.1505  133.7865  157.0113 H   0  0  0  0  0  0  0  0  0  0  0  0  # atno 11005 bound_to 11000
  145.5596  139.1479  143.3349 LP  0  0  0  0  0  0  0  0  0  0  0  0  # atno 17320 bound_to 7965
  146.2269  140.5732  142.8992 LP  0  0  0  0  0  0  0  0  0  0  0  0  # atno 17321 bound_to 7965
  140.5241  143.2258  151.8342 LP  0  0  0  0  0  0  0  0  0  0  0  0  # atno 17342 bound_to 10162
  139.4830  144.4800  151.9318 LP  0  0  0  0  0  0  0  0  0  0  0  0  # atno 17343 bound_to 10162
  156.1099  130.6033  151.0031 LP  0  0  0  0  0  0  0  0  0  0  0  0  # atno 17370 bound_to 10713
  157.6552  131.0890  150.7962 LP  0  0  0  0  0  0  0  0  0  0  0  0  # atno 17371 bound_to 10713
  140.0876  134.9612  157.1724 LP  0  0  0  0  0  0  0  0  0  0  0  0  # atno 17394 bound_to 11000
  140.3490  134.2619  155.7201 LP  0  0  0  0  0  0  0  0  0  0  0  0  # atno 17395 bound_to 11000

$$$$
