AV-unprocessed.smi:896|AV-procd|sdf|4078|dock7
  -GOLD-   22720 1563D 1   1.00000     0.00000
 Structure written by MMmdl.
 49 50  0  0  0  0  0  0  0  0  2 V2000
  151.2314  142.8182  157.7915 C   0  0  0  0  0  0  0  0  0  0  0  0
  151.6412  141.5140  157.3944 O   0  0  0  0  0  0  0  0  0  0  0  0
  150.9405  140.8869  156.3845 C   0  0  0  0  0  0  0  0  0  0  0  0
  149.7495  141.4782  155.9211 C   0  0  0  0  0  0  0  0  0  0  0  0
  149.0320  140.8436  154.8900 C   0  0  0  0  0  0  0  0  0  0  0  0
  149.5326  139.6379  154.3436 C   0  0  0  0  0  0  0  0  0  0  0  0
  148.8626  138.9167  153.3171 N   0  0  0  0  0  0  0  0  0  0  0  0
  147.6166  139.1071  152.8522 C   0  0  0  0  0  0  0  0  0  0  0  0
  146.8322  139.9677  153.2532 O   0  0  0  0  0  0  0  0  0  0  0  0
  147.3310  138.2515  151.8601 N   0  0  0  0  0  0  0  0  0  0  0  0
  146.0746  138.2250  151.1207 C   0  0  0  0  0  0  0  0  0  0  0  0
  145.7315  136.7986  150.6516 C   0  0  0  0  0  0  0  0  0  0  0  0
  145.0266  135.9311  151.7192 C   0  0  2  0  0  0  0  0  0  0  0  0
  146.0023  134.9531  152.4028 C   0  0  0  0  0  0  0  0  0  0  0  0
  146.4059  133.7906  151.4768 C   0  0  0  0  0  0  0  0  0  0  0  0
  145.2124  133.0648  150.9752 N   0  3  2  0  0  0  0  0  0  0  0  0
  145.5745  131.8836  150.1628 C   0  0  0  0  0  0  0  0  0  0  0  0
  144.2615  133.9624  150.2733 C   0  0  0  0  0  0  0  0  0  0  0  0
  143.8244  135.1252  151.1823 C   0  0  0  0  0  0  0  0  0  0  0  0
  150.7303  139.1155  154.8883 C   0  0  0  0  0  0  0  0  0  0  0  0
  151.3328  137.8186  154.3772 C   0  0  0  0  0  0  0  0  0  0  0  0
  151.4196  139.7241  155.8783 N   0  0  0  0  0  0  0  0  0  0  0  0
  151.8774  143.1704  158.5957 H   0  0  0  0  0  0  0  0  0  0  0  0
  150.2070  142.8179  158.1668 H   0  0  0  0  0  0  0  0  0  0  0  0
  151.3112  143.5294  156.9681 H   0  0  0  0  0  0  0  0  0  0  0  0
  149.3892  142.4006  156.3525 H   0  0  0  0  0  0  0  0  0  0  0  0
  148.1071  141.2825  154.5478 H   0  0  0  0  0  0  0  0  0  0  0  0
  149.4242  138.2373  152.8250 H   0  0  0  0  0  0  0  0  0  0  0  0
  148.0332  137.5767  151.5935 H   0  0  0  0  0  0  0  0  0  0  0  0
  145.2871  138.6032  151.7728 H   0  0  0  0  0  0  0  0  0  0  0  0
  146.1400  138.9155  150.2796 H   0  0  0  0  0  0  0  0  0  0  0  0
  145.1263  136.8460  149.7468 H   0  0  0  0  0  0  0  0  0  0  0  0
  146.6603  136.3072  150.3582 H   0  0  0  0  0  0  0  0  0  0  0  0
  144.6570  136.6118  152.4874 H   0  0  0  0  0  0  0  0  0  0  0  0
  146.8915  135.4821  152.7476 H   0  0  0  0  0  0  0  0  0  0  0  0
  145.5311  134.5448  153.2978 H   0  0  0  0  0  0  0  0  0  0  0  0
  146.9942  134.1579  150.6350 H   0  0  0  0  0  0  0  0  0  0  0  0
  147.0453  133.0979  152.0255 H   0  0  0  0  0  0  0  0  0  0  0  0
  146.1061  132.1799  149.2575 H   0  0  0  0  0  0  0  0  0  0  0  0
  144.6822  131.3294  149.8697 H   0  0  0  0  0  0  0  0  0  0  0  0
  146.2145  131.2070  150.7299 H   0  0  0  0  0  0  0  0  0  0  0  0
  144.7166  134.3408  149.3571 H   0  0  0  0  0  0  0  0  0  0  0  0
  143.3824  133.3916  149.9716 H   0  0  0  0  0  0  0  0  0  0  0  0
  143.2670  134.7184  152.0273 H   0  0  0  0  0  0  0  0  0  0  0  0
  143.1222  135.7689  150.6544 H   0  0  0  0  0  0  0  0  0  0  0  0
  151.5354  137.8891  153.3081 H   0  0  0  0  0  0  0  0  0  0  0  0
  150.6450  136.9894  154.5448 H   0  0  0  0  0  0  0  0  0  0  0  0
  152.2711  137.5851  154.8821 H   0  0  0  0  0  0  0  0  0  0  0  0
  144.7278  132.7147  151.7893 H   0  0  0  0  0  0  0  0  0  0  0  0
  1  2  1  0  0  0  0
  1 23  1  0  0  0  0
  1 24  1  0  0  0  0
  1 25  1  0  0  0  0
  2  3  1  0  0  0  0
  3 22  1  0  0  0  0
  3  4  2  0  0  0  0
  4  5  1  0  0  0  0
  4 26  1  0  0  0  0
  5  6  2  0  0  0  0
  5 27  1  0  0  0  0
  6  7  1  0  0  0  0
  6 20  1  0  0  0  0
  7  8  1  0  0  0  0
  7 28  1  0  0  0  0
  8  9  2  0  0  0  0
  8 10  1  0  0  0  0
 10 11  1  0  0  0  0
 10 29  1  0  0  0  0
 11 12  1  0  0  0  0
 11 30  1  0  0  0  0
 11 31  1  0  0  0  0
 12 13  1  0  0  0  0
 12 32  1  0  0  0  0
 12 33  1  0  0  0  0
 13 19  1  0  0  0  0
 13 14  1  0  0  0  0
 13 34  1  0  0  0  0
 14 15  1  0  0  0  0
 14 35  1  0  0  0  0
 14 36  1  0  0  0  0
 15 16  1  0  0  0  0
 15 37  1  0  0  0  0
 15 38  1  0  0  0  0
 16 17  1  0  0  0  0
 16 18  1  0  0  0  0
 16 49  1  0  0  0  0
 17 39  1  0  0  0  0
 17 40  1  0  0  0  0
 17 41  1  0  0  0  0
 18 19  1  0  0  0  0
 18 42  1  0  0  0  0
 18 43  1  0  0  0  0
 19 44  1  0  0  0  0
 19 45  1  0  0  0  0
 20 21  1  0  0  0  0
 20 22  2  0  0  0  0
 21 46  1  0  0  0  0
 21 47  1  0  0  0  0
 21 48  1  0  0  0  0
M  CHG  1  16   1
M  END
> <s_m_source_file>
AV-unprocessed.smi

> <i_m_source_file_index>
896

> <i_lp_mmshare_version>
43012

> <i_f3d_flags>
0

> <s_epik_input>
W0NIM11PYzFbY0hdW2NIXWMoYyhuMSlbQ0gzXSlbTkhdQyg9TylbTkhdW0NIMl1bQ0gyXVtDSF0yW0NIMl1bQ0gyXU4oW0NIM10pW0NIMl1bQ0gyXTI=

> <s_epik_cmdline>
J2VwaWtfcHl0aG9uJywgJy1waCcsICc3LjAnLCAnLXRuJywgJzgnLCAnLW1hJywgJzIwMCcsICctbWV0YWxfYmluZGluZycsICctaW1hZScsICc8aW5maWxlLm1hZT4nLCAnLW9tYWUnLCAnPG91dGZpbGUubWFlPic=

> <r_lp_tautomer_probability>
1

> <r_epik_Ionization_Penalty>
0.000968128

> <r_epik_Ionization_Penalty_Charging>
0.000718523

> <r_epik_Ionization_Penalty_Neutral>
0.000249604

> <r_epik_State_Penalty>
0.00045807

> <r_epik_Charging_Adjusted_Penalty>
0.00117659

> <i_epik_Tot_Q>
1

> <i_epik_Tot_abs_Q>
1

> <r_epik_Metal_State_Penalty>
-0

> <b_epik_Metal_Only>
0

> <s_lp_Force_Field>
OPLS_2005

> <r_lp_Energy>
21.0963

> <b_lp_Chiralities_Consistent>
1

> <s_lp_Variant>
AV-unprocessed.smi:896-2

> <Gold.Version>
5.8.1

> <Gold.Id.Protein>
6NUR|6NUR_protein|mol2

> <Gold.PLP.Fitness>
40.6258

> <Gold.PLP.PLP>
-39.0816

> <Gold.PLP.part.hbond>
-3.7661

> <Gold.PLP.part.metal>
0.0000

> <Gold.PLP.part.buried>
4.3776

> <Gold.PLP.part.nonpolar>
-41.7862

> <Gold.PLP.part.repulsive>
0.8055

> <Gold.PLP.ligand.clash>
0.4781

> <Gold.PLP.ligand.torsion>
1.0176

> <Gold.PLP.Chemscore.Hbond>
1.3328

> <Gold.PLP.Chemscore.CHOScore>
0.0000

> <Gold.PLP.Chemscore.Metal>
0.0000

> <Gold.Chemscore.Hbonds>
donor molecule, donor type, donor heavy atom, donor atom, acceptor molecule, acceptor atom, score
      L1  H     7    28       P1  7948  0.34
      L1  H    10    29       P1  7948  1.00

> <Gold.PLP.Chemscore.Internal.Correction>
0.0591

> <Gold.Rescore>
     Score         DG    S(hbond)    S(metal)    S(lipo)     H(rot)  DE(clash)    DE(int)     intcor
     14.03     -17.71       1.73        0.00      91.22       1.65       1.41       2.28       ----

> <Gold.Chemscore.Fitness>
14.0273

> <Gold.Chemscore.DG>
-17.7129

> <Gold.Chemscore.ZeroCoef>
-5.4800

> <Gold.Chemscore.Hbond>
1.7332

> <Gold.Chemscore.Metal>
0.0000

> <Gold.Chemscore.Lipo>
91.2250

> <Gold.Chemscore.Internal_Hbond>
0.0000

> <Gold.Chemscore.DEClash>
1.4067

> <Gold.Chemscore.DEInternal>
2.2789

> <Gold.Chemscore.Rot>
1.6521

> <Gold.Chemscore.Internal.Correction>
   9.000000E+99

> <Gold.Chemscore.Hbonds>
donor molecule, donor type, donor heavy atom, donor atom, acceptor molecule, acceptor atom, score
      L1  H     7    28       P1  7948  0.31
      L1  H    10    29       P1  7948  0.97

> <Gold.Chemscore.Hbond.Weighted>
-5.7890

> <Gold.Chemscore.Metal.Weighted>
-0.0000

> <Gold.Chemscore.Lipo.Weighted>
-10.6733

> <Gold.Chemscore.Internal_Hbond.Weighted>
0.0000

> <Gold.Chemscore.DEClash.Weighted>
1.4067

> <Gold.Chemscore.DEInternal.Weighted>
2.2789

> <Gold.Chemscore.Rot.Weighted>
4.2294

> <Gold.Chemscore.Internal.Correction.Weighted>
   9.000000E+99

> <Gold.Protein.RotatedTorsions>
[ 6907 6896 6895 6894 ] final  -33.66 input  -60.11 | X-H torsion
[ 7974 7965 7964 7962 ] final -109.88 input  175.53 | X-H torsion
[ 8008 7997 7996 7995 ] final  -48.88 input   59.86 | X-H torsion
[ 10167 10162 10161 10158 ] final  -72.72 input  -65.29 | X-H torsion
[ 10718 10713 10712 10709 ] final   16.98 input   66.30 | X-H torsion
[ 10763 10752 10751 10750 ] final   17.79 input  -60.55 | X-H torsion
[ 11005 11000 10999 10996 ] final  154.32 input  -57.11 | X-H torsion

> <Gold.Protein.ActiveResidues>
 VAL166  LYS551  ARG553  GLY616  TRP617  ASP618  TYR619  PRO620  LYS621  CYS622 
 ASP623  PHE694  ASN695  SER759  ASP760  ASP761  ALA762  ILE779  LEU786  VAL792 
 PHE793  MET794  SER795  GLU796  ALA797  LYS798  CYS799  TRP800  GLU811  SER814 

> <Gold.Protein.RotatedAtoms>
  151.0628  134.9747  159.8268 H   0  0  0  0  0  0  0  0  0  0  0  0  # atno 6907 bound_to 6896
  152.5398  134.2397  159.8867 H   0  0  0  0  0  0  0  0  0  0  0  0  # atno 6908 bound_to 6896
  151.2417  133.4353  159.2641 H   0  0  0  0  0  0  0  0  0  0  0  0  # atno 6909 bound_to 6896
  145.1751  140.8944  143.3512 H   0  0  0  0  0  0  0  0  0  0  0  0  # atno 7974 bound_to 7965
  154.4035  140.1310  156.4412 H   0  0  0  0  0  0  0  0  0  0  0  0  # atno 8008 bound_to 7997
  155.7457  140.3489  155.5106 H   0  0  0  0  0  0  0  0  0  0  0  0  # atno 8009 bound_to 7997
  155.8997  140.1017  157.1349 H   0  0  0  0  0  0  0  0  0  0  0  0  # atno 8010 bound_to 7997
  140.5169  143.2337  151.7497 H   0  0  0  0  0  0  0  0  0  0  0  0  # atno 10167 bound_to 10162
  157.0756  130.6366  149.5815 H   0  0  0  0  0  0  0  0  0  0  0  0  # atno 10718 bound_to 10713
  153.1307  135.6739  153.9183 H   0  0  0  0  0  0  0  0  0  0  0  0  # atno 10763 bound_to 10752
  153.8670  135.3074  155.3441 H   0  0  0  0  0  0  0  0  0  0  0  0  # atno 10764 bound_to 10752
  154.7705  135.4942  153.9720 H   0  0  0  0  0  0  0  0  0  0  0  0  # atno 10765 bound_to 10752
  140.1478  134.8695  157.2415 H   0  0  0  0  0  0  0  0  0  0  0  0  # atno 11005 bound_to 11000
  145.0193  139.3439  143.6080 LP  0  0  0  0  0  0  0  0  0  0  0  0  # atno 17320 bound_to 7965
  146.3462  139.9487  142.8731 LP  0  0  0  0  0  0  0  0  0  0  0  0  # atno 17321 bound_to 7965
  139.4912  144.4310  151.9872 LP  0  0  0  0  0  0  0  0  0  0  0  0  # atno 17342 bound_to 10162
  140.3405  144.3209  150.5968 LP  0  0  0  0  0  0  0  0  0  0  0  0  # atno 17343 bound_to 10162
  155.9938  130.5000  150.7394 LP  0  0  0  0  0  0  0  0  0  0  0  0  # atno 17370 bound_to 10713
  157.4842  131.0905  151.0502 LP  0  0  0  0  0  0  0  0  0  0  0  0  # atno 17371 bound_to 10713
  140.2642  134.3536  155.7396 LP  0  0  0  0  0  0  0  0  0  0  0  0  # atno 17394 bound_to 11000
  141.2195  133.7386  156.9125 LP  0  0  0  0  0  0  0  0  0  0  0  0  # atno 17395 bound_to 11000

$$$$
