AV-unprocessed.smi:75|AV-procd|sdf|766|dock3
  -GOLD-   2262017103D 1   1.00000     0.00000
 Structure written by MMmdl.
 51 54  0  0  0  0  0  0  0  0  1 V2000
  149.9341  138.6615  153.0983 N   0  0  0  0  0  0  0  0  0  0  0  0
  150.3710  138.9382  154.3294 C   0  0  0  0  0  0  0  0  0  0  0  0
  150.7500  140.0615  154.6533 O   0  0  0  0  0  0  0  0  0  0  0  0
  150.4142  137.7791  155.3311 C   0  0  0  0  0  0  0  0  0  0  0  0
  149.3015  137.8079  156.4169 C   0  0  1  0  0  0  0  0  0  0  0  0
  149.4224  139.1165  157.2300 C   0  0  0  0  0  0  0  0  0  0  0  0
  148.4183  139.1790  158.2356 O   0  0  0  0  0  0  0  0  0  0  0  0
  147.1128  139.1792  157.6745 C   0  0  0  0  0  0  0  0  0  0  0  0
  146.9026  137.8663  156.9097 C   0  0  0  0  0  0  0  0  0  0  0  0
  147.9322  137.6993  155.8884 N   0  0  0  0  0  0  0  0  0  0  0  0
  147.6514  136.6321  155.1095 C   0  0  0  0  0  0  0  0  0  0  0  0
  148.2844  135.4706  155.4046 N   0  0  0  0  0  0  0  0  0  0  0  0
  148.0433  134.3770  154.6752 C   0  0  0  0  0  0  0  0  0  0  0  0
  147.2277  134.2339  153.6280 N   0  0  0  0  0  0  0  0  0  0  0  0
  146.5965  135.4048  153.3243 C   0  0  0  0  0  0  0  0  0  0  0  0
  146.7530  136.6447  154.0049 C   0  0  0  0  0  0  0  0  0  0  0  0
  145.9527  137.6156  153.4152 N   0  0  0  0  0  0  0  0  0  0  0  0
  145.3534  136.9842  152.4430 C   0  0  0  0  0  0  0  0  0  0  0  0
  145.6812  135.6526  152.3152 N   0  0  0  0  0  0  0  0  0  0  0  0
  145.1737  134.7346  151.3358 C   0  0  0  0  0  0  0  0  0  0  0  0
  144.4708  133.4429  151.7598 C   0  0  0  0  0  0  0  0  0  0  0  0
  145.0465  132.7356  150.5099 C   0  0  0  0  0  0  0  0  0  0  0  0
  145.5564  131.2918  150.6860 C   0  0  0  0  0  0  0  0  0  0  0  0
  146.6660  131.2119  151.5588 O   0  0  0  0  0  0  0  0  0  0  0  0
  144.1363  132.7494  149.2675 C   0  0  0  0  0  0  0  0  0  0  0  0
  142.9090  132.0939  149.5152 O   0  0  0  0  0  0  0  0  0  0  0  0
  146.1190  133.8503  150.5180 C   0  0  0  0  0  0  0  0  0  0  0  0
  149.8874  139.3959  152.4068 H   0  0  0  0  0  0  0  0  0  0  0  0
  149.6503  137.7218  152.8620 H   0  0  0  0  0  0  0  0  0  0  0  0
  150.3307  136.8631  154.7443 H   0  0  0  0  0  0  0  0  0  0  0  0
  151.3981  137.7353  155.8010 H   0  0  0  0  0  0  0  0  0  0  0  0
  149.4616  136.9811  157.1102 H   0  0  0  0  0  0  0  0  0  0  0  0
  150.3957  139.1689  157.7187 H   0  0  0  0  0  0  0  0  0  0  0  0
  149.3489  139.9891  156.5783 H   0  0  0  0  0  0  0  0  0  0  0  0
  146.3798  139.2691  158.4762 H   0  0  0  0  0  0  0  0  0  0  0  0
  146.9798  140.0415  157.0189 H   0  0  0  0  0  0  0  0  0  0  0  0
  146.9343  137.0291  157.6081 H   0  0  0  0  0  0  0  0  0  0  0  0
  145.9137  137.8633  156.4485 H   0  0  0  0  0  0  0  0  0  0  0  0
  148.5791  133.4886  154.9743 H   0  0  0  0  0  0  0  0  0  0  0  0
  144.6507  137.4774  151.7870 H   0  0  0  0  0  0  0  0  0  0  0  0
  144.5284  135.3077  150.6680 H   0  0  0  0  0  0  0  0  0  0  0  0
  144.8543  133.0460  152.7006 H   0  0  0  0  0  0  0  0  0  0  0  0
  143.3835  133.5178  151.7896 H   0  0  0  0  0  0  0  0  0  0  0  0
  144.7763  130.6450  151.0884 H   0  0  0  0  0  0  0  0  0  0  0  0
  145.8538  130.8663  149.7269 H   0  0  0  0  0  0  0  0  0  0  0  0
  147.3926  130.8349  151.0864 H   0  0  0  0  0  0  0  0  0  0  0  0
  143.9108  133.7682  148.9518 H   0  0  0  0  0  0  0  0  0  0  0  0
  144.6241  132.2693  148.4183 H   0  0  0  0  0  0  0  0  0  0  0  0
  142.2217  132.7425  149.5327 H   0  0  0  0  0  0  0  0  0  0  0  0
  146.3681  134.2518  149.5352 H   0  0  0  0  0  0  0  0  0  0  0  0
  147.0248  133.5873  151.0659 H   0  0  0  0  0  0  0  0  0  0  0  0
  1  2  1  0  0  0  0
  1 28  1  0  0  0  0
  1 29  1  0  0  0  0
  2  3  2  0  0  0  0
  2  4  1  0  0  0  0
  4  5  1  0  0  0  0
  4 30  1  0  0  0  0
  4 31  1  0  0  0  0
  5 10  1  0  0  0  0
  5  6  1  0  0  0  0
  5 32  1  0  0  0  0
  6  7  1  0  0  0  0
  6 33  1  0  0  0  0
  6 34  1  0  0  0  0
  7  8  1  0  0  0  0
  8  9  1  0  0  0  0
  8 35  1  0  0  0  0
  8 36  1  0  0  0  0
  9 10  1  0  0  0  0
  9 37  1  0  0  0  0
  9 38  1  0  0  0  0
 10 11  1  0  0  0  0
 11 16  1  0  0  0  0
 11 12  2  0  0  0  0
 12 13  1  0  0  0  0
 13 14  2  0  0  0  0
 13 39  1  0  0  0  0
 14 15  1  0  0  0  0
 15 19  1  0  0  0  0
 15 16  2  0  0  0  0
 16 17  1  0  0  0  0
 17 18  2  0  0  0  0
 18 19  1  0  0  0  0
 18 40  1  0  0  0  0
 19 20  1  0  0  0  0
 20 27  1  0  0  0  0
 20 21  1  0  0  0  0
 20 41  1  0  0  0  0
 21 22  1  0  0  0  0
 21 42  1  0  0  0  0
 21 43  1  0  0  0  0
 22 23  1  0  0  0  0
 22 25  1  0  0  0  0
 22 27  1  0  0  0  0
 23 24  1  0  0  0  0
 23 44  1  0  0  0  0
 23 45  1  0  0  0  0
 24 46  1  0  0  0  0
 25 26  1  0  0  0  0
 25 47  1  0  0  0  0
 25 48  1  0  0  0  0
 26 49  1  0  0  0  0
 27 50  1  0  0  0  0
 27 51  1  0  0  0  0
M  END
> <s_m_source_file>
AV-unprocessed.smi

> <i_m_source_file_index>
75

> <i_lp_mmshare_version>
43012

> <i_f3d_flags>
0

> <s_epik_input>
W05IMl1DKD1PKVtDSDJdW0NAQEhdMVtDSDJdT1tDSDJdW0NIMl1OMWMobltjSF1uMiljKGMyMyluW2NIXW4zW0NIXShbQ0gyXTQpW0NIMl1DNChbQ0gyXVtPSF0pW0NIMl1bT0hd

> <s_epik_cmdline>
J2VwaWtfcHl0aG9uJywgJy1waCcsICc3LjAnLCAnLXRuJywgJzgnLCAnLW1hJywgJzIwMCcsICctbWV0YWxfYmluZGluZycsICctaW1hZScsICc8aW5maWxlLm1hZT4nLCAnLW9tYWUnLCAnPG91dGZpbGUubWFlPic=

> <r_lp_tautomer_probability>
1

> <r_epik_Ionization_Penalty>
5.29078e-05

> <r_epik_Ionization_Penalty_Charging>
0

> <r_epik_Ionization_Penalty_Neutral>
5.29078e-05

> <r_epik_State_Penalty>
-0

> <r_epik_Charging_Adjusted_Penalty>
0

> <i_epik_Tot_Q>
0

> <i_epik_Tot_abs_Q>
0

> <r_epik_Metal_State_Penalty>
-0

> <b_epik_Metal_Only>
0

> <s_lp_Force_Field>
OPLS_2005

> <r_lp_Energy>
41.8109

> <b_lp_Chiralities_Consistent>
1

> <s_lp_Variant>
AV-unprocessed.smi:75-2

> <Gold.Version>
5.8.1

> <Gold.Id.Protein>
6NUR|6NUR_protein|mol2

> <Gold.PLP.Fitness>
52.8776

> <Gold.PLP.PLP>
-34.0447

> <Gold.PLP.part.hbond>
-7.9282

> <Gold.PLP.part.metal>
0.0000

> <Gold.PLP.part.buried>
-3.3230

> <Gold.PLP.part.nonpolar>
-21.7535

> <Gold.PLP.part.repulsive>
0.5292

> <Gold.PLP.ligand.clash>
0.0000

> <Gold.PLP.ligand.torsion>
1.3264

> <Gold.PLP.Chemscore.Hbond>
5.9263

> <Gold.PLP.Chemscore.CHOScore>
1.0000

> <Gold.PLP.Chemscore.Metal>
0.0000

> <Gold.Chemscore.Hbonds>
donor molecule, donor type, donor heavy atom, donor atom, acceptor molecule, acceptor atom, score
      L1  H     1    28       P1  7957  0.71
      L1  H     1    29       P1  7948  1.00
      L1  H    24    46       P1 10747  1.00
      L1  H    26    49       P1 10186  0.93
      P1  H  7989  7998       L1     3  1.00
      P1  H 10785 10796       L1    26  0.78
      L1  C    18    40       P1 10171  1.00

> <Gold.PLP.Chemscore.Internal.Correction>
0.7070

> <Gold.Rescore>
     Score         DG    S(hbond)    S(metal)    S(lipo)     H(rot)  DE(clash)    DE(int)     intcor
     15.76     -18.73       5.40        0.00      60.41       4.63       1.64       1.32       ----

> <Gold.Chemscore.Fitness>
15.7643

> <Gold.Chemscore.DG>
-18.7267

> <Gold.Chemscore.ZeroCoef>
-5.4800

> <Gold.Chemscore.Hbond>
5.3958

> <Gold.Chemscore.Metal>
0.0000

> <Gold.Chemscore.Lipo>
60.4074

> <Gold.Chemscore.Internal_Hbond>
0.0000

> <Gold.Chemscore.DEClash>
1.6386

> <Gold.Chemscore.DEInternal>
1.3237

> <Gold.Chemscore.Rot>
4.6261

> <Gold.Chemscore.Internal.Correction>
   9.000000E+99

> <Gold.Chemscore.Hbonds>
donor molecule, donor type, donor heavy atom, donor atom, acceptor molecule, acceptor atom, score
      L1  H     1    28       P1  7957  0.64
      L1  H     1    29       P1  7948  0.65
      L1  H    24    46       P1 10747  0.99
      L1  H    26    49       P1 10186  0.89
      P1  H  7989  7998       L1     3  0.90
      P1  H 10785 10796       L1    26  0.34

> <Gold.Chemscore.Hbond.Weighted>
-18.0219

> <Gold.Chemscore.Metal.Weighted>
-0.0000

> <Gold.Chemscore.Lipo.Weighted>
-7.0677

> <Gold.Chemscore.Internal_Hbond.Weighted>
0.0000

> <Gold.Chemscore.DEClash.Weighted>
1.6386

> <Gold.Chemscore.DEInternal.Weighted>
1.3237

> <Gold.Chemscore.Rot.Weighted>
11.8429

> <Gold.Chemscore.Internal.Correction.Weighted>
   9.000000E+99

> <Gold.Protein.RotatedTorsions>
[ 6907 6896 6895 6894 ] final -178.33 input  -60.11 | X-H torsion
[ 7974 7965 7964 7962 ] final   59.24 input  175.53 | X-H torsion
[ 8008 7997 7996 7995 ] final   70.64 input   59.86 | X-H torsion
[ 10167 10162 10161 10158 ] final  155.25 input  -65.29 | X-H torsion
[ 10718 10713 10712 10709 ] final  139.82 input   66.30 | X-H torsion
[ 10763 10752 10751 10750 ] final  122.81 input  -60.55 | X-H torsion
[ 11005 11000 10999 10996 ] final   41.59 input  -57.11 | X-H torsion

> <Gold.Protein.ActiveResidues>
 VAL166  LYS551  ARG553  GLY616  TRP617  ASP618  TYR619  PRO620  LYS621  CYS622 
 ASP623  PHE694  ASN695  SER759  ASP760  ASP761  ALA762  ILE779  LEU786  VAL792 
 PHE793  MET794  SER795  GLU796  ALA797  LYS798  CYS799  TRP800  GLU811  SER814 

> <Gold.Protein.RotatedAtoms>
  151.6355  133.3329  159.3118 H   0  0  0  0  0  0  0  0  0  0  0  0  # atno 6907 bound_to 6896
  150.8034  134.7147  159.6633 H   0  0  0  0  0  0  0  0  0  0  0  0  # atno 6908 bound_to 6896
  152.4128  134.6098  160.0074 H   0  0  0  0  0  0  0  0  0  0  0  0  # atno 6909 bound_to 6896
  145.9093  139.3641  143.0545 H   0  0  0  0  0  0  0  0  0  0  0  0  # atno 7974 bound_to 7965
  155.7419  140.3490  155.5108 H   0  0  0  0  0  0  0  0  0  0  0  0  # atno 8008 bound_to 7997
  155.9086  140.1046  157.1318 H   0  0  0  0  0  0  0  0  0  0  0  0  # atno 8009 bound_to 7997
  154.4053  140.1272  156.4515 H   0  0  0  0  0  0  0  0  0  0  0  0  # atno 8010 bound_to 7997
  139.4821  144.5115  151.8017 H   0  0  0  0  0  0  0  0  0  0  0  0  # atno 10167 bound_to 10162
  157.4102  131.1027  151.0462 H   0  0  0  0  0  0  0  0  0  0  0  0  # atno 10718 bound_to 10713
  153.6357  135.3388  155.3055 H   0  0  0  0  0  0  0  0  0  0  0  0  # atno 10763 bound_to 10752
  154.8571  135.4306  154.2059 H   0  0  0  0  0  0  0  0  0  0  0  0  # atno 10764 bound_to 10752
  153.2965  135.7021  153.7317 H   0  0  0  0  0  0  0  0  0  0  0  0  # atno 10765 bound_to 10752
  140.1820  134.4092  155.8195 H   0  0  0  0  0  0  0  0  0  0  0  0  # atno 11005 bound_to 11000
  145.8692  140.9430  143.0659 LP  0  0  0  0  0  0  0  0  0  0  0  0  # atno 17320 bound_to 7965
  144.6742  140.0632  143.7475 LP  0  0  0  0  0  0  0  0  0  0  0  0  # atno 17321 bound_to 7965
  140.4619  144.1710  150.5907 LP  0  0  0  0  0  0  0  0  0  0  0  0  # atno 17342 bound_to 10162
  140.4475  143.2500  151.9391 LP  0  0  0  0  0  0  0  0  0  0  0  0  # atno 17343 bound_to 10162
  157.1429  130.6151  149.5560 LP  0  0  0  0  0  0  0  0  0  0  0  0  # atno 17370 bound_to 10713
  155.9848  130.4875  150.7002 LP  0  0  0  0  0  0  0  0  0  0  0  0  # atno 17371 bound_to 10713
  141.2223  133.7005  156.7947 LP  0  0  0  0  0  0  0  0  0  0  0  0  # atno 17394 bound_to 11000
  140.2257  134.8724  157.3424 LP  0  0  0  0  0  0  0  0  0  0  0  0  # atno 17395 bound_to 11000

$$$$
