AV-unprocessed.smi:1621|AV-procd|sdf|6495|dock1
  -GOLD-   22720 7153D 1   1.00000     0.00000
 Structure written by MMmdl.
 40 41  0  0  0  0  0  0  0  0  3 V2000
  143.4570  132.9172  148.4284 C   0  0  0  0  0  0  0  0  0  0  0  0
  143.7796  133.5678  149.7165 N   0  3  2  0  0  0  0  0  0  0  0  0
  144.6843  134.7317  149.5492 C   0  0  0  0  0  0  0  0  0  0  0  0
  144.9041  135.4593  150.8861 C   0  0  0  0  0  0  0  0  0  0  0  0
  145.4499  134.5016  151.9641 C   0  0  1  0  0  0  0  0  0  0  0  0
  145.6467  135.1910  153.3311 C   0  0  0  0  0  0  0  0  0  0  0  0
  146.6831  136.2189  153.3014 N   0  0  0  0  0  0  0  0  0  0  0  0
  146.5600  137.4528  153.8117 C   0  0  0  0  0  0  0  0  0  0  0  0
  145.5426  137.8513  154.3773 O   0  0  0  0  0  0  0  0  0  0  0  0
  147.6768  138.1746  153.6113 N   0  0  0  0  0  0  0  0  0  0  0  0
  147.9517  139.5238  153.9698 C   0  0  0  0  0  0  0  0  0  0  0  0
  146.8978  140.4553  153.8356 C   0  0  0  0  0  0  0  0  0  0  0  0
  147.1158  141.8083  154.1666 C   0  0  0  0  0  0  0  0  0  0  0  0
  148.3302  142.2062  154.6017 N   0  3  0  0  0  0  0  0  0  0  0  0
  149.3713  141.3571  154.7352 C   0  0  0  0  0  0  0  0  0  0  0  0
  149.2136  139.9920  154.4193 C   0  0  0  0  0  0  0  0  0  0  0  0
  144.5053  133.2919  152.0834 C   0  0  0  0  0  0  0  0  0  0  0  0
  144.2932  132.6063  150.7231 C   0  0  0  0  0  0  0  0  0  0  0  0
  144.3524  132.5002  147.9655 H   0  0  0  0  0  0  0  0  0  0  0  0
  143.0156  133.6344  147.7355 H   0  0  0  0  0  0  0  0  0  0  0  0
  142.7386  132.1096  148.5732 H   0  0  0  0  0  0  0  0  0  0  0  0
  145.6403  134.3971  149.1423 H   0  0  0  0  0  0  0  0  0  0  0  0
  144.2560  135.4253  148.8245 H   0  0  0  0  0  0  0  0  0  0  0  0
  145.5919  136.2907  150.7300 H   0  0  0  0  0  0  0  0  0  0  0  0
  143.9630  135.8964  151.2229 H   0  0  0  0  0  0  0  0  0  0  0  0
  146.4198  134.1314  151.6280 H   0  0  0  0  0  0  0  0  0  0  0  0
  144.7156  135.6627  153.6468 H   0  0  0  0  0  0  0  0  0  0  0  0
  145.8888  134.4524  154.0974 H   0  0  0  0  0  0  0  0  0  0  0  0
  147.5510  135.9744  152.8470 H   0  0  0  0  0  0  0  0  0  0  0  0
  148.4046  137.7156  153.0833 H   0  0  0  0  0  0  0  0  0  0  0  0
  145.9257  140.1381  153.4867 H   0  0  0  0  0  0  0  0  0  0  0  0
  146.3612  142.5781  154.0959 H   0  0  0  0  0  0  0  0  0  0  0  0
  150.2963  141.7926  155.0841 H   0  0  0  0  0  0  0  0  0  0  0  0
  150.0673  139.3406  154.5206 H   0  0  0  0  0  0  0  0  0  0  0  0
  144.9094  132.5712  152.7953 H   0  0  0  0  0  0  0  0  0  0  0  0
  143.5419  133.6125  152.4827 H   0  0  0  0  0  0  0  0  0  0  0  0
  143.5847  131.7848  150.8371 H   0  0  0  0  0  0  0  0  0  0  0  0
  145.2297  132.1708  150.3706 H   0  0  0  0  0  0  0  0  0  0  0  0
  142.9092  133.9288  150.0807 H   0  0  0  0  0  0  0  0  0  0  0  0
  148.4682  143.1897  154.8362 H   0  0  0  0  0  0  0  0  0  0  0  0
  1  2  1  0  0  0  0
  1 19  1  0  0  0  0
  1 20  1  0  0  0  0
  1 21  1  0  0  0  0
  2 18  1  0  0  0  0
  2  3  1  0  0  0  0
  2 39  1  0  0  0  0
  3  4  1  0  0  0  0
  3 22  1  0  0  0  0
  3 23  1  0  0  0  0
  4  5  1  0  0  0  0
  4 24  1  0  0  0  0
  4 25  1  0  0  0  0
  5  6  1  0  0  0  0
  5 17  1  0  0  0  0
  5 26  1  0  0  0  0
  6  7  1  0  0  0  0
  6 27  1  0  0  0  0
  6 28  1  0  0  0  0
  7  8  1  0  0  0  0
  7 29  1  0  0  0  0
  8  9  2  0  0  0  0
  8 10  1  0  0  0  0
 10 11  1  0  0  0  0
 10 30  1  0  0  0  0
 11 16  1  0  0  0  0
 11 12  2  0  0  0  0
 12 13  1  0  0  0  0
 12 31  1  0  0  0  0
 13 14  2  0  0  0  0
 13 32  1  0  0  0  0
 14 15  1  0  0  0  0
 14 40  1  0  0  0  0
 15 16  2  0  0  0  0
 15 33  1  0  0  0  0
 16 34  1  0  0  0  0
 17 18  1  0  0  0  0
 17 35  1  0  0  0  0
 17 36  1  0  0  0  0
 18 37  1  0  0  0  0
 18 38  1  0  0  0  0
M  CHG  1   2   1
M  CHG  1  14   1
M  END
> <s_m_source_file>
AV-unprocessed.smi

> <i_m_source_file_index>
1621

> <i_lp_mmshare_version>
43012

> <i_f3d_flags>
0

> <s_epik_input>
W0NIM11OMVtDSDJdW0NIMl1bQ0hdKFtDSDJdW0NIMl0xKVtDSDJdW05IXUMoPU8pW05IXWMyW2NIXVtjSF1uW2NIXVtjSF0y

> <s_epik_cmdline>
J2VwaWtfcHl0aG9uJywgJy1waCcsICc3LjAnLCAnLXRuJywgJzgnLCAnLW1hJywgJzIwMCcsICctbWV0YWxfYmluZGluZycsICctaW1hZScsICc8aW5maWxlLm1hZT4nLCAnLW9tYWUnLCAnPG91dGZpbGUubWFlPic=

> <r_epik_Ionization_Penalty>
1.07214

> <r_epik_Ionization_Penalty_Charging>
1.07212

> <r_epik_Ionization_Penalty_Neutral>
1.90829e-05

> <r_epik_State_Penalty>
1.12559

> <r_epik_Charging_Adjusted_Penalty>
2.1977

> <i_epik_Tot_Q>
2

> <i_epik_Tot_abs_Q>
2

> <r_epik_Metal_State_Penalty>
1.21693

> <b_epik_Metal_Only>
0

> <s_lp_Force_Field>
OPLS_2005

> <r_lp_Energy>
28.1704

> <b_lp_Chiralities_Consistent>
1

> <s_lp_Variant>
AV-unprocessed.smi:1621-3

> <Gold.Version>
5.8.1

> <Gold.Id.Protein>
6NUR|6NUR_protein|mol2

> <Gold.PLP.Fitness>
47.0339

> <Gold.PLP.PLP>
-30.3409

> <Gold.PLP.part.hbond>
-4.0000

> <Gold.PLP.part.metal>
0.0000

> <Gold.PLP.part.buried>
0.6901

> <Gold.PLP.part.nonpolar>
-28.0022

> <Gold.PLP.part.repulsive>
0.4053

> <Gold.PLP.ligand.clash>
0.0000

> <Gold.PLP.ligand.torsion>
0.3790

> <Gold.PLP.Chemscore.Hbond>
5.8160

> <Gold.PLP.Chemscore.CHOScore>
0.0000

> <Gold.PLP.Chemscore.Metal>
0.0000

> <Gold.Chemscore.Hbonds>
donor molecule, donor type, donor heavy atom, donor atom, acceptor molecule, acceptor atom, score
      L1  H     2    39       P1 10186  1.71
      L1  H     7    29       P1  7948  1.00
      L1  H    10    30       P1  7948  0.99
      L1  H    14    40       P1  8028  2.00

> <Gold.PLP.Chemscore.Internal.Correction>
0.0031

> <Gold.Rescore>
     Score         DG    S(hbond)    S(metal)    S(lipo)     H(rot)  DE(clash)    DE(int)     intcor
     21.17     -24.68       3.80        0.00      83.21       1.26       1.99       1.51       ----

> <Gold.Chemscore.Fitness>
21.1743

> <Gold.Chemscore.DG>
-24.6762

> <Gold.Chemscore.ZeroCoef>
-5.4800

> <Gold.Chemscore.Hbond>
3.8015

> <Gold.Chemscore.Metal>
0.0000

> <Gold.Chemscore.Lipo>
83.2124

> <Gold.Chemscore.Internal_Hbond>
0.0000

> <Gold.Chemscore.DEClash>
1.9881

> <Gold.Chemscore.DEInternal>
1.5138

> <Gold.Chemscore.Rot>
1.2644

> <Gold.Chemscore.Internal.Correction>
   9.000000E+99

> <Gold.Chemscore.Hbonds>
donor molecule, donor type, donor heavy atom, donor atom, acceptor molecule, acceptor atom, score
      L1  H     2    39       P1 10186  0.78
      L1  H     7    29       P1  7948  0.99
      L1  H    10    30       P1  7948  0.92
      L1  H    14    40       P1  8028  1.00

> <Gold.Chemscore.Hbond.Weighted>
-12.6972

> <Gold.Chemscore.Metal.Weighted>
-0.0000

> <Gold.Chemscore.Lipo.Weighted>
-9.7359

> <Gold.Chemscore.Internal_Hbond.Weighted>
0.0000

> <Gold.Chemscore.DEClash.Weighted>
1.9881

> <Gold.Chemscore.DEInternal.Weighted>
1.5138

> <Gold.Chemscore.Rot.Weighted>
3.2368

> <Gold.Chemscore.Internal.Correction.Weighted>
   9.000000E+99

> <Gold.Protein.RotatedTorsions>
[ 6907 6896 6895 6894 ] final  134.28 input  -60.11 | X-H torsion
[ 7974 7965 7964 7962 ] final   -6.46 input  175.53 | X-H torsion
[ 8008 7997 7996 7995 ] final  -87.53 input   59.86 | X-H torsion
[ 10167 10162 10161 10158 ] final   18.78 input  -65.29 | X-H torsion
[ 10718 10713 10712 10709 ] final -177.28 input   66.30 | X-H torsion
[ 10763 10752 10751 10750 ] final  158.12 input  -60.55 | X-H torsion
[ 11005 11000 10999 10996 ] final  -94.61 input  -57.11 | X-H torsion

> <Gold.Protein.ActiveResidues>
 VAL166  LYS551  ARG553  GLY616  TRP617  ASP618  TYR619  PRO620  LYS621  CYS622 
 ASP623  PHE694  ASN695  SER759  ASP760  ASP761  ALA762  ILE779  LEU786  VAL792 
 PHE793  MET794  SER795  GLU796  ALA797  LYS798  CYS799  TRP800  GLU811  SER814 

> <Gold.Protein.RotatedAtoms>
  152.3130  133.5773  159.5693 H   0  0  0  0  0  0  0  0  0  0  0  0  # atno 6907 bound_to 6896
  150.7332  134.0124  159.3683 H   0  0  0  0  0  0  0  0  0  0  0  0  # atno 6908 bound_to 6896
  151.8015  135.0708  160.0452 H   0  0  0  0  0  0  0  0  0  0  0  0  # atno 6909 bound_to 6896
  146.2330  140.2174  142.8336 H   0  0  0  0  0  0  0  0  0  0  0  0  # atno 7974 bound_to 7965
  154.6643  140.0564  157.0097 H   0  0  0  0  0  0  0  0  0  0  0  0  # atno 8008 bound_to 7997
  155.1182  140.3245  155.4485 H   0  0  0  0  0  0  0  0  0  0  0  0  # atno 8009 bound_to 7997
  156.2631  140.2002  156.6305 H   0  0  0  0  0  0  0  0  0  0  0  0  # atno 8010 bound_to 7997
  140.5628  143.9306  150.6655 H   0  0  0  0  0  0  0  0  0  0  0  0  # atno 10167 bound_to 10162
  156.8272  130.9640  151.3108 H   0  0  0  0  0  0  0  0  0  0  0  0  # atno 10718 bound_to 10713
  154.2110  135.2786  155.2958 H   0  0  0  0  0  0  0  0  0  0  0  0  # atno 10763 bound_to 10752
  154.5778  135.5598  153.7160 H   0  0  0  0  0  0  0  0  0  0  0  0  # atno 10764 bound_to 10752
  153.0064  135.6337  154.2249 H   0  0  0  0  0  0  0  0  0  0  0  0  # atno 10765 bound_to 10752
  141.1465  133.7968  157.0322 H   0  0  0  0  0  0  0  0  0  0  0  0  # atno 11005 bound_to 11000
  144.9659  140.8321  143.5485 LP  0  0  0  0  0  0  0  0  0  0  0  0  # atno 17320 bound_to 7965
  145.2149  139.2186  143.5123 LP  0  0  0  0  0  0  0  0  0  0  0  0  # atno 17321 bound_to 7965
  140.2761  143.3422  152.1194 LP  0  0  0  0  0  0  0  0  0  0  0  0  # atno 17342 bound_to 10162
  139.5078  144.6839  151.5938 LP  0  0  0  0  0  0  0  0  0  0  0  0  # atno 17343 bound_to 10162
  157.6426  130.8818  149.9477 LP  0  0  0  0  0  0  0  0  0  0  0  0  # atno 17370 bound_to 10713
  156.0955  130.3660  150.0315 LP  0  0  0  0  0  0  0  0  0  0  0  0  # atno 17371 bound_to 10713
  140.0747  134.9682  157.1525 LP  0  0  0  0  0  0  0  0  0  0  0  0  # atno 17394 bound_to 11000
  140.3661  134.2441  155.7182 LP  0  0  0  0  0  0  0  0  0  0  0  0  # atno 17395 bound_to 11000

$$$$
