AV-unprocessed.smi:72|AV-procd|sdf|691|dock2
  -GOLD-   2262017 03D 1   1.00000     0.00000
 Structure written by MMmdl.
 29 30  0  0  0  0  0  0  0  0  1 V2000
  153.7902  138.7960  157.7370 N   0  0  0  0  0  0  0  0  0  0  0  0
  152.5793  139.1663  157.5194 C   0  0  0  0  0  0  0  0  0  0  0  0
  151.6467  139.5162  158.5077 N   0  0  0  0  0  0  0  0  0  0  0  0
  150.4573  139.8796  158.1377 C   0  0  0  0  0  0  0  0  0  0  0  0
  150.0627  139.9333  156.7383 N   0  0  0  0  0  0  0  0  0  0  0  0
  148.6660  140.3603  156.3381 C   0  0  2  0  0  0  0  0  0  0  0  0
  148.1617  139.4424  155.4153 O   0  0  0  0  0  0  0  0  0  0  0  0
  147.4137  140.1343  154.4215 C   0  0  2  0  0  0  0  0  0  0  0  0
  147.2648  139.2854  153.1465 C   0  0  0  0  0  0  0  0  0  0  0  0
  148.4722  138.6078  152.8700 O   0  0  0  0  0  0  0  0  0  0  0  0
  148.1854  141.4518  154.2560 C   0  0  2  0  0  0  0  0  0  0  0  0
  149.2896  141.2878  153.3811 O   0  0  0  0  0  0  0  0  0  0  0  0
  148.6152  141.7597  155.6878 C   0  0  2  0  0  0  0  0  0  0  0  0
  149.8075  142.5232  155.7651 O   0  0  0  0  0  0  0  0  0  0  0  0
  150.9879  139.5694  155.7293 C   0  0  0  0  0  0  0  0  0  0  0  0
  150.7019  139.5746  154.5323 O   0  0  0  0  0  0  0  0  0  0  0  0
  152.2124  139.2055  156.1680 N   0  0  0  0  0  0  0  0  0  0  0  0
  148.0502  140.2986  157.2364 H   0  0  0  0  0  0  0  0  0  0  0  0
  146.4295  140.3688  154.8325 H   0  0  0  0  0  0  0  0  0  0  0  0
  147.5496  142.2394  153.8502 H   0  0  0  0  0  0  0  0  0  0  0  0
  147.8196  142.3145  156.1869 H   0  0  0  0  0  0  0  0  0  0  0  0
  153.9789  138.7927  158.7293 H   0  0  0  0  0  0  0  0  0  0  0  0
  149.6798  140.1644  158.8474 H   0  0  0  0  0  0  0  0  0  0  0  0
  146.4928  138.5284  153.2876 H   0  0  0  0  0  0  0  0  0  0  0  0
  146.9697  139.8969  152.2932 H   0  0  0  0  0  0  0  0  0  0  0  0
  148.8298  138.9480  152.0640 H   0  0  0  0  0  0  0  0  0  0  0  0
  149.0883  140.5897  152.7766 H   0  0  0  0  0  0  0  0  0  0  0  0
  149.6167  143.4022  155.4748 H   0  0  0  0  0  0  0  0  0  0  0  0
  152.8986  138.9426  155.4757 H   0  0  0  0  0  0  0  0  0  0  0  0
  1  2  2  0  0  0  0
  1 22  1  0  0  0  0
  2 17  1  0  0  0  0
  2  3  1  0  0  0  0
  3  4  2  0  0  0  0
  4  5  1  0  0  0  0
  4 23  1  0  0  0  0
  5  6  1  0  0  0  0
  5 15  1  0  0  0  0
  6 18  1  0  0  0  0
  6 13  1  0  0  0  0
  6  7  1  0  0  0  0
  7  8  1  0  0  0  0
  8 19  1  0  0  0  0
  8  9  1  0  0  0  0
  8 11  1  0  0  0  0
  9 10  1  0  0  0  0
  9 24  1  0  0  0  0
  9 25  1  0  0  0  0
 10 26  1  0  0  0  0
 11 20  1  0  0  0  0
 11 12  1  0  0  0  0
 11 13  1  0  0  0  0
 12 27  1  0  0  0  0
 13 21  1  0  0  0  0
 13 14  1  0  0  0  0
 14 28  1  0  0  0  0
 15 16  2  0  0  0  0
 15 17  1  0  0  0  0
 17 29  1  0  0  0  0
M  END
> <s_m_source_file>
AV-unprocessed.smi

> <i_m_source_file_index>
72

> <i_lp_mmshare_version>
43012

> <i_f3d_flags>
0

> <s_epik_input>
W05IMl1jMW5bY0hdbihjKD1PKW4xKVtDQEBIXTJPW0NASF0oW0NIMl1bT0hdKVtDQEBIXShbT0hdKVtDQEhdMltPSF0=

> <s_epik_cmdline>
J2VwaWtfcHl0aG9uJywgJy1waCcsICc3LjAnLCAnLXRuJywgJzgnLCAnLW1hJywgJzIwMCcsICctbWV0YWxfYmluZGluZycsICctaW1hZScsICc8aW5maWxlLm1hZT4nLCAnLW9tYWUnLCAnPG91dGZpbGUubWFlPic=

> <r_lp_tautomer_probability>
7.17554e-07

> <r_epik_Ionization_Penalty>
0.0066451

> <r_epik_Ionization_Penalty_Charging>
0.00663793

> <r_epik_Ionization_Penalty_Neutral>
7.17052e-06

> <r_epik_State_Penalty>
0.419231

> <r_epik_Charging_Adjusted_Penalty>
0.425868

> <i_epik_Tot_Q>
0

> <i_epik_Tot_abs_Q>
0

> <r_epik_Metal_State_Penalty>
1.44144

> <b_epik_Metal_Only>
0

> <s_epik_Chemistry_Notes>
This compound contains an acetal/aminal-like group ( X-CH(R)-Y where X, Y are N, S, or O) that may be acid/base labile, releasing an aldehyde.

> <s_lp_Force_Field>
OPLS_2005

> <r_lp_Energy>
48.2087

> <b_lp_Chiralities_Consistent>
1

> <s_lp_Variant>
AV-unprocessed.smi:72-29

> <Gold.Version>
5.8.1

> <Gold.Id.Protein>
6NUR|6NUR_protein|mol2

> <Gold.PLP.Fitness>
38.3282

> <Gold.PLP.PLP>
-22.0065

> <Gold.PLP.part.hbond>
-7.4626

> <Gold.PLP.part.metal>
0.0000

> <Gold.PLP.part.buried>
-2.9511

> <Gold.PLP.part.nonpolar>
-12.3529

> <Gold.PLP.part.repulsive>
0.2924

> <Gold.PLP.ligand.clash>
0.0000

> <Gold.PLP.ligand.torsion>
0.4329

> <Gold.PLP.Chemscore.Hbond>
5.7280

> <Gold.PLP.Chemscore.CHOScore>
0.0000

> <Gold.PLP.Chemscore.Metal>
0.0000

> <Gold.Chemscore.Hbonds>
donor molecule, donor type, donor heavy atom, donor atom, acceptor molecule, acceptor atom, score
      L1  H    10    26       P1  7957  1.00
      L1  H    12    27       P1  7957  0.75
      L1  H    14    28       P1  8028  0.96
      P1  H  7989  7998       L1    16  1.00
      P1  H  7997  8009       L1     1  1.00
      P1  H  8011  8017       L1    12  0.95

> <Gold.PLP.Chemscore.Internal.Correction>
0.0034

> <Gold.Rescore>
     Score         DG    S(hbond)    S(metal)    S(lipo)     H(rot)  DE(clash)    DE(int)     intcor
      9.11     -13.65       4.77        0.00      22.64       4.06       0.05       4.50       ----

> <Gold.Chemscore.Fitness>
9.1091

> <Gold.Chemscore.DG>
-13.6516

> <Gold.Chemscore.ZeroCoef>
-5.4800

> <Gold.Chemscore.Hbond>
4.7653

> <Gold.Chemscore.Metal>
0.0000

> <Gold.Chemscore.Lipo>
22.6410

> <Gold.Chemscore.Internal_Hbond>
0.0000

> <Gold.Chemscore.DEClash>
0.0456

> <Gold.Chemscore.DEInternal>
4.4969

> <Gold.Chemscore.Rot>
4.0600

> <Gold.Chemscore.Internal.Correction>
   9.000000E+99

> <Gold.Chemscore.Hbonds>
donor molecule, donor type, donor heavy atom, donor atom, acceptor molecule, acceptor atom, score
      L1  H    10    26       P1  7957  0.90
      L1  H    12    27       P1  7957  0.76
      L1  H    14    28       P1  8028  0.87
      P1  H  7989  7998       L1    16  0.90
      P1  H  7997  8009       L1     1  0.23
      P1  H  8011  8017       L1    12  0.20

> <Gold.Chemscore.Hbond.Weighted>
-15.9162

> <Gold.Chemscore.Metal.Weighted>
-0.0000

> <Gold.Chemscore.Lipo.Weighted>
-2.6490

> <Gold.Chemscore.Internal_Hbond.Weighted>
0.0000

> <Gold.Chemscore.DEClash.Weighted>
0.0456

> <Gold.Chemscore.DEInternal.Weighted>
4.4969

> <Gold.Chemscore.Rot.Weighted>
10.3936

> <Gold.Chemscore.Internal.Correction.Weighted>
   9.000000E+99

> <Gold.Protein.RotatedTorsions>
[ 6907 6896 6895 6894 ] final  -51.81 input  -60.11 | X-H torsion
[ 7974 7965 7964 7962 ] final   -5.45 input  175.53 | X-H torsion
[ 8008 7997 7996 7995 ] final  136.85 input   59.86 | X-H torsion
[ 10167 10162 10161 10158 ] final  114.42 input  -65.29 | X-H torsion
[ 10718 10713 10712 10709 ] final   -8.52 input   66.30 | X-H torsion
[ 10763 10752 10751 10750 ] final  -62.33 input  -60.55 | X-H torsion
[ 11005 11000 10999 10996 ] final -111.66 input  -57.11 | X-H torsion

> <Gold.Protein.ActiveResidues>
 VAL166  LYS551  ARG553  GLY616  TRP617  ASP618  TYR619  PRO620  LYS621  CYS622 
 ASP623  PHE694  ASN695  SER759  ASP760  ASP761  ALA762  ILE779  LEU786  VAL792 
 PHE793  MET794  SER795  GLU796  ALA797  LYS798  CYS799  TRP800  GLU811  SER814 

> <Gold.Protein.RotatedAtoms>
  150.8576  134.7919  159.7057 H   0  0  0  0  0  0  0  0  0  0  0  0  # atno 6907 bound_to 6896
  152.4623  134.5152  159.9776 H   0  0  0  0  0  0  0  0  0  0  0  0  # atno 6908 bound_to 6896
  151.5262  133.3419  159.2945 H   0  0  0  0  0  0  0  0  0  0  0  0  # atno 6909 bound_to 6896
  146.2352  140.2022  142.8334 H   0  0  0  0  0  0  0  0  0  0  0  0  # atno 7974 bound_to 7965
  156.3003  140.2434  156.3813 H   0  0  0  0  0  0  0  0  0  0  0  0  # atno 8008 bound_to 7997
  154.8698  140.0416  157.1737 H   0  0  0  0  0  0  0  0  0  0  0  0  # atno 8009 bound_to 7997
  154.8807  140.2949  155.5431 H   0  0  0  0  0  0  0  0  0  0  0  0  # atno 8010 bound_to 7997
  139.6390  144.7122  151.2276 H   0  0  0  0  0  0  0  0  0  0  0  0  # atno 10167 bound_to 10162
  156.7014  130.5094  149.5916 H   0  0  0  0  0  0  0  0  0  0  0  0  # atno 10718 bound_to 10713
  154.2983  135.6240  153.5414 H   0  0  0  0  0  0  0  0  0  0  0  0  # atno 10763 bound_to 10752
  152.9843  135.5672  154.5313 H   0  0  0  0  0  0  0  0  0  0  0  0  # atno 10764 bound_to 10752
  154.4938  135.2868  155.1452 H   0  0  0  0  0  0  0  0  0  0  0  0  # atno 10765 bound_to 10752
  141.0721  133.9362  157.2464 H   0  0  0  0  0  0  0  0  0  0  0  0  # atno 11005 bound_to 11000
  144.9773  140.8425  143.5419 LP  0  0  0  0  0  0  0  0  0  0  0  0  # atno 17320 bound_to 7965
  145.2011  139.2251  143.5192 LP  0  0  0  0  0  0  0  0  0  0  0  0  # atno 17321 bound_to 7965
  140.7480  143.6346  150.8391 LP  0  0  0  0  0  0  0  0  0  0  0  0  # atno 17342 bound_to 10162
  139.9980  143.5774  152.2886 LP  0  0  0  0  0  0  0  0  0  0  0  0  # atno 17343 bound_to 10162
  156.1726  130.6447  151.0855 LP  0  0  0  0  0  0  0  0  0  0  0  0  # atno 17370 bound_to 10713
  157.6971  131.0790  150.6934 LP  0  0  0  0  0  0  0  0  0  0  0  0  # atno 17371 bound_to 10713
  139.9534  135.0171  156.9059 LP  0  0  0  0  0  0  0  0  0  0  0  0  # atno 17394 bound_to 11000
  140.5651  134.0497  155.7411 LP  0  0  0  0  0  0  0  0  0  0  0  0  # atno 17395 bound_to 11000

$$$$
