AV-unprocessed.smi:1629|AV-procd|sdf|6521|dock2
  -GOLD-   22720 7193D 1   1.00000     0.00000
 Structure written by MMmdl.
 44 45  0  0  0  0  0  0  0  0  1 V2000
  149.9196  132.6391  155.0652 C   0  0  0  0  0  0  0  0  0  0  0  0
  149.0068  133.5913  156.3445 S   0  0  0  0  0  0  0  0  0  0  0  0
  147.5823  133.2306  156.2816 O   0  0  0  0  0  0  0  0  0  0  0  0
  149.7438  133.4896  157.6134 O   0  0  0  0  0  0  0  0  0  0  0  0
  149.1571  135.2126  155.7728 N   0  0  0  0  0  0  0  0  0  0  0  0
  150.4910  135.7756  155.5402 C   0  0  0  0  0  0  0  0  0  0  0  0
  151.1328  136.2214  156.8774 C   0  0  0  0  0  0  0  0  0  0  0  0
  152.3877  137.0829  156.6508 C   0  0  0  0  0  0  0  0  0  0  0  0
  152.0232  138.2148  155.7857 N   0  0  0  0  0  0  0  0  0  0  0  0
  151.7289  139.4749  156.1942 C   0  0  0  0  0  0  0  0  0  0  0  0
  151.5330  140.4046  155.4102 O   0  0  0  0  0  0  0  0  0  0  0  0
  151.6326  139.6271  157.5276 N   0  0  0  0  0  0  0  0  0  0  0  0
  151.1548  140.8274  158.2128 C   0  0  0  0  0  0  0  0  0  0  0  0
  152.2250  141.4328  159.1454 C   0  0  0  0  0  0  0  0  0  0  0  0
  152.0290  142.9133  159.4323 C   0  0  0  0  0  0  0  0  0  0  0  0
  152.3618  143.8837  158.4630 C   0  0  0  0  0  0  0  0  0  0  0  0
  152.2146  145.2440  158.7948 C   0  0  0  0  0  0  0  0  0  0  0  0
  151.7347  145.5802  160.0748 C   0  0  0  0  0  0  0  0  0  0  0  0
  151.4152  144.5366  160.9662 C   0  0  0  0  0  0  0  0  0  0  0  0
  151.5529  143.2290  160.6575 N   0  0  0  0  0  0  0  0  0  0  0  0
  151.6823  137.7454  154.4393 C   0  0  0  0  0  0  0  0  0  0  0  0
  150.3720  136.9425  154.5335 C   0  0  0  0  0  0  0  0  0  0  0  0
  149.9026  131.5798  155.3210 H   0  0  0  0  0  0  0  0  0  0  0  0
  150.9525  132.9842  155.0226 H   0  0  0  0  0  0  0  0  0  0  0  0
  149.4467  132.7848  154.0944 H   0  0  0  0  0  0  0  0  0  0  0  0
  148.5868  135.8487  156.3296 H   0  0  0  0  0  0  0  0  0  0  0  0
  151.1216  135.0063  155.0932 H   0  0  0  0  0  0  0  0  0  0  0  0
  150.4121  136.7930  157.4597 H   0  0  0  0  0  0  0  0  0  0  0  0
  151.3915  135.3513  157.4814 H   0  0  0  0  0  0  0  0  0  0  0  0
  152.8195  137.3842  157.6053 H   0  0  0  0  0  0  0  0  0  0  0  0
  153.1611  136.4881  156.1627 H   0  0  0  0  0  0  0  0  0  0  0  0
  151.8236  138.8215  158.1050 H   0  0  0  0  0  0  0  0  0  0  0  0
  150.8595  141.5629  157.4642 H   0  0  0  0  0  0  0  0  0  0  0  0
  150.2539  140.6080  158.7878 H   0  0  0  0  0  0  0  0  0  0  0  0
  152.2229  140.8908  160.0919 H   0  0  0  0  0  0  0  0  0  0  0  0
  153.2164  141.2821  158.7162 H   0  0  0  0  0  0  0  0  0  0  0  0
  152.7401  143.5956  157.4933 H   0  0  0  0  0  0  0  0  0  0  0  0
  152.4718  146.0144  158.0831 H   0  0  0  0  0  0  0  0  0  0  0  0
  151.6118  146.6126  160.3661 H   0  0  0  0  0  0  0  0  0  0  0  0
  151.0412  144.7580  161.9547 H   0  0  0  0  0  0  0  0  0  0  0  0
  151.5751  138.5622  153.7239 H   0  0  0  0  0  0  0  0  0  0  0  0
  152.4841  137.1164  154.0501 H   0  0  0  0  0  0  0  0  0  0  0  0
  150.0959  136.5619  153.5495 H   0  0  0  0  0  0  0  0  0  0  0  0
  149.5682  137.6146  154.8395 H   0  0  0  0  0  0  0  0  0  0  0  0
  1  2  1  0  0  0  0
  1 23  1  0  0  0  0
  1 24  1  0  0  0  0
  1 25  1  0  0  0  0
  2  3  2  0  0  0  0
  2  4  2  0  0  0  0
  2  5  1  0  0  0  0
  5  6  1  0  0  0  0
  5 26  1  0  0  0  0
  6 22  1  0  0  0  0
  6  7  1  0  0  0  0
  6 27  1  0  0  0  0
  7  8  1  0  0  0  0
  7 28  1  0  0  0  0
  7 29  1  0  0  0  0
  8  9  1  0  0  0  0
  8 30  1  0  0  0  0
  8 31  1  0  0  0  0
  9 10  1  0  0  0  0
  9 21  1  0  0  0  0
 10 11  2  0  0  0  0
 10 12  1  0  0  0  0
 12 13  1  0  0  0  0
 12 32  1  0  0  0  0
 13 14  1  0  0  0  0
 13 33  1  0  0  0  0
 13 34  1  0  0  0  0
 14 15  1  0  0  0  0
 14 35  1  0  0  0  0
 14 36  1  0  0  0  0
 15 20  1  0  0  0  0
 15 16  2  0  0  0  0
 16 17  1  0  0  0  0
 16 37  1  0  0  0  0
 17 18  2  0  0  0  0
 17 38  1  0  0  0  0
 18 19  1  0  0  0  0
 18 39  1  0  0  0  0
 19 20  2  0  0  0  0
 19 40  1  0  0  0  0
 21 22  1  0  0  0  0
 21 41  1  0  0  0  0
 21 42  1  0  0  0  0
 22 43  1  0  0  0  0
 22 44  1  0  0  0  0
M  END
> <s_m_source_file>
AV-unprocessed.smi

> <i_m_source_file_index>
1629

> <i_lp_mmshare_version>
43012

> <i_f3d_flags>
0

> <s_epik_input>
W0NIM11TKD1PKSg9TylbTkhdW0NIXTFbQ0gyXVtDSDJdTihbQ0gyXVtDSDJdMSlDKD1PKVtOSF1bQ0gyXVtDSDJdYzJbY0hdW2NIXVtjSF1bY0hdbjI=

> <s_epik_cmdline>
J2VwaWtfcHl0aG9uJywgJy1waCcsICc3LjAnLCAnLXRuJywgJzgnLCAnLW1hJywgJzIwMCcsICctbWV0YWxfYmluZGluZycsICctaW1hZScsICc8aW5maWxlLm1hZT4nLCAnLW9tYWUnLCAnPG91dGZpbGUubWFlPic=

> <r_epik_Ionization_Penalty>
0.044864

> <r_epik_Ionization_Penalty_Charging>
0

> <r_epik_Ionization_Penalty_Neutral>
0.044864

> <r_epik_State_Penalty>
0.0379889

> <r_epik_Charging_Adjusted_Penalty>
0.0379889

> <i_epik_Tot_Q>
0

> <i_epik_Tot_abs_Q>
0

> <r_epik_Metal_State_Penalty>
0.04187

> <b_epik_Metal_Only>
0

> <s_lp_Force_Field>
OPLS_2005

> <r_lp_Energy>
21.9129

> <b_lp_Chiralities_Consistent>
1

> <s_lp_Variant>
AV-unprocessed.smi:1629-1

> <Gold.Version>
5.8.1

> <Gold.Id.Protein>
6NUR|6NUR_protein|mol2

> <Gold.PLP.Fitness>
46.4309

> <Gold.PLP.PLP>
-41.9681

> <Gold.PLP.part.hbond>
-2.0000

> <Gold.PLP.part.metal>
0.0000

> <Gold.PLP.part.buried>
-4.2167

> <Gold.PLP.part.nonpolar>
-36.5619

> <Gold.PLP.part.repulsive>
0.1598

> <Gold.PLP.ligand.clash>
0.0000

> <Gold.PLP.ligand.torsion>
0.6941

> <Gold.PLP.Chemscore.Hbond>
1.8720

> <Gold.PLP.Chemscore.CHOScore>
0.0000

> <Gold.PLP.Chemscore.Metal>
0.0000

> <Gold.Chemscore.Hbonds>
donor molecule, donor type, donor heavy atom, donor atom, acceptor molecule, acceptor atom, score
      P1  H  6896  6907       L1     4  1.00
      P1  H  7989  7998       L1    11  0.86

> <Gold.PLP.Chemscore.Internal.Correction>
0.2349

> <Gold.Rescore>
     Score         DG    S(hbond)    S(metal)    S(lipo)     H(rot)  DE(clash)    DE(int)     intcor
     18.68     -19.47       1.85        0.00     111.34       2.03       0.08       0.71       ----

> <Gold.Chemscore.Fitness>
18.6835

> <Gold.Chemscore.DG>
-19.4691

> <Gold.Chemscore.ZeroCoef>
-5.4800

> <Gold.Chemscore.Hbond>
1.8470

> <Gold.Chemscore.Metal>
0.0000

> <Gold.Chemscore.Lipo>
111.3427

> <Gold.Chemscore.Internal_Hbond>
0.0000

> <Gold.Chemscore.DEClash>
0.0794

> <Gold.Chemscore.DEInternal>
0.7061

> <Gold.Chemscore.Rot>
2.0340

> <Gold.Chemscore.Internal.Correction>
   9.000000E+99

> <Gold.Chemscore.Hbonds>
donor molecule, donor type, donor heavy atom, donor atom, acceptor molecule, acceptor atom, score
      P1  H  6896  6907       L1     4  0.98
      P1  H  7989  7998       L1    11  0.84

> <Gold.Chemscore.Hbond.Weighted>
-6.1691

> <Gold.Chemscore.Metal.Weighted>
-0.0000

> <Gold.Chemscore.Lipo.Weighted>
-13.0271

> <Gold.Chemscore.Internal_Hbond.Weighted>
0.0000

> <Gold.Chemscore.DEClash.Weighted>
0.0794

> <Gold.Chemscore.DEInternal.Weighted>
0.7061

> <Gold.Chemscore.Rot.Weighted>
5.2071

> <Gold.Chemscore.Internal.Correction.Weighted>
   9.000000E+99

> <Gold.Protein.RotatedTorsions>
[ 6907 6896 6895 6894 ] final -116.09 input  -60.11 | X-H torsion
[ 7974 7965 7964 7962 ] final   92.91 input  175.53 | X-H torsion
[ 8008 7997 7996 7995 ] final -147.74 input   59.86 | X-H torsion
[ 10167 10162 10161 10158 ] final  137.67 input  -65.29 | X-H torsion
[ 10718 10713 10712 10709 ] final -101.98 input   66.30 | X-H torsion
[ 10763 10752 10751 10750 ] final  159.95 input  -60.55 | X-H torsion
[ 11005 11000 10999 10996 ] final   25.05 input  -57.11 | X-H torsion

> <Gold.Protein.ActiveResidues>
 VAL166  LYS551  ARG553  GLY616  TRP617  ASP618  TYR619  PRO620  LYS621  CYS622 
 ASP623  PHE694  ASN695  SER759  ASP760  ASP761  ALA762  ILE779  LEU786  VAL792 
 PHE793  MET794  SER795  GLU796  ALA797  LYS798  CYS799  TRP800  GLU811  SER814 

> <Gold.Protein.RotatedAtoms>
  150.8028  133.8566  159.3220 H   0  0  0  0  0  0  0  0  0  0  0  0  # atno 6907 bound_to 6896
  151.6374  135.1015  160.0144 H   0  0  0  0  0  0  0  0  0  0  0  0  # atno 6908 bound_to 6896
  152.4117  133.6934  159.6438 H   0  0  0  0  0  0  0  0  0  0  0  0  # atno 6909 bound_to 6896
  145.4860  139.2277  143.2856 H   0  0  0  0  0  0  0  0  0  0  0  0  # atno 7974 bound_to 7965
  155.5805  140.0643  157.2784 H   0  0  0  0  0  0  0  0  0  0  0  0  # atno 8008 bound_to 7997
  154.4334  140.1853  156.1017 H   0  0  0  0  0  0  0  0  0  0  0  0  # atno 8009 bound_to 7997
  156.0309  140.3306  155.7142 H   0  0  0  0  0  0  0  0  0  0  0  0  # atno 8010 bound_to 7997
  139.5136  144.6397  151.5602 H   0  0  0  0  0  0  0  0  0  0  0  0  # atno 10167 bound_to 10162
  156.0213  130.5399  150.7042 H   0  0  0  0  0  0  0  0  0  0  0  0  # atno 10718 bound_to 10713
  154.2398  135.2775  155.2858 H   0  0  0  0  0  0  0  0  0  0  0  0  # atno 10763 bound_to 10752
  154.5554  135.5662  153.6963 H   0  0  0  0  0  0  0  0  0  0  0  0  # atno 10764 bound_to 10752
  153.0002  135.6285  154.2542 H   0  0  0  0  0  0  0  0  0  0  0  0  # atno 10765 bound_to 10752
  140.3520  134.2218  155.7679 H   0  0  0  0  0  0  0  0  0  0  0  0  # atno 11005 bound_to 11000
  146.2313  140.5650  142.8974 LP  0  0  0  0  0  0  0  0  0  0  0  0  # atno 17320 bound_to 7965
  144.7861  140.5940  143.6572 LP  0  0  0  0  0  0  0  0  0  0  0  0  # atno 17321 bound_to 7965
  140.6159  143.9349  150.6488 LP  0  0  0  0  0  0  0  0  0  0  0  0  # atno 17342 bound_to 10162
  140.2607  143.3526  152.1325 LP  0  0  0  0  0  0  0  0  0  0  0  0  # atno 17343 bound_to 10162
  157.4695  131.0891  151.0658 LP  0  0  0  0  0  0  0  0  0  0  0  0  # atno 17370 bound_to 10713
  157.1122  130.6026  149.5485 LP  0  0  0  0  0  0  0  0  0  0  0  0  # atno 17371 bound_to 10713
  141.2009  133.7975  157.0465 LP  0  0  0  0  0  0  0  0  0  0  0  0  # atno 17394 bound_to 11000
  140.0695  134.9710  157.1443 LP  0  0  0  0  0  0  0  0  0  0  0  0  # atno 17395 bound_to 11000

$$$$
