AV-unprocessed.smi:2988|AV-procd|sdf|11388|dock3
  -GOLD-   2272016313D 1   1.00000     0.00000
 Structure written by MMmdl.
 37 38  0  0  0  0  0  0  0  0  1 V2000
  152.8421  138.4645  155.6289 C   0  0  0  0  0  0  0  0  0  0  0  0
  151.8914  139.6313  155.9486 C   0  0  1  0  0  0  0  0  0  0  0  0
  150.9786  139.9593  154.7471 C   0  0  0  0  0  0  0  0  0  0  0  0
  150.0584  141.1545  155.0438 C   0  0  0  0  0  0  0  0  0  0  0  0
  149.2304  140.9238  156.3169 C   0  0  0  0  0  0  0  0  0  0  0  0
  150.1353  140.5958  157.5178 C   0  0  0  0  0  0  0  0  0  0  0  0
  151.0611  139.3928  157.2342 C   0  0  1  0  0  0  0  0  0  0  0  0
  150.2817  138.1641  157.1158 N   0  0  0  0  0  0  0  0  0  0  0  0
  150.3201  137.1023  157.9370 C   0  0  0  0  0  0  0  0  0  0  0  0
  151.0809  137.0278  158.9008 O   0  0  0  0  0  0  0  0  0  0  0  0
  149.3490  135.9433  157.6473 C   0  0  0  0  0  0  0  0  0  0  0  0
  148.5117  135.5484  158.7940 N   0  0  0  0  0  0  0  0  0  0  0  0
  148.6162  134.2107  159.1332 N   0  0  0  0  0  0  0  0  0  0  0  0
  147.8834  133.7374  160.0815 C   0  0  0  0  0  0  0  0  0  0  0  0
  146.9474  134.5602  160.8153 C   0  0  0  0  0  0  0  0  0  0  0  0
  145.9836  133.8672  162.0714 Cl  0  0  0  0  0  0  0  0  0  0  0  0
  146.8614  135.8729  160.4834 C   0  0  0  0  0  0  0  0  0  0  0  0
  145.7601  136.9193  161.3117 Cl  0  0  0  0  0  0  0  0  0  0  0  0
  147.6848  136.4484  159.4114 C   0  0  0  0  0  0  0  0  0  0  0  0
  147.6295  137.6315  159.0744 O   0  0  0  0  0  0  0  0  0  0  0  0
  152.2965  137.5521  155.3854 H   0  0  0  0  0  0  0  0  0  0  0  0
  153.4943  138.2475  156.4752 H   0  0  0  0  0  0  0  0  0  0  0  0
  153.4787  138.7029  154.7765 H   0  0  0  0  0  0  0  0  0  0  0  0
  152.5176  140.5066  156.1282 H   0  0  0  0  0  0  0  0  0  0  0  0
  151.5854  140.1796  153.8683 H   0  0  0  0  0  0  0  0  0  0  0  0
  150.3730  139.0895  154.4883 H   0  0  0  0  0  0  0  0  0  0  0  0
  150.6599  142.0572  155.1594 H   0  0  0  0  0  0  0  0  0  0  0  0
  149.3952  141.3318  154.1968 H   0  0  0  0  0  0  0  0  0  0  0  0
  148.6316  141.8085  156.5349 H   0  0  0  0  0  0  0  0  0  0  0  0
  148.5235  140.1097  156.1518 H   0  0  0  0  0  0  0  0  0  0  0  0
  150.7453  141.4685  157.7537 H   0  0  0  0  0  0  0  0  0  0  0  0
  149.5252  140.4081  158.4021 H   0  0  0  0  0  0  0  0  0  0  0  0
  151.7523  139.2817  158.0720 H   0  0  0  0  0  0  0  0  0  0  0  0
  149.6262  138.1285  156.3486 H   0  0  0  0  0  0  0  0  0  0  0  0
  148.7165  136.2382  156.8080 H   0  0  0  0  0  0  0  0  0  0  0  0
  149.9224  135.0868  157.2886 H   0  0  0  0  0  0  0  0  0  0  0  0
  147.9282  132.6899  160.3803 H   0  0  0  0  0  0  0  0  0  0  0  0
  1  2  1  0  0  0  0
  1 21  1  0  0  0  0
  1 22  1  0  0  0  0
  1 23  1  0  0  0  0
  2  7  1  0  0  0  0
  2  3  1  0  0  0  0
  2 24  1  0  0  0  0
  3  4  1  0  0  0  0
  3 25  1  0  0  0  0
  3 26  1  0  0  0  0
  4  5  1  0  0  0  0
  4 27  1  0  0  0  0
  4 28  1  0  0  0  0
  5  6  1  0  0  0  0
  5 29  1  0  0  0  0
  5 30  1  0  0  0  0
  6  7  1  0  0  0  0
  6 31  1  0  0  0  0
  6 32  1  0  0  0  0
  7  8  1  0  0  0  0
  7 33  1  0  0  0  0
  8  9  1  0  0  0  0
  8 34  1  0  0  0  0
  9 10  2  0  0  0  0
  9 11  1  0  0  0  0
 11 12  1  0  0  0  0
 11 35  1  0  0  0  0
 11 36  1  0  0  0  0
 12 19  1  0  0  0  0
 12 13  1  0  0  0  0
 13 14  2  0  0  0  0
 14 15  1  0  0  0  0
 14 37  1  0  0  0  0
 15 16  1  0  0  0  0
 15 17  2  0  0  0  0
 17 18  1  0  0  0  0
 17 19  1  0  0  0  0
 19 20  2  0  0  0  0
M  END
> <s_m_source_file>
AV-unprocessed.smi

> <i_m_source_file_index>
2988

> <i_lp_mmshare_version>
43012

> <i_f3d_flags>
0

> <s_epik_input>
W0NIM11bQ0BASF0xW0NIMl1bQ0gyXVtDSDJdW0NIMl1bQ0BIXTFbTkhdQyg9TylbQ0gyXW4ybltjSF1jKENsKWMoQ2wpYzI9Tw==

> <s_epik_cmdline>
J2VwaWtfcHl0aG9uJywgJy1waCcsICc3LjAnLCAnLXRuJywgJzgnLCAnLW1hJywgJzIwMCcsICctbWV0YWxfYmluZGluZycsICctaW1hZScsICc8aW5maWxlLm1hZT4nLCAnLW9tYWUnLCAnPG91dGZpbGUubWFlPic=

> <r_lp_tautomer_probability>
1

> <r_epik_Ionization_Penalty>
1.90782e-08

> <r_epik_Ionization_Penalty_Charging>
3.13143e-11

> <r_epik_Ionization_Penalty_Neutral>
1.90469e-08

> <r_epik_State_Penalty>
-0

> <r_epik_Charging_Adjusted_Penalty>
3.13143e-11

> <i_epik_Tot_Q>
0

> <i_epik_Tot_abs_Q>
0

> <r_epik_Metal_State_Penalty>
-0

> <b_epik_Metal_Only>
0

> <s_lp_Force_Field>
OPLS_2005

> <r_lp_Energy>
22.2561

> <b_lp_Chiralities_Consistent>
1

> <s_lp_Variant>
AV-unprocessed.smi:2988-2

> <Gold.Version>
5.8.1

> <Gold.Id.Protein>
6NUR|6NUR_protein|mol2

> <Gold.PLP.Fitness>
36.2048

> <Gold.PLP.PLP>
-31.9127

> <Gold.PLP.part.hbond>
-3.2891

> <Gold.PLP.part.metal>
0.0000

> <Gold.PLP.part.buried>
-1.0133

> <Gold.PLP.part.nonpolar>
-28.4163

> <Gold.PLP.part.repulsive>
0.0000

> <Gold.PLP.ligand.clash>
0.0000

> <Gold.PLP.ligand.torsion>
0.0769

> <Gold.PLP.Chemscore.Hbond>
1.4793

> <Gold.PLP.Chemscore.CHOScore>
0.0000

> <Gold.PLP.Chemscore.Metal>
0.0000

> <Gold.Chemscore.Hbonds>
donor molecule, donor type, donor heavy atom, donor atom, acceptor molecule, acceptor atom, score
      P1  H  6896  6907       L1    13  0.94
      P1  H  6896  6908       L1    10  0.12
      P1  H  6934  6947       L1    20  0.14

> <Gold.PLP.Chemscore.Internal.Correction>
0.0080

> <Gold.Rescore>
     Score         DG    S(hbond)    S(metal)    S(lipo)     H(rot)  DE(clash)    DE(int)     intcor
     13.81     -14.16       1.03        0.00      77.67       1.50       0.23       0.13       ----

> <Gold.Chemscore.Fitness>
13.8110

> <Gold.Chemscore.DG>
-14.1632

> <Gold.Chemscore.ZeroCoef>
-5.4800

> <Gold.Chemscore.Hbond>
1.0269

> <Gold.Chemscore.Metal>
0.0000

> <Gold.Chemscore.Lipo>
77.6715

> <Gold.Chemscore.Internal_Hbond>
0.0000

> <Gold.Chemscore.DEClash>
0.2272

> <Gold.Chemscore.DEInternal>
0.1250

> <Gold.Chemscore.Rot>
1.4977

> <Gold.Chemscore.Internal.Correction>
   9.000000E+99

> <Gold.Chemscore.Hbonds>
donor molecule, donor type, donor heavy atom, donor atom, acceptor molecule, acceptor atom, score
      P1  H  6896  6907       L1    13  0.21
      P1  H  6896  6908       L1    10  0.12
      P1  H  6934  6947       L1    20  0.11

> <Gold.Chemscore.Hbond.Weighted>
-3.4298

> <Gold.Chemscore.Metal.Weighted>
-0.0000

> <Gold.Chemscore.Lipo.Weighted>
-9.0876

> <Gold.Chemscore.Internal_Hbond.Weighted>
0.0000

> <Gold.Chemscore.DEClash.Weighted>
0.2272

> <Gold.Chemscore.DEInternal.Weighted>
0.1250

> <Gold.Chemscore.Rot.Weighted>
3.8341

> <Gold.Chemscore.Internal.Correction.Weighted>
   9.000000E+99

> <Gold.Protein.RotatedTorsions>
[ 6907 6896 6895 6894 ] final -101.86 input  -60.11 | X-H torsion
[ 7974 7965 7964 7962 ] final   45.16 input  175.53 | X-H torsion
[ 8008 7997 7996 7995 ] final  136.53 input   59.86 | X-H torsion
[ 10167 10162 10161 10158 ] final   32.18 input  -65.29 | X-H torsion
[ 10718 10713 10712 10709 ] final   38.98 input   66.30 | X-H torsion
[ 10763 10752 10751 10750 ] final  135.03 input  -60.55 | X-H torsion
[ 11005 11000 10999 10996 ] final   -2.82 input  -57.11 | X-H torsion

> <Gold.Protein.ActiveResidues>
 VAL166  LYS551  ARG553  GLY616  TRP617  ASP618  TYR619  PRO620  LYS621  CYS622 
 ASP623  PHE694  ASN695  SER759  ASP760  ASP761  ALA762  ILE779  LEU786  VAL792 
 PHE793  MET794  SER795  GLU796  ALA797  LYS798  CYS799  TRP800  GLU811  SER814 

> <Gold.Protein.RotatedAtoms>
  150.7172  134.0669  159.3850 H   0  0  0  0  0  0  0  0  0  0  0  0  # atno 6907 bound_to 6896
  151.8650  135.0508  160.0482 H   0  0  0  0  0  0  0  0  0  0  0  0  # atno 6908 bound_to 6896
  152.2687  133.5327  159.5462 H   0  0  0  0  0  0  0  0  0  0  0  0  # atno 6909 bound_to 6896
  146.0505  139.4995  142.9721 H   0  0  0  0  0  0  0  0  0  0  0  0  # atno 7974 bound_to 7965
  156.3004  140.2442  156.3761 H   0  0  0  0  0  0  0  0  0  0  0  0  # atno 8008 bound_to 7997
  154.8744  140.0415  157.1764 H   0  0  0  0  0  0  0  0  0  0  0  0  # atno 8009 bound_to 7997
  154.8761  140.2942  155.5456 H   0  0  0  0  0  0  0  0  0  0  0  0  # atno 8010 bound_to 7997
  140.4522  144.1032  150.6194 H   0  0  0  0  0  0  0  0  0  0  0  0  # atno 10167 bound_to 10162
  157.3652  130.7671  149.7077 H   0  0  0  0  0  0  0  0  0  0  0  0  # atno 10718 bound_to 10713
  153.8333  135.3101  155.3420 H   0  0  0  0  0  0  0  0  0  0  0  0  # atno 10763 bound_to 10752
  154.7964  135.4753  154.0173 H   0  0  0  0  0  0  0  0  0  0  0  0  # atno 10764 bound_to 10752
  153.1620  135.6862  153.8819 H   0  0  0  0  0  0  0  0  0  0  0  0  # atno 10765 bound_to 10752
  140.6626  133.9307  155.8445 H   0  0  0  0  0  0  0  0  0  0  0  0  # atno 11005 bound_to 11000
  145.6732  141.0211  143.1646 LP  0  0  0  0  0  0  0  0  0  0  0  0  # atno 17320 bound_to 7965
  144.7120  139.8335  143.7411 LP  0  0  0  0  0  0  0  0  0  0  0  0  # atno 17321 bound_to 7965
  140.4194  143.2619  151.9734 LP  0  0  0  0  0  0  0  0  0  0  0  0  # atno 17342 bound_to 10162
  139.4797  144.5844  151.7878 LP  0  0  0  0  0  0  0  0  0  0  0  0  # atno 17343 bound_to 10162
  155.9745  130.4102  150.3921 LP  0  0  0  0  0  0  0  0  0  0  0  0  # atno 17370 bound_to 10713
  157.2004  131.0436  151.2653 LP  0  0  0  0  0  0  0  0  0  0  0  0  # atno 17371 bound_to 10713
  141.0454  134.0562  157.3851 LP  0  0  0  0  0  0  0  0  0  0  0  0  # atno 17394 bound_to 11000
  139.9008  135.0163  156.7258 LP  0  0  0  0  0  0  0  0  0  0  0  0  # atno 17395 bound_to 11000

$$$$
