AV-unprocessed.smi:2734|AV-procd|sdf|10540|dock1
  -GOLD-   2272014583D 1   1.00000     0.00000
 Structure written by MMmdl.
 41 43  0  0  0  0  0  0  0  0  2 V2000
  152.2238  143.9008  161.6533 C   0  0  0  0  0  0  0  0  0  0  0  0
  152.1110  143.0867  160.3756 C   0  0  0  0  0  0  0  0  0  0  0  0
  151.2898  143.5756  159.3347 C   0  0  0  0  0  0  0  0  0  0  0  0
  151.2034  142.8067  158.1802 C   0  0  0  0  0  0  0  0  0  0  0  0
  150.4863  143.0090  156.9993 N   0  3  0  0  0  0  0  0  0  0  0  0
  150.7111  141.9708  156.1473 C   0  0  0  0  0  0  0  0  0  0  0  0
  151.5614  141.1079  156.7665 N   0  0  0  0  0  0  0  0  0  0  0  0
  152.1104  139.8314  156.2872 C   0  0  0  0  0  0  0  0  0  0  0  0
  151.0375  138.8995  155.6874 C   0  0  1  0  0  0  0  0  0  0  0  0
  150.7159  139.3870  154.4012 O   0  0  0  0  0  0  0  0  0  0  0  0
  151.4780  137.4281  155.5800 C   0  0  0  0  0  0  0  0  0  0  0  0
  150.1770  136.3591  154.8950 S   0  0  0  0  0  0  0  0  0  0  0  0
  149.8982  135.3099  156.2891 C   0  0  0  0  0  0  0  0  0  0  0  0
  149.5671  135.6957  157.5168 N   0  0  0  0  0  0  0  0  0  0  0  0
  149.4640  134.5126  158.2229 N   0  0  0  0  0  0  0  0  0  0  0  0
  149.7184  133.4868  157.4637 N   0  0  0  0  0  0  0  0  0  0  0  0
  149.9964  133.9760  156.2308 N   0  0  0  0  0  0  0  0  0  0  0  0
  150.3258  133.0920  155.1304 C   0  0  0  0  0  0  0  0  0  0  0  0
  151.9005  141.5913  158.0367 C   0  0  0  0  0  0  0  0  0  0  0  0
  152.7172  141.0976  159.0519 C   0  0  0  0  0  0  0  0  0  0  0  0
  152.8173  141.8641  160.2347 C   0  0  0  0  0  0  0  0  0  0  0  0
  153.6990  141.3470  161.3587 C   0  0  0  0  0  0  0  0  0  0  0  0
  151.5407  144.7506  161.6460 H   0  0  0  0  0  0  0  0  0  0  0  0
  153.2370  144.2861  161.7707 H   0  0  0  0  0  0  0  0  0  0  0  0
  151.9821  143.2897  162.5232 H   0  0  0  0  0  0  0  0  0  0  0  0
  150.7499  144.5061  159.4342 H   0  0  0  0  0  0  0  0  0  0  0  0
  150.2880  141.8515  155.1602 H   0  0  0  0  0  0  0  0  0  0  0  0
  152.8592  140.0699  155.5306 H   0  0  0  0  0  0  0  0  0  0  0  0
  152.6472  139.3431  157.1006 H   0  0  0  0  0  0  0  0  0  0  0  0
  150.1377  138.9563  156.3009 H   0  0  0  0  0  0  0  0  0  0  0  0
  149.9572  138.9203  154.0845 H   0  0  0  0  0  0  0  0  0  0  0  0
  152.3733  137.3457  154.9627 H   0  0  0  0  0  0  0  0  0  0  0  0
  151.7276  137.0423  156.5680 H   0  0  0  0  0  0  0  0  0  0  0  0
  149.5880  133.2059  154.3360 H   0  0  0  0  0  0  0  0  0  0  0  0
  150.3318  132.0527  155.4615 H   0  0  0  0  0  0  0  0  0  0  0  0
  151.3123  133.3444  154.7405 H   0  0  0  0  0  0  0  0  0  0  0  0
  153.2514  140.1648  158.9511 H   0  0  0  0  0  0  0  0  0  0  0  0
  154.2379  140.4469  161.0617 H   0  0  0  0  0  0  0  0  0  0  0  0
  153.0964  141.1020  162.2335 H   0  0  0  0  0  0  0  0  0  0  0  0
  154.4377  142.0959  161.6445 H   0  0  0  0  0  0  0  0  0  0  0  0
  149.8850  143.7952  156.7886 H   0  0  0  0  0  0  0  0  0  0  0  0
  1  2  1  0  0  0  0
  1 23  1  0  0  0  0
  1 24  1  0  0  0  0
  1 25  1  0  0  0  0
  2 21  1  0  0  0  0
  2  3  2  0  0  0  0
  3  4  1  0  0  0  0
  3 26  1  0  0  0  0
  4 19  2  0  0  0  0
  4  5  1  0  0  0  0
  5  6  2  0  0  0  0
  5 41  1  0  0  0  0
  6  7  1  0  0  0  0
  6 27  1  0  0  0  0
  7  8  1  0  0  0  0
  7 19  1  0  0  0  0
  8  9  1  0  0  0  0
  8 28  1  0  0  0  0
  8 29  1  0  0  0  0
  9 10  1  0  0  0  0
  9 11  1  0  0  0  0
  9 30  1  0  0  0  0
 10 31  1  0  0  0  0
 11 12  1  0  0  0  0
 11 32  1  0  0  0  0
 11 33  1  0  0  0  0
 12 13  1  0  0  0  0
 13 17  1  0  0  0  0
 13 14  2  0  0  0  0
 14 15  1  0  0  0  0
 15 16  2  0  0  0  0
 16 17  1  0  0  0  0
 17 18  1  0  0  0  0
 18 34  1  0  0  0  0
 18 35  1  0  0  0  0
 18 36  1  0  0  0  0
 19 20  1  0  0  0  0
 20 21  2  0  0  0  0
 20 37  1  0  0  0  0
 21 22  1  0  0  0  0
 22 38  1  0  0  0  0
 22 39  1  0  0  0  0
 22 40  1  0  0  0  0
M  CHG  1   5   1
M  END
> <s_m_source_file>
AV-unprocessed.smi

> <i_m_source_file_index>
2734

> <i_lp_mmshare_version>
43012

> <i_f3d_flags>
0

> <s_epik_input>
W0NIM11jKFtjSF0xKWMoW0NIM10pW2NIXWMoYzEyKW4oW2NIXW4yKVtDSDJdW0NASF0oW09IXSlbQ0gyXVNjM25ubm4zW0NIM10=

> <s_epik_cmdline>
J2VwaWtfcHl0aG9uJywgJy1waCcsICc3LjAnLCAnLXRuJywgJzgnLCAnLW1hJywgJzIwMCcsICctbWV0YWxfYmluZGluZycsICctaW1hZScsICc8aW5maWxlLm1hZT4nLCAnLW9tYWUnLCAnPG91dGZpbGUubWFlPic=

> <r_lp_tautomer_probability>
1

> <r_epik_Ionization_Penalty>
1.07429

> <r_epik_Ionization_Penalty_Charging>
1.07429

> <r_epik_Ionization_Penalty_Neutral>
3.30514e-06

> <r_epik_State_Penalty>
1.12915

> <r_epik_Charging_Adjusted_Penalty>
2.20344

> <i_epik_Tot_Q>
1

> <i_epik_Tot_abs_Q>
1

> <r_epik_Metal_State_Penalty>
1.22002

> <b_epik_Metal_Only>
0

> <s_lp_Force_Field>
OPLS_2005

> <r_lp_Energy>
15.3116

> <b_lp_Chiralities_Consistent>
1

> <s_lp_Variant>
AV-unprocessed.smi:2734-4

> <Gold.Version>
5.8.1

> <Gold.Id.Protein>
6NUR|6NUR_protein|mol2

> <Gold.PLP.Fitness>
54.4762

> <Gold.PLP.PLP>
-43.7144

> <Gold.PLP.part.hbond>
-4.0000

> <Gold.PLP.part.metal>
0.0000

> <Gold.PLP.part.buried>
-6.3002

> <Gold.PLP.part.nonpolar>
-33.4611

> <Gold.PLP.part.repulsive>
0.0171

> <Gold.PLP.ligand.clash>
0.0000

> <Gold.PLP.ligand.torsion>
0.6587

> <Gold.PLP.Chemscore.Hbond>
4.0000

> <Gold.PLP.Chemscore.CHOScore>
0.0000

> <Gold.PLP.Chemscore.Metal>
0.0000

> <Gold.Chemscore.Hbonds>
donor molecule, donor type, donor heavy atom, donor atom, acceptor molecule, acceptor atom, score
      L1  H     5    41       P1  8028  2.00
      P1  H  6896  6908       L1    15  1.00
      P1  H  7989  7998       L1    10  1.00

> <Gold.PLP.Chemscore.Internal.Correction>
0.0793

> <Gold.Rescore>
     Score         DG    S(hbond)    S(metal)    S(lipo)     H(rot)  DE(clash)    DE(int)     intcor
     18.89     -19.67       2.65        0.00     109.49       2.92       0.09       0.69       ----

> <Gold.Chemscore.Fitness>
18.8927

> <Gold.Chemscore.DG>
-19.6686

> <Gold.Chemscore.ZeroCoef>
-5.4800

> <Gold.Chemscore.Hbond>
2.6481

> <Gold.Chemscore.Metal>
0.0000

> <Gold.Chemscore.Lipo>
109.4866

> <Gold.Chemscore.Internal_Hbond>
0.0000

> <Gold.Chemscore.DEClash>
0.0852

> <Gold.Chemscore.DEInternal>
0.6906

> <Gold.Chemscore.Rot>
2.9164

> <Gold.Chemscore.Internal.Correction>
   9.000000E+99

> <Gold.Chemscore.Hbonds>
donor molecule, donor type, donor heavy atom, donor atom, acceptor molecule, acceptor atom, score
      L1  H     5    41       P1  8028  0.96
      P1  H  6896  6908       L1    15  0.26
      P1  H  7989  7998       L1    10  0.98

> <Gold.Chemscore.Hbond.Weighted>
-8.8446

> <Gold.Chemscore.Metal.Weighted>
-0.0000

> <Gold.Chemscore.Lipo.Weighted>
-12.8099

> <Gold.Chemscore.Internal_Hbond.Weighted>
0.0000

> <Gold.Chemscore.DEClash.Weighted>
0.0852

> <Gold.Chemscore.DEInternal.Weighted>
0.6906

> <Gold.Chemscore.Rot.Weighted>
7.4660

> <Gold.Chemscore.Internal.Correction.Weighted>
   9.000000E+99

> <Gold.Protein.RotatedTorsions>
[ 6907 6896 6895 6894 ] final  153.42 input  -60.11 | X-H torsion
[ 7974 7965 7964 7962 ] final   17.81 input  175.53 | X-H torsion
[ 8008 7997 7996 7995 ] final -128.04 input   59.86 | X-H torsion
[ 10167 10162 10161 10158 ] final -115.65 input  -65.29 | X-H torsion
[ 10718 10713 10712 10709 ] final  -39.79 input   66.30 | X-H torsion
[ 10763 10752 10751 10750 ] final -174.47 input  -60.55 | X-H torsion
[ 11005 11000 10999 10996 ] final  143.11 input  -57.11 | X-H torsion

> <Gold.Protein.ActiveResidues>
 VAL166  LYS551  ARG553  GLY616  TRP617  ASP618  TYR619  PRO620  LYS621  CYS622 
 ASP623  PHE694  ASN695  SER759  ASP760  ASP761  ALA762  ILE779  LEU786  VAL792 
 PHE793  MET794  SER795  GLU796  ALA797  LYS798  CYS799  TRP800  GLU811  SER814 

> <Gold.Protein.RotatedAtoms>
  152.0729  133.4115  159.4466 H   0  0  0  0  0  0  0  0  0  0  0  0  # atno 6907 bound_to 6896
  150.6863  134.3070  159.4739 H   0  0  0  0  0  0  0  0  0  0  0  0  # atno 6908 bound_to 6896
  152.0904  134.9410  160.0622 H   0  0  0  0  0  0  0  0  0  0  0  0  # atno 6909 bound_to 6896
  146.2206  139.8549  142.8615 H   0  0  0  0  0  0  0  0  0  0  0  0  # atno 7974 bound_to 7965
  155.2561  140.0434  157.2992 H   0  0  0  0  0  0  0  0  0  0  0  0  # atno 8008 bound_to 7997
  154.5739  140.2381  155.8121 H   0  0  0  0  0  0  0  0  0  0  0  0  # atno 8009 bound_to 7997
  156.2143  140.2989  155.9812 H   0  0  0  0  0  0  0  0  0  0  0  0  # atno 8010 bound_to 7997
  140.0878  143.4728  152.1888 H   0  0  0  0  0  0  0  0  0  0  0  0  # atno 10167 bound_to 10162
  156.2885  130.4225  149.8263 H   0  0  0  0  0  0  0  0  0  0  0  0  # atno 10718 bound_to 10713
  154.5959  135.2849  155.0587 H   0  0  0  0  0  0  0  0  0  0  0  0  # atno 10763 bound_to 10752
  154.1870  135.6447  153.5053 H   0  0  0  0  0  0  0  0  0  0  0  0  # atno 10764 bound_to 10752
  153.0138  135.5437  154.6661 H   0  0  0  0  0  0  0  0  0  0  0  0  # atno 10765 bound_to 10752
  140.0528  134.9246  157.1048 H   0  0  0  0  0  0  0  0  0  0  0  0  # atno 11005 bound_to 11000
  145.2764  141.0125  143.3742 LP  0  0  0  0  0  0  0  0  0  0  0  0  # atno 17320 bound_to 7965
  144.9184  139.4442  143.6553 LP  0  0  0  0  0  0  0  0  0  0  0  0  # atno 17321 bound_to 7965
  139.5742  144.7479  151.3809 LP  0  0  0  0  0  0  0  0  0  0  0  0  # atno 17342 bound_to 10162
  140.7044  143.7550  150.7457 LP  0  0  0  0  0  0  0  0  0  0  0  0  # atno 17343 bound_to 10162
  156.5685  130.8414  151.3349 LP  0  0  0  0  0  0  0  0  0  0  0  0  # atno 17370 bound_to 10713
  157.7335  130.9732  150.1983 LP  0  0  0  0  0  0  0  0  0  0  0  0  # atno 17371 bound_to 10713
  140.3890  134.2205  155.7167 LP  0  0  0  0  0  0  0  0  0  0  0  0  # atno 17394 bound_to 11000
  141.1938  133.8142  157.0783 LP  0  0  0  0  0  0  0  0  0  0  0  0  # atno 17395 bound_to 11000

$$$$
