AV-unprocessed.smi:102|AV-procd|sdf|958|dock2
  -GOLD-   2262017493D 1   1.00000     0.00000
 Structure written by MMmdl.
 44 45  0  0  0  0  0  0  0  0  1 V2000
  150.3680  135.2662  155.7104 C   0  0  0  0  0  0  0  0  0  0  0  0
  151.5221  136.2029  156.0411 C   0  0  0  0  0  0  0  0  0  0  0  0
  152.6234  135.7704  156.3825 O   0  0  0  0  0  0  0  0  0  0  0  0
  151.1829  137.4989  155.9123 O   0  0  0  0  0  0  0  0  0  0  0  0
  152.1818  138.4831  155.6836 C   0  0  0  0  0  0  0  0  0  0  0  0
  151.5973  139.8998  155.7935 C   0  0  1  0  0  0  0  0  0  0  0  0
  150.5096  140.0670  154.8889 O   0  0  0  0  0  0  0  0  0  0  0  0
  149.5673  140.9529  155.4143 C   0  0  1  0  0  0  0  0  0  0  0  0
  148.2135  140.2834  155.4070 N   0  0  0  0  0  0  0  0  0  0  0  0
  147.9655  139.1478  156.1676 C   0  0  0  0  0  0  0  0  0  0  0  0
  146.7619  138.5284  156.1954 C   0  0  0  0  0  0  0  0  0  0  0  0
  146.5963  137.4331  156.9565 F   0  0  0  0  0  0  0  0  0  0  0  0
  145.6419  139.0429  155.4130 C   0  0  0  0  0  0  0  0  0  0  0  0
  144.5164  138.5502  155.3702 O   0  0  0  0  0  0  0  0  0  0  0  0
  145.9332  140.1947  154.6763 N   0  0  0  0  0  0  0  0  0  0  0  0
  147.1680  140.8451  154.6411 C   0  0  0  0  0  0  0  0  0  0  0  0
  147.3059  141.8645  153.9667 O   0  0  0  0  0  0  0  0  0  0  0  0
  149.9774  141.2867  156.8547 C   0  0  2  0  0  0  0  0  0  0  0  0
  150.5964  142.5695  156.8863 O   0  0  0  0  0  0  0  0  0  0  0  0
  150.9457  143.1272  158.0579 C   0  0  0  0  0  0  0  0  0  0  0  0
  151.7213  144.4244  157.8731 C   0  0  0  0  0  0  0  0  0  0  0  0
  150.6921  142.6842  159.1779 O   0  0  0  0  0  0  0  0  0  0  0  0
  150.9777  140.1801  157.1603 C   0  0  2  0  0  0  0  0  0  0  0  0
  151.9525  140.5679  158.1216 O   0  0  0  0  0  0  0  0  0  0  0  0
  152.7433  139.6423  158.6913 C   0  0  0  0  0  0  0  0  0  0  0  0
  153.6811  140.2400  159.7314 C   0  0  0  0  0  0  0  0  0  0  0  0
  152.7417  138.4365  158.4433 O   0  0  0  0  0  0  0  0  0  0  0  0
  145.1853  140.5921  154.1266 H   0  0  0  0  0  0  0  0  0  0  0  0
  150.0654  135.3920  154.6707 H   0  0  0  0  0  0  0  0  0  0  0  0
  149.5113  135.4789  156.3502 H   0  0  0  0  0  0  0  0  0  0  0  0
  150.6629  134.2274  155.8614 H   0  0  0  0  0  0  0  0  0  0  0  0
  153.0367  138.3546  156.3492 H   0  0  0  0  0  0  0  0  0  0  0  0
  152.5553  138.3303  154.6710 H   0  0  0  0  0  0  0  0  0  0  0  0
  152.3550  140.6532  155.5709 H   0  0  0  0  0  0  0  0  0  0  0  0
  149.4965  141.8195  154.7542 H   0  0  0  0  0  0  0  0  0  0  0  0
  148.7554  138.7286  156.7732 H   0  0  0  0  0  0  0  0  0  0  0  0
  149.1218  141.2372  157.5303 H   0  0  0  0  0  0  0  0  0  0  0  0
  152.4631  144.3164  157.0817 H   0  0  0  0  0  0  0  0  0  0  0  0
  152.2374  144.6959  158.7943 H   0  0  0  0  0  0  0  0  0  0  0  0
  151.0432  145.2345  157.6050 H   0  0  0  0  0  0  0  0  0  0  0  0
  150.4410  139.2888  157.4893 H   0  0  0  0  0  0  0  0  0  0  0  0
  154.1277  141.1621  159.3586 H   0  0  0  0  0  0  0  0  0  0  0  0
  154.4827  139.5408  159.9706 H   0  0  0  0  0  0  0  0  0  0  0  0
  153.1334  140.4641  160.6469 H   0  0  0  0  0  0  0  0  0  0  0  0
  1  2  1  0  0  0  0
  1 29  1  0  0  0  0
  1 30  1  0  0  0  0
  1 31  1  0  0  0  0
  2  3  2  0  0  0  0
  2  4  1  0  0  0  0
  4  5  1  0  0  0  0
  5  6  1  0  0  0  0
  5 32  1  0  0  0  0
  5 33  1  0  0  0  0
  6 23  1  0  0  0  0
  6  7  1  0  0  0  0
  6 34  1  0  0  0  0
  7  8  1  0  0  0  0
  8  9  1  0  0  0  0
  8 18  1  0  0  0  0
  8 35  1  0  0  0  0
  9 16  1  0  0  0  0
  9 10  1  0  0  0  0
 10 11  2  0  0  0  0
 10 36  1  0  0  0  0
 11 12  1  0  0  0  0
 11 13  1  0  0  0  0
 13 14  2  0  0  0  0
 13 15  1  0  0  0  0
 15 28  1  0  0  0  0
 15 16  1  0  0  0  0
 16 17  2  0  0  0  0
 18 19  1  0  0  0  0
 18 23  1  0  0  0  0
 18 37  1  0  0  0  0
 19 20  1  0  0  0  0
 20 21  1  0  0  0  0
 20 22  2  0  0  0  0
 21 38  1  0  0  0  0
 21 39  1  0  0  0  0
 21 40  1  0  0  0  0
 23 24  1  0  0  0  0
 23 41  1  0  0  0  0
 24 25  1  0  0  0  0
 25 26  1  0  0  0  0
 25 27  2  0  0  0  0
 26 42  1  0  0  0  0
 26 43  1  0  0  0  0
 26 44  1  0  0  0  0
M  END
> <s_m_source_file>
AV-unprocessed.smi

> <i_m_source_file_index>
102

> <i_lp_mmshare_version>
43012

> <i_f3d_flags>
0

> <s_epik_input>
W0NIM11DKD1PKU9bQ0gyXVtDQEBIXTFPW0NASF0oW0NAQEhdKE9DKD1PKVtDSDNdKVtDQEhdMU9DKD1PKVtDSDNdKW4yW2NIXWMoRiljKD1PKVtuSF1jMj1P

> <s_epik_cmdline>
J2VwaWtfcHl0aG9uJywgJy1waCcsICc3LjAnLCAnLXRuJywgJzgnLCAnLW1hJywgJzIwMCcsICctbWV0YWxfYmluZGluZycsICctaW1hZScsICc8aW5maWxlLm1hZT4nLCAnLW9tYWUnLCAnPG91dGZpbGUubWFlPic=

> <r_lp_tautomer_probability>
0.999537

> <r_epik_Ionization_Penalty>
0.058267

> <r_epik_Ionization_Penalty_Charging>
0.058267

> <r_epik_Ionization_Penalty_Neutral>
6.57791e-16

> <r_epik_State_Penalty>
0.0503774

> <r_epik_Charging_Adjusted_Penalty>
0.108644

> <i_epik_Tot_Q>
0

> <i_epik_Tot_abs_Q>
0

> <r_epik_Metal_State_Penalty>
2.6644

> <b_epik_Metal_Only>
0

> <s_epik_Chemistry_Notes>
This compound has an ester and may undergo hydrolysis at high or low pH. This compound contains an acetal/aminal-like group ( X-CH(R)-Y where X, Y are N, S, or O) that may be acid/base labile, releasing an aldehyde.

> <s_lp_Force_Field>
OPLS_2005

> <r_lp_Energy>
14.1022

> <b_lp_Chiralities_Consistent>
1

> <s_lp_Variant>
AV-unprocessed.smi:102-14

> <Gold.Version>
5.8.1

> <Gold.Id.Protein>
6NUR|6NUR_protein|mol2

> <Gold.PLP.Fitness>
38.2711

> <Gold.PLP.PLP>
-31.5642

> <Gold.PLP.part.hbond>
-3.6648

> <Gold.PLP.part.metal>
0.0000

> <Gold.PLP.part.buried>
-5.8681

> <Gold.PLP.part.nonpolar>
-24.7196

> <Gold.PLP.part.repulsive>
1.6124

> <Gold.PLP.ligand.clash>
0.0000

> <Gold.PLP.ligand.torsion>
0.5946

> <Gold.PLP.Chemscore.Hbond>
2.5476

> <Gold.PLP.Chemscore.CHOScore>
0.0000

> <Gold.PLP.Chemscore.Metal>
0.0000

> <Gold.Chemscore.Hbonds>
donor molecule, donor type, donor heavy atom, donor atom, acceptor molecule, acceptor atom, score
      L1  H    15    28       P1 10175  0.50
      P1  H  7989  7998       L1     7  0.70
      P1  H 10752 10763       L1     3  0.73

> <Gold.PLP.Chemscore.Internal.Correction>
0.2534

> <Gold.Rescore>
     Score         DG    S(hbond)    S(metal)    S(lipo)     H(rot)  DE(clash)    DE(int)     intcor
      0.05      -6.34       1.89        0.00      42.08       4.05       0.01       6.28       ----

> <Gold.Chemscore.Fitness>
0.0480

> <Gold.Chemscore.DG>
-6.3392

> <Gold.Chemscore.ZeroCoef>
-5.4800

> <Gold.Chemscore.Hbond>
1.8889

> <Gold.Chemscore.Metal>
0.0000

> <Gold.Chemscore.Lipo>
42.0825

> <Gold.Chemscore.Internal_Hbond>
0.0000

> <Gold.Chemscore.DEClash>
0.0073

> <Gold.Chemscore.DEInternal>
6.2839

> <Gold.Chemscore.Rot>
4.0520

> <Gold.Chemscore.Internal.Correction>
   9.000000E+99

> <Gold.Chemscore.Hbonds>
donor molecule, donor type, donor heavy atom, donor atom, acceptor molecule, acceptor atom, score
      L1  H    15    28       P1 10175  0.48
      P1  H  7989  7998       L1     7  0.06
      P1  H 10752 10763       L1     3  0.14

> <Gold.Chemscore.Hbond.Weighted>
-6.3088

> <Gold.Chemscore.Metal.Weighted>
-0.0000

> <Gold.Chemscore.Lipo.Weighted>
-4.9236

> <Gold.Chemscore.Internal_Hbond.Weighted>
0.0000

> <Gold.Chemscore.DEClash.Weighted>
0.0073

> <Gold.Chemscore.DEInternal.Weighted>
6.2839

> <Gold.Chemscore.Rot.Weighted>
10.3732

> <Gold.Chemscore.Internal.Correction.Weighted>
   9.000000E+99

> <Gold.Protein.RotatedTorsions>
[ 6907 6896 6895 6894 ] final -142.05 input  -60.11 | X-H torsion
[ 7974 7965 7964 7962 ] final  147.34 input  175.53 | X-H torsion
[ 8008 7997 7996 7995 ] final -146.75 input   59.86 | X-H torsion
[ 10167 10162 10161 10158 ] final    0.13 input  -65.29 | X-H torsion
[ 10718 10713 10712 10709 ] final  -17.26 input   66.30 | X-H torsion
[ 10763 10752 10751 10750 ] final   88.44 input  -60.55 | X-H torsion
[ 11005 11000 10999 10996 ] final  -42.81 input  -57.11 | X-H torsion

> <Gold.Protein.ActiveResidues>
 VAL166  LYS551  ARG553  GLY616  TRP617  ASP618  TYR619  PRO620  LYS621  CYS622 
 ASP623  PHE694  ASN695  SER759  ASP760  ASP761  ALA762  ILE779  LEU786  VAL792 
 PHE793  MET794  SER795  GLU796  ALA797  LYS798  CYS799  TRP800  GLU811  SER814 

> <Gold.Protein.RotatedAtoms>
  151.0819  133.5383  159.2619 H   0  0  0  0  0  0  0  0  0  0  0  0  # atno 6907 bound_to 6896
  151.2283  135.0544  159.8987 H   0  0  0  0  0  0  0  0  0  0  0  0  # atno 6908 bound_to 6896
  152.5424  134.0612  159.8206 H   0  0  0  0  0  0  0  0  0  0  0  0  # atno 6909 bound_to 6896
  144.8599  139.6016  143.5935 H   0  0  0  0  0  0  0  0  0  0  0  0  # atno 7974 bound_to 7965
  155.5644  140.0628  157.2821 H   0  0  0  0  0  0  0  0  0  0  0  0  # atno 8008 bound_to 7997
  154.4380  140.1880  156.0861 H   0  0  0  0  0  0  0  0  0  0  0  0  # atno 8009 bound_to 7997
  156.0423  140.3294  155.7261 H   0  0  0  0  0  0  0  0  0  0  0  0  # atno 8010 bound_to 7997
  140.6742  143.6963  150.7987 H   0  0  0  0  0  0  0  0  0  0  0  0  # atno 10167 bound_to 10162
  156.5760  130.4762  149.6341 H   0  0  0  0  0  0  0  0  0  0  0  0  # atno 10718 bound_to 10713
  153.1769  135.4507  154.9976 H   0  0  0  0  0  0  0  0  0  0  0  0  # atno 10763 bound_to 10752
  154.8004  135.3253  154.7567 H   0  0  0  0  0  0  0  0  0  0  0  0  # atno 10764 bound_to 10752
  153.8036  135.6960  153.4906 H   0  0  0  0  0  0  0  0  0  0  0  0  # atno 10765 bound_to 10752
  141.0341  133.6807  156.2646 H   0  0  0  0  0  0  0  0  0  0  0  0  # atno 11005 bound_to 11000
  146.2853  139.6986  142.9200 LP  0  0  0  0  0  0  0  0  0  0  0  0  # atno 17320 bound_to 7965
  145.4332  141.0417  143.2899 LP  0  0  0  0  0  0  0  0  0  0  0  0  # atno 17321 bound_to 7965
  140.0653  143.5114  152.2607 LP  0  0  0  0  0  0  0  0  0  0  0  0  # atno 17342 bound_to 10162
  139.6026  144.7587  151.3137 LP  0  0  0  0  0  0  0  0  0  0  0  0  # atno 17343 bound_to 10162
  156.2673  130.6996  151.1783 LP  0  0  0  0  0  0  0  0  0  0  0  0  # atno 17370 bound_to 10713
  157.7337  131.0588  150.5561 LP  0  0  0  0  0  0  0  0  0  0  0  0  # atno 17371 bound_to 10713
  140.6353  134.5221  157.5564 LP  0  0  0  0  0  0  0  0  0  0  0  0  # atno 17394 bound_to 11000
  139.9228  134.8114  156.1158 LP  0  0  0  0  0  0  0  0  0  0  0  0  # atno 17395 bound_to 11000

$$$$
