AV-unprocessed.smi:2153|AV-procd|sdf|8766|dock8
  -GOLD-   2272011543D 1   1.00000     0.00000
 Structure written by MMmdl.
 48 49  0  0  0  0  0  0  0  0  1 V2000
  152.3526  144.4023  158.1282 C   0  0  0  0  0  0  0  0  0  0  0  0
  152.1860  143.6392  159.4524 C   0  0  2  0  0  0  0  0  0  0  0  0
  152.3863  144.5860  160.6532 C   0  0  0  0  0  0  0  0  0  0  0  0
  152.2325  143.8494  161.9921 C   0  0  0  0  0  0  0  0  0  0  0  0
  153.1970  142.6588  162.0786 C   0  0  0  0  0  0  0  0  0  0  0  0
  152.9979  141.7023  160.8942 C   0  0  0  0  0  0  0  0  0  0  0  0
  153.1470  142.4317  159.5419 C   0  0  1  0  0  0  0  0  0  0  0  0
  152.8235  141.5350  158.4865 O   0  0  0  0  0  0  0  0  0  0  0  0
  151.4444  141.2071  158.3955 C   0  0  0  0  0  0  0  0  0  0  0  0
  150.8587  141.8636  157.1411 C   0  0  0  0  0  0  0  0  0  0  0  0
  149.7141  141.1069  156.6528 N   0  0  0  0  0  0  0  0  0  0  0  0
  149.6849  140.4414  155.4903 C   0  0  0  0  0  0  0  0  0  0  0  0
  150.6391  140.4066  154.7119 O   0  0  0  0  0  0  0  0  0  0  0  0
  148.3676  139.7238  155.1632 C   0  0  0  0  0  0  0  0  0  0  0  0
  147.2023  140.6183  155.1494 N   0  0  0  0  0  0  0  0  0  0  0  0
  146.1390  140.3645  155.9969 C   0  0  0  0  0  0  0  0  0  0  0  0
  145.0327  141.1371  156.0573 C   0  0  0  0  0  0  0  0  0  0  0  0
  144.8978  142.3141  155.2088 C   0  0  0  0  0  0  0  0  0  0  0  0
  143.9075  143.0469  155.2182 O   0  0  0  0  0  0  0  0  0  0  0  0
  145.9999  142.5562  154.3572 N   0  0  0  0  0  0  0  0  0  0  0  0
  145.9032  143.7155  153.4946 C   0  0  0  0  0  0  0  0  0  0  0  0
  147.1547  141.7414  154.2942 C   0  0  0  0  0  0  0  0  0  0  0  0
  148.0934  141.9815  153.5314 O   0  0  0  0  0  0  0  0  0  0  0  0
  153.3646  144.7937  158.0211 H   0  0  0  0  0  0  0  0  0  0  0  0
  151.6625  145.2445  158.0717 H   0  0  0  0  0  0  0  0  0  0  0  0
  152.1525  143.7597  157.2704 H   0  0  0  0  0  0  0  0  0  0  0  0
  151.1630  143.2620  159.4911 H   0  0  0  0  0  0  0  0  0  0  0  0
  153.3767  145.0408  160.6029 H   0  0  0  0  0  0  0  0  0  0  0  0
  151.6691  145.4062  160.6058 H   0  0  0  0  0  0  0  0  0  0  0  0
  152.4151  144.5367  162.8187 H   0  0  0  0  0  0  0  0  0  0  0  0
  151.2053  143.4990  162.1019 H   0  0  0  0  0  0  0  0  0  0  0  0
  154.2260  143.0201  162.0890 H   0  0  0  0  0  0  0  0  0  0  0  0
  153.0457  142.1252  163.0173 H   0  0  0  0  0  0  0  0  0  0  0  0
  153.7133  140.8841  160.9709 H   0  0  0  0  0  0  0  0  0  0  0  0
  152.0070  141.2505  160.9570 H   0  0  0  0  0  0  0  0  0  0  0  0
  154.1707  142.7959  159.4306 H   0  0  0  0  0  0  0  0  0  0  0  0
  151.3330  140.1241  158.3259 H   0  0  0  0  0  0  0  0  0  0  0  0
  150.8980  141.5346  159.2804 H   0  0  0  0  0  0  0  0  0  0  0  0
  150.5621  142.8911  157.3574 H   0  0  0  0  0  0  0  0  0  0  0  0
  151.6183  141.9046  156.3591 H   0  0  0  0  0  0  0  0  0  0  0  0
  148.8886  141.0963  157.2343 H   0  0  0  0  0  0  0  0  0  0  0  0
  148.4634  139.2112  154.2044 H   0  0  0  0  0  0  0  0  0  0  0  0
  148.2163  138.9354  155.9019 H   0  0  0  0  0  0  0  0  0  0  0  0
  146.1946  139.5043  156.6482 H   0  0  0  0  0  0  0  0  0  0  0  0
  144.2378  140.8814  156.7425 H   0  0  0  0  0  0  0  0  0  0  0  0
  146.8324  143.8867  152.9524 H   0  0  0  0  0  0  0  0  0  0  0  0
  145.6929  144.5792  154.1280 H   0  0  0  0  0  0  0  0  0  0  0  0
  145.0866  143.5267  152.7956 H   0  0  0  0  0  0  0  0  0  0  0  0
  1  2  1  0  0  0  0
  1 24  1  0  0  0  0
  1 25  1  0  0  0  0
  1 26  1  0  0  0  0
  2  7  1  0  0  0  0
  2  3  1  0  0  0  0
  2 27  1  0  0  0  0
  3  4  1  0  0  0  0
  3 28  1  0  0  0  0
  3 29  1  0  0  0  0
  4  5  1  0  0  0  0
  4 30  1  0  0  0  0
  4 31  1  0  0  0  0
  5  6  1  0  0  0  0
  5 32  1  0  0  0  0
  5 33  1  0  0  0  0
  6  7  1  0  0  0  0
  6 34  1  0  0  0  0
  6 35  1  0  0  0  0
  7  8  1  0  0  0  0
  7 36  1  0  0  0  0
  8  9  1  0  0  0  0
  9 10  1  0  0  0  0
  9 37  1  0  0  0  0
  9 38  1  0  0  0  0
 10 11  1  0  0  0  0
 10 39  1  0  0  0  0
 10 40  1  0  0  0  0
 11 12  1  0  0  0  0
 11 41  1  0  0  0  0
 12 13  2  0  0  0  0
 12 14  1  0  0  0  0
 14 15  1  0  0  0  0
 14 42  1  0  0  0  0
 14 43  1  0  0  0  0
 15 22  1  0  0  0  0
 15 16  1  0  0  0  0
 16 17  2  0  0  0  0
 16 44  1  0  0  0  0
 17 18  1  0  0  0  0
 17 45  1  0  0  0  0
 18 19  2  0  0  0  0
 18 20  1  0  0  0  0
 20 21  1  0  0  0  0
 20 22  1  0  0  0  0
 21 46  1  0  0  0  0
 21 47  1  0  0  0  0
 21 48  1  0  0  0  0
 22 23  2  0  0  0  0
M  END
> <s_m_source_file>
AV-unprocessed.smi

> <i_m_source_file_index>
2153

> <i_lp_mmshare_version>
43012

> <i_f3d_flags>
0

> <s_epik_input>
W0NIM11bQ0BASF0xW0NIMl1bQ0gyXVtDSDJdW0NIMl1bQ0BIXTFPW0NIMl1bQ0gyXVtOSF1DKD1PKVtDSDJdbjJbY0hdW2NIXWMoPU8pbihbQ0gzXSljMj1P

> <s_epik_cmdline>
J2VwaWtfcHl0aG9uJywgJy1waCcsICc3LjAnLCAnLXRuJywgJzgnLCAnLW1hJywgJzIwMCcsICctbWV0YWxfYmluZGluZycsICctaW1hZScsICc8aW5maWxlLm1hZT4nLCAnLW9tYWUnLCAnPG91dGZpbGUubWFlPic=

> <r_lp_tautomer_probability>
1

> <r_epik_Ionization_Penalty>
4.02205e-08

> <r_epik_Ionization_Penalty_Charging>
1.23606e-08

> <r_epik_Ionization_Penalty_Neutral>
2.78599e-08

> <r_epik_State_Penalty>
-0

> <r_epik_Charging_Adjusted_Penalty>
1.23606e-08

> <i_epik_Tot_Q>
0

> <i_epik_Tot_abs_Q>
0

> <r_epik_Metal_State_Penalty>
-0

> <b_epik_Metal_Only>
0

> <s_lp_Force_Field>
OPLS_2005

> <r_lp_Energy>
20.2875

> <b_lp_Chiralities_Consistent>
1

> <s_lp_Variant>
AV-unprocessed.smi:2153-1

> <Gold.Version>
5.8.1

> <Gold.Id.Protein>
6NUR|6NUR_protein|mol2

> <Gold.PLP.Fitness>
47.6991

> <Gold.PLP.PLP>
-44.7425

> <Gold.PLP.part.hbond>
-2.0000

> <Gold.PLP.part.metal>
0.0000

> <Gold.PLP.part.buried>
-0.7538

> <Gold.PLP.part.nonpolar>
-41.3320

> <Gold.PLP.part.repulsive>
0.4580

> <Gold.PLP.ligand.clash>
0.0000

> <Gold.PLP.ligand.torsion>
0.5918

> <Gold.PLP.Chemscore.Hbond>
1.3580

> <Gold.PLP.Chemscore.CHOScore>
0.0000

> <Gold.PLP.Chemscore.Metal>
0.0000

> <Gold.Chemscore.Hbonds>
donor molecule, donor type, donor heavy atom, donor atom, acceptor molecule, acceptor atom, score
      P1  H  7989  7998       L1    13  1.00
      P1  H  8011  8017       L1    23  0.33

> <Gold.PLP.Chemscore.Internal.Correction>
0.0662

> <Gold.Rescore>
     Score         DG    S(hbond)    S(metal)    S(lipo)     H(rot)  DE(clash)    DE(int)     intcor
     14.34     -17.25       1.32        0.00     110.97       2.20       1.10       1.81       ----

> <Gold.Chemscore.Fitness>
14.3387

> <Gold.Chemscore.DG>
-17.2458

> <Gold.Chemscore.ZeroCoef>
-5.4800

> <Gold.Chemscore.Hbond>
1.3191

> <Gold.Chemscore.Metal>
0.0000

> <Gold.Chemscore.Lipo>
110.9716

> <Gold.Chemscore.Internal_Hbond>
0.0000

> <Gold.Chemscore.DEClash>
1.0970

> <Gold.Chemscore.DEInternal>
1.8100

> <Gold.Chemscore.Rot>
2.1968

> <Gold.Chemscore.Internal.Correction>
   9.000000E+99

> <Gold.Chemscore.Hbonds>
donor molecule, donor type, donor heavy atom, donor atom, acceptor molecule, acceptor atom, score
      P1  H  7989  7998       L1    13  0.98
      P1  H  8011  8017       L1    23  0.33

> <Gold.Chemscore.Hbond.Weighted>
-4.4058

> <Gold.Chemscore.Metal.Weighted>
-0.0000

> <Gold.Chemscore.Lipo.Weighted>
-12.9837

> <Gold.Chemscore.Internal_Hbond.Weighted>
0.0000

> <Gold.Chemscore.DEClash.Weighted>
1.0970

> <Gold.Chemscore.DEInternal.Weighted>
1.8100

> <Gold.Chemscore.Rot.Weighted>
5.6238

> <Gold.Chemscore.Internal.Correction.Weighted>
   9.000000E+99

> <Gold.Protein.RotatedTorsions>
[ 6907 6896 6895 6894 ] final -141.15 input  -60.11 | X-H torsion
[ 7974 7965 7964 7962 ] final -136.86 input  175.53 | X-H torsion
[ 8008 7997 7996 7995 ] final  175.98 input   59.86 | X-H torsion
[ 10167 10162 10161 10158 ] final  -91.40 input  -65.29 | X-H torsion
[ 10718 10713 10712 10709 ] final  117.18 input   66.30 | X-H torsion
[ 10763 10752 10751 10750 ] final -112.30 input  -60.55 | X-H torsion
[ 11005 11000 10999 10996 ] final  106.27 input  -57.11 | X-H torsion

> <Gold.Protein.ActiveResidues>
 VAL166  LYS551  ARG553  GLY616  TRP617  ASP618  TYR619  PRO620  LYS621  CYS622 
 ASP623  PHE694  ASN695  SER759  ASP760  ASP761  ALA762  ILE779  LEU786  VAL792 
 PHE793  MET794  SER795  GLU796  ALA797  LYS798  CYS799  TRP800  GLU811  SER814 

> <Gold.Protein.RotatedAtoms>
  151.0700  133.5474  159.2627 H   0  0  0  0  0  0  0  0  0  0  0  0  # atno 6907 bound_to 6896
  151.2417  135.0590  159.9037 H   0  0  0  0  0  0  0  0  0  0  0  0  # atno 6908 bound_to 6896
  152.5410  134.0474  159.8148 H   0  0  0  0  0  0  0  0  0  0  0  0  # atno 6909 bound_to 6896
  144.8891  140.6616  143.5157 H   0  0  0  0  0  0  0  0  0  0  0  0  # atno 7974 bound_to 7965
  156.0813  140.1395  156.9708 H   0  0  0  0  0  0  0  0  0  0  0  0  # atno 8008 bound_to 7997
  154.4587  140.0951  156.6880 H   0  0  0  0  0  0  0  0  0  0  0  0  # atno 8009 bound_to 7997
  155.5070  140.3452  155.4383 H   0  0  0  0  0  0  0  0  0  0  0  0  # atno 8010 bound_to 7997
  140.3452  143.2920  151.9789 H   0  0  0  0  0  0  0  0  0  0  0  0  # atno 10167 bound_to 10162
  157.6113  131.1034  150.7579 H   0  0  0  0  0  0  0  0  0  0  0  0  # atno 10718 bound_to 10713
  154.8343  135.4496  154.1173 H   0  0  0  0  0  0  0  0  0  0  0  0  # atno 10763 bound_to 10752
  153.2418  135.6917  153.7780 H   0  0  0  0  0  0  0  0  0  0  0  0  # atno 10764 bound_to 10752
  153.7125  135.3354  155.3225 H   0  0  0  0  0  0  0  0  0  0  0  0  # atno 10765 bound_to 10752
  139.8812  134.9364  156.5641 H   0  0  0  0  0  0  0  0  0  0  0  0  # atno 11005 bound_to 11000
  145.3816  139.1636  143.4277 LP  0  0  0  0  0  0  0  0  0  0  0  0  # atno 17320 bound_to 7965
  146.3042  140.3897  142.8693 LP  0  0  0  0  0  0  0  0  0  0  0  0  # atno 17321 bound_to 7965
  139.4834  144.6123  151.7411 LP  0  0  0  0  0  0  0  0  0  0  0  0  # atno 17342 bound_to 10162
  140.5271  144.0789  150.6041 LP  0  0  0  0  0  0  0  0  0  0  0  0  # atno 17343 bound_to 10162
  156.7955  130.4904  149.5378 LP  0  0  0  0  0  0  0  0  0  0  0  0  # atno 17370 bound_to 10713
  156.1217  130.6114  151.0203 LP  0  0  0  0  0  0  0  0  0  0  0  0  # atno 17371 bound_to 10713
  140.8147  133.8401  155.8841 LP  0  0  0  0  0  0  0  0  0  0  0  0  # atno 17394 bound_to 11000
  140.9474  134.1823  157.4753 LP  0  0  0  0  0  0  0  0  0  0  0  0  # atno 17395 bound_to 11000

$$$$
