AV-unprocessed.smi:1982|AV-procd|sdf|8025|dock1
  -GOLD-   2272010223D 1   1.00000     0.00000
 Structure written by MMmdl.
 36 37  0  0  0  0  0  0  0  0  1 V2000
  151.8188  145.2074  160.3671 C   0  0  0  0  0  0  0  0  0  0  0  0
  152.4970  143.9023  159.9110 C   0  0  1  0  0  0  0  0  0  0  0  0
  152.6451  142.9518  161.1158 C   0  0  0  0  0  0  0  0  0  0  0  0
  153.3525  141.6488  160.7296 C   0  0  0  0  0  0  0  0  0  0  0  0
  152.5994  140.9423  159.5987 C   0  0  0  0  0  0  0  0  0  0  0  0
  152.4390  141.8567  158.3710 C   0  0  1  0  0  0  0  0  0  0  0  0
  151.6682  141.1344  157.3581 N   0  0  0  0  0  0  0  0  0  0  0  0
  152.0271  139.9872  156.7603 C   0  0  0  0  0  0  0  0  0  0  0  0
  153.0854  139.4023  156.9965 O   0  0  0  0  0  0  0  0  0  0  0  0
  151.0253  139.4333  155.7399 C   0  0  0  0  0  0  0  0  0  0  0  0
  151.1630  138.0019  155.5325 N   0  0  0  0  0  0  0  0  0  0  0  0
  150.6067  137.1879  154.6328 C   0  0  0  0  0  0  0  0  0  0  0  0
  151.0087  135.9360  154.7916 N   0  0  0  0  0  0  0  0  0  0  0  0
  151.8715  136.0175  155.8718 N   0  0  0  0  0  0  0  0  0  0  0  0
  151.9663  137.2406  156.3162 N   0  0  0  0  0  0  0  0  0  0  0  0
  151.7563  143.2045  158.7342 C   0  0  2  0  0  0  0  0  0  0  0  0
  151.6463  144.1218  157.4965 C   0  0  0  0  0  0  0  0  0  0  0  0
  150.7755  145.0394  160.6361 H   0  0  0  0  0  0  0  0  0  0  0  0
  151.8496  145.9747  159.5943 H   0  0  0  0  0  0  0  0  0  0  0  0
  152.3220  145.6246  161.2400 H   0  0  0  0  0  0  0  0  0  0  0  0
  153.5018  144.1590  159.5714 H   0  0  0  0  0  0  0  0  0  0  0  0
  153.2067  143.4420  161.9117 H   0  0  0  0  0  0  0  0  0  0  0  0
  151.6620  142.7234  161.5298 H   0  0  0  0  0  0  0  0  0  0  0  0
  154.3758  141.8614  160.4170 H   0  0  0  0  0  0  0  0  0  0  0  0
  153.4219  140.9918  161.5971 H   0  0  0  0  0  0  0  0  0  0  0  0
  153.1322  140.0327  159.3190 H   0  0  0  0  0  0  0  0  0  0  0  0
  151.6189  140.6274  159.9594 H   0  0  0  0  0  0  0  0  0  0  0  0
  153.4392  142.0794  157.9947 H   0  0  0  0  0  0  0  0  0  0  0  0
  150.7813  141.5403  157.0966 H   0  0  0  0  0  0  0  0  0  0  0  0
  150.0092  139.6505  156.0731 H   0  0  0  0  0  0  0  0  0  0  0  0
  151.1661  139.9347  154.7815 H   0  0  0  0  0  0  0  0  0  0  0  0
  149.9154  137.5101  153.8682 H   0  0  0  0  0  0  0  0  0  0  0  0
  150.7412  142.9836  159.0682 H   0  0  0  0  0  0  0  0  0  0  0  0
  152.6322  144.4125  157.1330 H   0  0  0  0  0  0  0  0  0  0  0  0
  151.0867  145.0309  157.7115 H   0  0  0  0  0  0  0  0  0  0  0  0
  151.1236  143.6341  156.6740 H   0  0  0  0  0  0  0  0  0  0  0  0
  1  2  1  0  0  0  0
  1 18  1  0  0  0  0
  1 19  1  0  0  0  0
  1 20  1  0  0  0  0
  2 16  1  0  0  0  0
  2  3  1  0  0  0  0
  2 21  1  0  0  0  0
  3  4  1  0  0  0  0
  3 22  1  0  0  0  0
  3 23  1  0  0  0  0
  4  5  1  0  0  0  0
  4 24  1  0  0  0  0
  4 25  1  0  0  0  0
  5  6  1  0  0  0  0
  5 26  1  0  0  0  0
  5 27  1  0  0  0  0
  6  7  1  0  0  0  0
  6 16  1  0  0  0  0
  6 28  1  0  0  0  0
  7  8  1  0  0  0  0
  7 29  1  0  0  0  0
  8  9  2  0  0  0  0
  8 10  1  0  0  0  0
 10 11  1  0  0  0  0
 10 30  1  0  0  0  0
 10 31  1  0  0  0  0
 11 15  1  0  0  0  0
 11 12  1  0  0  0  0
 12 13  2  0  0  0  0
 12 32  1  0  0  0  0
 13 14  1  0  0  0  0
 14 15  2  0  0  0  0
 16 17  1  0  0  0  0
 16 33  1  0  0  0  0
 17 34  1  0  0  0  0
 17 35  1  0  0  0  0
 17 36  1  0  0  0  0
M  END
> <s_m_source_file>
AV-unprocessed.smi

> <i_m_source_file_index>
1982

> <i_lp_mmshare_version>
43012

> <i_f3d_flags>
0

> <s_epik_input>
W0NIM11bQ0BASF0xW0NIMl1bQ0gyXVtDSDJdW0NASF0oW0NASF0xW0NIM10pW05IXUMoPU8pW0NIMl1uMltjSF1ubm4y

> <s_epik_cmdline>
J2VwaWtfcHl0aG9uJywgJy1waCcsICc3LjAnLCAnLXRuJywgJzgnLCAnLW1hJywgJzIwMCcsICctbWV0YWxfYmluZGluZycsICctaW1hZScsICc8aW5maWxlLm1hZT4nLCAnLW9tYWUnLCAnPG91dGZpbGUubWFlPic=

> <r_lp_tautomer_probability>
1

> <r_epik_Ionization_Penalty>
5.03816e-07

> <r_epik_Ionization_Penalty_Charging>
0

> <r_epik_Ionization_Penalty_Neutral>
5.03816e-07

> <r_epik_State_Penalty>
-0

> <r_epik_Charging_Adjusted_Penalty>
0

> <i_epik_Tot_Q>
0

> <i_epik_Tot_abs_Q>
0

> <r_epik_Metal_State_Penalty>
-0

> <b_epik_Metal_Only>
0

> <s_lp_Force_Field>
OPLS_2005

> <r_lp_Energy>
14.7566

> <b_lp_Chiralities_Consistent>
1

> <s_lp_Variant>
AV-unprocessed.smi:1982-6

> <Gold.Version>
5.8.1

> <Gold.Id.Protein>
6NUR|6NUR_protein|mol2

> <Gold.PLP.Fitness>
44.5284

> <Gold.PLP.PLP>
-36.3934

> <Gold.PLP.part.hbond>
-2.9526

> <Gold.PLP.part.metal>
0.0000

> <Gold.PLP.part.buried>
-4.8857

> <Gold.PLP.part.nonpolar>
-30.2081

> <Gold.PLP.part.repulsive>
0.2822

> <Gold.PLP.ligand.clash>
0.0000

> <Gold.PLP.ligand.torsion>
0.4228

> <Gold.PLP.Chemscore.Hbond>
2.0000

> <Gold.PLP.Chemscore.CHOScore>
0.9914

> <Gold.PLP.Chemscore.Metal>
0.0000

> <Gold.Chemscore.Hbonds>
donor molecule, donor type, donor heavy atom, donor atom, acceptor molecule, acceptor atom, score
      P1  H  7997  8010       L1     9  1.00
      P1  H 10752 10765       L1    14  1.00
      L1  C    12    32       P1  7948  0.99

> <Gold.PLP.Chemscore.Internal.Correction>
0.0064

> <Gold.Rescore>
     Score         DG    S(hbond)    S(metal)    S(lipo)     H(rot)  DE(clash)    DE(int)     intcor
     14.87     -17.06       1.64        0.00      93.88       1.91       0.04       2.15       ----

> <Gold.Chemscore.Fitness>
14.8671

> <Gold.Chemscore.DG>
-17.0620

> <Gold.Chemscore.ZeroCoef>
-5.4800

> <Gold.Chemscore.Hbond>
1.6399

> <Gold.Chemscore.Metal>
0.0000

> <Gold.Chemscore.Lipo>
93.8760

> <Gold.Chemscore.Internal_Hbond>
0.0000

> <Gold.Chemscore.DEClash>
0.0402

> <Gold.Chemscore.DEInternal>
2.1546

> <Gold.Chemscore.Rot>
1.9058

> <Gold.Chemscore.Internal.Correction>
   9.000000E+99

> <Gold.Chemscore.Hbonds>
donor molecule, donor type, donor heavy atom, donor atom, acceptor molecule, acceptor atom, score
      P1  H  7997  8010       L1     9  0.94
      P1  H 10752 10765       L1    14  0.22

> <Gold.Chemscore.Hbond.Weighted>
-5.4773

> <Gold.Chemscore.Metal.Weighted>
-0.0000

> <Gold.Chemscore.Lipo.Weighted>
-10.9835

> <Gold.Chemscore.Internal_Hbond.Weighted>
0.0000

> <Gold.Chemscore.DEClash.Weighted>
0.0402

> <Gold.Chemscore.DEInternal.Weighted>
2.1546

> <Gold.Chemscore.Rot.Weighted>
4.8788

> <Gold.Chemscore.Internal.Correction.Weighted>
   9.000000E+99

> <Gold.Protein.RotatedTorsions>
[ 6907 6896 6895 6894 ] final  176.77 input  -60.11 | X-H torsion
[ 7974 7965 7964 7962 ] final  -55.55 input  175.53 | X-H torsion
[ 8008 7997 7996 7995 ] final   40.82 input   59.86 | X-H torsion
[ 10167 10162 10161 10158 ] final  -50.22 input  -65.29 | X-H torsion
[ 10718 10713 10712 10709 ] final   75.18 input   66.30 | X-H torsion
[ 10763 10752 10751 10750 ] final -139.31 input  -60.55 | X-H torsion
[ 11005 11000 10999 10996 ] final   68.84 input  -57.11 | X-H torsion

> <Gold.Protein.ActiveResidues>
 VAL166  LYS551  ARG553  GLY616  TRP617  ASP618  TYR619  PRO620  LYS621  CYS622 
 ASP623  PHE694  ASN695  SER759  ASP760  ASP761  ALA762  ILE779  LEU786  VAL792 
 PHE793  MET794  SER795  GLU796  ALA797  LYS798  CYS799  TRP800  GLU811  SER814 

> <Gold.Protein.RotatedAtoms>
  151.7148  133.3313  159.3299 H   0  0  0  0  0  0  0  0  0  0  0  0  # atno 6907 bound_to 6896
  150.7678  134.6500  159.6292 H   0  0  0  0  0  0  0  0  0  0  0  0  # atno 6908 bound_to 6896
  152.3689  134.6766  160.0234 H   0  0  0  0  0  0  0  0  0  0  0  0  # atno 6909 bound_to 6896
  145.8729  140.8202  142.9879 H   0  0  0  0  0  0  0  0  0  0  0  0  # atno 7974 bound_to 7965
  155.2594  140.3358  155.4274 H   0  0  0  0  0  0  0  0  0  0  0  0  # atno 8008 bound_to 7997
  156.2181  140.1797  156.7584 H   0  0  0  0  0  0  0  0  0  0  0  0  # atno 8009 bound_to 7997
  154.5784  140.0658  156.9052 H   0  0  0  0  0  0  0  0  0  0  0  0  # atno 8010 bound_to 7997
  140.6648  143.2666  151.4327 H   0  0  0  0  0  0  0  0  0  0  0  0  # atno 10167 bound_to 10162
  157.6623  130.9714  150.1317 H   0  0  0  0  0  0  0  0  0  0  0  0  # atno 10718 bound_to 10713
  154.8613  135.3586  154.5525 H   0  0  0  0  0  0  0  0  0  0  0  0  # atno 10763 bound_to 10752
  153.6143  135.7008  153.5339 H   0  0  0  0  0  0  0  0  0  0  0  0  # atno 10764 bound_to 10752
  153.3182  135.4159  155.1355 H   0  0  0  0  0  0  0  0  0  0  0  0  # atno 10765 bound_to 10752
  139.9688  134.6935  156.0489 H   0  0  0  0  0  0  0  0  0  0  0  0  # atno 11005 bound_to 11000
  144.6726  140.1266  143.7446 LP  0  0  0  0  0  0  0  0  0  0  0  0  # atno 17320 bound_to 7965
  145.9115  139.2490  143.1434 LP  0  0  0  0  0  0  0  0  0  0  0  0  # atno 17321 bound_to 7965
  139.5893  144.1534  152.2068 LP  0  0  0  0  0  0  0  0  0  0  0  0  # atno 17342 bound_to 10162
  140.0884  144.5642  150.7072 LP  0  0  0  0  0  0  0  0  0  0  0  0  # atno 17343 bound_to 10162
  156.2162  130.3670  149.8610 LP  0  0  0  0  0  0  0  0  0  0  0  0  # atno 17370 bound_to 10713
  156.6475  130.8730  151.3525 LP  0  0  0  0  0  0  0  0  0  0  0  0  # atno 17371 bound_to 10713
  141.1368  133.6573  156.3616 LP  0  0  0  0  0  0  0  0  0  0  0  0  # atno 17394 bound_to 11000
  140.5338  134.6187  157.5358 LP  0  0  0  0  0  0  0  0  0  0  0  0  # atno 17395 bound_to 11000

$$$$
