AV-unprocessed.smi:2230|AV-procd|sdf|9036|dock8
  -GOLD-   2272012243D 1   1.00000     0.00000
 Structure written by MMmdl.
 29 30  0  0  0  0  0  0  0  0  2 V2000
  145.8428  141.8276  156.9129 O   0  0  0  0  0  0  0  0  0  0  0  0
  146.7866  141.7111  157.7265 C   0  0  0  0  0  0  0  0  0  0  0  0
  146.6614  141.3556  158.9194 O   0  5  0  0  0  0  0  0  0  0  0  0
  148.2112  141.9918  157.2238 C   0  0  1  0  0  0  0  0  0  0  0  0
  149.2679  141.7278  158.3226 C   0  0  0  0  0  0  0  0  0  0  0  0
  150.6106  141.9189  157.7864 N   0  0  0  0  0  0  0  0  0  0  0  0
  151.6275  141.8291  158.7494 C   0  0  0  0  0  0  0  0  0  0  0  0
  152.2190  140.6205  158.9160 N   0  0  0  0  0  0  0  0  0  0  0  0
  153.2017  140.5025  159.8318 C   0  0  0  0  0  0  0  0  0  0  0  0
  153.6474  141.5754  160.6245 C   0  0  0  0  0  0  0  0  0  0  0  0
  153.0360  142.8309  160.4525 C   0  0  0  0  0  0  0  0  0  0  0  0
  152.0038  142.9748  159.4978 C   0  0  0  0  0  0  0  0  0  0  0  0
  151.3245  144.3257  159.2866 C   0  0  0  0  0  0  0  0  0  0  0  0
  151.3181  144.6759  157.9999 F   0  0  0  0  0  0  0  0  0  0  0  0
  150.0594  144.2711  159.7042 F   0  0  0  0  0  0  0  0  0  0  0  0
  151.9669  145.2741  159.9685 F   0  0  0  0  0  0  0  0  0  0  0  0
  150.8590  141.1253  156.5911 C   0  0  0  0  0  0  0  0  0  0  0  0
  149.7820  141.4240  155.5368 C   0  0  0  0  0  0  0  0  0  0  0  0
  148.4952  141.1690  156.0903 O   0  0  0  0  0  0  0  0  0  0  0  0
  148.2492  143.0394  156.9194 H   0  0  0  0  0  0  0  0  0  0  0  0
  149.1200  142.4049  159.1652 H   0  0  0  0  0  0  0  0  0  0  0  0
  149.1667  140.7103  158.7040 H   0  0  0  0  0  0  0  0  0  0  0  0
  153.6472  139.5242  159.9341 H   0  0  0  0  0  0  0  0  0  0  0  0
  154.4387  141.4388  161.3467 H   0  0  0  0  0  0  0  0  0  0  0  0
  153.3650  143.6668  161.0514 H   0  0  0  0  0  0  0  0  0  0  0  0
  151.8485  141.3538  156.1933 H   0  0  0  0  0  0  0  0  0  0  0  0
  150.8466  140.0639  156.8430 H   0  0  0  0  0  0  0  0  0  0  0  0
  149.8457  142.4584  155.1952 H   0  0  0  0  0  0  0  0  0  0  0  0
  149.9245  140.7890  154.6625 H   0  0  0  0  0  0  0  0  0  0  0  0
  1  2  2  0  0  0  0
  2  3  1  0  0  0  0
  2  4  1  0  0  0  0
  4 19  1  0  0  0  0
  4  5  1  0  0  0  0
  4 20  1  0  0  0  0
  5  6  1  0  0  0  0
  5 21  1  0  0  0  0
  5 22  1  0  0  0  0
  6  7  1  0  0  0  0
  6 17  1  0  0  0  0
  7 12  1  0  0  0  0
  7  8  2  0  0  0  0
  8  9  1  0  0  0  0
  9 10  2  0  0  0  0
  9 23  1  0  0  0  0
 10 11  1  0  0  0  0
 10 24  1  0  0  0  0
 11 12  2  0  0  0  0
 11 25  1  0  0  0  0
 12 13  1  0  0  0  0
 13 14  1  0  0  0  0
 13 15  1  0  0  0  0
 13 16  1  0  0  0  0
 17 18  1  0  0  0  0
 17 26  1  0  0  0  0
 17 27  1  0  0  0  0
 18 19  1  0  0  0  0
 18 28  1  0  0  0  0
 18 29  1  0  0  0  0
M  CHG  1   3  -1
M  END
> <s_m_source_file>
AV-unprocessed.smi

> <i_m_source_file_index>
2230

> <i_lp_mmshare_version>
43012

> <i_f3d_flags>
0

> <s_epik_input>
Tz1DKFtPSF0pW0NAQEhdMVtDSDJdTihbQ0gyXVtDSDJdTzEpYzJuW2NIXVtjSF1bY0hdYzJDKEYpKEYpRg==

> <s_epik_cmdline>
J2VwaWtfcHl0aG9uJywgJy1waCcsICc3LjAnLCAnLXRuJywgJzgnLCAnLW1hJywgJzIwMCcsICctbWV0YWxfYmluZGluZycsICctaW1hZScsICc8aW5maWxlLm1hZT4nLCAnLW9tYWUnLCAnPG91dGZpbGUubWFlPic=

> <r_lp_tautomer_probability>
1

> <r_epik_Ionization_Penalty>
0.000150991

> <r_epik_Ionization_Penalty_Charging>
0.000148814

> <r_epik_Ionization_Penalty_Neutral>
2.17728e-06

> <r_epik_State_Penalty>
-0

> <r_epik_Charging_Adjusted_Penalty>
0.000148814

> <i_epik_Tot_Q>
-1

> <i_epik_Tot_abs_Q>
1

> <r_epik_Metal_State_Penalty>
-0

> <b_epik_Metal_Only>
0

> <s_lp_Force_Field>
OPLS_2005

> <r_lp_Energy>
24.6169

> <b_lp_Chiralities_Consistent>
1

> <s_lp_Variant>
AV-unprocessed.smi:2230-2

> <Gold.Version>
5.8.1

> <Gold.Id.Protein>
6NUR|6NUR_protein|mol2

> <Gold.PLP.Fitness>
40.1353

> <Gold.PLP.PLP>
-38.5912

> <Gold.PLP.part.hbond>
-1.0000

> <Gold.PLP.part.metal>
0.0000

> <Gold.PLP.part.buried>
-5.1873

> <Gold.PLP.part.nonpolar>
-32.0730

> <Gold.PLP.part.repulsive>
0.2459

> <Gold.PLP.ligand.clash>
1.4260

> <Gold.PLP.ligand.torsion>
0.8948

> <Gold.PLP.Chemscore.Hbond>
1.3760

> <Gold.PLP.Chemscore.CHOScore>
0.0000

> <Gold.PLP.Chemscore.Metal>
0.0000

> <Gold.Chemscore.Hbonds>
donor molecule, donor type, donor heavy atom, donor atom, acceptor molecule, acceptor atom, score
      P1  H  6934  6946       L1     3  1.09

> <Gold.PLP.Chemscore.Internal.Correction>
0.6317

> <Gold.Rescore>
     Score         DG    S(hbond)    S(metal)    S(lipo)     H(rot)  DE(clash)    DE(int)     intcor
     10.24     -12.86       0.98        0.00      67.88       1.49       0.10       2.53       ----

> <Gold.Chemscore.Fitness>
10.2372

> <Gold.Chemscore.DG>
-12.8614

> <Gold.Chemscore.ZeroCoef>
-5.4800

> <Gold.Chemscore.Hbond>
0.9755

> <Gold.Chemscore.Metal>
0.0000

> <Gold.Chemscore.Lipo>
67.8788

> <Gold.Chemscore.Internal_Hbond>
0.0000

> <Gold.Chemscore.DEClash>
0.0968

> <Gold.Chemscore.DEInternal>
2.5274

> <Gold.Chemscore.Rot>
1.4916

> <Gold.Chemscore.Internal.Correction>
   9.000000E+99

> <Gold.Chemscore.Hbonds>
donor molecule, donor type, donor heavy atom, donor atom, acceptor molecule, acceptor atom, score
      P1  H  6934  6946       L1     3  0.54

> <Gold.Chemscore.Hbond.Weighted>
-3.2581

> <Gold.Chemscore.Metal.Weighted>
-0.0000

> <Gold.Chemscore.Lipo.Weighted>
-7.9418

> <Gold.Chemscore.Internal_Hbond.Weighted>
0.0000

> <Gold.Chemscore.DEClash.Weighted>
0.0968

> <Gold.Chemscore.DEInternal.Weighted>
2.5274

> <Gold.Chemscore.Rot.Weighted>
3.8185

> <Gold.Chemscore.Internal.Correction.Weighted>
   9.000000E+99

> <Gold.Protein.RotatedTorsions>
[ 6907 6896 6895 6894 ] final -142.66 input  -60.11 | X-H torsion
[ 7974 7965 7964 7962 ] final -175.04 input  175.53 | X-H torsion
[ 8008 7997 7996 7995 ] final   17.47 input   59.86 | X-H torsion
[ 10167 10162 10161 10158 ] final -142.85 input  -65.29 | X-H torsion
[ 10718 10713 10712 10709 ] final  -58.52 input   66.30 | X-H torsion
[ 10763 10752 10751 10750 ] final   74.56 input  -60.55 | X-H torsion
[ 11005 11000 10999 10996 ] final   57.52 input  -57.11 | X-H torsion

> <Gold.Protein.ActiveResidues>
 VAL166  LYS551  ARG553  GLY616  TRP617  ASP618  TYR619  PRO620  LYS621  CYS622 
 ASP623  PHE694  ASN695  SER759  ASP760  ASP761  ALA762  ILE779  LEU786  VAL792 
 PHE793  MET794  SER795  GLU796  ALA797  LYS798  CYS799  TRP800  GLU811  SER814 

> <Gold.Protein.RotatedAtoms>
  151.0900  133.5323  159.2615 H   0  0  0  0  0  0  0  0  0  0  0  0  # atno 6907 bound_to 6896
  151.2193  135.0512  159.8953 H   0  0  0  0  0  0  0  0  0  0  0  0  # atno 6908 bound_to 6896
  152.5433  134.0705  159.8245 H   0  0  0  0  0  0  0  0  0  0  0  0  # atno 6909 bound_to 6896
  144.7129  140.1381  143.6394 H   0  0  0  0  0  0  0  0  0  0  0  0  # atno 7974 bound_to 7965
  154.8920  140.2988  155.5365 H   0  0  0  0  0  0  0  0  0  0  0  0  # atno 8008 bound_to 7997
  156.3020  140.2423  156.3871 H   0  0  0  0  0  0  0  0  0  0  0  0  # atno 8009 bound_to 7997
  154.8609  140.0405  157.1653 H   0  0  0  0  0  0  0  0  0  0  0  0  # atno 8010 bound_to 7997
  139.8049  143.7782  152.2660 H   0  0  0  0  0  0  0  0  0  0  0  0  # atno 10167 bound_to 10162
  156.1129  130.4173  150.0588 H   0  0  0  0  0  0  0  0  0  0  0  0  # atno 10718 bound_to 10713
  153.0595  135.5021  154.8059 H   0  0  0  0  0  0  0  0  0  0  0  0  # atno 10763 bound_to 10752
  154.6860  135.2976  154.9549 H   0  0  0  0  0  0  0  0  0  0  0  0  # atno 10764 bound_to 10752
  154.0320  135.6728  153.4834 H   0  0  0  0  0  0  0  0  0  0  0  0  # atno 10765 bound_to 10752
  140.0447  134.5823  155.9338 H   0  0  0  0  0  0  0  0  0  0  0  0  # atno 11005 bound_to 11000
  145.9227  139.2556  143.1372 LP  0  0  0  0  0  0  0  0  0  0  0  0  # atno 17320 bound_to 7965
  145.9604  140.8840  143.0214 LP  0  0  0  0  0  0  0  0  0  0  0  0  # atno 17321 bound_to 7965
  139.7914  144.7409  150.9950 LP  0  0  0  0  0  0  0  0  0  0  0  0  # atno 17342 bound_to 10162
  140.7819  143.4439  151.0512 LP  0  0  0  0  0  0  0  0  0  0  0  0  # atno 17343 bound_to 10162
  156.8547  130.9471  151.3623 LP  0  0  0  0  0  0  0  0  0  0  0  0  # atno 17370 bound_to 10713
  157.6311  130.8730  149.9276 LP  0  0  0  0  0  0  0  0  0  0  0  0  # atno 17371 bound_to 10713
  141.1901  133.6567  156.5395 LP  0  0  0  0  0  0  0  0  0  0  0  0  # atno 17394 bound_to 11000
  140.4013  134.7354  157.4781 LP  0  0  0  0  0  0  0  0  0  0  0  0  # atno 17395 bound_to 11000

$$$$
