AV-unprocessed.smi:2159|AV-procd|sdf|8795|dock3
  -GOLD-   2272011573D 1   1.00000     0.00000
 Structure written by MMmdl.
 48 50  0  0  0  0  0  0  0  0  2 V2000
  150.4595  136.8874  159.5931 O   0  0  0  0  0  0  0  0  0  0  0  0
  150.9019  137.7491  158.8339 C   0  0  0  0  0  0  0  0  0  0  0  0
  151.8280  138.8430  159.3666 C   0  0  0  0  0  0  0  0  0  0  0  0
  152.5216  139.6115  158.2239 C   0  0  0  0  0  0  0  0  0  0  0  0
  152.4443  141.0609  158.4279 N   0  0  0  0  0  0  0  0  0  0  0  0
  153.0840  141.7109  159.4101 C   0  0  0  0  0  0  0  0  0  0  0  0
  153.8002  141.1997  160.2721 O   0  0  0  0  0  0  0  0  0  0  0  0
  152.8288  143.2138  159.3317 C   0  0  2  0  0  0  0  0  0  0  0  0
  152.2340  143.7757  160.6401 C   0  0  0  0  0  0  0  0  0  0  0  0
  151.6662  145.1897  160.4289 C   0  0  0  0  0  0  0  0  0  0  0  0
  150.6803  145.2867  159.2431 C   0  0  0  0  0  0  0  0  0  0  0  0
  150.5160  143.9675  158.4672 C   0  0  0  0  0  0  0  0  0  0  0  0
  151.8818  143.3392  158.1185 C   0  0  2  0  0  0  0  0  0  0  0  0
  151.7406  141.8933  157.6483 C   0  0  0  0  0  0  0  0  0  0  0  0
  151.0628  141.5742  156.6717 O   0  0  0  0  0  0  0  0  0  0  0  0
  150.6431  137.7763  157.5177 N   0  0  0  0  0  0  0  0  0  0  0  0
  149.8873  136.7635  156.7867 C   0  0  0  0  0  0  0  0  0  0  0  0
  150.6694  136.1751  155.5928 C   0  0  0  0  0  0  0  0  0  0  0  0
  150.4003  134.6983  155.3558 C   0  0  0  0  0  0  0  0  0  0  0  0
  150.7531  133.7107  156.3017 C   0  0  0  0  0  0  0  0  0  0  0  0
  150.5004  132.3544  156.0104 C   0  0  0  0  0  0  0  0  0  0  0  0
  149.8956  132.0144  154.7828 C   0  0  0  0  0  0  0  0  0  0  0  0
  149.5588  133.0408  153.8768 C   0  0  0  0  0  0  0  0  0  0  0  0
  149.8204  134.3288  154.1910 N   0  3  0  0  0  0  0  0  0  0  0  0
  151.2421  139.5323  159.9775 H   0  0  0  0  0  0  0  0  0  0  0  0
  152.5712  138.3982  160.0291 H   0  0  0  0  0  0  0  0  0  0  0  0
  153.5626  139.2937  158.1411 H   0  0  0  0  0  0  0  0  0  0  0  0
  152.0681  139.3623  157.2625 H   0  0  0  0  0  0  0  0  0  0  0  0
  153.7711  143.7180  159.1123 H   0  0  0  0  0  0  0  0  0  0  0  0
  151.4427  143.1216  161.0106 H   0  0  0  0  0  0  0  0  0  0  0  0
  152.9975  143.7988  161.4186 H   0  0  0  0  0  0  0  0  0  0  0  0
  151.1804  145.5298  161.3437 H   0  0  0  0  0  0  0  0  0  0  0  0
  152.4936  145.8793  160.2570 H   0  0  0  0  0  0  0  0  0  0  0  0
  149.7051  145.6196  159.5994 H   0  0  0  0  0  0  0  0  0  0  0  0
  151.0272  146.0618  158.5587 H   0  0  0  0  0  0  0  0  0  0  0  0
  149.9245  143.2726  159.0659 H   0  0  0  0  0  0  0  0  0  0  0  0
  149.9410  144.1459  157.5577 H   0  0  0  0  0  0  0  0  0  0  0  0
  152.3649  143.9213  157.3326 H   0  0  0  0  0  0  0  0  0  0  0  0
  151.0399  138.5298  156.9748 H   0  0  0  0  0  0  0  0  0  0  0  0
  149.5649  135.9696  157.4621 H   0  0  0  0  0  0  0  0  0  0  0  0
  148.9794  137.2440  156.4210 H   0  0  0  0  0  0  0  0  0  0  0  0
  150.4177  136.7240  154.6845 H   0  0  0  0  0  0  0  0  0  0  0  0
  151.7391  136.3245  155.7436 H   0  0  0  0  0  0  0  0  0  0  0  0
  151.2218  133.9867  157.2351 H   0  0  0  0  0  0  0  0  0  0  0  0
  150.7702  131.5850  156.7191 H   0  0  0  0  0  0  0  0  0  0  0  0
  149.6941  130.9812  154.5404 H   0  0  0  0  0  0  0  0  0  0  0  0
  149.0942  132.8716  152.9162 H   0  0  0  0  0  0  0  0  0  0  0  0
  149.5711  135.0545  153.5184 H   0  0  0  0  0  0  0  0  0  0  0  0
  1  2  2  0  0  0  0
  2  3  1  0  0  0  0
  2 16  1  0  0  0  0
  3  4  1  0  0  0  0
  3 25  1  0  0  0  0
  3 26  1  0  0  0  0
  4  5  1  0  0  0  0
  4 27  1  0  0  0  0
  4 28  1  0  0  0  0
  5 14  1  0  0  0  0
  5  6  1  0  0  0  0
  6  7  2  0  0  0  0
  6  8  1  0  0  0  0
  8 13  1  0  0  0  0
  8  9  1  0  0  0  0
  8 29  1  0  0  0  0
  9 10  1  0  0  0  0
  9 30  1  0  0  0  0
  9 31  1  0  0  0  0
 10 11  1  0  0  0  0
 10 32  1  0  0  0  0
 10 33  1  0  0  0  0
 11 12  1  0  0  0  0
 11 34  1  0  0  0  0
 11 35  1  0  0  0  0
 12 13  1  0  0  0  0
 12 36  1  0  0  0  0
 12 37  1  0  0  0  0
 13 14  1  0  0  0  0
 13 38  1  0  0  0  0
 14 15  2  0  0  0  0
 16 17  1  0  0  0  0
 16 39  1  0  0  0  0
 17 18  1  0  0  0  0
 17 40  1  0  0  0  0
 17 41  1  0  0  0  0
 18 19  1  0  0  0  0
 18 42  1  0  0  0  0
 18 43  1  0  0  0  0
 19 24  1  0  0  0  0
 19 20  2  0  0  0  0
 20 21  1  0  0  0  0
 20 44  1  0  0  0  0
 21 22  2  0  0  0  0
 21 45  1  0  0  0  0
 22 23  1  0  0  0  0
 22 46  1  0  0  0  0
 23 24  2  0  0  0  0
 23 47  1  0  0  0  0
 24 48  1  0  0  0  0
M  CHG  1  24   1
M  END
> <s_m_source_file>
AV-unprocessed.smi

> <i_m_source_file_index>
2159

> <i_lp_mmshare_version>
43012

> <i_f3d_flags>
0

> <s_epik_input>
bjFbY0hdW2NIXVtjSF1bY0hdYzFbQ0gyXVtDSDJdW05IXUMoPU8pW0NIMl1bQ0gyXU4oQzI9TylDKD1PKVtDQEhdKFtDQEBIXTIzKVtDSDJdW0NIMl1bQ0gyXVtDSDJdMw==

> <s_epik_cmdline>
J2VwaWtfcHl0aG9uJywgJy1waCcsICc3LjAnLCAnLXRuJywgJzgnLCAnLW1hJywgJzIwMCcsICctbWV0YWxfYmluZGluZycsICctaW1hZScsICc8aW5maWxlLm1hZT4nLCAnLW9tYWUnLCAnPG91dGZpbGUubWFlPic=

> <r_lp_tautomer_probability>
1

> <r_epik_Ionization_Penalty>
1.85146

> <r_epik_Ionization_Penalty_Charging>
1.85146

> <r_epik_Ionization_Penalty_Neutral>
2.95922e-08

> <r_epik_State_Penalty>
1.96899

> <r_epik_Charging_Adjusted_Penalty>
3.82044

> <i_epik_Tot_Q>
1

> <i_epik_Tot_abs_Q>
1

> <r_epik_Metal_State_Penalty>
1.99467

> <b_epik_Metal_Only>
0

> <s_lp_Force_Field>
OPLS_2005

> <r_lp_Energy>
31.2596

> <b_lp_Chiralities_Consistent>
1

> <s_lp_Variant>
AV-unprocessed.smi:2159-5

> <Gold.Version>
5.8.1

> <Gold.Id.Protein>
6NUR|6NUR_protein|mol2

> <Gold.PLP.Fitness>
53.5699

> <Gold.PLP.PLP>
-47.0636

> <Gold.PLP.part.hbond>
-2.0000

> <Gold.PLP.part.metal>
0.0000

> <Gold.PLP.part.buried>
-7.4218

> <Gold.PLP.part.nonpolar>
-37.3041

> <Gold.PLP.part.repulsive>
0.1138

> <Gold.PLP.ligand.clash>
1.1049

> <Gold.PLP.ligand.torsion>
0.7906

> <Gold.PLP.Chemscore.Hbond>
3.0000

> <Gold.PLP.Chemscore.CHOScore>
0.0000

> <Gold.PLP.Chemscore.Metal>
0.0000

> <Gold.Chemscore.Hbonds>
donor molecule, donor type, donor heavy atom, donor atom, acceptor molecule, acceptor atom, score
      L1  H    24    48       P1  7948  0.89
      P1  H  6896  6907       L1     1  1.00

> <Gold.PLP.Chemscore.Internal.Correction>
0.1923

> <Gold.Rescore>
     Score         DG    S(hbond)    S(metal)    S(lipo)     H(rot)  DE(clash)    DE(int)     intcor
     18.16     -18.91       1.90        0.00     106.39       2.10       0.13       0.62       ----

> <Gold.Chemscore.Fitness>
18.1589

> <Gold.Chemscore.DG>
-18.9138

> <Gold.Chemscore.ZeroCoef>
-5.4800

> <Gold.Chemscore.Hbond>
1.9018

> <Gold.Chemscore.Metal>
0.0000

> <Gold.Chemscore.Lipo>
106.3879

> <Gold.Chemscore.Internal_Hbond>
0.0000

> <Gold.Chemscore.DEClash>
0.1307

> <Gold.Chemscore.DEInternal>
0.6242

> <Gold.Chemscore.Rot>
2.0959

> <Gold.Chemscore.Internal.Correction>
   9.000000E+99

> <Gold.Chemscore.Hbonds>
donor molecule, donor type, donor heavy atom, donor atom, acceptor molecule, acceptor atom, score
      L1  H    24    48       P1  7948  0.02
      P1  H  6896  6907       L1     1  0.94

> <Gold.Chemscore.Hbond.Weighted>
-6.3519

> <Gold.Chemscore.Metal.Weighted>
-0.0000

> <Gold.Chemscore.Lipo.Weighted>
-12.4474

> <Gold.Chemscore.Internal_Hbond.Weighted>
0.0000

> <Gold.Chemscore.DEClash.Weighted>
0.1307

> <Gold.Chemscore.DEInternal.Weighted>
0.6242

> <Gold.Chemscore.Rot.Weighted>
5.3655

> <Gold.Chemscore.Internal.Correction.Weighted>
   9.000000E+99

> <Gold.Protein.RotatedTorsions>
[ 6907 6896 6895 6894 ] final  -43.52 input  -60.11 | X-H torsion
[ 7974 7965 7964 7962 ] final  -96.49 input  175.53 | X-H torsion
[ 8008 7997 7996 7995 ] final  159.93 input   59.86 | X-H torsion
[ 10167 10162 10161 10158 ] final -128.39 input  -65.29 | X-H torsion
[ 10718 10713 10712 10709 ] final  -31.54 input   66.30 | X-H torsion
[ 10763 10752 10751 10750 ] final  -77.57 input  -60.55 | X-H torsion
[ 11005 11000 10999 10996 ] final  113.13 input  -57.11 | X-H torsion

> <Gold.Protein.ActiveResidues>
 VAL166  LYS551  ARG553  GLY616  TRP617  ASP618  TYR619  PRO620  LYS621  CYS622 
 ASP623  PHE694  ASN695  SER759  ASP760  ASP761  ALA762  ILE779  LEU786  VAL792 
 PHE793  MET794  SER795  GLU796  ALA797  LYS798  CYS799  TRP800  GLU811  SER814 

> <Gold.Protein.RotatedAtoms>
  150.9430  134.8838  159.7624 H   0  0  0  0  0  0  0  0  0  0  0  0  # atno 6907 bound_to 6896
  152.5088  134.3914  159.9395 H   0  0  0  0  0  0  0  0  0  0  0  0  # atno 6908 bound_to 6896
  151.3934  133.3741  159.2758 H   0  0  0  0  0  0  0  0  0  0  0  0  # atno 6909 bound_to 6896
  145.3462  140.9468  143.2580 H   0  0  0  0  0  0  0  0  0  0  0  0  # atno 7974 bound_to 7965
  156.2206  140.1818  156.7486 H   0  0  0  0  0  0  0  0  0  0  0  0  # atno 8008 bound_to 7997
  154.5859  140.0658  156.9200 H   0  0  0  0  0  0  0  0  0  0  0  0  # atno 8009 bound_to 7997
  155.2420  140.3322  155.4294 H   0  0  0  0  0  0  0  0  0  0  0  0  # atno 8010 bound_to 7997
  139.9508  143.6058  152.2476 H   0  0  0  0  0  0  0  0  0  0  0  0  # atno 10167 bound_to 10162
  156.3860  130.4364  149.7431 H   0  0  0  0  0  0  0  0  0  0  0  0  # atno 10718 bound_to 10713
  154.5146  135.5759  153.6632 H   0  0  0  0  0  0  0  0  0  0  0  0  # atno 10763 bound_to 10752
  152.9904  135.6167  154.2834 H   0  0  0  0  0  0  0  0  0  0  0  0  # atno 10764 bound_to 10752
  154.2750  135.2852  155.2701 H   0  0  0  0  0  0  0  0  0  0  0  0  # atno 10765 bound_to 10752
  139.8945  134.9544  156.6692 H   0  0  0  0  0  0  0  0  0  0  0  0  # atno 11005 bound_to 11000
  144.8752  139.4981  143.6749 LP  0  0  0  0  0  0  0  0  0  0  0  0  # atno 17320 bound_to 7965
  146.2987  139.7358  142.9107 LP  0  0  0  0  0  0  0  0  0  0  0  0  # atno 17321 bound_to 7965
  139.6630  144.7662  151.1926 LP  0  0  0  0  0  0  0  0  0  0  0  0  # atno 17342 bound_to 10162
  140.7583  143.5981  150.8728 LP  0  0  0  0  0  0  0  0  0  0  0  0  # atno 17343 bound_to 10162
  156.4503  130.7903  151.2925 LP  0  0  0  0  0  0  0  0  0  0  0  0  # atno 17370 bound_to 10713
  157.7496  131.0097  150.3279 LP  0  0  0  0  0  0  0  0  0  0  0  0  # atno 17371 bound_to 10713
  140.7386  133.8997  155.8262 LP  0  0  0  0  0  0  0  0  0  0  0  0  # atno 17394 bound_to 11000
  141.0095  134.1039  157.4235 LP  0  0  0  0  0  0  0  0  0  0  0  0  # atno 17395 bound_to 11000

$$$$
