AV-unprocessed.smi:283|AV-procd|sdf|2130|dock1
  -GOLD-   2262021443D 1   1.00000     0.00000
 Structure written by MMmdl.
 48 51  0  0  0  0  0  0  0  0  1 V2000
  151.9400  140.7530  158.0415 C   0  0  0  0  0  0  0  0  0  0  0  0
  152.2508  141.2719  159.4572 C   0  0  1  0  0  0  0  0  0  0  0  0
  153.5430  140.7776  159.9314 N   0  0  0  0  0  0  0  0  0  0  0  0
  153.7232  139.4880  160.2934 C   0  0  0  0  0  0  0  0  0  0  0  0
  153.2215  138.4671  159.5504 N   0  0  0  0  0  0  0  0  0  0  0  0
  153.4109  137.2022  159.9374 C   0  0  0  0  0  0  0  0  0  0  0  0
  154.0586  136.7465  161.0124 N   0  0  0  0  0  0  0  0  0  0  0  0
  154.5614  137.7687  161.7641 C   0  0  0  0  0  0  0  0  0  0  0  0
  154.4334  139.1554  161.4756 C   0  0  0  0  0  0  0  0  0  0  0  0
  155.0593  139.9000  162.4654 N   0  0  0  0  0  0  0  0  0  0  0  0
  155.5207  139.0008  163.2925 C   0  0  0  0  0  0  0  0  0  0  0  0
  155.2827  137.6870  162.9367 N   0  0  0  0  0  0  0  0  0  0  0  0
  155.6308  136.4123  163.6519 C   0  0  2  0  0  0  0  0  0  0  0  0
  156.4486  135.6686  162.8029 O   0  0  0  0  0  0  0  0  0  0  0  0
  155.6533  134.7555  162.0577 C   0  0  1  0  0  0  0  0  0  0  0  0
  156.5196  133.6516  161.4239 C   0  0  0  0  0  0  0  0  0  0  0  0
  155.7046  132.7422  160.7156 O   0  0  0  0  0  0  0  0  0  0  0  0
  154.6349  134.2887  163.1094 C   0  0  1  0  0  0  0  0  0  0  0  0
  155.1645  133.2193  163.8769 O   0  0  0  0  0  0  0  0  0  0  0  0
  154.3848  135.5517  163.9437 C   0  0  1  0  0  0  0  0  0  0  0  0
  154.2156  135.2819  165.3231 O   0  0  0  0  0  0  0  0  0  0  0  0
  152.1625  142.7969  159.4833 C   0  0  0  0  0  0  0  0  0  0  0  0
  151.8024  143.5032  158.3112 C   0  0  0  0  0  0  0  0  0  0  0  0
  151.7099  144.9076  158.3181 C   0  0  0  0  0  0  0  0  0  0  0  0
  151.9703  145.6232  159.5003 C   0  0  0  0  0  0  0  0  0  0  0  0
  152.3166  144.9315  160.6755 C   0  0  0  0  0  0  0  0  0  0  0  0
  152.4097  143.5251  160.6751 C   0  0  0  0  0  0  0  0  0  0  0  0
  152.8193  142.7299  162.1552 Cl  0  0  0  0  0  0  0  0  0  0  0  0
  156.1726  136.7213  164.5463 H   0  0  0  0  0  0  0  0  0  0  0  0
  155.1202  135.2954  161.2742 H   0  0  0  0  0  0  0  0  0  0  0  0
  153.7169  133.9351  162.6390 H   0  0  0  0  0  0  0  0  0  0  0  0
  153.4847  136.0582  163.5978 H   0  0  0  0  0  0  0  0  0  0  0  0
  150.9554  141.0858  157.7121 H   0  0  0  0  0  0  0  0  0  0  0  0
  151.9439  139.6644  157.9960 H   0  0  0  0  0  0  0  0  0  0  0  0
  152.6709  141.1161  157.3182 H   0  0  0  0  0  0  0  0  0  0  0  0
  151.4964  140.8875  160.1425 H   0  0  0  0  0  0  0  0  0  0  0  0
  154.2980  141.4478  159.9115 H   0  0  0  0  0  0  0  0  0  0  0  0
  152.9823  136.4477  159.2943 H   0  0  0  0  0  0  0  0  0  0  0  0
  156.0511  139.2857  164.1888 H   0  0  0  0  0  0  0  0  0  0  0  0
  157.2784  134.0694  160.7615 H   0  0  0  0  0  0  0  0  0  0  0  0
  157.0383  133.0881  162.2001 H   0  0  0  0  0  0  0  0  0  0  0  0
  155.6933  131.9207  161.1823 H   0  0  0  0  0  0  0  0  0  0  0  0
  156.1019  133.2023  163.7580 H   0  0  0  0  0  0  0  0  0  0  0  0
  153.3602  134.9014  165.4524 H   0  0  0  0  0  0  0  0  0  0  0  0
  151.5891  142.9722  157.3953 H   0  0  0  0  0  0  0  0  0  0  0  0
  151.4363  145.4355  157.4164 H   0  0  0  0  0  0  0  0  0  0  0  0
  151.8991  146.7009  159.5076 H   0  0  0  0  0  0  0  0  0  0  0  0
  152.5076  145.4839  161.5837 H   0  0  0  0  0  0  0  0  0  0  0  0
  1  2  1  0  0  0  0
  1 33  1  0  0  0  0
  1 34  1  0  0  0  0
  1 35  1  0  0  0  0
  2  3  1  0  0  0  0
  2 22  1  0  0  0  0
  2 36  1  0  0  0  0
  3  4  1  0  0  0  0
  3 37  1  0  0  0  0
  4  9  1  0  0  0  0
  4  5  2  0  0  0  0
  5  6  1  0  0  0  0
  6  7  2  0  0  0  0
  6 38  1  0  0  0  0
  7  8  1  0  0  0  0
  8 12  1  0  0  0  0
  8  9  2  0  0  0  0
  9 10  1  0  0  0  0
 10 11  2  0  0  0  0
 11 12  1  0  0  0  0
 11 39  1  0  0  0  0
 12 13  1  0  0  0  0
 13 29  1  0  0  0  0
 13 20  1  0  0  0  0
 13 14  1  0  0  0  0
 14 15  1  0  0  0  0
 15 30  1  0  0  0  0
 15 16  1  0  0  0  0
 15 18  1  0  0  0  0
 16 17  1  0  0  0  0
 16 40  1  0  0  0  0
 16 41  1  0  0  0  0
 17 42  1  0  0  0  0
 18 31  1  0  0  0  0
 18 19  1  0  0  0  0
 18 20  1  0  0  0  0
 19 43  1  0  0  0  0
 20 32  1  0  0  0  0
 20 21  1  0  0  0  0
 21 44  1  0  0  0  0
 22 27  1  0  0  0  0
 22 23  2  0  0  0  0
 23 24  1  0  0  0  0
 23 45  1  0  0  0  0
 24 25  2  0  0  0  0
 24 46  1  0  0  0  0
 25 26  1  0  0  0  0
 25 47  1  0  0  0  0
 26 27  2  0  0  0  0
 26 48  1  0  0  0  0
 27 28  1  0  0  0  0
M  END
> <s_m_source_file>
AV-unprocessed.smi

> <i_m_source_file_index>
283

> <i_lp_mmshare_version>
43012

> <i_f3d_flags>
0

> <s_epik_input>
Q2xjMVtjSF1bY0hdW2NIXVtjSF1jMVtDQEhdKFtDSDNdKVtOSF1jKG5bY0hdbjIpYyhjMjMpbltjSF1uM1tDQEBIXTRPW0NASF0oW0NIMl1bT0hdKVtDQEBIXShbT0hdKVtDQEhdNFtPSF0=

> <s_epik_cmdline>
J2VwaWtfcHl0aG9uJywgJy1waCcsICc3LjAnLCAnLXRuJywgJzgnLCAnLW1hJywgJzIwMCcsICctbWV0YWxfYmluZGluZycsICctaW1hZScsICc8aW5maWxlLm1hZT4nLCAnLW9tYWUnLCAnPG91dGZpbGUubWFlPic=

> <r_lp_tautomer_probability>
1

> <r_epik_Ionization_Penalty>
0.000266407

> <r_epik_Ionization_Penalty_Charging>
0

> <r_epik_Ionization_Penalty_Neutral>
0.000266407

> <r_epik_State_Penalty>
-0

> <r_epik_Charging_Adjusted_Penalty>
0

> <i_epik_Tot_Q>
0

> <i_epik_Tot_abs_Q>
0

> <r_epik_Metal_State_Penalty>
-0

> <b_epik_Metal_Only>
0

> <s_epik_Chemistry_Notes>
This compound contains an acetal/aminal-like group ( X-CH(R)-Y where X, Y are N, S, or O) that may be acid/base labile, releasing an aldehyde.

> <s_lp_Force_Field>
OPLS_2005

> <r_lp_Energy>
48.0921

> <b_lp_Chiralities_Consistent>
1

> <s_lp_Variant>
AV-unprocessed.smi:283-6

> <Gold.Version>
5.8.1

> <Gold.Id.Protein>
6NUR|6NUR_protein|mol2

> <Gold.PLP.Fitness>
49.3616

> <Gold.PLP.PLP>
-50.4504

> <Gold.PLP.part.hbond>
-1.0000

> <Gold.PLP.part.metal>
0.0000

> <Gold.PLP.part.buried>
-7.5855

> <Gold.PLP.part.nonpolar>
-40.7564

> <Gold.PLP.part.repulsive>
0.0736

> <Gold.PLP.ligand.clash>
0.0000

> <Gold.PLP.ligand.torsion>
0.5933

> <Gold.PLP.Chemscore.Hbond>
0.0000

> <Gold.PLP.Chemscore.CHOScore>
0.0000

> <Gold.PLP.Chemscore.Metal>
0.0000

> <Gold.PLP.Chemscore.Internal.Correction>
0.0978

> <Gold.Rescore>
     Score         DG    S(hbond)    S(metal)    S(lipo)     H(rot)  DE(clash)    DE(int)     intcor
      6.05      -9.56       0.00        0.00     124.51       4.10       0.53       2.99       ----

> <Gold.Chemscore.Fitness>
6.0452

> <Gold.Chemscore.DG>
-9.5602

> <Gold.Chemscore.ZeroCoef>
-5.4800

> <Gold.Chemscore.Hbond>
0.0000

> <Gold.Chemscore.Metal>
0.0000

> <Gold.Chemscore.Lipo>
124.5137

> <Gold.Chemscore.Internal_Hbond>
0.0000

> <Gold.Chemscore.DEClash>
0.5271

> <Gold.Chemscore.DEInternal>
2.9879

> <Gold.Chemscore.Rot>
4.0968

> <Gold.Chemscore.Internal.Correction>
   9.000000E+99

> <Gold.Chemscore.Hbond.Weighted>
-0.0000

> <Gold.Chemscore.Metal.Weighted>
-0.0000

> <Gold.Chemscore.Lipo.Weighted>
-14.5681

> <Gold.Chemscore.Internal_Hbond.Weighted>
0.0000

> <Gold.Chemscore.DEClash.Weighted>
0.5271

> <Gold.Chemscore.DEInternal.Weighted>
2.9879

> <Gold.Chemscore.Rot.Weighted>
10.4879

> <Gold.Chemscore.Internal.Correction.Weighted>
   9.000000E+99

> <Gold.Protein.RotatedTorsions>
[ 6907 6896 6895 6894 ] final  -52.61 input  -60.11 | X-H torsion
[ 7974 7965 7964 7962 ] final  -97.37 input  175.53 | X-H torsion
[ 8008 7997 7996 7995 ] final   -7.51 input   59.86 | X-H torsion
[ 10167 10162 10161 10158 ] final -123.01 input  -65.29 | X-H torsion
[ 10718 10713 10712 10709 ] final -164.19 input   66.30 | X-H torsion
[ 10763 10752 10751 10750 ] final  135.90 input  -60.55 | X-H torsion
[ 11005 11000 10999 10996 ] final  121.36 input  -57.11 | X-H torsion

> <Gold.Protein.ActiveResidues>
 VAL166  LYS551  ARG553  GLY616  TRP617  ASP618  TYR619  PRO620  LYS621  CYS622 
 ASP623  PHE694  ASN695  SER759  ASP760  ASP761  ALA762  ILE779  LEU786  VAL792 
 PHE793  MET794  SER795  GLU796  ALA797  LYS798  CYS799  TRP800  GLU811  SER814 

> <Gold.Protein.RotatedAtoms>
  150.8502  134.7824  159.7002 H   0  0  0  0  0  0  0  0  0  0  0  0  # atno 6907 bound_to 6896
  152.4568  134.5269  159.9809 H   0  0  0  0  0  0  0  0  0  0  0  0  # atno 6908 bound_to 6896
  151.5392  133.3397  159.2968 H   0  0  0  0  0  0  0  0  0  0  0  0  # atno 6909 bound_to 6896
  145.3346  140.9448  143.2642 H   0  0  0  0  0  0  0  0  0  0  0  0  # atno 7974 bound_to 7965
  154.5831  140.2405  155.8026 H   0  0  0  0  0  0  0  0  0  0  0  0  # atno 8008 bound_to 7997
  156.2193  140.3002  155.9871 H   0  0  0  0  0  0  0  0  0  0  0  0  # atno 8009 bound_to 7997
  155.2506  140.0410  157.2976 H   0  0  0  0  0  0  0  0  0  0  0  0  # atno 8010 bound_to 7997
  140.0081  143.5470  152.2275 H   0  0  0  0  0  0  0  0  0  0  0  0  # atno 10167 bound_to 10162
  156.6355  130.8947  151.2986 H   0  0  0  0  0  0  0  0  0  0  0  0  # atno 10718 bound_to 10713
  153.8477  135.3083  155.3430 H   0  0  0  0  0  0  0  0  0  0  0  0  # atno 10763 bound_to 10752
  154.7905  135.4785  154.0045 H   0  0  0  0  0  0  0  0  0  0  0  0  # atno 10764 bound_to 10752
  153.1537  135.6848  153.8936 H   0  0  0  0  0  0  0  0  0  0  0  0  # atno 10765 bound_to 10752
  139.9223  134.9638  156.7947 H   0  0  0  0  0  0  0  0  0  0  0  0  # atno 11005 bound_to 11000
  144.8837  139.4868  143.6711 LP  0  0  0  0  0  0  0  0  0  0  0  0  # atno 17320 bound_to 7965
  146.3032  139.7493  142.9076 LP  0  0  0  0  0  0  0  0  0  0  0  0  # atno 17321 bound_to 7965
  139.6224  144.7631  151.2711 LP  0  0  0  0  0  0  0  0  0  0  0  0  # atno 17342 bound_to 10162
  140.7392  143.6624  150.8152 LP  0  0  0  0  0  0  0  0  0  0  0  0  # atno 17343 bound_to 10162
  157.7187  130.9530  150.1354 LP  0  0  0  0  0  0  0  0  0  0  0  0  # atno 17370 bound_to 10713
  156.2201  130.3673  149.8567 LP  0  0  0  0  0  0  0  0  0  0  0  0  # atno 17371 bound_to 10713
  140.6439  133.9793  155.7721 LP  0  0  0  0  0  0  0  0  0  0  0  0  # atno 17394 bound_to 11000
  141.0753  134.0144  157.3466 LP  0  0  0  0  0  0  0  0  0  0  0  0  # atno 17395 bound_to 11000

$$$$
