AV-unprocessed.smi:2893|AV-procd|sdf|11125|dock9
  -GOLD-   2272016 03D 1   1.00000     0.00000
 Structure written by MMmdl.
 37 39  0  0  0  0  0  0  0  0  1 V2000
  140.8644  141.4364  155.2881 C   0  0  0  0  0  0  0  0  0  0  0  0
  139.9962  140.6868  154.2688 C   0  0  0  0  0  0  0  0  0  0  0  0
  140.5638  139.3862  153.9339 N   0  0  0  0  0  0  0  0  0  0  0  0
  139.9752  138.1999  154.1642 C   0  0  0  0  0  0  0  0  0  0  0  0
  138.8647  138.0878  154.6853 O   0  0  0  0  0  0  0  0  0  0  0  0
  140.7396  136.9866  153.7054 C   0  0  0  0  0  0  0  0  0  0  0  0
  142.0996  137.1005  153.3439 C   0  0  0  0  0  0  0  0  0  0  0  0
  142.7633  135.9401  152.9101 C   0  0  0  0  0  0  0  0  0  0  0  0
  142.0244  134.7431  152.8611 C   0  0  0  0  0  0  0  0  0  0  0  0
  142.6612  133.5707  152.4306 N   0  0  0  0  0  0  0  0  0  0  0  0
  143.7420  133.6157  151.4517 C   0  0  1  0  0  0  0  0  0  0  0  0
  145.1019  133.2128  152.0369 C   0  0  0  0  0  0  0  0  0  0  0  0
  145.5197  132.0663  151.1083 C   0  0  2  0  0  0  0  0  0  0  0  0
  145.8477  132.5552  149.6909 C   0  0  0  0  0  0  0  0  0  0  0  0
  144.4576  132.8712  149.1399 C   0  0  0  0  0  0  0  0  0  0  0  0
  143.5614  132.5614  150.3465 C   0  0  1  0  0  0  0  0  0  0  0  0
  144.2608  131.4542  150.8917 O   0  0  0  0  0  0  0  0  0  0  0  0
  140.7181  134.6952  153.2200 N   0  0  0  0  0  0  0  0  0  0  0  0
  140.0861  135.7991  153.6315 N   0  0  0  0  0  0  0  0  0  0  0  0
  140.4440  142.4182  155.5061 H   0  0  0  0  0  0  0  0  0  0  0  0
  141.8765  141.5849  154.9103 H   0  0  0  0  0  0  0  0  0  0  0  0
  140.9336  140.8904  156.2294 H   0  0  0  0  0  0  0  0  0  0  0  0
  138.9794  140.5707  154.6475 H   0  0  0  0  0  0  0  0  0  0  0  0
  139.9205  141.2706  153.3513 H   0  0  0  0  0  0  0  0  0  0  0  0
  141.4726  139.3816  153.4929 H   0  0  0  0  0  0  0  0  0  0  0  0
  142.6244  138.0434  153.3956 H   0  0  0  0  0  0  0  0  0  0  0  0
  143.8042  135.9719  152.6233 H   0  0  0  0  0  0  0  0  0  0  0  0
  142.5072  132.7098  152.9354 H   0  0  0  0  0  0  0  0  0  0  0  0
  143.7782  134.6109  151.0065 H   0  0  0  0  0  0  0  0  0  0  0  0
  145.8191  134.0341  152.0353 H   0  0  0  0  0  0  0  0  0  0  0  0
  145.0080  132.8494  153.0616 H   0  0  0  0  0  0  0  0  0  0  0  0
  146.2734  131.4042  151.5349 H   0  0  0  0  0  0  0  0  0  0  0  0
  146.5095  133.4221  149.6954 H   0  0  0  0  0  0  0  0  0  0  0  0
  146.3205  131.7659  149.1056 H   0  0  0  0  0  0  0  0  0  0  0  0
  144.3596  133.9024  148.7991 H   0  0  0  0  0  0  0  0  0  0  0  0
  144.2206  132.2118  148.3041 H   0  0  0  0  0  0  0  0  0  0  0  0
  142.5241  132.3577  150.0776 H   0  0  0  0  0  0  0  0  0  0  0  0
  1  2  1  0  0  0  0
  1 20  1  0  0  0  0
  1 21  1  0  0  0  0
  1 22  1  0  0  0  0
  2  3  1  0  0  0  0
  2 23  1  0  0  0  0
  2 24  1  0  0  0  0
  3  4  1  0  0  0  0
  3 25  1  0  0  0  0
  4  5  2  0  0  0  0
  4  6  1  0  0  0  0
  6 19  1  0  0  0  0
  6  7  2  0  0  0  0
  7  8  1  0  0  0  0
  7 26  1  0  0  0  0
  8  9  2  0  0  0  0
  8 27  1  0  0  0  0
  9 10  1  0  0  0  0
  9 18  1  0  0  0  0
 10 11  1  0  0  0  0
 10 28  1  0  0  0  0
 11 16  1  0  0  0  0
 11 12  1  0  0  0  0
 11 29  1  0  0  0  0
 12 13  1  0  0  0  0
 12 30  1  0  0  0  0
 12 31  1  0  0  0  0
 13 17  1  0  0  0  0
 13 14  1  0  0  0  0
 13 32  1  0  0  0  0
 14 15  1  0  0  0  0
 14 33  1  0  0  0  0
 14 34  1  0  0  0  0
 15 16  1  0  0  0  0
 15 35  1  0  0  0  0
 15 36  1  0  0  0  0
 16 17  1  0  0  0  0
 16 37  1  0  0  0  0
 18 19  2  0  0  0  0
M  END
> <s_m_source_file>
AV-unprocessed.smi

> <i_m_source_file_index>
2893

> <i_lp_mmshare_version>
43012

> <i_f3d_flags>
0

> <s_epik_input>
W0NIM11bQ0gyXVtOSF1DKD1PKWMxW2NIXVtjSF1jKG5uMSlbTkhdW0NASF0oW0NIMl1bQ0BASF0yMylbQ0BASF0oTzMpW0NIMl1bQ0gyXTI=

> <s_epik_cmdline>
J2VwaWtfcHl0aG9uJywgJy1waCcsICc3LjAnLCAnLXRuJywgJzgnLCAnLW1hJywgJzIwMCcsICctbWV0YWxfYmluZGluZycsICctaW1hZScsICc8aW5maWxlLm1hZT4nLCAnLW9tYWUnLCAnPG91dGZpbGUubWFlPic=

> <r_lp_tautomer_probability>
1

> <r_epik_Ionization_Penalty>
0.00432031

> <r_epik_Ionization_Penalty_Charging>
0

> <r_epik_Ionization_Penalty_Neutral>
0.00432031

> <r_epik_State_Penalty>
-0

> <r_epik_Charging_Adjusted_Penalty>
0

> <i_epik_Tot_Q>
0

> <i_epik_Tot_abs_Q>
0

> <r_epik_Metal_State_Penalty>
-0

> <b_epik_Metal_Only>
0

> <s_lp_Force_Field>
OPLS_2005

> <r_lp_Energy>
49.39

> <b_lp_Chiralities_Consistent>
1

> <s_lp_Variant>
AV-unprocessed.smi:2893-4

> <Gold.Version>
5.8.1

> <Gold.Id.Protein>
6NUR|6NUR_protein|mol2

> <Gold.PLP.Fitness>
38.4248

> <Gold.PLP.PLP>
-35.7730

> <Gold.PLP.part.hbond>
-3.4572

> <Gold.PLP.part.metal>
0.0000

> <Gold.PLP.part.buried>
-7.6402

> <Gold.PLP.part.nonpolar>
-23.8773

> <Gold.PLP.part.repulsive>
0.5480

> <Gold.PLP.ligand.clash>
0.0000

> <Gold.PLP.ligand.torsion>
0.3901

> <Gold.PLP.Chemscore.Hbond>
1.1365

> <Gold.PLP.Chemscore.CHOScore>
0.0000

> <Gold.PLP.Chemscore.Metal>
0.0000

> <Gold.Chemscore.Hbonds>
donor molecule, donor type, donor heavy atom, donor atom, acceptor molecule, acceptor atom, score
      L1  H    10    28       P1 10957  0.79

> <Gold.PLP.Chemscore.Internal.Correction>
0.0224

> <Gold.Rescore>
     Score         DG    S(hbond)    S(metal)    S(lipo)     H(rot)  DE(clash)    DE(int)     intcor
     16.28     -16.76       1.85        0.00      70.03       1.21       0.04       0.44       ----

> <Gold.Chemscore.Fitness>
16.2812

> <Gold.Chemscore.DG>
-16.7601

> <Gold.Chemscore.ZeroCoef>
-5.4800

> <Gold.Chemscore.Hbond>
1.8486

> <Gold.Chemscore.Metal>
0.0000

> <Gold.Chemscore.Lipo>
70.0298

> <Gold.Chemscore.Internal_Hbond>
0.0000

> <Gold.Chemscore.DEClash>
0.0358

> <Gold.Chemscore.DEInternal>
0.4431

> <Gold.Chemscore.Rot>
1.2061

> <Gold.Chemscore.Internal.Correction>
   9.000000E+99

> <Gold.Chemscore.Hbonds>
donor molecule, donor type, donor heavy atom, donor atom, acceptor molecule, acceptor atom, score
      L1  H    10    28       P1 10957  0.14

> <Gold.Chemscore.Hbond.Weighted>
-6.1742

> <Gold.Chemscore.Metal.Weighted>
-0.0000

> <Gold.Chemscore.Lipo.Weighted>
-8.1935

> <Gold.Chemscore.Internal_Hbond.Weighted>
0.0000

> <Gold.Chemscore.DEClash.Weighted>
0.0358

> <Gold.Chemscore.DEInternal.Weighted>
0.4431

> <Gold.Chemscore.Rot.Weighted>
3.0876

> <Gold.Chemscore.Internal.Correction.Weighted>
   9.000000E+99

> <Gold.Protein.RotatedTorsions>
[ 6907 6896 6895 6894 ] final  127.90 input  -60.11 | X-H torsion
[ 7974 7965 7964 7962 ] final   97.48 input  175.53 | X-H torsion
[ 8008 7997 7996 7995 ] final   23.99 input   59.86 | X-H torsion
[ 10167 10162 10161 10158 ] final  -53.53 input  -65.29 | X-H torsion
[ 10718 10713 10712 10709 ] final   29.64 input   66.30 | X-H torsion
[ 10763 10752 10751 10750 ] final -129.74 input  -60.55 | X-H torsion
[ 11005 11000 10999 10996 ] final   61.40 input  -57.11 | X-H torsion

> <Gold.Protein.ActiveResidues>
 VAL166  LYS551  ARG553  GLY616  TRP617  ASP618  TYR619  PRO620  LYS621  CYS622 
 ASP623  PHE694  ASN695  SER759  ASP760  ASP761  ALA762  ILE779  LEU786  VAL792 
 PHE793  MET794  SER795  GLU796  ALA797  LYS798  CYS799  TRP800  GLU811  SER814 

> <Gold.Protein.RotatedAtoms>
  152.3769  133.6493  159.6130 H   0  0  0  0  0  0  0  0  0  0  0  0  # atno 6907 bound_to 6896
  150.7711  133.9178  159.3397 H   0  0  0  0  0  0  0  0  0  0  0  0  # atno 6908 bound_to 6896
  151.6991  135.0934  160.0299 H   0  0  0  0  0  0  0  0  0  0  0  0  # atno 6909 bound_to 6896
  145.4250  139.2317  143.3175 H   0  0  0  0  0  0  0  0  0  0  0  0  # atno 7974 bound_to 7965
  154.9893  140.3112  155.4913 H   0  0  0  0  0  0  0  0  0  0  0  0  # atno 8008 bound_to 7997
  156.2942  140.2252  156.4937 H   0  0  0  0  0  0  0  0  0  0  0  0  # atno 8009 bound_to 7997
  154.7718  140.0452  157.1045 H   0  0  0  0  0  0  0  0  0  0  0  0  # atno 8010 bound_to 7997
  140.6480  143.2547  151.4805 H   0  0  0  0  0  0  0  0  0  0  0  0  # atno 10167 bound_to 10162
  157.2492  130.7107  149.6397 H   0  0  0  0  0  0  0  0  0  0  0  0  # atno 10718 bound_to 10713
  154.8757  135.3885  154.3969 H   0  0  0  0  0  0  0  0  0  0  0  0  # atno 10763 bound_to 10752
  153.4698  135.7030  153.6005 H   0  0  0  0  0  0  0  0  0  0  0  0  # atno 10764 bound_to 10752
  153.4467  135.3843  155.2228 H   0  0  0  0  0  0  0  0  0  0  0  0  # atno 10765 bound_to 10752
  140.0164  134.6219  155.9704 H   0  0  0  0  0  0  0  0  0  0  0  0  # atno 11005 bound_to 11000
  146.2637  140.4979  142.8843 LP  0  0  0  0  0  0  0  0  0  0  0  0  # atno 17320 bound_to 7965
  144.8220  140.6566  143.6346 LP  0  0  0  0  0  0  0  0  0  0  0  0  # atno 17321 bound_to 7965
  139.5692  144.1969  152.1811 LP  0  0  0  0  0  0  0  0  0  0  0  0  # atno 17342 bound_to 10162
  140.1260  144.5330  150.6832 LP  0  0  0  0  0  0  0  0  0  0  0  0  # atno 17343 bound_to 10162
  155.9667  130.4433  150.5415 LP  0  0  0  0  0  0  0  0  0  0  0  0  # atno 17370 bound_to 10713
  157.3296  131.0697  151.1871 LP  0  0  0  0  0  0  0  0  0  0  0  0  # atno 17371 bound_to 10713
  141.1745  133.6539  156.4777 LP  0  0  0  0  0  0  0  0  0  0  0  0  # atno 17394 bound_to 11000
  140.4464  134.6969  157.5017 LP  0  0  0  0  0  0  0  0  0  0  0  0  # atno 17395 bound_to 11000

$$$$
