AV-unprocessed.smi:1464|AV-procd|sdf|5938|dock4
  -GOLD-   22720 6 23D 1   1.00000     0.00000
 Structure written by MMmdl.
 40 41  0  0  0  0  0  0  0  0  2 V2000
  151.8039  144.7215  158.0899 C   0  0  0  0  0  0  0  0  0  0  0  0
  151.0839  143.7086  159.0038 C   0  0  1  0  0  0  0  0  0  0  0  0
  150.4410  142.5670  158.1908 C   0  0  0  0  0  0  0  0  0  0  0  0
  151.4898  141.5932  157.6320 C   0  0  0  0  0  0  0  0  0  0  0  0
  152.3670  141.0219  158.7543 C   0  0  0  0  0  0  0  0  0  0  0  0
  153.0284  142.1328  159.5967 C   0  0  2  0  0  0  0  0  0  0  0  0
  153.7652  141.5256  160.7031 N   0  0  0  0  0  0  0  0  0  0  0  0
  154.7723  140.6466  160.5860 C   0  0  0  0  0  0  0  0  0  0  0  0
  155.1950  140.2479  159.4996 O   0  0  0  0  0  0  0  0  0  0  0  0
  155.3739  140.1548  161.9122 C   0  0  0  0  0  0  0  0  0  0  0  0
  154.9174  138.8213  162.3312 N   0  0  0  0  0  0  0  0  0  0  0  0
  154.3701  138.0171  161.2415 N   0  5  0  0  0  0  0  0  0  0  0  0
  153.9159  136.7637  161.5064 C   0  0  0  0  0  0  0  0  0  0  0  0
  153.4346  136.0330  160.6435 O   0  0  0  0  0  0  0  0  0  0  0  0
  154.0116  136.2757  162.8722 C   0  0  0  0  0  0  0  0  0  0  0  0
  154.5373  137.0333  163.8549 C   0  0  0  0  0  0  0  0  0  0  0  0
  155.0385  138.3813  163.6165 C   0  0  0  0  0  0  0  0  0  0  0  0
  155.5340  139.0729  164.5066 O   0  0  0  0  0  0  0  0  0  0  0  0
  151.9725  143.1316  160.1384 C   0  0  1  0  0  0  0  0  0  0  0  0
  152.5891  144.2364  161.0194 C   0  0  0  0  0  0  0  0  0  0  0  0
  152.6816  144.2916  157.6084 H   0  0  0  0  0  0  0  0  0  0  0  0
  152.1298  145.6007  158.6451 H   0  0  0  0  0  0  0  0  0  0  0  0
  151.1379  145.0742  157.3019 H   0  0  0  0  0  0  0  0  0  0  0  0
  150.2670  144.2546  159.4776 H   0  0  0  0  0  0  0  0  0  0  0  0
  149.7507  142.0158  158.8311 H   0  0  0  0  0  0  0  0  0  0  0  0
  149.8376  142.9730  157.3783 H   0  0  0  0  0  0  0  0  0  0  0  0
  150.9932  140.7795  157.1028 H   0  0  0  0  0  0  0  0  0  0  0  0
  152.1154  142.0977  156.8956 H   0  0  0  0  0  0  0  0  0  0  0  0
  151.7540  140.3894  159.3982 H   0  0  0  0  0  0  0  0  0  0  0  0
  153.1304  140.3723  158.3241 H   0  0  0  0  0  0  0  0  0  0  0  0
  153.7280  142.6831  158.9653 H   0  0  0  0  0  0  0  0  0  0  0  0
  153.4883  141.7975  161.6351 H   0  0  0  0  0  0  0  0  0  0  0  0
  156.4615  140.1666  161.8178 H   0  0  0  0  0  0  0  0  0  0  0  0
  155.1428  140.8831  162.6914 H   0  0  0  0  0  0  0  0  0  0  0  0
  153.6549  135.2829  163.1032 H   0  0  0  0  0  0  0  0  0  0  0  0
  154.5892  136.6297  164.8550 H   0  0  0  0  0  0  0  0  0  0  0  0
  151.3044  142.5644  160.7891 H   0  0  0  0  0  0  0  0  0  0  0  0
  153.3705  144.7823  160.4903 H   0  0  0  0  0  0  0  0  0  0  0  0
  153.0369  143.8239  161.9238 H   0  0  0  0  0  0  0  0  0  0  0  0
  151.8324  144.9549  161.3350 H   0  0  0  0  0  0  0  0  0  0  0  0
  1  2  1  0  0  0  0
  1 21  1  0  0  0  0
  1 22  1  0  0  0  0
  1 23  1  0  0  0  0
  2 19  1  0  0  0  0
  2  3  1  0  0  0  0
  2 24  1  0  0  0  0
  3  4  1  0  0  0  0
  3 25  1  0  0  0  0
  3 26  1  0  0  0  0
  4  5  1  0  0  0  0
  4 27  1  0  0  0  0
  4 28  1  0  0  0  0
  5  6  1  0  0  0  0
  5 29  1  0  0  0  0
  5 30  1  0  0  0  0
  6  7  1  0  0  0  0
  6 19  1  0  0  0  0
  6 31  1  0  0  0  0
  7  8  1  0  0  0  0
  7 32  1  0  0  0  0
  8  9  2  0  0  0  0
  8 10  1  0  0  0  0
 10 33  1  0  0  0  0
 10 34  1  0  0  0  0
 10 11  1  0  0  0  0
 11 12  1  0  0  0  0
 11 17  1  0  0  0  0
 12 13  1  0  0  0  0
 13 14  2  0  0  0  0
 13 15  1  0  0  0  0
 15 35  1  0  0  0  0
 15 16  2  0  0  0  0
 16 36  1  0  0  0  0
 16 17  1  0  0  0  0
 17 18  2  0  0  0  0
 19 20  1  0  0  0  0
 19 37  1  0  0  0  0
 20 38  1  0  0  0  0
 20 39  1  0  0  0  0
 20 40  1  0  0  0  0
M  CHG  1  12  -1
M  END
> <s_m_source_file>
AV-unprocessed.smi

> <i_m_source_file_index>
1464

> <i_lp_mmshare_version>
43012

> <i_f3d_flags>
0

> <s_epik_input>
W0NIM11bQ0BASF0xW0NIMl1bQ0gyXVtDSDJdW0NASF0oW0NASF0xW0NIM10pW05IXUMoPU8pW0NIMl1uMltuSF1jKD1PKVtjSF1bY0hdYzI9Tw==

> <s_epik_cmdline>
J2VwaWtfcHl0aG9uJywgJy1waCcsICc3LjAnLCAnLXRuJywgJzgnLCAnLW1hJywgJzIwMCcsICctbWV0YWxfYmluZGluZycsICctaW1hZScsICc8aW5maWxlLm1hZT4nLCAnLW9tYWUnLCAnPG91dGZpbGUubWFlPic=

> <r_lp_tautomer_probability>
1

> <r_epik_Ionization_Penalty>
0.101366

> <r_epik_Ionization_Penalty_Charging>
0.101366

> <r_epik_Ionization_Penalty_Neutral>
1.90469e-08

> <r_epik_State_Penalty>
0.035861

> <r_epik_Charging_Adjusted_Penalty>
0.137227

> <i_epik_Tot_Q>
-1

> <i_epik_Tot_abs_Q>
1

> <r_epik_Metal_State_Penalty>
0.035861

> <b_epik_Metal_Only>
0

> <s_lp_Force_Field>
OPLS_2005

> <r_lp_Energy>
30.3142

> <b_lp_Chiralities_Consistent>
1

> <s_lp_Variant>
AV-unprocessed.smi:1464-4

> <Gold.Version>
5.8.1

> <Gold.Id.Protein>
6NUR|6NUR_protein|mol2

> <Gold.PLP.Fitness>
42.9681

> <Gold.PLP.PLP>
-39.5911

> <Gold.PLP.part.hbond>
-2.0000

> <Gold.PLP.part.metal>
0.0000

> <Gold.PLP.part.buried>
-4.2242

> <Gold.PLP.part.nonpolar>
-31.7667

> <Gold.PLP.part.repulsive>
0.0410

> <Gold.PLP.ligand.clash>
0.3765

> <Gold.PLP.ligand.torsion>
0.5318

> <Gold.PLP.Chemscore.Hbond>
1.6037

> <Gold.PLP.Chemscore.CHOScore>
0.0000

> <Gold.PLP.Chemscore.Metal>
0.0000

> <Gold.Chemscore.Hbonds>
donor molecule, donor type, donor heavy atom, donor atom, acceptor molecule, acceptor atom, score
      P1  H  6896  6909       L1    14  1.00
      P1  H  7997  8008       L1     9  0.68

> <Gold.PLP.Chemscore.Internal.Correction>
0.0061

> <Gold.Rescore>
     Score         DG    S(hbond)    S(metal)    S(lipo)     H(rot)  DE(clash)    DE(int)     intcor
     17.17     -18.89       1.72        0.00     101.38       1.64       0.16       1.57       ----

> <Gold.Chemscore.Fitness>
17.1657

> <Gold.Chemscore.DG>
-18.8935

> <Gold.Chemscore.ZeroCoef>
-5.4800

> <Gold.Chemscore.Hbond>
1.7246

> <Gold.Chemscore.Metal>
0.0000

> <Gold.Chemscore.Lipo>
101.3776

> <Gold.Chemscore.Internal_Hbond>
0.0000

> <Gold.Chemscore.DEClash>
0.1573

> <Gold.Chemscore.DEInternal>
1.5705

> <Gold.Chemscore.Rot>
1.6438

> <Gold.Chemscore.Internal.Correction>
   9.000000E+99

> <Gold.Chemscore.Hbonds>
donor molecule, donor type, donor heavy atom, donor atom, acceptor molecule, acceptor atom, score
      P1  H  6896  6909       L1    14  0.98
      P1  H  7997  8008       L1     9  0.65

> <Gold.Chemscore.Hbond.Weighted>
-5.7603

> <Gold.Chemscore.Metal.Weighted>
-0.0000

> <Gold.Chemscore.Lipo.Weighted>
-11.8612

> <Gold.Chemscore.Internal_Hbond.Weighted>
0.0000

> <Gold.Chemscore.DEClash.Weighted>
0.1573

> <Gold.Chemscore.DEInternal.Weighted>
1.5705

> <Gold.Chemscore.Rot.Weighted>
4.2080

> <Gold.Chemscore.Internal.Correction.Weighted>
   9.000000E+99

> <Gold.Protein.RotatedTorsions>
[ 6907 6896 6895 6894 ] final  149.69 input  -60.11 | X-H torsion
[ 7974 7965 7964 7962 ] final  -82.36 input  175.53 | X-H torsion
[ 8008 7997 7996 7995 ] final -133.38 input   59.86 | X-H torsion
[ 10167 10162 10161 10158 ] final  136.23 input  -65.29 | X-H torsion
[ 10718 10713 10712 10709 ] final   11.94 input   66.30 | X-H torsion
[ 10763 10752 10751 10750 ] final -168.79 input  -60.55 | X-H torsion
[ 11005 11000 10999 10996 ] final -115.84 input  -57.11 | X-H torsion

> <Gold.Protein.ActiveResidues>
 VAL166  LYS551  ARG553  GLY616  TRP617  ASP618  TYR619  PRO620  LYS621  CYS622 
 ASP623  PHE694  ASN695  SER759  ASP760  ASP761  ALA762  ILE779  LEU786  VAL792 
 PHE793  MET794  SER795  GLU796  ALA797  LYS798  CYS799  TRP800  GLU811  SER814 

> <Gold.Protein.RotatedAtoms>
  152.1247  133.4373  159.4691 H   0  0  0  0  0  0  0  0  0  0  0  0  # atno 6907 bound_to 6896
  150.6874  134.2493  159.4513 H   0  0  0  0  0  0  0  0  0  0  0  0  # atno 6908 bound_to 6896
  152.0372  134.9732  160.0624 H   0  0  0  0  0  0  0  0  0  0  0  0  # atno 6909 bound_to 6896
  145.5343  140.9517  143.1586 H   0  0  0  0  0  0  0  0  0  0  0  0  # atno 7974 bound_to 7965
  155.3445  140.0474  157.3045 H   0  0  0  0  0  0  0  0  0  0  0  0  # atno 8008 bound_to 7997
  154.5260  140.2241  155.8854 H   0  0  0  0  0  0  0  0  0  0  0  0  # atno 8009 bound_to 7997
  156.1739  140.3089  155.9030 H   0  0  0  0  0  0  0  0  0  0  0  0  # atno 8010 bound_to 7997
  139.5187  144.6475  151.5397 H   0  0  0  0  0  0  0  0  0  0  0  0  # atno 10167 bound_to 10162
  157.0029  130.6086  149.5698 H   0  0  0  0  0  0  0  0  0  0  0  0  # atno 10718 bound_to 10713
  154.6592  135.2922  154.9889 H   0  0  0  0  0  0  0  0  0  0  0  0  # atno 10763 bound_to 10752
  154.0954  135.6584  153.4863 H   0  0  0  0  0  0  0  0  0  0  0  0  # atno 10764 bound_to 10752
  153.0420  135.5230  154.7535 H   0  0  0  0  0  0  0  0  0  0  0  0  # atno 10765 bound_to 10752
  141.0462  133.9759  157.2914 H   0  0  0  0  0  0  0  0  0  0  0  0  # atno 11005 bound_to 11000
  144.7610  139.6958  143.7234 LP  0  0  0  0  0  0  0  0  0  0  0  0  # atno 17320 bound_to 7965
  146.2023  139.5326  142.9735 LP  0  0  0  0  0  0  0  0  0  0  0  0  # atno 17321 bound_to 7965
  140.6266  143.9156  150.6570 LP  0  0  0  0  0  0  0  0  0  0  0  0  # atno 17342 bound_to 10162
  140.2447  143.3638  152.1457 LP  0  0  0  0  0  0  0  0  0  0  0  0  # atno 17343 bound_to 10162
  156.0164  130.5259  150.8148 LP  0  0  0  0  0  0  0  0  0  0  0  0  # atno 17370 bound_to 10713
  157.5377  131.0939  150.9870 LP  0  0  0  0  0  0  0  0  0  0  0  0  # atno 17371 bound_to 10713
  139.9313  135.0199  156.8410 LP  0  0  0  0  0  0  0  0  0  0  0  0  # atno 17394 bound_to 11000
  140.6143  134.0053  155.7590 LP  0  0  0  0  0  0  0  0  0  0  0  0  # atno 17395 bound_to 11000

$$$$
