AV-unprocessed.smi:1495|AV-procd|sdf|6053|dock8
  -GOLD-   22720 6173D 1   1.00000     0.00000
 Structure written by MMmdl.
 40 41  0  0  0  0  0  0  0  0  1 V2000
  152.1736  145.5880  159.3668 C   0  0  0  0  0  0  0  0  0  0  0  0
  151.4142  144.2585  159.2802 C   0  0  0  0  0  0  0  0  0  0  0  0
  152.3460  143.0378  159.2358 C   0  0  2  0  0  0  0  0  0  0  0  0
  151.5715  141.7115  159.3825 C   0  0  0  0  0  0  0  0  0  0  0  0
  152.5416  140.6070  159.3635 N   0  0  0  0  0  0  0  0  0  0  0  0
  152.7387  139.7186  158.3577 C   0  0  0  0  0  0  0  0  0  0  0  0
  153.6672  138.9093  158.3434 O   0  0  0  0  0  0  0  0  0  0  0  0
  151.8177  139.7630  157.3821 N   0  0  0  0  0  0  0  0  0  0  0  0
  151.8125  138.9035  156.2069 C   0  0  0  0  0  0  0  0  0  0  0  0
  151.6118  139.7347  154.9324 C   0  0  0  0  0  0  0  0  0  0  0  0
  150.1672  139.8454  154.5507 C   0  0  0  0  0  0  0  0  0  0  0  0
  149.3392  138.8240  154.1565 C   0  0  0  0  0  0  0  0  0  0  0  0
  147.7281  139.3902  153.8117 S   0  0  0  0  0  0  0  0  0  0  0  0
  148.2464  141.0205  154.2243 C   0  0  0  0  0  0  0  0  0  0  0  0
  147.3446  142.2056  154.1733 C   0  0  0  0  0  0  0  0  0  0  0  0
  149.5305  141.0898  154.5842 N   0  0  0  0  0  0  0  0  0  0  0  0
  153.4634  140.7310  160.4950 C   0  0  0  0  0  0  0  0  0  0  0  0
  154.2178  142.0648  160.3558 C   0  0  0  0  0  0  0  0  0  0  0  0
  153.2826  143.1404  160.3090 O   0  0  0  0  0  0  0  0  0  0  0  0
  151.4811  146.4297  159.3786 H   0  0  0  0  0  0  0  0  0  0  0  0
  152.8402  145.7176  158.5138 H   0  0  0  0  0  0  0  0  0  0  0  0
  152.7757  145.6415  160.2741 H   0  0  0  0  0  0  0  0  0  0  0  0
  150.7320  144.1715  160.1267 H   0  0  0  0  0  0  0  0  0  0  0  0
  150.7918  144.2708  158.3850 H   0  0  0  0  0  0  0  0  0  0  0  0
  152.8853  143.0388  158.2865 H   0  0  0  0  0  0  0  0  0  0  0  0
  151.0292  141.6949  160.3291 H   0  0  0  0  0  0  0  0  0  0  0  0
  150.8081  141.6409  158.6079 H   0  0  0  0  0  0  0  0  0  0  0  0
  151.0724  140.4393  157.4610 H   0  0  0  0  0  0  0  0  0  0  0  0
  152.7560  138.3575  156.1511 H   0  0  0  0  0  0  0  0  0  0  0  0
  151.0157  138.1642  156.3060 H   0  0  0  0  0  0  0  0  0  0  0  0
  152.0330  140.7307  155.0767 H   0  0  0  0  0  0  0  0  0  0  0  0
  152.1775  139.2871  154.1140 H   0  0  0  0  0  0  0  0  0  0  0  0
  149.5782  137.7762  154.0503 H   0  0  0  0  0  0  0  0  0  0  0  0
  147.4792  142.8209  155.0634 H   0  0  0  0  0  0  0  0  0  0  0  0
  146.3031  141.8875  154.1240 H   0  0  0  0  0  0  0  0  0  0  0  0
  147.5694  142.8071  153.2924 H   0  0  0  0  0  0  0  0  0  0  0  0
  152.8988  140.7130  161.4283 H   0  0  0  0  0  0  0  0  0  0  0  0
  154.1730  139.9049  160.5571 H   0  0  0  0  0  0  0  0  0  0  0  0
  154.8845  142.2129  161.2053 H   0  0  0  0  0  0  0  0  0  0  0  0
  154.8371  142.0699  159.4573 H   0  0  0  0  0  0  0  0  0  0  0  0
  1  2  1  0  0  0  0
  1 20  1  0  0  0  0
  1 21  1  0  0  0  0
  1 22  1  0  0  0  0
  2  3  1  0  0  0  0
  2 23  1  0  0  0  0
  2 24  1  0  0  0  0
  3 19  1  0  0  0  0
  3  4  1  0  0  0  0
  3 25  1  0  0  0  0
  4  5  1  0  0  0  0
  4 26  1  0  0  0  0
  4 27  1  0  0  0  0
  5  6  1  0  0  0  0
  5 17  1  0  0  0  0
  6  7  2  0  0  0  0
  6  8  1  0  0  0  0
  8  9  1  0  0  0  0
  8 28  1  0  0  0  0
  9 10  1  0  0  0  0
  9 29  1  0  0  0  0
  9 30  1  0  0  0  0
 10 11  1  0  0  0  0
 10 31  1  0  0  0  0
 10 32  1  0  0  0  0
 11 16  1  0  0  0  0
 11 12  2  0  0  0  0
 12 13  1  0  0  0  0
 12 33  1  0  0  0  0
 13 14  1  0  0  0  0
 14 15  1  0  0  0  0
 14 16  2  0  0  0  0
 15 34  1  0  0  0  0
 15 35  1  0  0  0  0
 15 36  1  0  0  0  0
 17 18  1  0  0  0  0
 17 37  1  0  0  0  0
 17 38  1  0  0  0  0
 18 19  1  0  0  0  0
 18 39  1  0  0  0  0
 18 40  1  0  0  0  0
M  END
> <s_m_source_file>
AV-unprocessed.smi

> <i_m_source_file_index>
1495

> <i_lp_mmshare_version>
43012

> <i_f3d_flags>
0

> <s_epik_input>
W0NIM11bQ0gyXVtDQEBIXTFbQ0gyXU4oW0NIMl1bQ0gyXU8xKUMoPU8pW05IXVtDSDJdW0NIMl1jMltjSF1zYyhuMilbQ0gzXQ==

> <s_epik_cmdline>
J2VwaWtfcHl0aG9uJywgJy1waCcsICc3LjAnLCAnLXRuJywgJzgnLCAnLW1hJywgJzIwMCcsICctbWV0YWxfYmluZGluZycsICctaW1hZScsICc8aW5maWxlLm1hZT4nLCAnLW9tYWUnLCAnPG91dGZpbGUubWFlPic=

> <r_epik_Ionization_Penalty>
0.00206013

> <r_epik_Ionization_Penalty_Charging>
0

> <r_epik_Ionization_Penalty_Neutral>
0.00206013

> <r_epik_State_Penalty>
0.00138662

> <r_epik_Charging_Adjusted_Penalty>
0.00138662

> <i_epik_Tot_Q>
0

> <i_epik_Tot_abs_Q>
0

> <r_epik_Metal_State_Penalty>
-0

> <b_epik_Metal_Only>
0

> <s_lp_Force_Field>
OPLS_2005

> <r_lp_Energy>
21.6891

> <b_lp_Chiralities_Consistent>
1

> <s_lp_Variant>
AV-unprocessed.smi:1495-1

> <Gold.Version>
5.8.1

> <Gold.Id.Protein>
6NUR|6NUR_protein|mol2

> <Gold.PLP.Fitness>
43.1902

> <Gold.PLP.PLP>
-38.8380

> <Gold.PLP.part.hbond>
-1.5924

> <Gold.PLP.part.metal>
0.0000

> <Gold.PLP.part.buried>
0.0521

> <Gold.PLP.part.nonpolar>
-36.3949

> <Gold.PLP.part.repulsive>
0.2204

> <Gold.PLP.ligand.clash>
0.0000

> <Gold.PLP.ligand.torsion>
0.3640

> <Gold.PLP.Chemscore.Hbond>
0.7000

> <Gold.PLP.Chemscore.CHOScore>
0.9757

> <Gold.PLP.Chemscore.Metal>
0.0000

> <Gold.Chemscore.Hbonds>
donor molecule, donor type, donor heavy atom, donor atom, acceptor molecule, acceptor atom, score
      P1  H  7997  8009       L1     7  0.65
      L1  C    12    33       P1  7948  0.47

> <Gold.PLP.Chemscore.Internal.Correction>
0.0533

> <Gold.Rescore>
     Score         DG    S(hbond)    S(metal)    S(lipo)     H(rot)  DE(clash)    DE(int)     intcor
     14.42     -14.75       0.00        0.00     110.32       1.42       0.03       0.30       ----

> <Gold.Chemscore.Fitness>
14.4225

> <Gold.Chemscore.DG>
-14.7503

> <Gold.Chemscore.ZeroCoef>
-5.4800

> <Gold.Chemscore.Hbond>
0.0006

> <Gold.Chemscore.Metal>
0.0000

> <Gold.Chemscore.Lipo>
110.3173

> <Gold.Chemscore.Internal_Hbond>
0.0000

> <Gold.Chemscore.DEClash>
0.0251

> <Gold.Chemscore.DEInternal>
0.3027

> <Gold.Chemscore.Rot>
1.4214

> <Gold.Chemscore.Internal.Correction>
   9.000000E+99

> <Gold.Chemscore.Hbonds>
donor molecule, donor type, donor heavy atom, donor atom, acceptor molecule, acceptor atom, score
      P1  H  7997  8009       L1     7  0.06

> <Gold.Chemscore.Hbond.Weighted>
-0.0020

> <Gold.Chemscore.Metal.Weighted>
-0.0000

> <Gold.Chemscore.Lipo.Weighted>
-12.9071

> <Gold.Chemscore.Internal_Hbond.Weighted>
0.0000

> <Gold.Chemscore.DEClash.Weighted>
0.0251

> <Gold.Chemscore.DEInternal.Weighted>
0.3027

> <Gold.Chemscore.Rot.Weighted>
3.6388

> <Gold.Chemscore.Internal.Correction.Weighted>
   9.000000E+99

> <Gold.Protein.RotatedTorsions>
[ 6907 6896 6895 6894 ] final  -81.91 input  -60.11 | X-H torsion
[ 7974 7965 7964 7962 ] final  135.31 input  175.53 | X-H torsion
[ 8008 7997 7996 7995 ] final  143.43 input   59.86 | X-H torsion
[ 10167 10162 10161 10158 ] final  140.73 input  -65.29 | X-H torsion
[ 10718 10713 10712 10709 ] final -104.49 input   66.30 | X-H torsion
[ 10763 10752 10751 10750 ] final  145.93 input  -60.55 | X-H torsion
[ 11005 11000 10999 10996 ] final -152.31 input  -57.11 | X-H torsion

> <Gold.Protein.ActiveResidues>
 VAL166  LYS551  ARG553  GLY616  TRP617  ASP618  TYR619  PRO620  LYS621  CYS622 
 ASP623  PHE694  ASN695  SER759  ASP760  ASP761  ALA762  ILE779  LEU786  VAL792 
 PHE793  MET794  SER795  GLU796  ALA797  LYS798  CYS799  TRP800  GLU811  SER814 

> <Gold.Protein.RotatedAtoms>
  150.6905  134.3745  159.5006 H   0  0  0  0  0  0  0  0  0  0  0  0  # atno 6907 bound_to 6896
  152.1556  134.8950  160.0554 H   0  0  0  0  0  0  0  0  0  0  0  0  # atno 6908 bound_to 6896
  152.0031  133.3798  159.4227 H   0  0  0  0  0  0  0  0  0  0  0  0  # atno 6909 bound_to 6896
  144.9676  139.4640  143.5448 H   0  0  0  0  0  0  0  0  0  0  0  0  # atno 7974 bound_to 7965
  156.2930  140.2262  156.4889 H   0  0  0  0  0  0  0  0  0  0  0  0  # atno 8008 bound_to 7997
  154.7788  140.0461  157.1132 H   0  0  0  0  0  0  0  0  0  0  0  0  # atno 8009 bound_to 7997
  154.9783  140.3075  155.4960 H   0  0  0  0  0  0  0  0  0  0  0  0  # atno 8010 bound_to 7997
  139.5040  144.6216  151.6038 H   0  0  0  0  0  0  0  0  0  0  0  0  # atno 10167 bound_to 10162
  156.0307  130.5518  150.7405 H   0  0  0  0  0  0  0  0  0  0  0  0  # atno 10718 bound_to 10713
  154.0135  135.2912  155.3389 H   0  0  0  0  0  0  0  0  0  0  0  0  # atno 10763 bound_to 10752
  154.7089  135.5158  153.8639 H   0  0  0  0  0  0  0  0  0  0  0  0  # atno 10764 bound_to 10752
  153.0712  135.6648  154.0364 H   0  0  0  0  0  0  0  0  0  0  0  0  # atno 10765 bound_to 10752
  140.7202  134.3735  157.5184 H   0  0  0  0  0  0  0  0  0  0  0  0  # atno 11005 bound_to 11000
  146.3372  139.8868  142.8815 LP  0  0  0  0  0  0  0  0  0  0  0  0  # atno 17320 bound_to 7965
  145.2606  141.0075  143.3829 LP  0  0  0  0  0  0  0  0  0  0  0  0  # atno 17321 bound_to 7965
  140.5919  143.9764  150.6330 LP  0  0  0  0  0  0  0  0  0  0  0  0  # atno 17342 bound_to 10162
  140.2947  143.3300  152.1029 LP  0  0  0  0  0  0  0  0  0  0  0  0  # atno 17343 bound_to 10162
  157.4975  131.0916  151.0354 LP  0  0  0  0  0  0  0  0  0  0  0  0  # atno 17370 bound_to 10713
  157.0744  130.5877  149.5408 LP  0  0  0  0  0  0  0  0  0  0  0  0  # atno 17371 bound_to 10713
  139.8850  134.8950  156.2670 LP  0  0  0  0  0  0  0  0  0  0  0  0  # atno 17394 bound_to 11000
  141.0010  133.7152  156.0960 LP  0  0  0  0  0  0  0  0  0  0  0  0  # atno 17395 bound_to 11000

$$$$
