AV-unprocessed.smi:1705|AV-procd|sdf|6885|dock4
  -GOLD-   22720 8 93D 1   1.00000     0.00000
 Structure written by MMmdl.
 38 39  0  0  0  0  0  0  0  0  1 V2000
  152.6967  138.9077  154.7003 C   0  0  0  0  0  0  0  0  0  0  0  0
  151.5142  138.9120  155.6813 C   0  0  1  0  0  0  0  0  0  0  0  0
  151.6695  140.0014  156.6337 N   0  0  0  0  0  0  0  0  0  0  0  0
  152.3885  139.9669  157.8245 C   0  0  0  0  0  0  0  0  0  0  0  0
  153.0525  138.8487  158.2322 C   0  0  0  0  0  0  0  0  0  0  0  0
  153.1117  137.6407  157.4709 C   0  0  0  0  0  0  0  0  0  0  0  0
  153.1276  136.6589  156.8569 N   0  0  0  0  0  0  0  0  0  0  0  0
  153.7987  138.8057  159.4880 C   0  0  0  0  0  0  0  0  0  0  0  0
  154.4067  137.8115  159.8923 O   0  0  0  0  0  0  0  0  0  0  0  0
  153.7751  140.0025  160.2318 N   0  0  0  0  0  0  0  0  0  0  0  0
  154.4927  139.9907  161.4914 C   0  0  0  0  0  0  0  0  0  0  0  0
  153.0938  141.1720  159.8356 C   0  0  0  0  0  0  0  0  0  0  0  0
  153.0869  142.1885  160.5365 O   0  0  0  0  0  0  0  0  0  0  0  0
  152.4082  141.1326  158.5963 N   0  0  0  0  0  0  0  0  0  0  0  0
  151.7215  142.3609  158.2489 C   0  0  0  0  0  0  0  0  0  0  0  0
  150.1596  139.0494  154.9620 C   0  0  1  0  0  0  0  0  0  0  0  0
  148.9357  138.9646  155.8729 C   0  0  0  0  0  0  0  0  0  0  0  0
  147.8632  139.6957  155.0835 C   0  0  0  0  0  0  0  0  0  0  0  0
  148.6543  140.5572  154.0949 C   0  0  0  0  0  0  0  0  0  0  0  0
  150.0220  140.3569  154.4256 O   0  0  0  0  0  0  0  0  0  0  0  0
  152.6516  138.0520  154.0265 H   0  0  0  0  0  0  0  0  0  0  0  0
  153.6491  138.8547  155.2272 H   0  0  0  0  0  0  0  0  0  0  0  0
  152.7078  139.8121  154.0913 H   0  0  0  0  0  0  0  0  0  0  0  0
  151.5069  137.9650  156.2202 H   0  0  0  0  0  0  0  0  0  0  0  0
  150.8454  140.5839  156.6724 H   0  0  0  0  0  0  0  0  0  0  0  0
  154.5085  140.9769  161.9534 H   0  0  0  0  0  0  0  0  0  0  0  0
  155.5177  139.6785  161.2828 H   0  0  0  0  0  0  0  0  0  0  0  0
  153.9840  139.2778  162.1425 H   0  0  0  0  0  0  0  0  0  0  0  0
  150.9169  142.4966  158.9736 H   0  0  0  0  0  0  0  0  0  0  0  0
  151.3128  142.3028  157.2429 H   0  0  0  0  0  0  0  0  0  0  0  0
  152.4478  143.1748  158.2892 H   0  0  0  0  0  0  0  0  0  0  0  0
  150.0747  138.3208  154.1531 H   0  0  0  0  0  0  0  0  0  0  0  0
  148.6564  137.9388  156.1148 H   0  0  0  0  0  0  0  0  0  0  0  0
  149.1264  139.4932  156.8079 H   0  0  0  0  0  0  0  0  0  0  0  0
  147.2266  138.9921  154.5458 H   0  0  0  0  0  0  0  0  0  0  0  0
  147.2267  140.2948  155.7355 H   0  0  0  0  0  0  0  0  0  0  0  0
  148.4775  140.2277  153.0704 H   0  0  0  0  0  0  0  0  0  0  0  0
  148.3940  141.6136  154.1623 H   0  0  0  0  0  0  0  0  0  0  0  0
  1  2  1  0  0  0  0
  1 21  1  0  0  0  0
  1 22  1  0  0  0  0
  1 23  1  0  0  0  0
  2  3  1  0  0  0  0
  2 16  1  0  0  0  0
  2 24  1  0  0  0  0
  3  4  1  0  0  0  0
  3 25  1  0  0  0  0
  4 14  1  0  0  0  0
  4  5  2  0  0  0  0
  5  6  1  0  0  0  0
  5  8  1  0  0  0  0
  6  7  3  0  0  0  0
  8  9  2  0  0  0  0
  8 10  1  0  0  0  0
 10 11  1  0  0  0  0
 10 12  1  0  0  0  0
 11 26  1  0  0  0  0
 11 27  1  0  0  0  0
 11 28  1  0  0  0  0
 12 13  2  0  0  0  0
 12 14  1  0  0  0  0
 14 15  1  0  0  0  0
 15 29  1  0  0  0  0
 15 30  1  0  0  0  0
 15 31  1  0  0  0  0
 16 20  1  0  0  0  0
 16 17  1  0  0  0  0
 16 32  1  0  0  0  0
 17 18  1  0  0  0  0
 17 33  1  0  0  0  0
 17 34  1  0  0  0  0
 18 19  1  0  0  0  0
 18 35  1  0  0  0  0
 18 36  1  0  0  0  0
 19 20  1  0  0  0  0
 19 37  1  0  0  0  0
 19 38  1  0  0  0  0
M  END
> <s_m_source_file>
AV-unprocessed.smi

> <i_m_source_file_index>
1705

> <i_lp_mmshare_version>
43012

> <i_f3d_flags>
0

> <s_epik_input>
TzFbQ0gyXVtDSDJdW0NIMl1bQ0BIXTFbQ0BIXShbQ0gzXSlbTkhdYzJjKEMjTiljKD1PKW4oW0NIM10pYyg9TyluMltDSDNd

> <s_epik_cmdline>
J2VwaWtfcHl0aG9uJywgJy1waCcsICc3LjAnLCAnLXRuJywgJzgnLCAnLW1hJywgJzIwMCcsICctbWV0YWxfYmluZGluZycsICctaW1hZScsICc8aW5maWxlLm1hZT4nLCAnLW9tYWUnLCAnPG91dGZpbGUubWFlPic=

> <r_epik_Ionization_Penalty>
0.000446268

> <r_epik_Ionization_Penalty_Charging>
9.41922e-10

> <r_epik_Ionization_Penalty_Neutral>
0.000446267

> <r_epik_State_Penalty>
0.000275531

> <r_epik_Charging_Adjusted_Penalty>
0.000275532

> <i_epik_Tot_Q>
0

> <i_epik_Tot_abs_Q>
0

> <r_epik_Metal_State_Penalty>
-0

> <b_epik_Metal_Only>
0

> <s_lp_Force_Field>
OPLS_2005

> <r_lp_Energy>
37.8394

> <b_lp_Chiralities_Consistent>
1

> <s_lp_Variant>
AV-unprocessed.smi:1705-4

> <Gold.Version>
5.8.1

> <Gold.Id.Protein>
6NUR|6NUR_protein|mol2

> <Gold.PLP.Fitness>
34.4032

> <Gold.PLP.PLP>
-29.3229

> <Gold.PLP.part.hbond>
-2.0000

> <Gold.PLP.part.metal>
0.0000

> <Gold.PLP.part.buried>
-3.2630

> <Gold.PLP.part.nonpolar>
-23.5503

> <Gold.PLP.part.repulsive>
0.2300

> <Gold.PLP.ligand.clash>
9.0509

> <Gold.PLP.ligand.torsion>
0.4144

> <Gold.PLP.Chemscore.Hbond>
1.9600

> <Gold.PLP.Chemscore.CHOScore>
0.0000

> <Gold.PLP.Chemscore.Metal>
0.0000

> <Gold.Chemscore.Hbonds>
donor molecule, donor type, donor heavy atom, donor atom, acceptor molecule, acceptor atom, score
      P1  H  7989  7998       L1    20  0.93
      P1  H 10752 10764       L1     7  1.00

> <Gold.PLP.Chemscore.Internal.Correction>
9.0800

> <Gold.Rescore>
     Score         DG    S(hbond)    S(metal)    S(lipo)     H(rot)  DE(clash)    DE(int)     intcor
     11.95     -14.86       1.82        0.00      56.01       1.28       0.01       2.89       ----

> <Gold.Chemscore.Fitness>
11.9550

> <Gold.Chemscore.DG>
-14.8557

> <Gold.Chemscore.ZeroCoef>
-5.4800

> <Gold.Chemscore.Hbond>
1.8248

> <Gold.Chemscore.Metal>
0.0000

> <Gold.Chemscore.Lipo>
56.0054

> <Gold.Chemscore.Internal_Hbond>
0.0000

> <Gold.Chemscore.DEClash>
0.0126

> <Gold.Chemscore.DEInternal>
2.8882

> <Gold.Chemscore.Rot>
1.2780

> <Gold.Chemscore.Internal.Correction>
   9.000000E+99

> <Gold.Chemscore.Hbonds>
donor molecule, donor type, donor heavy atom, donor atom, acceptor molecule, acceptor atom, score
      P1  H  7989  7998       L1    20  0.70
      P1  H 10752 10764       L1     7  0.90

> <Gold.Chemscore.Hbond.Weighted>
-6.0947

> <Gold.Chemscore.Metal.Weighted>
-0.0000

> <Gold.Chemscore.Lipo.Weighted>
-6.5526

> <Gold.Chemscore.Internal_Hbond.Weighted>
0.0000

> <Gold.Chemscore.DEClash.Weighted>
0.0126

> <Gold.Chemscore.DEInternal.Weighted>
2.8882

> <Gold.Chemscore.Rot.Weighted>
3.2717

> <Gold.Chemscore.Internal.Correction.Weighted>
   9.000000E+99

> <Gold.Protein.RotatedTorsions>
[ 6907 6896 6895 6894 ] final -140.43 input  -60.11 | X-H torsion
[ 7974 7965 7964 7962 ] final   44.81 input  175.53 | X-H torsion
[ 8008 7997 7996 7995 ] final   74.75 input   59.86 | X-H torsion
[ 10167 10162 10161 10158 ] final  -29.91 input  -65.29 | X-H torsion
[ 10718 10713 10712 10709 ] final -134.71 input   66.30 | X-H torsion
[ 10763 10752 10751 10750 ] final   -0.69 input  -60.55 | X-H torsion
[ 11005 11000 10999 10996 ] final -114.80 input  -57.11 | X-H torsion

> <Gold.Protein.ActiveResidues>
 VAL166  LYS551  ARG553  GLY616  TRP617  ASP618  TYR619  PRO620  LYS621  CYS622 
 ASP623  PHE694  ASN695  SER759  ASP760  ASP761  ALA762  ILE779  LEU786  VAL792 
 PHE793  MET794  SER795  GLU796  ALA797  LYS798  CYS799  TRP800  GLU811  SER814 

> <Gold.Protein.RotatedAtoms>
  151.0606  133.5547  159.2634 H   0  0  0  0  0  0  0  0  0  0  0  0  # atno 6907 bound_to 6896
  151.2524  135.0626  159.9076 H   0  0  0  0  0  0  0  0  0  0  0  0  # atno 6908 bound_to 6896
  152.5397  134.0365  159.8102 H   0  0  0  0  0  0  0  0  0  0  0  0  # atno 6909 bound_to 6896
  146.0536  139.5033  142.9703 H   0  0  0  0  0  0  0  0  0  0  0  0  # atno 7974 bound_to 7965
  155.8029  140.3476  155.5413 H   0  0  0  0  0  0  0  0  0  0  0  0  # atno 8008 bound_to 7997
  155.8519  140.0957  157.1689 H   0  0  0  0  0  0  0  0  0  0  0  0  # atno 8009 bound_to 7997
  154.4008  140.1375  156.3842 H   0  0  0  0  0  0  0  0  0  0  0  0  # atno 8010 bound_to 7997
  140.7255  143.3891  151.1462 H   0  0  0  0  0  0  0  0  0  0  0  0  # atno 10167 bound_to 10162
  156.2583  130.7194  151.1119 H   0  0  0  0  0  0  0  0  0  0  0  0  # atno 10718 bound_to 10713
  153.3352  135.6977  153.6914 H   0  0  0  0  0  0  0  0  0  0  0  0  # atno 10763 bound_to 10752
  153.5700  135.3518  155.2834 H   0  0  0  0  0  0  0  0  0  0  0  0  # atno 10764 bound_to 10752
  154.8626  135.4270  154.2551 H   0  0  0  0  0  0  0  0  0  0  0  0  # atno 10765 bound_to 10752
  141.0528  133.9659  157.2806 H   0  0  0  0  0  0  0  0  0  0  0  0  # atno 11005 bound_to 11000
  145.6683  141.0223  143.1671 LP  0  0  0  0  0  0  0  0  0  0  0  0  # atno 17320 bound_to 7965
  144.7135  139.8280  143.7406 LP  0  0  0  0  0  0  0  0  0  0  0  0  # atno 17321 bound_to 7965
  139.7493  143.8804  152.3072 LP  0  0  0  0  0  0  0  0  0  0  0  0  # atno 17342 bound_to 10162
  139.8652  144.7097  150.9053 LP  0  0  0  0  0  0  0  0  0  0  0  0  # atno 17343 bound_to 10162
  157.7241  131.0662  150.6009 LP  0  0  0  0  0  0  0  0  0  0  0  0  # atno 17370 bound_to 10713
  156.6095  130.4376  149.5865 LP  0  0  0  0  0  0  0  0  0  0  0  0  # atno 17371 bound_to 10713
  139.9365  135.0196  156.8572 LP  0  0  0  0  0  0  0  0  0  0  0  0  # atno 17394 bound_to 11000
  140.6022  134.0161  155.7542 LP  0  0  0  0  0  0  0  0  0  0  0  0  # atno 17395 bound_to 11000

$$$$
