AV-unprocessed.smi:34|AV-procd|sdf|219|dock7
  -GOLD-   2262015533D 1   1.00000     0.00000
 Structure written by MMmdl.
 55 59  0  0  0  0  0  0  0  0  1 V2000
  153.1611  140.0165  158.6867 O   0  0  0  0  0  0  0  0  0  0  0  0
  152.5024  140.8793  158.1051 C   0  0  0  0  0  0  0  0  0  0  0  0
  151.8046  140.6101  156.8599 N   0  0  0  0  0  0  0  0  0  0  0  0
  151.8265  139.4772  156.1189 C   0  0  0  0  0  0  0  0  0  0  0  0
  152.3666  139.4322  154.8722 N   0  0  0  0  0  0  0  0  0  0  0  0
  152.3593  138.2923  154.1748 C   0  0  0  0  0  0  0  0  0  0  0  0
  151.8713  137.1012  154.5285 N   0  0  0  0  0  0  0  0  0  0  0  0
  151.3267  137.1402  155.7785 C   0  0  0  0  0  0  0  0  0  0  0  0
  151.2620  138.2786  156.6282 C   0  0  0  0  0  0  0  0  0  0  0  0
  150.6288  137.9394  157.8169 N   0  0  0  0  0  0  0  0  0  0  0  0
  150.3382  136.6737  157.6722 C   0  0  0  0  0  0  0  0  0  0  0  0
  150.7378  136.1096  156.4779 N   0  0  0  0  0  0  0  0  0  0  0  0
  150.5626  134.7099  155.9731 C   0  0  2  0  0  0  0  0  0  0  0  0
  149.7848  134.7508  154.8135 O   0  0  0  0  0  0  0  0  0  0  0  0
  148.4257  134.5253  155.1609 C   0  0  1  0  0  0  0  0  0  0  0  0
  147.6209  134.1105  153.9242 C   0  0  0  0  0  0  0  0  0  0  0  0
  148.0369  132.8214  153.5043 O   0  0  0  0  0  0  0  0  0  0  0  0
  147.2646  132.1014  152.6683 C   0  0  0  0  0  0  0  0  0  0  0  0
  146.3546  132.5862  151.9926 O   0  0  0  0  0  0  0  0  0  0  0  0
  147.6241  130.6539  152.6485 C   0  0  0  0  0  0  0  0  0  0  0  0
  146.8164  129.7490  151.9210 C   0  0  0  0  0  0  0  0  0  0  0  0
  147.1296  128.3763  151.8858 C   0  0  0  0  0  0  0  0  0  0  0  0
  148.2549  127.8915  152.5773 C   0  0  0  0  0  0  0  0  0  0  0  0
  149.0675  128.7816  153.3033 C   0  0  0  0  0  0  0  0  0  0  0  0
  148.7556  130.1549  153.3401 C   0  0  0  0  0  0  0  0  0  0  0  0
  148.5468  133.4436  156.2302 C   0  0  2  0  0  0  0  0  0  0  0  0
  147.4686  133.3960  157.0135 F   0  0  0  0  0  0  0  0  0  0  0  0
  149.7843  133.8706  157.0072 C   0  0  1  0  0  0  0  0  0  0  0  0
  150.5120  132.7404  157.4414 O   0  0  0  0  0  0  0  0  0  0  0  0
  152.3016  142.2461  158.6923 C   0  0  0  0  0  0  0  0  0  0  0  0
  152.5400  142.4658  160.0676 C   0  0  0  0  0  0  0  0  0  0  0  0
  152.3735  143.7488  160.6243 C   0  0  0  0  0  0  0  0  0  0  0  0
  151.9743  144.8246  159.8091 C   0  0  0  0  0  0  0  0  0  0  0  0
  151.7455  144.6174  158.4358 C   0  0  0  0  0  0  0  0  0  0  0  0
  151.9120  143.3346  157.8777 C   0  0  0  0  0  0  0  0  0  0  0  0
  151.2430  141.3660  156.4959 H   0  0  0  0  0  0  0  0  0  0  0  0
  152.8090  138.3428  153.1941 H   0  0  0  0  0  0  0  0  0  0  0  0
  149.8219  136.1199  158.4427 H   0  0  0  0  0  0  0  0  0  0  0  0
  151.5757  134.3635  155.7648 H   0  0  0  0  0  0  0  0  0  0  0  0
  148.0151  135.4406  155.5908 H   0  0  0  0  0  0  0  0  0  0  0  0
  146.5580  134.0832  154.1683 H   0  0  0  0  0  0  0  0  0  0  0  0
  147.7543  134.8344  153.1192 H   0  0  0  0  0  0  0  0  0  0  0  0
  145.9471  130.0974  151.3821 H   0  0  0  0  0  0  0  0  0  0  0  0
  146.5054  127.6949  151.3267 H   0  0  0  0  0  0  0  0  0  0  0  0
  148.4946  126.8388  152.5508 H   0  0  0  0  0  0  0  0  0  0  0  0
  149.9321  128.4110  153.8334 H   0  0  0  0  0  0  0  0  0  0  0  0
  149.4008  130.8108  153.9062 H   0  0  0  0  0  0  0  0  0  0  0  0
  148.6813  132.4627  155.7710 H   0  0  0  0  0  0  0  0  0  0  0  0
  149.5080  134.4877  157.8638 H   0  0  0  0  0  0  0  0  0  0  0  0
  151.2073  132.5773  156.8219 H   0  0  0  0  0  0  0  0  0  0  0  0
  152.8486  141.6507  160.7065 H   0  0  0  0  0  0  0  0  0  0  0  0
  152.5542  143.9074  161.6773 H   0  0  0  0  0  0  0  0  0  0  0  0
  151.8479  145.8086  160.2360 H   0  0  0  0  0  0  0  0  0  0  0  0
  151.4454  145.4440  157.8087 H   0  0  0  0  0  0  0  0  0  0  0  0
  151.7415  143.2002  156.8194 H   0  0  0  0  0  0  0  0  0  0  0  0
  1  2  2  0  0  0  0
  2  3  1  0  0  0  0
  2 30  1  0  0  0  0
  3  4  1  0  0  0  0
  3 36  1  0  0  0  0
  4  9  1  0  0  0  0
  4  5  2  0  0  0  0
  5  6  1  0  0  0  0
  6  7  2  0  0  0  0
  6 37  1  0  0  0  0
  7  8  1  0  0  0  0
  8 12  1  0  0  0  0
  8  9  2  0  0  0  0
  9 10  1  0  0  0  0
 10 11  2  0  0  0  0
 11 12  1  0  0  0  0
 11 38  1  0  0  0  0
 12 13  1  0  0  0  0
 13 28  1  0  0  0  0
 13 14  1  0  0  0  0
 13 39  1  0  0  0  0
 14 15  1  0  0  0  0
 15 16  1  0  0  0  0
 15 26  1  0  0  0  0
 15 40  1  0  0  0  0
 16 17  1  0  0  0  0
 16 41  1  0  0  0  0
 16 42  1  0  0  0  0
 17 18  1  0  0  0  0
 18 19  2  0  0  0  0
 18 20  1  0  0  0  0
 20 25  1  0  0  0  0
 20 21  2  0  0  0  0
 21 22  1  0  0  0  0
 21 43  1  0  0  0  0
 22 23  2  0  0  0  0
 22 44  1  0  0  0  0
 23 24  1  0  0  0  0
 23 45  1  0  0  0  0
 24 25  2  0  0  0  0
 24 46  1  0  0  0  0
 25 47  1  0  0  0  0
 26 27  1  0  0  0  0
 26 28  1  0  0  0  0
 26 48  1  0  0  0  0
 28 29  1  0  0  0  0
 28 49  1  0  0  0  0
 29 50  1  0  0  0  0
 30 35  1  0  0  0  0
 30 31  2  0  0  0  0
 31 32  1  0  0  0  0
 31 51  1  0  0  0  0
 32 33  2  0  0  0  0
 32 52  1  0  0  0  0
 33 34  1  0  0  0  0
 33 53  1  0  0  0  0
 34 35  2  0  0  0  0
 34 54  1  0  0  0  0
 35 55  1  0  0  0  0
M  END
> <s_m_source_file>
AV-unprocessed.smi

> <i_m_source_file_index>
34

> <i_lp_mmshare_version>
43012

> <i_f3d_flags>
0

> <s_epik_input>
W2NIXTFbY0hdW2NIXVtjSF1bY0hdYzFDKD1PKVtOSF1jKG5bY0hdbjIpYyhjMjMpbltjSF1uM1tDQEBIXTRPW0NASF0oW0NAQEhdKEYpW0NASF00W09IXSlbQ0gyXU9DKD1PKWM1W2NIXVtjSF1bY0hdW2NIXVtjSF01

> <s_epik_cmdline>
J2VwaWtfcHl0aG9uJywgJy1waCcsICc3LjAnLCAnLXRuJywgJzgnLCAnLW1hJywgJzIwMCcsICctbWV0YWxfYmluZGluZycsICctaW1hZScsICc8aW5maWxlLm1hZT4nLCAnLW9tYWUnLCAnPG91dGZpbGUubWFlPic=

> <r_lp_tautomer_probability>
1

> <r_epik_Ionization_Penalty>
0.00257489

> <r_epik_Ionization_Penalty_Charging>
0

> <r_epik_Ionization_Penalty_Neutral>
0.00257489

> <r_epik_State_Penalty>
0.00519398

> <r_epik_Charging_Adjusted_Penalty>
0.00519398

> <i_epik_Tot_Q>
0

> <i_epik_Tot_abs_Q>
0

> <r_epik_Metal_State_Penalty>
0.335891

> <b_epik_Metal_Only>
0

> <s_epik_Chemistry_Notes>
This compound has an ester and may undergo hydrolysis at high or low pH. This compound contains an acetal/aminal-like group ( X-CH(R)-Y where X, Y are N, S, or O) that may be acid/base labile, releasing an aldehyde.

> <s_lp_Force_Field>
OPLS_2005

> <r_lp_Energy>
42.7442

> <b_lp_Chiralities_Consistent>
1

> <s_lp_Variant>
AV-unprocessed.smi:34-5

> <Gold.Version>
5.8.1

> <Gold.Id.Protein>
6NUR|6NUR_protein|mol2

> <Gold.PLP.Fitness>
61.8718

> <Gold.PLP.PLP>
-52.4693

> <Gold.PLP.part.hbond>
-4.0000

> <Gold.PLP.part.metal>
0.0000

> <Gold.PLP.part.buried>
-7.9669

> <Gold.PLP.part.nonpolar>
-39.7857

> <Gold.PLP.part.repulsive>
0.6879

> <Gold.PLP.ligand.clash>
0.0000

> <Gold.PLP.ligand.torsion>
1.2022

> <Gold.PLP.Chemscore.Hbond>
3.8377

> <Gold.PLP.Chemscore.CHOScore>
0.0000

> <Gold.PLP.Chemscore.Metal>
0.0000

> <Gold.Chemscore.Hbonds>
donor molecule, donor type, donor heavy atom, donor atom, acceptor molecule, acceptor atom, score
      P1  H  6896  6909       L1    29  0.92
      P1  H  7989  7998       L1     5  0.61
      P1  H  7997  8009       L1     1  0.35
      P1  H 10752 10763       L1     7  1.00

> <Gold.PLP.Chemscore.Internal.Correction>
0.2939

> <Gold.Rescore>
     Score         DG    S(hbond)    S(metal)    S(lipo)     H(rot)  DE(clash)    DE(int)     intcor
     16.65     -18.15       1.56        0.00     123.25       2.72       0.27       1.24       ----

> <Gold.Chemscore.Fitness>
16.6486

> <Gold.Chemscore.DG>
-18.1542

> <Gold.Chemscore.ZeroCoef>
-5.4800

> <Gold.Chemscore.Hbond>
1.5633

> <Gold.Chemscore.Metal>
0.0000

> <Gold.Chemscore.Lipo>
123.2461

> <Gold.Chemscore.Internal_Hbond>
0.0000

> <Gold.Chemscore.DEClash>
0.2700

> <Gold.Chemscore.DEInternal>
1.2356

> <Gold.Chemscore.Rot>
2.7215

> <Gold.Chemscore.Internal.Correction>
   9.000000E+99

> <Gold.Chemscore.Hbonds>
donor molecule, donor type, donor heavy atom, donor atom, acceptor molecule, acceptor atom, score
      P1  H  6896  6909       L1    29  0.24
      P1  H  7989  7998       L1     5  0.26
      P1  H  7997  8009       L1     1  0.02
      P1  H 10752 10763       L1     7  0.65

> <Gold.Chemscore.Hbond.Weighted>
-5.2215

> <Gold.Chemscore.Metal.Weighted>
-0.0000

> <Gold.Chemscore.Lipo.Weighted>
-14.4198

> <Gold.Chemscore.Internal_Hbond.Weighted>
0.0000

> <Gold.Chemscore.DEClash.Weighted>
0.2700

> <Gold.Chemscore.DEInternal.Weighted>
1.2356

> <Gold.Chemscore.Rot.Weighted>
6.9670

> <Gold.Chemscore.Internal.Correction.Weighted>
   9.000000E+99

> <Gold.Protein.RotatedTorsions>
[ 6907 6896 6895 6894 ] final  -43.45 input  -60.11 | X-H torsion
[ 7974 7965 7964 7962 ] final -121.46 input  175.53 | X-H torsion
[ 8008 7997 7996 7995 ] final  149.44 input   59.86 | X-H torsion
[ 10167 10162 10161 10158 ] final  -97.93 input  -65.29 | X-H torsion
[ 10718 10713 10712 10709 ] final -106.92 input   66.30 | X-H torsion
[ 10763 10752 10751 10750 ] final   48.74 input  -60.55 | X-H torsion
[ 11005 11000 10999 10996 ] final -150.87 input  -57.11 | X-H torsion

> <Gold.Protein.ActiveResidues>
 VAL166  LYS551  ARG553  GLY616  TRP617  ASP618  TYR619  PRO620  LYS621  CYS622 
 ASP623  PHE694  ASN695  SER759  ASP760  ASP761  ALA762  ILE779  LEU786  VAL792 
 PHE793  MET794  SER795  GLU796  ALA797  LYS798  CYS799  TRP800  GLU811  SER814 

> <Gold.Protein.RotatedAtoms>
  150.9438  134.8844  159.7628 H   0  0  0  0  0  0  0  0  0  0  0  0  # atno 6907 bound_to 6896
  152.5091  134.3904  159.9392 H   0  0  0  0  0  0  0  0  0  0  0  0  # atno 6908 bound_to 6896
  151.3924  133.3744  159.2757 H   0  0  0  0  0  0  0  0  0  0  0  0  # atno 6909 bound_to 6896
  145.0401  140.8138  143.4271 H   0  0  0  0  0  0  0  0  0  0  0  0  # atno 7974 bound_to 7965
  156.2754  140.2101  156.5859 H   0  0  0  0  0  0  0  0  0  0  0  0  # atno 8008 bound_to 7997
  154.7021  140.0520  157.0492 H   0  0  0  0  0  0  0  0  0  0  0  0  # atno 8009 bound_to 7997
  155.0720  140.3177  155.4630 H   0  0  0  0  0  0  0  0  0  0  0  0  # atno 8010 bound_to 7997
  140.2782  143.3299  152.0467 H   0  0  0  0  0  0  0  0  0  0  0  0  # atno 10167 bound_to 10162
  156.0412  130.5637  150.7749 H   0  0  0  0  0  0  0  0  0  0  0  0  # atno 10718 bound_to 10713
  152.9790  135.5934  154.3975 H   0  0  0  0  0  0  0  0  0  0  0  0  # atno 10763 bound_to 10752
  154.3624  135.2767  155.2314 H   0  0  0  0  0  0  0  0  0  0  0  0  # atno 10764 bound_to 10752
  154.4305  135.6037  153.6121 H   0  0  0  0  0  0  0  0  0  0  0  0  # atno 10765 bound_to 10752
  140.7356  134.3571  157.5158 H   0  0  0  0  0  0  0  0  0  0  0  0  # atno 11005 bound_to 11000
  145.1658  139.2432  143.5367 LP  0  0  0  0  0  0  0  0  0  0  0  0  # atno 17320 bound_to 7965
  146.3508  140.1397  142.8595 LP  0  0  0  0  0  0  0  0  0  0  0  0  # atno 17321 bound_to 7965
  139.4970  144.6610  151.6465 LP  0  0  0  0  0  0  0  0  0  0  0  0  # atno 17342 bound_to 10162
  140.5833  143.9907  150.6281 LP  0  0  0  0  0  0  0  0  0  0  0  0  # atno 17343 bound_to 10162
  157.5232  131.0932  151.0051 LP  0  0  0  0  0  0  0  0  0  0  0  0  # atno 17370 bound_to 10713
  157.0376  130.5736  149.5351 LP  0  0  0  0  0  0  0  0  0  0  0  0  # atno 17371 bound_to 10713
  139.8817  134.9047  156.2884 LP  0  0  0  0  0  0  0  0  0  0  0  0  # atno 17394 bound_to 11000
  140.9882  133.7225  156.0773 LP  0  0  0  0  0  0  0  0  0  0  0  0  # atno 17395 bound_to 11000

$$$$
