AV-unprocessed.smi:2857|AV-procd|sdf|10997|dock6
  -GOLD-   2272015453D 1   1.00000     0.00000
 Structure written by MMmdl.
 44 46  0  0  0  0  0  0  0  0  1 V2000
  150.6427  144.6647  157.2751 C   0  0  0  0  0  0  0  0  0  0  0  0
  151.4429  144.5359  158.5550 C   0  0  0  0  0  0  0  0  0  0  0  0
  151.4761  145.5940  159.4837 C   0  0  0  0  0  0  0  0  0  0  0  0
  152.2206  145.4643  160.6697 C   0  0  0  0  0  0  0  0  0  0  0  0
  152.9353  144.2780  160.9354 C   0  0  0  0  0  0  0  0  0  0  0  0
  153.7342  144.1566  162.2196 C   0  0  0  0  0  0  0  0  0  0  0  0
  152.9121  143.2080  160.0108 C   0  0  0  0  0  0  0  0  0  0  0  0
  153.6340  142.0766  160.3312 O   0  0  0  0  0  0  0  0  0  0  0  0
  153.4893  140.9222  159.5148 C   0  0  0  0  0  0  0  0  0  0  0  0
  154.4999  139.8632  159.9815 C   0  0  2  0  0  0  0  0  0  0  0  0
  155.3076  139.5018  158.8781 O   0  0  0  0  0  0  0  0  0  0  0  0
  153.8010  138.6050  160.5338 C   0  0  0  0  0  0  0  0  0  0  0  0
  154.5172  138.0153  161.6553 N   0  0  0  0  0  0  0  0  0  0  0  0
  154.8610  138.7965  162.7118 N   0  0  0  0  0  0  0  0  0  0  0  0
  155.5035  137.9967  163.5605 C   0  0  0  0  0  0  0  0  0  0  0  0
  155.5950  136.6647  163.0718 C   0  0  0  0  0  0  0  0  0  0  0  0
  156.1744  135.4197  163.5660 C   0  0  0  0  0  0  0  0  0  0  0  0
  156.0717  134.3594  162.8273 N   0  0  0  0  0  0  0  0  0  0  0  0
  155.4247  134.3973  161.5869 N   0  0  0  0  0  0  0  0  0  0  0  0
  155.3932  133.1222  160.8742 C   0  0  0  0  0  0  0  0  0  0  0  0
  154.8477  135.5077  161.0360 C   0  0  0  0  0  0  0  0  0  0  0  0
  154.2795  135.5179  159.9441 O   0  0  0  0  0  0  0  0  0  0  0  0
  154.9609  136.7257  161.8746 C   0  0  0  0  0  0  0  0  0  0  0  0
  152.1574  143.3496  158.8181 C   0  0  0  0  0  0  0  0  0  0  0  0
  150.1912  145.6532  157.1845 H   0  0  0  0  0  0  0  0  0  0  0  0
  149.8446  143.9224  157.2534 H   0  0  0  0  0  0  0  0  0  0  0  0
  151.2852  144.5042  156.4090 H   0  0  0  0  0  0  0  0  0  0  0  0
  150.9322  146.5074  159.2914 H   0  0  0  0  0  0  0  0  0  0  0  0
  152.2407  146.2819  161.3756 H   0  0  0  0  0  0  0  0  0  0  0  0
  154.7979  144.0769  161.9952 H   0  0  0  0  0  0  0  0  0  0  0  0
  153.4317  143.2677  162.7736 H   0  0  0  0  0  0  0  0  0  0  0  0
  153.5869  145.0225  162.8652 H   0  0  0  0  0  0  0  0  0  0  0  0
  152.4768  140.5354  159.6419 H   0  0  0  0  0  0  0  0  0  0  0  0
  153.6299  141.1536  158.4573 H   0  0  0  0  0  0  0  0  0  0  0  0
  155.1359  140.2850  160.7611 H   0  0  0  0  0  0  0  0  0  0  0  0
  155.0709  140.0484  158.1441 H   0  0  0  0  0  0  0  0  0  0  0  0
  152.7952  138.8589  160.8721 H   0  0  0  0  0  0  0  0  0  0  0  0
  153.6731  137.8568  159.7524 H   0  0  0  0  0  0  0  0  0  0  0  0
  155.8773  138.4056  164.4875 H   0  0  0  0  0  0  0  0  0  0  0  0
  156.6794  135.3886  164.5314 H   0  0  0  0  0  0  0  0  0  0  0  0
  155.8709  133.2150  159.8976 H   0  0  0  0  0  0  0  0  0  0  0  0
  154.3642  132.7943  160.7217 H   0  0  0  0  0  0  0  0  0  0  0  0
  155.9134  132.3344  161.4218 H   0  0  0  0  0  0  0  0  0  0  0  0
  152.1101  142.5576  158.0863 H   0  0  0  0  0  0  0  0  0  0  0  0
  1  2  1  0  0  0  0
  1 25  1  0  0  0  0
  1 26  1  0  0  0  0
  1 27  1  0  0  0  0
  2 24  1  0  0  0  0
  2  3  2  0  0  0  0
  3  4  1  0  0  0  0
  3 28  1  0  0  0  0
  4  5  2  0  0  0  0
  4 29  1  0  0  0  0
  5  6  1  0  0  0  0
  5  7  1  0  0  0  0
  6 30  1  0  0  0  0
  6 31  1  0  0  0  0
  6 32  1  0  0  0  0
  7  8  1  0  0  0  0
  7 24  2  0  0  0  0
  8  9  1  0  0  0  0
  9 10  1  0  0  0  0
  9 33  1  0  0  0  0
  9 34  1  0  0  0  0
 10 11  1  0  0  0  0
 10 12  1  0  0  0  0
 10 35  1  0  0  0  0
 11 36  1  0  0  0  0
 12 13  1  0  0  0  0
 12 37  1  0  0  0  0
 12 38  1  0  0  0  0
 13 23  1  0  0  0  0
 13 14  1  0  0  0  0
 14 15  2  0  0  0  0
 15 16  1  0  0  0  0
 15 39  1  0  0  0  0
 16 23  2  0  0  0  0
 16 17  1  0  0  0  0
 17 18  2  0  0  0  0
 17 40  1  0  0  0  0
 18 19  1  0  0  0  0
 19 20  1  0  0  0  0
 19 21  1  0  0  0  0
 20 41  1  0  0  0  0
 20 42  1  0  0  0  0
 20 43  1  0  0  0  0
 21 22  2  0  0  0  0
 21 23  1  0  0  0  0
 24 44  1  0  0  0  0
M  END
> <s_m_source_file>
AV-unprocessed.smi

> <i_m_source_file_index>
2857

> <i_lp_mmshare_version>
43012

> <i_f3d_flags>
0

> <s_epik_input>
W0NIM11jMVtjSF1bY0hdYyhbQ0gzXSljKFtjSF0xKU9bQ0gyXVtDQEhdKFtPSF0pW0NIMl1uKG5bY0hdMiljKGMyMyljKD1PKW4oW0NIM10pbltjSF0z

> <s_epik_cmdline>
J2VwaWtfcHl0aG9uJywgJy1waCcsICc3LjAnLCAnLXRuJywgJzgnLCAnLW1hJywgJzIwMCcsICctbWV0YWxfYmluZGluZycsICctaW1hZScsICc8aW5maWxlLm1hZT4nLCAnLW9tYWUnLCAnPG91dGZpbGUubWFlPic=

> <r_lp_tautomer_probability>
1

> <r_epik_Ionization_Penalty>
2.24607e-06

> <r_epik_Ionization_Penalty_Charging>
1.42095e-10

> <r_epik_Ionization_Penalty_Neutral>
2.24593e-06

> <r_epik_State_Penalty>
-0

> <r_epik_Charging_Adjusted_Penalty>
1.42095e-10

> <i_epik_Tot_Q>
0

> <i_epik_Tot_abs_Q>
0

> <r_epik_Metal_State_Penalty>
-0

> <b_epik_Metal_Only>
0

> <s_lp_Force_Field>
OPLS_2005

> <r_lp_Energy>
31.8826

> <b_lp_Chiralities_Consistent>
1

> <s_lp_Variant>
AV-unprocessed.smi:2857-1

> <Gold.Version>
5.8.1

> <Gold.Id.Protein>
6NUR|6NUR_protein|mol2

> <Gold.PLP.Fitness>
53.7459

> <Gold.PLP.PLP>
-53.4466

> <Gold.PLP.part.hbond>
-1.0000

> <Gold.PLP.part.metal>
0.0000

> <Gold.PLP.part.buried>
-2.8862

> <Gold.PLP.part.nonpolar>
-48.7347

> <Gold.PLP.part.repulsive>
0.0051

> <Gold.PLP.ligand.clash>
0.0000

> <Gold.PLP.ligand.torsion>
1.3605

> <Gold.PLP.Chemscore.Hbond>
1.0000

> <Gold.PLP.Chemscore.CHOScore>
0.0000

> <Gold.PLP.Chemscore.Metal>
0.0000

> <Gold.Chemscore.Hbonds>
donor molecule, donor type, donor heavy atom, donor atom, acceptor molecule, acceptor atom, score
      P1  H  6896  6909       L1    22  1.00

> <Gold.PLP.Chemscore.Internal.Correction>
0.0205

> <Gold.Rescore>
     Score         DG    S(hbond)    S(metal)    S(lipo)     H(rot)  DE(clash)    DE(int)     intcor
     18.71     -20.53       0.94        0.00     152.66       2.32       0.36       1.46       ----

> <Gold.Chemscore.Fitness>
18.7063

> <Gold.Chemscore.DG>
-20.5297

> <Gold.Chemscore.ZeroCoef>
-5.4800

> <Gold.Chemscore.Hbond>
0.9391

> <Gold.Chemscore.Metal>
0.0000

> <Gold.Chemscore.Lipo>
152.6610

> <Gold.Chemscore.Internal_Hbond>
0.0000

> <Gold.Chemscore.DEClash>
0.3611

> <Gold.Chemscore.DEInternal>
1.4623

> <Gold.Chemscore.Rot>
2.3236

> <Gold.Chemscore.Internal.Correction>
   9.000000E+99

> <Gold.Chemscore.Hbonds>
donor molecule, donor type, donor heavy atom, donor atom, acceptor molecule, acceptor atom, score
      P1  H  6896  6909       L1    22  0.81

> <Gold.Chemscore.Hbond.Weighted>
-3.1367

> <Gold.Chemscore.Metal.Weighted>
-0.0000

> <Gold.Chemscore.Lipo.Weighted>
-17.8613

> <Gold.Chemscore.Internal_Hbond.Weighted>
0.0000

> <Gold.Chemscore.DEClash.Weighted>
0.3611

> <Gold.Chemscore.DEInternal.Weighted>
1.4623

> <Gold.Chemscore.Rot.Weighted>
5.9484

> <Gold.Chemscore.Internal.Correction.Weighted>
   9.000000E+99

> <Gold.Protein.RotatedTorsions>
[ 6907 6896 6895 6894 ] final -166.32 input  -60.11 | X-H torsion
[ 7974 7965 7964 7962 ] final -134.42 input  175.53 | X-H torsion
[ 8008 7997 7996 7995 ] final  -41.75 input   59.86 | X-H torsion
[ 10167 10162 10161 10158 ] final   35.18 input  -65.29 | X-H torsion
[ 10718 10713 10712 10709 ] final -177.48 input   66.30 | X-H torsion
[ 10763 10752 10751 10750 ] final  101.23 input  -60.55 | X-H torsion
[ 11005 11000 10999 10996 ] final  -45.63 input  -57.11 | X-H torsion

> <Gold.Protein.ActiveResidues>
 VAL166  LYS551  ARG553  GLY616  TRP617  ASP618  TYR619  PRO620  LYS621  CYS622 
 ASP623  PHE694  ASN695  SER759  ASP760  ASP761  ALA762  ILE779  LEU786  VAL792 
 PHE793  MET794  SER795  GLU796  ALA797  LYS798  CYS799  TRP800  GLU811  SER814 

> <Gold.Protein.RotatedAtoms>
  151.4418  133.3641  159.2782 H   0  0  0  0  0  0  0  0  0  0  0  0  # atno 6907 bound_to 6896
  150.9152  134.8571  159.7463 H   0  0  0  0  0  0  0  0  0  0  0  0  # atno 6908 bound_to 6896
  152.4953  134.4351  159.9577 H   0  0  0  0  0  0  0  0  0  0  0  0  # atno 6909 bound_to 6896
  144.9104  140.6887  143.5029 H   0  0  0  0  0  0  0  0  0  0  0  0  # atno 7974 bound_to 7965
  154.4002  140.1491  156.3242 H   0  0  0  0  0  0  0  0  0  0  0  0  # atno 8008 bound_to 7997
  155.8502  140.3458  155.5667 H   0  0  0  0  0  0  0  0  0  0  0  0  # atno 8009 bound_to 7997
  155.7993  140.0868  157.1957 H   0  0  0  0  0  0  0  0  0  0  0  0  # atno 8010 bound_to 7997
  140.4246  144.1412  150.6152 H   0  0  0  0  0  0  0  0  0  0  0  0  # atno 10167 bound_to 10162
  156.8300  130.9650  151.3107 H   0  0  0  0  0  0  0  0  0  0  0  0  # atno 10718 bound_to 10713
  153.3241  135.4051  155.1441 H   0  0  0  0  0  0  0  0  0  0  0  0  # atno 10763 bound_to 10752
  154.8607  135.3594  154.5558 H   0  0  0  0  0  0  0  0  0  0  0  0  # atno 10764 bound_to 10752
  153.5993  135.7071  153.5450 H   0  0  0  0  0  0  0  0  0  0  0  0  # atno 10765 bound_to 10752
  141.0528  133.6737  156.3040 H   0  0  0  0  0  0  0  0  0  0  0  0  # atno 11005 bound_to 11000
  145.3464  139.1718  143.4458 LP  0  0  0  0  0  0  0  0  0  0  0  0  # atno 17320 bound_to 7965
  146.3155  140.3511  142.8656 LP  0  0  0  0  0  0  0  0  0  0  0  0  # atno 17321 bound_to 7965
  140.4496  143.2492  151.9366 LP  0  0  0  0  0  0  0  0  0  0  0  0  # atno 17342 bound_to 10162
  139.4783  144.5575  151.8290 LP  0  0  0  0  0  0  0  0  0  0  0  0  # atno 17343 bound_to 10162
  157.6411  130.8807  149.9451 LP  0  0  0  0  0  0  0  0  0  0  0  0  # atno 17370 bound_to 10713
  156.0939  130.3661  150.0342 LP  0  0  0  0  0  0  0  0  0  0  0  0  # atno 17371 bound_to 10713
  140.6023  134.5542  157.5519 LP  0  0  0  0  0  0  0  0  0  0  0  0  # atno 17394 bound_to 11000
  139.9364  134.7867  156.0791 LP  0  0  0  0  0  0  0  0  0  0  0  0  # atno 17395 bound_to 11000

$$$$
