AV-unprocessed.smi:743|AV-procd|sdf|3561|dock10
  -GOLD-   22720 0563D 1   1.00000     0.00000
 Structure written by MMmdl.
 29 30  0  0  0  0  0  0  0  0  2 V2000
  146.0889  143.6257  153.8546 C   0  0  0  0  0  0  0  0  0  0  0  0
  147.0189  142.6584  154.3967 N   0  0  0  0  0  0  0  0  0  0  0  0
  148.1618  142.1485  153.8205 C   0  0  0  0  0  0  0  0  0  0  0  0
  148.7112  141.2622  154.7065 C   0  0  0  0  0  0  0  0  0  0  0  0
  149.9675  140.4343  154.5771 C   0  0  1  0  0  0  0  0  0  0  0  0
  150.8757  140.6949  155.6972 N   0  0  0  0  0  0  0  0  0  0  0  0
  151.7008  139.8130  156.2895 C   0  0  0  0  0  0  0  0  0  0  0  0
  152.4707  140.1567  157.1825 O   0  0  0  0  0  0  0  0  0  0  0  0
  151.6504  138.3373  155.8641 C   0  0  0  0  0  0  0  0  0  0  0  0
  150.9241  138.1020  154.5293 C   0  0  0  0  0  0  0  0  0  0  0  0
  149.6355  138.9289  154.4530 C   0  0  2  0  0  0  0  0  0  0  0  0
  148.8862  138.6346  153.2178 N   0  3  0  0  0  0  0  0  0  0  0  0
  147.8082  141.3027  155.8082 C   0  0  0  0  0  0  0  0  0  0  0  0
  146.8014  142.1389  155.6218 N   0  0  0  0  0  0  0  0  0  0  0  0
  148.9943  138.6371  155.2867 H   0  0  0  0  0  0  0  0  0  0  0  0
  146.5497  144.1612  153.0240 H   0  0  0  0  0  0  0  0  0  0  0  0
  145.8059  144.3448  154.6243 H   0  0  0  0  0  0  0  0  0  0  0  0
  145.1953  143.1138  153.4966 H   0  0  0  0  0  0  0  0  0  0  0  0
  148.4879  142.4567  152.8376 H   0  0  0  0  0  0  0  0  0  0  0  0
  150.5136  140.7376  153.6823 H   0  0  0  0  0  0  0  0  0  0  0  0
  150.9192  141.6506  156.0219 H   0  0  0  0  0  0  0  0  0  0  0  0
  152.6642  137.9383  155.8138 H   0  0  0  0  0  0  0  0  0  0  0  0
  151.1396  137.7877  156.6553 H   0  0  0  0  0  0  0  0  0  0  0  0
  151.5849  138.3615  153.7005 H   0  0  0  0  0  0  0  0  0  0  0  0
  150.6986  137.0401  154.4231 H   0  0  0  0  0  0  0  0  0  0  0  0
  149.2721  139.1686  152.4523 H   0  0  0  0  0  0  0  0  0  0  0  0
  147.9158  138.8835  153.3474 H   0  0  0  0  0  0  0  0  0  0  0  0
  147.8573  140.7527  156.7364 H   0  0  0  0  0  0  0  0  0  0  0  0
  148.9548  137.6488  153.0088 H   0  0  0  0  0  0  0  0  0  0  0  0
  1  2  1  0  0  0  0
  1 16  1  0  0  0  0
  1 17  1  0  0  0  0
  1 18  1  0  0  0  0
  2 14  1  0  0  0  0
  2  3  1  0  0  0  0
  3  4  2  0  0  0  0
  3 19  1  0  0  0  0
  4  5  1  0  0  0  0
  4 13  1  0  0  0  0
  5 11  1  0  0  0  0
  5  6  1  0  0  0  0
  5 20  1  0  0  0  0
  6  7  1  0  0  0  0
  6 21  1  0  0  0  0
  7  8  2  0  0  0  0
  7  9  1  0  0  0  0
  9 10  1  0  0  0  0
  9 22  1  0  0  0  0
  9 23  1  0  0  0  0
 10 11  1  0  0  0  0
 10 24  1  0  0  0  0
 10 25  1  0  0  0  0
 11 15  1  0  0  0  0
 11 12  1  0  0  0  0
 12 26  1  0  0  0  0
 12 27  1  0  0  0  0
 12 29  1  0  0  0  0
 13 14  2  0  0  0  0
 13 28  1  0  0  0  0
M  CHG  1  12   1
M  END
> <s_m_source_file>
AV-unprocessed.smi

> <i_m_source_file_index>
743

> <i_lp_mmshare_version>
43012

> <i_f3d_flags>
0

> <s_epik_input>
W0NIM11uMVtjSF1jKFtjSF1uMSlbQ0BASF0yW05IXUMoPU8pW0NIMl1bQ0gyXVtDQEBIXTJbTkgyXQ==

> <s_epik_cmdline>
J2VwaWtfcHl0aG9uJywgJy1waCcsICc3LjAnLCAnLXRuJywgJzgnLCAnLW1hJywgJzIwMCcsICctbWV0YWxfYmluZGluZycsICctaW1hZScsICc8aW5maWxlLm1hZT4nLCAnLW9tYWUnLCAnPG91dGZpbGUubWFlPic=

> <r_lp_tautomer_probability>
1

> <r_epik_Ionization_Penalty>
0.00878543

> <r_epik_Ionization_Penalty_Charging>
0.00874185

> <r_epik_Ionization_Penalty_Neutral>
4.35793e-05

> <r_epik_State_Penalty>
0.00660351

> <r_epik_Charging_Adjusted_Penalty>
0.0153454

> <i_epik_Tot_Q>
1

> <i_epik_Tot_abs_Q>
1

> <r_epik_Metal_State_Penalty>
0.00660727

> <b_epik_Metal_Only>
0

> <s_lp_Force_Field>
OPLS_2005

> <r_lp_Energy>
10.7235

> <b_lp_Chiralities_Consistent>
1

> <s_lp_Variant>
AV-unprocessed.smi:743-2

> <Gold.Version>
5.8.1

> <Gold.Id.Protein>
6NUR|6NUR_protein|mol2

> <Gold.PLP.Fitness>
40.4521

> <Gold.PLP.PLP>
-28.6122

> <Gold.PLP.part.hbond>
-3.0000

> <Gold.PLP.part.metal>
0.0000

> <Gold.PLP.part.buried>
-2.3046

> <Gold.PLP.part.nonpolar>
-23.2058

> <Gold.PLP.part.repulsive>
0.3104

> <Gold.PLP.ligand.clash>
0.0000

> <Gold.PLP.ligand.torsion>
0.0908

> <Gold.PLP.Chemscore.Hbond>
4.0000

> <Gold.PLP.Chemscore.CHOScore>
0.0000

> <Gold.PLP.Chemscore.Metal>
0.0000

> <Gold.Chemscore.Hbonds>
donor molecule, donor type, donor heavy atom, donor atom, acceptor molecule, acceptor atom, score
      L1  H    12    26       P1  7957  1.00
      L1  H    12    29       P1  7948  2.00
      P1  H  7997  8010       L1     8  1.00

> <Gold.PLP.Chemscore.Internal.Correction>
0.0215

> <Gold.Rescore>
     Score         DG    S(hbond)    S(metal)    S(lipo)     H(rot)  DE(clash)    DE(int)     intcor
     18.68     -18.78       2.98        0.00      50.37       1.00       0.01       0.10       ----

> <Gold.Chemscore.Fitness>
18.6756

> <Gold.Chemscore.DG>
-18.7831

> <Gold.Chemscore.ZeroCoef>
-5.4800

> <Gold.Chemscore.Hbond>
2.9848

> <Gold.Chemscore.Metal>
0.0000

> <Gold.Chemscore.Lipo>
50.3745

> <Gold.Chemscore.Internal_Hbond>
0.0000

> <Gold.Chemscore.DEClash>
0.0069

> <Gold.Chemscore.DEInternal>
0.1006

> <Gold.Chemscore.Rot>
1.0000

> <Gold.Chemscore.Internal.Correction>
   9.000000E+99

> <Gold.Chemscore.Hbonds>
donor molecule, donor type, donor heavy atom, donor atom, acceptor molecule, acceptor atom, score
      L1  H    12    26       P1  7957  0.97
      L1  H    12    29       P1  7948  0.96
      P1  H  7997  8010       L1     8  0.64

> <Gold.Chemscore.Hbond.Weighted>
-9.9693

> <Gold.Chemscore.Metal.Weighted>
-0.0000

> <Gold.Chemscore.Lipo.Weighted>
-5.8938

> <Gold.Chemscore.Internal_Hbond.Weighted>
0.0000

> <Gold.Chemscore.DEClash.Weighted>
0.0069

> <Gold.Chemscore.DEInternal.Weighted>
0.1006

> <Gold.Chemscore.Rot.Weighted>
2.5600

> <Gold.Chemscore.Internal.Correction.Weighted>
   9.000000E+99

> <Gold.Protein.RotatedTorsions>
[ 6907 6896 6895 6894 ] final  143.42 input  -60.11 | X-H torsion
[ 7974 7965 7964 7962 ] final  178.16 input  175.53 | X-H torsion
[ 8008 7997 7996 7995 ] final   70.43 input   59.86 | X-H torsion
[ 10167 10162 10161 10158 ] final   27.17 input  -65.29 | X-H torsion
[ 10718 10713 10712 10709 ] final  107.56 input   66.30 | X-H torsion
[ 10763 10752 10751 10750 ] final  111.78 input  -60.55 | X-H torsion
[ 11005 11000 10999 10996 ] final  107.90 input  -57.11 | X-H torsion

> <Gold.Protein.ActiveResidues>
 VAL166  LYS551  ARG553  GLY616  TRP617  ASP618  TYR619  PRO620  LYS621  CYS622 
 ASP623  PHE694  ASN695  SER759  ASP760  ASP761  ALA762  ILE779  LEU786  VAL792 
 PHE793  MET794  SER795  GLU796  ALA797  LYS798  CYS799  TRP800  GLU811  SER814 

> <Gold.Protein.RotatedAtoms>
  152.2065  133.4879  159.5086 H   0  0  0  0  0  0  0  0  0  0  0  0  # atno 6907 bound_to 6896
  150.6981  134.1523  159.4154 H   0  0  0  0  0  0  0  0  0  0  0  0  # atno 6908 bound_to 6896
  151.9441  135.0199  160.0588 H   0  0  0  0  0  0  0  0  0  0  0  0  # atno 6909 bound_to 6896
  144.7159  140.0356  143.6438 H   0  0  0  0  0  0  0  0  0  0  0  0  # atno 7974 bound_to 7965
  155.7387  140.3490  155.5094 H   0  0  0  0  0  0  0  0  0  0  0  0  # atno 8008 bound_to 7997
  155.9115  140.1051  157.1297 H   0  0  0  0  0  0  0  0  0  0  0  0  # atno 8009 bound_to 7997
  154.4056  140.1267  156.4550 H   0  0  0  0  0  0  0  0  0  0  0  0  # atno 8010 bound_to 7997
  140.4961  144.0389  150.6315 H   0  0  0  0  0  0  0  0  0  0  0  0  # atno 10167 bound_to 10162
  157.6623  131.0875  150.6174 H   0  0  0  0  0  0  0  0  0  0  0  0  # atno 10718 bound_to 10713
  153.4682  135.3706  155.2376 H   0  0  0  0  0  0  0  0  0  0  0  0  # atno 10763 bound_to 10752
  154.8757  135.3925  154.3843 H   0  0  0  0  0  0  0  0  0  0  0  0  # atno 10764 bound_to 10752
  153.4427  135.7084  153.6223 H   0  0  0  0  0  0  0  0  0  0  0  0  # atno 10765 bound_to 10752
  139.8835  134.9415  156.5890 H   0  0  0  0  0  0  0  0  0  0  0  0  # atno 11005 bound_to 11000
  146.0066  139.3135  143.0895 LP  0  0  0  0  0  0  0  0  0  0  0  0  # atno 17320 bound_to 7965
  145.8731  140.9408  143.0640 LP  0  0  0  0  0  0  0  0  0  0  0  0  # atno 17321 bound_to 7965
  140.3672  143.2875  152.0318 LP  0  0  0  0  0  0  0  0  0  0  0  0  # atno 17342 bound_to 10162
  139.4861  144.6258  151.7168 LP  0  0  0  0  0  0  0  0  0  0  0  0  # atno 17343 bound_to 10162
  156.6476  130.4476  149.5730 LP  0  0  0  0  0  0  0  0  0  0  0  0  # atno 17370 bound_to 10713
  156.2162  130.6709  151.1321 LP  0  0  0  0  0  0  0  0  0  0  0  0  # atno 17371 bound_to 10713
  140.7969  133.8536  155.8694 LP  0  0  0  0  0  0  0  0  0  0  0  0  # atno 17394 bound_to 11000
  140.9627  134.1634  157.4641 LP  0  0  0  0  0  0  0  0  0  0  0  0  # atno 17395 bound_to 11000

$$$$
