AV-unprocessed.smi:287|AV-procd|sdf|2190|dock7
  -GOLD-   2262021583D 1   1.00000     0.00000
 Structure written by MMmdl.
 55 58  0  0  0  0  0  0  0  0  1 V2000
  153.2380  142.3222  162.0007 C   0  0  0  0  0  0  0  0  0  0  0  0
  152.4714  142.5710  160.7472 C   0  0  0  0  0  0  0  0  0  0  0  0
  151.7291  141.7790  159.9207 C   0  0  0  0  0  0  0  0  0  0  0  0
  151.2301  142.6068  158.8711 C   0  0  0  0  0  0  0  0  0  0  0  0
  150.3444  142.1492  157.7198 C   0  0  2  0  0  0  0  0  0  0  0  0
  151.0759  141.0815  156.8889 C   0  0  0  0  0  0  0  0  0  0  0  0
  150.0454  143.1884  156.8079 O   0  0  0  0  0  0  0  0  0  0  0  0
  148.9828  141.6028  158.2083 C   0  0  0  0  0  0  0  0  0  0  0  0
  148.0916  141.2361  157.1122 N   0  0  0  0  0  0  0  0  0  0  0  0
  147.3504  140.1106  157.1852 C   0  0  0  0  0  0  0  0  0  0  0  0
  146.7050  139.7720  158.3308 N   0  0  0  0  0  0  0  0  0  0  0  0
  145.9752  138.6548  158.3767 C   0  0  0  0  0  0  0  0  0  0  0  0
  145.7653  137.7568  157.4124 N   0  0  0  0  0  0  0  0  0  0  0  0
  146.4105  138.0865  156.2551 C   0  0  0  0  0  0  0  0  0  0  0  0
  147.2179  139.2453  156.0686 C   0  0  0  0  0  0  0  0  0  0  0  0
  147.7137  139.2729  154.7741 N   0  0  0  0  0  0  0  0  0  0  0  0
  147.2221  138.1948  154.2279 C   0  0  0  0  0  0  0  0  0  0  0  0
  146.4369  137.4101  155.0453 N   0  0  0  0  0  0  0  0  0  0  0  0
  145.7381  136.1411  154.6353 C   0  0  2  0  0  0  0  0  0  0  0  0
  146.1879  135.7830  153.3676 O   0  0  0  0  0  0  0  0  0  0  0  0
  145.2616  136.2335  152.3933 C   0  0  1  0  0  0  0  0  0  0  0  0
  145.4252  135.4394  151.0851 C   0  0  0  0  0  0  0  0  0  0  0  0
  145.0449  136.1949  149.9533 O   0  0  0  0  0  0  0  0  0  0  0  0
  143.8847  136.1715  153.0767 C   0  0  2  0  0  0  0  0  0  0  0  0
  143.0865  137.2612  152.6607 O   0  0  0  0  0  0  0  0  0  0  0  0
  144.2029  136.2703  154.5738 C   0  0  1  0  0  0  0  0  0  0  0  0
  143.5791  135.2116  155.2727 O   0  0  0  0  0  0  0  0  0  0  0  0
  151.7285  143.8583  159.1451 C   0  0  0  0  0  0  0  0  0  0  0  0
  151.6202  145.1892  158.4767 C   0  0  0  0  0  0  0  0  0  0  0  0
  152.4803  143.8448  160.2811 O   0  0  0  0  0  0  0  0  0  0  0  0
  146.0774  135.4116  155.3723 H   0  0  0  0  0  0  0  0  0  0  0  0
  145.5263  137.2697  152.1831 H   0  0  0  0  0  0  0  0  0  0  0  0
  143.3661  135.2392  152.8514 H   0  0  0  0  0  0  0  0  0  0  0  0
  143.8773  137.2069  155.0264 H   0  0  0  0  0  0  0  0  0  0  0  0
  153.0875  141.3013  162.3526 H   0  0  0  0  0  0  0  0  0  0  0  0
  152.9187  143.0016  162.7909 H   0  0  0  0  0  0  0  0  0  0  0  0
  154.3055  142.4697  161.8366 H   0  0  0  0  0  0  0  0  0  0  0  0
  151.5563  140.7217  160.0560 H   0  0  0  0  0  0  0  0  0  0  0  0
  151.3173  140.2063  157.4930 H   0  0  0  0  0  0  0  0  0  0  0  0
  152.0120  141.4674  156.4830 H   0  0  0  0  0  0  0  0  0  0  0  0
  150.4676  140.7409  156.0502 H   0  0  0  0  0  0  0  0  0  0  0  0
  150.8531  143.4867  156.4187 H   0  0  0  0  0  0  0  0  0  0  0  0
  149.1213  140.7604  158.8880 H   0  0  0  0  0  0  0  0  0  0  0  0
  148.4795  142.3844  158.7793 H   0  0  0  0  0  0  0  0  0  0  0  0
  148.0377  141.8921  156.3457 H   0  0  0  0  0  0  0  0  0  0  0  0
  145.4912  138.4506  159.3203 H   0  0  0  0  0  0  0  0  0  0  0  0
  147.4222  137.9394  153.1973 H   0  0  0  0  0  0  0  0  0  0  0  0
  146.4687  135.1496  150.9601 H   0  0  0  0  0  0  0  0  0  0  0  0
  144.8412  134.5197  151.1207 H   0  0  0  0  0  0  0  0  0  0  0  0
  145.5546  135.9033  149.2126 H   0  0  0  0  0  0  0  0  0  0  0  0
  143.4911  137.6532  151.9013 H   0  0  0  0  0  0  0  0  0  0  0  0
  142.7885  134.9745  154.8121 H   0  0  0  0  0  0  0  0  0  0  0  0
  151.9739  145.1344  157.4472 H   0  0  0  0  0  0  0  0  0  0  0  0
  152.2155  145.9414  158.9949 H   0  0  0  0  0  0  0  0  0  0  0  0
  150.5854  145.5315  158.4636 H   0  0  0  0  0  0  0  0  0  0  0  0
  1  2  1  0  0  0  0
  1 35  1  0  0  0  0
  1 36  1  0  0  0  0
  1 37  1  0  0  0  0
  2 30  1  0  0  0  0
  2  3  2  0  0  0  0
  3  4  1  0  0  0  0
  3 38  1  0  0  0  0
  4  5  1  0  0  0  0
  4 28  2  0  0  0  0
  5  6  1  0  0  0  0
  5  7  1  0  0  0  0
  5  8  1  0  0  0  0
  6 39  1  0  0  0  0
  6 40  1  0  0  0  0
  6 41  1  0  0  0  0
  7 42  1  0  0  0  0
  8  9  1  0  0  0  0
  8 43  1  0  0  0  0
  8 44  1  0  0  0  0
  9 10  1  0  0  0  0
  9 45  1  0  0  0  0
 10 15  1  0  0  0  0
 10 11  2  0  0  0  0
 11 12  1  0  0  0  0
 12 13  2  0  0  0  0
 12 46  1  0  0  0  0
 13 14  1  0  0  0  0
 14 18  1  0  0  0  0
 14 15  2  0  0  0  0
 15 16  1  0  0  0  0
 16 17  2  0  0  0  0
 17 18  1  0  0  0  0
 17 47  1  0  0  0  0
 18 19  1  0  0  0  0
 19 31  1  0  0  0  0
 19 26  1  0  0  0  0
 19 20  1  0  0  0  0
 20 21  1  0  0  0  0
 21 32  1  0  0  0  0
 21 22  1  0  0  0  0
 21 24  1  0  0  0  0
 22 23  1  0  0  0  0
 22 48  1  0  0  0  0
 22 49  1  0  0  0  0
 23 50  1  0  0  0  0
 24 33  1  0  0  0  0
 24 25  1  0  0  0  0
 24 26  1  0  0  0  0
 25 51  1  0  0  0  0
 26 34  1  0  0  0  0
 26 27  1  0  0  0  0
 27 52  1  0  0  0  0
 28 29  1  0  0  0  0
 28 30  1  0  0  0  0
 29 53  1  0  0  0  0
 29 54  1  0  0  0  0
 29 55  1  0  0  0  0
M  END
> <s_m_source_file>
AV-unprocessed.smi

> <i_m_source_file_index>
287

> <i_lp_mmshare_version>
43012

> <i_f3d_flags>
0

> <s_epik_input>
W0NIM11jMVtjSF1jKGMobzEpW0NIM10pW0NAQF0oW0NIM10pKFtPSF0pW0NIMl1bTkhdYyhuW2NIXW4yKWMoYzIzKW5bY0hdbjNbQ0BASF00T1tDQEhdKFtDSDJdW09IXSlbQ0BASF0oW09IXSlbQ0BIXTRbT0hd

> <s_epik_cmdline>
J2VwaWtfcHl0aG9uJywgJy1waCcsICc3LjAnLCAnLXRuJywgJzgnLCAnLW1hJywgJzIwMCcsICctbWV0YWxfYmluZGluZycsICctaW1hZScsICc8aW5maWxlLm1hZT4nLCAnLW9tYWUnLCAnPG91dGZpbGUubWFlPic=

> <r_lp_tautomer_probability>
1

> <r_epik_Ionization_Penalty>
0.000992612

> <r_epik_Ionization_Penalty_Charging>
0

> <r_epik_Ionization_Penalty_Neutral>
0.000992612

> <r_epik_State_Penalty>
-0

> <r_epik_Charging_Adjusted_Penalty>
0

> <i_epik_Tot_Q>
0

> <i_epik_Tot_abs_Q>
0

> <r_epik_Metal_State_Penalty>
-0

> <b_epik_Metal_Only>
0

> <s_epik_Chemistry_Notes>
This compound contains an acetal/aminal-like group ( X-CH(R)-Y where X, Y are N, S, or O) that may be acid/base labile, releasing an aldehyde.

> <s_lp_Force_Field>
OPLS_2005

> <r_lp_Energy>
41.2787

> <b_lp_Chiralities_Consistent>
1

> <s_lp_Variant>
AV-unprocessed.smi:287-14

> <Gold.Version>
5.8.1

> <Gold.Id.Protein>
6NUR|6NUR_protein|mol2

> <Gold.PLP.Fitness>
52.0628

> <Gold.PLP.PLP>
-44.8564

> <Gold.PLP.part.hbond>
-5.5956

> <Gold.PLP.part.metal>
0.0000

> <Gold.PLP.part.buried>
-8.9377

> <Gold.PLP.part.nonpolar>
-31.5977

> <Gold.PLP.part.repulsive>
0.3134

> <Gold.PLP.ligand.clash>
0.0000

> <Gold.PLP.ligand.torsion>
0.9627

> <Gold.PLP.Chemscore.Hbond>
2.0000

> <Gold.PLP.Chemscore.CHOScore>
1.0000

> <Gold.PLP.Chemscore.Metal>
0.0000

> <Gold.Chemscore.Hbonds>
donor molecule, donor type, donor heavy atom, donor atom, acceptor molecule, acceptor atom, score
      L1  H    23    50       P1  7921  1.00
      L1  H    25    51       P1 10171  0.31
      L1  C    17    47       P1  7948  0.71

> <Gold.PLP.Chemscore.Internal.Correction>
0.1317

> <Gold.Rescore>
     Score         DG    S(hbond)    S(metal)    S(lipo)     H(rot)  DE(clash)    DE(int)     intcor
      7.97     -10.04       1.88        0.00     100.43       5.27       0.01       2.05       ----

> <Gold.Chemscore.Fitness>
7.9696

> <Gold.Chemscore.DG>
-10.0382

> <Gold.Chemscore.ZeroCoef>
-5.4800

> <Gold.Chemscore.Hbond>
1.8839

> <Gold.Chemscore.Metal>
0.0000

> <Gold.Chemscore.Lipo>
100.4273

> <Gold.Chemscore.Internal_Hbond>
0.0000

> <Gold.Chemscore.DEClash>
0.0149

> <Gold.Chemscore.DEInternal>
2.0537

> <Gold.Chemscore.Rot>
5.2672

> <Gold.Chemscore.Internal.Correction>
   9.000000E+99

> <Gold.Chemscore.Hbonds>
donor molecule, donor type, donor heavy atom, donor atom, acceptor molecule, acceptor atom, score
      L1  H    23    50       P1  7921  0.97
      L1  H    25    51       P1 10171  0.30

> <Gold.Chemscore.Hbond.Weighted>
-6.2921

> <Gold.Chemscore.Metal.Weighted>
-0.0000

> <Gold.Chemscore.Lipo.Weighted>
-11.7500

> <Gold.Chemscore.Internal_Hbond.Weighted>
0.0000

> <Gold.Chemscore.DEClash.Weighted>
0.0149

> <Gold.Chemscore.DEInternal.Weighted>
2.0537

> <Gold.Chemscore.Rot.Weighted>
13.4839

> <Gold.Chemscore.Internal.Correction.Weighted>
   9.000000E+99

> <Gold.Protein.RotatedTorsions>
[ 6907 6896 6895 6894 ] final  -49.66 input  -60.11 | X-H torsion
[ 7974 7965 7964 7962 ] final  165.43 input  175.53 | X-H torsion
[ 8008 7997 7996 7995 ] final  -77.42 input   59.86 | X-H torsion
[ 10167 10162 10161 10158 ] final -157.26 input  -65.29 | X-H torsion
[ 10718 10713 10712 10709 ] final  -36.39 input   66.30 | X-H torsion
[ 10763 10752 10751 10750 ] final  178.46 input  -60.55 | X-H torsion
[ 11005 11000 10999 10996 ] final   64.41 input  -57.11 | X-H torsion

> <Gold.Protein.ActiveResidues>
 VAL166  LYS551  ARG553  GLY616  TRP617  ASP618  TYR619  PRO620  LYS621  CYS622 
 ASP623  PHE694  ASN695  SER759  ASP760  ASP761  ALA762  ILE779  LEU786  VAL792 
 PHE793  MET794  SER795  GLU796  ALA797  LYS798  CYS799  TRP800  GLU811  SER814 

> <Gold.Protein.RotatedAtoms>
  150.8783  134.8170  159.7206 H   0  0  0  0  0  0  0  0  0  0  0  0  # atno 6907 bound_to 6896
  152.4761  134.4836  159.9683 H   0  0  0  0  0  0  0  0  0  0  0  0  # atno 6908 bound_to 6896
  151.4914  133.3485  159.2889 H   0  0  0  0  0  0  0  0  0  0  0  0  # atno 6909 bound_to 6896
  144.7503  139.8470  143.6368 H   0  0  0  0  0  0  0  0  0  0  0  0  # atno 7974 bound_to 7965
  154.5594  140.0711  156.8795 H   0  0  0  0  0  0  0  0  0  0  0  0  # atno 8008 bound_to 7997
  155.2839  140.3373  155.4238 H   0  0  0  0  0  0  0  0  0  0  0  0  # atno 8009 bound_to 7997
  156.2030  140.1729  156.7846 H   0  0  0  0  0  0  0  0  0  0  0  0  # atno 8010 bound_to 7997
  139.6784  143.9623  152.2323 H   0  0  0  0  0  0  0  0  0  0  0  0  # atno 10167 bound_to 10162
  156.3274  130.4274  149.7904 H   0  0  0  0  0  0  0  0  0  0  0  0  # atno 10718 bound_to 10713
  154.5079  135.2787  155.1367 H   0  0  0  0  0  0  0  0  0  0  0  0  # atno 10763 bound_to 10752
  154.2974  135.6255  153.5414 H   0  0  0  0  0  0  0  0  0  0  0  0  # atno 10764 bound_to 10752
  152.9913  135.5688  154.5537 H   0  0  0  0  0  0  0  0  0  0  0  0  # atno 10765 bound_to 10752
  139.9960  134.6516  156.0009 H   0  0  0  0  0  0  0  0  0  0  0  0  # atno 11005 bound_to 11000
  146.1443  139.4508  143.0089 LP  0  0  0  0  0  0  0  0  0  0  0  0  # atno 17320 bound_to 7965
  145.6970  141.0147  143.1525 LP  0  0  0  0  0  0  0  0  0  0  0  0  # atno 17321 bound_to 7965
  139.9406  144.6684  150.8270 LP  0  0  0  0  0  0  0  0  0  0  0  0  # atno 17342 bound_to 10162
  140.7644  143.3247  151.2543 LP  0  0  0  0  0  0  0  0  0  0  0  0  # atno 17343 bound_to 10162
  156.5190  130.8206  151.3196 LP  0  0  0  0  0  0  0  0  0  0  0  0  # atno 17370 bound_to 10713
  157.7424  130.9889  150.2512 LP  0  0  0  0  0  0  0  0  0  0  0  0  # atno 17371 bound_to 10713
  141.1605  133.6539  156.4303 LP  0  0  0  0  0  0  0  0  0  0  0  0  # atno 17394 bound_to 11000
  140.4817  134.6659  157.5173 LP  0  0  0  0  0  0  0  0  0  0  0  0  # atno 17395 bound_to 11000

$$$$
