AV-unprocessed.smi:774|AV-procd|sdf|3691|dock10
  -GOLD-   22720 1113D 1   1.00000     0.00000
 Structure written by MMmdl.
 37 38  0  0  0  0  0  0  0  0  1 V2000
  143.4613  132.7658  148.1831 C   0  0  0  0  0  0  0  0  0  0  0  0
  143.8163  132.3291  149.6068 C   0  0  0  0  0  0  0  0  0  0  0  0
  145.5704  131.8924  149.7468 S   0  0  0  0  0  0  0  0  0  0  0  0
  146.0918  133.0521  151.0432 C   0  0  2  0  0  0  0  0  0  0  0  0
  145.5538  132.6668  152.4186 C   0  0  0  0  0  0  0  0  0  0  0  0
  145.6541  133.9545  153.2373 C   0  0  0  0  0  0  0  0  0  0  0  0
  145.4788  135.1089  152.2327 C   0  0  1  0  0  0  0  0  0  0  0  0
  146.5180  136.1211  152.4152 N   0  0  0  0  0  0  0  0  0  0  0  0
  146.3488  137.3229  152.9851 C   0  0  0  0  0  0  0  0  0  0  0  0
  145.2731  137.7195  153.4321 O   0  0  0  0  0  0  0  0  0  0  0  0
  147.5039  138.0106  153.0126 N   0  0  0  0  0  0  0  0  0  0  0  0
  147.7578  139.3040  153.5458 C   0  0  0  0  0  0  0  0  0  0  0  0
  149.0054  139.5272  154.1644 C   0  0  0  0  0  0  0  0  0  0  0  0
  149.2924  140.7993  154.6946 C   0  0  0  0  0  0  0  0  0  0  0  0
  148.3178  141.8087  154.5774 C   0  0  0  0  0  0  0  0  0  0  0  0
  147.1255  141.6185  153.9744 N   0  0  0  0  0  0  0  0  0  0  0  0
  146.8560  140.3952  153.4692 C   0  0  0  0  0  0  0  0  0  0  0  0
  145.5680  134.4763  150.8308 C   0  0  0  0  0  0  0  0  0  0  0  0
  142.4065  133.0307  148.1094 H   0  0  0  0  0  0  0  0  0  0  0  0
  143.6549  131.9668  147.4669 H   0  0  0  0  0  0  0  0  0  0  0  0
  144.0455  133.6356  147.8808 H   0  0  0  0  0  0  0  0  0  0  0  0
  143.5947  133.1331  150.3088 H   0  0  0  0  0  0  0  0  0  0  0  0
  143.2094  131.4710  149.8959 H   0  0  0  0  0  0  0  0  0  0  0  0
  147.1818  133.0690  151.0858 H   0  0  0  0  0  0  0  0  0  0  0  0
  144.5079  132.3663  152.3403 H   0  0  0  0  0  0  0  0  0  0  0  0
  146.1047  131.8404  152.8686 H   0  0  0  0  0  0  0  0  0  0  0  0
  144.9126  133.9878  154.0361 H   0  0  0  0  0  0  0  0  0  0  0  0
  146.6371  133.9993  153.7093 H   0  0  0  0  0  0  0  0  0  0  0  0
  144.4849  135.5415  152.3597 H   0  0  0  0  0  0  0  0  0  0  0  0
  147.4405  135.8841  152.0812 H   0  0  0  0  0  0  0  0  0  0  0  0
  148.3155  137.5229  152.6627 H   0  0  0  0  0  0  0  0  0  0  0  0
  149.7345  138.7335  154.2379 H   0  0  0  0  0  0  0  0  0  0  0  0
  150.2369  140.9964  155.1797 H   0  0  0  0  0  0  0  0  0  0  0  0
  148.5026  142.7961  154.9738 H   0  0  0  0  0  0  0  0  0  0  0  0
  145.8984  140.3162  152.9799 H   0  0  0  0  0  0  0  0  0  0  0  0
  146.1943  135.0447  150.1419 H   0  0  0  0  0  0  0  0  0  0  0  0
  144.5685  134.4397  150.3951 H   0  0  0  0  0  0  0  0  0  0  0  0
  1  2  1  0  0  0  0
  1 19  1  0  0  0  0
  1 20  1  0  0  0  0
  1 21  1  0  0  0  0
  2  3  1  0  0  0  0
  2 22  1  0  0  0  0
  2 23  1  0  0  0  0
  3  4  1  0  0  0  0
  4 18  1  0  0  0  0
  4  5  1  0  0  0  0
  4 24  1  0  0  0  0
  5  6  1  0  0  0  0
  5 25  1  0  0  0  0
  5 26  1  0  0  0  0
  6  7  1  0  0  0  0
  6 27  1  0  0  0  0
  6 28  1  0  0  0  0
  7  8  1  0  0  0  0
  7 18  1  0  0  0  0
  7 29  1  0  0  0  0
  8  9  1  0  0  0  0
  8 30  1  0  0  0  0
  9 10  2  0  0  0  0
  9 11  1  0  0  0  0
 11 12  1  0  0  0  0
 11 31  1  0  0  0  0
 12 17  1  0  0  0  0
 12 13  2  0  0  0  0
 13 14  1  0  0  0  0
 13 32  1  0  0  0  0
 14 15  2  0  0  0  0
 14 33  1  0  0  0  0
 15 16  1  0  0  0  0
 15 34  1  0  0  0  0
 16 17  2  0  0  0  0
 17 35  1  0  0  0  0
 18 36  1  0  0  0  0
 18 37  1  0  0  0  0
M  END
> <s_m_source_file>
AV-unprocessed.smi

> <i_m_source_file_index>
774

> <i_lp_mmshare_version>
43012

> <i_f3d_flags>
0

> <s_epik_input>
W0NIM11bQ0gyXVNbQ0BASF0xW0NIMl1bQ0gyXVtDQEhdKFtDSDJdMSlbTkhdQyg9TylbTkhdYzJbY0hdW2NIXVtjSF1uW2NIXTI=

> <s_epik_cmdline>
J2VwaWtfcHl0aG9uJywgJy1waCcsICc3LjAnLCAnLXRuJywgJzgnLCAnLW1hJywgJzIwMCcsICctbWV0YWxfYmluZGluZycsICctaW1hZScsICc8aW5maWxlLm1hZT4nLCAnLW9tYWUnLCAnPG91dGZpbGUubWFlPic=

> <r_epik_Ionization_Penalty>
0.00485718

> <r_epik_Ionization_Penalty_Charging>
0

> <r_epik_Ionization_Penalty_Neutral>
0.00485718

> <r_epik_State_Penalty>
0.00349461

> <r_epik_Charging_Adjusted_Penalty>
0.00349461

> <i_epik_Tot_Q>
0

> <i_epik_Tot_abs_Q>
0

> <r_epik_Metal_State_Penalty>
-0

> <b_epik_Metal_Only>
0

> <s_lp_Force_Field>
OPLS_2005

> <r_lp_Energy>
20.878

> <b_lp_Chiralities_Consistent>
1

> <s_lp_Variant>
AV-unprocessed.smi:774-1

> <Gold.Version>
5.8.1

> <Gold.Id.Protein>
6NUR|6NUR_protein|mol2

> <Gold.PLP.Fitness>
42.7690

> <Gold.PLP.PLP>
-32.6600

> <Gold.PLP.part.hbond>
-1.8887

> <Gold.PLP.part.metal>
0.0000

> <Gold.PLP.part.buried>
1.1951

> <Gold.PLP.part.nonpolar>
-32.2213

> <Gold.PLP.part.repulsive>
0.4482

> <Gold.PLP.ligand.clash>
0.0000

> <Gold.PLP.ligand.torsion>
0.9365

> <Gold.PLP.Chemscore.Hbond>
1.9920

> <Gold.PLP.Chemscore.CHOScore>
2.0000

> <Gold.PLP.Chemscore.Metal>
0.0000

> <Gold.Chemscore.Hbonds>
donor molecule, donor type, donor heavy atom, donor atom, acceptor molecule, acceptor atom, score
      L1  H     8    30       P1  7948  1.00
      L1  H    11    31       P1  7948  0.99
      L1  C    15    34       P1  8028  1.00
      L1  C    17    35       P1 10175  1.00

> <Gold.PLP.Chemscore.Internal.Correction>
0.0060

> <Gold.Rescore>
     Score         DG    S(hbond)    S(metal)    S(lipo)     H(rot)  DE(clash)    DE(int)     intcor
     18.85     -19.85       1.90        0.00      97.21       1.30       0.06       0.93       ----

> <Gold.Chemscore.Fitness>
18.8546

> <Gold.Chemscore.DG>
-19.8499

> <Gold.Chemscore.ZeroCoef>
-5.4800

> <Gold.Chemscore.Hbond>
1.8968

> <Gold.Chemscore.Metal>
0.0000

> <Gold.Chemscore.Lipo>
97.2060

> <Gold.Chemscore.Internal_Hbond>
0.0000

> <Gold.Chemscore.DEClash>
0.0632

> <Gold.Chemscore.DEInternal>
0.9321

> <Gold.Chemscore.Rot>
1.3041

> <Gold.Chemscore.Internal.Correction>
   9.000000E+99

> <Gold.Chemscore.Hbonds>
donor molecule, donor type, donor heavy atom, donor atom, acceptor molecule, acceptor atom, score
      L1  H     8    30       P1  7948  0.92
      L1  H    11    31       P1  7948  0.94

> <Gold.Chemscore.Hbond.Weighted>
-6.3352

> <Gold.Chemscore.Metal.Weighted>
-0.0000

> <Gold.Chemscore.Lipo.Weighted>
-11.3731

> <Gold.Chemscore.Internal_Hbond.Weighted>
0.0000

> <Gold.Chemscore.DEClash.Weighted>
0.0632

> <Gold.Chemscore.DEInternal.Weighted>
0.9321

> <Gold.Chemscore.Rot.Weighted>
3.3384

> <Gold.Chemscore.Internal.Correction.Weighted>
   9.000000E+99

> <Gold.Protein.RotatedTorsions>
[ 6907 6896 6895 6894 ] final  -88.33 input  -60.11 | X-H torsion
[ 7974 7965 7964 7962 ] final  113.94 input  175.53 | X-H torsion
[ 8008 7997 7996 7995 ] final -173.37 input   59.86 | X-H torsion
[ 10167 10162 10161 10158 ] final -139.64 input  -65.29 | X-H torsion
[ 10718 10713 10712 10709 ] final  133.28 input   66.30 | X-H torsion
[ 10763 10752 10751 10750 ] final  112.71 input  -60.55 | X-H torsion
[ 11005 11000 10999 10996 ] final  141.52 input  -57.11 | X-H torsion

> <Gold.Protein.ActiveResidues>
 VAL166  LYS551  ARG553  GLY616  TRP617  ASP618  TYR619  PRO620  LYS621  CYS622 
 ASP623  PHE694  ASN695  SER759  ASP760  ASP761  ALA762  ILE779  LEU786  VAL792 
 PHE793  MET794  SER795  GLU796  ALA797  LYS798  CYS799  TRP800  GLU811  SER814 

> <Gold.Protein.RotatedAtoms>
  150.6868  134.2759  159.4606 H   0  0  0  0  0  0  0  0  0  0  0  0  # atno 6907 bound_to 6896
  152.0677  134.9551  160.0584 H   0  0  0  0  0  0  0  0  0  0  0  0  # atno 6908 bound_to 6896
  152.0953  133.4187  159.4599 H   0  0  0  0  0  0  0  0  0  0  0  0  # atno 6909 bound_to 6896
  145.2106  139.2908  143.4270 H   0  0  0  0  0  0  0  0  0  0  0  0  # atno 7974 bound_to 7965
  155.9566  140.1136  157.0932 H   0  0  0  0  0  0  0  0  0  0  0  0  # atno 8008 bound_to 7997
  154.4122  140.1190  156.5189 H   0  0  0  0  0  0  0  0  0  0  0  0  # atno 8009 bound_to 7997
  155.6774  140.3473  155.4844 H   0  0  0  0  0  0  0  0  0  0  0  0  # atno 8010 bound_to 7997
  139.8360  143.7385  152.2665 H   0  0  0  0  0  0  0  0  0  0  0  0  # atno 10167 bound_to 10162
  157.4789  131.1084  150.9708 H   0  0  0  0  0  0  0  0  0  0  0  0  # atno 10718 bound_to 10713
  153.4818  135.3678  155.2446 H   0  0  0  0  0  0  0  0  0  0  0  0  # atno 10763 bound_to 10752
  154.8755  135.3956  154.3691 H   0  0  0  0  0  0  0  0  0  0  0  0  # atno 10764 bound_to 10752
  153.4296  135.7082  153.6304 H   0  0  0  0  0  0  0  0  0  0  0  0  # atno 10765 bound_to 10752
  140.0407  134.9306  157.0838 H   0  0  0  0  0  0  0  0  0  0  0  0  # atno 11005 bound_to 11000
  146.3398  140.2381  142.8595 LP  0  0  0  0  0  0  0  0  0  0  0  0  # atno 17320 bound_to 7965
  144.9859  140.8503  143.5369 LP  0  0  0  0  0  0  0  0  0  0  0  0  # atno 17321 bound_to 7965
  139.7607  144.7507  151.0369 LP  0  0  0  0  0  0  0  0  0  0  0  0  # atno 17342 bound_to 10162
  140.7802  143.4754  151.0089 LP  0  0  0  0  0  0  0  0  0  0  0  0  # atno 17343 bound_to 10162
  157.0448  130.5763  149.5361 LP  0  0  0  0  0  0  0  0  0  0  0  0  # atno 17370 bound_to 10713
  156.0111  130.5202  150.7990 LP  0  0  0  0  0  0  0  0  0  0  0  0  # atno 17371 bound_to 10713
  140.4073  134.2018  155.7163 LP  0  0  0  0  0  0  0  0  0  0  0  0  # atno 17394 bound_to 11000
  141.1881  133.8266  157.1005 LP  0  0  0  0  0  0  0  0  0  0  0  0  # atno 17395 bound_to 11000

$$$$
