AV-unprocessed.smi:67|AV-procd|sdf|637|dock10
  -GOLD-   2262016533D 1   1.00000     0.00000
 Structure written by MMmdl.
 48 50  0  0  0  0  0  0  0  0  2 V2000
  149.8084  134.3559  157.5416 O   0  0  0  0  0  0  0  0  0  0  0  0
  150.2580  134.5657  156.2148 C   0  0  1  0  0  0  0  0  0  0  0  0
  151.5083  135.4861  156.2547 C   0  0  0  0  0  0  0  0  0  0  0  0
  151.2187  136.9487  156.2973 N   0  3  2  0  0  0  0  0  0  0  0  0
  152.4719  137.7485  156.2485 C   0  0  0  0  0  0  0  0  0  0  0  0
  152.1854  139.2564  156.1624 C   0  0  0  0  0  0  0  0  0  0  0  0
  151.3095  139.7287  157.3376 C   0  0  2  0  0  0  0  0  0  0  0  0
  151.9782  139.5601  158.5860 O   0  0  0  0  0  0  0  0  0  0  0  0
  152.3742  140.6633  159.3138 C   0  0  0  0  0  0  0  0  0  0  0  0
  153.3590  140.6484  160.3332 C   0  0  0  0  0  0  0  0  0  0  0  0
  153.6961  141.8338  161.0137 C   0  0  0  0  0  0  0  0  0  0  0  0
  153.0571  143.0441  160.6882 C   0  0  0  0  0  0  0  0  0  0  0  0
  152.0725  143.0762  159.6791 C   0  0  0  0  0  0  0  0  0  0  0  0
  151.3864  144.3847  159.3157 C   0  0  0  0  0  0  0  0  0  0  0  0
  151.8278  145.3837  160.0811 F   0  0  0  0  0  0  0  0  0  0  0  0
  151.6170  144.7032  158.0414 F   0  0  0  0  0  0  0  0  0  0  0  0
  150.0726  144.2545  159.4951 F   0  0  0  0  0  0  0  0  0  0  0  0
  151.7451  141.8848  158.9965 C   0  0  0  0  0  0  0  0  0  0  0  0
  150.0339  138.8763  157.3769 C   0  0  0  0  0  0  0  0  0  0  0  0
  150.3464  137.3699  157.4266 C   0  0  0  0  0  0  0  0  0  0  0  0
  150.4707  133.2293  155.4679 C   0  0  0  0  0  0  0  0  0  0  0  0
  149.3803  133.1811  154.3986 C   0  0  0  0  0  0  0  0  0  0  0  0
  149.0576  134.5715  154.1420 N   0  0  0  0  0  0  0  0  0  0  0  0
  149.0999  135.2280  155.4369 C   0  0  0  0  0  0  0  0  0  0  0  0
  149.3016  135.1065  157.8117 H   0  0  0  0  0  0  0  0  0  0  0  0
  152.1719  135.2092  157.0754 H   0  0  0  0  0  0  0  0  0  0  0  0
  152.0763  135.2977  155.3425 H   0  0  0  0  0  0  0  0  0  0  0  0
  153.0768  137.5310  157.1303 H   0  0  0  0  0  0  0  0  0  0  0  0
  153.0643  137.4555  155.3809 H   0  0  0  0  0  0  0  0  0  0  0  0
  153.1255  139.8062  156.1284 H   0  0  0  0  0  0  0  0  0  0  0  0
  151.6760  139.4731  155.2226 H   0  0  0  0  0  0  0  0  0  0  0  0
  151.0058  140.7671  157.2040 H   0  0  0  0  0  0  0  0  0  0  0  0
  153.8737  139.7431  160.6141 H   0  0  0  0  0  0  0  0  0  0  0  0
  154.4493  141.8149  161.7878 H   0  0  0  0  0  0  0  0  0  0  0  0
  153.3282  143.9476  161.2145 H   0  0  0  0  0  0  0  0  0  0  0  0
  150.9995  141.9025  158.2152 H   0  0  0  0  0  0  0  0  0  0  0  0
  149.4247  139.1580  158.2364 H   0  0  0  0  0  0  0  0  0  0  0  0
  149.4307  139.0885  156.4930 H   0  0  0  0  0  0  0  0  0  0  0  0
  149.3968  136.8419  157.3862 H   0  0  0  0  0  0  0  0  0  0  0  0
  150.8203  137.1101  158.3744 H   0  0  0  0  0  0  0  0  0  0  0  0
  151.4376  133.2194  154.9640 H   0  0  0  0  0  0  0  0  0  0  0  0
  150.4336  132.3579  156.1232 H   0  0  0  0  0  0  0  0  0  0  0  0
  149.6997  132.6617  153.4946 H   0  0  0  0  0  0  0  0  0  0  0  0
  148.5032  132.6642  154.7902 H   0  0  0  0  0  0  0  0  0  0  0  0
  148.1356  134.6559  153.7247 H   0  0  0  0  0  0  0  0  0  0  0  0
  148.1521  135.0532  155.9494 H   0  0  0  0  0  0  0  0  0  0  0  0
  149.2083  136.3081  155.3339 H   0  0  0  0  0  0  0  0  0  0  0  0
  150.7145  137.1598  155.4476 H   0  0  0  0  0  0  0  0  0  0  0  0
  1  2  1  0  0  0  0
  1 25  1  0  0  0  0
  2 24  1  0  0  0  0
  2  3  1  0  0  0  0
  2 21  1  0  0  0  0
  3  4  1  0  0  0  0
  3 26  1  0  0  0  0
  3 27  1  0  0  0  0
  4 20  1  0  0  0  0
  4  5  1  0  0  0  0
  4 48  1  0  0  0  0
  5  6  1  0  0  0  0
  5 28  1  0  0  0  0
  5 29  1  0  0  0  0
  6  7  1  0  0  0  0
  6 30  1  0  0  0  0
  6 31  1  0  0  0  0
  7  8  1  0  0  0  0
  7 19  1  0  0  0  0
  7 32  1  0  0  0  0
  8  9  1  0  0  0  0
  9 18  1  0  0  0  0
  9 10  2  0  0  0  0
 10 11  1  0  0  0  0
 10 33  1  0  0  0  0
 11 12  2  0  0  0  0
 11 34  1  0  0  0  0
 12 13  1  0  0  0  0
 12 35  1  0  0  0  0
 13 14  1  0  0  0  0
 13 18  2  0  0  0  0
 14 15  1  0  0  0  0
 14 16  1  0  0  0  0
 14 17  1  0  0  0  0
 18 36  1  0  0  0  0
 19 20  1  0  0  0  0
 19 37  1  0  0  0  0
 19 38  1  0  0  0  0
 20 39  1  0  0  0  0
 20 40  1  0  0  0  0
 21 22  1  0  0  0  0
 21 41  1  0  0  0  0
 21 42  1  0  0  0  0
 22 23  1  0  0  0  0
 22 43  1  0  0  0  0
 22 44  1  0  0  0  0
 23 24  1  0  0  0  0
 23 45  1  0  0  0  0
 24 46  1  0  0  0  0
 24 47  1  0  0  0  0
M  CHG  1   4   1
M  END
> <s_m_source_file>
AV-unprocessed.smi

> <i_m_source_file_index>
67

> <i_lp_mmshare_version>
43012

> <i_f3d_flags>
0

> <s_epik_input>
W0NIMl0xW05IXVtDSDJdW0NIMl1bQ0BAXTEoW09IXSlbQ0gyXU4yW0NIMl1bQ0gyXVtDSF0oW0NIMl1bQ0gyXTIpT2MzW2NIXVtjSF1bY0hdYyhDKEYpKEYpRilbY0hdMw==

> <s_epik_cmdline>
J2VwaWtfcHl0aG9uJywgJy1waCcsICc3LjAnLCAnLXRuJywgJzgnLCAnLW1hJywgJzIwMCcsICctbWV0YWxfYmluZGluZycsICctaW1hZScsICc8aW5maWxlLm1hZT4nLCAnLW9tYWUnLCAnPG91dGZpbGUubWFlPic=

> <r_epik_Ionization_Penalty>
2.37709

> <r_epik_Ionization_Penalty_Charging>
0.0305656

> <r_epik_Ionization_Penalty_Neutral>
2.34653

> <r_epik_State_Penalty>
2.56959

> <r_epik_Charging_Adjusted_Penalty>
2.60016

> <i_epik_Tot_Q>
1

> <i_epik_Tot_abs_Q>
1

> <r_epik_Metal_State_Penalty>
2.56925

> <b_epik_Metal_Only>
0

> <s_lp_Force_Field>
OPLS_2005

> <r_lp_Energy>
51.6978

> <b_lp_Chiralities_Consistent>
1

> <s_lp_Variant>
AV-unprocessed.smi:67-9

> <Gold.Version>
5.8.1

> <Gold.Id.Protein>
6NUR|6NUR_protein|mol2

> <Gold.PLP.Fitness>
48.3561

> <Gold.PLP.PLP>
-47.9662

> <Gold.PLP.part.hbond>
-2.0000

> <Gold.PLP.part.metal>
0.0000

> <Gold.PLP.part.buried>
-5.9474

> <Gold.PLP.part.nonpolar>
-40.0658

> <Gold.PLP.part.repulsive>
0.0874

> <Gold.PLP.ligand.clash>
1.3830

> <Gold.PLP.ligand.torsion>
1.4687

> <Gold.PLP.Chemscore.Hbond>
0.9920

> <Gold.PLP.Chemscore.CHOScore>
0.0000

> <Gold.PLP.Chemscore.Metal>
0.0000

> <Gold.Chemscore.Hbonds>
donor molecule, donor type, donor heavy atom, donor atom, acceptor molecule, acceptor atom, score
      P1  H  6896  6909       L1     1  0.91

> <Gold.PLP.Chemscore.Internal.Correction>
1.7342

> <Gold.Rescore>
     Score         DG    S(hbond)    S(metal)    S(lipo)     H(rot)  DE(clash)    DE(int)     intcor
     14.22     -15.79       0.79        0.00     113.01       2.17       0.01       1.56       ----

> <Gold.Chemscore.Fitness>
14.2194

> <Gold.Chemscore.DG>
-15.7900

> <Gold.Chemscore.ZeroCoef>
-5.4800

> <Gold.Chemscore.Hbond>
0.7939

> <Gold.Chemscore.Metal>
0.0000

> <Gold.Chemscore.Lipo>
113.0110

> <Gold.Chemscore.Internal_Hbond>
0.0000

> <Gold.Chemscore.DEClash>
0.0134

> <Gold.Chemscore.DEInternal>
1.5571

> <Gold.Chemscore.Rot>
2.1734

> <Gold.Chemscore.Internal.Correction>
   9.000000E+99

> <Gold.Chemscore.Hbonds>
donor molecule, donor type, donor heavy atom, donor atom, acceptor molecule, acceptor atom, score
      P1  H  6896  6909       L1     1  0.19

> <Gold.Chemscore.Hbond.Weighted>
-2.6517

> <Gold.Chemscore.Metal.Weighted>
-0.0000

> <Gold.Chemscore.Lipo.Weighted>
-13.2223

> <Gold.Chemscore.Internal_Hbond.Weighted>
0.0000

> <Gold.Chemscore.DEClash.Weighted>
0.0134

> <Gold.Chemscore.DEInternal.Weighted>
1.5571

> <Gold.Chemscore.Rot.Weighted>
5.5640

> <Gold.Chemscore.Internal.Correction.Weighted>
   9.000000E+99

> <Gold.Protein.RotatedTorsions>
[ 6907 6896 6895 6894 ] final    9.07 input  -60.11 | X-H torsion
[ 7974 7965 7964 7962 ] final -135.24 input  175.53 | X-H torsion
[ 8008 7997 7996 7995 ] final   35.33 input   59.86 | X-H torsion
[ 10167 10162 10161 10158 ] final   21.43 input  -65.29 | X-H torsion
[ 10718 10713 10712 10709 ] final  -23.86 input   66.30 | X-H torsion
[ 10763 10752 10751 10750 ] final  114.99 input  -60.55 | X-H torsion
[ 11005 11000 10999 10996 ] final  153.51 input  -57.11 | X-H torsion

> <Gold.Protein.ActiveResidues>
 VAL166  LYS551  ARG553  GLY616  TRP617  ASP618  TYR619  PRO620  LYS621  CYS622 
 ASP623  PHE694  ASN695  SER759  ASP760  ASP761  ALA762  ILE779  LEU786  VAL792 
 PHE793  MET794  SER795  GLU796  ALA797  LYS798  CYS799  TRP800  GLU811  SER814 

> <Gold.Protein.RotatedAtoms>
  151.7162  135.0903  160.0275 H   0  0  0  0  0  0  0  0  0  0  0  0  # atno 6907 bound_to 6896
  152.3631  133.6317  159.6038 H   0  0  0  0  0  0  0  0  0  0  0  0  # atno 6908 bound_to 6896
  150.7618  133.9308  159.3468 H   0  0  0  0  0  0  0  0  0  0  0  0  # atno 6909 bound_to 6896
  144.9032  140.6798  143.5072 H   0  0  0  0  0  0  0  0  0  0  0  0  # atno 7974 bound_to 7965
  155.1694  140.3290  155.4395 H   0  0  0  0  0  0  0  0  0  0  0  0  # atno 8008 bound_to 7997
  156.2515  140.1946  156.6748 H   0  0  0  0  0  0  0  0  0  0  0  0  # atno 8009 bound_to 7997
  154.6348  140.0578  156.9762 H   0  0  0  0  0  0  0  0  0  0  0  0  # atno 8010 bound_to 7997
  140.5427  143.9648  150.6529 H   0  0  0  0  0  0  0  0  0  0  0  0  # atno 10167 bound_to 10162
  156.4853  130.4554  149.6787 H   0  0  0  0  0  0  0  0  0  0  0  0  # atno 10718 bound_to 10713
  153.5155  135.3609  155.2607 H   0  0  0  0  0  0  0  0  0  0  0  0  # atno 10763 bound_to 10752
  154.8739  135.4033  154.3319 H   0  0  0  0  0  0  0  0  0  0  0  0  # atno 10764 bound_to 10752
  153.3980  135.7074  153.6513 H   0  0  0  0  0  0  0  0  0  0  0  0  # atno 10765 bound_to 10752
  140.1404  134.8742  157.2324 H   0  0  0  0  0  0  0  0  0  0  0  0  # atno 11005 bound_to 11000
  145.3581  139.1689  143.4398 LP  0  0  0  0  0  0  0  0  0  0  0  0  # atno 17320 bound_to 7965
  146.3119  140.3640  142.8667 LP  0  0  0  0  0  0  0  0  0  0  0  0  # atno 17321 bound_to 7965
  140.3053  143.3233  152.0932 LP  0  0  0  0  0  0  0  0  0  0  0  0  # atno 17342 bound_to 10162
  139.4995  144.6671  151.6331 LP  0  0  0  0  0  0  0  0  0  0  0  0  # atno 17343 bound_to 10162
  156.3480  130.7417  151.2372 LP  0  0  0  0  0  0  0  0  0  0  0  0  # atno 17370 bound_to 10713
  157.7479  131.0385  150.4506 LP  0  0  0  0  0  0  0  0  0  0  0  0  # atno 17371 bound_to 10713
  140.2729  134.3439  155.7367 LP  0  0  0  0  0  0  0  0  0  0  0  0  # atno 17394 bound_to 11000
  141.2185  133.7433  156.9249 LP  0  0  0  0  0  0  0  0  0  0  0  0  # atno 17395 bound_to 11000

$$$$
