AV-unprocessed.smi:287|AV-procd|sdf|2206|dock4
  -GOLD-   2262022 33D 1   1.00000     0.00000
 Structure written by MMmdl.
 55 58  0  0  0  0  0  0  0  0  1 V2000
  156.3847  129.8067  153.8746 C   0  0  0  0  0  0  0  0  0  0  0  0
  154.9569  129.8986  154.2913 C   0  0  0  0  0  0  0  0  0  0  0  0
  153.8318  129.1976  153.9687 C   0  0  0  0  0  0  0  0  0  0  0  0
  152.7510  129.7613  154.7103 C   0  0  0  0  0  0  0  0  0  0  0  0
  151.3032  129.2902  154.6717 C   0  0  2  0  0  0  0  0  0  0  0  0
  150.8603  128.8413  156.0744 C   0  0  0  0  0  0  0  0  0  0  0  0
  151.1134  128.1602  153.8424 O   0  0  0  0  0  0  0  0  0  0  0  0
  150.3466  130.3794  154.1355 C   0  0  0  0  0  0  0  0  0  0  0  0
  149.9922  131.3705  155.1464 N   0  0  0  0  0  0  0  0  0  0  0  0
  148.9314  132.1829  154.9581 C   0  0  0  0  0  0  0  0  0  0  0  0
  148.6885  133.2230  155.7974 N   0  0  0  0  0  0  0  0  0  0  0  0
  147.6321  134.0141  155.5889 C   0  0  0  0  0  0  0  0  0  0  0  0
  146.7144  133.9425  154.6227 N   0  0  0  0  0  0  0  0  0  0  0  0
  146.9538  132.9000  153.7752 C   0  0  0  0  0  0  0  0  0  0  0  0
  148.0345  131.9800  153.8779 C   0  0  0  0  0  0  0  0  0  0  0  0
  147.9621  131.0498  152.8499 N   0  0  0  0  0  0  0  0  0  0  0  0
  146.8985  131.4032  152.1805 C   0  0  0  0  0  0  0  0  0  0  0  0
  146.2290  132.5044  152.6669 N   0  0  0  0  0  0  0  0  0  0  0  0
  144.9864  133.1269  152.1028 C   0  0  2  0  0  0  0  0  0  0  0  0
  144.5760  132.4134  150.9725 O   0  0  0  0  0  0  0  0  0  0  0  0
  144.5571  133.2599  149.8226 C   0  0  1  0  0  0  0  0  0  0  0  0
  143.4435  132.8114  148.8636 C   0  0  0  0  0  0  0  0  0  0  0  0
  143.2293  133.7945  147.8738 O   0  0  0  0  0  0  0  0  0  0  0  0
  144.3226  134.6455  150.4267 C   0  0  2  0  0  0  0  0  0  0  0  0
  144.6778  135.7061  149.5603 O   0  0  0  0  0  0  0  0  0  0  0  0
  145.1748  134.5982  151.6865 C   0  0  2  0  0  0  0  0  0  0  0  0
  146.5280  134.9533  151.4430 O   0  0  0  0  0  0  0  0  0  0  0  0
  153.3171  130.7856  155.4314 C   0  0  0  0  0  0  0  0  0  0  0  0
  152.7876  131.7903  156.4014 C   0  0  0  0  0  0  0  0  0  0  0  0
  154.6540  130.8736  155.1843 O   0  0  0  0  0  0  0  0  0  0  0  0
  144.2368  133.0028  152.8854 H   0  0  0  0  0  0  0  0  0  0  0  0
  145.5314  133.2386  149.3311 H   0  0  0  0  0  0  0  0  0  0  0  0
  143.2726  134.7501  150.7050 H   0  0  0  0  0  0  0  0  0  0  0  0
  144.7834  135.2523  152.4663 H   0  0  0  0  0  0  0  0  0  0  0  0
  156.5430  128.9542  153.2139 H   0  0  0  0  0  0  0  0  0  0  0  0
  157.0337  129.6865  154.7421 H   0  0  0  0  0  0  0  0  0  0  0  0
  156.6909  130.7079  153.3433 H   0  0  0  0  0  0  0  0  0  0  0  0
  153.7878  128.3666  153.2804 H   0  0  0  0  0  0  0  0  0  0  0  0
  150.9290  129.6596  156.7921 H   0  0  0  0  0  0  0  0  0  0  0  0
  151.4841  128.0269  156.4456 H   0  0  0  0  0  0  0  0  0  0  0  0
  149.8267  128.4933  156.0756 H   0  0  0  0  0  0  0  0  0  0  0  0
  151.6571  128.2566  153.0757 H   0  0  0  0  0  0  0  0  0  0  0  0
  150.7643  130.8653  153.2523 H   0  0  0  0  0  0  0  0  0  0  0  0
  149.4179  129.9023  153.8189 H   0  0  0  0  0  0  0  0  0  0  0  0
  150.5473  131.3614  155.9905 H   0  0  0  0  0  0  0  0  0  0  0  0
  147.5034  134.8199  156.2963 H   0  0  0  0  0  0  0  0  0  0  0  0
  146.5684  130.8629  151.3050 H   0  0  0  0  0  0  0  0  0  0  0  0
  143.6785  131.8518  148.4021 H   0  0  0  0  0  0  0  0  0  0  0  0
  142.5068  132.6880  149.4080 H   0  0  0  0  0  0  0  0  0  0  0  0
  144.0682  134.0712  147.5379 H   0  0  0  0  0  0  0  0  0  0  0  0
  144.8758  135.3392  148.7114 H   0  0  0  0  0  0  0  0  0  0  0  0
  146.7375  135.7114  151.9670 H   0  0  0  0  0  0  0  0  0  0  0  0
  151.9926  132.3828  155.9488 H   0  0  0  0  0  0  0  0  0  0  0  0
  153.5706  132.4747  156.7283 H   0  0  0  0  0  0  0  0  0  0  0  0
  152.3832  131.2973  157.2854 H   0  0  0  0  0  0  0  0  0  0  0  0
  1  2  1  0  0  0  0
  1 35  1  0  0  0  0
  1 36  1  0  0  0  0
  1 37  1  0  0  0  0
  2 30  1  0  0  0  0
  2  3  2  0  0  0  0
  3  4  1  0  0  0  0
  3 38  1  0  0  0  0
  4  5  1  0  0  0  0
  4 28  2  0  0  0  0
  5  6  1  0  0  0  0
  5  7  1  0  0  0  0
  5  8  1  0  0  0  0
  6 39  1  0  0  0  0
  6 40  1  0  0  0  0
  6 41  1  0  0  0  0
  7 42  1  0  0  0  0
  8  9  1  0  0  0  0
  8 43  1  0  0  0  0
  8 44  1  0  0  0  0
  9 10  1  0  0  0  0
  9 45  1  0  0  0  0
 10 15  1  0  0  0  0
 10 11  2  0  0  0  0
 11 12  1  0  0  0  0
 12 13  2  0  0  0  0
 12 46  1  0  0  0  0
 13 14  1  0  0  0  0
 14 18  1  0  0  0  0
 14 15  2  0  0  0  0
 15 16  1  0  0  0  0
 16 17  2  0  0  0  0
 17 18  1  0  0  0  0
 17 47  1  0  0  0  0
 18 19  1  0  0  0  0
 19 31  1  0  0  0  0
 19 26  1  0  0  0  0
 19 20  1  0  0  0  0
 20 21  1  0  0  0  0
 21 32  1  0  0  0  0
 21 22  1  0  0  0  0
 21 24  1  0  0  0  0
 22 23  1  0  0  0  0
 22 48  1  0  0  0  0
 22 49  1  0  0  0  0
 23 50  1  0  0  0  0
 24 33  1  0  0  0  0
 24 25  1  0  0  0  0
 24 26  1  0  0  0  0
 25 51  1  0  0  0  0
 26 34  1  0  0  0  0
 26 27  1  0  0  0  0
 27 52  1  0  0  0  0
 28 29  1  0  0  0  0
 28 30  1  0  0  0  0
 29 53  1  0  0  0  0
 29 54  1  0  0  0  0
 29 55  1  0  0  0  0
M  END
> <s_m_source_file>
AV-unprocessed.smi

> <i_m_source_file_index>
287

> <i_lp_mmshare_version>
43012

> <i_f3d_flags>
0

> <s_epik_input>
W0NIM11jMVtjSF1jKGMobzEpW0NIM10pW0NAQF0oW0NIM10pKFtPSF0pW0NIMl1bTkhdYyhuW2NIXW4yKWMoYzIzKW5bY0hdbjNbQ0BASF00T1tDQEhdKFtDSDJdW09IXSlbQ0BASF0oW09IXSlbQ0BIXTRbT0hd

> <s_epik_cmdline>
J2VwaWtfcHl0aG9uJywgJy1waCcsICc3LjAnLCAnLXRuJywgJzgnLCAnLW1hJywgJzIwMCcsICctbWV0YWxfYmluZGluZycsICctaW1hZScsICc8aW5maWxlLm1hZT4nLCAnLW9tYWUnLCAnPG91dGZpbGUubWFlPic=

> <r_lp_tautomer_probability>
1

> <r_epik_Ionization_Penalty>
0.000992612

> <r_epik_Ionization_Penalty_Charging>
0

> <r_epik_Ionization_Penalty_Neutral>
0.000992612

> <r_epik_State_Penalty>
-0

> <r_epik_Charging_Adjusted_Penalty>
0

> <i_epik_Tot_Q>
0

> <i_epik_Tot_abs_Q>
0

> <r_epik_Metal_State_Penalty>
-0

> <b_epik_Metal_Only>
0

> <s_epik_Chemistry_Notes>
This compound contains an acetal/aminal-like group ( X-CH(R)-Y where X, Y are N, S, or O) that may be acid/base labile, releasing an aldehyde.

> <s_lp_Force_Field>
OPLS_2005

> <r_lp_Energy>
49.5285

> <b_lp_Chiralities_Consistent>
1

> <s_lp_Variant>
AV-unprocessed.smi:287-30

> <Gold.Version>
5.8.1

> <Gold.Id.Protein>
6NUR|6NUR_protein|mol2

> <Gold.PLP.Fitness>
56.2734

> <Gold.PLP.PLP>
-44.4085

> <Gold.PLP.part.hbond>
-8.0000

> <Gold.PLP.part.metal>
0.0000

> <Gold.PLP.part.buried>
-4.2277

> <Gold.PLP.part.nonpolar>
-33.4506

> <Gold.PLP.part.repulsive>
1.4477

> <Gold.PLP.ligand.clash>
0.0000

> <Gold.PLP.ligand.torsion>
0.4875

> <Gold.PLP.Chemscore.Hbond>
4.0468

> <Gold.PLP.Chemscore.CHOScore>
0.2012

> <Gold.PLP.Chemscore.Metal>
0.0000

> <Gold.Chemscore.Hbonds>
donor molecule, donor type, donor heavy atom, donor atom, acceptor molecule, acceptor atom, score
      L1  H     7    42       P1 10737  0.89
      L1  H    23    50       P1  7921  0.67
      L1  H    25    51       P1  7921  0.93
      L1  H    27    52       P1  7948  0.09
      P1  H 10192 10197       L1    23  1.00
      L1  C    17    47       P1 10747  0.20

> <Gold.PLP.Chemscore.Internal.Correction>
0.0961

> <Gold.Rescore>
     Score         DG    S(hbond)    S(metal)    S(lipo)     H(rot)  DE(clash)    DE(int)     intcor
     10.54     -14.46       4.03        0.00      76.94       5.27       1.91       2.01       ----

> <Gold.Chemscore.Fitness>
10.5447

> <Gold.Chemscore.DG>
-14.4557

> <Gold.Chemscore.ZeroCoef>
-5.4800

> <Gold.Chemscore.Hbond>
4.0291

> <Gold.Chemscore.Metal>
0.0000

> <Gold.Chemscore.Lipo>
76.9425

> <Gold.Chemscore.Internal_Hbond>
0.0000

> <Gold.Chemscore.DEClash>
1.9059

> <Gold.Chemscore.DEInternal>
2.0050

> <Gold.Chemscore.Rot>
5.2672

> <Gold.Chemscore.Internal.Correction>
   9.000000E+99

> <Gold.Chemscore.Hbonds>
donor molecule, donor type, donor heavy atom, donor atom, acceptor molecule, acceptor atom, score
      L1  H     7    42       P1 10737  0.80
      L1  H    23    50       P1  7921  0.66
      L1  H    25    51       P1  7921  0.90
      L1  H    27    52       P1  7948  0.10
      P1  H 10192 10197       L1    23  0.34

> <Gold.Chemscore.Hbond.Weighted>
-13.4574

> <Gold.Chemscore.Metal.Weighted>
-0.0000

> <Gold.Chemscore.Lipo.Weighted>
-9.0023

> <Gold.Chemscore.Internal_Hbond.Weighted>
0.0000

> <Gold.Chemscore.DEClash.Weighted>
1.9059

> <Gold.Chemscore.DEInternal.Weighted>
2.0050

> <Gold.Chemscore.Rot.Weighted>
13.4839

> <Gold.Chemscore.Internal.Correction.Weighted>
   9.000000E+99

> <Gold.Protein.RotatedTorsions>
[ 6907 6896 6895 6894 ] final  147.78 input  -60.11 | X-H torsion
[ 7974 7965 7964 7962 ] final   41.11 input  175.53 | X-H torsion
[ 8008 7997 7996 7995 ] final   38.64 input   59.86 | X-H torsion
[ 10167 10162 10161 10158 ] final   12.20 input  -65.29 | X-H torsion
[ 10718 10713 10712 10709 ] final  -37.53 input   66.30 | X-H torsion
[ 10763 10752 10751 10750 ] final -156.20 input  -60.55 | X-H torsion
[ 11005 11000 10999 10996 ] final -155.59 input  -57.11 | X-H torsion

> <Gold.Protein.ActiveResidues>
 VAL166  LYS551  ARG553  GLY616  TRP617  ASP618  TYR619  PRO620  LYS621  CYS622 
 ASP623  PHE694  ASN695  SER759  ASP760  ASP761  ALA762  ILE779  LEU786  VAL792 
 PHE793  MET794  SER795  GLU796  ALA797  LYS798  CYS799  TRP800  GLU811  SER814 

> <Gold.Protein.RotatedAtoms>
  152.1503  133.4517  159.4809 H   0  0  0  0  0  0  0  0  0  0  0  0  # atno 6907 bound_to 6896
  150.6895  134.2197  159.4401 H   0  0  0  0  0  0  0  0  0  0  0  0  # atno 6908 bound_to 6896
  152.0094  134.9884  160.0618 H   0  0  0  0  0  0  0  0  0  0  0  0  # atno 6909 bound_to 6896
  146.0850  139.5454  142.9512 H   0  0  0  0  0  0  0  0  0  0  0  0  # atno 7974 bound_to 7965
  155.2235  140.3333  155.4312 H   0  0  0  0  0  0  0  0  0  0  0  0  # atno 8008 bound_to 7997
  156.2324  140.1856  156.7255 H   0  0  0  0  0  0  0  0  0  0  0  0  # atno 8009 bound_to 7997
  154.6000  140.0624  156.9341 H   0  0  0  0  0  0  0  0  0  0  0  0  # atno 8010 bound_to 7997
  140.6083  143.8461  150.7038 H   0  0  0  0  0  0  0  0  0  0  0  0  # atno 10167 bound_to 10162
  156.3142  130.4256  149.8021 H   0  0  0  0  0  0  0  0  0  0  0  0  # atno 10718 bound_to 10713
  154.7731  135.3151  154.8149 H   0  0  0  0  0  0  0  0  0  0  0  0  # atno 10763 bound_to 10752
  153.8879  135.6828  153.4767 H   0  0  0  0  0  0  0  0  0  0  0  0  # atno 10764 bound_to 10752
  153.1348  135.4764  154.9341 H   0  0  0  0  0  0  0  0  0  0  0  0  # atno 10765 bound_to 10752
  140.6848  134.4105  157.5224 H   0  0  0  0  0  0  0  0  0  0  0  0  # atno 11005 bound_to 11000
  145.6146  141.0333  143.1948 LP  0  0  0  0  0  0  0  0  0  0  0  0  # atno 17320 bound_to 7965
  144.7319  139.7699  143.7344 LP  0  0  0  0  0  0  0  0  0  0  0  0  # atno 17321 bound_to 7965
  140.2023  143.3949  152.1782 LP  0  0  0  0  0  0  0  0  0  0  0  0  # atno 17342 bound_to 10162
  139.5342  144.7192  151.4951 LP  0  0  0  0  0  0  0  0  0  0  0  0  # atno 17343 bound_to 10162
  156.5353  130.8276  151.3251 LP  0  0  0  0  0  0  0  0  0  0  0  0  # atno 17370 bound_to 10713
  157.7398  130.9838  150.2335 LP  0  0  0  0  0  0  0  0  0  0  0  0  # atno 17371 bound_to 10713
  139.8941  134.8715  156.2194 LP  0  0  0  0  0  0  0  0  0  0  0  0  # atno 17394 bound_to 11000
  141.0288  133.7000  156.1394 LP  0  0  0  0  0  0  0  0  0  0  0  0  # atno 17395 bound_to 11000

$$$$
