AV-unprocessed.smi:415|AV-procd|sdf|2519|dock8
  -GOLD-   2262022473D 1   1.00000     0.00000
 Structure written by MMmdl.
 53 54  0  0  0  0  0  0  0  0  1 V2000
  148.7511  132.2497  153.6145 C   0  0  0  0  0  0  0  0  0  0  0  0
  148.8782  133.1379  154.7111 O   0  0  0  0  0  0  0  0  0  0  0  0
  149.8062  134.1799  154.4624 C   0  0  0  0  0  0  0  0  0  0  0  0
  149.9262  135.0460  155.7248 C   0  0  0  0  0  0  0  0  0  0  0  0
  149.9668  136.4646  155.4275 N   0  0  0  0  0  0  0  0  0  0  0  0
  148.8884  137.1609  154.8892 C   0  0  0  0  0  0  0  0  0  0  0  0
  147.7025  136.4954  154.6357 N   0  0  0  0  0  0  0  0  0  0  0  0
  148.9673  138.4830  154.6200 C   0  0  0  0  0  0  0  0  0  0  0  0
  150.1769  139.2499  154.8812 C   0  0  0  0  0  0  0  0  0  0  0  0
  150.2772  140.4490  154.6191 O   0  0  0  0  0  0  0  0  0  0  0  0
  151.2489  138.5299  155.4574 N   0  0  0  0  0  0  0  0  0  0  0  0
  152.5107  139.2522  155.7351 C   0  0  0  0  0  0  0  0  0  0  0  0
  152.5735  139.8471  157.1504 C   0  0  0  0  0  0  0  0  0  0  0  0
  153.2408  139.3103  158.0358 O   0  0  0  0  0  0  0  0  0  0  0  0
  151.8517  140.9607  157.3478 N   0  0  0  0  0  0  0  0  0  0  0  0
  151.7500  141.6926  158.6085 C   0  0  1  0  0  0  0  0  0  0  0  0
  153.1502  141.8568  159.2306 C   0  0  0  0  0  0  0  0  0  0  0  0
  153.0797  142.5965  160.5748 C   0  0  0  0  0  0  0  0  0  0  0  0
  152.3615  143.9482  160.4390 C   0  0  0  0  0  0  0  0  0  0  0  0
  150.9623  143.7827  159.8114 C   0  0  1  0  0  0  0  0  0  0  0  0
  150.1937  145.1140  159.7686 C   0  0  0  0  0  0  0  0  0  0  0  0
  151.0326  143.0604  158.4391 C   0  0  1  0  0  0  0  0  0  0  0  0
  151.6403  143.9299  157.3135 C   0  0  0  0  0  0  0  0  0  0  0  0
  151.1685  137.1481  155.7460 C   0  0  0  0  0  0  0  0  0  0  0  0
  152.1262  136.5616  156.2580 O   0  0  0  0  0  0  0  0  0  0  0  0
  148.0294  131.4698  153.8571 H   0  0  0  0  0  0  0  0  0  0  0  0
  149.7019  131.7674  153.3843 H   0  0  0  0  0  0  0  0  0  0  0  0
  148.3975  132.7703  152.7237 H   0  0  0  0  0  0  0  0  0  0  0  0
  150.7783  133.7569  154.2041 H   0  0  0  0  0  0  0  0  0  0  0  0
  149.4728  134.7833  153.6165 H   0  0  0  0  0  0  0  0  0  0  0  0
  149.1127  134.8649  156.4294 H   0  0  0  0  0  0  0  0  0  0  0  0
  150.8346  134.8121  156.2793 H   0  0  0  0  0  0  0  0  0  0  0  0
  147.5911  135.5106  154.8300 H   0  0  0  0  0  0  0  0  0  0  0  0
  146.8893  136.9745  154.2761 H   0  0  0  0  0  0  0  0  0  0  0  0
  148.1138  138.9946  154.1986 H   0  0  0  0  0  0  0  0  0  0  0  0
  153.3692  138.5941  155.5896 H   0  0  0  0  0  0  0  0  0  0  0  0
  152.6760  140.0594  155.0202 H   0  0  0  0  0  0  0  0  0  0  0  0
  151.3303  141.3304  156.5664 H   0  0  0  0  0  0  0  0  0  0  0  0
  151.1634  141.0850  159.3010 H   0  0  0  0  0  0  0  0  0  0  0  0
  153.6072  140.8779  159.3809 H   0  0  0  0  0  0  0  0  0  0  0  0
  153.8068  142.3980  158.5485 H   0  0  0  0  0  0  0  0  0  0  0  0
  152.5528  141.9773  161.3018 H   0  0  0  0  0  0  0  0  0  0  0  0
  154.0846  142.7471  160.9700 H   0  0  0  0  0  0  0  0  0  0  0  0
  152.2743  144.4089  161.4237 H   0  0  0  0  0  0  0  0  0  0  0  0
  152.9668  144.6282  159.8387 H   0  0  0  0  0  0  0  0  0  0  0  0
  150.3937  143.1313  160.4772 H   0  0  0  0  0  0  0  0  0  0  0  0
  150.7289  145.8752  159.2010 H   0  0  0  0  0  0  0  0  0  0  0  0
  150.0440  145.5075  160.7742 H   0  0  0  0  0  0  0  0  0  0  0  0
  149.2098  144.9856  159.3168 H   0  0  0  0  0  0  0  0  0  0  0  0
  150.0052  142.8491  158.1389 H   0  0  0  0  0  0  0  0  0  0  0  0
  152.6700  144.2147  157.5259 H   0  0  0  0  0  0  0  0  0  0  0  0
  151.0700  144.8455  157.1622 H   0  0  0  0  0  0  0  0  0  0  0  0
  151.6360  143.4070  156.3572 H   0  0  0  0  0  0  0  0  0  0  0  0
  1  2  1  0  0  0  0
  1 26  1  0  0  0  0
  1 27  1  0  0  0  0
  1 28  1  0  0  0  0
  2  3  1  0  0  0  0
  3  4  1  0  0  0  0
  3 29  1  0  0  0  0
  3 30  1  0  0  0  0
  4  5  1  0  0  0  0
  4 31  1  0  0  0  0
  4 32  1  0  0  0  0
  5 24  1  0  0  0  0
  5  6  1  0  0  0  0
  6  7  1  0  0  0  0
  6  8  2  0  0  0  0
  7 33  1  0  0  0  0
  7 34  1  0  0  0  0
  8  9  1  0  0  0  0
  8 35  1  0  0  0  0
  9 10  2  0  0  0  0
  9 11  1  0  0  0  0
 11 12  1  0  0  0  0
 11 24  1  0  0  0  0
 12 13  1  0  0  0  0
 12 36  1  0  0  0  0
 12 37  1  0  0  0  0
 13 14  2  0  0  0  0
 13 15  1  0  0  0  0
 15 16  1  0  0  0  0
 15 38  1  0  0  0  0
 16 22  1  0  0  0  0
 16 17  1  0  0  0  0
 16 39  1  0  0  0  0
 17 18  1  0  0  0  0
 17 40  1  0  0  0  0
 17 41  1  0  0  0  0
 18 19  1  0  0  0  0
 18 42  1  0  0  0  0
 18 43  1  0  0  0  0
 19 20  1  0  0  0  0
 19 44  1  0  0  0  0
 19 45  1  0  0  0  0
 20 21  1  0  0  0  0
 20 22  1  0  0  0  0
 20 46  1  0  0  0  0
 21 47  1  0  0  0  0
 21 48  1  0  0  0  0
 21 49  1  0  0  0  0
 22 23  1  0  0  0  0
 22 50  1  0  0  0  0
 23 51  1  0  0  0  0
 23 52  1  0  0  0  0
 23 53  1  0  0  0  0
 24 25  2  0  0  0  0
M  END
> <s_m_source_file>
AV-unprocessed.smi

> <i_m_source_file_index>
415

> <i_lp_mmshare_version>
43012

> <i_f3d_flags>
0

> <s_epik_input>
W0NIM11PW0NIMl1bQ0gyXW4xYyhbTkgyXSlbY0hdYyg9TyluKGMxPU8pW0NIMl1DKD1PKVtOSF1bQ0BASF0yW0NIMl1bQ0gyXVtDSDJdW0NAQEhdKFtDSDNdKVtDQEhdMltDSDNd

> <s_epik_cmdline>
J2VwaWtfcHl0aG9uJywgJy1waCcsICc3LjAnLCAnLXRuJywgJzgnLCAnLW1hJywgJzIwMCcsICctbWV0YWxfYmluZGluZycsICctaW1hZScsICc8aW5maWxlLm1hZT4nLCAnLW9tYWUnLCAnPG91dGZpbGUubWFlPic=

> <r_lp_tautomer_probability>
1

> <r_epik_Ionization_Penalty>
8.6647e-06

> <r_epik_Ionization_Penalty_Charging>
1.81162e-08

> <r_epik_Ionization_Penalty_Neutral>
8.64658e-06

> <r_epik_State_Penalty>
-0

> <r_epik_Charging_Adjusted_Penalty>
1.81162e-08

> <i_epik_Tot_Q>
0

> <i_epik_Tot_abs_Q>
0

> <r_epik_Metal_State_Penalty>
-0

> <b_epik_Metal_Only>
0

> <s_lp_Force_Field>
OPLS_2005

> <r_lp_Energy>
22.062

> <b_lp_Chiralities_Consistent>
1

> <s_lp_Variant>
AV-unprocessed.smi:415-2

> <Gold.Version>
5.8.1

> <Gold.Id.Protein>
6NUR|6NUR_protein|mol2

> <Gold.PLP.Fitness>
47.1407

> <Gold.PLP.PLP>
-43.3340

> <Gold.PLP.part.hbond>
-4.0000

> <Gold.PLP.part.metal>
0.0000

> <Gold.PLP.part.buried>
-2.1438

> <Gold.PLP.part.nonpolar>
-37.3789

> <Gold.PLP.part.repulsive>
0.2690

> <Gold.PLP.ligand.clash>
0.0000

> <Gold.PLP.ligand.torsion>
1.0583

> <Gold.PLP.Chemscore.Hbond>
1.9600

> <Gold.PLP.Chemscore.CHOScore>
0.0000

> <Gold.PLP.Chemscore.Metal>
0.0000

> <Gold.Chemscore.Hbonds>
donor molecule, donor type, donor heavy atom, donor atom, acceptor molecule, acceptor atom, score
      P1  H  7989  7998       L1    10  0.98
      P1  H 10752 10763       L1    25  1.00

> <Gold.PLP.Chemscore.Internal.Correction>
0.0433

> <Gold.Rescore>
     Score         DG    S(hbond)    S(metal)    S(lipo)     H(rot)  DE(clash)    DE(int)     intcor
     15.49     -18.71       1.96        0.00     106.69       2.26       1.02       2.19       ----

> <Gold.Chemscore.Fitness>
15.4948

> <Gold.Chemscore.DG>
-18.7052

> <Gold.Chemscore.ZeroCoef>
-5.4800

> <Gold.Chemscore.Hbond>
1.9578

> <Gold.Chemscore.Metal>
0.0000

> <Gold.Chemscore.Lipo>
106.6942

> <Gold.Chemscore.Internal_Hbond>
0.0000

> <Gold.Chemscore.DEClash>
1.0250

> <Gold.Chemscore.DEInternal>
2.1854

> <Gold.Chemscore.Rot>
2.2645

> <Gold.Chemscore.Internal.Correction>
   9.000000E+99

> <Gold.Chemscore.Hbonds>
donor molecule, donor type, donor heavy atom, donor atom, acceptor molecule, acceptor atom, score
      P1  H  7989  7998       L1    10  0.85
      P1  H 10752 10763       L1    25  0.94

> <Gold.Chemscore.Hbond.Weighted>
-6.5391

> <Gold.Chemscore.Metal.Weighted>
-0.0000

> <Gold.Chemscore.Lipo.Weighted>
-12.4832

> <Gold.Chemscore.Internal_Hbond.Weighted>
0.0000

> <Gold.Chemscore.DEClash.Weighted>
1.0250

> <Gold.Chemscore.DEInternal.Weighted>
2.1854

> <Gold.Chemscore.Rot.Weighted>
5.7972

> <Gold.Chemscore.Internal.Correction.Weighted>
   9.000000E+99

> <Gold.Protein.RotatedTorsions>
[ 6907 6896 6895 6894 ] final  -13.02 input  -60.11 | X-H torsion
[ 7974 7965 7964 7962 ] final   12.06 input  175.53 | X-H torsion
[ 8008 7997 7996 7995 ] final  170.31 input   59.86 | X-H torsion
[ 10167 10162 10161 10158 ] final  122.81 input  -65.29 | X-H torsion
[ 10718 10713 10712 10709 ] final   64.77 input   66.30 | X-H torsion
[ 10763 10752 10751 10750 ] final   94.48 input  -60.55 | X-H torsion
[ 11005 11000 10999 10996 ] final  162.86 input  -57.11 | X-H torsion

> <Gold.Protein.ActiveResidues>
 VAL166  LYS551  ARG553  GLY616  TRP617  ASP618  TYR619  PRO620  LYS621  CYS622 
 ASP623  PHE694  ASN695  SER759  ASP760  ASP761  ALA762  ILE779  LEU786  VAL792 
 PHE793  MET794  SER795  GLU796  ALA797  LYS798  CYS799  TRP800  GLU811  SER814 

> <Gold.Protein.RotatedAtoms>
  151.3615  135.0905  159.9435 H   0  0  0  0  0  0  0  0  0  0  0  0  # atno 6907 bound_to 6896
  152.5160  133.9254  159.7565 H   0  0  0  0  0  0  0  0  0  0  0  0  # atno 6908 bound_to 6896
  150.9649  133.6351  159.2777 H   0  0  0  0  0  0  0  0  0  0  0  0  # atno 6909 bound_to 6896
  146.2359  139.9393  142.8485 H   0  0  0  0  0  0  0  0  0  0  0  0  # atno 7974 bound_to 7965
  156.1377  140.1541  156.8968 H   0  0  0  0  0  0  0  0  0  0  0  0  # atno 8008 bound_to 7997
  154.4961  140.0838  156.7739 H   0  0  0  0  0  0  0  0  0  0  0  0  # atno 8009 bound_to 7997
  155.4137  140.3420  155.4268 H   0  0  0  0  0  0  0  0  0  0  0  0  # atno 8010 bound_to 7997
  139.5836  144.6997  151.3465 H   0  0  0  0  0  0  0  0  0  0  0  0  # atno 10167 bound_to 10162
  157.6061  130.9178  149.9889 H   0  0  0  0  0  0  0  0  0  0  0  0  # atno 10718 bound_to 10713
  153.2421  135.4288  155.0709 H   0  0  0  0  0  0  0  0  0  0  0  0  # atno 10763 bound_to 10752
  154.8345  135.3405  154.6634 H   0  0  0  0  0  0  0  0  0  0  0  0  # atno 10764 bound_to 10752
  153.7057  135.7026  153.5107 H   0  0  0  0  0  0  0  0  0  0  0  0  # atno 10765 bound_to 10752
  140.2300  134.8131  157.3307 H   0  0  0  0  0  0  0  0  0  0  0  0  # atno 11005 bound_to 11000
  145.1968  140.9836  143.4179 LP  0  0  0  0  0  0  0  0  0  0  0  0  # atno 17320 bound_to 7965
  144.9809  139.3785  143.6263 LP  0  0  0  0  0  0  0  0  0  0  0  0  # atno 17321 bound_to 7965
  140.7111  143.7387  150.7569 LP  0  0  0  0  0  0  0  0  0  0  0  0  # atno 17342 bound_to 10162
  140.0926  143.4863  152.2470 LP  0  0  0  0  0  0  0  0  0  0  0  0  # atno 17343 bound_to 10162
  156.1149  130.3648  149.9986 LP  0  0  0  0  0  0  0  0  0  0  0  0  # atno 17370 bound_to 10713
  156.8077  130.9313  151.3645 LP  0  0  0  0  0  0  0  0  0  0  0  0  # atno 17371 bound_to 10713
  140.1760  134.4549  155.7801 LP  0  0  0  0  0  0  0  0  0  0  0  0  # atno 17394 bound_to 11000
  141.2218  133.6962  156.7788 LP  0  0  0  0  0  0  0  0  0  0  0  0  # atno 17395 bound_to 11000

$$$$
