AV-unprocessed.smi:2052|AV-procd|sdf|8329|dock3
  -GOLD-   2272010593D 1   1.00000     0.00000
 Structure written by MMmdl.
 41 42  0  0  0  0  0  0  0  0  1 V2000
  151.8638  145.3464  159.6370 C   0  0  0  0  0  0  0  0  0  0  0  0
  151.6220  143.5801  159.3040 S   0  0  0  0  0  0  0  0  0  0  0  0
  152.9346  142.8525  160.3298 C   0  0  1  0  0  0  0  0  0  0  0  0
  152.6250  143.0654  161.8203 C   0  0  0  0  0  0  0  0  0  0  0  0
  153.1505  141.3671  160.0148 C   0  0  0  0  0  0  0  0  0  0  0  0
  154.0887  140.7520  160.5224 O   0  0  0  0  0  0  0  0  0  0  0  0
  152.2705  140.7993  159.1753 N   0  0  0  0  0  0  0  0  0  0  0  0
  152.3110  139.4065  158.7430 C   0  0  0  0  0  0  0  0  0  0  0  0
  151.8445  139.1877  157.3110 C   0  0  0  0  0  0  0  0  0  0  0  0
  152.6848  138.5991  156.3429 C   0  0  0  0  0  0  0  0  0  0  0  0
  152.1842  138.4264  155.0399 C   0  0  0  0  0  0  0  0  0  0  0  0
  150.9436  138.8042  154.6675 N   0  0  0  0  0  0  0  0  0  0  0  0
  150.1305  139.3852  155.5844 C   0  0  0  0  0  0  0  0  0  0  0  0
  148.8371  139.7798  155.1761 N   0  0  0  0  0  0  0  0  0  0  0  0
  148.7346  141.1130  154.5871 C   0  0  0  0  0  0  0  0  0  0  0  0
  147.2603  141.5386  154.4744 C   0  0  0  0  0  0  0  0  0  0  0  0
  146.5277  140.5569  153.7487 O   0  0  0  0  0  0  0  0  0  0  0  0
  146.5476  139.2931  154.4036 C   0  0  0  0  0  0  0  0  0  0  0  0
  147.9960  138.7869  154.5093 C   0  0  0  0  0  0  0  0  0  0  0  0
  150.5505  139.5904  156.9208 C   0  0  0  0  0  0  0  0  0  0  0  0
  151.1011  145.9310  159.1226 H   0  0  0  0  0  0  0  0  0  0  0  0
  152.8414  145.6760  159.2858 H   0  0  0  0  0  0  0  0  0  0  0  0
  151.7899  145.5470  160.7059 H   0  0  0  0  0  0  0  0  0  0  0  0
  153.8557  143.3936  160.1074 H   0  0  0  0  0  0  0  0  0  0  0  0
  153.3956  142.6233  162.4531 H   0  0  0  0  0  0  0  0  0  0  0  0
  151.6682  142.6225  162.0998 H   0  0  0  0  0  0  0  0  0  0  0  0
  152.5776  144.1282  162.0585 H   0  0  0  0  0  0  0  0  0  0  0  0
  151.5280  141.3731  158.8032 H   0  0  0  0  0  0  0  0  0  0  0  0
  153.3198  139.0111  158.8723 H   0  0  0  0  0  0  0  0  0  0  0  0
  151.6660  138.8270  159.4037 H   0  0  0  0  0  0  0  0  0  0  0  0
  153.6879  138.2816  156.5863 H   0  0  0  0  0  0  0  0  0  0  0  0
  152.7972  137.9740  154.2745 H   0  0  0  0  0  0  0  0  0  0  0  0
  149.2722  141.8580  155.1717 H   0  0  0  0  0  0  0  0  0  0  0  0
  149.1936  141.0949  153.5979 H   0  0  0  0  0  0  0  0  0  0  0  0
  146.8201  141.6799  155.4629 H   0  0  0  0  0  0  0  0  0  0  0  0
  147.1849  142.4934  153.9539 H   0  0  0  0  0  0  0  0  0  0  0  0
  146.0910  139.3752  155.3914 H   0  0  0  0  0  0  0  0  0  0  0  0
  145.9448  138.5874  153.8321 H   0  0  0  0  0  0  0  0  0  0  0  0
  148.3944  138.5861  153.5138 H   0  0  0  0  0  0  0  0  0  0  0  0
  148.0093  137.8468  155.0621 H   0  0  0  0  0  0  0  0  0  0  0  0
  149.8892  140.0327  157.6508 H   0  0  0  0  0  0  0  0  0  0  0  0
  1  2  1  0  0  0  0
  1 21  1  0  0  0  0
  1 22  1  0  0  0  0
  1 23  1  0  0  0  0
  2  3  1  0  0  0  0
  3  4  1  0  0  0  0
  3  5  1  0  0  0  0
  3 24  1  0  0  0  0
  4 25  1  0  0  0  0
  4 26  1  0  0  0  0
  4 27  1  0  0  0  0
  5  6  2  0  0  0  0
  5  7  1  0  0  0  0
  7  8  1  0  0  0  0
  7 28  1  0  0  0  0
  8  9  1  0  0  0  0
  8 29  1  0  0  0  0
  8 30  1  0  0  0  0
  9 20  1  0  0  0  0
  9 10  2  0  0  0  0
 10 11  1  0  0  0  0
 10 31  1  0  0  0  0
 11 12  2  0  0  0  0
 11 32  1  0  0  0  0
 12 13  1  0  0  0  0
 13 14  1  0  0  0  0
 13 20  2  0  0  0  0
 14 19  1  0  0  0  0
 14 15  1  0  0  0  0
 15 16  1  0  0  0  0
 15 33  1  0  0  0  0
 15 34  1  0  0  0  0
 16 17  1  0  0  0  0
 16 35  1  0  0  0  0
 16 36  1  0  0  0  0
 17 18  1  0  0  0  0
 18 19  1  0  0  0  0
 18 37  1  0  0  0  0
 18 38  1  0  0  0  0
 19 39  1  0  0  0  0
 19 40  1  0  0  0  0
 20 41  1  0  0  0  0
M  END
> <s_m_source_file>
AV-unprocessed.smi

> <i_m_source_file_index>
2052

> <i_lp_mmshare_version>
43012

> <i_f3d_flags>
0

> <s_epik_input>
W0NIM11TW0NASF0oW0NIM10pQyg9TylbTkhdW0NIMl1jMVtjSF1bY0hdbmMoW2NIXTEpTjJbQ0gyXVtDSDJdT1tDSDJdW0NIMl0y

> <s_epik_cmdline>
J2VwaWtfcHl0aG9uJywgJy1waCcsICc3LjAnLCAnLXRuJywgJzgnLCAnLW1hJywgJzIwMCcsICctbWV0YWxfYmluZGluZycsICctaW1hZScsICc8aW5maWxlLm1hZT4nLCAnLW9tYWUnLCAnPG91dGZpbGUubWFlPic=

> <r_lp_tautomer_probability>
1

> <r_epik_Ionization_Penalty>
0.00463955

> <r_epik_Ionization_Penalty_Charging>
0

> <r_epik_Ionization_Penalty_Neutral>
0.00463955

> <r_epik_State_Penalty>
0.00335544

> <r_epik_Charging_Adjusted_Penalty>
0.00335544

> <i_epik_Tot_Q>
0

> <i_epik_Tot_abs_Q>
0

> <r_epik_Metal_State_Penalty>
-0

> <b_epik_Metal_Only>
0

> <s_lp_Force_Field>
OPLS_2005

> <r_lp_Energy>
15.5355

> <b_lp_Chiralities_Consistent>
1

> <s_lp_Variant>
AV-unprocessed.smi:2052-2

> <Gold.Version>
5.8.1

> <Gold.Id.Protein>
6NUR|6NUR_protein|mol2

> <Gold.PLP.Fitness>
43.7173

> <Gold.PLP.PLP>
-41.7659

> <Gold.PLP.part.hbond>
-1.0000

> <Gold.PLP.part.metal>
0.0000

> <Gold.PLP.part.buried>
-2.5900

> <Gold.PLP.part.nonpolar>
-38.9101

> <Gold.PLP.part.repulsive>
0.5403

> <Gold.PLP.ligand.clash>
0.0000

> <Gold.PLP.ligand.torsion>
0.7131

> <Gold.PLP.Chemscore.Hbond>
1.0000

> <Gold.PLP.Chemscore.CHOScore>
0.0000

> <Gold.PLP.Chemscore.Metal>
0.0000

> <Gold.PLP.Chemscore.Internal.Correction>
0.3775

> <Gold.Rescore>
     Score         DG    S(hbond)    S(metal)    S(lipo)     H(rot)  DE(clash)    DE(int)     intcor
     11.61     -13.75       0.07        0.00     105.30       1.67       1.41       0.73       ----

> <Gold.Chemscore.Fitness>
11.6149

> <Gold.Chemscore.DG>
-13.7480

> <Gold.Chemscore.ZeroCoef>
-5.4800

> <Gold.Chemscore.Hbond>
0.0653

> <Gold.Chemscore.Metal>
0.0000

> <Gold.Chemscore.Lipo>
105.3038

> <Gold.Chemscore.Internal_Hbond>
0.0000

> <Gold.Chemscore.DEClash>
1.4077

> <Gold.Chemscore.DEInternal>
0.7254

> <Gold.Chemscore.Rot>
1.6682

> <Gold.Chemscore.Internal.Correction>
   9.000000E+99

> <Gold.Chemscore.Hbond.Weighted>
-0.2182

> <Gold.Chemscore.Metal.Weighted>
-0.0000

> <Gold.Chemscore.Lipo.Weighted>
-12.3205

> <Gold.Chemscore.Internal_Hbond.Weighted>
0.0000

> <Gold.Chemscore.DEClash.Weighted>
1.4077

> <Gold.Chemscore.DEInternal.Weighted>
0.7254

> <Gold.Chemscore.Rot.Weighted>
4.2707

> <Gold.Chemscore.Internal.Correction.Weighted>
   9.000000E+99

> <Gold.Protein.RotatedTorsions>
[ 6907 6896 6895 6894 ] final   71.49 input  -60.11 | X-H torsion
[ 7974 7965 7964 7962 ] final   51.37 input  175.53 | X-H torsion
[ 8008 7997 7996 7995 ] final  -10.54 input   59.86 | X-H torsion
[ 10167 10162 10161 10158 ] final -179.78 input  -65.29 | X-H torsion
[ 10718 10713 10712 10709 ] final  -83.08 input   66.30 | X-H torsion
[ 10763 10752 10751 10750 ] final  134.53 input  -60.55 | X-H torsion
[ 11005 11000 10999 10996 ] final  -91.09 input  -57.11 | X-H torsion

> <Gold.Protein.ActiveResidues>
 VAL166  LYS551  ARG553  GLY616  TRP617  ASP618  TYR619  PRO620  LYS621  CYS622 
 ASP623  PHE694  ASN695  SER759  ASP760  ASP761  ALA762  ILE779  LEU786  VAL792 
 PHE793  MET794  SER795  GLU796  ALA797  LYS798  CYS799  TRP800  GLU811  SER814 

> <Gold.Protein.RotatedAtoms>
  152.4813  134.4712  159.9635 H   0  0  0  0  0  0  0  0  0  0  0  0  # atno 6907 bound_to 6896
  151.4717  133.3561  159.2832 H   0  0  0  0  0  0  0  0  0  0  0  0  # atno 6908 bound_to 6896
  150.8888  134.8315  159.7339 H   0  0  0  0  0  0  0  0  0  0  0  0  # atno 6909 bound_to 6896
  145.9920  139.4349  143.0067 H   0  0  0  0  0  0  0  0  0  0  0  0  # atno 7974 bound_to 7965
  154.5545  140.2326  155.8432 H   0  0  0  0  0  0  0  0  0  0  0  0  # atno 8008 bound_to 7997
  156.1976  140.3061  155.9420 H   0  0  0  0  0  0  0  0  0  0  0  0  # atno 8009 bound_to 7997
  155.3007  140.0431  157.3020 H   0  0  0  0  0  0  0  0  0  0  0  0  # atno 8010 bound_to 7997
  139.5371  144.2468  152.0816 H   0  0  0  0  0  0  0  0  0  0  0  0  # atno 10167 bound_to 10162
  156.0023  130.4654  150.4203 H   0  0  0  0  0  0  0  0  0  0  0  0  # atno 10718 bound_to 10713
  153.8252  135.3111  155.3414 H   0  0  0  0  0  0  0  0  0  0  0  0  # atno 10763 bound_to 10752
  154.7996  135.4734  154.0247 H   0  0  0  0  0  0  0  0  0  0  0  0  # atno 10764 bound_to 10752
  153.1669  135.6871  153.8753 H   0  0  0  0  0  0  0  0  0  0  0  0  # atno 10765 bound_to 10752
  141.1552  133.7733  156.9830 H   0  0  0  0  0  0  0  0  0  0  0  0  # atno 11005 bound_to 11000
  145.7615  140.9933  143.1197 LP  0  0  0  0  0  0  0  0  0  0  0  0  # atno 17320 bound_to 7965
  144.6892  139.9336  143.7472 LP  0  0  0  0  0  0  0  0  0  0  0  0  # atno 17321 bound_to 7965
  140.1940  144.4724  150.6464 LP  0  0  0  0  0  0  0  0  0  0  0  0  # atno 17342 bound_to 10162
  140.6582  143.2244  151.5918 LP  0  0  0  0  0  0  0  0  0  0  0  0  # atno 17343 bound_to 10162
  157.2260  131.0493  151.2519 LP  0  0  0  0  0  0  0  0  0  0  0  0  # atno 17370 bound_to 10713
  157.3756  130.7204  149.6594 LP  0  0  0  0  0  0  0  0  0  0  0  0  # atno 17371 bound_to 10713
  140.1053  134.9510  157.1984 LP  0  0  0  0  0  0  0  0  0  0  0  0  # atno 17394 bound_to 11000
  140.3265  134.2858  155.7236 LP  0  0  0  0  0  0  0  0  0  0  0  0  # atno 17395 bound_to 11000

$$$$
