AV-unprocessed.smi:524|AV-procd|sdf|2806|dock7
  -GOLD-   2262023283D 1   1.00000     0.00000
 Structure written by MMmdl.
 42 44  0  0  0  0  0  0  0  0  2 V2000
  148.4703  140.6563  154.1118 C   0  0  0  0  0  0  0  0  0  0  0  0
  149.8675  140.6604  154.3400 O   0  0  0  0  0  0  0  0  0  0  0  0
  150.2181  140.0994  155.5947 C   0  0  0  0  0  0  0  0  0  0  0  0
  151.5861  140.6388  156.0339 C   0  0  0  0  0  0  0  0  0  0  0  0
  152.0438  140.0222  157.2787 N   0  0  0  0  0  0  0  0  0  0  0  0
  152.1805  140.5848  158.5126 C   0  0  0  0  0  0  0  0  0  0  0  0
  151.8408  141.9131  158.7826 N   0  0  0  0  0  0  0  0  0  0  0  0
  152.2093  142.6002  160.0204 C   0  0  0  0  0  0  0  0  0  0  0  0
  152.8303  143.9807  159.7402 C   0  0  0  0  0  0  0  0  0  0  0  0
  151.8690  144.8560  158.9246 C   0  0  0  0  0  0  0  0  0  0  0  0
  151.4001  144.0947  157.6774 C   0  0  0  0  0  0  0  0  0  0  0  0
  150.8442  142.7137  158.0696 C   0  0  0  0  0  0  0  0  0  0  0  0
  152.7027  139.7740  159.4357 N   0  0  0  0  0  0  0  0  0  0  0  0
  152.8904  138.5886  158.7437 C   0  0  0  0  0  0  0  0  0  0  0  0
  152.5112  138.7132  157.4440 C   0  0  0  0  0  0  0  0  0  0  0  0
  152.6303  137.6255  156.4466 C   0  0  0  0  0  0  0  0  0  0  0  0
  152.2998  137.7970  155.2750 O   0  0  0  0  0  0  0  0  0  0  0  0
  153.1370  136.4750  156.9929 N   0  5  0  0  0  0  0  0  0  0  0  0
  153.5244  136.3032  158.3043 C   0  0  0  0  0  0  0  0  0  0  0  0
  153.9739  135.2322  158.7144 O   0  0  0  0  0  0  0  0  0  0  0  0
  153.4141  137.3440  159.1884 N   0  0  0  0  0  0  0  0  0  0  0  0
  153.8281  137.1933  160.5864 C   0  0  0  0  0  0  0  0  0  0  0  0
  148.2589  141.0891  153.1341 H   0  0  0  0  0  0  0  0  0  0  0  0
  147.9471  141.2491  154.8631 H   0  0  0  0  0  0  0  0  0  0  0  0
  148.0715  139.6413  154.1242 H   0  0  0  0  0  0  0  0  0  0  0  0
  149.4647  140.3560  156.3408 H   0  0  0  0  0  0  0  0  0  0  0  0
  150.2480  139.0111  155.5223 H   0  0  0  0  0  0  0  0  0  0  0  0
  152.3068  140.4795  155.2398 H   0  0  0  0  0  0  0  0  0  0  0  0
  151.5507  141.7198  156.1593 H   0  0  0  0  0  0  0  0  0  0  0  0
  151.3267  142.7018  160.6532 H   0  0  0  0  0  0  0  0  0  0  0  0
  152.9219  141.9910  160.5776 H   0  0  0  0  0  0  0  0  0  0  0  0
  153.0816  144.4756  160.6786 H   0  0  0  0  0  0  0  0  0  0  0  0
  153.7664  143.8564  159.1950 H   0  0  0  0  0  0  0  0  0  0  0  0
  151.0060  145.1198  159.5374 H   0  0  0  0  0  0  0  0  0  0  0  0
  152.3520  145.7917  158.6419 H   0  0  0  0  0  0  0  0  0  0  0  0
  150.6371  144.6702  157.1529 H   0  0  0  0  0  0  0  0  0  0  0  0
  152.2342  143.9786  156.9849 H   0  0  0  0  0  0  0  0  0  0  0  0
  150.4790  142.1786  157.1937 H   0  0  0  0  0  0  0  0  0  0  0  0
  149.9740  142.8402  158.7150 H   0  0  0  0  0  0  0  0  0  0  0  0
  153.2889  136.3722  161.0610 H   0  0  0  0  0  0  0  0  0  0  0  0
  153.6415  138.0881  161.1796 H   0  0  0  0  0  0  0  0  0  0  0  0
  154.8960  136.9793  160.6450 H   0  0  0  0  0  0  0  0  0  0  0  0
  1  2  1  0  0  0  0
  1 23  1  0  0  0  0
  1 24  1  0  0  0  0
  1 25  1  0  0  0  0
  2  3  1  0  0  0  0
  3  4  1  0  0  0  0
  3 26  1  0  0  0  0
  3 27  1  0  0  0  0
  4  5  1  0  0  0  0
  4 28  1  0  0  0  0
  4 29  1  0  0  0  0
  5 15  1  0  0  0  0
  5  6  1  0  0  0  0
  6  7  1  0  0  0  0
  6 13  2  0  0  0  0
  7 12  1  0  0  0  0
  7  8  1  0  0  0  0
  8  9  1  0  0  0  0
  8 30  1  0  0  0  0
  8 31  1  0  0  0  0
  9 10  1  0  0  0  0
  9 32  1  0  0  0  0
  9 33  1  0  0  0  0
 10 11  1  0  0  0  0
 10 34  1  0  0  0  0
 10 35  1  0  0  0  0
 11 12  1  0  0  0  0
 11 36  1  0  0  0  0
 11 37  1  0  0  0  0
 12 38  1  0  0  0  0
 12 39  1  0  0  0  0
 13 14  1  0  0  0  0
 14 21  1  0  0  0  0
 14 15  2  0  0  0  0
 15 16  1  0  0  0  0
 16 17  2  0  0  0  0
 16 18  1  0  0  0  0
 18 19  1  0  0  0  0
 19 20  2  0  0  0  0
 19 21  1  0  0  0  0
 21 22  1  0  0  0  0
 22 40  1  0  0  0  0
 22 41  1  0  0  0  0
 22 42  1  0  0  0  0
M  CHG  1  18  -1
M  END
> <s_m_source_file>
AV-unprocessed.smi

> <i_m_source_file_index>
524

> <i_lp_mmshare_version>
43012

> <i_f3d_flags>
0

> <s_epik_input>
W0NIM11uMWMoPU8pW25IXWMoPU8pYyhjMTIpbihbQ0gyXVtDSDJdT1tDSDNdKWMobjIpTjNbQ0gyXVtDSDJdW0NIMl1bQ0gyXVtDSDJdMw==

> <s_epik_cmdline>
J2VwaWtfcHl0aG9uJywgJy1waCcsICc3LjAnLCAnLXRuJywgJzgnLCAnLW1hJywgJzIwMCcsICctbWV0YWxfYmluZGluZycsICctaW1hZScsICc8aW5maWxlLm1hZT4nLCAnLW9tYWUnLCAnPG91dGZpbGUubWFlPic=

> <r_lp_tautomer_probability>
1

> <r_epik_Ionization_Penalty>
5.09461

> <r_epik_Ionization_Penalty_Charging>
0.078064

> <r_epik_Ionization_Penalty_Neutral>
5.01654

> <r_epik_State_Penalty>
5.01281

> <r_epik_Charging_Adjusted_Penalty>
5.09087

> <i_epik_Tot_Q>
-1

> <i_epik_Tot_abs_Q>
1

> <r_epik_Metal_State_Penalty>
1.12909

> <b_epik_Metal_Only>
1

> <s_lp_Force_Field>
OPLS_2005

> <r_lp_Energy>
41.0117

> <b_lp_Chiralities_Consistent>
1

> <s_lp_Variant>
AV-unprocessed.smi:524-2

> <Gold.Version>
5.8.1

> <Gold.Id.Protein>
6NUR|6NUR_protein|mol2

> <Gold.PLP.Fitness>
50.2522

> <Gold.PLP.PLP>
-39.7886

> <Gold.PLP.part.hbond>
-3.7200

> <Gold.PLP.part.metal>
0.0000

> <Gold.PLP.part.buried>
-5.3055

> <Gold.PLP.part.nonpolar>
-32.7475

> <Gold.PLP.part.repulsive>
0.1617

> <Gold.PLP.ligand.clash>
0.0006

> <Gold.PLP.ligand.torsion>
0.4077

> <Gold.PLP.Chemscore.Hbond>
3.6320

> <Gold.PLP.Chemscore.CHOScore>
0.0000

> <Gold.PLP.Chemscore.Metal>
0.0000

> <Gold.Chemscore.Hbonds>
donor molecule, donor type, donor heavy atom, donor atom, acceptor molecule, acceptor atom, score
      P1  H  6896  6907       L1    20  0.86
      P1  H  7989  7998       L1     2  0.72
      P1  H 10752 10764       L1    18  2.00

> <Gold.PLP.Chemscore.Internal.Correction>
0.3836

> <Gold.Rescore>
     Score         DG    S(hbond)    S(metal)    S(lipo)     H(rot)  DE(clash)    DE(int)     intcor
     16.37     -18.09       1.77        0.00      89.15       1.46       0.19       1.53       ----

> <Gold.Chemscore.Fitness>
16.3685

> <Gold.Chemscore.DG>
-18.0907

> <Gold.Chemscore.ZeroCoef>
-5.4800

> <Gold.Chemscore.Hbond>
1.7749

> <Gold.Chemscore.Metal>
0.0000

> <Gold.Chemscore.Lipo>
89.1462

> <Gold.Chemscore.Internal_Hbond>
0.0000

> <Gold.Chemscore.DEClash>
0.1888

> <Gold.Chemscore.DEInternal>
1.5333

> <Gold.Chemscore.Rot>
1.4639

> <Gold.Chemscore.Internal.Correction>
   9.000000E+99

> <Gold.Chemscore.Hbonds>
donor molecule, donor type, donor heavy atom, donor atom, acceptor molecule, acceptor atom, score
      P1  H  6896  6907       L1    20  0.45
      P1  H  7989  7998       L1     2  0.28
      P1  H 10752 10764       L1    18  0.32

> <Gold.Chemscore.Hbond.Weighted>
-5.9281

> <Gold.Chemscore.Metal.Weighted>
-0.0000

> <Gold.Chemscore.Lipo.Weighted>
-10.4301

> <Gold.Chemscore.Internal_Hbond.Weighted>
0.0000

> <Gold.Chemscore.DEClash.Weighted>
0.1888

> <Gold.Chemscore.DEInternal.Weighted>
1.5333

> <Gold.Chemscore.Rot.Weighted>
3.7475

> <Gold.Chemscore.Internal.Correction.Weighted>
   9.000000E+99

> <Gold.Protein.RotatedTorsions>
[ 6907 6896 6895 6894 ] final   75.00 input  -60.11 | X-H torsion
[ 7974 7965 7964 7962 ] final  -20.46 input  175.53 | X-H torsion
[ 8008 7997 7996 7995 ] final   46.34 input   59.86 | X-H torsion
[ 10167 10162 10161 10158 ] final    8.05 input  -65.29 | X-H torsion
[ 10718 10713 10712 10709 ] final -161.59 input   66.30 | X-H torsion
[ 10763 10752 10751 10750 ] final    0.92 input  -60.55 | X-H torsion
[ 11005 11000 10999 10996 ] final  -60.71 input  -57.11 | X-H torsion

> <Gold.Protein.ActiveResidues>
 VAL166  LYS551  ARG553  GLY616  TRP617  ASP618  TYR619  PRO620  LYS621  CYS622 
 ASP623  PHE694  ASN695  SER759  ASP760  ASP761  ALA762  ILE779  LEU786  VAL792 
 PHE793  MET794  SER795  GLU796  ALA797  LYS798  CYS799  TRP800  GLU811  SER814 

> <Gold.Protein.RotatedAtoms>
  152.5004  134.4187  159.9473 H   0  0  0  0  0  0  0  0  0  0  0  0  # atno 6907 bound_to 6896
  151.4159  133.3707  159.2757 H   0  0  0  0  0  0  0  0  0  0  0  0  # atno 6908 bound_to 6896
  150.9258  134.8696  159.7578 H   0  0  0  0  0  0  0  0  0  0  0  0  # atno 6909 bound_to 6896
  146.1787  140.4205  142.8503 H   0  0  0  0  0  0  0  0  0  0  0  0  # atno 7974 bound_to 7965
  155.3508  140.3413  155.4239 H   0  0  0  0  0  0  0  0  0  0  0  0  # atno 8008 bound_to 7997
  156.1765  140.1649  156.8389 H   0  0  0  0  0  0  0  0  0  0  0  0  # atno 8009 bound_to 7997
  154.5287  140.0750  156.8289 H   0  0  0  0  0  0  0  0  0  0  0  0  # atno 8010 bound_to 7997
  140.6337  143.7936  150.7329 H   0  0  0  0  0  0  0  0  0  0  0  0  # atno 10167 bound_to 10162
  156.5984  130.8800  151.2907 H   0  0  0  0  0  0  0  0  0  0  0  0  # atno 10718 bound_to 10713
  153.3146  135.6965  153.7085 H   0  0  0  0  0  0  0  0  0  0  0  0  # atno 10763 bound_to 10752
  153.5949  135.3473  155.2925 H   0  0  0  0  0  0  0  0  0  0  0  0  # atno 10764 bound_to 10752
  154.8583  135.4326  154.2293 H   0  0  0  0  0  0  0  0  0  0  0  0  # atno 10765 bound_to 10752
  141.1297  133.6624  156.5264 H   0  0  0  0  0  0  0  0  0  0  0  0  # atno 11005 bound_to 11000
  144.8278  140.6657  143.6310 LP  0  0  0  0  0  0  0  0  0  0  0  0  # atno 17320 bound_to 7965
  145.4139  139.1575  143.4111 LP  0  0  0  0  0  0  0  0  0  0  0  0  # atno 17321 bound_to 7965
  140.1553  143.4322  152.2104 LP  0  0  0  0  0  0  0  0  0  0  0  0  # atno 17342 bound_to 10162
  139.5549  144.7365  151.4325 LP  0  0  0  0  0  0  0  0  0  0  0  0  # atno 17343 bound_to 10162
  157.7286  130.9659  150.1749 LP  0  0  0  0  0  0  0  0  0  0  0  0  # atno 17370 bound_to 10713
  156.2490  130.3698  149.8253 LP  0  0  0  0  0  0  0  0  0  0  0  0  # atno 17371 bound_to 10713
  140.4251  134.7152  157.4911 LP  0  0  0  0  0  0  0  0  0  0  0  0  # atno 17394 bound_to 11000
  140.0333  134.6374  155.9077 LP  0  0  0  0  0  0  0  0  0  0  0  0  # atno 17395 bound_to 11000

$$$$
