AV-unprocessed.smi:2317|AV-procd|sdf|9274|dock9
  -GOLD-   2272012493D 1   1.00000     0.00000
 Structure written by MMmdl.
 37 38  0  0  0  0  0  0  0  0  1 V2000
  144.4080  136.5106  152.1857 O   0  0  0  0  0  0  0  0  0  0  0  0
  145.6258  136.3693  152.0798 C   0  0  0  0  0  0  0  0  0  0  0  0
  146.5163  137.2508  152.5585 N   0  0  0  0  0  0  0  0  0  0  0  0
  146.1931  138.4721  153.2923 C   0  0  0  0  0  0  0  0  0  0  0  0
  147.4103  139.4158  153.4465 C   0  0  1  0  0  0  0  0  0  0  0  0
  146.9775  140.8586  153.8013 C   0  0  0  0  0  0  0  0  0  0  0  0
  148.1772  141.7962  154.0069 C   0  0  0  0  0  0  0  0  0  0  0  0
  149.1285  141.2515  155.0795 C   0  0  0  0  0  0  0  0  0  0  0  0
  149.5971  139.8362  154.7185 C   0  0  0  0  0  0  0  0  0  0  0  0
  148.4043  138.8844  154.5107 C   0  0  2  0  0  0  0  0  0  0  0  0
  148.9221  137.6281  154.1197 O   0  0  0  0  0  0  0  0  0  0  0  0
  146.2429  135.3453  151.4651 N   0  0  0  0  0  0  0  0  0  0  0  0
  145.6777  134.2011  150.8367 C   0  0  0  0  0  0  0  0  0  0  0  0
  144.4199  134.1835  150.1858 C   0  0  0  0  0  0  0  0  0  0  0  0
  143.9708  132.9750  149.6165 C   0  0  0  0  0  0  0  0  0  0  0  0
  144.6732  131.8236  149.6629 N   0  0  0  0  0  0  0  0  0  0  0  0
  145.8658  131.8406  150.2941 C   0  0  0  0  0  0  0  0  0  0  0  0
  146.4068  132.9943  150.8960 C   0  0  0  0  0  0  0  0  0  0  0  0
  147.6094  132.9401  151.5181 F   0  0  0  0  0  0  0  0  0  0  0  0
  147.4967  137.0569  152.4163 H   0  0  0  0  0  0  0  0  0  0  0  0
  145.3608  139.0025  152.8266 H   0  0  0  0  0  0  0  0  0  0  0  0
  145.8350  138.1592  154.2731 H   0  0  0  0  0  0  0  0  0  0  0  0
  147.9314  139.4535  152.4883 H   0  0  0  0  0  0  0  0  0  0  0  0
  146.3465  141.2718  153.0146 H   0  0  0  0  0  0  0  0  0  0  0  0
  146.3693  140.8458  154.7068 H   0  0  0  0  0  0  0  0  0  0  0  0
  148.7147  141.9152  153.0653 H   0  0  0  0  0  0  0  0  0  0  0  0
  147.8277  142.7891  154.2909 H   0  0  0  0  0  0  0  0  0  0  0  0
  149.9884  141.9132  155.1865 H   0  0  0  0  0  0  0  0  0  0  0  0
  148.6244  141.2373  156.0467 H   0  0  0  0  0  0  0  0  0  0  0  0
  150.2009  139.8787  153.8107 H   0  0  0  0  0  0  0  0  0  0  0  0
  150.2485  139.4541  155.5055 H   0  0  0  0  0  0  0  0  0  0  0  0
  147.8829  138.7534  155.4599 H   0  0  0  0  0  0  0  0  0  0  0  0
  148.7585  137.5102  153.1966 H   0  0  0  0  0  0  0  0  0  0  0  0
  147.2481  135.4112  151.4024 H   0  0  0  0  0  0  0  0  0  0  0  0
  143.7888  135.0555  150.1194 H   0  0  0  0  0  0  0  0  0  0  0  0
  143.0157  132.9316  149.1144 H   0  0  0  0  0  0  0  0  0  0  0  0
  146.4048  130.9052  150.3224 H   0  0  0  0  0  0  0  0  0  0  0  0
  1  2  2  0  0  0  0
  2  3  1  0  0  0  0
  2 12  1  0  0  0  0
  3  4  1  0  0  0  0
  3 20  1  0  0  0  0
  4  5  1  0  0  0  0
  4 21  1  0  0  0  0
  4 22  1  0  0  0  0
  5 10  1  0  0  0  0
  5  6  1  0  0  0  0
  5 23  1  0  0  0  0
  6  7  1  0  0  0  0
  6 24  1  0  0  0  0
  6 25  1  0  0  0  0
  7  8  1  0  0  0  0
  7 26  1  0  0  0  0
  7 27  1  0  0  0  0
  8  9  1  0  0  0  0
  8 28  1  0  0  0  0
  8 29  1  0  0  0  0
  9 10  1  0  0  0  0
  9 30  1  0  0  0  0
  9 31  1  0  0  0  0
 10 11  1  0  0  0  0
 10 32  1  0  0  0  0
 11 33  1  0  0  0  0
 12 13  1  0  0  0  0
 12 34  1  0  0  0  0
 13 18  1  0  0  0  0
 13 14  2  0  0  0  0
 14 15  1  0  0  0  0
 14 35  1  0  0  0  0
 15 16  2  0  0  0  0
 15 36  1  0  0  0  0
 16 17  1  0  0  0  0
 17 18  2  0  0  0  0
 17 37  1  0  0  0  0
 18 19  1  0  0  0  0
M  END
> <s_m_source_file>
AV-unprocessed.smi

> <i_m_source_file_index>
2317

> <i_lp_mmshare_version>
43012

> <i_f3d_flags>
0

> <s_epik_input>
RmMxW2NIXW5bY0hdW2NIXWMxW05IXUMoPU8pW05IXVtDSDJdW0NAQEhdMltDSDJdW0NIMl1bQ0gyXVtDSDJdW0NASF0yW09IXQ==

> <s_epik_cmdline>
J2VwaWtfcHl0aG9uJywgJy1waCcsICc3LjAnLCAnLXRuJywgJzgnLCAnLW1hJywgJzIwMCcsICctbWV0YWxfYmluZGluZycsICctaW1hZScsICc8aW5maWxlLm1hZT4nLCAnLW9tYWUnLCAnPG91dGZpbGUubWFlPic=

> <r_epik_Ionization_Penalty>
0.00317647

> <r_epik_Ionization_Penalty_Charging>
0

> <r_epik_Ionization_Penalty_Neutral>
0.00317647

> <r_epik_State_Penalty>
0.0022093

> <r_epik_Charging_Adjusted_Penalty>
0.0022093

> <i_epik_Tot_Q>
0

> <i_epik_Tot_abs_Q>
0

> <r_epik_Metal_State_Penalty>
-0

> <b_epik_Metal_Only>
0

> <s_lp_Force_Field>
OPLS_2005

> <r_lp_Energy>
17.8728

> <b_lp_Chiralities_Consistent>
1

> <s_lp_Variant>
AV-unprocessed.smi:2317-4

> <Gold.Version>
5.8.1

> <Gold.Id.Protein>
6NUR|6NUR_protein|mol2

> <Gold.PLP.Fitness>
46.4026

> <Gold.PLP.PLP>
-33.4035

> <Gold.PLP.part.hbond>
-3.8576

> <Gold.PLP.part.metal>
0.0000

> <Gold.PLP.part.buried>
-0.8959

> <Gold.PLP.part.nonpolar>
-29.0136

> <Gold.PLP.part.repulsive>
0.4406

> <Gold.PLP.ligand.clash>
0.0000

> <Gold.PLP.ligand.torsion>
0.4126

> <Gold.PLP.Chemscore.Hbond>
2.8302

> <Gold.PLP.Chemscore.CHOScore>
1.7766

> <Gold.PLP.Chemscore.Metal>
0.0000

> <Gold.Chemscore.Hbonds>
donor molecule, donor type, donor heavy atom, donor atom, acceptor molecule, acceptor atom, score
      L1  H     3    20       P1  7948  1.00
      L1  H    11    33       P1  7948  0.82
      L1  H    12    34       P1  7948  1.00
      P1  H 10785 10796       L1    16  0.03
      L1  C    15    36       P1 10186  0.94
      L1  C    17    37       P1 10747  0.77

> <Gold.PLP.Chemscore.Internal.Correction>
0.0039

> <Gold.Rescore>
     Score         DG    S(hbond)    S(metal)    S(lipo)     H(rot)  DE(clash)    DE(int)     intcor
     17.96     -20.27       2.76        0.00      86.78       1.79       0.57       1.74       ----

> <Gold.Chemscore.Fitness>
17.9634

> <Gold.Chemscore.DG>
-20.2668

> <Gold.Chemscore.ZeroCoef>
-5.4800

> <Gold.Chemscore.Hbond>
2.7558

> <Gold.Chemscore.Metal>
0.0000

> <Gold.Chemscore.Lipo>
86.7766

> <Gold.Chemscore.Internal_Hbond>
0.0000

> <Gold.Chemscore.DEClash>
0.5656

> <Gold.Chemscore.DEInternal>
1.7378

> <Gold.Chemscore.Rot>
1.7853

> <Gold.Chemscore.Internal.Correction>
   9.000000E+99

> <Gold.Chemscore.Hbonds>
donor molecule, donor type, donor heavy atom, donor atom, acceptor molecule, acceptor atom, score
      L1  H     3    20       P1  7948  0.99
      L1  H    11    33       P1  7948  0.81
      L1  H    12    34       P1  7948  0.90
      P1  H 10785 10796       L1    16  0.03

> <Gold.Chemscore.Hbond.Weighted>
-9.2044

> <Gold.Chemscore.Metal.Weighted>
-0.0000

> <Gold.Chemscore.Lipo.Weighted>
-10.1529

> <Gold.Chemscore.Internal_Hbond.Weighted>
0.0000

> <Gold.Chemscore.DEClash.Weighted>
0.5656

> <Gold.Chemscore.DEInternal.Weighted>
1.7378

> <Gold.Chemscore.Rot.Weighted>
4.5704

> <Gold.Chemscore.Internal.Correction.Weighted>
   9.000000E+99

> <Gold.Protein.RotatedTorsions>
[ 6907 6896 6895 6894 ] final   23.37 input  -60.11 | X-H torsion
[ 7974 7965 7964 7962 ] final  124.42 input  175.53 | X-H torsion
[ 8008 7997 7996 7995 ] final  158.10 input   59.86 | X-H torsion
[ 10167 10162 10161 10158 ] final   15.29 input  -65.29 | X-H torsion
[ 10718 10713 10712 10709 ] final  -18.09 input   66.30 | X-H torsion
[ 10763 10752 10751 10750 ] final   58.14 input  -60.55 | X-H torsion
[ 11005 11000 10999 10996 ] final   37.66 input  -57.11 | X-H torsion

> <Gold.Protein.ActiveResidues>
 VAL166  LYS551  ARG553  GLY616  TRP617  ASP618  TYR619  PRO620  LYS621  CYS622 
 ASP623  PHE694  ASN695  SER759  ASP760  ASP761  ALA762  ILE779  LEU786  VAL792 
 PHE793  MET794  SER795  GLU796  ALA797  LYS798  CYS799  TRP800  GLU811  SER814 

> <Gold.Protein.RotatedAtoms>
  151.9413  135.0212  160.0535 H   0  0  0  0  0  0  0  0  0  0  0  0  # atno 6907 bound_to 6896
  152.2034  133.4853  159.5079 H   0  0  0  0  0  0  0  0  0  0  0  0  # atno 6908 bound_to 6896
  150.6959  134.1478  159.4172 H   0  0  0  0  0  0  0  0  0  0  0  0  # atno 6909 bound_to 6896
  145.0847  139.3631  143.4891 H   0  0  0  0  0  0  0  0  0  0  0  0  # atno 7974 bound_to 7965
  156.2323  140.1867  156.7210 H   0  0  0  0  0  0  0  0  0  0  0  0  # atno 8008 bound_to 7997
  154.6045  140.0631  156.9440 H   0  0  0  0  0  0  0  0  0  0  0  0  # atno 8009 bound_to 7997
  155.2119  140.3300  155.4330 H   0  0  0  0  0  0  0  0  0  0  0  0  # atno 8010 bound_to 7997
  140.5877  143.8856  150.6845 H   0  0  0  0  0  0  0  0  0  0  0  0  # atno 10167 bound_to 10162
  156.5644  130.4733  149.6391 H   0  0  0  0  0  0  0  0  0  0  0  0  # atno 10718 bound_to 10713
  152.9864  135.5617  154.5505 H   0  0  0  0  0  0  0  0  0  0  0  0  # atno 10763 bound_to 10752
  154.4943  135.2794  155.1474 H   0  0  0  0  0  0  0  0  0  0  0  0  # atno 10764 bound_to 10752
  154.2931  135.6322  153.5446 H   0  0  0  0  0  0  0  0  0  0  0  0  # atno 10765 bound_to 10752
  140.2203  134.3648  155.8008 H   0  0  0  0  0  0  0  0  0  0  0  0  # atno 11005 bound_to 11000
  146.3531  140.0653  142.8626 LP  0  0  0  0  0  0  0  0  0  0  0  0  # atno 17320 bound_to 7965
  145.1137  140.9420  143.4641 LP  0  0  0  0  0  0  0  0  0  0  0  0  # atno 17321 bound_to 7965
  140.2372  143.3691  152.1517 LP  0  0  0  0  0  0  0  0  0  0  0  0  # atno 17342 bound_to 10162
  139.5208  144.7038  151.5416 LP  0  0  0  0  0  0  0  0  0  0  0  0  # atno 17343 bound_to 10162
  156.2770  130.7049  151.1863 LP  0  0  0  0  0  0  0  0  0  0  0  0  # atno 17370 bound_to 10713
  157.7361  131.0565  150.5429 LP  0  0  0  0  0  0  0  0  0  0  0  0  # atno 17371 bound_to 10713
  141.2223  133.7190  156.8565 LP  0  0  0  0  0  0  0  0  0  0  0  0  # atno 17394 bound_to 11000
  140.1856  134.9002  157.3000 LP  0  0  0  0  0  0  0  0  0  0  0  0  # atno 17395 bound_to 11000

$$$$
