AV-unprocessed.smi:3234|AV-procd|sdf|12357|dock3
  -GOLD-   2272018213D 1   1.00000     0.00000
 Structure written by MMmdl.
 37 39  0  0  0  0  0  0  0  0  4 V2000
  152.5524  139.9883  156.2990 O   0  0  0  0  0  0  0  0  0  0  0  0
  151.5444  140.5691  155.8802 C   0  0  0  0  0  0  0  0  0  0  0  0
  151.1017  141.6856  156.4860 N   0  0  0  0  0  0  0  0  0  0  0  0
  151.5993  142.3320  157.6499 C   0  0  0  0  0  0  0  0  0  0  0  0
  152.2752  141.5375  158.6021 C   0  0  0  0  0  0  0  0  0  0  0  0
  152.8031  142.1405  159.7617 C   0  0  0  0  0  0  0  0  0  0  0  0
  152.6704  143.4717  159.9475 N   0  3  0  0  0  0  0  0  0  0  0  0
  152.0494  144.2746  159.0568 C   0  0  0  0  0  0  0  0  0  0  0  0
  151.5019  143.7281  157.8785 C   0  0  0  0  0  0  0  0  0  0  0  0
  150.7822  140.2312  154.8048 N   0  5  0  0  0  0  0  0  0  0  0  0
  150.5095  138.8581  154.3751 C   0  0  1  0  0  0  0  0  0  0  0  0
  151.1601  137.8340  155.3065 C   0  0  0  0  0  0  0  0  0  0  0  0
  150.2740  136.5853  155.1792 C   0  0  0  0  0  0  0  0  0  0  0  0
  149.0136  137.0215  154.5333 N   0  3  1  0  0  0  0  0  0  0  0  0
  147.7884  136.4430  155.1254 C   0  0  0  0  0  0  0  0  0  0  0  0
  147.3766  135.1328  154.4979 C   0  0  0  0  0  0  0  0  0  0  0  0
  146.6191  136.4018  154.1710 C   0  0  0  0  0  0  0  0  0  0  0  0
  149.0279  138.4961  154.4878 C   0  0  0  0  0  0  0  0  0  0  0  0
  150.3416  142.1565  156.0176 H   0  0  0  0  0  0  0  0  0  0  0  0
  152.3840  140.4732  158.4495 H   0  0  0  0  0  0  0  0  0  0  0  0
  153.3265  141.6025  160.5386 H   0  0  0  0  0  0  0  0  0  0  0  0
  152.0156  145.3248  159.3072 H   0  0  0  0  0  0  0  0  0  0  0  0
  151.0305  144.3883  157.1666 H   0  0  0  0  0  0  0  0  0  0  0  0
  150.8453  138.6628  153.3551 H   0  0  0  0  0  0  0  0  0  0  0  0
  152.2012  137.6369  155.0483 H   0  0  0  0  0  0  0  0  0  0  0  0
  151.1368  138.1852  156.3399 H   0  0  0  0  0  0  0  0  0  0  0  0
  150.7445  135.8217  154.5580 H   0  0  0  0  0  0  0  0  0  0  0  0
  150.0950  136.1436  156.1610 H   0  0  0  0  0  0  0  0  0  0  0  0
  147.6289  136.6242  156.1870 H   0  0  0  0  0  0  0  0  0  0  0  0
  148.0124  134.7122  153.7206 H   0  0  0  0  0  0  0  0  0  0  0  0
  146.8786  134.4052  155.1356 H   0  0  0  0  0  0  0  0  0  0  0  0
  145.6226  136.5116  154.5944 H   0  0  0  0  0  0  0  0  0  0  0  0
  146.7509  136.8255  153.1769 H   0  0  0  0  0  0  0  0  0  0  0  0
  148.6043  138.8934  155.4127 H   0  0  0  0  0  0  0  0  0  0  0  0
  148.4376  138.8760  153.6533 H   0  0  0  0  0  0  0  0  0  0  0  0
  149.0676  136.7127  153.5733 H   0  0  0  0  0  0  0  0  0  0  0  0
  153.0611  143.8892  160.7924 H   0  0  0  0  0  0  0  0  0  0  0  0
  1  2  2  0  0  0  0
  2  3  1  0  0  0  0
  2 10  1  0  0  0  0
  3  4  1  0  0  0  0
  3 19  1  0  0  0  0
  4  9  1  0  0  0  0
  4  5  2  0  0  0  0
  5  6  1  0  0  0  0
  5 20  1  0  0  0  0
  6  7  2  0  0  0  0
  6 21  1  0  0  0  0
  7  8  1  0  0  0  0
  7 37  1  0  0  0  0
  8  9  2  0  0  0  0
  8 22  1  0  0  0  0
  9 23  1  0  0  0  0
 10 11  1  0  0  0  0
 11 18  1  0  0  0  0
 11 12  1  0  0  0  0
 11 24  1  0  0  0  0
 12 13  1  0  0  0  0
 12 25  1  0  0  0  0
 12 26  1  0  0  0  0
 13 14  1  0  0  0  0
 13 27  1  0  0  0  0
 13 28  1  0  0  0  0
 14 15  1  0  0  0  0
 14 18  1  0  0  0  0
 14 36  1  0  0  0  0
 15 17  1  0  0  0  0
 15 16  1  0  0  0  0
 15 29  1  0  0  0  0
 16 17  1  0  0  0  0
 16 30  1  0  0  0  0
 16 31  1  0  0  0  0
 17 32  1  0  0  0  0
 17 33  1  0  0  0  0
 18 34  1  0  0  0  0
 18 35  1  0  0  0  0
M  CHG  1   7   1
M  CHG  1  10  -1
M  CHG  1  14   1
M  END
> <s_m_source_file>
AV-unprocessed.smi

> <i_m_source_file_index>
3234

> <i_lp_mmshare_version>
43012

> <i_f3d_flags>
0

> <s_epik_input>
W2NIXTFbY0hdbltjSF1bY0hdYzFbTkhdQyg9TylbTkhdW0NAQEhdMltDSDJdW0NIMl1OKFtDSDJdMilbQ0hdM1tDSDJdW0NIMl0z

> <s_epik_cmdline>
J2VwaWtfcHl0aG9uJywgJy1waCcsICc3LjAnLCAnLXRuJywgJzgnLCAnLW1hJywgJzIwMCcsICctbWV0YWxfYmluZGluZycsICctaW1hZScsICc8aW5maWxlLm1hZT4nLCAnLW9tYWUnLCAnPG91dGZpbGUubWFlPic=

> <r_epik_Ionization_Penalty>
8.3234

> <r_epik_Ionization_Penalty_Charging>
8.3234

> <r_epik_Ionization_Penalty_Neutral>
3.58513e-06

> <r_epik_State_Penalty>
7.99376

> <r_epik_Charging_Adjusted_Penalty>
16.3172

> <i_epik_Tot_Q>
1

> <i_epik_Tot_abs_Q>
3

> <r_epik_Metal_State_Penalty>
3.98956

> <b_epik_Metal_Only>
1

> <s_lp_Force_Field>
OPLS_2005

> <r_lp_Energy>
39.5194

> <b_lp_Chiralities_Consistent>
1

> <s_lp_Variant>
AV-unprocessed.smi:3234-10

> <Gold.Version>
5.8.1

> <Gold.Id.Protein>
6NUR|6NUR_protein|mol2

> <Gold.PLP.Fitness>
43.3638

> <Gold.PLP.PLP>
-32.1742

> <Gold.PLP.part.hbond>
-3.0000

> <Gold.PLP.part.metal>
0.0000

> <Gold.PLP.part.buried>
-4.0253

> <Gold.PLP.part.nonpolar>
-24.1055

> <Gold.PLP.part.repulsive>
0.2136

> <Gold.PLP.ligand.clash>
0.0000

> <Gold.PLP.ligand.torsion>
1.0485

> <Gold.PLP.Chemscore.Hbond>
4.0000

> <Gold.PLP.Chemscore.CHOScore>
0.0000

> <Gold.PLP.Chemscore.Metal>
0.0000

> <Gold.Chemscore.Hbonds>
donor molecule, donor type, donor heavy atom, donor atom, acceptor molecule, acceptor atom, score
      L1  H    14    36       P1  7948  2.00
      P1  H  7989  7998       L1    10  1.00
      P1  H  7997  8008       L1     1  1.00

> <Gold.PLP.Chemscore.Internal.Correction>
1.2866

> <Gold.Rescore>
     Score         DG    S(hbond)    S(metal)    S(lipo)     H(rot)  DE(clash)    DE(int)     intcor
     16.69     -20.76       2.59        0.00      83.27       1.21       0.14       3.93       ----

> <Gold.Chemscore.Fitness>
16.6947

> <Gold.Chemscore.DG>
-20.7624

> <Gold.Chemscore.ZeroCoef>
-5.4800

> <Gold.Chemscore.Hbond>
2.5868

> <Gold.Chemscore.Metal>
0.0000

> <Gold.Chemscore.Lipo>
83.2664

> <Gold.Chemscore.Internal_Hbond>
0.0000

> <Gold.Chemscore.DEClash>
0.1374

> <Gold.Chemscore.DEInternal>
3.9303

> <Gold.Chemscore.Rot>
1.2108

> <Gold.Chemscore.Internal.Correction>
   9.000000E+99

> <Gold.Chemscore.Hbonds>
donor molecule, donor type, donor heavy atom, donor atom, acceptor molecule, acceptor atom, score
      L1  H    14    36       P1  7948  1.00
      P1  H  7989  7998       L1    10  0.18
      P1  H  7997  8008       L1     1  1.00

> <Gold.Chemscore.Hbond.Weighted>
-8.6398

> <Gold.Chemscore.Metal.Weighted>
-0.0000

> <Gold.Chemscore.Lipo.Weighted>
-9.7422

> <Gold.Chemscore.Internal_Hbond.Weighted>
0.0000

> <Gold.Chemscore.DEClash.Weighted>
0.1374

> <Gold.Chemscore.DEInternal.Weighted>
3.9303

> <Gold.Chemscore.Rot.Weighted>
3.0996

> <Gold.Chemscore.Internal.Correction.Weighted>
   9.000000E+99

> <Gold.Protein.RotatedTorsions>
[ 6907 6896 6895 6894 ] final  -97.59 input  -60.11 | X-H torsion
[ 7974 7965 7964 7962 ] final  163.12 input  175.53 | X-H torsion
[ 8008 7997 7996 7995 ] final  -45.18 input   59.86 | X-H torsion
[ 10167 10162 10161 10158 ] final -176.54 input  -65.29 | X-H torsion
[ 10718 10713 10712 10709 ] final   24.25 input   66.30 | X-H torsion
[ 10763 10752 10751 10750 ] final   40.15 input  -60.55 | X-H torsion
[ 11005 11000 10999 10996 ] final    8.55 input  -57.11 | X-H torsion

> <Gold.Protein.ActiveResidues>
 VAL166  LYS551  ARG553  GLY616  TRP617  ASP618  TYR619  PRO620  LYS621  CYS622 
 ASP623  PHE694  ASN695  SER759  ASP760  ASP761  ALA762  ILE779  LEU786  VAL792 
 PHE793  MET794  SER795  GLU796  ALA797  LYS798  CYS799  TRP800  GLU811  SER814 

> <Gold.Protein.RotatedAtoms>
  150.7021  134.1326  159.4074 H   0  0  0  0  0  0  0  0  0  0  0  0  # atno 6907 bound_to 6896
  151.9311  135.0253  160.0538 H   0  0  0  0  0  0  0  0  0  0  0  0  # atno 6908 bound_to 6896
  152.2174  133.4922  159.5180 H   0  0  0  0  0  0  0  0  0  0  0  0  # atno 6909 bound_to 6896
  144.7604  139.8137  143.6334 H   0  0  0  0  0  0  0  0  0  0  0  0  # atno 7974 bound_to 7965
  154.4000  140.1403  156.3805 H   0  0  0  0  0  0  0  0  0  0  0  0  # atno 8008 bound_to 7997
  155.8008  140.3476  155.5381 H   0  0  0  0  0  0  0  0  0  0  0  0  # atno 8009 bound_to 7997
  155.8486  140.0938  157.1680 H   0  0  0  0  0  0  0  0  0  0  0  0  # atno 8010 bound_to 7997
  139.5524  144.2074  152.1101 H   0  0  0  0  0  0  0  0  0  0  0  0  # atno 10167 bound_to 10162
  157.1772  130.6786  149.6100 H   0  0  0  0  0  0  0  0  0  0  0  0  # atno 10718 bound_to 10713
  152.9945  135.6199  154.2580 H   0  0  0  0  0  0  0  0  0  0  0  0  # atno 10763 bound_to 10752
  154.2317  135.2792  155.2889 H   0  0  0  0  0  0  0  0  0  0  0  0  # atno 10764 bound_to 10752
  154.5444  135.5751  153.6925 H   0  0  0  0  0  0  0  0  0  0  0  0  # atno 10765 bound_to 10752
  140.5357  134.0423  155.7887 H   0  0  0  0  0  0  0  0  0  0  0  0  # atno 11005 bound_to 11000
  146.1661  139.4794  142.9957 LP  0  0  0  0  0  0  0  0  0  0  0  0  # atno 17320 bound_to 7965
  145.6637  141.0234  143.1695 LP  0  0  0  0  0  0  0  0  0  0  0  0  # atno 17321 bound_to 7965
  140.1572  144.5059  150.6653 LP  0  0  0  0  0  0  0  0  0  0  0  0  # atno 17342 bound_to 10162
  140.6790  143.2318  151.5433 LP  0  0  0  0  0  0  0  0  0  0  0  0  # atno 17343 bound_to 10162
  155.9729  130.4659  150.6269 LP  0  0  0  0  0  0  0  0  0  0  0  0  # atno 17370 bound_to 10713
  157.3987  131.0806  151.1328 LP  0  0  0  0  0  0  0  0  0  0  0  0  # atno 17371 bound_to 10713
  141.1256  133.9388  157.2642 LP  0  0  0  0  0  0  0  0  0  0  0  0  # atno 17394 bound_to 11000
  139.9531  135.0171  156.9050 LP  0  0  0  0  0  0  0  0  0  0  0  0  # atno 17395 bound_to 11000

$$$$
