AV-unprocessed.smi:578|AV-procd|sdf|2982|dock7
  -GOLD-   2262023493D 1   1.00000     0.00000
 Structure written by MMmdl.
 33 34  0  0  0  0  0  0  0  0  3 V2000
  153.9238  141.6576  161.0427 C   0  0  0  0  0  0  0  0  0  0  0  0
  152.7173  142.1509  160.2372 C   0  0  2  0  0  0  0  0  0  0  0  0
  152.4797  141.3037  158.9725 C   0  0  0  0  0  0  0  0  0  0  0  0
  151.3861  141.8668  158.1917 N   0  0  0  0  0  0  0  0  0  0  0  0
  151.0339  141.0833  157.0842 C   0  0  0  0  0  0  0  0  0  0  0  0
  149.7278  141.1811  156.5588 C   0  0  0  0  0  0  0  0  0  0  0  0
  149.3715  140.3936  155.4463 C   0  0  0  0  0  0  0  0  0  0  0  0
  150.2789  139.5581  154.8979 N   0  3  0  0  0  0  0  0  0  0  0  0
  151.5430  139.4247  155.3608 C   0  0  0  0  0  0  0  0  0  0  0  0
  152.4681  138.4645  154.6735 C   0  0  0  0  0  0  0  0  0  0  0  0
  151.9810  137.4631  154.1042 O   0  0  0  0  0  0  0  0  0  0  0  0
  153.6966  138.7014  154.6951 O   0  5  0  0  0  0  0  0  0  0  0  0
  151.9502  140.1934  156.4756 C   0  0  0  0  0  0  0  0  0  0  0  0
  151.6013  143.2706  157.8652 C   0  0  0  0  0  0  0  0  0  0  0  0
  151.8551  144.0792  159.1517 C   0  0  2  0  0  0  0  0  0  0  0  0
  152.1850  145.5458  158.8548 C   0  0  0  0  0  0  0  0  0  0  0  0
  152.9556  143.5037  159.8530 O   0  0  0  0  0  0  0  0  0  0  0  0
  153.7830  140.6269  161.3691 H   0  0  0  0  0  0  0  0  0  0  0  0
  154.0746  142.2699  161.9322 H   0  0  0  0  0  0  0  0  0  0  0  0
  154.8385  141.6996  160.4506 H   0  0  0  0  0  0  0  0  0  0  0  0
  151.8338  142.1122  160.8770 H   0  0  0  0  0  0  0  0  0  0  0  0
  153.3880  141.2744  158.3688 H   0  0  0  0  0  0  0  0  0  0  0  0
  152.2420  140.2754  159.2490 H   0  0  0  0  0  0  0  0  0  0  0  0
  149.0059  141.8515  157.0025 H   0  0  0  0  0  0  0  0  0  0  0  0
  148.3967  140.4055  154.9816 H   0  0  0  0  0  0  0  0  0  0  0  0
  152.9555  140.1011  156.8614 H   0  0  0  0  0  0  0  0  0  0  0  0
  152.4542  143.3676  157.1918 H   0  0  0  0  0  0  0  0  0  0  0  0
  150.7290  143.6634  157.3409 H   0  0  0  0  0  0  0  0  0  0  0  0
  150.9692  144.0451  159.7884 H   0  0  0  0  0  0  0  0  0  0  0  0
  151.3650  146.0333  158.3266 H   0  0  0  0  0  0  0  0  0  0  0  0
  153.0797  145.6329  158.2375 H   0  0  0  0  0  0  0  0  0  0  0  0
  152.3616  146.0996  159.7771 H   0  0  0  0  0  0  0  0  0  0  0  0
  150.0066  138.9936  154.0924 H   0  0  0  0  0  0  0  0  0  0  0  0
  1  2  1  0  0  0  0
  1 18  1  0  0  0  0
  1 19  1  0  0  0  0
  1 20  1  0  0  0  0
  2 17  1  0  0  0  0
  2  3  1  0  0  0  0
  2 21  1  0  0  0  0
  3  4  1  0  0  0  0
  3 22  1  0  0  0  0
  3 23  1  0  0  0  0
  4  5  1  0  0  0  0
  4 14  1  0  0  0  0
  5 13  1  0  0  0  0
  5  6  2  0  0  0  0
  6  7  1  0  0  0  0
  6 24  1  0  0  0  0
  7  8  2  0  0  0  0
  7 25  1  0  0  0  0
  8  9  1  0  0  0  0
  8 33  1  0  0  0  0
  9 10  1  0  0  0  0
  9 13  2  0  0  0  0
 10 11  2  0  0  0  0
 10 12  1  0  0  0  0
 13 26  1  0  0  0  0
 14 15  1  0  0  0  0
 14 27  1  0  0  0  0
 14 28  1  0  0  0  0
 15 16  1  0  0  0  0
 15 17  1  0  0  0  0
 15 29  1  0  0  0  0
 16 30  1  0  0  0  0
 16 31  1  0  0  0  0
 16 32  1  0  0  0  0
M  CHG  1   8   1
M  CHG  1  12  -1
M  END
> <s_m_source_file>
AV-unprocessed.smi

> <i_m_source_file_index>
578

> <i_lp_mmshare_version>
43012

> <i_f3d_flags>
0

> <s_epik_input>
W0NIM11bQ0BASF0xW0NIMl1OKFtDSDJdW0NASF0oTzEpW0NIM10pYzJbY0hdW2NIXW5jKFtjSF0yKUMoPU8pW09IXQ==

> <s_epik_cmdline>
J2VwaWtfcHl0aG9uJywgJy1waCcsICc3LjAnLCAnLXRuJywgJzgnLCAnLW1hJywgJzIwMCcsICctbWV0YWxfYmluZGluZycsICctaW1hZScsICc8aW5maWxlLm1hZT4nLCAnLW9tYWUnLCAnPG91dGZpbGUubWFlPic=

> <r_epik_Ionization_Penalty>
0.0203651

> <r_epik_Ionization_Penalty_Charging>
0.0203651

> <r_epik_Ionization_Penalty_Neutral>
3.18831e-12

> <r_epik_State_Penalty>
0.0163096

> <r_epik_Charging_Adjusted_Penalty>
0.0366747

> <i_epik_Tot_Q>
0

> <i_epik_Tot_abs_Q>
2

> <r_epik_Metal_State_Penalty>
1.99323

> <b_epik_Metal_Only>
0

> <s_lp_Force_Field>
OPLS_2005

> <r_lp_Energy>
16.452

> <b_lp_Chiralities_Consistent>
1

> <s_lp_Variant>
AV-unprocessed.smi:578-2

> <Gold.Version>
5.8.1

> <Gold.Id.Protein>
6NUR|6NUR_protein|mol2

> <Gold.PLP.Fitness>
47.8694

> <Gold.PLP.PLP>
-38.0205

> <Gold.PLP.part.hbond>
-2.0000

> <Gold.PLP.part.metal>
0.0000

> <Gold.PLP.part.buried>
-6.4822

> <Gold.PLP.part.nonpolar>
-29.7484

> <Gold.PLP.part.repulsive>
0.4530

> <Gold.PLP.ligand.clash>
0.0000

> <Gold.PLP.ligand.torsion>
0.8848

> <Gold.PLP.Chemscore.Hbond>
3.8400

> <Gold.PLP.Chemscore.CHOScore>
0.0000

> <Gold.PLP.Chemscore.Metal>
0.0000

> <Gold.Chemscore.Hbonds>
donor molecule, donor type, donor heavy atom, donor atom, acceptor molecule, acceptor atom, score
      P1  H  7997  8009       L1    12  1.92
      P1  H 10752 10765       L1    11  1.92

> <Gold.PLP.Chemscore.Internal.Correction>
0.0986

> <Gold.Rescore>
     Score         DG    S(hbond)    S(metal)    S(lipo)     H(rot)  DE(clash)    DE(int)     intcor
     18.82     -20.06       1.73        0.00      97.12       1.00       0.43       0.81       ----

> <Gold.Chemscore.Fitness>
18.8246

> <Gold.Chemscore.DG>
-20.0614

> <Gold.Chemscore.ZeroCoef>
-5.4800

> <Gold.Chemscore.Hbond>
1.7299

> <Gold.Chemscore.Metal>
0.0000

> <Gold.Chemscore.Lipo>
97.1236

> <Gold.Chemscore.Internal_Hbond>
0.0000

> <Gold.Chemscore.DEClash>
0.4253

> <Gold.Chemscore.DEInternal>
0.8115

> <Gold.Chemscore.Rot>
1.0000

> <Gold.Chemscore.Internal.Correction>
   9.000000E+99

> <Gold.Chemscore.Hbonds>
donor molecule, donor type, donor heavy atom, donor atom, acceptor molecule, acceptor atom, score
      P1  H  7997  8009       L1    12  0.87
      P1  H 10752 10765       L1    11  0.84

> <Gold.Chemscore.Hbond.Weighted>
-5.7780

> <Gold.Chemscore.Metal.Weighted>
-0.0000

> <Gold.Chemscore.Lipo.Weighted>
-11.3635

> <Gold.Chemscore.Internal_Hbond.Weighted>
0.0000

> <Gold.Chemscore.DEClash.Weighted>
0.4253

> <Gold.Chemscore.DEInternal.Weighted>
0.8115

> <Gold.Chemscore.Rot.Weighted>
2.5600

> <Gold.Chemscore.Internal.Correction.Weighted>
   9.000000E+99

> <Gold.Protein.RotatedTorsions>
[ 6907 6896 6895 6894 ] final   31.81 input  -60.11 | X-H torsion
[ 7974 7965 7964 7962 ] final    9.24 input  175.53 | X-H torsion
[ 8008 7997 7996 7995 ] final -122.23 input   59.86 | X-H torsion
[ 10167 10162 10161 10158 ] final  -61.36 input  -65.29 | X-H torsion
[ 10718 10713 10712 10709 ] final   88.23 input   66.30 | X-H torsion
[ 10763 10752 10751 10750 ] final  150.59 input  -60.55 | X-H torsion
[ 11005 11000 10999 10996 ] final   56.65 input  -57.11 | X-H torsion

> <Gold.Protein.ActiveResidues>
 VAL166  LYS551  ARG553  GLY616  TRP617  ASP618  TYR619  PRO620  LYS621  CYS622 
 ASP623  PHE694  ASN695  SER759  ASP760  ASP761  ALA762  ILE779  LEU786  VAL792 
 PHE793  MET794  SER795  GLU796  ALA797  LYS798  CYS799  TRP800  GLU811  SER814 

> <Gold.Protein.RotatedAtoms>
  152.0655  134.9567  160.0574 H   0  0  0  0  0  0  0  0  0  0  0  0  # atno 6907 bound_to 6896
  152.0913  133.4197  159.4553 H   0  0  0  0  0  0  0  0  0  0  0  0  # atno 6908 bound_to 6896
  150.6837  134.2788  159.4662 H   0  0  0  0  0  0  0  0  0  0  0  0  # atno 6909 bound_to 6896
  146.2406  139.9812  142.8436 H   0  0  0  0  0  0  0  0  0  0  0  0  # atno 7974 bound_to 7965
  155.1609  140.0406  157.2842 H   0  0  0  0  0  0  0  0  0  0  0  0  # atno 8008 bound_to 7997
  154.6337  140.2530  155.7376 H   0  0  0  0  0  0  0  0  0  0  0  0  # atno 8009 bound_to 7997
  156.2498  140.2870  156.0700 H   0  0  0  0  0  0  0  0  0  0  0  0  # atno 8010 bound_to 7997
  140.6011  143.2362  151.5927 H   0  0  0  0  0  0  0  0  0  0  0  0  # atno 10167 bound_to 10162
  157.6947  131.0287  150.3243 H   0  0  0  0  0  0  0  0  0  0  0  0  # atno 10718 bound_to 10713
  154.0900  135.2853  155.3273 H   0  0  0  0  0  0  0  0  0  0  0  0  # atno 10763 bound_to 10752
  154.6626  135.5329  153.8040 H   0  0  0  0  0  0  0  0  0  0  0  0  # atno 10764 bound_to 10752
  153.0417  135.6537  154.1070 H   0  0  0  0  0  0  0  0  0  0  0  0  # atno 10765 bound_to 10752
  140.0513  134.5733  155.9261 H   0  0  0  0  0  0  0  0  0  0  0  0  # atno 11005 bound_to 11000
  145.1590  140.9663  143.4388 LP  0  0  0  0  0  0  0  0  0  0  0  0  # atno 17320 bound_to 7965
  145.0134  139.3489  143.6108 LP  0  0  0  0  0  0  0  0  0  0  0  0  # atno 17321 bound_to 7965
  139.5292  144.2968  152.1107 LP  0  0  0  0  0  0  0  0  0  0  0  0  # atno 17342 bound_to 10162
  140.2149  144.4525  150.6368 LP  0  0  0  0  0  0  0  0  0  0  0  0  # atno 17343 bound_to 10162
  156.3726  130.3866  149.7163 LP  0  0  0  0  0  0  0  0  0  0  0  0  # atno 17370 bound_to 10713
  156.4573  130.7935  151.2956 LP  0  0  0  0  0  0  0  0  0  0  0  0  # atno 17371 bound_to 10713
  141.1931  133.6578  156.5534 LP  0  0  0  0  0  0  0  0  0  0  0  0  # atno 17394 bound_to 11000
  140.3913  134.7437  157.4723 LP  0  0  0  0  0  0  0  0  0  0  0  0  # atno 17395 bound_to 11000

$$$$
