AV-unprocessed.smi:2346|AV-procd|sdf|9366|dock5
  -GOLD-   2272012593D 1   1.00000     0.00000
 Structure written by MMmdl.
 44 46  0  0  0  0  0  0  0  0  1 V2000
  145.6021  143.5198  153.7830 C   0  0  0  0  0  0  0  0  0  0  0  0
  146.3968  142.9105  154.7890 O   0  0  0  0  0  0  0  0  0  0  0  0
  146.8552  141.6262  154.5766 C   0  0  0  0  0  0  0  0  0  0  0  0
  146.6518  140.9065  153.3720 C   0  0  0  0  0  0  0  0  0  0  0  0
  147.1485  139.5958  153.2297 C   0  0  0  0  0  0  0  0  0  0  0  0
  146.9352  138.8657  151.9912 C   0  0  0  0  0  0  0  0  0  0  0  0
  146.7655  138.2848  151.0053 N   0  0  0  0  0  0  0  0  0  0  0  0
  147.8521  138.9941  154.2897 C   0  0  0  0  0  0  0  0  0  0  0  0
  148.0573  139.6998  155.4891 C   0  0  0  0  0  0  0  0  0  0  0  0
  147.5598  141.0178  155.6402 C   0  0  0  0  0  0  0  0  0  0  0  0
  147.7237  141.7698  156.7826 O   0  0  0  0  0  0  0  0  0  0  0  0
  148.7597  141.4243  157.6910 C   0  0  0  0  0  0  0  0  0  0  0  0
  150.0860  141.9807  157.1528 C   0  0  0  0  0  0  0  0  0  0  0  0
  151.2354  141.2819  157.7123 N   0  0  0  0  0  0  0  0  0  0  0  0
  151.7868  140.1068  157.3134 C   0  0  0  0  0  0  0  0  0  0  0  0
  151.2542  139.3224  156.1461 C   0  0  1  0  0  0  0  0  0  0  0  0
  152.3242  139.1022  155.0686 C   0  0  0  0  0  0  0  0  0  0  0  0
  150.7486  138.0613  156.5356 O   0  0  0  0  0  0  0  0  0  0  0  0
  152.8560  139.7071  158.0067 N   0  0  0  0  0  0  0  0  0  0  0  0
  152.9916  140.6968  158.9597 C   0  0  0  0  0  0  0  0  0  0  0  0
  153.9298  140.8415  160.0067 C   0  0  0  0  0  0  0  0  0  0  0  0
  153.8651  141.9509  160.8750 C   0  0  0  0  0  0  0  0  0  0  0  0
  152.8655  142.9310  160.7073 C   0  0  0  0  0  0  0  0  0  0  0  0
  151.9252  142.8088  159.6668 C   0  0  0  0  0  0  0  0  0  0  0  0
  151.9922  141.6978  158.8043 C   0  0  0  0  0  0  0  0  0  0  0  0
  145.3149  144.5190  154.1106 H   0  0  0  0  0  0  0  0  0  0  0  0
  144.6857  142.9563  153.6026 H   0  0  0  0  0  0  0  0  0  0  0  0
  146.1539  143.6247  152.8481 H   0  0  0  0  0  0  0  0  0  0  0  0
  146.1148  141.3454  152.5439 H   0  0  0  0  0  0  0  0  0  0  0  0
  148.2387  137.9897  154.1902 H   0  0  0  0  0  0  0  0  0  0  0  0
  148.6040  139.2092  156.2799 H   0  0  0  0  0  0  0  0  0  0  0  0
  148.5566  141.8455  158.6770 H   0  0  0  0  0  0  0  0  0  0  0  0
  148.8283  140.3406  157.7922 H   0  0  0  0  0  0  0  0  0  0  0  0
  150.1172  141.9266  156.0648 H   0  0  0  0  0  0  0  0  0  0  0  0
  150.1716  143.0385  157.4035 H   0  0  0  0  0  0  0  0  0  0  0  0
  150.4123  139.8560  155.7070 H   0  0  0  0  0  0  0  0  0  0  0  0
  152.7064  140.0537  154.6976 H   0  0  0  0  0  0  0  0  0  0  0  0
  151.9190  138.5558  154.2164 H   0  0  0  0  0  0  0  0  0  0  0  0
  153.1700  138.5348  155.4584 H   0  0  0  0  0  0  0  0  0  0  0  0
  150.7186  138.0332  157.4800 H   0  0  0  0  0  0  0  0  0  0  0  0
  154.6982  140.0952  160.1441 H   0  0  0  0  0  0  0  0  0  0  0  0
  154.5850  142.0498  161.6741 H   0  0  0  0  0  0  0  0  0  0  0  0
  152.8206  143.7765  161.3779 H   0  0  0  0  0  0  0  0  0  0  0  0
  151.1558  143.5556  159.5387 H   0  0  0  0  0  0  0  0  0  0  0  0
  1  2  1  0  0  0  0
  1 26  1  0  0  0  0
  1 27  1  0  0  0  0
  1 28  1  0  0  0  0
  2  3  1  0  0  0  0
  3 10  1  0  0  0  0
  3  4  2  0  0  0  0
  4  5  1  0  0  0  0
  4 29  1  0  0  0  0
  5  6  1  0  0  0  0
  5  8  2  0  0  0  0
  6  7  3  0  0  0  0
  8  9  1  0  0  0  0
  8 30  1  0  0  0  0
  9 10  2  0  0  0  0
  9 31  1  0  0  0  0
 10 11  1  0  0  0  0
 11 12  1  0  0  0  0
 12 13  1  0  0  0  0
 12 32  1  0  0  0  0
 12 33  1  0  0  0  0
 13 14  1  0  0  0  0
 13 34  1  0  0  0  0
 13 35  1  0  0  0  0
 14 25  1  0  0  0  0
 14 15  1  0  0  0  0
 15 16  1  0  0  0  0
 15 19  2  0  0  0  0
 16 17  1  0  0  0  0
 16 18  1  0  0  0  0
 16 36  1  0  0  0  0
 17 37  1  0  0  0  0
 17 38  1  0  0  0  0
 17 39  1  0  0  0  0
 18 40  1  0  0  0  0
 19 20  1  0  0  0  0
 20 25  2  0  0  0  0
 20 21  1  0  0  0  0
 21 22  2  0  0  0  0
 21 41  1  0  0  0  0
 22 23  1  0  0  0  0
 22 42  1  0  0  0  0
 23 24  2  0  0  0  0
 23 43  1  0  0  0  0
 24 25  1  0  0  0  0
 24 44  1  0  0  0  0
M  END
> <s_m_source_file>
AV-unprocessed.smi

> <i_m_source_file_index>
2346

> <i_lp_mmshare_version>
43012

> <i_f3d_flags>
0

> <s_epik_input>
W0NIM11PYzFbY0hdYyhDI04pW2NIXVtjSF1jMU9bQ0gyXVtDSDJdbihjKG4yKVtDQEhdKFtDSDNdKVtPSF0pYyhjMjMpW2NIXVtjSF1bY0hdW2NIXTM=

> <s_epik_cmdline>
J2VwaWtfcHl0aG9uJywgJy1waCcsICc3LjAnLCAnLXRuJywgJzgnLCAnLW1hJywgJzIwMCcsICctbWV0YWxfYmluZGluZycsICctaW1hZScsICc8aW5maWxlLm1hZT4nLCAnLW9tYWUnLCAnPG91dGZpbGUubWFlPic=

> <r_epik_Ionization_Penalty>
0.0419826

> <r_epik_Ionization_Penalty_Charging>
0

> <r_epik_Ionization_Penalty_Neutral>
0.0419826

> <r_epik_State_Penalty>
0.0354317

> <r_epik_Charging_Adjusted_Penalty>
0.0354317

> <i_epik_Tot_Q>
0

> <i_epik_Tot_abs_Q>
0

> <r_epik_Metal_State_Penalty>
3.65115e-05

> <b_epik_Metal_Only>
0

> <s_lp_Force_Field>
OPLS_2005

> <r_lp_Energy>
17.2355

> <b_lp_Chiralities_Consistent>
1

> <s_lp_Variant>
AV-unprocessed.smi:2346-2

> <Gold.Version>
5.8.1

> <Gold.Id.Protein>
6NUR|6NUR_protein|mol2

> <Gold.PLP.Fitness>
49.4814

> <Gold.PLP.PLP>
-45.1161

> <Gold.PLP.part.hbond>
-2.0000

> <Gold.PLP.part.metal>
0.0000

> <Gold.PLP.part.buried>
-3.6061

> <Gold.PLP.part.nonpolar>
-42.1125

> <Gold.PLP.part.repulsive>
0.8309

> <Gold.PLP.ligand.clash>
0.0000

> <Gold.PLP.ligand.torsion>
0.8692

> <Gold.PLP.Chemscore.Hbond>
2.0000

> <Gold.PLP.Chemscore.CHOScore>
0.0000

> <Gold.PLP.Chemscore.Metal>
0.0000

> <Gold.Chemscore.Hbonds>
donor molecule, donor type, donor heavy atom, donor atom, acceptor molecule, acceptor atom, score
      P1  H  7954  7966       L1     7  1.00
      P1  H  7997  8010       L1    19  1.00

> <Gold.PLP.Chemscore.Internal.Correction>
0.1036

> <Gold.Rescore>
     Score         DG    S(hbond)    S(metal)    S(lipo)     H(rot)  DE(clash)    DE(int)     intcor
     15.72     -17.51       1.47        0.00     117.05       2.57       0.97       0.82       ----

> <Gold.Chemscore.Fitness>
15.7181

> <Gold.Chemscore.DG>
-17.5091

> <Gold.Chemscore.ZeroCoef>
-5.4800

> <Gold.Chemscore.Hbond>
1.4697

> <Gold.Chemscore.Metal>
0.0000

> <Gold.Chemscore.Lipo>
117.0476

> <Gold.Chemscore.Internal_Hbond>
0.0000

> <Gold.Chemscore.DEClash>
0.9708

> <Gold.Chemscore.DEInternal>
0.8202

> <Gold.Chemscore.Rot>
2.5681

> <Gold.Chemscore.Internal.Correction>
   9.000000E+99

> <Gold.Chemscore.Hbonds>
donor molecule, donor type, donor heavy atom, donor atom, acceptor molecule, acceptor atom, score
      P1  H  7954  7966       L1     7  0.97
      P1  H  7997  8010       L1    19  0.16

> <Gold.Chemscore.Hbond.Weighted>
-4.9088

> <Gold.Chemscore.Metal.Weighted>
-0.0000

> <Gold.Chemscore.Lipo.Weighted>
-13.6946

> <Gold.Chemscore.Internal_Hbond.Weighted>
0.0000

> <Gold.Chemscore.DEClash.Weighted>
0.9708

> <Gold.Chemscore.DEInternal.Weighted>
0.8202

> <Gold.Chemscore.Rot.Weighted>
6.5743

> <Gold.Chemscore.Internal.Correction.Weighted>
   9.000000E+99

> <Gold.Protein.RotatedTorsions>
[ 6907 6896 6895 6894 ] final  -72.77 input  -60.11 | X-H torsion
[ 7974 7965 7964 7962 ] final -135.38 input  175.53 | X-H torsion
[ 8008 7997 7996 7995 ] final   45.63 input   59.86 | X-H torsion
[ 10167 10162 10161 10158 ] final   83.53 input  -65.29 | X-H torsion
[ 10718 10713 10712 10709 ] final   43.29 input   66.30 | X-H torsion
[ 10763 10752 10751 10750 ] final -146.95 input  -60.55 | X-H torsion
[ 11005 11000 10999 10996 ] final -151.77 input  -57.11 | X-H torsion

> <Gold.Protein.ActiveResidues>
 VAL166  LYS551  ARG553  GLY616  TRP617  ASP618  TYR619  PRO620  LYS621  CYS622 
 ASP623  PHE694  ASN695  SER759  ASP760  ASP761  ALA762  ILE779  LEU786  VAL792 
 PHE793  MET794  SER795  GLU796  ALA797  LYS798  CYS799  TRP800  GLU811  SER814 

> <Gold.Protein.RotatedAtoms>
  150.7156  134.5114  159.5608 H   0  0  0  0  0  0  0  0  0  0  0  0  # atno 6907 bound_to 6896
  152.2690  134.7950  160.0426 H   0  0  0  0  0  0  0  0  0  0  0  0  # atno 6908 bound_to 6896
  151.8637  133.3427  159.3749 H   0  0  0  0  0  0  0  0  0  0  0  0  # atno 6909 bound_to 6896
  144.9019  140.6782  143.5080 H   0  0  0  0  0  0  0  0  0  0  0  0  # atno 7974 bound_to 7965
  155.3392  140.3407  155.4239 H   0  0  0  0  0  0  0  0  0  0  0  0  # atno 8008 bound_to 7997
  156.1822  140.1668  156.8289 H   0  0  0  0  0  0  0  0  0  0  0  0  # atno 8009 bound_to 7997
  154.5346  140.0738  156.8388 H   0  0  0  0  0  0  0  0  0  0  0  0  # atno 8010 bound_to 7997
  139.9175  144.6234  150.8474 H   0  0  0  0  0  0  0  0  0  0  0  0  # atno 10167 bound_to 10162
  157.4142  130.7932  149.7458 H   0  0  0  0  0  0  0  0  0  0  0  0  # atno 10718 bound_to 10713
  154.8311  135.3373  154.6741 H   0  0  0  0  0  0  0  0  0  0  0  0  # atno 10763 bound_to 10752
  153.7361  135.6949  153.4982 H   0  0  0  0  0  0  0  0  0  0  0  0  # atno 10764 bound_to 10752
  153.2277  135.4427  155.0512 H   0  0  0  0  0  0  0  0  0  0  0  0  # atno 10765 bound_to 10752
  140.7260  134.3674  157.5175 H   0  0  0  0  0  0  0  0  0  0  0  0  # atno 11005 bound_to 11000
  145.3602  139.1683  143.4387 LP  0  0  0  0  0  0  0  0  0  0  0  0  # atno 17320 bound_to 7965
  146.3113  140.3663  142.8670 LP  0  0  0  0  0  0  0  0  0  0  0  0  # atno 17321 bound_to 7965
  140.7670  143.3321  151.2388 LP  0  0  0  0  0  0  0  0  0  0  0  0  # atno 17342 bound_to 10162
  139.6890  143.9724  152.2849 LP  0  0  0  0  0  0  0  0  0  0  0  0  # atno 17343 bound_to 10162
  155.9860  130.3978  150.3234 LP  0  0  0  0  0  0  0  0  0  0  0  0  # atno 17370 bound_to 10713
  157.1375  131.0288  151.2942 LP  0  0  0  0  0  0  0  0  0  0  0  0  # atno 17371 bound_to 10713
  139.8837  134.8987  156.2750 LP  0  0  0  0  0  0  0  0  0  0  0  0  # atno 17394 bound_to 11000
  140.9962  133.7179  156.0890 LP  0  0  0  0  0  0  0  0  0  0  0  0  # atno 17395 bound_to 11000

$$$$
