AV-unprocessed.smi:1867|AV-procd|sdf|7560|dock5
  -GOLD-   22720 9273D 1   1.00000     0.00000
 Structure written by MMmdl.
 52 55  0  0  0  0  0  0  0  0  2 V2000
  146.7604  136.2984  155.6674 O   0  0  0  0  0  0  0  0  0  0  0  0
  147.4213  136.2160  154.6347 C   0  0  0  0  0  0  0  0  0  0  0  0
  148.4489  137.0266  154.3142 N   0  0  0  0  0  0  0  0  0  0  0  0
  149.0371  138.0577  155.0942 C   0  0  0  0  0  0  0  0  0  0  0  0
  148.9197  138.1572  156.4997 C   0  0  0  0  0  0  0  0  0  0  0  0
  149.5708  139.2129  157.1657 C   0  0  0  0  0  0  0  0  0  0  0  0
  150.3313  140.1398  156.4138 C   0  0  0  0  0  0  0  0  0  0  0  0
  150.9934  141.2153  157.0390 N   0  0  0  0  0  0  0  0  0  0  0  0
  150.9427  142.5708  156.5158 C   0  0  0  0  0  0  0  0  0  0  0  0
  151.6758  143.4178  157.5558 C   0  0  0  0  0  0  0  0  0  0  0  0
  151.3912  142.6856  158.8673 C   0  0  0  0  0  0  0  0  0  0  0  0
  151.3174  141.2102  158.4599 C   0  0  0  0  0  0  0  0  0  0  0  0
  150.4478  140.0372  155.0683 N   0  0  0  0  0  0  0  0  0  0  0  0
  149.8239  139.0225  154.4347 C   0  0  0  0  0  0  0  0  0  0  0  0
  147.1269  135.3007  153.6947 N   0  0  0  0  0  0  0  0  0  0  0  0
  146.0789  134.2802  153.7288 C   0  0  2  0  0  0  0  0  0  0  0  0
  146.3049  133.1124  152.7483 C   0  0  0  0  0  0  0  0  0  0  0  0
  144.9091  132.7707  152.1892 C   0  0  0  0  0  0  0  0  0  0  0  0
  143.9712  133.6418  152.9229 N   0  3  2  0  0  0  0  0  0  0  0  0
  142.6809  133.9503  152.2689 C   0  0  0  0  0  0  0  0  0  0  0  0
  141.8174  134.7983  153.2249 C   0  0  0  0  0  0  0  0  0  0  0  0
  142.5718  136.0495  153.7211 C   0  0  0  0  0  0  0  0  0  0  0  0
  143.9484  135.6751  154.3043 C   0  0  0  0  0  0  0  0  0  0  0  0
  144.7349  134.8483  153.2741 C   0  0  1  0  0  0  0  0  0  0  0  0
  148.8290  136.9169  153.3857 H   0  0  0  0  0  0  0  0  0  0  0  0
  148.3595  137.4410  157.0804 H   0  0  0  0  0  0  0  0  0  0  0  0
  149.4787  139.2913  158.2384 H   0  0  0  0  0  0  0  0  0  0  0  0
  151.4154  142.6442  155.5359 H   0  0  0  0  0  0  0  0  0  0  0  0
  149.9025  142.8861  156.4255 H   0  0  0  0  0  0  0  0  0  0  0  0
  152.7477  143.4052  157.3537 H   0  0  0  0  0  0  0  0  0  0  0  0
  151.3456  144.4568  157.5655 H   0  0  0  0  0  0  0  0  0  0  0  0
  152.1426  142.8761  159.6340 H   0  0  0  0  0  0  0  0  0  0  0  0
  150.4242  143.0044  159.2589 H   0  0  0  0  0  0  0  0  0  0  0  0
  150.5760  140.6772  159.0565 H   0  0  0  0  0  0  0  0  0  0  0  0
  152.2831  140.7226  158.5968 H   0  0  0  0  0  0  0  0  0  0  0  0
  149.9551  138.9839  153.3632 H   0  0  0  0  0  0  0  0  0  0  0  0
  147.6621  135.3533  152.8398 H   0  0  0  0  0  0  0  0  0  0  0  0
  145.9656  133.8879  154.7416 H   0  0  0  0  0  0  0  0  0  0  0  0
  146.9689  133.4005  151.9316 H   0  0  0  0  0  0  0  0  0  0  0  0
  146.7593  132.2590  153.2531 H   0  0  0  0  0  0  0  0  0  0  0  0
  144.8699  132.9916  151.1213 H   0  0  0  0  0  0  0  0  0  0  0  0
  144.6503  131.7206  152.3279 H   0  0  0  0  0  0  0  0  0  0  0  0
  142.8555  134.4862  151.3346 H   0  0  0  0  0  0  0  0  0  0  0  0
  142.1654  133.0225  152.0186 H   0  0  0  0  0  0  0  0  0  0  0  0
  140.8905  135.0914  152.7313 H   0  0  0  0  0  0  0  0  0  0  0  0
  141.5285  134.1902  154.0832 H   0  0  0  0  0  0  0  0  0  0  0  0
  142.7065  136.7437  152.8907 H   0  0  0  0  0  0  0  0  0  0  0  0
  141.9768  136.5747  154.4690 H   0  0  0  0  0  0  0  0  0  0  0  0
  144.5020  136.5765  154.5690 H   0  0  0  0  0  0  0  0  0  0  0  0
  143.8180  135.1050  155.2252 H   0  0  0  0  0  0  0  0  0  0  0  0
  144.8828  135.4410  152.3680 H   0  0  0  0  0  0  0  0  0  0  0  0
  143.7628  133.1723  153.7926 H   0  0  0  0  0  0  0  0  0  0  0  0
  1  2  2  0  0  0  0
  2  3  1  0  0  0  0
  2 15  1  0  0  0  0
  3  4  1  0  0  0  0
  3 25  1  0  0  0  0
  4 14  1  0  0  0  0
  4  5  2  0  0  0  0
  5  6  1  0  0  0  0
  5 26  1  0  0  0  0
  6  7  2  0  0  0  0
  6 27  1  0  0  0  0
  7  8  1  0  0  0  0
  7 13  1  0  0  0  0
  8 12  1  0  0  0  0
  8  9  1  0  0  0  0
  9 10  1  0  0  0  0
  9 28  1  0  0  0  0
  9 29  1  0  0  0  0
 10 11  1  0  0  0  0
 10 30  1  0  0  0  0
 10 31  1  0  0  0  0
 11 12  1  0  0  0  0
 11 32  1  0  0  0  0
 11 33  1  0  0  0  0
 12 34  1  0  0  0  0
 12 35  1  0  0  0  0
 13 14  2  0  0  0  0
 14 36  1  0  0  0  0
 15 16  1  0  0  0  0
 15 37  1  0  0  0  0
 16 24  1  0  0  0  0
 16 17  1  0  0  0  0
 16 38  1  0  0  0  0
 17 18  1  0  0  0  0
 17 39  1  0  0  0  0
 17 40  1  0  0  0  0
 18 19  1  0  0  0  0
 18 41  1  0  0  0  0
 18 42  1  0  0  0  0
 19 24  1  0  0  0  0
 19 20  1  0  0  0  0
 19 52  1  0  0  0  0
 20 21  1  0  0  0  0
 20 43  1  0  0  0  0
 20 44  1  0  0  0  0
 21 22  1  0  0  0  0
 21 45  1  0  0  0  0
 21 46  1  0  0  0  0
 22 23  1  0  0  0  0
 22 47  1  0  0  0  0
 22 48  1  0  0  0  0
 23 24  1  0  0  0  0
 23 49  1  0  0  0  0
 23 50  1  0  0  0  0
 24 51  1  0  0  0  0
M  CHG  1  19   1
M  END
> <s_m_source_file>
AV-unprocessed.smi

> <i_m_source_file_index>
1867

> <i_lp_mmshare_version>
43012

> <i_f3d_flags>
0

> <s_epik_input>
W0NIMl0xW0NIMl1bQ0gyXVtDSDJdW0NASF0oTjEyKVtDQEBIXShbQ0gyXVtDSDJdMilbTkhdQyg9TylbTkhdYzNbY0hdW2NIXWMobltjSF0zKU40W0NIMl1bQ0gyXVtDSDJdW0NIMl00

> <s_epik_cmdline>
J2VwaWtfcHl0aG9uJywgJy1waCcsICc3LjAnLCAnLXRuJywgJzgnLCAnLW1hJywgJzIwMCcsICctbWV0YWxfYmluZGluZycsICctaW1hZScsICc8aW5maWxlLm1hZT4nLCAnLW9tYWUnLCAnPG91dGZpbGUubWFlPic=

> <r_lp_tautomer_probability>
1

> <r_epik_Ionization_Penalty>
0.0751123

> <r_epik_Ionization_Penalty_Charging>
0.000974069

> <r_epik_Ionization_Penalty_Neutral>
0.0741382

> <r_epik_State_Penalty>
0.0647261

> <r_epik_Charging_Adjusted_Penalty>
0.0657002

> <i_epik_Tot_Q>
1

> <i_epik_Tot_abs_Q>
1

> <r_epik_Metal_State_Penalty>
0.0580571

> <b_epik_Metal_Only>
0

> <s_lp_Force_Field>
OPLS_2005

> <r_lp_Energy>
71.0604

> <b_lp_Chiralities_Consistent>
1

> <s_lp_Variant>
AV-unprocessed.smi:1867-1

> <Gold.Version>
5.8.1

> <Gold.Id.Protein>
6NUR|6NUR_protein|mol2

> <Gold.PLP.Fitness>
45.4912

> <Gold.PLP.PLP>
-30.1788

> <Gold.PLP.part.hbond>
-3.7367

> <Gold.PLP.part.metal>
0.0000

> <Gold.PLP.part.buried>
-4.2165

> <Gold.PLP.part.nonpolar>
-22.5145

> <Gold.PLP.part.repulsive>
0.0819

> <Gold.PLP.ligand.clash>
0.0000

> <Gold.PLP.ligand.torsion>
0.8611

> <Gold.PLP.Chemscore.Hbond>
4.6267

> <Gold.PLP.Chemscore.CHOScore>
1.0000

> <Gold.PLP.Chemscore.Metal>
0.0000

> <Gold.Chemscore.Hbonds>
donor molecule, donor type, donor heavy atom, donor atom, acceptor molecule, acceptor atom, score
      L1  H     3    25       P1  7948  1.00
      L1  H    15    37       P1  7948  0.98
      L1  H    19    52       P1 10957  1.87
      P1  H  7989  7998       L1    13  0.73
      L1  C    14    36       P1  7957  1.00

> <Gold.PLP.Chemscore.Internal.Correction>
0.1545

> <Gold.Rescore>
     Score         DG    S(hbond)    S(metal)    S(lipo)     H(rot)  DE(clash)    DE(int)     intcor
     20.81     -23.00       3.11        0.00      82.84       1.00       0.12       2.07       ----

> <Gold.Chemscore.Fitness>
20.8100

> <Gold.Chemscore.DG>
-23.0049

> <Gold.Chemscore.ZeroCoef>
-5.4800

> <Gold.Chemscore.Hbond>
3.1114

> <Gold.Chemscore.Metal>
0.0000

> <Gold.Chemscore.Lipo>
82.8444

> <Gold.Chemscore.Internal_Hbond>
0.0000

> <Gold.Chemscore.DEClash>
0.1221

> <Gold.Chemscore.DEInternal>
2.0728

> <Gold.Chemscore.Rot>
1.0000

> <Gold.Chemscore.Internal.Correction>
   9.000000E+99

> <Gold.Chemscore.Hbonds>
donor molecule, donor type, donor heavy atom, donor atom, acceptor molecule, acceptor atom, score
      L1  H     3    25       P1  7948  0.98
      L1  H    15    37       P1  7948  0.93
      L1  H    19    52       P1 10957  0.84
      P1  H  7989  7998       L1    13  0.25

> <Gold.Chemscore.Hbond.Weighted>
-10.3921

> <Gold.Chemscore.Metal.Weighted>
-0.0000

> <Gold.Chemscore.Lipo.Weighted>
-9.6928

> <Gold.Chemscore.Internal_Hbond.Weighted>
0.0000

> <Gold.Chemscore.DEClash.Weighted>
0.1221

> <Gold.Chemscore.DEInternal.Weighted>
2.0728

> <Gold.Chemscore.Rot.Weighted>
2.5600

> <Gold.Chemscore.Internal.Correction.Weighted>
   9.000000E+99

> <Gold.Protein.RotatedTorsions>
[ 6907 6896 6895 6894 ] final  -70.80 input  -60.11 | X-H torsion
[ 7974 7965 7964 7962 ] final -109.53 input  175.53 | X-H torsion
[ 8008 7997 7996 7995 ] final  170.15 input   59.86 | X-H torsion
[ 10167 10162 10161 10158 ] final  -15.19 input  -65.29 | X-H torsion
[ 10718 10713 10712 10709 ] final    2.18 input   66.30 | X-H torsion
[ 10763 10752 10751 10750 ] final -152.65 input  -60.55 | X-H torsion
[ 11005 11000 10999 10996 ] final  -76.55 input  -57.11 | X-H torsion

> <Gold.Protein.ActiveResidues>
 VAL166  LYS551  ARG553  GLY616  TRP617  ASP618  TYR619  PRO620  LYS621  CYS622 
 ASP623  PHE694  ASN695  SER759  ASP760  ASP761  ALA762  ILE779  LEU786  VAL792 
 PHE793  MET794  SER795  GLU796  ALA797  LYS798  CYS799  TRP800  GLU811  SER814 

> <Gold.Protein.RotatedAtoms>
  150.7241  134.5400  159.5742 H   0  0  0  0  0  0  0  0  0  0  0  0  # atno 6907 bound_to 6896
  152.2913  134.7715  160.0386 H   0  0  0  0  0  0  0  0  0  0  0  0  # atno 6908 bound_to 6896
  151.8328  133.3376  159.3655 H   0  0  0  0  0  0  0  0  0  0  0  0  # atno 6909 bound_to 6896
  145.1794  140.8964  143.3489 H   0  0  0  0  0  0  0  0  0  0  0  0  # atno 7974 bound_to 7965
  156.1392  140.1545  156.8947 H   0  0  0  0  0  0  0  0  0  0  0  0  # atno 8008 bound_to 7997
  154.4973  140.0835  156.7762 H   0  0  0  0  0  0  0  0  0  0  0  0  # atno 8009 bound_to 7997
  155.4111  140.3419  155.4266 H   0  0  0  0  0  0  0  0  0  0  0  0  # atno 8010 bound_to 7997
  140.7214  143.5243  150.9595 H   0  0  0  0  0  0  0  0  0  0  0  0  # atno 10167 bound_to 10162
  156.8591  130.5580  149.5664 H   0  0  0  0  0  0  0  0  0  0  0  0  # atno 10718 bound_to 10713
  154.7980  135.3231  154.7620 H   0  0  0  0  0  0  0  0  0  0  0  0  # atno 10763 bound_to 10752
  153.8294  135.6880  153.4821 H   0  0  0  0  0  0  0  0  0  0  0  0  # atno 10764 bound_to 10752
  153.1681  135.4634  154.9808 H   0  0  0  0  0  0  0  0  0  0  0  0  # atno 10765 bound_to 10752
  141.1654  133.6988  156.7686 H   0  0  0  0  0  0  0  0  0  0  0  0  # atno 11005 bound_to 11000
  145.0152  139.3474  143.6100 LP  0  0  0  0  0  0  0  0  0  0  0  0  # atno 17320 bound_to 7965
  146.3455  139.9430  142.8738 LP  0  0  0  0  0  0  0  0  0  0  0  0  # atno 17321 bound_to 7965
  139.8962  143.6892  152.3138 LP  0  0  0  0  0  0  0  0  0  0  0  0  # atno 17342 bound_to 10162
  139.7225  144.7599  151.0931 LP  0  0  0  0  0  0  0  0  0  0  0  0  # atno 17343 bound_to 10162
  156.0786  130.5802  150.9521 LP  0  0  0  0  0  0  0  0  0  0  0  0  # atno 17370 bound_to 10713
  157.6260  131.0925  150.8533 LP  0  0  0  0  0  0  0  0  0  0  0  0  # atno 17371 bound_to 10713
  140.2481  134.8562  157.3640 LP  0  0  0  0  0  0  0  0  0  0  0  0  # atno 17394 bound_to 11000
  140.1730  134.4585  155.7819 LP  0  0  0  0  0  0  0  0  0  0  0  0  # atno 17395 bound_to 11000

$$$$
