AV-unprocessed.smi:1654|AV-procd|sdf|6642|dock2
  -GOLD-   22720 7343D 1   1.00000     0.00000
 Structure written by MMmdl.
 40 41  0  0  0  0  0  0  0  0  1 V2000
  151.6027  139.0261  159.2661 O   0  0  0  0  0  0  0  0  0  0  0  0
  152.5831  139.8518  158.5444 S   0  0  0  0  0  0  0  0  0  0  0  0
  154.0281  139.6303  158.7084 O   0  0  0  0  0  0  0  0  0  0  0  0
  152.2017  139.7725  156.8659 N   0  0  0  0  0  0  0  0  0  0  0  0
  150.9064  139.2227  156.4767 C   0  0  0  0  0  0  0  0  0  0  0  0
  150.7761  139.2003  154.9488 C   0  0  0  0  0  0  0  0  0  0  0  0
  149.4255  139.7096  154.4858 C   0  0  0  0  0  0  0  0  0  0  0  0
  149.0888  141.0743  154.5993 C   0  0  0  0  0  0  0  0  0  0  0  0
  147.8192  141.4981  154.1615 C   0  0  0  0  0  0  0  0  0  0  0  0
  146.9381  140.5364  153.6279 C   0  0  0  0  0  0  0  0  0  0  0  0
  147.2498  139.2272  153.5147 N   0  0  0  0  0  0  0  0  0  0  0  0
  148.4691  138.8289  153.9370 C   0  0  0  0  0  0  0  0  0  0  0  0
  152.2427  141.5285  158.8295 N   0  0  0  0  0  0  0  0  0  0  0  0
  151.5100  142.2707  157.7853 C   0  0  0  0  0  0  0  0  0  0  0  0
  150.3745  143.1050  158.3971 C   0  0  0  0  0  0  0  0  0  0  0  0
  150.7798  144.5239  158.8327 C   0  0  0  0  0  0  0  0  0  0  0  0
  152.1793  144.6604  159.4568 C   0  0  0  0  0  0  0  0  0  0  0  0
  152.5939  143.4937  160.3660 C   0  0  0  0  0  0  0  0  0  0  0  0
  153.2228  142.3104  159.6049 C   0  0  0  0  0  0  0  0  0  0  0  0
  152.4163  140.6473  156.3880 H   0  0  0  0  0  0  0  0  0  0  0  0
  150.8103  138.2157  156.8844 H   0  0  0  0  0  0  0  0  0  0  0  0
  150.1152  139.8298  156.9181 H   0  0  0  0  0  0  0  0  0  0  0  0
  151.5590  139.8106  154.4962 H   0  0  0  0  0  0  0  0  0  0  0  0
  150.9208  138.1858  154.5746 H   0  0  0  0  0  0  0  0  0  0  0  0
  149.7886  141.7838  155.0162 H   0  0  0  0  0  0  0  0  0  0  0  0
  147.5268  142.5353  154.2338 H   0  0  0  0  0  0  0  0  0  0  0  0
  145.9562  140.8262  153.2838 H   0  0  0  0  0  0  0  0  0  0  0  0
  148.6865  137.7757  153.8355 H   0  0  0  0  0  0  0  0  0  0  0  0
  152.1963  142.8805  157.1964 H   0  0  0  0  0  0  0  0  0  0  0  0
  151.0728  141.5595  157.0844 H   0  0  0  0  0  0  0  0  0  0  0  0
  149.5662  143.1947  157.6706 H   0  0  0  0  0  0  0  0  0  0  0  0
  149.9422  142.5655  159.2413 H   0  0  0  0  0  0  0  0  0  0  0  0
  150.7237  145.1935  157.9737 H   0  0  0  0  0  0  0  0  0  0  0  0
  150.0332  144.8892  159.5385 H   0  0  0  0  0  0  0  0  0  0  0  0
  152.9243  144.7862  158.6702 H   0  0  0  0  0  0  0  0  0  0  0  0
  152.2054  145.5882  160.0295 H   0  0  0  0  0  0  0  0  0  0  0  0
  153.3451  143.8673  161.0626 H   0  0  0  0  0  0  0  0  0  0  0  0
  151.7584  143.1632  160.9846 H   0  0  0  0  0  0  0  0  0  0  0  0
  153.6951  141.6575  160.3385 H   0  0  0  0  0  0  0  0  0  0  0  0
  154.0214  142.6486  158.9435 H   0  0  0  0  0  0  0  0  0  0  0  0
  1  2  2  0  0  0  0
  2  3  2  0  0  0  0
  2  4  1  0  0  0  0
  2 13  1  0  0  0  0
  4  5  1  0  0  0  0
  4 20  1  0  0  0  0
  5  6  1  0  0  0  0
  5 21  1  0  0  0  0
  5 22  1  0  0  0  0
  6  7  1  0  0  0  0
  6 23  1  0  0  0  0
  6 24  1  0  0  0  0
  7 12  1  0  0  0  0
  7  8  2  0  0  0  0
  8  9  1  0  0  0  0
  8 25  1  0  0  0  0
  9 10  2  0  0  0  0
  9 26  1  0  0  0  0
 10 11  1  0  0  0  0
 10 27  1  0  0  0  0
 11 12  2  0  0  0  0
 12 28  1  0  0  0  0
 13 19  1  0  0  0  0
 13 14  1  0  0  0  0
 14 15  1  0  0  0  0
 14 29  1  0  0  0  0
 14 30  1  0  0  0  0
 15 16  1  0  0  0  0
 15 31  1  0  0  0  0
 15 32  1  0  0  0  0
 16 17  1  0  0  0  0
 16 33  1  0  0  0  0
 16 34  1  0  0  0  0
 17 18  1  0  0  0  0
 17 35  1  0  0  0  0
 17 36  1  0  0  0  0
 18 19  1  0  0  0  0
 18 37  1  0  0  0  0
 18 38  1  0  0  0  0
 19 39  1  0  0  0  0
 19 40  1  0  0  0  0
M  END
> <s_m_source_file>
AV-unprocessed.smi

> <i_m_source_file_index>
1654

> <i_lp_mmshare_version>
43012

> <i_f3d_flags>
0

> <s_epik_input>
W0NIMl0xW0NIMl1bQ0gyXVtDSDJdW0NIMl1bQ0gyXU4xUyg9TykoPU8pW05IXVtDSDJdW0NIMl1jMltjSF1bY0hdW2NIXW5bY0hdMg==

> <s_epik_cmdline>
J2VwaWtfcHl0aG9uJywgJy1waCcsICc3LjAnLCAnLXRuJywgJzgnLCAnLW1hJywgJzIwMCcsICctbWV0YWxfYmluZGluZycsICctaW1hZScsICc8aW5maWxlLm1hZT4nLCAnLW9tYWUnLCAnPG91dGZpbGUubWFlPic=

> <r_lp_tautomer_probability>
1

> <r_epik_Ionization_Penalty>
0.00688973

> <r_epik_Ionization_Penalty_Charging>
0

> <r_epik_Ionization_Penalty_Neutral>
0.00688973

> <r_epik_State_Penalty>
-0

> <r_epik_Charging_Adjusted_Penalty>
0

> <i_epik_Tot_Q>
0

> <i_epik_Tot_abs_Q>
0

> <r_epik_Metal_State_Penalty>
0.361675

> <b_epik_Metal_Only>
0

> <s_lp_Force_Field>
OPLS_2005

> <r_lp_Energy>
15.461

> <b_lp_Chiralities_Consistent>
1

> <s_lp_Variant>
AV-unprocessed.smi:1654-1

> <Gold.Version>
5.8.1

> <Gold.Id.Protein>
6NUR|6NUR_protein|mol2

> <Gold.PLP.Fitness>
48.2018

> <Gold.PLP.PLP>
-41.1115

> <Gold.PLP.part.hbond>
-1.6234

> <Gold.PLP.part.metal>
0.0000

> <Gold.PLP.part.buried>
-3.4815

> <Gold.PLP.part.nonpolar>
-36.8845

> <Gold.PLP.part.repulsive>
0.2115

> <Gold.PLP.ligand.clash>
0.0000

> <Gold.PLP.ligand.torsion>
2.0007

> <Gold.PLP.Chemscore.Hbond>
1.0000

> <Gold.PLP.Chemscore.CHOScore>
1.9964

> <Gold.PLP.Chemscore.Metal>
0.0000

> <Gold.Chemscore.Hbonds>
donor molecule, donor type, donor heavy atom, donor atom, acceptor molecule, acceptor atom, score
      P1  H  7997  8009       L1     3  1.00
      L1  C    10    27       P1 10175  1.00
      L1  C    12    28       P1  7948  1.00

> <Gold.PLP.Chemscore.Internal.Correction>
2.1026

> <Gold.Rescore>
     Score         DG    S(hbond)    S(metal)    S(lipo)     H(rot)  DE(clash)    DE(int)     intcor
     16.24     -18.36       0.93        0.00     115.75       1.47       0.22       1.90       ----

> <Gold.Chemscore.Fitness>
16.2393

> <Gold.Chemscore.DG>
-18.3636

> <Gold.Chemscore.ZeroCoef>
-5.4800

> <Gold.Chemscore.Hbond>
0.9315

> <Gold.Chemscore.Metal>
0.0000

> <Gold.Chemscore.Lipo>
115.7454

> <Gold.Chemscore.Internal_Hbond>
0.0000

> <Gold.Chemscore.DEClash>
0.2211

> <Gold.Chemscore.DEInternal>
1.9031

> <Gold.Chemscore.Rot>
1.4725

> <Gold.Chemscore.Internal.Correction>
   9.000000E+99

> <Gold.Chemscore.Hbonds>
donor molecule, donor type, donor heavy atom, donor atom, acceptor molecule, acceptor atom, score
      P1  H  7997  8009       L1     3  0.92

> <Gold.Chemscore.Hbond.Weighted>
-3.1111

> <Gold.Chemscore.Metal.Weighted>
-0.0000

> <Gold.Chemscore.Lipo.Weighted>
-13.5422

> <Gold.Chemscore.Internal_Hbond.Weighted>
0.0000

> <Gold.Chemscore.DEClash.Weighted>
0.2211

> <Gold.Chemscore.DEInternal.Weighted>
1.9031

> <Gold.Chemscore.Rot.Weighted>
3.7697

> <Gold.Chemscore.Internal.Correction.Weighted>
   9.000000E+99

> <Gold.Protein.RotatedTorsions>
[ 6907 6896 6895 6894 ] final  -24.90 input  -60.11 | X-H torsion
[ 7974 7965 7964 7962 ] final   81.37 input  175.53 | X-H torsion
[ 8008 7997 7996 7995 ] final  121.55 input   59.86 | X-H torsion
[ 10167 10162 10161 10158 ] final   14.19 input  -65.29 | X-H torsion
[ 10718 10713 10712 10709 ] final  176.62 input   66.30 | X-H torsion
[ 10763 10752 10751 10750 ] final -118.96 input  -60.55 | X-H torsion
[ 11005 11000 10999 10996 ] final  144.84 input  -57.11 | X-H torsion

> <Gold.Protein.ActiveResidues>
 VAL166  LYS551  ARG553  GLY616  TRP617  ASP618  TYR619  PRO620  LYS621  CYS622 
 ASP623  PHE694  ASN695  SER759  ASP760  ASP761  ALA762  ILE779  LEU786  VAL792 
 PHE793  MET794  SER795  GLU796  ALA797  LYS798  CYS799  TRP800  GLU811  SER814 

> <Gold.Protein.RotatedAtoms>
  151.1829  135.0369  159.8799 H   0  0  0  0  0  0  0  0  0  0  0  0  # atno 6907 bound_to 6896
  152.5444  134.1042  159.8341 H   0  0  0  0  0  0  0  0  0  0  0  0  # atno 6908 bound_to 6896
  151.1161  133.5090  159.2636 H   0  0  0  0  0  0  0  0  0  0  0  0  # atno 6909 bound_to 6896
  145.6391  139.2421  143.2041 H   0  0  0  0  0  0  0  0  0  0  0  0  # atno 7974 bound_to 7965
  156.2691  140.2806  156.1326 H   0  0  0  0  0  0  0  0  0  0  0  0  # atno 8008 bound_to 7997
  155.1038  140.0390  157.2722 H   0  0  0  0  0  0  0  0  0  0  0  0  # atno 8009 bound_to 7997
  154.6795  140.2605  155.6929 H   0  0  0  0  0  0  0  0  0  0  0  0  # atno 8010 bound_to 7997
  140.5952  143.8716  150.6911 H   0  0  0  0  0  0  0  0  0  0  0  0  # atno 10167 bound_to 10162
  156.9174  130.9929  151.3010 H   0  0  0  0  0  0  0  0  0  0  0  0  # atno 10718 bound_to 10713
  154.8603  135.4255  154.2222 H   0  0  0  0  0  0  0  0  0  0  0  0  # atno 10763 bound_to 10752
  153.3225  135.6983  153.7024 H   0  0  0  0  0  0  0  0  0  0  0  0  # atno 10764 bound_to 10752
  153.6073  135.3526  155.2940 H   0  0  0  0  0  0  0  0  0  0  0  0  # atno 10765 bound_to 10752
  140.0664  134.9176  157.1272 H   0  0  0  0  0  0  0  0  0  0  0  0  # atno 11005 bound_to 11000
  146.1295  140.7204  142.9419 LP  0  0  0  0  0  0  0  0  0  0  0  0  # atno 17320 bound_to 7965
  144.7164  140.4225  143.7041 LP  0  0  0  0  0  0  0  0  0  0  0  0  # atno 17321 bound_to 7965
  140.2248  143.3781  152.1613 LP  0  0  0  0  0  0  0  0  0  0  0  0  # atno 17342 bound_to 10162
  139.5253  144.7095  151.5252 LP  0  0  0  0  0  0  0  0  0  0  0  0  # atno 17343 bound_to 10162
  157.5929  130.8457  149.8686 LP  0  0  0  0  0  0  0  0  0  0  0  0  # atno 17370 bound_to 10713
  156.0507  130.3718  150.1208 LP  0  0  0  0  0  0  0  0  0  0  0  0  # atno 17371 bound_to 10713
  140.3692  134.2409  155.7179 LP  0  0  0  0  0  0  0  0  0  0  0  0  # atno 17394 bound_to 11000
  141.1994  133.8011  157.0536 LP  0  0  0  0  0  0  0  0  0  0  0  0  # atno 17395 bound_to 11000

$$$$
