AV-unprocessed.smi:2781|AV-procd|sdf|10719|dock5
  -GOLD-   2272015153D 1   1.00000     0.00000
 Structure written by MMmdl.
 35 38  0  0  0  0  0  0  0  0  1 V2000
  145.7961  138.9579  153.6998 O   0  0  0  0  0  0  0  0  0  0  0  0
  146.6059  138.1719  153.2069 C   0  0  0  0  0  0  0  0  0  0  0  0
  147.9414  138.2404  153.3487 N   0  0  0  0  0  0  0  0  0  0  0  0
  148.6982  139.1807  154.0972 C   0  0  0  0  0  0  0  0  0  0  0  0
  149.9874  138.7432  154.4773 C   0  0  0  0  0  0  0  0  0  0  0  0
  150.8168  139.5993  155.2276 C   0  0  0  0  0  0  0  0  0  0  0  0
  150.3334  140.8725  155.5775 C   0  0  0  0  0  0  0  0  0  0  0  0
  151.0943  141.7298  156.2980 F   0  0  0  0  0  0  0  0  0  0  0  0
  149.0388  141.2318  155.1596 C   0  0  0  0  0  0  0  0  0  0  0  0
  148.2428  140.4120  154.4404 N   0  0  0  0  0  0  0  0  0  0  0  0
  146.2568  137.1233  152.4498 N   0  0  0  0  0  0  0  0  0  0  0  0
  144.9245  136.7538  152.0963 C   0  0  2  0  0  0  0  0  0  0  0  0
  144.2767  135.5009  152.6560 C   0  0  2  0  0  0  0  0  0  0  0  0
  144.8843  134.1638  153.0956 C   0  0  2  0  0  0  0  0  0  0  0  0
  146.4254  134.1808  153.1481 C   0  0  0  0  0  0  0  0  0  0  0  0
  146.8062  134.2534  151.6533 C   0  0  0  0  0  0  0  0  0  0  0  0
  145.4279  134.2686  150.9619 C   0  0  1  0  0  0  0  0  0  0  0  0
  144.6591  133.3033  151.8575 C   0  0  0  0  0  0  0  0  0  0  0  0
  144.6546  135.5750  151.1785 C   0  0  2  0  0  0  0  0  0  0  0  0
  148.4790  137.5301  152.8744 H   0  0  0  0  0  0  0  0  0  0  0  0
  150.3418  137.7611  154.1993 H   0  0  0  0  0  0  0  0  0  0  0  0
  151.8048  139.2839  155.5288 H   0  0  0  0  0  0  0  0  0  0  0  0
  148.6307  142.2005  155.4083 H   0  0  0  0  0  0  0  0  0  0  0  0
  146.9934  136.5342  152.0901 H   0  0  0  0  0  0  0  0  0  0  0  0
  144.2393  137.5888  151.9563 H   0  0  0  0  0  0  0  0  0  0  0  0
  143.2136  135.5810  152.8751 H   0  0  0  0  0  0  0  0  0  0  0  0
  144.4164  133.7826  154.0036 H   0  0  0  0  0  0  0  0  0  0  0  0
  146.8248  134.9959  153.7499 H   0  0  0  0  0  0  0  0  0  0  0  0
  146.7996  133.2536  153.5844 H   0  0  0  0  0  0  0  0  0  0  0  0
  147.4262  135.1097  151.3923 H   0  0  0  0  0  0  0  0  0  0  0  0
  147.3635  133.3608  151.3660 H   0  0  0  0  0  0  0  0  0  0  0  0
  145.4587  133.9834  149.9101 H   0  0  0  0  0  0  0  0  0  0  0  0
  145.1053  132.3090  151.9225 H   0  0  0  0  0  0  0  0  0  0  0  0
  143.6065  133.2056  151.5849 H   0  0  0  0  0  0  0  0  0  0  0  0
  143.8246  135.7016  150.4857 H   0  0  0  0  0  0  0  0  0  0  0  0
  1  2  2  0  0  0  0
  2  3  1  0  0  0  0
  2 11  1  0  0  0  0
  3  4  1  0  0  0  0
  3 20  1  0  0  0  0
  4 10  1  0  0  0  0
  4  5  2  0  0  0  0
  5  6  1  0  0  0  0
  5 21  1  0  0  0  0
  6  7  2  0  0  0  0
  6 22  1  0  0  0  0
  7  8  1  0  0  0  0
  7  9  1  0  0  0  0
  9 10  2  0  0  0  0
  9 23  1  0  0  0  0
 11 12  1  0  0  0  0
 11 24  1  0  0  0  0
 12 19  1  0  0  0  0
 12 13  1  0  0  0  0
 12 25  1  0  0  0  0
 13 19  1  0  0  0  0
 13 14  1  0  0  0  0
 13 26  1  0  0  0  0
 14 18  1  0  0  0  0
 14 15  1  0  0  0  0
 14 27  1  0  0  0  0
 15 16  1  0  0  0  0
 15 28  1  0  0  0  0
 15 29  1  0  0  0  0
 16 17  1  0  0  0  0
 16 30  1  0  0  0  0
 16 31  1  0  0  0  0
 17 18  1  0  0  0  0
 17 19  1  0  0  0  0
 17 32  1  0  0  0  0
 18 33  1  0  0  0  0
 18 34  1  0  0  0  0
 19 35  1  0  0  0  0
M  END
> <s_m_source_file>
AV-unprocessed.smi

> <i_m_source_file_index>
2781

> <i_lp_mmshare_version>
43012

> <i_f3d_flags>
0

> <s_epik_input>
bjFbY0hdYyhGKVtjSF1bY0hdYzFbTkhdQyg9TylbTkhdW0NASF0yW0NAQEhdM1tDQEhdKFtDSDJdNClbQ0gyXVtDSDJdW0NASF00W0NASF0yMw==

> <s_epik_cmdline>
J2VwaWtfcHl0aG9uJywgJy1waCcsICc3LjAnLCAnLXRuJywgJzgnLCAnLW1hJywgJzIwMCcsICctbWV0YWxfYmluZGluZycsICctaW1hZScsICc8aW5maWxlLm1hZT4nLCAnLW9tYWUnLCAnPG91dGZpbGUubWFlPic=

> <r_lp_tautomer_probability>
1

> <r_epik_Ionization_Penalty>
4.05776e-05

> <r_epik_Ionization_Penalty_Charging>
0

> <r_epik_Ionization_Penalty_Neutral>
4.05776e-05

> <r_epik_State_Penalty>
-0

> <r_epik_Charging_Adjusted_Penalty>
0

> <i_epik_Tot_Q>
0

> <i_epik_Tot_abs_Q>
0

> <r_epik_Metal_State_Penalty>
-0

> <b_epik_Metal_Only>
0

> <s_lp_Force_Field>
OPLS_2005

> <r_lp_Energy>
85.3989

> <b_lp_Chiralities_Consistent>
1

> <s_lp_Variant>
AV-unprocessed.smi:2781-3

> <Gold.Version>
5.8.1

> <Gold.Id.Protein>
6NUR|6NUR_protein|mol2

> <Gold.PLP.Fitness>
36.8027

> <Gold.PLP.PLP>
-28.1156

> <Gold.PLP.part.hbond>
-2.1580

> <Gold.PLP.part.metal>
0.0000

> <Gold.PLP.part.buried>
-1.9296

> <Gold.PLP.part.nonpolar>
-25.1689

> <Gold.PLP.part.repulsive>
1.8954

> <Gold.PLP.ligand.clash>
0.0000

> <Gold.PLP.ligand.torsion>
0.1568

> <Gold.PLP.Chemscore.Hbond>
1.9760

> <Gold.PLP.Chemscore.CHOScore>
1.0000

> <Gold.PLP.Chemscore.Metal>
0.0000

> <Gold.Chemscore.Hbonds>
donor molecule, donor type, donor heavy atom, donor atom, acceptor molecule, acceptor atom, score
      L1  H     3    20       P1  7948  1.00
      L1  H    11    24       P1  7948  0.98
      L1  C     9    23       P1  8028  0.99

> <Gold.PLP.Chemscore.Internal.Correction>
0.0726

> <Gold.Rescore>
     Score         DG    S(hbond)    S(metal)    S(lipo)     H(rot)  DE(clash)    DE(int)     intcor
     14.85     -16.50       1.87        0.00      62.73       1.00       0.32       1.33       ----

> <Gold.Chemscore.Fitness>
14.8522

> <Gold.Chemscore.DG>
-16.5020

> <Gold.Chemscore.ZeroCoef>
-5.4800

> <Gold.Chemscore.Hbond>
1.8690

> <Gold.Chemscore.Metal>
0.0000

> <Gold.Chemscore.Lipo>
62.7313

> <Gold.Chemscore.Internal_Hbond>
0.0000

> <Gold.Chemscore.DEClash>
0.3157

> <Gold.Chemscore.DEInternal>
1.3341

> <Gold.Chemscore.Rot>
1.0000

> <Gold.Chemscore.Internal.Correction>
   9.000000E+99

> <Gold.Chemscore.Hbonds>
donor molecule, donor type, donor heavy atom, donor atom, acceptor molecule, acceptor atom, score
      L1  H     3    20       P1  7948  1.00
      L1  H    11    24       P1  7948  0.91

> <Gold.Chemscore.Hbond.Weighted>
-6.2425

> <Gold.Chemscore.Metal.Weighted>
-0.0000

> <Gold.Chemscore.Lipo.Weighted>
-7.3396

> <Gold.Chemscore.Internal_Hbond.Weighted>
0.0000

> <Gold.Chemscore.DEClash.Weighted>
0.3157

> <Gold.Chemscore.DEInternal.Weighted>
1.3341

> <Gold.Chemscore.Rot.Weighted>
2.5600

> <Gold.Chemscore.Internal.Correction.Weighted>
   9.000000E+99

> <Gold.Protein.RotatedTorsions>
[ 6907 6896 6895 6894 ] final  -17.18 input  -60.11 | X-H torsion
[ 7974 7965 7964 7962 ] final -178.46 input  175.53 | X-H torsion
[ 8008 7997 7996 7995 ] final  -12.74 input   59.86 | X-H torsion
[ 10167 10162 10161 10158 ] final  140.60 input  -65.29 | X-H torsion
[ 10718 10713 10712 10709 ] final  -47.96 input   66.30 | X-H torsion
[ 10763 10752 10751 10750 ] final   46.80 input  -60.55 | X-H torsion
[ 11005 11000 10999 10996 ] final  -66.02 input  -57.11 | X-H torsion

> <Gold.Protein.ActiveResidues>
 VAL166  LYS551  ARG553  GLY616  TRP617  ASP618  TYR619  PRO620  LYS621  CYS622 
 ASP623  PHE694  ASN695  SER759  ASP760  ASP761  ALA762  ILE779  LEU786  VAL792 
 PHE793  MET794  SER795  GLU796  ALA797  LYS798  CYS799  TRP800  GLU811  SER814 

> <Gold.Protein.RotatedAtoms>
  151.2973  135.0759  159.9225 H   0  0  0  0  0  0  0  0  0  0  0  0  # atno 6907 bound_to 6896
  152.5304  133.9870  159.7843 H   0  0  0  0  0  0  0  0  0  0  0  0  # atno 6908 bound_to 6896
  151.0150  133.5878  159.2708 H   0  0  0  0  0  0  0  0  0  0  0  0  # atno 6909 bound_to 6896
  144.7131  140.0866  143.6423 H   0  0  0  0  0  0  0  0  0  0  0  0  # atno 7974 bound_to 7965
  154.5352  140.2268  155.8736 H   0  0  0  0  0  0  0  0  0  0  0  0  # atno 8008 bound_to 7997
  156.1804  140.3101  155.9100 H   0  0  0  0  0  0  0  0  0  0  0  0  # atno 8009 bound_to 7997
  155.3370  140.0448  157.3034 H   0  0  0  0  0  0  0  0  0  0  0  0  # atno 8010 bound_to 7997
  139.5044  144.6224  151.6019 H   0  0  0  0  0  0  0  0  0  0  0  0  # atno 10167 bound_to 10162
  156.2034  130.4157  149.9211 H   0  0  0  0  0  0  0  0  0  0  0  0  # atno 10718 bound_to 10713
  152.9806  135.5997  154.3658 H   0  0  0  0  0  0  0  0  0  0  0  0  # atno 10763 bound_to 10752
  154.3336  135.2768  155.2461 H   0  0  0  0  0  0  0  0  0  0  0  0  # atno 10764 bound_to 10752
  154.4574  135.5974  153.6288 H   0  0  0  0  0  0  0  0  0  0  0  0  # atno 10765 bound_to 10752
  141.1470  133.6692  156.6075 H   0  0  0  0  0  0  0  0  0  0  0  0  # atno 11005 bound_to 11000
  145.9657  139.2832  143.1129 LP  0  0  0  0  0  0  0  0  0  0  0  0  # atno 17320 bound_to 7965
  145.9172  140.9140  143.0423 LP  0  0  0  0  0  0  0  0  0  0  0  0  # atno 17321 bound_to 7965
  140.5930  143.9745  150.6337 LP  0  0  0  0  0  0  0  0  0  0  0  0  # atno 17342 bound_to 10162
  140.2932  143.3310  152.1042 LP  0  0  0  0  0  0  0  0  0  0  0  0  # atno 17343 bound_to 10162
  156.6913  130.8897  151.3588 LP  0  0  0  0  0  0  0  0  0  0  0  0  # atno 17370 bound_to 10713
  157.6998  130.9321  150.0752 LP  0  0  0  0  0  0  0  0  0  0  0  0  # atno 17371 bound_to 10713
  140.3640  134.7663  157.4553 LP  0  0  0  0  0  0  0  0  0  0  0  0  # atno 17394 bound_to 11000
  140.0762  134.5794  155.8588 LP  0  0  0  0  0  0  0  0  0  0  0  0  # atno 17395 bound_to 11000

$$$$
