AV-unprocessed.smi:1839|AV-procd|sdf|7486|dock3
  -GOLD-   22720 9183D 1   1.00000     0.00000
 Structure written by MMmdl.
 47 48  0  0  0  0  0  0  0  0  2 V2000
  155.2237  131.0189  163.5481 C   0  0  0  0  0  0  0  0  0  0  0  0
  154.7075  132.3877  163.5569 N   0  0  0  0  0  0  0  0  0  0  0  0
  153.6700  132.6308  164.5665 C   0  0  0  0  0  0  0  0  0  0  0  0
  154.9498  133.2151  162.5105 C   0  0  0  0  0  0  0  0  0  0  0  0
  155.3295  132.7898  161.4170 O   0  0  0  0  0  0  0  0  0  0  0  0
  154.7165  134.5328  162.7229 N   0  0  0  0  0  0  0  0  0  0  0  0
  155.0652  135.2237  163.9735 C   0  0  0  0  0  0  0  0  0  0  0  0
  153.9337  136.1922  164.3624 C   0  0  0  0  0  0  0  0  0  0  0  0
  153.6340  137.1771  163.2183 C   0  0  0  0  0  0  0  0  0  0  0  0
  153.4001  136.4314  161.8862 C   0  0  1  0  0  0  0  0  0  0  0  0
  153.2107  137.4005  160.7128 C   0  0  0  0  0  0  0  0  0  0  0  0
  152.6442  137.0325  159.6837 O   0  0  0  0  0  0  0  0  0  0  0  0
  153.6581  138.6517  160.8973 N   0  0  0  0  0  0  0  0  0  0  0  0
  153.4971  139.7535  159.9531 C   0  0  0  0  0  0  0  0  0  0  0  0
  154.1488  141.0708  160.4272 C   0  0  0  0  0  0  0  0  0  0  0  0
  153.2842  142.3019  160.2092 C   0  0  0  0  0  0  0  0  0  0  0  0
  152.7180  143.0201  161.2844 C   0  0  0  0  0  0  0  0  0  0  0  0
  151.9049  144.1403  161.0119 C   0  0  0  0  0  0  0  0  0  0  0  0
  151.6727  144.5167  159.6725 C   0  0  0  0  0  0  0  0  0  0  0  0
  152.2624  143.7636  158.6369 C   0  0  0  0  0  0  0  0  0  0  0  0
  153.0374  142.6991  158.9392 N   0  3  0  0  0  0  0  0  0  0  0  0
  154.5735  135.4688  161.6030 C   0  0  0  0  0  0  0  0  0  0  0  0
  156.2447  130.9793  163.1647 H   0  0  0  0  0  0  0  0  0  0  0  0
  154.5986  130.3796  162.9238 H   0  0  0  0  0  0  0  0  0  0  0  0
  155.2427  130.5982  164.5542 H   0  0  0  0  0  0  0  0  0  0  0  0
  152.9065  133.3277  164.2178 H   0  0  0  0  0  0  0  0  0  0  0  0
  154.1096  133.0301  165.4805 H   0  0  0  0  0  0  0  0  0  0  0  0
  153.1515  131.7071  164.8270 H   0  0  0  0  0  0  0  0  0  0  0  0
  155.2669  134.5343  164.7934 H   0  0  0  0  0  0  0  0  0  0  0  0
  155.9921  135.7796  163.8233 H   0  0  0  0  0  0  0  0  0  0  0  0
  153.0328  135.6274  164.6036 H   0  0  0  0  0  0  0  0  0  0  0  0
  154.2044  136.7410  165.2647 H   0  0  0  0  0  0  0  0  0  0  0  0
  152.7646  137.7847  163.4719 H   0  0  0  0  0  0  0  0  0  0  0  0
  154.4744  137.8661  163.1193 H   0  0  0  0  0  0  0  0  0  0  0  0
  152.4908  135.8360  161.9899 H   0  0  0  0  0  0  0  0  0  0  0  0
  154.1190  138.8643  161.7707 H   0  0  0  0  0  0  0  0  0  0  0  0
  153.9634  139.4415  159.0184 H   0  0  0  0  0  0  0  0  0  0  0  0
  152.4401  139.9091  159.7320 H   0  0  0  0  0  0  0  0  0  0  0  0
  154.3975  140.9950  161.4862 H   0  0  0  0  0  0  0  0  0  0  0  0
  155.0980  141.2168  159.9093 H   0  0  0  0  0  0  0  0  0  0  0  0
  152.8993  142.7147  162.3049 H   0  0  0  0  0  0  0  0  0  0  0  0
  151.4613  144.7019  161.8211 H   0  0  0  0  0  0  0  0  0  0  0  0
  151.0504  145.3694  159.4427 H   0  0  0  0  0  0  0  0  0  0  0  0
  152.1362  143.9757  157.5849 H   0  0  0  0  0  0  0  0  0  0  0  0
  155.5080  136.0160  161.4654 H   0  0  0  0  0  0  0  0  0  0  0  0
  154.3818  134.9392  160.6685 H   0  0  0  0  0  0  0  0  0  0  0  0
  153.4511  142.1654  158.1739 H   0  0  0  0  0  0  0  0  0  0  0  0
  1  2  1  0  0  0  0
  1 23  1  0  0  0  0
  1 24  1  0  0  0  0
  1 25  1  0  0  0  0
  2  3  1  0  0  0  0
  2  4  1  0  0  0  0
  3 26  1  0  0  0  0
  3 27  1  0  0  0  0
  3 28  1  0  0  0  0
  4  5  2  0  0  0  0
  4  6  1  0  0  0  0
  6 22  1  0  0  0  0
  6  7  1  0  0  0  0
  7  8  1  0  0  0  0
  7 29  1  0  0  0  0
  7 30  1  0  0  0  0
  8  9  1  0  0  0  0
  8 31  1  0  0  0  0
  8 32  1  0  0  0  0
  9 10  1  0  0  0  0
  9 33  1  0  0  0  0
  9 34  1  0  0  0  0
 10 11  1  0  0  0  0
 10 22  1  0  0  0  0
 10 35  1  0  0  0  0
 11 12  2  0  0  0  0
 11 13  1  0  0  0  0
 13 14  1  0  0  0  0
 13 36  1  0  0  0  0
 14 15  1  0  0  0  0
 14 37  1  0  0  0  0
 14 38  1  0  0  0  0
 15 16  1  0  0  0  0
 15 39  1  0  0  0  0
 15 40  1  0  0  0  0
 16 21  1  0  0  0  0
 16 17  2  0  0  0  0
 17 18  1  0  0  0  0
 17 41  1  0  0  0  0
 18 19  2  0  0  0  0
 18 42  1  0  0  0  0
 19 20  1  0  0  0  0
 19 43  1  0  0  0  0
 20 21  2  0  0  0  0
 20 44  1  0  0  0  0
 21 47  1  0  0  0  0
 22 45  1  0  0  0  0
 22 46  1  0  0  0  0
M  CHG  1  21   1
M  END
> <s_m_source_file>
AV-unprocessed.smi

> <i_m_source_file_index>
1839

> <i_lp_mmshare_version>
43012

> <i_f3d_flags>
0

> <s_epik_input>
W0NIM11OKFtDSDNdKUMoPU8pTjFbQ0gyXVtDSDJdW0NIMl1bQ0BIXShbQ0gyXTEpQyg9TylbTkhdW0NIMl1bQ0gyXWMyW2NIXVtjSF1bY0hdW2NIXW4y

> <s_epik_cmdline>
J2VwaWtfcHl0aG9uJywgJy1waCcsICc3LjAnLCAnLXRuJywgJzgnLCAnLW1hJywgJzIwMCcsICctbWV0YWxfYmluZGluZycsICctaW1hZScsICc8aW5maWxlLm1hZT4nLCAnLW9tYWUnLCAnPG91dGZpbGUubWFlPic=

> <r_epik_Ionization_Penalty>
1.8476

> <r_epik_Ionization_Penalty_Charging>
1.84754

> <r_epik_Ionization_Penalty_Neutral>
5.83857e-05

> <r_epik_State_Penalty>
1.96477

> <r_epik_Charging_Adjusted_Penalty>
3.81231

> <i_epik_Tot_Q>
1

> <i_epik_Tot_abs_Q>
1

> <r_epik_Metal_State_Penalty>
1.99061

> <b_epik_Metal_Only>
0

> <s_lp_Force_Field>
OPLS_2005

> <r_lp_Energy>
54.126

> <b_lp_Chiralities_Consistent>
1

> <s_lp_Variant>
AV-unprocessed.smi:1839-3

> <Gold.Version>
5.8.1

> <Gold.Id.Protein>
6NUR|6NUR_protein|mol2

> <Gold.PLP.Fitness>
46.4126

> <Gold.PLP.PLP>
-45.5249

> <Gold.PLP.part.hbond>
-0.8642

> <Gold.PLP.part.metal>
0.0000

> <Gold.PLP.part.buried>
-5.4165

> <Gold.PLP.part.nonpolar>
-40.4233

> <Gold.PLP.part.repulsive>
0.0844

> <Gold.PLP.ligand.clash>
0.0028

> <Gold.PLP.ligand.torsion>
1.5255

> <Gold.PLP.Chemscore.Hbond>
0.8775

> <Gold.PLP.Chemscore.CHOScore>
0.0000

> <Gold.PLP.Chemscore.Metal>
0.0000

> <Gold.Chemscore.Hbonds>
donor molecule, donor type, donor heavy atom, donor atom, acceptor molecule, acceptor atom, score
      P1  H  6896  6907       L1    12  0.84

> <Gold.PLP.Chemscore.Internal.Correction>
1.3090

> <Gold.Rescore>
     Score         DG    S(hbond)    S(metal)    S(lipo)     H(rot)  DE(clash)    DE(int)     intcor
     16.85     -19.11       0.97        0.00     123.85       1.60       0.10       2.16       ----

> <Gold.Chemscore.Fitness>
16.8479

> <Gold.Chemscore.DG>
-19.1085

> <Gold.Chemscore.ZeroCoef>
-5.4800

> <Gold.Chemscore.Hbond>
0.9721

> <Gold.Chemscore.Metal>
0.0000

> <Gold.Chemscore.Lipo>
123.8506

> <Gold.Chemscore.Internal_Hbond>
0.0000

> <Gold.Chemscore.DEClash>
0.1039

> <Gold.Chemscore.DEInternal>
2.1567

> <Gold.Chemscore.Rot>
1.6049

> <Gold.Chemscore.Internal.Correction>
   9.000000E+99

> <Gold.Chemscore.Hbonds>
donor molecule, donor type, donor heavy atom, donor atom, acceptor molecule, acceptor atom, score
      P1  H  6896  6907       L1    12  0.51

> <Gold.Chemscore.Hbond.Weighted>
-3.2467

> <Gold.Chemscore.Metal.Weighted>
-0.0000

> <Gold.Chemscore.Lipo.Weighted>
-14.4905

> <Gold.Chemscore.Internal_Hbond.Weighted>
0.0000

> <Gold.Chemscore.DEClash.Weighted>
0.1039

> <Gold.Chemscore.DEInternal.Weighted>
2.1567

> <Gold.Chemscore.Rot.Weighted>
4.1087

> <Gold.Chemscore.Internal.Correction.Weighted>
   9.000000E+99

> <Gold.Protein.RotatedTorsions>
[ 6907 6896 6895 6894 ] final   19.94 input  -60.11 | X-H torsion
[ 7974 7965 7964 7962 ] final  119.25 input  175.53 | X-H torsion
[ 8008 7997 7996 7995 ] final  -39.40 input   59.86 | X-H torsion
[ 10167 10162 10161 10158 ] final   71.53 input  -65.29 | X-H torsion
[ 10718 10713 10712 10709 ] final -124.50 input   66.30 | X-H torsion
[ 10763 10752 10751 10750 ] final -157.01 input  -60.55 | X-H torsion
[ 11005 11000 10999 10996 ] final  -29.01 input  -57.11 | X-H torsion

> <Gold.Protein.ActiveResidues>
 VAL166  LYS551  ARG553  GLY616  TRP617  ASP618  TYR619  PRO620  LYS621  CYS622 
 ASP623  PHE694  ASN695  SER759  ASP760  ASP761  ALA762  ILE779  LEU786  VAL792 
 PHE793  MET794  SER795  GLU796  ALA797  LYS798  CYS799  TRP800  GLU811  SER814 

> <Gold.Protein.RotatedAtoms>
  151.8886  135.0425  160.0495 H   0  0  0  0  0  0  0  0  0  0  0  0  # atno 6907 bound_to 6896
  152.2454  133.5166  159.5303 H   0  0  0  0  0  0  0  0  0  0  0  0  # atno 6908 bound_to 6896
  150.7066  134.0949  159.3987 H   0  0  0  0  0  0  0  0  0  0  0  0  # atno 6909 bound_to 6896
  145.1454  139.3242  143.4594 H   0  0  0  0  0  0  0  0  0  0  0  0  # atno 7974 bound_to 7965
  154.4023  140.1552  156.2857 H   0  0  0  0  0  0  0  0  0  0  0  0  # atno 8008 bound_to 7997
  155.8830  140.3443  155.5879 H   0  0  0  0  0  0  0  0  0  0  0  0  # atno 8009 bound_to 7997
  155.7645  140.0822  157.2129 H   0  0  0  0  0  0  0  0  0  0  0  0  # atno 8010 bound_to 7997
  140.0451  144.5358  150.7405 H   0  0  0  0  0  0  0  0  0  0  0  0  # atno 10167 bound_to 10162
  156.1593  130.6590  151.0027 H   0  0  0  0  0  0  0  0  0  0  0  0  # atno 10718 bound_to 10713
  154.7669  135.3134  154.8268 H   0  0  0  0  0  0  0  0  0  0  0  0  # atno 10763 bound_to 10752
  153.9013  135.6815  153.4759 H   0  0  0  0  0  0  0  0  0  0  0  0  # atno 10764 bound_to 10752
  153.1277  135.4794  154.9231 H   0  0  0  0  0  0  0  0  0  0  0  0  # atno 10765 bound_to 10752
  140.9259  133.7369  156.0867 H   0  0  0  0  0  0  0  0  0  0  0  0  # atno 11005 bound_to 11000
  146.3500  140.1508  142.8592 LP  0  0  0  0  0  0  0  0  0  0  0  0  # atno 17320 bound_to 7965
  145.0487  140.9001  143.5008 LP  0  0  0  0  0  0  0  0  0  0  0  0  # atno 17321 bound_to 7965
  140.7242  143.2619  151.4175 LP  0  0  0  0  0  0  0  0  0  0  0  0  # atno 17342 bound_to 10162
  139.5989  144.1338  152.2175 LP  0  0  0  0  0  0  0  0  0  0  0  0  # atno 17343 bound_to 10162
  157.6720  131.0859  150.7588 LP  0  0  0  0  0  0  0  0  0  0  0  0  # atno 17370 bound_to 10713
  156.7652  130.4811  149.5429 LP  0  0  0  0  0  0  0  0  0  0  0  0  # atno 17371 bound_to 10713
  140.7927  134.3599  157.5460 LP  0  0  0  0  0  0  0  0  0  0  0  0  # atno 17394 bound_to 11000
  139.8785  134.9150  156.3120 LP  0  0  0  0  0  0  0  0  0  0  0  0  # atno 17395 bound_to 11000

$$$$
