AV-unprocessed.smi:2807|AV-procd|sdf|10817|dock6
  -GOLD-   2272015253D 1   1.00000     0.00000
 Structure written by MMmdl.
 32 33  0  0  0  0  0  0  0  0  1 V2000
  152.3962  139.8358  155.5759 O   0  0  0  0  0  0  0  0  0  0  0  0
  151.4559  140.0398  156.3448 C   0  0  0  0  0  0  0  0  0  0  0  0
  150.1919  140.2188  155.9269 N   0  0  0  0  0  0  0  0  0  0  0  0
  149.7616  140.2822  154.5305 C   0  0  1  0  0  0  0  0  0  0  0  0
  148.8696  139.0732  154.1967 C   0  0  0  0  0  0  0  0  0  0  0  0
  147.4457  139.6185  154.1041 C   0  0  0  0  0  0  0  0  0  0  0  0
  147.6266  141.0276  153.5478 C   0  0  0  0  0  0  0  0  0  0  0  0
  148.9171  141.5444  154.1967 C   0  0  1  0  0  0  0  0  0  0  0  0
  148.5761  142.3134  155.3381 O   0  0  0  0  0  0  0  0  0  0  0  0
  151.6933  140.1397  157.8586 C   0  0  0  0  0  0  0  0  0  0  0  0
  150.6780  139.5432  158.4874 F   0  0  0  0  0  0  0  0  0  0  0  0
  152.8143  139.4875  158.1769 F   0  0  0  0  0  0  0  0  0  0  0  0
  151.8066  141.6049  158.2741 C   0  0  0  0  0  0  0  0  0  0  0  0
  152.2635  141.9657  159.5626 C   0  0  0  0  0  0  0  0  0  0  0  0
  152.3152  143.3312  159.9030 C   0  0  0  0  0  0  0  0  0  0  0  0
  151.9112  144.2845  158.9493 C   0  0  0  0  0  0  0  0  0  0  0  0
  151.4706  143.8280  157.6921 C   0  0  0  0  0  0  0  0  0  0  0  0
  151.4151  142.5215  157.3567 N   0  0  0  0  0  0  0  0  0  0  0  0
  149.4829  140.3843  156.6266 H   0  0  0  0  0  0  0  0  0  0  0  0
  150.6383  140.2443  153.8812 H   0  0  0  0  0  0  0  0  0  0  0  0
  149.1601  138.6707  153.2253 H   0  0  0  0  0  0  0  0  0  0  0  0
  148.9533  138.2582  154.9173 H   0  0  0  0  0  0  0  0  0  0  0  0
  146.7985  139.0000  153.4816 H   0  0  0  0  0  0  0  0  0  0  0  0
  147.0038  139.6693  155.1003 H   0  0  0  0  0  0  0  0  0  0  0  0
  147.7653  140.9677  152.4676 H   0  0  0  0  0  0  0  0  0  0  0  0
  146.7619  141.6678  153.7277 H   0  0  0  0  0  0  0  0  0  0  0  0
  149.4543  142.1986  153.5094 H   0  0  0  0  0  0  0  0  0  0  0  0
  148.7346  143.2244  155.1428 H   0  0  0  0  0  0  0  0  0  0  0  0
  152.5595  141.2168  160.2821 H   0  0  0  0  0  0  0  0  0  0  0  0
  152.6557  143.6415  160.8797 H   0  0  0  0  0  0  0  0  0  0  0  0
  151.9365  145.3400  159.1759 H   0  0  0  0  0  0  0  0  0  0  0  0
  151.1516  144.5307  156.9366 H   0  0  0  0  0  0  0  0  0  0  0  0
  1  2  2  0  0  0  0
  2  3  1  0  0  0  0
  2 10  1  0  0  0  0
  3  4  1  0  0  0  0
  3 19  1  0  0  0  0
  4  8  1  0  0  0  0
  4  5  1  0  0  0  0
  4 20  1  0  0  0  0
  5  6  1  0  0  0  0
  5 21  1  0  0  0  0
  5 22  1  0  0  0  0
  6  7  1  0  0  0  0
  6 23  1  0  0  0  0
  6 24  1  0  0  0  0
  7  8  1  0  0  0  0
  7 25  1  0  0  0  0
  7 26  1  0  0  0  0
  8  9  1  0  0  0  0
  8 27  1  0  0  0  0
  9 28  1  0  0  0  0
 10 11  1  0  0  0  0
 10 12  1  0  0  0  0
 10 13  1  0  0  0  0
 13 18  1  0  0  0  0
 13 14  2  0  0  0  0
 14 15  1  0  0  0  0
 14 29  1  0  0  0  0
 15 16  2  0  0  0  0
 15 30  1  0  0  0  0
 16 17  1  0  0  0  0
 16 31  1  0  0  0  0
 17 18  2  0  0  0  0
 17 32  1  0  0  0  0
M  END
> <s_m_source_file>
AV-unprocessed.smi

> <i_m_source_file_index>
2807

> <i_lp_mmshare_version>
43012

> <i_f3d_flags>
0

> <s_epik_input>
bjFbY0hdW2NIXVtjSF1bY0hdYzFDKEYpKEYpQyg9TylbTkhdW0NAQEhdMltDSDJdW0NIMl1bQ0gyXVtDQEhdMltPSF0=

> <s_epik_cmdline>
J2VwaWtfcHl0aG9uJywgJy1waCcsICc3LjAnLCAnLXRuJywgJzgnLCAnLW1hJywgJzIwMCcsICctbWV0YWxfYmluZGluZycsICctaW1hZScsICc8aW5maWxlLm1hZT4nLCAnLW9tYWUnLCAnPG91dGZpbGUubWFlPic=

> <r_lp_tautomer_probability>
1

> <r_epik_Ionization_Penalty>
4.08325e-05

> <r_epik_Ionization_Penalty_Charging>
0

> <r_epik_Ionization_Penalty_Neutral>
4.08325e-05

> <r_epik_State_Penalty>
-0

> <r_epik_Charging_Adjusted_Penalty>
0

> <i_epik_Tot_Q>
0

> <i_epik_Tot_abs_Q>
0

> <r_epik_Metal_State_Penalty>
0.034564

> <b_epik_Metal_Only>
0

> <s_lp_Force_Field>
OPLS_2005

> <r_lp_Energy>
28.4248

> <b_lp_Chiralities_Consistent>
1

> <s_lp_Variant>
AV-unprocessed.smi:2807-2

> <Gold.Version>
5.8.1

> <Gold.Id.Protein>
6NUR|6NUR_protein|mol2

> <Gold.PLP.Fitness>
42.4709

> <Gold.PLP.PLP>
-35.6295

> <Gold.PLP.part.hbond>
-2.6595

> <Gold.PLP.part.metal>
0.0000

> <Gold.PLP.part.buried>
2.6182

> <Gold.PLP.part.nonpolar>
-33.9902

> <Gold.PLP.part.repulsive>
0.1367

> <Gold.PLP.ligand.clash>
0.0000

> <Gold.PLP.ligand.torsion>
1.4019

> <Gold.PLP.Chemscore.Hbond>
2.2095

> <Gold.PLP.Chemscore.CHOScore>
1.0000

> <Gold.PLP.Chemscore.Metal>
0.0000

> <Gold.Chemscore.Hbonds>
donor molecule, donor type, donor heavy atom, donor atom, acceptor molecule, acceptor atom, score
      L1  H     9    28       P1  8028  0.99
      P1  H  7989  7998       L1     1  0.01
      P1  H  7997  8010       L1     1  0.91
      L1  C    17    32       P1  8028  0.90

> <Gold.PLP.Chemscore.Internal.Correction>
0.0167

> <Gold.Rescore>
     Score         DG    S(hbond)    S(metal)    S(lipo)     H(rot)  DE(clash)    DE(int)     intcor
     14.83     -17.64       1.99        0.00      91.80       2.05       0.41       2.41       ----

> <Gold.Chemscore.Fitness>
14.8270

> <Gold.Chemscore.DG>
-17.6422

> <Gold.Chemscore.ZeroCoef>
-5.4800

> <Gold.Chemscore.Hbond>
1.9937

> <Gold.Chemscore.Metal>
0.0000

> <Gold.Chemscore.Lipo>
91.7993

> <Gold.Chemscore.Internal_Hbond>
0.0000

> <Gold.Chemscore.DEClash>
0.4055

> <Gold.Chemscore.DEInternal>
2.4097

> <Gold.Chemscore.Rot>
2.0457

> <Gold.Chemscore.Internal.Correction>
   9.000000E+99

> <Gold.Chemscore.Hbonds>
donor molecule, donor type, donor heavy atom, donor atom, acceptor molecule, acceptor atom, score
      L1  H     9    28       P1  8028  0.92
      P1  H  7989  7998       L1     1  0.02
      P1  H  7997  8010       L1     1  0.88

> <Gold.Chemscore.Hbond.Weighted>
-6.6588

> <Gold.Chemscore.Metal.Weighted>
-0.0000

> <Gold.Chemscore.Lipo.Weighted>
-10.7405

> <Gold.Chemscore.Internal_Hbond.Weighted>
0.0000

> <Gold.Chemscore.DEClash.Weighted>
0.4055

> <Gold.Chemscore.DEInternal.Weighted>
2.4097

> <Gold.Chemscore.Rot.Weighted>
5.2371

> <Gold.Chemscore.Internal.Correction.Weighted>
   9.000000E+99

> <Gold.Protein.RotatedTorsions>
[ 6907 6896 6895 6894 ] final  -14.68 input  -60.11 | X-H torsion
[ 7974 7965 7964 7962 ] final  -24.94 input  175.53 | X-H torsion
[ 8008 7997 7996 7995 ] final   91.74 input   59.86 | X-H torsion
[ 10167 10162 10161 10158 ] final  104.07 input  -65.29 | X-H torsion
[ 10718 10713 10712 10709 ] final  -49.27 input   66.30 | X-H torsion
[ 10763 10752 10751 10750 ] final  104.45 input  -60.55 | X-H torsion
[ 11005 11000 10999 10996 ] final   69.68 input  -57.11 | X-H torsion

> <Gold.Protein.ActiveResidues>
 VAL166  LYS551  ARG553  GLY616  TRP617  ASP618  TYR619  PRO620  LYS621  CYS622 
 ASP623  PHE694  ASN695  SER759  ASP760  ASP761  ALA762  ILE779  LEU786  VAL792 
 PHE793  MET794  SER795  GLU796  ALA797  LYS798  CYS799  TRP800  GLU811  SER814 

> <Gold.Protein.RotatedAtoms>
  151.3356  135.0852  159.9353 H   0  0  0  0  0  0  0  0  0  0  0  0  # atno 6907 bound_to 6896
  152.5224  133.9498  159.7677 H   0  0  0  0  0  0  0  0  0  0  0  0  # atno 6908 bound_to 6896
  150.9845  133.6158  159.2747 H   0  0  0  0  0  0  0  0  0  0  0  0  # atno 6909 bound_to 6896
  146.1523  140.4819  142.8606 H   0  0  0  0  0  0  0  0  0  0  0  0  # atno 7974 bound_to 7965
  156.0273  140.3334  155.7102 H   0  0  0  0  0  0  0  0  0  0  0  0  # atno 8008 bound_to 7997
  155.5935  140.0648  157.2770 H   0  0  0  0  0  0  0  0  0  0  0  0  # atno 8009 bound_to 7997
  154.4339  140.1823  156.1087 H   0  0  0  0  0  0  0  0  0  0  0  0  # atno 8010 bound_to 7997
  139.7208  144.7058  151.0875 H   0  0  0  0  0  0  0  0  0  0  0  0  # atno 10167 bound_to 10162
  156.1909  130.4153  149.9373 H   0  0  0  0  0  0  0  0  0  0  0  0  # atno 10718 bound_to 10713
  153.3661  135.3943  155.1754 H   0  0  0  0  0  0  0  0  0  0  0  0  # atno 10763 bound_to 10752
  154.8687  135.3691  154.5037 H   0  0  0  0  0  0  0  0  0  0  0  0  # atno 10764 bound_to 10752
  153.5500  135.7083  153.5656 H   0  0  0  0  0  0  0  0  0  0  0  0  # atno 10765 bound_to 10752
  139.9640  134.7012  156.0585 H   0  0  0  0  0  0  0  0  0  0  0  0  # atno 11005 bound_to 11000
  144.7919  140.6048  143.6536 LP  0  0  0  0  0  0  0  0  0  0  0  0  # atno 17320 bound_to 7965
  145.4794  139.1496  143.3770 LP  0  0  0  0  0  0  0  0  0  0  0  0  # atno 17321 bound_to 7965
  140.7753  143.5168  150.9584 LP  0  0  0  0  0  0  0  0  0  0  0  0  # atno 17342 bound_to 10162
  139.8855  143.7018  152.3152 LP  0  0  0  0  0  0  0  0  0  0  0  0  # atno 17343 bound_to 10162
  156.7114  130.8971  151.3609 LP  0  0  0  0  0  0  0  0  0  0  0  0  # atno 17370 bound_to 10713
  157.6928  130.9251  150.0561 LP  0  0  0  0  0  0  0  0  0  0  0  0  # atno 17371 bound_to 10713
  141.1319  133.6584  156.3487 LP  0  0  0  0  0  0  0  0  0  0  0  0  # atno 17394 bound_to 11000
  140.5437  134.6095  157.5387 LP  0  0  0  0  0  0  0  0  0  0  0  0  # atno 17395 bound_to 11000

$$$$
