AV-unprocessed.smi:1169|AV-procd|sdf|4940|dock4
  -GOLD-   22720 3523D 1   1.00000     0.00000
 Structure written by MMmdl.
 29 30  0  0  0  0  0  0  0  0  1 V2000
  154.4180  140.0023  159.1220 O   0  0  0  0  0  0  0  0  0  0  0  0
  155.0769  140.4410  160.0643 C   0  0  0  0  0  0  0  0  0  0  0  0
  154.3719  140.8169  161.3732 C   0  0  0  0  0  0  0  0  0  0  0  0
  153.5099  141.9792  161.2299 N   0  0  0  0  0  0  0  0  0  0  0  0
  153.1020  142.8676  162.2018 C   0  0  0  0  0  0  0  0  0  0  0  0
  152.2920  143.7854  161.5978 C   0  0  0  0  0  0  0  0  0  0  0  0
  152.2623  143.3773  160.2325 C   0  0  0  0  0  0  0  0  0  0  0  0
  151.5257  144.0129  159.0830 C   0  0  0  0  0  0  0  0  0  0  0  0
  150.8626  145.0919  159.4986 F   0  0  0  0  0  0  0  0  0  0  0  0
  152.3892  144.3788  158.1359 F   0  0  0  0  0  0  0  0  0  0  0  0
  150.6538  143.1471  158.5668 F   0  0  0  0  0  0  0  0  0  0  0  0
  152.9978  142.2942  160.0207 N   0  0  0  0  0  0  0  0  0  0  0  0
  156.4045  140.6355  160.0038 N   0  0  0  0  0  0  0  0  0  0  0  0
  157.2416  140.3632  158.8437 C   0  0  0  0  0  0  0  0  0  0  0  0
  157.9291  141.5814  158.2584 C   0  0  0  0  0  0  0  0  0  0  0  0
  159.0527  141.4233  157.2613 C   0  0  0  0  0  0  0  0  0  0  0  0
  159.3432  141.9391  158.6506 C   0  0  0  0  0  0  0  0  0  0  0  0
  153.7719  139.9721  161.7132 H   0  0  0  0  0  0  0  0  0  0  0  0
  155.1106  141.0185  162.1508 H   0  0  0  0  0  0  0  0  0  0  0  0
  153.4150  142.7713  163.2310 H   0  0  0  0  0  0  0  0  0  0  0  0
  151.7939  144.6238  162.0617 H   0  0  0  0  0  0  0  0  0  0  0  0
  156.8676  140.9996  160.8238 H   0  0  0  0  0  0  0  0  0  0  0  0
  157.9963  139.6330  159.1378 H   0  0  0  0  0  0  0  0  0  0  0  0
  156.6469  139.8872  158.0623 H   0  0  0  0  0  0  0  0  0  0  0  0
  157.2570  142.4176  158.0740 H   0  0  0  0  0  0  0  0  0  0  0  0
  159.3814  140.4137  157.0223 H   0  0  0  0  0  0  0  0  0  0  0  0
  159.0997  142.1356  156.4402 H   0  0  0  0  0  0  0  0  0  0  0  0
  159.5814  142.9956  158.7566 H   0  0  0  0  0  0  0  0  0  0  0  0
  159.8640  141.2732  159.3359 H   0  0  0  0  0  0  0  0  0  0  0  0
  1  2  2  0  0  0  0
  2  3  1  0  0  0  0
  2 13  1  0  0  0  0
  3  4  1  0  0  0  0
  3 18  1  0  0  0  0
  3 19  1  0  0  0  0
  4 12  1  0  0  0  0
  4  5  1  0  0  0  0
  5  6  2  0  0  0  0
  5 20  1  0  0  0  0
  6  7  1  0  0  0  0
  6 21  1  0  0  0  0
  7  8  1  0  0  0  0
  7 12  2  0  0  0  0
  8  9  1  0  0  0  0
  8 10  1  0  0  0  0
  8 11  1  0  0  0  0
 13 14  1  0  0  0  0
 13 22  1  0  0  0  0
 14 15  1  0  0  0  0
 14 23  1  0  0  0  0
 14 24  1  0  0  0  0
 15 17  1  0  0  0  0
 15 16  1  0  0  0  0
 15 25  1  0  0  0  0
 16 17  1  0  0  0  0
 16 26  1  0  0  0  0
 16 27  1  0  0  0  0
 17 28  1  0  0  0  0
 17 29  1  0  0  0  0
M  END
> <s_m_source_file>
AV-unprocessed.smi

> <i_m_source_file_index>
1169

> <i_lp_mmshare_version>
43012

> <i_f3d_flags>
0

> <s_epik_input>
W0NIMl0xW0NIMl1bQ0hdMVtDSDJdW05IXUMoPU8pW0NIMl1uMltjSF1bY0hdYyhuMilDKEYpKEYpRg==

> <s_epik_cmdline>
J2VwaWtfcHl0aG9uJywgJy1waCcsICc3LjAnLCAnLXRuJywgJzgnLCAnLW1hJywgJzIwMCcsICctbWV0YWxfYmluZGluZycsICctaW1hZScsICc8aW5maWxlLm1hZT4nLCAnLW9tYWUnLCAnPG91dGZpbGUubWFlPic=

> <r_lp_tautomer_probability>
1

> <r_epik_Ionization_Penalty>
8.05593e-08

> <r_epik_Ionization_Penalty_Charging>
0

> <r_epik_Ionization_Penalty_Neutral>
8.05593e-08

> <r_epik_State_Penalty>
-0

> <r_epik_Charging_Adjusted_Penalty>
0

> <i_epik_Tot_Q>
0

> <i_epik_Tot_abs_Q>
0

> <r_epik_Metal_State_Penalty>
-0

> <b_epik_Metal_Only>
0

> <s_lp_Force_Field>
OPLS_2005

> <r_lp_Energy>
14.9907

> <b_lp_Chiralities_Consistent>
1

> <s_lp_Variant>
AV-unprocessed.smi:1169-1

> <Gold.Version>
5.8.1

> <Gold.Id.Protein>
6NUR|6NUR_protein|mol2

> <Gold.PLP.Fitness>
50.1438

> <Gold.PLP.PLP>
-48.2829

> <Gold.PLP.part.hbond>
-2.0000

> <Gold.PLP.part.metal>
0.0000

> <Gold.PLP.part.buried>
-3.1582

> <Gold.PLP.part.nonpolar>
-42.5959

> <Gold.PLP.part.repulsive>
0.0517

> <Gold.PLP.ligand.clash>
0.0000

> <Gold.PLP.ligand.torsion>
0.7120

> <Gold.PLP.Chemscore.Hbond>
0.8960

> <Gold.PLP.Chemscore.CHOScore>
0.0000

> <Gold.PLP.Chemscore.Metal>
0.0000

> <Gold.Chemscore.Hbonds>
donor molecule, donor type, donor heavy atom, donor atom, acceptor molecule, acceptor atom, score
      P1  H  7997  8009       L1     1  1.00

> <Gold.PLP.Chemscore.Internal.Correction>
0.5970

> <Gold.Rescore>
     Score         DG    S(hbond)    S(metal)    S(lipo)     H(rot)  DE(clash)    DE(int)     intcor
     11.47     -14.76       0.94        0.00      92.53       1.84       1.26       2.02       ----

> <Gold.Chemscore.Fitness>
11.4745

> <Gold.Chemscore.DG>
-14.7574

> <Gold.Chemscore.ZeroCoef>
-5.4800

> <Gold.Chemscore.Hbond>
0.9436

> <Gold.Chemscore.Metal>
0.0000

> <Gold.Chemscore.Lipo>
92.5286

> <Gold.Chemscore.Internal_Hbond>
0.0000

> <Gold.Chemscore.DEClash>
1.2629

> <Gold.Chemscore.DEInternal>
2.0200

> <Gold.Chemscore.Rot>
1.8359

> <Gold.Chemscore.Internal.Correction>
   9.000000E+99

> <Gold.Chemscore.Hbonds>
donor molecule, donor type, donor heavy atom, donor atom, acceptor molecule, acceptor atom, score
      P1  H  7997  8009       L1     1  0.95

> <Gold.Chemscore.Hbond.Weighted>
-3.1516

> <Gold.Chemscore.Metal.Weighted>
-0.0000

> <Gold.Chemscore.Lipo.Weighted>
-10.8258

> <Gold.Chemscore.Internal_Hbond.Weighted>
0.0000

> <Gold.Chemscore.DEClash.Weighted>
1.2629

> <Gold.Chemscore.DEInternal.Weighted>
2.0200

> <Gold.Chemscore.Rot.Weighted>
4.7000

> <Gold.Chemscore.Internal.Correction.Weighted>
   9.000000E+99

> <Gold.Protein.RotatedTorsions>
[ 6907 6896 6895 6894 ] final -108.56 input  -60.11 | X-H torsion
[ 7974 7965 7964 7962 ] final -107.75 input  175.53 | X-H torsion
[ 8008 7997 7996 7995 ] final  121.32 input   59.86 | X-H torsion
[ 10167 10162 10161 10158 ] final -113.68 input  -65.29 | X-H torsion
[ 10718 10713 10712 10709 ] final  126.36 input   66.30 | X-H torsion
[ 10763 10752 10751 10750 ] final   22.29 input  -60.55 | X-H torsion
[ 11005 11000 10999 10996 ] final   23.63 input  -57.11 | X-H torsion

> <Gold.Protein.ActiveResidues>
 VAL166  LYS551  ARG553  GLY616  TRP617  ASP618  TYR619  PRO620  LYS621  CYS622 
 ASP623  PHE694  ASN695  SER759  ASP760  ASP761  ALA762  ILE779  LEU786  VAL792 
 PHE793  MET794  SER795  GLU796  ALA797  LYS798  CYS799  TRP800  GLU811  SER814 

> <Gold.Protein.RotatedAtoms>
  150.7509  133.9659  159.3530 H   0  0  0  0  0  0  0  0  0  0  0  0  # atno 6907 bound_to 6896
  151.7589  135.0813  160.0352 H   0  0  0  0  0  0  0  0  0  0  0  0  # atno 6908 bound_to 6896
  152.3416  133.6037  159.5917 H   0  0  0  0  0  0  0  0  0  0  0  0  # atno 6909 bound_to 6896
  145.2014  140.9058  143.3367 H   0  0  0  0  0  0  0  0  0  0  0  0  # atno 7974 bound_to 7965
  156.2681  140.2811  156.1290 H   0  0  0  0  0  0  0  0  0  0  0  0  # atno 8008 bound_to 7997
  155.1074  140.0390  157.2732 H   0  0  0  0  0  0  0  0  0  0  0  0  # atno 8009 bound_to 7997
  154.6768  140.2600  155.6955 H   0  0  0  0  0  0  0  0  0  0  0  0  # atno 8010 bound_to 7997
  140.1092  143.4542  152.1763 H   0  0  0  0  0  0  0  0  0  0  0  0  # atno 10167 bound_to 10162
  157.5425  131.1096  150.8835 H   0  0  0  0  0  0  0  0  0  0  0  0  # atno 10718 bound_to 10713
  153.0927  135.6651  153.9823 H   0  0  0  0  0  0  0  0  0  0  0  0  # atno 10763 bound_to 10752
  153.9415  135.2993  155.3444 H   0  0  0  0  0  0  0  0  0  0  0  0  # atno 10764 bound_to 10752
  154.7343  135.5109  153.9089 H   0  0  0  0  0  0  0  0  0  0  0  0  # atno 10765 bound_to 10752
  140.3675  134.2059  155.7668 H   0  0  0  0  0  0  0  0  0  0  0  0  # atno 11005 bound_to 11000
  144.9944  139.3658  143.6198 LP  0  0  0  0  0  0  0  0  0  0  0  0  # atno 17320 bound_to 7965
  146.3417  139.9141  142.8776 LP  0  0  0  0  0  0  0  0  0  0  0  0  # atno 17321 bound_to 7965
  139.5628  144.7416  151.4106 LP  0  0  0  0  0  0  0  0  0  0  0  0  # atno 17342 bound_to 10162
  140.6935  143.7805  150.7291 LP  0  0  0  0  0  0  0  0  0  0  0  0  # atno 17343 bound_to 10162
  156.9383  130.5375  149.5280 LP  0  0  0  0  0  0  0  0  0  0  0  0  # atno 17370 bound_to 10713
  156.0509  130.5578  150.8986 LP  0  0  0  0  0  0  0  0  0  0  0  0  # atno 17371 bound_to 10713
  141.1965  133.8081  157.0669 LP  0  0  0  0  0  0  0  0  0  0  0  0  # atno 17394 bound_to 11000
  140.0578  134.9771  157.1251 LP  0  0  0  0  0  0  0  0  0  0  0  0  # atno 17395 bound_to 11000

$$$$
