AV-unprocessed.smi:877|AV-procd|sdf|4028|dock6
  -GOLD-   22720 1523D 1   1.00000     0.00000
 Structure written by MMmdl.
 43 45  0  0  0  0  0  0  0  0  1 V2000
  143.8256  143.0778  156.4437 C   0  0  0  0  0  0  0  0  0  0  0  0
  144.5361  142.9236  155.2238 O   0  0  0  0  0  0  0  0  0  0  0  0
  145.8463  142.4999  155.2860 C   0  0  0  0  0  0  0  0  0  0  0  0
  146.5174  142.1595  156.4878 C   0  0  0  0  0  0  0  0  0  0  0  0
  147.8603  141.7363  156.4595 C   0  0  0  0  0  0  0  0  0  0  0  0
  148.5524  141.6469  155.2354 C   0  0  0  0  0  0  0  0  0  0  0  0
  150.0028  141.1951  155.2139 C   0  0  0  0  0  0  0  0  0  0  0  0
  150.7616  141.5408  156.4668 C   0  0  0  0  0  0  0  0  0  0  0  0
  150.8292  142.7886  156.9381 N   0  0  0  0  0  0  0  0  0  0  0  0
  151.6071  142.6505  158.0696 C   0  0  0  0  0  0  0  0  0  0  0  0
  152.0362  143.6113  159.0128 C   0  0  0  0  0  0  0  0  0  0  0  0
  152.8408  143.2288  160.1060 C   0  0  0  0  0  0  0  0  0  0  0  0
  153.2283  141.8831  160.2703 C   0  0  0  0  0  0  0  0  0  0  0  0
  152.8118  140.9103  159.3412 C   0  0  0  0  0  0  0  0  0  0  0  0
  152.0073  141.2977  158.2527 C   0  0  0  0  0  0  0  0  0  0  0  0
  151.4400  140.6083  157.1855 N   0  0  0  0  0  0  0  0  0  0  0  0
  151.5763  139.1793  156.9335 C   0  0  0  0  0  0  0  0  0  0  0  0
  152.0796  138.8761  155.5077 C   0  0  1  0  0  0  0  0  0  0  0  0
  153.4937  138.8447  155.5023 O   0  0  0  0  0  0  0  0  0  0  0  0
  151.5572  137.5247  154.9925 C   0  0  0  0  0  0  0  0  0  0  0  0
  152.2225  137.1669  153.7990 O   0  0  0  0  0  0  0  0  0  0  0  0
  147.8911  141.9831  154.0371 C   0  0  0  0  0  0  0  0  0  0  0  0
  146.5485  142.4063  154.0667 C   0  0  0  0  0  0  0  0  0  0  0  0
  142.8113  143.4144  156.2295 H   0  0  0  0  0  0  0  0  0  0  0  0
  144.2919  143.8262  157.0859 H   0  0  0  0  0  0  0  0  0  0  0  0
  143.7524  142.1325  156.9835 H   0  0  0  0  0  0  0  0  0  0  0  0
  146.0245  142.2159  157.4462 H   0  0  0  0  0  0  0  0  0  0  0  0
  148.3607  141.4833  157.3830 H   0  0  0  0  0  0  0  0  0  0  0  0
  150.0055  140.1181  155.0524 H   0  0  0  0  0  0  0  0  0  0  0  0
  150.5176  141.6396  154.3616 H   0  0  0  0  0  0  0  0  0  0  0  0
  151.7452  144.6445  158.8947 H   0  0  0  0  0  0  0  0  0  0  0  0
  153.1625  143.9716  160.8210 H   0  0  0  0  0  0  0  0  0  0  0  0
  153.8453  141.5982  161.1098 H   0  0  0  0  0  0  0  0  0  0  0  0
  153.1058  139.8785  159.4642 H   0  0  0  0  0  0  0  0  0  0  0  0
  152.2261  138.7298  157.6840 H   0  0  0  0  0  0  0  0  0  0  0  0
  150.5975  138.7212  157.0811 H   0  0  0  0  0  0  0  0  0  0  0  0
  151.7488  139.6743  154.8412 H   0  0  0  0  0  0  0  0  0  0  0  0
  153.7708  137.9745  155.7461 H   0  0  0  0  0  0  0  0  0  0  0  0
  151.6761  136.7388  155.7399 H   0  0  0  0  0  0  0  0  0  0  0  0
  150.4928  137.5944  154.7661 H   0  0  0  0  0  0  0  0  0  0  0  0
  151.5764  136.8997  153.1631 H   0  0  0  0  0  0  0  0  0  0  0  0
  148.4125  141.9229  153.0928 H   0  0  0  0  0  0  0  0  0  0  0  0
  146.0523  142.6632  153.1421 H   0  0  0  0  0  0  0  0  0  0  0  0
  1  2  1  0  0  0  0
  1 24  1  0  0  0  0
  1 25  1  0  0  0  0
  1 26  1  0  0  0  0
  2  3  1  0  0  0  0
  3 23  1  0  0  0  0
  3  4  2  0  0  0  0
  4  5  1  0  0  0  0
  4 27  1  0  0  0  0
  5  6  2  0  0  0  0
  5 28  1  0  0  0  0
  6  7  1  0  0  0  0
  6 22  1  0  0  0  0
  7  8  1  0  0  0  0
  7 29  1  0  0  0  0
  7 30  1  0  0  0  0
  8 16  1  0  0  0  0
  8  9  2  0  0  0  0
  9 10  1  0  0  0  0
 10 15  2  0  0  0  0
 10 11  1  0  0  0  0
 11 12  2  0  0  0  0
 11 31  1  0  0  0  0
 12 13  1  0  0  0  0
 12 32  1  0  0  0  0
 13 14  2  0  0  0  0
 13 33  1  0  0  0  0
 14 15  1  0  0  0  0
 14 34  1  0  0  0  0
 15 16  1  0  0  0  0
 16 17  1  0  0  0  0
 17 18  1  0  0  0  0
 17 35  1  0  0  0  0
 17 36  1  0  0  0  0
 18 19  1  0  0  0  0
 18 20  1  0  0  0  0
 18 37  1  0  0  0  0
 19 38  1  0  0  0  0
 20 21  1  0  0  0  0
 20 39  1  0  0  0  0
 20 40  1  0  0  0  0
 21 41  1  0  0  0  0
 22 23  2  0  0  0  0
 22 42  1  0  0  0  0
 23 43  1  0  0  0  0
M  END
> <s_m_source_file>
AV-unprocessed.smi

> <i_m_source_file_index>
877

> <i_lp_mmshare_version>
43012

> <i_f3d_flags>
0

> <s_epik_input>
W0NIM11PYzFbY0hdW2NIXWMoW2NIXVtjSF0xKVtDSDJdYyhuMiluKFtDSDJdW0NASF0oW09IXSlbQ0gyXVtPSF0pYyhjMjMpW2NIXVtjSF1bY0hdW2NIXTM=

> <s_epik_cmdline>
J2VwaWtfcHl0aG9uJywgJy1waCcsICc3LjAnLCAnLXRuJywgJzgnLCAnLW1hJywgJzIwMCcsICctbWV0YWxfYmluZGluZycsICctaW1hZScsICc8aW5maWxlLm1hZT4nLCAnLW9tYWUnLCAnPG91dGZpbGUubWFlPic=

> <r_lp_tautomer_probability>
1

> <r_epik_Ionization_Penalty>
0.0616669

> <r_epik_Ionization_Penalty_Charging>
0

> <r_epik_Ionization_Penalty_Neutral>
0.0616669

> <r_epik_State_Penalty>
0.0535415

> <r_epik_Charging_Adjusted_Penalty>
0.0535415

> <i_epik_Tot_Q>
0

> <i_epik_Tot_abs_Q>
0

> <r_epik_Metal_State_Penalty>
5.60326e-05

> <b_epik_Metal_Only>
0

> <s_lp_Force_Field>
OPLS_2005

> <r_lp_Energy>
19.9882

> <b_lp_Chiralities_Consistent>
1

> <s_lp_Variant>
AV-unprocessed.smi:877-2

> <Gold.Version>
5.8.1

> <Gold.Id.Protein>
6NUR|6NUR_protein|mol2

> <Gold.PLP.Fitness>
55.2374

> <Gold.PLP.PLP>
-48.1311

> <Gold.PLP.part.hbond>
-3.0000

> <Gold.PLP.part.metal>
0.0000

> <Gold.PLP.part.buried>
-5.7141

> <Gold.PLP.part.nonpolar>
-40.9171

> <Gold.PLP.part.repulsive>
0.9903

> <Gold.PLP.ligand.clash>
0.0000

> <Gold.PLP.ligand.torsion>
0.8861

> <Gold.PLP.Chemscore.Hbond>
2.9280

> <Gold.PLP.Chemscore.CHOScore>
0.0000

> <Gold.PLP.Chemscore.Metal>
0.0000

> <Gold.Chemscore.Hbonds>
donor molecule, donor type, donor heavy atom, donor atom, acceptor molecule, acceptor atom, score
      L1  H    21    41       P1  7949  0.96
      P1  H  7997  8009       L1    19  0.96
      P1  H 10752 10765       L1    21  1.00

> <Gold.PLP.Chemscore.Internal.Correction>
0.0946

> <Gold.Rescore>
     Score         DG    S(hbond)    S(metal)    S(lipo)     H(rot)  DE(clash)    DE(int)     intcor
     18.14     -19.31       2.42        0.00     118.11       3.15       0.27       0.90       ----

> <Gold.Chemscore.Fitness>
18.1384

> <Gold.Chemscore.DG>
-19.3051

> <Gold.Chemscore.ZeroCoef>
-5.4800

> <Gold.Chemscore.Hbond>
2.4155

> <Gold.Chemscore.Metal>
0.0000

> <Gold.Chemscore.Lipo>
118.1053

> <Gold.Chemscore.Internal_Hbond>
0.0000

> <Gold.Chemscore.DEClash>
0.2659

> <Gold.Chemscore.DEInternal>
0.9008

> <Gold.Chemscore.Rot>
3.1488

> <Gold.Chemscore.Internal.Correction>
   9.000000E+99

> <Gold.Chemscore.Hbonds>
donor molecule, donor type, donor heavy atom, donor atom, acceptor molecule, acceptor atom, score
      L1  H    21    41       P1  7949  0.86
      P1  H  7997  8009       L1    19  0.87
      P1  H 10752 10765       L1    21  0.19

> <Gold.Chemscore.Hbond.Weighted>
-8.0677

> <Gold.Chemscore.Metal.Weighted>
-0.0000

> <Gold.Chemscore.Lipo.Weighted>
-13.8183

> <Gold.Chemscore.Internal_Hbond.Weighted>
0.0000

> <Gold.Chemscore.DEClash.Weighted>
0.2659

> <Gold.Chemscore.DEInternal.Weighted>
0.9008

> <Gold.Chemscore.Rot.Weighted>
8.0608

> <Gold.Chemscore.Internal.Correction.Weighted>
   9.000000E+99

> <Gold.Protein.RotatedTorsions>
[ 6907 6896 6895 6894 ] final   31.81 input  -60.11 | X-H torsion
[ 7974 7965 7964 7962 ] final -103.31 input  175.53 | X-H torsion
[ 8008 7997 7996 7995 ] final -147.37 input   59.86 | X-H torsion
[ 10167 10162 10161 10158 ] final  -85.72 input  -65.29 | X-H torsion
[ 10718 10713 10712 10709 ] final   78.58 input   66.30 | X-H torsion
[ 10763 10752 10751 10750 ] final  143.96 input  -60.55 | X-H torsion
[ 11005 11000 10999 10996 ] final   36.02 input  -57.11 | X-H torsion

> <Gold.Protein.ActiveResidues>
 VAL166  LYS551  ARG553  GLY616  TRP617  ASP618  TYR619  PRO620  LYS621  CYS622 
 ASP623  PHE694  ASN695  SER759  ASP760  ASP761  ALA762  ILE779  LEU786  VAL792 
 PHE793  MET794  SER795  GLU796  ALA797  LYS798  CYS799  TRP800  GLU811  SER814 

> <Gold.Protein.RotatedAtoms>
  152.0656  134.9567  160.0574 H   0  0  0  0  0  0  0  0  0  0  0  0  # atno 6907 bound_to 6896
  152.0913  133.4197  159.4553 H   0  0  0  0  0  0  0  0  0  0  0  0  # atno 6908 bound_to 6896
  150.6837  134.2788  159.4662 H   0  0  0  0  0  0  0  0  0  0  0  0  # atno 6909 bound_to 6896
  145.2575  140.9258  143.3059 H   0  0  0  0  0  0  0  0  0  0  0  0  # atno 7974 bound_to 7965
  155.5744  140.0637  157.2798 H   0  0  0  0  0  0  0  0  0  0  0  0  # atno 8008 bound_to 7997
  154.4351  140.1863  156.0958 H   0  0  0  0  0  0  0  0  0  0  0  0  # atno 8009 bound_to 7997
  156.0352  140.3302  155.7187 H   0  0  0  0  0  0  0  0  0  0  0  0  # atno 8010 bound_to 7997
  140.4010  143.2663  151.9143 H   0  0  0  0  0  0  0  0  0  0  0  0  # atno 10167 bound_to 10162
  157.6749  130.9874  150.1806 H   0  0  0  0  0  0  0  0  0  0  0  0  # atno 10718 bound_to 10713
  153.9809  135.2941  155.3420 H   0  0  0  0  0  0  0  0  0  0  0  0  # atno 10763 bound_to 10752
  154.7269  135.5085  153.8904 H   0  0  0  0  0  0  0  0  0  0  0  0  # atno 10764 bound_to 10752
  153.0855  135.6692  154.0073 H   0  0  0  0  0  0  0  0  0  0  0  0  # atno 10765 bound_to 10752
  140.2367  134.3463  155.7942 H   0  0  0  0  0  0  0  0  0  0  0  0  # atno 11005 bound_to 11000
  144.9447  139.4149  143.6431 LP  0  0  0  0  0  0  0  0  0  0  0  0  # atno 17320 bound_to 7965
  146.3285  139.8425  142.8888 LP  0  0  0  0  0  0  0  0  0  0  0  0  # atno 17321 bound_to 7965
  139.4785  144.5634  151.8204 LP  0  0  0  0  0  0  0  0  0  0  0  0  # atno 17342 bound_to 10162
  140.4740  144.1546  150.5922 LP  0  0  0  0  0  0  0  0  0  0  0  0  # atno 17343 bound_to 10162
  156.2540  130.3703  149.8202 LP  0  0  0  0  0  0  0  0  0  0  0  0  # atno 17370 bound_to 10713
  156.5966  130.8529  151.3421 LP  0  0  0  0  0  0  0  0  0  0  0  0  # atno 17371 bound_to 10713
  141.2214  133.7276  156.8820 LP  0  0  0  0  0  0  0  0  0  0  0  0  # atno 17394 bound_to 11000
  140.1695  134.9110  157.2815 LP  0  0  0  0  0  0  0  0  0  0  0  0  # atno 17395 bound_to 11000

$$$$
