AV-unprocessed.smi:3032|AV-procd|sdf|11560|dock4
  -GOLD-   2272016523D 1   1.00000     0.00000
 Structure written by MMmdl.
 37 38  0  0  0  0  0  0  0  0  1 V2000
  153.9708  140.9958  161.0377 C   0  0  0  0  0  0  0  0  0  0  0  0
  152.8972  142.0353  160.6853 C   0  0  1  0  0  0  0  0  0  0  0  0
  152.8367  143.1575  161.7381 C   0  0  0  0  0  0  0  0  0  0  0  0
  151.7643  144.2008  161.3914 C   0  0  0  0  0  0  0  0  0  0  0  0
  151.9916  144.7931  159.9886 C   0  0  0  0  0  0  0  0  0  0  0  0
  152.1166  143.7236  158.8783 C   0  0  2  0  0  0  0  0  0  0  0  0
  150.7563  143.1406  158.4506 C   0  0  0  0  0  0  0  0  0  0  0  0
  149.7354  143.3713  159.0983 O   0  0  0  0  0  0  0  0  0  0  0  0
  150.7590  142.3749  157.3480 N   0  0  0  0  0  0  0  0  0  0  0  0
  149.5898  141.7092  156.7852 C   0  0  0  0  0  0  0  0  0  0  0  0
  149.7733  141.4171  155.2871 C   0  0  0  0  0  0  0  0  0  0  0  0
  148.4726  141.2927  154.5636 C   0  0  0  0  0  0  0  0  0  0  0  0
  148.3858  140.7766  153.3360 N   0  0  0  0  0  0  0  0  0  0  0  0
  147.0983  140.8025  152.9317 N   0  0  0  0  0  0  0  0  0  0  0  0
  146.4883  141.3540  153.9792 C   0  0  0  0  0  0  0  0  0  0  0  0
  147.2937  141.6881  155.0319 N   0  0  0  0  0  0  0  0  0  0  0  0
  153.1327  142.6276  159.2784 C   0  0  0  0  0  0  0  0  0  0  0  0
  149.1362  140.4127  152.7660 H   0  0  0  0  0  0  0  0  0  0  0  0
  154.9653  141.4428  161.0580 H   0  0  0  0  0  0  0  0  0  0  0  0
  153.9848  140.1846  160.3094 H   0  0  0  0  0  0  0  0  0  0  0  0
  153.7843  140.5552  162.0172 H   0  0  0  0  0  0  0  0  0  0  0  0
  151.9388  141.5163  160.6908 H   0  0  0  0  0  0  0  0  0  0  0  0
  152.6285  142.7354  162.7219 H   0  0  0  0  0  0  0  0  0  0  0  0
  153.8089  143.6470  161.8120 H   0  0  0  0  0  0  0  0  0  0  0  0
  150.7751  143.7482  161.4572 H   0  0  0  0  0  0  0  0  0  0  0  0
  151.7776  145.0006  162.1325 H   0  0  0  0  0  0  0  0  0  0  0  0
  151.1888  145.4927  159.7518 H   0  0  0  0  0  0  0  0  0  0  0  0
  152.9061  145.3875  160.0049 H   0  0  0  0  0  0  0  0  0  0  0  0
  152.5253  144.2283  158.0010 H   0  0  0  0  0  0  0  0  0  0  0  0
  151.6372  142.2376  156.8689 H   0  0  0  0  0  0  0  0  0  0  0  0
  149.3805  140.7890  157.3331 H   0  0  0  0  0  0  0  0  0  0  0  0
  148.7287  142.3613  156.9323 H   0  0  0  0  0  0  0  0  0  0  0  0
  150.3626  142.2073  154.8204 H   0  0  0  0  0  0  0  0  0  0  0  0
  150.3328  140.4910  155.1481 H   0  0  0  0  0  0  0  0  0  0  0  0
  145.4216  141.5245  153.9860 H   0  0  0  0  0  0  0  0  0  0  0  0
  154.1358  143.0547  159.2377 H   0  0  0  0  0  0  0  0  0  0  0  0
  153.1238  141.8268  158.5372 H   0  0  0  0  0  0  0  0  0  0  0  0
  1  2  1  0  0  0  0
  1 19  1  0  0  0  0
  1 20  1  0  0  0  0
  1 21  1  0  0  0  0
  2 17  1  0  0  0  0
  2  3  1  0  0  0  0
  2 22  1  0  0  0  0
  3  4  1  0  0  0  0
  3 23  1  0  0  0  0
  3 24  1  0  0  0  0
  4  5  1  0  0  0  0
  4 25  1  0  0  0  0
  4 26  1  0  0  0  0
  5  6  1  0  0  0  0
  5 27  1  0  0  0  0
  5 28  1  0  0  0  0
  6  7  1  0  0  0  0
  6 17  1  0  0  0  0
  6 29  1  0  0  0  0
  7  8  2  0  0  0  0
  7  9  1  0  0  0  0
  9 10  1  0  0  0  0
  9 30  1  0  0  0  0
 10 11  1  0  0  0  0
 10 31  1  0  0  0  0
 10 32  1  0  0  0  0
 11 33  1  0  0  0  0
 11 34  1  0  0  0  0
 11 12  1  0  0  0  0
 12 16  2  0  0  0  0
 12 13  1  0  0  0  0
 13 18  1  0  0  0  0
 13 14  1  0  0  0  0
 14 15  2  0  0  0  0
 15 16  1  0  0  0  0
 15 35  1  0  0  0  0
 17 36  1  0  0  0  0
 17 37  1  0  0  0  0
M  END
> <s_m_source_file>
AV-unprocessed.smi

> <i_m_source_file_index>
3032

> <i_lp_mmshare_version>
43012

> <i_f3d_flags>
0

> <s_epik_input>
W0NIM11bQ0BASF0xW0NIMl1bQ0gyXVtDSDJdW0NASF0oW0NIMl0xKUMoPU8pW05IXVtDSDJdW0NIMl1jMm5uW2NIXVtuSF0y

> <s_epik_cmdline>
J2VwaWtfcHl0aG9uJywgJy1waCcsICc3LjAnLCAnLXRuJywgJzgnLCAnLW1hJywgJzIwMCcsICctbWV0YWxfYmluZGluZycsICctaW1hZScsICc8aW5maWxlLm1hZT4nLCAnLW9tYWUnLCAnPG91dGZpbGUubWFlPic=

> <r_lp_tautomer_probability>
0.948284

> <r_epik_Ionization_Penalty>
0.000474052

> <r_epik_Ionization_Penalty_Charging>
0

> <r_epik_Ionization_Penalty_Neutral>
0.000474052

> <r_epik_State_Penalty>
0.271807

> <r_epik_Charging_Adjusted_Penalty>
0.271807

> <i_epik_Tot_Q>
0

> <i_epik_Tot_abs_Q>
0

> <r_epik_Metal_State_Penalty>
0.397201

> <b_epik_Metal_Only>
0

> <s_lp_Force_Field>
OPLS_2005

> <r_lp_Energy>
9.09743

> <b_lp_Chiralities_Consistent>
1

> <s_lp_Variant>
AV-unprocessed.smi:3032-4

> <Gold.Version>
5.8.1

> <Gold.Id.Protein>
6NUR|6NUR_protein|mol2

> <Gold.PLP.Fitness>
44.6738

> <Gold.PLP.PLP>
-40.1614

> <Gold.PLP.part.hbond>
-1.3830

> <Gold.PLP.part.metal>
0.0000

> <Gold.PLP.part.buried>
-5.2318

> <Gold.PLP.part.nonpolar>
-34.3474

> <Gold.PLP.part.repulsive>
0.7213

> <Gold.PLP.ligand.clash>
0.0000

> <Gold.PLP.ligand.torsion>
0.6017

> <Gold.PLP.Chemscore.Hbond>
0.8960

> <Gold.PLP.Chemscore.CHOScore>
0.9890

> <Gold.PLP.Chemscore.Metal>
0.0000

> <Gold.Chemscore.Hbonds>
donor molecule, donor type, donor heavy atom, donor atom, acceptor molecule, acceptor atom, score
      L1  H    13    18       P1  7957  0.88
      L1  C    15    35       P1 10175  0.97

> <Gold.PLP.Chemscore.Internal.Correction>
0.0606

> <Gold.Rescore>
     Score         DG    S(hbond)    S(metal)    S(lipo)     H(rot)  DE(clash)    DE(int)     intcor
     13.36     -14.03       1.00        0.00      93.88       2.25       0.04       0.63       ----

> <Gold.Chemscore.Fitness>
13.3571

> <Gold.Chemscore.DG>
-14.0280

> <Gold.Chemscore.ZeroCoef>
-5.4800

> <Gold.Chemscore.Hbond>
0.9952

> <Gold.Chemscore.Metal>
0.0000

> <Gold.Chemscore.Lipo>
93.8831

> <Gold.Chemscore.Internal_Hbond>
0.0000

> <Gold.Chemscore.DEClash>
0.0386

> <Gold.Chemscore.DEInternal>
0.6323

> <Gold.Chemscore.Rot>
2.2501

> <Gold.Chemscore.Internal.Correction>
   9.000000E+99

> <Gold.Chemscore.Hbonds>
donor molecule, donor type, donor heavy atom, donor atom, acceptor molecule, acceptor atom, score
      L1  H    13    18       P1  7957  0.86

> <Gold.Chemscore.Hbond.Weighted>
-3.3240

> <Gold.Chemscore.Metal.Weighted>
-0.0000

> <Gold.Chemscore.Lipo.Weighted>
-10.9843

> <Gold.Chemscore.Internal_Hbond.Weighted>
0.0000

> <Gold.Chemscore.DEClash.Weighted>
0.0386

> <Gold.Chemscore.DEInternal.Weighted>
0.6323

> <Gold.Chemscore.Rot.Weighted>
5.7603

> <Gold.Chemscore.Internal.Correction.Weighted>
   9.000000E+99

> <Gold.Protein.RotatedTorsions>
[ 6907 6896 6895 6894 ] final  -81.45 input  -60.11 | X-H torsion
[ 7974 7965 7964 7962 ] final -101.68 input  175.53 | X-H torsion
[ 8008 7997 7996 7995 ] final  -89.96 input   59.86 | X-H torsion
[ 10167 10162 10161 10158 ] final   68.30 input  -65.29 | X-H torsion
[ 10718 10713 10712 10709 ] final  158.22 input   66.30 | X-H torsion
[ 10763 10752 10751 10750 ] final   43.04 input  -60.55 | X-H torsion
[ 11005 11000 10999 10996 ] final   90.37 input  -57.11 | X-H torsion

> <Gold.Protein.ActiveResidues>
 VAL166  LYS551  ARG553  GLY616  TRP617  ASP618  TYR619  PRO620  LYS621  CYS622 
 ASP623  PHE694  ASN695  SER759  ASP760  ASP761  ALA762  ILE779  LEU786  VAL792 
 PHE793  MET794  SER795  GLU796  ALA797  LYS798  CYS799  TRP800  GLU811  SER814 

> <Gold.Protein.RotatedAtoms>
  150.6912  134.3815  159.5036 H   0  0  0  0  0  0  0  0  0  0  0  0  # atno 6907 bound_to 6896
  152.1617  134.8904  160.0550 H   0  0  0  0  0  0  0  0  0  0  0  0  # atno 6908 bound_to 6896
  151.9963  133.3774  159.4201 H   0  0  0  0  0  0  0  0  0  0  0  0  # atno 6909 bound_to 6896
  145.2785  140.9319  143.2945 H   0  0  0  0  0  0  0  0  0  0  0  0  # atno 7974 bound_to 7965
  154.6928  140.0536  157.0381 H   0  0  0  0  0  0  0  0  0  0  0  0  # atno 8008 bound_to 7997
  155.0792  140.3208  155.4588 H   0  0  0  0  0  0  0  0  0  0  0  0  # atno 8009 bound_to 7997
  156.2734  140.2068  156.5920 H   0  0  0  0  0  0  0  0  0  0  0  0  # atno 8010 bound_to 7997
  140.0801  144.5078  150.7168 H   0  0  0  0  0  0  0  0  0  0  0  0  # atno 10167 bound_to 10162
  157.1809  131.0632  151.2132 H   0  0  0  0  0  0  0  0  0  0  0  0  # atno 10718 bound_to 10713
  152.9869  135.6113  154.3048 H   0  0  0  0  0  0  0  0  0  0  0  0  # atno 10763 bound_to 10752
  154.2766  135.2778  155.2717 H   0  0  0  0  0  0  0  0  0  0  0  0  # atno 10764 bound_to 10752
  154.5075  135.5850  153.6635 H   0  0  0  0  0  0  0  0  0  0  0  0  # atno 10765 bound_to 10752
  139.8857  134.8609  156.3275 H   0  0  0  0  0  0  0  0  0  0  0  0  # atno 11005 bound_to 11000
  144.9274  139.4339  143.6512 LP  0  0  0  0  0  0  0  0  0  0  0  0  # atno 17320 bound_to 7965
  146.3224  139.8166  142.8935 LP  0  0  0  0  0  0  0  0  0  0  0  0  # atno 17321 bound_to 7965
  140.7082  143.2484  151.4662 LP  0  0  0  0  0  0  0  0  0  0  0  0  # atno 17342 bound_to 10162
  139.5784  144.1765  152.1935 LP  0  0  0  0  0  0  0  0  0  0  0  0  # atno 17343 bound_to 10162
  157.3953  130.7304  149.6727 LP  0  0  0  0  0  0  0  0  0  0  0  0  # atno 17370 bound_to 10713
  155.9724  130.4135  150.4086 LP  0  0  0  0  0  0  0  0  0  0  0  0  # atno 17371 bound_to 10713
  140.9745  133.7306  156.0583 LP  0  0  0  0  0  0  0  0  0  0  0  0  # atno 17394 bound_to 11000
  140.7828  134.3706  157.5483 LP  0  0  0  0  0  0  0  0  0  0  0  0  # atno 17395 bound_to 11000

$$$$
