AV-unprocessed.smi:1417|AV-procd|sdf|5766|dock4
  -GOLD-   22720 5403D 1   1.00000     0.00000
 Structure written by MMmdl.
 40 41  0  0  0  0  0  0  0  0  2 V2000
  152.7800  142.6637  160.8195 C   0  0  0  0  0  0  0  0  0  0  0  0
  152.8474  141.5235  159.8623 C   0  0  0  0  0  0  0  0  0  0  0  0
  151.9583  141.0161  158.9573 C   0  0  0  0  0  0  0  0  0  0  0  0
  152.6758  139.9277  158.3806 C   0  0  0  0  0  0  0  0  0  0  0  0
  152.2034  139.0494  157.3715 N   0  0  0  0  0  0  0  0  0  0  0  0
  151.2310  138.1262  157.4570 C   0  0  0  0  0  0  0  0  0  0  0  0
  150.5558  137.8908  158.4589 O   0  0  0  0  0  0  0  0  0  0  0  0
  151.0782  137.4729  156.2958 N   0  0  0  0  0  0  0  0  0  0  0  0
  150.1110  136.4064  156.0541 C   0  0  2  0  0  0  0  0  0  0  0  0
  150.6633  135.3840  155.0433 C   0  0  0  0  0  0  0  0  0  0  0  0
  149.6102  134.3188  154.7000 C   0  0  0  0  0  0  0  0  0  0  0  0
  148.3677  134.9474  154.1784 N   0  3  1  0  0  0  0  0  0  0  0  0
  147.3747  133.9576  153.6880 C   0  0  0  0  0  0  0  0  0  0  0  0
  148.0158  132.8227  152.8823 C   0  0  0  0  0  0  0  0  0  0  0  0
  147.7583  132.7916  151.5731 N   0  0  0  0  0  0  0  0  0  0  0  0
  148.7442  131.9949  153.4268 O   0  0  0  0  0  0  0  0  0  0  0  0
  147.7885  135.9010  155.1581 C   0  0  0  0  0  0  0  0  0  0  0  0
  148.7985  137.0034  155.5203 C   0  0  0  0  0  0  0  0  0  0  0  0
  153.8859  139.7891  158.8902 N   0  0  0  0  0  0  0  0  0  0  0  0
  154.0048  140.8092  159.8414 O   0  0  0  0  0  0  0  0  0  0  0  0
  151.7549  143.0170  160.9325 H   0  0  0  0  0  0  0  0  0  0  0  0
  153.3882  143.4976  160.4690 H   0  0  0  0  0  0  0  0  0  0  0  0
  153.1454  142.3672  161.8028 H   0  0  0  0  0  0  0  0  0  0  0  0
  150.9619  141.3785  158.7552 H   0  0  0  0  0  0  0  0  0  0  0  0
  152.6670  139.1328  156.4787 H   0  0  0  0  0  0  0  0  0  0  0  0
  151.6746  137.7325  155.5234 H   0  0  0  0  0  0  0  0  0  0  0  0
  149.8975  135.8976  156.9965 H   0  0  0  0  0  0  0  0  0  0  0  0
  150.9732  135.8937  154.1295 H   0  0  0  0  0  0  0  0  0  0  0  0
  151.5547  134.8994  155.4433 H   0  0  0  0  0  0  0  0  0  0  0  0
  150.0249  133.6327  153.9609 H   0  0  0  0  0  0  0  0  0  0  0  0
  149.3762  133.7246  155.5848 H   0  0  0  0  0  0  0  0  0  0  0  0
  146.7976  133.5590  154.5243 H   0  0  0  0  0  0  0  0  0  0  0  0
  146.6638  134.4485  153.0220 H   0  0  0  0  0  0  0  0  0  0  0  0
  148.1521  132.0645  150.9932 H   0  0  0  0  0  0  0  0  0  0  0  0
  147.1640  133.4989  151.1643 H   0  0  0  0  0  0  0  0  0  0  0  0
  146.8933  136.3623  154.7393 H   0  0  0  0  0  0  0  0  0  0  0  0
  147.4786  135.3620  156.0549 H   0  0  0  0  0  0  0  0  0  0  0  0
  148.3620  137.6720  156.2634 H   0  0  0  0  0  0  0  0  0  0  0  0
  148.9993  137.6120  154.6370 H   0  0  0  0  0  0  0  0  0  0  0  0
  148.6326  135.4955  153.3720 H   0  0  0  0  0  0  0  0  0  0  0  0
  1  2  1  0  0  0  0
  1 21  1  0  0  0  0
  1 22  1  0  0  0  0
  1 23  1  0  0  0  0
  2 20  1  0  0  0  0
  2  3  2  0  0  0  0
  3  4  1  0  0  0  0
  3 24  1  0  0  0  0
  4  5  1  0  0  0  0
  4 19  2  0  0  0  0
  5  6  1  0  0  0  0
  5 25  1  0  0  0  0
  6  7  2  0  0  0  0
  6  8  1  0  0  0  0
  8  9  1  0  0  0  0
  8 26  1  0  0  0  0
  9 18  1  0  0  0  0
  9 10  1  0  0  0  0
  9 27  1  0  0  0  0
 10 11  1  0  0  0  0
 10 28  1  0  0  0  0
 10 29  1  0  0  0  0
 11 12  1  0  0  0  0
 11 30  1  0  0  0  0
 11 31  1  0  0  0  0
 12 13  1  0  0  0  0
 12 17  1  0  0  0  0
 12 40  1  0  0  0  0
 13 14  1  0  0  0  0
 13 32  1  0  0  0  0
 13 33  1  0  0  0  0
 14 15  1  0  0  0  0
 14 16  2  0  0  0  0
 15 34  1  0  0  0  0
 15 35  1  0  0  0  0
 17 18  1  0  0  0  0
 17 36  1  0  0  0  0
 17 37  1  0  0  0  0
 18 38  1  0  0  0  0
 18 39  1  0  0  0  0
 19 20  1  0  0  0  0
M  CHG  1  12   1
M  END
> <s_m_source_file>
AV-unprocessed.smi

> <i_m_source_file_index>
1417

> <i_lp_mmshare_version>
43012

> <i_f3d_flags>
0

> <s_epik_input>
W0NIM11jMVtjSF1jKG5vMSlbTkhdQyg9TylbTkhdW0NIXTJbQ0gyXVtDSDJdTihbQ0gyXVtDSDJdMilbQ0gyXUMoPU8pW05IMl0=

> <s_epik_cmdline>
J2VwaWtfcHl0aG9uJywgJy1waCcsICc3LjAnLCAnLXRuJywgJzgnLCAnLW1hJywgJzIwMCcsICctbWV0YWxfYmluZGluZycsICctaW1hZScsICc8aW5maWxlLm1hZT4nLCAnLW9tYWUnLCAnPG91dGZpbGUubWFlPic=

> <r_epik_Ionization_Penalty>
0.867698

> <r_epik_Ionization_Penalty_Charging>
0.867623

> <r_epik_Ionization_Penalty_Neutral>
7.46743e-05

> <r_epik_State_Penalty>
0.904669

> <r_epik_Charging_Adjusted_Penalty>
1.77229

> <i_epik_Tot_Q>
1

> <i_epik_Tot_abs_Q>
1

> <r_epik_Metal_State_Penalty>
0.930696

> <b_epik_Metal_Only>
0

> <s_lp_Force_Field>
OPLS_2005

> <r_lp_Energy>
11.2149

> <b_lp_Chiralities_Consistent>
1

> <s_lp_Variant>
AV-unprocessed.smi:1417-2

> <Gold.Version>
5.8.1

> <Gold.Id.Protein>
6NUR|6NUR_protein|mol2

> <Gold.PLP.Fitness>
36.5025

> <Gold.PLP.PLP>
-26.8659

> <Gold.PLP.part.hbond>
-3.0000

> <Gold.PLP.part.metal>
0.0000

> <Gold.PLP.part.buried>
-4.8136

> <Gold.PLP.part.nonpolar>
-19.0323

> <Gold.PLP.part.repulsive>
0.2880

> <Gold.PLP.ligand.clash>
0.0000

> <Gold.PLP.ligand.torsion>
1.1954

> <Gold.PLP.Chemscore.Hbond>
4.0000

> <Gold.PLP.Chemscore.CHOScore>
0.0000

> <Gold.PLP.Chemscore.Metal>
0.0000

> <Gold.Chemscore.Hbonds>
donor molecule, donor type, donor heavy atom, donor atom, acceptor molecule, acceptor atom, score
      L1  H    12    40       P1  7948  2.00
      L1  H    15    34       P1 10747  1.00
      P1  H  7997  8008       L1    19  1.00

> <Gold.PLP.Chemscore.Internal.Correction>
0.0273

> <Gold.Rescore>
     Score         DG    S(hbond)    S(metal)    S(lipo)     H(rot)  DE(clash)    DE(int)     intcor
     12.28     -14.87       2.62        0.00      50.23       2.05       0.01       2.58       ----

> <Gold.Chemscore.Fitness>
12.2787

> <Gold.Chemscore.DG>
-14.8658

> <Gold.Chemscore.ZeroCoef>
-5.4800

> <Gold.Chemscore.Hbond>
2.6184

> <Gold.Chemscore.Metal>
0.0000

> <Gold.Chemscore.Lipo>
50.2330

> <Gold.Chemscore.Internal_Hbond>
0.0000

> <Gold.Chemscore.DEClash>
0.0089

> <Gold.Chemscore.DEInternal>
2.5782

> <Gold.Chemscore.Rot>
2.0457

> <Gold.Chemscore.Internal.Correction>
   9.000000E+99

> <Gold.Chemscore.Hbonds>
donor molecule, donor type, donor heavy atom, donor atom, acceptor molecule, acceptor atom, score
      L1  H    12    40       P1  7948  0.96
      L1  H    15    34       P1 10747  0.99
      P1  H  7997  8008       L1    19  0.32

> <Gold.Chemscore.Hbond.Weighted>
-8.7456

> <Gold.Chemscore.Metal.Weighted>
-0.0000

> <Gold.Chemscore.Lipo.Weighted>
-5.8773

> <Gold.Chemscore.Internal_Hbond.Weighted>
0.0000

> <Gold.Chemscore.DEClash.Weighted>
0.0089

> <Gold.Chemscore.DEInternal.Weighted>
2.5782

> <Gold.Chemscore.Rot.Weighted>
5.2371

> <Gold.Chemscore.Internal.Correction.Weighted>
   9.000000E+99

> <Gold.Protein.RotatedTorsions>
[ 6907 6896 6895 6894 ] final   33.08 input  -60.11 | X-H torsion
[ 7974 7965 7964 7962 ] final   24.71 input  175.53 | X-H torsion
[ 8008 7997 7996 7995 ] final -118.23 input   59.86 | X-H torsion
[ 10167 10162 10161 10158 ] final -101.65 input  -65.29 | X-H torsion
[ 10718 10713 10712 10709 ] final   55.58 input   66.30 | X-H torsion
[ 10763 10752 10751 10750 ] final  124.81 input  -60.55 | X-H torsion
[ 11005 11000 10999 10996 ] final -110.33 input  -57.11 | X-H torsion

> <Gold.Protein.ActiveResidues>
 VAL166  LYS551  ARG553  GLY616  TRP617  ASP618  TYR619  PRO620  LYS621  CYS622 
 ASP623  PHE694  ASN695  SER759  ASP760  ASP761  ALA762  ILE779  LEU786  VAL792 
 PHE793  MET794  SER795  GLU796  ALA797  LYS798  CYS799  TRP800  GLU811  SER814 

> <Gold.Protein.RotatedAtoms>
  152.0834  134.9455  160.0572 H   0  0  0  0  0  0  0  0  0  0  0  0  # atno 6907 bound_to 6896
  152.0735  133.4113  159.4478 H   0  0  0  0  0  0  0  0  0  0  0  0  # atno 6908 bound_to 6896
  150.6836  134.2984  159.4739 H   0  0  0  0  0  0  0  0  0  0  0  0  # atno 6909 bound_to 6896
  146.1924  139.7566  142.8822 H   0  0  0  0  0  0  0  0  0  0  0  0  # atno 7974 bound_to 7965
  155.0964  140.0395  157.2684 H   0  0  0  0  0  0  0  0  0  0  0  0  # atno 8008 bound_to 7997
  154.6792  140.2629  155.6901 H   0  0  0  0  0  0  0  0  0  0  0  0  # atno 8009 bound_to 7997
  156.2688  140.2782  156.1329 H   0  0  0  0  0  0  0  0  0  0  0  0  # atno 8010 bound_to 7997
  140.2390  143.3552  152.0819 H   0  0  0  0  0  0  0  0  0  0  0  0  # atno 10167 bound_to 10162
  157.5357  130.8662  149.8750 H   0  0  0  0  0  0  0  0  0  0  0  0  # atno 10718 bound_to 10713
  153.6673  135.3336  155.3143 H   0  0  0  0  0  0  0  0  0  0  0  0  # atno 10763 bound_to 10752
  154.8500  135.4378  154.1742 H   0  0  0  0  0  0  0  0  0  0  0  0  # atno 10764 bound_to 10752
  153.2724  135.7001  153.7543 H   0  0  0  0  0  0  0  0  0  0  0  0  # atno 10765 bound_to 10752
  141.0798  133.9240  157.2314 H   0  0  0  0  0  0  0  0  0  0  0  0  # atno 11005 bound_to 11000
  145.3751  141.0349  143.3209 LP  0  0  0  0  0  0  0  0  0  0  0  0  # atno 17320 bound_to 7965
  144.8513  139.5318  143.6855 LP  0  0  0  0  0  0  0  0  0  0  0  0  # atno 17321 bound_to 7965
  139.5084  144.6848  151.5914 LP  0  0  0  0  0  0  0  0  0  0  0  0  # atno 17342 bound_to 10162
  140.6128  143.9405  150.6466 LP  0  0  0  0  0  0  0  0  0  0  0  0  # atno 17343 bound_to 10162
  156.0457  130.3728  150.1324 LP  0  0  0  0  0  0  0  0  0  0  0  0  # atno 17370 bound_to 10713
  156.9506  130.9773  151.3499 LP  0  0  0  0  0  0  0  0  0  0  0  0  # atno 17371 bound_to 10713
  139.9611  135.0154  156.9263 LP  0  0  0  0  0  0  0  0  0  0  0  0  # atno 17394 bound_to 11000
  140.5494  134.0642  155.7365 LP  0  0  0  0  0  0  0  0  0  0  0  0  # atno 17395 bound_to 11000

$$$$
