AV-unprocessed.smi:123|AV-procd|sdf|1146|dock10
  -GOLD-   2262018283D 1   1.00000     0.00000
 Structure written by MMmdl.
 43 45  0  0  0  0  0  0  0  0  1 V2000
  152.5890  137.9867  154.5599 C   0  0  0  0  0  0  0  0  0  0  0  0
  151.1147  138.3489  154.7812 C   0  0  1  0  0  0  0  0  0  0  0  0
  150.4221  137.2048  155.3667 N   0  0  0  0  0  0  0  0  0  0  0  0
  149.1345  136.8898  155.1598 C   0  0  0  0  0  0  0  0  0  0  0  0
  148.3911  137.5426  154.4253 O   0  0  0  0  0  0  0  0  0  0  0  0
  148.6248  135.6455  155.9031 C   0  0  0  0  0  0  0  0  0  0  0  0
  148.4156  134.4749  155.0224 N   0  0  0  0  0  0  0  0  0  0  0  0
  149.2773  133.3590  155.1612 C   0  0  0  0  0  0  0  0  0  0  0  0
  150.1722  133.3432  156.0077 O   0  0  0  0  0  0  0  0  0  0  0  0
  149.0362  132.2596  154.2347 C   0  0  0  0  0  0  0  0  0  0  0  0
  149.8140  131.1649  154.2834 F   0  0  0  0  0  0  0  0  0  0  0  0
  148.0445  132.3251  153.3229 C   0  0  0  0  0  0  0  0  0  0  0  0
  147.1971  133.4100  153.2091 N   0  0  0  0  0  0  0  0  0  0  0  0
  146.1484  133.4060  152.1177 C   0  0  1  0  0  0  0  0  0  0  0  0
  146.7253  133.2360  150.7043 C   0  0  0  0  0  0  0  0  0  0  0  0
  145.6434  132.4103  150.0419 C   0  0  0  0  0  0  0  0  0  0  0  0
  145.1651  131.5309  151.1921 C   0  0  0  0  0  0  0  0  0  0  0  0
  145.2490  132.3602  152.3482 O   0  0  0  0  0  0  0  0  0  0  0  0
  147.3890  134.5326  154.0488 C   0  0  0  0  0  0  0  0  0  0  0  0
  146.6904  135.5408  153.9352 O   0  0  0  0  0  0  0  0  0  0  0  0
  150.9568  139.5754  155.6252 C   0  0  0  0  0  0  0  0  0  0  0  0
  151.2106  139.8465  156.9414 C   0  0  0  0  0  0  0  0  0  0  0  0
  150.8422  141.2042  157.1502 C   0  0  0  0  0  0  0  0  0  0  0  0
  150.3856  141.6599  155.9465 C   0  0  0  0  0  0  0  0  0  0  0  0
  150.4448  140.6783  155.0064 O   0  0  0  0  0  0  0  0  0  0  0  0
  153.1241  138.8055  154.0784 H   0  0  0  0  0  0  0  0  0  0  0  0
  152.6867  137.1089  153.9205 H   0  0  0  0  0  0  0  0  0  0  0  0
  153.0922  137.7702  155.5030 H   0  0  0  0  0  0  0  0  0  0  0  0
  150.6777  138.5455  153.8005 H   0  0  0  0  0  0  0  0  0  0  0  0
  150.9595  136.6171  155.9871 H   0  0  0  0  0  0  0  0  0  0  0  0
  149.3258  135.4129  156.7062 H   0  0  0  0  0  0  0  0  0  0  0  0
  147.7035  135.9068  156.4263 H   0  0  0  0  0  0  0  0  0  0  0  0
  147.9133  131.4847  152.6571 H   0  0  0  0  0  0  0  0  0  0  0  0
  145.6032  134.3452  152.2200 H   0  0  0  0  0  0  0  0  0  0  0  0
  146.8868  134.2040  150.2296 H   0  0  0  0  0  0  0  0  0  0  0  0
  147.6687  132.6921  150.7176 H   0  0  0  0  0  0  0  0  0  0  0  0
  144.8324  133.0573  149.7045 H   0  0  0  0  0  0  0  0  0  0  0  0
  146.0039  131.8373  149.1875 H   0  0  0  0  0  0  0  0  0  0  0  0
  144.1510  131.1608  151.0418 H   0  0  0  0  0  0  0  0  0  0  0  0
  145.8213  130.6689  151.3139 H   0  0  0  0  0  0  0  0  0  0  0  0
  151.6151  139.1531  157.6636 H   0  0  0  0  0  0  0  0  0  0  0  0
  150.9030  141.7749  158.0650 H   0  0  0  0  0  0  0  0  0  0  0  0
  149.9996  142.6074  155.6008 H   0  0  0  0  0  0  0  0  0  0  0  0
  1  2  1  0  0  0  0
  1 26  1  0  0  0  0
  1 27  1  0  0  0  0
  1 28  1  0  0  0  0
  2  3  1  0  0  0  0
  2 21  1  0  0  0  0
  2 29  1  0  0  0  0
  3  4  1  0  0  0  0
  3 30  1  0  0  0  0
  4  5  2  0  0  0  0
  4  6  1  0  0  0  0
  6  7  1  0  0  0  0
  6 31  1  0  0  0  0
  6 32  1  0  0  0  0
  7 19  1  0  0  0  0
  7  8  1  0  0  0  0
  8  9  2  0  0  0  0
  8 10  1  0  0  0  0
 10 11  1  0  0  0  0
 10 12  2  0  0  0  0
 12 13  1  0  0  0  0
 12 33  1  0  0  0  0
 13 14  1  0  0  0  0
 13 19  1  0  0  0  0
 14 18  1  0  0  0  0
 14 15  1  0  0  0  0
 14 34  1  0  0  0  0
 15 16  1  0  0  0  0
 15 35  1  0  0  0  0
 15 36  1  0  0  0  0
 16 17  1  0  0  0  0
 16 37  1  0  0  0  0
 16 38  1  0  0  0  0
 17 18  1  0  0  0  0
 17 39  1  0  0  0  0
 17 40  1  0  0  0  0
 19 20  2  0  0  0  0
 21 25  1  0  0  0  0
 21 22  2  0  0  0  0
 22 23  1  0  0  0  0
 22 41  1  0  0  0  0
 23 24  2  0  0  0  0
 23 42  1  0  0  0  0
 24 25  1  0  0  0  0
 24 43  1  0  0  0  0
M  END
> <s_m_source_file>
AV-unprocessed.smi

> <i_m_source_file_index>
123

> <i_lp_mmshare_version>
43012

> <i_f3d_flags>
0

> <s_epik_input>
bzFbY0hdW2NIXVtjSF1jMVtDQEhdKFtDSDNdKVtOSF1DKD1PKVtDSDJdbjJjKD1PKWMoRilbY0hdbihjMj1PKVtDQEBIXTNbQ0gyXVtDSDJdW0NIMl1PMw==

> <s_epik_cmdline>
J2VwaWtfcHl0aG9uJywgJy1waCcsICc3LjAnLCAnLXRuJywgJzgnLCAnLW1hJywgJzIwMCcsICctbWV0YWxfYmluZGluZycsICctaW1hZScsICc8aW5maWxlLm1hZT4nLCAnLW9tYWUnLCAnPG91dGZpbGUubWFlPic=

> <r_lp_tautomer_probability>
1

> <r_epik_Ionization_Penalty>
2.31906e-08

> <r_epik_Ionization_Penalty_Charging>
3.85846e-09

> <r_epik_Ionization_Penalty_Neutral>
1.93321e-08

> <r_epik_State_Penalty>
-0

> <r_epik_Charging_Adjusted_Penalty>
3.85846e-09

> <i_epik_Tot_Q>
0

> <i_epik_Tot_abs_Q>
0

> <r_epik_Metal_State_Penalty>
-0

> <b_epik_Metal_Only>
0

> <s_epik_Chemistry_Notes>
This compound contains an acetal/aminal-like group ( X-CH(R)-Y where X, Y are N, S, or O) that may be acid/base labile, releasing an aldehyde.

> <s_lp_Force_Field>
OPLS_2005

> <r_lp_Energy>
16.2808

> <b_lp_Chiralities_Consistent>
1

> <s_lp_Variant>
AV-unprocessed.smi:123-4

> <Gold.Version>
5.8.1

> <Gold.Id.Protein>
6NUR|6NUR_protein|mol2

> <Gold.PLP.Fitness>
44.5748

> <Gold.PLP.PLP>
-37.2158

> <Gold.PLP.part.hbond>
-1.0000

> <Gold.PLP.part.metal>
0.0000

> <Gold.PLP.part.buried>
-4.1851

> <Gold.PLP.part.nonpolar>
-32.8686

> <Gold.PLP.part.repulsive>
2.2515

> <Gold.PLP.ligand.clash>
0.0000

> <Gold.PLP.ligand.torsion>
0.6800

> <Gold.PLP.Chemscore.Hbond>
0.8960

> <Gold.PLP.Chemscore.CHOScore>
1.9930

> <Gold.PLP.Chemscore.Metal>
0.0000

> <Gold.Chemscore.Hbonds>
donor molecule, donor type, donor heavy atom, donor atom, acceptor molecule, acceptor atom, score
      P1  H  7989  7998       L1    25  0.90
      L1  C    12    33       P1 10747  0.64
      L1  C    24    43       P1  8028  1.00

> <Gold.PLP.Chemscore.Internal.Correction>
0.0518

> <Gold.Rescore>
     Score         DG    S(hbond)    S(metal)    S(lipo)     H(rot)  DE(clash)    DE(int)     intcor
      8.16     -11.81       0.89        0.00      77.54       2.23       1.37       2.28       ----

> <Gold.Chemscore.Fitness>
8.1629

> <Gold.Chemscore.DG>
-11.8144

> <Gold.Chemscore.ZeroCoef>
-5.4800

> <Gold.Chemscore.Hbond>
0.8930

> <Gold.Chemscore.Metal>
0.0000

> <Gold.Chemscore.Lipo>
77.5445

> <Gold.Chemscore.Internal_Hbond>
0.0000

> <Gold.Chemscore.DEClash>
1.3740

> <Gold.Chemscore.DEInternal>
2.2775

> <Gold.Chemscore.Rot>
2.2347

> <Gold.Chemscore.Internal.Correction>
   9.000000E+99

> <Gold.Chemscore.Hbonds>
donor molecule, donor type, donor heavy atom, donor atom, acceptor molecule, acceptor atom, score
      P1  H  7989  7998       L1    25  0.34

> <Gold.Chemscore.Hbond.Weighted>
-2.9825

> <Gold.Chemscore.Metal.Weighted>
-0.0000

> <Gold.Chemscore.Lipo.Weighted>
-9.0727

> <Gold.Chemscore.Internal_Hbond.Weighted>
0.0000

> <Gold.Chemscore.DEClash.Weighted>
1.3740

> <Gold.Chemscore.DEInternal.Weighted>
2.2775

> <Gold.Chemscore.Rot.Weighted>
5.7208

> <Gold.Chemscore.Internal.Correction.Weighted>
   9.000000E+99

> <Gold.Protein.RotatedTorsions>
[ 6907 6896 6895 6894 ] final -166.36 input  -60.11 | X-H torsion
[ 7974 7965 7964 7962 ] final   88.21 input  175.53 | X-H torsion
[ 8008 7997 7996 7995 ] final   14.10 input   59.86 | X-H torsion
[ 10167 10162 10161 10158 ] final  175.73 input  -65.29 | X-H torsion
[ 10718 10713 10712 10709 ] final   50.03 input   66.30 | X-H torsion
[ 10763 10752 10751 10750 ] final   90.72 input  -60.55 | X-H torsion
[ 11005 11000 10999 10996 ] final   19.15 input  -57.11 | X-H torsion

> <Gold.Protein.ActiveResidues>
 VAL166  LYS551  ARG553  GLY616  TRP617  ASP618  TYR619  PRO620  LYS621  CYS622 
 ASP623  PHE694  ASN695  SER759  ASP760  ASP761  ALA762  ILE779  LEU786  VAL792 
 PHE793  MET794  SER795  GLU796  ALA797  LYS798  CYS799  TRP800  GLU811  SER814 

> <Gold.Protein.RotatedAtoms>
  151.4424  133.3639  159.2783 H   0  0  0  0  0  0  0  0  0  0  0  0  # atno 6907 bound_to 6896
  150.9148  134.8567  159.7460 H   0  0  0  0  0  0  0  0  0  0  0  0  # atno 6908 bound_to 6896
  152.4951  134.4357  159.9579 H   0  0  0  0  0  0  0  0  0  0  0  0  # atno 6909 bound_to 6896
  145.5487  139.2294  143.2525 H   0  0  0  0  0  0  0  0  0  0  0  0  # atno 7974 bound_to 7965
  154.8437  140.2918  155.5643 H   0  0  0  0  0  0  0  0  0  0  0  0  # atno 8008 bound_to 7997
  156.3013  140.2509  156.3315 H   0  0  0  0  0  0  0  0  0  0  0  0  # atno 8009 bound_to 7997
  154.9097  140.0389  157.1929 H   0  0  0  0  0  0  0  0  0  0  0  0  # atno 8010 bound_to 7997
  139.5188  144.2998  152.0389 H   0  0  0  0  0  0  0  0  0  0  0  0  # atno 10167 bound_to 10162
  157.4845  130.8336  149.8131 H   0  0  0  0  0  0  0  0  0  0  0  0  # atno 10718 bound_to 10713
  153.2005  135.4424  155.0261 H   0  0  0  0  0  0  0  0  0  0  0  0  # atno 10763 bound_to 10752
  154.8144  135.3308  154.7219 H   0  0  0  0  0  0  0  0  0  0  0  0  # atno 10764 bound_to 10752
  153.7665  135.6988  153.4970 H   0  0  0  0  0  0  0  0  0  0  0  0  # atno 10765 bound_to 10752
  140.4169  134.1559  155.7670 H   0  0  0  0  0  0  0  0  0  0  0  0  # atno 11005 bound_to 11000
  146.1931  140.6309  142.9136 LP  0  0  0  0  0  0  0  0  0  0  0  0  # atno 17320 bound_to 7965
  144.7540  140.5262  143.6782 LP  0  0  0  0  0  0  0  0  0  0  0  0  # atno 17321 bound_to 7965
  140.2446  144.4233  150.6246 LP  0  0  0  0  0  0  0  0  0  0  0  0  # atno 17342 bound_to 10162
  140.6267  143.2182  151.6582 LP  0  0  0  0  0  0  0  0  0  0  0  0  # atno 17343 bound_to 10162
  156.0139  130.3821  150.2174 LP  0  0  0  0  0  0  0  0  0  0  0  0  # atno 17370 bound_to 10713
  157.0361  131.0021  151.3298 LP  0  0  0  0  0  0  0  0  0  0  0  0  # atno 17371 bound_to 10713
  141.1799  133.8435  157.1293 LP  0  0  0  0  0  0  0  0  0  0  0  0  # atno 17394 bound_to 11000
  140.0227  134.9938  157.0625 LP  0  0  0  0  0  0  0  0  0  0  0  0  # atno 17395 bound_to 11000

$$$$
