AV-unprocessed.smi:2357|AV-procd|sdf|9401|dock7
  -GOLD-   2272013 33D 1   1.00000     0.00000
 Structure written by MMmdl.
 37 38  0  0  0  0  0  0  0  0  1 V2000
  149.3641  143.5825  156.8350 C   0  0  0  0  0  0  0  0  0  0  0  0
  149.9097  142.2343  156.4021 C   0  0  0  0  0  0  0  0  0  0  0  0
  149.5386  141.6798  155.1166 C   0  0  0  0  0  0  0  0  0  0  0  0
  150.0367  140.4907  154.7455 C   0  0  0  0  0  0  0  0  0  0  0  0
  150.9095  139.7603  155.5708 N   0  0  0  0  0  0  0  0  0  0  0  0
  151.4118  138.4768  155.0540 C   0  0  0  0  0  0  0  0  0  0  0  0
  150.8961  137.2890  155.8755 C   0  0  0  0  0  0  0  0  0  0  0  0
  151.3232  137.0907  157.0131 O   0  0  0  0  0  0  0  0  0  0  0  0
  149.9797  136.5098  155.2829 N   0  0  0  0  0  0  0  0  0  0  0  0
  149.2827  135.3962  155.9184 C   0  0  0  0  0  0  0  0  0  0  0  0
  149.3657  134.0913  155.0980 C   0  0  2  0  0  0  0  0  0  0  0  0
  148.1745  133.7979  154.1778 C   0  0  0  0  0  0  0  0  0  0  0  0
  148.2265  132.2901  154.0806 C   0  0  0  0  0  0  0  0  0  0  0  0
  148.6344  131.9062  155.4986 C   0  0  0  0  0  0  0  0  0  0  0  0
  149.4961  132.9493  155.9432 O   0  0  0  0  0  0  0  0  0  0  0  0
  151.2972  140.2183  156.7997 C   0  0  0  0  0  0  0  0  0  0  0  0
  152.0578  139.5704  157.5220 O   0  0  0  0  0  0  0  0  0  0  0  0
  150.7505  141.5262  157.1937 C   0  0  0  0  0  0  0  0  0  0  0  0
  151.1672  142.0095  158.4708 C   0  0  0  0  0  0  0  0  0  0  0  0
  151.5066  142.3821  159.5129 N   0  0  0  0  0  0  0  0  0  0  0  0
  148.7222  144.0137  156.0663 H   0  0  0  0  0  0  0  0  0  0  0  0
  150.1795  144.2810  157.0245 H   0  0  0  0  0  0  0  0  0  0  0  0
  148.7771  143.4804  157.7481 H   0  0  0  0  0  0  0  0  0  0  0  0
  148.8726  142.2168  154.4569 H   0  0  0  0  0  0  0  0  0  0  0  0
  149.8054  140.0303  153.7960 H   0  0  0  0  0  0  0  0  0  0  0  0
  151.1350  138.3614  154.0042 H   0  0  0  0  0  0  0  0  0  0  0  0
  152.5021  138.4511  155.0676 H   0  0  0  0  0  0  0  0  0  0  0  0
  149.6990  136.7422  154.3411 H   0  0  0  0  0  0  0  0  0  0  0  0
  149.7430  135.2370  156.8939 H   0  0  0  0  0  0  0  0  0  0  0  0
  148.2412  135.6581  156.1120 H   0  0  0  0  0  0  0  0  0  0  0  0
  150.2701  134.1202  154.4886 H   0  0  0  0  0  0  0  0  0  0  0  0
  147.2279  134.0944  154.6303 H   0  0  0  0  0  0  0  0  0  0  0  0
  148.2557  134.2914  153.2089 H   0  0  0  0  0  0  0  0  0  0  0  0
  147.2789  131.8459  153.7744 H   0  0  0  0  0  0  0  0  0  0  0  0
  148.9963  131.9846  153.3704 H   0  0  0  0  0  0  0  0  0  0  0  0
  147.7612  131.8761  156.1511 H   0  0  0  0  0  0  0  0  0  0  0  0
  149.1254  130.9341  155.5454 H   0  0  0  0  0  0  0  0  0  0  0  0
  1  2  1  0  0  0  0
  1 21  1  0  0  0  0
  1 22  1  0  0  0  0
  1 23  1  0  0  0  0
  2 18  2  0  0  0  0
  2  3  1  0  0  0  0
  3  4  2  0  0  0  0
  3 24  1  0  0  0  0
  4  5  1  0  0  0  0
  4 25  1  0  0  0  0
  5  6  1  0  0  0  0
  5 16  1  0  0  0  0
  6  7  1  0  0  0  0
  6 26  1  0  0  0  0
  6 27  1  0  0  0  0
  7  8  2  0  0  0  0
  7  9  1  0  0  0  0
  9 10  1  0  0  0  0
  9 28  1  0  0  0  0
 10 11  1  0  0  0  0
 10 29  1  0  0  0  0
 10 30  1  0  0  0  0
 11 15  1  0  0  0  0
 11 12  1  0  0  0  0
 11 31  1  0  0  0  0
 12 13  1  0  0  0  0
 12 32  1  0  0  0  0
 12 33  1  0  0  0  0
 13 14  1  0  0  0  0
 13 34  1  0  0  0  0
 13 35  1  0  0  0  0
 14 15  1  0  0  0  0
 14 36  1  0  0  0  0
 14 37  1  0  0  0  0
 16 17  2  0  0  0  0
 16 18  1  0  0  0  0
 18 19  1  0  0  0  0
 19 20  3  0  0  0  0
M  END
> <s_m_source_file>
AV-unprocessed.smi

> <i_m_source_file_index>
2357

> <i_lp_mmshare_version>
43012

> <i_f3d_flags>
0

> <s_epik_input>
W0NIM11jMVtjSF1bY0hdbihjKD1PKWMxQyNOKVtDSDJdQyg9TylbTkhdW0NIMl1bQ0BASF0yW0NIMl1bQ0gyXVtDSDJdTzI=

> <s_epik_cmdline>
J2VwaWtfcHl0aG9uJywgJy1waCcsICc3LjAnLCAnLXRuJywgJzgnLCAnLW1hJywgJzIwMCcsICctbWV0YWxfYmluZGluZycsICctaW1hZScsICc8aW5maWxlLm1hZT4nLCAnLW9tYWUnLCAnPG91dGZpbGUubWFlPic=

> <r_lp_tautomer_probability>
1

> <r_epik_Ionization_Penalty>
2.71597e-08

> <r_epik_Ionization_Penalty_Charging>
3.00645e-10

> <r_epik_Ionization_Penalty_Neutral>
2.6859e-08

> <r_epik_State_Penalty>
-0

> <r_epik_Charging_Adjusted_Penalty>
3.00645e-10

> <i_epik_Tot_Q>
0

> <i_epik_Tot_abs_Q>
0

> <r_epik_Metal_State_Penalty>
-0

> <b_epik_Metal_Only>
0

> <s_lp_Force_Field>
OPLS_2005

> <r_lp_Energy>
27.3681

> <b_lp_Chiralities_Consistent>
1

> <s_lp_Variant>
AV-unprocessed.smi:2357-1

> <Gold.Version>
5.8.1

> <Gold.Id.Protein>
6NUR|6NUR_protein|mol2

> <Gold.PLP.Fitness>
45.5661

> <Gold.PLP.PLP>
-35.0242

> <Gold.PLP.part.hbond>
-3.6192

> <Gold.PLP.part.metal>
0.0000

> <Gold.PLP.part.buried>
2.9226

> <Gold.PLP.part.nonpolar>
-33.4435

> <Gold.PLP.part.repulsive>
0.1152

> <Gold.PLP.ligand.clash>
0.0000

> <Gold.PLP.ligand.torsion>
0.6951

> <Gold.PLP.Chemscore.Hbond>
2.9760

> <Gold.PLP.Chemscore.CHOScore>
1.0000

> <Gold.PLP.Chemscore.Metal>
0.0000

> <Gold.Chemscore.Hbonds>
donor molecule, donor type, donor heavy atom, donor atom, acceptor molecule, acceptor atom, score
      L1  C     4    25       P1  7957  0.72

> <Gold.PLP.Chemscore.Internal.Correction>
0.0041

> <Gold.Rescore>
     Score         DG    S(hbond)    S(metal)    S(lipo)     H(rot)  DE(clash)    DE(int)     intcor
     10.83     -14.03       1.50        0.00      68.81       1.76       0.11       3.09       ----

> <Gold.Chemscore.Fitness>
10.8300

> <Gold.Chemscore.DG>
-14.0278

> <Gold.Chemscore.ZeroCoef>
-5.4800

> <Gold.Chemscore.Hbond>
1.4961

> <Gold.Chemscore.Metal>
0.0000

> <Gold.Chemscore.Lipo>
68.8093

> <Gold.Chemscore.Internal_Hbond>
0.0000

> <Gold.Chemscore.DEClash>
0.1117

> <Gold.Chemscore.DEInternal>
3.0861

> <Gold.Chemscore.Rot>
1.7577

> <Gold.Chemscore.Internal.Correction>
   9.000000E+99

> <Gold.Chemscore.Hbond.Weighted>
-4.9969

> <Gold.Chemscore.Metal.Weighted>
-0.0000

> <Gold.Chemscore.Lipo.Weighted>
-8.0507

> <Gold.Chemscore.Internal_Hbond.Weighted>
0.0000

> <Gold.Chemscore.DEClash.Weighted>
0.1117

> <Gold.Chemscore.DEInternal.Weighted>
3.0861

> <Gold.Chemscore.Rot.Weighted>
4.4998

> <Gold.Chemscore.Internal.Correction.Weighted>
   9.000000E+99

> <Gold.Protein.RotatedTorsions>
[ 6907 6896 6895 6894 ] final -164.46 input  -60.11 | X-H torsion
[ 7974 7965 7964 7962 ] final   78.76 input  175.53 | X-H torsion
[ 8008 7997 7996 7995 ] final   52.48 input   59.86 | X-H torsion
[ 10167 10162 10161 10158 ] final  175.74 input  -65.29 | X-H torsion
[ 10718 10713 10712 10709 ] final   32.36 input   66.30 | X-H torsion
[ 10763 10752 10751 10750 ] final  -30.97 input  -60.55 | X-H torsion
[ 11005 11000 10999 10996 ] final  102.89 input  -57.11 | X-H torsion

> <Gold.Protein.ActiveResidues>
 VAL166  LYS551  ARG553  GLY616  TRP617  ASP618  TYR619  PRO620  LYS621  CYS622 
 ASP623  PHE694  ASN695  SER759  ASP760  ASP761  ALA762  ILE779  LEU786  VAL792 
 PHE793  MET794  SER795  GLU796  ALA797  LYS798  CYS799  TRP800  GLU811  SER814 

> <Gold.Protein.RotatedAtoms>
  151.4122  133.3724  159.2745 H   0  0  0  0  0  0  0  0  0  0  0  0  # atno 6907 bound_to 6896
  150.9355  134.8769  159.7589 H   0  0  0  0  0  0  0  0  0  0  0  0  # atno 6908 bound_to 6896
  152.5048  134.4069  159.9487 H   0  0  0  0  0  0  0  0  0  0  0  0  # atno 6909 bound_to 6896
  145.6730  139.2502  143.1857 H   0  0  0  0  0  0  0  0  0  0  0  0  # atno 7974 bound_to 7965
  155.4525  140.3459  155.4302 H   0  0  0  0  0  0  0  0  0  0  0  0  # atno 8008 bound_to 7997
  156.1211  140.1487  156.9233 H   0  0  0  0  0  0  0  0  0  0  0  0  # atno 8009 bound_to 7997
  154.4824  140.0865  156.7388 H   0  0  0  0  0  0  0  0  0  0  0  0  # atno 8010 bound_to 7997
  139.5188  144.2997  152.0390 H   0  0  0  0  0  0  0  0  0  0  0  0  # atno 10167 bound_to 10162
  157.2842  130.7270  149.6574 H   0  0  0  0  0  0  0  0  0  0  0  0  # atno 10718 bound_to 10713
  153.7896  135.6899  153.4874 H   0  0  0  0  0  0  0  0  0  0  0  0  # atno 10763 bound_to 10752
  153.1758  135.4525  154.9961 H   0  0  0  0  0  0  0  0  0  0  0  0  # atno 10764 bound_to 10752
  154.8049  135.3353  154.7393 H   0  0  0  0  0  0  0  0  0  0  0  0  # atno 10765 bound_to 10752
  139.8780  134.9242  156.5126 H   0  0  0  0  0  0  0  0  0  0  0  0  # atno 11005 bound_to 11000
  146.1029  140.7522  142.9540 LP  0  0  0  0  0  0  0  0  0  0  0  0  # atno 17320 bound_to 7965
  144.7050  140.3816  143.7125 LP  0  0  0  0  0  0  0  0  0  0  0  0  # atno 17321 bound_to 7965
  140.2445  144.4235  150.6246 LP  0  0  0  0  0  0  0  0  0  0  0  0  # atno 17342 bound_to 10162
  140.6268  143.2182  151.6580 LP  0  0  0  0  0  0  0  0  0  0  0  0  # atno 17343 bound_to 10162
  155.9665  130.4328  150.4981 LP  0  0  0  0  0  0  0  0  0  0  0  0  # atno 17370 bound_to 10713
  157.2931  131.0630  151.2120 LP  0  0  0  0  0  0  0  0  0  0  0  0  # atno 17371 bound_to 10713
  140.8509  133.8133  155.9167 LP  0  0  0  0  0  0  0  0  0  0  0  0  # atno 17394 bound_to 11000
  140.9145  134.2218  157.4965 LP  0  0  0  0  0  0  0  0  0  0  0  0  # atno 17395 bound_to 11000

$$$$
