AV-unprocessed.smi:1108|AV-procd|sdf|4788|dock6
  -GOLD-   22720 3333D 1   1.00000     0.00000
 Structure written by MMmdl.
 31 32  0  0  0  0  0  0  0  0  1 V2000
  148.6445  141.4849  155.2031 C   0  0  0  0  0  0  0  0  0  0  0  0
  149.6013  141.4249  156.4017 C   0  0  1  0  0  0  0  0  0  0  0  0
  151.0522  141.1539  155.9476 C   0  0  0  0  0  0  0  0  0  0  0  0
  151.2592  139.7843  155.5113 N   0  0  0  0  0  0  0  0  0  0  0  0
  151.7752  138.7254  156.2286 C   0  0  0  0  0  0  0  0  0  0  0  0
  151.7608  137.6340  155.4085 C   0  0  0  0  0  0  0  0  0  0  0  0
  151.2167  138.1330  154.1920 C   0  0  0  0  0  0  0  0  0  0  0  0
  150.9224  139.4216  154.2548 N   0  0  0  0  0  0  0  0  0  0  0  0
  149.5140  142.6832  157.1426 N   0  0  0  0  0  0  0  0  0  0  0  0
  150.1774  142.9730  158.2718 C   0  0  0  0  0  0  0  0  0  0  0  0
  150.9394  142.1948  158.8457 O   0  0  0  0  0  0  0  0  0  0  0  0
  149.9220  144.2196  158.6900 N   0  0  0  0  0  0  0  0  0  0  0  0
  150.4918  144.8351  159.8447 C   0  0  0  0  0  0  0  0  0  0  0  0
  151.6797  145.7501  159.6394 C   0  0  0  0  0  0  0  0  0  0  0  0
  151.8780  144.3964  160.2637 C   0  0  0  0  0  0  0  0  0  0  0  0
  148.6576  140.5483  154.6446 H   0  0  0  0  0  0  0  0  0  0  0  0
  148.9168  142.2860  154.5151 H   0  0  0  0  0  0  0  0  0  0  0  0
  147.6181  141.6580  155.5281 H   0  0  0  0  0  0  0  0  0  0  0  0
  149.2712  140.5987  157.0344 H   0  0  0  0  0  0  0  0  0  0  0  0
  151.3159  141.8132  155.1193 H   0  0  0  0  0  0  0  0  0  0  0  0
  151.7531  141.3736  156.7541 H   0  0  0  0  0  0  0  0  0  0  0  0
  152.0984  138.8344  157.2534 H   0  0  0  0  0  0  0  0  0  0  0  0
  152.0876  136.6319  155.6424 H   0  0  0  0  0  0  0  0  0  0  0  0
  151.0289  137.6012  153.2709 H   0  0  0  0  0  0  0  0  0  0  0  0
  148.9113  143.3938  156.7544 H   0  0  0  0  0  0  0  0  0  0  0  0
  149.2806  144.7794  158.1478 H   0  0  0  0  0  0  0  0  0  0  0  0
  149.8130  145.1097  160.6508 H   0  0  0  0  0  0  0  0  0  0  0  0
  152.0442  145.8926  158.6237 H   0  0  0  0  0  0  0  0  0  0  0  0
  151.7599  146.6197  160.2886 H   0  0  0  0  0  0  0  0  0  0  0  0
  152.0903  144.3608  161.3304 H   0  0  0  0  0  0  0  0  0  0  0  0
  152.3735  143.6341  159.6653 H   0  0  0  0  0  0  0  0  0  0  0  0
  1  2  1  0  0  0  0
  1 16  1  0  0  0  0
  1 17  1  0  0  0  0
  1 18  1  0  0  0  0
  2  3  1  0  0  0  0
  2  9  1  0  0  0  0
  2 19  1  0  0  0  0
  3  4  1  0  0  0  0
  3 20  1  0  0  0  0
  3 21  1  0  0  0  0
  4  8  1  0  0  0  0
  4  5  1  0  0  0  0
  5  6  2  0  0  0  0
  5 22  1  0  0  0  0
  6  7  1  0  0  0  0
  6 23  1  0  0  0  0
  7  8  2  0  0  0  0
  7 24  1  0  0  0  0
  9 10  1  0  0  0  0
  9 25  1  0  0  0  0
 10 11  2  0  0  0  0
 10 12  1  0  0  0  0
 12 13  1  0  0  0  0
 12 26  1  0  0  0  0
 13 15  1  0  0  0  0
 13 14  1  0  0  0  0
 13 27  1  0  0  0  0
 14 15  1  0  0  0  0
 14 28  1  0  0  0  0
 14 29  1  0  0  0  0
 15 30  1  0  0  0  0
 15 31  1  0  0  0  0
M  END
> <s_m_source_file>
AV-unprocessed.smi

> <i_m_source_file_index>
1108

> <i_lp_mmshare_version>
43012

> <i_f3d_flags>
0

> <s_epik_input>
W0NIMl0xW0NIMl1bQ0hdMVtOSF1DKD1PKVtOSF1bQ0BIXShbQ0gzXSlbQ0gyXW4yW2NIXVtjSF1bY0hdbjI=

> <s_epik_cmdline>
J2VwaWtfcHl0aG9uJywgJy1waCcsICc3LjAnLCAnLXRuJywgJzgnLCAnLW1hJywgJzIwMCcsICctbWV0YWxfYmluZGluZycsICctaW1hZScsICc8aW5maWxlLm1hZT4nLCAnLW9tYWUnLCAnPG91dGZpbGUubWFlPic=

> <r_lp_tautomer_probability>
1

> <r_epik_Ionization_Penalty>
7.55353e-05

> <r_epik_Ionization_Penalty_Charging>
0

> <r_epik_Ionization_Penalty_Neutral>
7.55353e-05

> <r_epik_State_Penalty>
-0

> <r_epik_Charging_Adjusted_Penalty>
0

> <i_epik_Tot_Q>
0

> <i_epik_Tot_abs_Q>
0

> <r_epik_Metal_State_Penalty>
-0

> <b_epik_Metal_Only>
0

> <s_lp_Force_Field>
OPLS_2005

> <r_lp_Energy>
13.7301

> <b_lp_Chiralities_Consistent>
1

> <s_lp_Variant>
AV-unprocessed.smi:1108-2

> <Gold.Version>
5.8.1

> <Gold.Id.Protein>
6NUR|6NUR_protein|mol2

> <Gold.PLP.Fitness>
42.2404

> <Gold.PLP.PLP>
-31.5319

> <Gold.PLP.part.hbond>
-3.5037

> <Gold.PLP.part.metal>
0.0000

> <Gold.PLP.part.buried>
-4.2403

> <Gold.PLP.part.nonpolar>
-24.6388

> <Gold.PLP.part.repulsive>
0.2962

> <Gold.PLP.ligand.clash>
0.0000

> <Gold.PLP.ligand.torsion>
0.7602

> <Gold.PLP.Chemscore.Hbond>
3.0000

> <Gold.PLP.Chemscore.CHOScore>
1.0614

> <Gold.PLP.Chemscore.Metal>
0.0000

> <Gold.Chemscore.Hbonds>
donor molecule, donor type, donor heavy atom, donor atom, acceptor molecule, acceptor atom, score
      L1  H     9    25       P1  8028  0.88
      L1  H    12    26       P1  8029  1.00
      P1  H  7989  7998       L1     8  0.75
      L1  C     7    24       P1  7948  0.07
      L1  C     7    24       P1  7949  1.00

> <Gold.PLP.Chemscore.Internal.Correction>
0.0449

> <Gold.Rescore>
     Score         DG    S(hbond)    S(metal)    S(lipo)     H(rot)  DE(clash)    DE(int)     intcor
     14.88     -16.93       2.27        0.00      70.50       1.71       0.03       2.01       ----

> <Gold.Chemscore.Fitness>
14.8849

> <Gold.Chemscore.DG>
-16.9262

> <Gold.Chemscore.ZeroCoef>
-5.4800

> <Gold.Chemscore.Hbond>
2.2663

> <Gold.Chemscore.Metal>
0.0000

> <Gold.Chemscore.Lipo>
70.4966

> <Gold.Chemscore.Internal_Hbond>
0.0000

> <Gold.Chemscore.DEClash>
0.0343

> <Gold.Chemscore.DEInternal>
2.0069

> <Gold.Chemscore.Rot>
1.7075

> <Gold.Chemscore.Internal.Correction>
   9.000000E+99

> <Gold.Chemscore.Hbonds>
donor molecule, donor type, donor heavy atom, donor atom, acceptor molecule, acceptor atom, score
      L1  H     9    25       P1  8028  0.71
      L1  H    12    26       P1  8029  0.25
      P1  H  7989  7998       L1     8  0.09

> <Gold.Chemscore.Hbond.Weighted>
-7.5694

> <Gold.Chemscore.Metal.Weighted>
-0.0000

> <Gold.Chemscore.Lipo.Weighted>
-8.2481

> <Gold.Chemscore.Internal_Hbond.Weighted>
0.0000

> <Gold.Chemscore.DEClash.Weighted>
0.0343

> <Gold.Chemscore.DEInternal.Weighted>
2.0069

> <Gold.Chemscore.Rot.Weighted>
4.3713

> <Gold.Chemscore.Internal.Correction.Weighted>
   9.000000E+99

> <Gold.Protein.RotatedTorsions>
[ 6907 6896 6895 6894 ] final  -57.02 input  -60.11 | X-H torsion
[ 7974 7965 7964 7962 ] final  -41.68 input  175.53 | X-H torsion
[ 8008 7997 7996 7995 ] final  140.10 input   59.86 | X-H torsion
[ 10167 10162 10161 10158 ] final  -87.24 input  -65.29 | X-H torsion
[ 10718 10713 10712 10709 ] final -127.91 input   66.30 | X-H torsion
[ 10763 10752 10751 10750 ] final -151.32 input  -60.55 | X-H torsion
[ 11005 11000 10999 10996 ] final -153.40 input  -57.11 | X-H torsion

> <Gold.Protein.ActiveResidues>
 VAL166  LYS551  ARG553  GLY616  TRP617  ASP618  TYR619  PRO620  LYS621  CYS622 
 ASP623  PHE694  ASN695  SER759  ASP760  ASP761  ALA762  ILE779  LEU786  VAL792 
 PHE793  MET794  SER795  GLU796  ALA797  LYS798  CYS799  TRP800  GLU811  SER814 

> <Gold.Protein.RotatedAtoms>
  150.8120  134.7279  159.6695 H   0  0  0  0  0  0  0  0  0  0  0  0  # atno 6907 bound_to 6896
  152.4239  134.5901  159.9981 H   0  0  0  0  0  0  0  0  0  0  0  0  # atno 6908 bound_to 6896
  151.6108  133.3310  159.3103 H   0  0  0  0  0  0  0  0  0  0  0  0  # atno 6909 bound_to 6896
  146.0188  140.6875  142.9188 H   0  0  0  0  0  0  0  0  0  0  0  0  # atno 7974 bound_to 7965
  156.2983  140.2350  156.4345 H   0  0  0  0  0  0  0  0  0  0  0  0  # atno 8008 bound_to 7997
  154.8241  140.0436  157.1451 H   0  0  0  0  0  0  0  0  0  0  0  0  # atno 8009 bound_to 7997
  154.9282  140.3013  155.5185 H   0  0  0  0  0  0  0  0  0  0  0  0  # atno 8010 bound_to 7997
  140.3864  143.2725  151.9319 H   0  0  0  0  0  0  0  0  0  0  0  0  # atno 10167 bound_to 10162
  156.1901  130.6789  151.0413 H   0  0  0  0  0  0  0  0  0  0  0  0  # atno 10718 bound_to 10713
  154.8065  135.3263  154.7417 H   0  0  0  0  0  0  0  0  0  0  0  0  # atno 10763 bound_to 10752
  153.8075  135.6898  153.4850 H   0  0  0  0  0  0  0  0  0  0  0  0  # atno 10764 bound_to 10752
  153.1814  135.4585  154.9978 H   0  0  0  0  0  0  0  0  0  0  0  0  # atno 10765 bound_to 10752
  140.7086  134.3858  157.5201 H   0  0  0  0  0  0  0  0  0  0  0  0  # atno 11005 bound_to 11000
  144.6981  140.3529  143.7178 LP  0  0  0  0  0  0  0  0  0  0  0  0  # atno 17320 bound_to 7965
  145.7226  139.1714  143.2476 LP  0  0  0  0  0  0  0  0  0  0  0  0  # atno 17321 bound_to 7965
  139.4792  144.5769  151.7996 LP  0  0  0  0  0  0  0  0  0  0  0  0  # atno 17342 bound_to 10162
  140.4885  144.1346  150.5945 LP  0  0  0  0  0  0  0  0  0  0  0  0  # atno 17343 bound_to 10162
  157.6923  131.0806  150.7070 LP  0  0  0  0  0  0  0  0  0  0  0  0  # atno 17370 bound_to 10713
  156.7127  130.4656  149.5543 LP  0  0  0  0  0  0  0  0  0  0  0  0  # atno 17371 bound_to 10713
  139.8878  134.8874  156.2511 LP  0  0  0  0  0  0  0  0  0  0  0  0  # atno 17394 bound_to 11000
  141.0104  133.7099  156.1102 LP  0  0  0  0  0  0  0  0  0  0  0  0  # atno 17395 bound_to 11000

$$$$
