AV-unprocessed.smi:832|AV-procd|sdf|3878|dock4
  -GOLD-   22720 1333D 1   1.00000     0.00000
 Structure written by MMmdl.
 42 43  0  0  0  0  0  0  0  0  2 V2000
  150.8009  142.1233  156.5322 C   0  0  0  0  0  0  0  0  0  0  0  0
  150.5161  140.9617  155.6430 C   0  0  0  0  0  0  0  0  0  0  0  0
  149.3612  140.4520  155.1198 C   0  0  0  0  0  0  0  0  0  0  0  0
  149.8174  139.3435  154.3582 C   0  0  0  0  0  0  0  0  0  0  0  0
  148.9059  138.5327  153.6346 N   0  0  0  0  0  0  0  0  0  0  0  0
  147.5661  138.6340  153.6051 C   0  0  0  0  0  0  0  0  0  0  0  0
  146.9059  139.4854  154.2013 O   0  0  0  0  0  0  0  0  0  0  0  0
  147.0212  137.6808  152.8347 N   0  0  0  0  0  0  0  0  0  0  0  0
  145.5908  137.4858  152.6164 C   0  0  0  0  0  0  0  0  0  0  0  0
  145.2954  136.2177  151.7924 C   0  0  2  0  0  0  0  0  0  0  0  0
  143.8232  135.8182  151.7108 C   0  0  0  0  0  0  0  0  0  0  0  0
  143.8996  134.3362  151.3644 C   0  0  0  0  0  0  0  0  0  0  0  0
  145.0472  133.8184  152.1417 N   0  3  1  0  0  0  0  0  0  0  0  0
  145.6663  132.5649  151.6245 C   0  0  0  0  0  0  0  0  0  0  0  0
  146.8388  132.0990  152.5092 C   0  0  0  0  0  0  0  0  0  0  0  0
  146.1604  132.7468  150.1766 C   0  0  0  0  0  0  0  0  0  0  0  0
  145.9836  134.9554  152.3377 C   0  0  0  0  0  0  0  0  0  0  0  0
  151.1312  139.1875  154.4153 N   0  0  0  0  0  0  0  0  0  0  0  0
  151.5857  140.2241  155.2390 O   0  0  0  0  0  0  0  0  0  0  0  0
  149.8937  142.6941  156.7307 H   0  0  0  0  0  0  0  0  0  0  0  0
  151.5276  142.7932  156.0723 H   0  0  0  0  0  0  0  0  0  0  0  0
  151.2056  141.7879  157.4872 H   0  0  0  0  0  0  0  0  0  0  0  0
  148.3548  140.8181  155.2588 H   0  0  0  0  0  0  0  0  0  0  0  0
  149.3185  137.7853  153.0963 H   0  0  0  0  0  0  0  0  0  0  0  0
  147.6420  137.0261  152.3814 H   0  0  0  0  0  0  0  0  0  0  0  0
  145.1180  137.4011  153.5952 H   0  0  0  0  0  0  0  0  0  0  0  0
  145.1481  138.3638  152.1424 H   0  0  0  0  0  0  0  0  0  0  0  0
  145.6515  136.3735  150.7723 H   0  0  0  0  0  0  0  0  0  0  0  0
  143.3381  135.9473  152.6795 H   0  0  0  0  0  0  0  0  0  0  0  0
  143.2653  136.3958  150.9728 H   0  0  0  0  0  0  0  0  0  0  0  0
  142.9753  133.8098  151.6040 H   0  0  0  0  0  0  0  0  0  0  0  0
  144.0926  134.2198  150.2965 H   0  0  0  0  0  0  0  0  0  0  0  0
  144.9054  131.7826  151.6332 H   0  0  0  0  0  0  0  0  0  0  0  0
  147.3102  131.2080  152.0930 H   0  0  0  0  0  0  0  0  0  0  0  0
  146.5154  131.8404  153.5175 H   0  0  0  0  0  0  0  0  0  0  0  0
  147.6064  132.8694  152.5898 H   0  0  0  0  0  0  0  0  0  0  0  0
  146.6332  131.8358  149.8083 H   0  0  0  0  0  0  0  0  0  0  0  0
  146.8954  133.5496  150.1076 H   0  0  0  0  0  0  0  0  0  0  0  0
  145.3483  132.9804  149.4886 H   0  0  0  0  0  0  0  0  0  0  0  0
  146.9339  134.8040  151.8241 H   0  0  0  0  0  0  0  0  0  0  0  0
  146.1957  135.0416  153.4041 H   0  0  0  0  0  0  0  0  0  0  0  0
  144.6800  133.6055  153.0583 H   0  0  0  0  0  0  0  0  0  0  0  0
  1  2  1  0  0  0  0
  1 20  1  0  0  0  0
  1 21  1  0  0  0  0
  1 22  1  0  0  0  0
  2 19  1  0  0  0  0
  2  3  2  0  0  0  0
  3  4  1  0  0  0  0
  3 23  1  0  0  0  0
  4  5  1  0  0  0  0
  4 18  2  0  0  0  0
  5  6  1  0  0  0  0
  5 24  1  0  0  0  0
  6  7  2  0  0  0  0
  6  8  1  0  0  0  0
  8  9  1  0  0  0  0
  8 25  1  0  0  0  0
  9 10  1  0  0  0  0
  9 26  1  0  0  0  0
  9 27  1  0  0  0  0
 10 17  1  0  0  0  0
 10 11  1  0  0  0  0
 10 28  1  0  0  0  0
 11 12  1  0  0  0  0
 11 29  1  0  0  0  0
 11 30  1  0  0  0  0
 12 13  1  0  0  0  0
 12 31  1  0  0  0  0
 12 32  1  0  0  0  0
 13 14  1  0  0  0  0
 13 17  1  0  0  0  0
 13 42  1  0  0  0  0
 14 15  1  0  0  0  0
 14 16  1  0  0  0  0
 14 33  1  0  0  0  0
 15 34  1  0  0  0  0
 15 35  1  0  0  0  0
 15 36  1  0  0  0  0
 16 37  1  0  0  0  0
 16 38  1  0  0  0  0
 16 39  1  0  0  0  0
 17 40  1  0  0  0  0
 17 41  1  0  0  0  0
 18 19  1  0  0  0  0
M  CHG  1  13   1
M  END
> <s_m_source_file>
AV-unprocessed.smi

> <i_m_source_file_index>
832

> <i_lp_mmshare_version>
43012

> <i_f3d_flags>
0

> <s_epik_input>
W0NIM11jMVtjSF1jKG5vMSlbTkhdQyg9TylbTkhdW0NIMl1bQ0BASF0yW0NIMl1bQ0gyXU4oW0NIMl0yKVtDSF0oW0NIM10pW0NIM10=

> <s_epik_cmdline>
J2VwaWtfcHl0aG9uJywgJy1waCcsICc3LjAnLCAnLXRuJywgJzgnLCAnLW1hJywgJzIwMCcsICctbWV0YWxfYmluZGluZycsICctaW1hZScsICc8aW5maWxlLm1hZT4nLCAnLW9tYWUnLCAnPG91dGZpbGUubWFlPic=

> <r_lp_tautomer_probability>
1

> <r_epik_Ionization_Penalty>
0.000242791

> <r_epik_Ionization_Penalty_Charging>
0.000220876

> <r_epik_Ionization_Penalty_Neutral>
2.19143e-05

> <r_epik_State_Penalty>
-0

> <r_epik_Charging_Adjusted_Penalty>
0.000220876

> <i_epik_Tot_Q>
1

> <i_epik_Tot_abs_Q>
1

> <r_epik_Metal_State_Penalty>
-0

> <b_epik_Metal_Only>
0

> <s_lp_Force_Field>
OPLS_2005

> <r_lp_Energy>
27.9623

> <b_lp_Chiralities_Consistent>
1

> <s_lp_Variant>
AV-unprocessed.smi:832-3

> <Gold.Version>
5.8.1

> <Gold.Id.Protein>
6NUR|6NUR_protein|mol2

> <Gold.PLP.Fitness>
38.8189

> <Gold.PLP.PLP>
-33.1240

> <Gold.PLP.part.hbond>
-5.0000

> <Gold.PLP.part.metal>
0.0000

> <Gold.PLP.part.buried>
-4.5602

> <Gold.PLP.part.nonpolar>
-24.9348

> <Gold.PLP.part.repulsive>
0.3998

> <Gold.PLP.ligand.clash>
0.0000

> <Gold.PLP.ligand.torsion>
0.0839

> <Gold.PLP.Chemscore.Hbond>
1.9440

> <Gold.PLP.Chemscore.CHOScore>
0.0000

> <Gold.PLP.Chemscore.Metal>
0.0000

> <Gold.Chemscore.Hbonds>
donor molecule, donor type, donor heavy atom, donor atom, acceptor molecule, acceptor atom, score
      L1  H     5    24       P1  7948  0.93
      L1  H     8    25       P1  7948  1.00

> <Gold.PLP.Chemscore.Internal.Correction>
0.0308

> <Gold.Rescore>
     Score         DG    S(hbond)    S(metal)    S(lipo)     H(rot)  DE(clash)    DE(int)     intcor
     14.55     -16.07       1.92        0.00      68.80       1.51       0.04       1.48       ----

> <Gold.Chemscore.Fitness>
14.5501

> <Gold.Chemscore.DG>
-16.0682

> <Gold.Chemscore.ZeroCoef>
-5.4800

> <Gold.Chemscore.Hbond>
1.9209

> <Gold.Chemscore.Metal>
0.0000

> <Gold.Chemscore.Lipo>
68.8020

> <Gold.Chemscore.Internal_Hbond>
0.0000

> <Gold.Chemscore.DEClash>
0.0387

> <Gold.Chemscore.DEInternal>
1.4795

> <Gold.Chemscore.Rot>
1.5146

> <Gold.Chemscore.Internal.Correction>
   9.000000E+99

> <Gold.Chemscore.Hbonds>
donor molecule, donor type, donor heavy atom, donor atom, acceptor molecule, acceptor atom, score
      L1  H     5    24       P1  7948  0.86
      L1  H     8    25       P1  7948  0.99

> <Gold.Chemscore.Hbond.Weighted>
-6.4158

> <Gold.Chemscore.Metal.Weighted>
-0.0000

> <Gold.Chemscore.Lipo.Weighted>
-8.0498

> <Gold.Chemscore.Internal_Hbond.Weighted>
0.0000

> <Gold.Chemscore.DEClash.Weighted>
0.0387

> <Gold.Chemscore.DEInternal.Weighted>
1.4795

> <Gold.Chemscore.Rot.Weighted>
3.8774

> <Gold.Chemscore.Internal.Correction.Weighted>
   9.000000E+99

> <Gold.Protein.RotatedTorsions>
[ 6907 6896 6895 6894 ] final    5.45 input  -60.11 | X-H torsion
[ 7974 7965 7964 7962 ] final  -56.89 input  175.53 | X-H torsion
[ 8008 7997 7996 7995 ] final  -84.30 input   59.86 | X-H torsion
[ 10167 10162 10161 10158 ] final  123.53 input  -65.29 | X-H torsion
[ 10718 10713 10712 10709 ] final    5.21 input   66.30 | X-H torsion
[ 10763 10752 10751 10750 ] final   -0.70 input  -60.55 | X-H torsion
[ 11005 11000 10999 10996 ] final -156.83 input  -57.11 | X-H torsion

> <Gold.Protein.ActiveResidues>
 VAL166  LYS551  ARG553  GLY616  TRP617  ASP618  TYR619  PRO620  LYS621  CYS622 
 ASP623  PHE694  ASN695  SER759  ASP760  ASP761  ALA762  ILE779  LEU786  VAL792 
 PHE793  MET794  SER795  GLU796  ALA797  LYS798  CYS799  TRP800  GLU811  SER814 

> <Gold.Protein.RotatedAtoms>
  151.6577  135.0993  160.0173 H   0  0  0  0  0  0  0  0  0  0  0  0  # atno 6907 bound_to 6896
  152.3965  133.6750  159.6289 H   0  0  0  0  0  0  0  0  0  0  0  0  # atno 6908 bound_to 6896
  150.7871  133.8782  159.3319 H   0  0  0  0  0  0  0  0  0  0  0  0  # atno 6909 bound_to 6896
  145.8574  140.8310  142.9954 H   0  0  0  0  0  0  0  0  0  0  0  0  # atno 7974 bound_to 7965
  154.6283  140.0607  156.9701 H   0  0  0  0  0  0  0  0  0  0  0  0  # atno 8008 bound_to 7997
  155.1706  140.3290  155.4375 H   0  0  0  0  0  0  0  0  0  0  0  0  # atno 8009 bound_to 7997
  156.2469  140.1915  156.6808 H   0  0  0  0  0  0  0  0  0  0  0  0  # atno 8010 bound_to 7997
  139.5794  144.6979  151.3567 H   0  0  0  0  0  0  0  0  0  0  0  0  # atno 10167 bound_to 10162
  156.9040  130.5732  149.5647 H   0  0  0  0  0  0  0  0  0  0  0  0  # atno 10718 bound_to 10713
  153.3352  135.6977  153.6913 H   0  0  0  0  0  0  0  0  0  0  0  0  # atno 10763 bound_to 10752
  153.5700  135.3518  155.2834 H   0  0  0  0  0  0  0  0  0  0  0  0  # atno 10764 bound_to 10752
  154.8626  135.4270  154.2552 H   0  0  0  0  0  0  0  0  0  0  0  0  # atno 10765 bound_to 10752
  140.6713  134.4244  157.5231 H   0  0  0  0  0  0  0  0  0  0  0  0  # atno 11005 bound_to 11000
  144.6727  140.1044  143.7459 LP  0  0  0  0  0  0  0  0  0  0  0  0  # atno 17320 bound_to 7965
  145.9288  139.2592  143.1338 LP  0  0  0  0  0  0  0  0  0  0  0  0  # atno 17321 bound_to 7965
  140.7074  143.7479  150.7506 LP  0  0  0  0  0  0  0  0  0  0  0  0  # atno 17342 bound_to 10162
  140.1007  143.4790  152.2427 LP  0  0  0  0  0  0  0  0  0  0  0  0  # atno 17343 bound_to 10162
  156.0568  130.5628  150.9108 LP  0  0  0  0  0  0  0  0  0  0  0  0  # atno 17370 bound_to 10713
  157.6008  131.0941  150.8963 LP  0  0  0  0  0  0  0  0  0  0  0  0  # atno 17371 bound_to 10713
  139.8981  134.8622  156.2017 LP  0  0  0  0  0  0  0  0  0  0  0  0  # atno 17394 bound_to 11000
  141.0390  133.6948  156.1563 LP  0  0  0  0  0  0  0  0  0  0  0  0  # atno 17395 bound_to 11000

$$$$
