AV-unprocessed.smi:760|AV-procd|sdf|3627|dock10
  -GOLD-   22720 1 23D 1   1.00000     0.00000
 Structure written by MMmdl.
 44 45  0  0  0  0  0  0  0  0  2 V2000
  145.7351  135.3901  153.8839 C   0  0  0  0  0  0  0  0  0  0  0  0
  145.1855  136.0594  152.8571 C   0  0  0  0  0  0  0  0  0  0  0  0
  145.2941  135.5631  151.4260 C   0  0  0  0  0  0  0  0  0  0  0  0
  144.3924  137.3398  153.0709 C   0  0  0  0  0  0  0  0  0  0  0  0
  145.2064  138.4361  153.6590 N   0  3  2  0  0  0  0  0  0  0  0  0
  146.6026  138.4081  153.1504 C   0  0  0  0  0  0  0  0  0  0  0  0
  147.4056  139.6243  153.6395 C   0  0  0  0  0  0  0  0  0  0  0  0
  147.4036  139.7060  155.1730 C   0  0  1  0  0  0  0  0  0  0  0  0
  148.1079  140.9092  155.6066 N   0  0  0  0  0  0  0  0  0  0  0  0
  149.1088  140.9387  156.4984 C   0  0  0  0  0  0  0  0  0  0  0  0
  149.5508  139.9351  157.0575 O   0  0  0  0  0  0  0  0  0  0  0  0
  149.5486  142.1917  156.6965 N   0  0  0  0  0  0  0  0  0  0  0  0
  150.5926  142.6078  157.5599 C   0  0  0  0  0  0  0  0  0  0  0  0
  151.2105  143.8851  157.6796 C   0  0  0  0  0  0  0  0  0  0  0  0
  152.1524  143.8715  158.6110 N   0  0  0  0  0  0  0  0  0  0  0  0
  152.1526  142.6054  159.0937 N   0  0  0  0  0  0  0  0  0  0  0  0
  153.0808  142.2475  160.1449 C   0  0  0  0  0  0  0  0  0  0  0  0
  151.2100  141.8089  158.4748 C   0  0  0  0  0  0  0  0  0  0  0  0
  145.9509  139.7084  155.6800 C   0  0  0  0  0  0  0  0  0  0  0  0
  145.1650  138.4992  155.1449 C   0  0  0  0  0  0  0  0  0  0  0  0
  146.2874  134.4748  153.7270 H   0  0  0  0  0  0  0  0  0  0  0  0
  145.6406  135.7472  154.8991 H   0  0  0  0  0  0  0  0  0  0  0  0
  144.3060  135.2995  151.0481 H   0  0  0  0  0  0  0  0  0  0  0  0
  145.9252  134.6761  151.3612 H   0  0  0  0  0  0  0  0  0  0  0  0
  145.7135  136.3222  150.7675 H   0  0  0  0  0  0  0  0  0  0  0  0
  143.9350  137.6632  152.1344 H   0  0  0  0  0  0  0  0  0  0  0  0
  143.5711  137.1058  153.7502 H   0  0  0  0  0  0  0  0  0  0  0  0
  147.0885  137.4848  153.4705 H   0  0  0  0  0  0  0  0  0  0  0  0
  146.5977  138.4007  152.0597 H   0  0  0  0  0  0  0  0  0  0  0  0
  148.4298  139.5616  153.2693 H   0  0  0  0  0  0  0  0  0  0  0  0
  146.9783  140.5348  153.2161 H   0  0  0  0  0  0  0  0  0  0  0  0
  147.9196  138.8270  155.5650 H   0  0  0  0  0  0  0  0  0  0  0  0
  147.8120  141.7837  155.1979 H   0  0  0  0  0  0  0  0  0  0  0  0
  149.0878  142.9255  156.1785 H   0  0  0  0  0  0  0  0  0  0  0  0
  151.0191  144.8027  157.1439 H   0  0  0  0  0  0  0  0  0  0  0  0
  153.0813  141.1668  160.2911 H   0  0  0  0  0  0  0  0  0  0  0  0
  152.7858  142.7320  161.0759 H   0  0  0  0  0  0  0  0  0  0  0  0
  154.0880  142.5683  159.8768 H   0  0  0  0  0  0  0  0  0  0  0  0
  151.0658  140.7700  158.7333 H   0  0  0  0  0  0  0  0  0  0  0  0
  145.9313  139.7020  156.7704 H   0  0  0  0  0  0  0  0  0  0  0  0
  145.4521  140.6279  155.3696 H   0  0  0  0  0  0  0  0  0  0  0  0
  144.1360  138.5913  155.4888 H   0  0  0  0  0  0  0  0  0  0  0  0
  145.5633  137.5732  155.5628 H   0  0  0  0  0  0  0  0  0  0  0  0
  144.8005  139.2983  153.3241 H   0  0  0  0  0  0  0  0  0  0  0  0
  1  2  2  0  0  0  0
  1 21  1  0  0  0  0
  1 22  1  0  0  0  0
  2  3  1  0  0  0  0
  2  4  1  0  0  0  0
  3 23  1  0  0  0  0
  3 24  1  0  0  0  0
  3 25  1  0  0  0  0
  4  5  1  0  0  0  0
  4 26  1  0  0  0  0
  4 27  1  0  0  0  0
  5 20  1  0  0  0  0
  5  6  1  0  0  0  0
  5 44  1  0  0  0  0
  6  7  1  0  0  0  0
  6 28  1  0  0  0  0
  6 29  1  0  0  0  0
  7  8  1  0  0  0  0
  7 30  1  0  0  0  0
  7 31  1  0  0  0  0
  8  9  1  0  0  0  0
  8 19  1  0  0  0  0
  8 32  1  0  0  0  0
  9 10  1  0  0  0  0
  9 33  1  0  0  0  0
 10 11  2  0  0  0  0
 10 12  1  0  0  0  0
 12 13  1  0  0  0  0
 12 34  1  0  0  0  0
 13 18  2  0  0  0  0
 13 14  1  0  0  0  0
 14 15  2  0  0  0  0
 14 35  1  0  0  0  0
 15 16  1  0  0  0  0
 16 17  1  0  0  0  0
 16 18  1  0  0  0  0
 17 36  1  0  0  0  0
 17 37  1  0  0  0  0
 17 38  1  0  0  0  0
 18 39  1  0  0  0  0
 19 20  1  0  0  0  0
 19 40  1  0  0  0  0
 19 41  1  0  0  0  0
 20 42  1  0  0  0  0
 20 43  1  0  0  0  0
M  CHG  1   5   1
M  END
> <s_m_source_file>
AV-unprocessed.smi

> <i_m_source_file_index>
760

> <i_lp_mmshare_version>
43012

> <i_f3d_flags>
0

> <s_epik_input>
W0NIMl09QyhbQ0gzXSlbQ0gyXU4xW0NIMl1bQ0gyXVtDSF0oW0NIMl1bQ0gyXTEpW05IXUMoPU8pW05IXWMyW2NIXW5uKFtDSDNdKVtjSF0y

> <s_epik_cmdline>
J2VwaWtfcHl0aG9uJywgJy1waCcsICc3LjAnLCAnLXRuJywgJzgnLCAnLW1hJywgJzIwMCcsICctbWV0YWxfYmluZGluZycsICctaW1hZScsICc8aW5maWxlLm1hZT4nLCAnLW9tYWUnLCAnPG91dGZpbGUubWFlPic=

> <r_lp_tautomer_probability>
1

> <r_epik_Ionization_Penalty>
0.0194996

> <r_epik_Ionization_Penalty_Charging>
0.0193505

> <r_epik_Ionization_Penalty_Neutral>
0.000149098

> <r_epik_State_Penalty>
0.0154499

> <r_epik_Charging_Adjusted_Penalty>
0.0348004

> <i_epik_Tot_Q>
1

> <i_epik_Tot_abs_Q>
1

> <r_epik_Metal_State_Penalty>
0.0154507

> <b_epik_Metal_Only>
0

> <s_lp_Force_Field>
OPLS_2005

> <r_lp_Energy>
20.4425

> <b_lp_Chiralities_Consistent>
1

> <s_lp_Variant>
AV-unprocessed.smi:760-1

> <Gold.Version>
5.8.1

> <Gold.Id.Protein>
6NUR|6NUR_protein|mol2

> <Gold.PLP.Fitness>
39.7457

> <Gold.PLP.PLP>
-29.5408

> <Gold.PLP.part.hbond>
-2.0000

> <Gold.PLP.part.metal>
0.0000

> <Gold.PLP.part.buried>
-1.1786

> <Gold.PLP.part.nonpolar>
-26.7362

> <Gold.PLP.part.repulsive>
0.1175

> <Gold.PLP.ligand.clash>
0.0000

> <Gold.PLP.ligand.torsion>
0.4253

> <Gold.PLP.Chemscore.Hbond>
3.0000

> <Gold.PLP.Chemscore.CHOScore>
0.6772

> <Gold.PLP.Chemscore.Metal>
0.0000

> <Gold.Chemscore.Hbonds>
donor molecule, donor type, donor heavy atom, donor atom, acceptor molecule, acceptor atom, score
      L1  H     5    44       P1 10175  2.00
      L1  H    12    34       P1  8028  1.00
      L1  C    14    35       P1  8028  0.65

> <Gold.PLP.Chemscore.Internal.Correction>
0.0239

> <Gold.Rescore>
     Score         DG    S(hbond)    S(metal)    S(lipo)     H(rot)  DE(clash)    DE(int)     intcor
     15.43     -17.78       1.97        0.00      78.91       1.38       0.70       1.66       ----

> <Gold.Chemscore.Fitness>
15.4264

> <Gold.Chemscore.DG>
-17.7824

> <Gold.Chemscore.ZeroCoef>
-5.4800

> <Gold.Chemscore.Hbond>
1.9733

> <Gold.Chemscore.Metal>
0.0000

> <Gold.Chemscore.Lipo>
78.9058

> <Gold.Chemscore.Internal_Hbond>
0.0000

> <Gold.Chemscore.DEClash>
0.6963

> <Gold.Chemscore.DEInternal>
1.6597

> <Gold.Chemscore.Rot>
1.3752

> <Gold.Chemscore.Internal.Correction>
   9.000000E+99

> <Gold.Chemscore.Hbonds>
donor molecule, donor type, donor heavy atom, donor atom, acceptor molecule, acceptor atom, score
      L1  H     5    44       P1 10175  1.00
      L1  H    12    34       P1  8028  0.97

> <Gold.Chemscore.Hbond.Weighted>
-6.5908

> <Gold.Chemscore.Metal.Weighted>
-0.0000

> <Gold.Chemscore.Lipo.Weighted>
-9.2320

> <Gold.Chemscore.Internal_Hbond.Weighted>
0.0000

> <Gold.Chemscore.DEClash.Weighted>
0.6963

> <Gold.Chemscore.DEInternal.Weighted>
1.6597

> <Gold.Chemscore.Rot.Weighted>
3.5204

> <Gold.Chemscore.Internal.Correction.Weighted>
   9.000000E+99

> <Gold.Protein.RotatedTorsions>
[ 6907 6896 6895 6894 ] final  -12.04 input  -60.11 | X-H torsion
[ 7974 7965 7964 7962 ] final   14.38 input  175.53 | X-H torsion
[ 8008 7997 7996 7995 ] final -171.87 input   59.86 | X-H torsion
[ 10167 10162 10161 10158 ] final  128.08 input  -65.29 | X-H torsion
[ 10718 10713 10712 10709 ] final  114.59 input   66.30 | X-H torsion
[ 10763 10752 10751 10750 ] final    6.75 input  -60.55 | X-H torsion
[ 11005 11000 10999 10996 ] final   12.11 input  -57.11 | X-H torsion

> <Gold.Protein.ActiveResidues>
 VAL166  LYS551  ARG553  GLY616  TRP617  ASP618  TYR619  PRO620  LYS621  CYS622 
 ASP623  PHE694  ASN695  SER759  ASP760  ASP761  ALA762  ILE779  LEU786  VAL792 
 PHE793  MET794  SER795  GLU796  ALA797  LYS798  CYS799  TRP800  GLU811  SER814 

> <Gold.Protein.RotatedAtoms>
  151.3768  135.0932  159.9482 H   0  0  0  0  0  0  0  0  0  0  0  0  # atno 6907 bound_to 6896
  152.5120  133.9111  159.7499 H   0  0  0  0  0  0  0  0  0  0  0  0  # atno 6908 bound_to 6896
  150.9536  133.6467  159.2796 H   0  0  0  0  0  0  0  0  0  0  0  0  # atno 6909 bound_to 6896
  146.2306  139.9049  142.8533 H   0  0  0  0  0  0  0  0  0  0  0  0  # atno 7974 bound_to 7965
  155.9372  140.1102  157.1085 H   0  0  0  0  0  0  0  0  0  0  0  0  # atno 8008 bound_to 7997
  154.4082  140.1226  156.4945 H   0  0  0  0  0  0  0  0  0  0  0  0  # atno 8009 bound_to 7997
  155.7007  140.3472  155.4934 H   0  0  0  0  0  0  0  0  0  0  0  0  # atno 8010 bound_to 7997
  139.5545  144.6838  151.4223 H   0  0  0  0  0  0  0  0  0  0  0  0  # atno 10167 bound_to 10162
  157.6272  131.1000  150.7207 H   0  0  0  0  0  0  0  0  0  0  0  0  # atno 10718 bound_to 10713
  153.2441  135.6906  153.7750 H   0  0  0  0  0  0  0  0  0  0  0  0  # atno 10763 bound_to 10752
  153.6869  135.3319  155.3193 H   0  0  0  0  0  0  0  0  0  0  0  0  # atno 10764 bound_to 10752
  154.8368  135.4536  154.1374 H   0  0  0  0  0  0  0  0  0  0  0  0  # atno 10765 bound_to 10752
  140.4957  134.0796  155.7781 H   0  0  0  0  0  0  0  0  0  0  0  0  # atno 11005 bound_to 11000
  145.2287  140.9964  143.4003 LP  0  0  0  0  0  0  0  0  0  0  0  0  # atno 17320 bound_to 7965
  144.9549  139.4042  143.6384 LP  0  0  0  0  0  0  0  0  0  0  0  0  # atno 17321 bound_to 7965
  140.6815  143.8070  150.7128 LP  0  0  0  0  0  0  0  0  0  0  0  0  # atno 17342 bound_to 10162
  140.1525  143.4345  152.2121 LP  0  0  0  0  0  0  0  0  0  0  0  0  # atno 17343 bound_to 10162
  156.7553  130.4781  149.5448 LP  0  0  0  0  0  0  0  0  0  0  0  0  # atno 17370 bound_to 10713
  156.1452  130.6272  151.0521 LP  0  0  0  0  0  0  0  0  0  0  0  0  # atno 17371 bound_to 10713
  141.1461  133.9052  157.2211 LP  0  0  0  0  0  0  0  0  0  0  0  0  # atno 17394 bound_to 11000
  139.9743  135.0119  156.9591 LP  0  0  0  0  0  0  0  0  0  0  0  0  # atno 17395 bound_to 11000

$$$$
