AV-unprocessed.smi:798|AV-procd|sdf|3777|dock2
  -GOLD-   22720 1213D 1   1.00000     0.00000
 Structure written by MMmdl.
 33 35  0  0  0  0  0  0  0  0  2 V2000
  153.1999  140.0527  158.4272 O   0  0  0  0  0  0  0  0  0  0  0  0
  153.3139  140.5988  159.5271 C   0  0  0  0  0  0  0  0  0  0  0  0
  153.7527  140.0195  160.6678 N   0  5  0  0  0  0  0  0  0  0  0  0
  153.8214  138.6810  160.7567 C   0  0  0  0  0  0  0  0  0  0  0  0
  153.3699  137.8707  159.7858 N   0  0  0  0  0  0  0  0  0  0  0  0
  153.5323  136.5235  160.0797 N   0  0  0  0  0  0  0  0  0  0  0  0
  154.0980  136.3518  161.2742 C   0  0  0  0  0  0  0  0  0  0  0  0
  154.4794  137.8189  162.1504 S   0  0  0  0  0  0  0  0  0  0  0  0
  152.9969  141.8936  159.6663 N   0  0  0  0  0  0  0  0  0  0  0  0
  152.5201  142.7749  158.6012 C   0  0  2  0  0  0  0  0  0  0  0  0
  152.7155  144.2823  158.9103 C   0  0  2  0  0  0  0  0  0  0  0  0
  152.1561  144.6516  160.3009 C   0  0  0  0  0  0  0  0  0  0  0  0
  150.6358  144.5178  160.0969 C   0  0  0  0  0  0  0  0  0  0  0  0
  150.5241  144.1290  158.6092 C   0  0  1  0  0  0  0  0  0  0  0  0
  151.6751  144.9210  157.9998 C   0  0  0  0  0  0  0  0  0  0  0  0
  150.9820  142.6634  158.4231 C   0  0  1  0  0  0  0  0  0  0  0  0
  150.5610  142.0793  157.0605 C   0  0  0  0  0  0  0  0  0  0  0  0
  149.1810  142.2828  156.8440 O   0  0  0  0  0  0  0  0  0  0  0  0
  154.2883  135.3553  161.6437 H   0  0  0  0  0  0  0  0  0  0  0  0
  153.0996  142.3010  160.5841 H   0  0  0  0  0  0  0  0  0  0  0  0
  153.0292  142.5228  157.6688 H   0  0  0  0  0  0  0  0  0  0  0  0
  153.7358  144.6306  158.7477 H   0  0  0  0  0  0  0  0  0  0  0  0
  152.5312  144.0186  161.1052 H   0  0  0  0  0  0  0  0  0  0  0  0
  152.4147  145.6807  160.5532 H   0  0  0  0  0  0  0  0  0  0  0  0
  150.1922  143.7710  160.7563 H   0  0  0  0  0  0  0  0  0  0  0  0
  150.1394  145.4696  160.2893 H   0  0  0  0  0  0  0  0  0  0  0  0
  149.5429  144.3423  158.1838 H   0  0  0  0  0  0  0  0  0  0  0  0
  151.5805  145.9994  158.1391 H   0  0  0  0  0  0  0  0  0  0  0  0
  151.8414  144.7147  156.9417 H   0  0  0  0  0  0  0  0  0  0  0  0
  150.5344  142.0485  159.2065 H   0  0  0  0  0  0  0  0  0  0  0  0
  151.1076  142.5699  156.2549 H   0  0  0  0  0  0  0  0  0  0  0  0
  150.7813  141.0136  156.9959 H   0  0  0  0  0  0  0  0  0  0  0  0
  149.0400  143.1927  156.6322 H   0  0  0  0  0  0  0  0  0  0  0  0
  1  2  2  0  0  0  0
  2  3  1  0  0  0  0
  2  9  1  0  0  0  0
  3  4  1  0  0  0  0
  4  8  1  0  0  0  0
  4  5  2  0  0  0  0
  5  6  1  0  0  0  0
  6  7  2  0  0  0  0
  7  8  1  0  0  0  0
  7 19  1  0  0  0  0
  9 10  1  0  0  0  0
  9 20  1  0  0  0  0
 10 16  1  0  0  0  0
 10 11  1  0  0  0  0
 10 21  1  0  0  0  0
 11 15  1  0  0  0  0
 11 12  1  0  0  0  0
 11 22  1  0  0  0  0
 12 13  1  0  0  0  0
 12 23  1  0  0  0  0
 12 24  1  0  0  0  0
 13 14  1  0  0  0  0
 13 25  1  0  0  0  0
 13 26  1  0  0  0  0
 14 15  1  0  0  0  0
 14 16  1  0  0  0  0
 14 27  1  0  0  0  0
 15 28  1  0  0  0  0
 15 29  1  0  0  0  0
 16 17  1  0  0  0  0
 16 30  1  0  0  0  0
 17 18  1  0  0  0  0
 17 31  1  0  0  0  0
 17 32  1  0  0  0  0
 18 33  1  0  0  0  0
M  CHG  1   3  -1
M  END
> <s_m_source_file>
AV-unprocessed.smi

> <i_m_source_file_index>
798

> <i_lp_mmshare_version>
43012

> <i_f3d_flags>
0

> <s_epik_input>
W0NIMl0xW0NIMl1bQ0BASF0oW0NIMl0yKVtDQEBIXShbQ0gyXVtPSF0pW0NAQEhdKFtDQEhdMTIpW05IXUMoPU8pW05IXWMzbm5bY0hdczM=

> <s_epik_cmdline>
J2VwaWtfcHl0aG9uJywgJy1waCcsICc3LjAnLCAnLXRuJywgJzgnLCAnLW1hJywgJzIwMCcsICctbWV0YWxfYmluZGluZycsICctaW1hZScsICc8aW5maWxlLm1hZT4nLCAnLW9tYWUnLCAnPG91dGZpbGUubWFlPic=

> <r_lp_tautomer_probability>
1

> <r_epik_Ionization_Penalty>
4.53732

> <r_epik_Ionization_Penalty_Charging>
4.48632

> <r_epik_Ionization_Penalty_Neutral>
0.0510007

> <r_epik_State_Penalty>
4.48602

> <r_epik_Charging_Adjusted_Penalty>
8.97234

> <i_epik_Tot_Q>
-1

> <i_epik_Tot_abs_Q>
1

> <r_epik_Metal_State_Penalty>
0.812492

> <b_epik_Metal_Only>
1

> <s_lp_Force_Field>
OPLS_2005

> <r_lp_Energy>
46.8419

> <b_lp_Chiralities_Consistent>
1

> <s_lp_Variant>
AV-unprocessed.smi:798-9

> <Gold.Version>
5.8.1

> <Gold.Id.Protein>
6NUR|6NUR_protein|mol2

> <Gold.PLP.Fitness>
43.1656

> <Gold.PLP.PLP>
-34.9839

> <Gold.PLP.part.hbond>
-3.0000

> <Gold.PLP.part.metal>
0.0000

> <Gold.PLP.part.buried>
-6.2901

> <Gold.PLP.part.nonpolar>
-25.8341

> <Gold.PLP.part.repulsive>
0.0744

> <Gold.PLP.ligand.clash>
0.0000

> <Gold.PLP.ligand.torsion>
0.4420

> <Gold.PLP.Chemscore.Hbond>
3.0000

> <Gold.PLP.Chemscore.CHOScore>
0.0000

> <Gold.PLP.Chemscore.Metal>
0.0000

> <Gold.Chemscore.Hbonds>
donor molecule, donor type, donor heavy atom, donor atom, acceptor molecule, acceptor atom, score
      L1  H    18    33       P1  8028  1.00
      P1  H  6896  6908       L1     6  0.84
      P1  H  7997  8008       L1     1  1.00

> <Gold.PLP.Chemscore.Internal.Correction>
0.0657

> <Gold.Rescore>
     Score         DG    S(hbond)    S(metal)    S(lipo)     H(rot)  DE(clash)    DE(int)     intcor
     19.12     -22.03       2.86        0.00     101.79       1.92       0.80       2.12       ----

> <Gold.Chemscore.Fitness>
19.1182

> <Gold.Chemscore.DG>
-22.0336

> <Gold.Chemscore.ZeroCoef>
-5.4800

> <Gold.Chemscore.Hbond>
2.8625

> <Gold.Chemscore.Metal>
0.0000

> <Gold.Chemscore.Lipo>
101.7929

> <Gold.Chemscore.Internal_Hbond>
0.0000

> <Gold.Chemscore.DEClash>
0.7968

> <Gold.Chemscore.DEInternal>
2.1186

> <Gold.Chemscore.Rot>
1.9207

> <Gold.Chemscore.Internal.Correction>
   9.000000E+99

> <Gold.Chemscore.Hbonds>
donor molecule, donor type, donor heavy atom, donor atom, acceptor molecule, acceptor atom, score
      L1  H    18    33       P1  8028  0.97
      P1  H  6896  6908       L1     6  0.33
      P1  H  7997  8008       L1     1  0.93

> <Gold.Chemscore.Hbond.Weighted>
-9.5607

> <Gold.Chemscore.Metal.Weighted>
-0.0000

> <Gold.Chemscore.Lipo.Weighted>
-11.9098

> <Gold.Chemscore.Internal_Hbond.Weighted>
0.0000

> <Gold.Chemscore.DEClash.Weighted>
0.7968

> <Gold.Chemscore.DEInternal.Weighted>
2.1186

> <Gold.Chemscore.Rot.Weighted>
4.9169

> <Gold.Chemscore.Internal.Correction.Weighted>
   9.000000E+99

> <Gold.Protein.RotatedTorsions>
[ 6907 6896 6895 6894 ] final  -92.61 input  -60.11 | X-H torsion
[ 7974 7965 7964 7962 ] final -103.51 input  175.53 | X-H torsion
[ 8008 7997 7996 7995 ] final  -91.60 input   59.86 | X-H torsion
[ 10167 10162 10161 10158 ] final  109.50 input  -65.29 | X-H torsion
[ 10718 10713 10712 10709 ] final  -60.23 input   66.30 | X-H torsion
[ 10763 10752 10751 10750 ] final  -75.93 input  -60.55 | X-H torsion
[ 11005 11000 10999 10996 ] final   89.19 input  -57.11 | X-H torsion

> <Gold.Protein.ActiveResidues>
 VAL166  LYS551  ARG553  GLY616  TRP617  ASP618  TYR619  PRO620  LYS621  CYS622 
 ASP623  PHE694  ASN695  SER759  ASP760  ASP761  ALA762  ILE779  LEU786  VAL792 
 PHE793  MET794  SER795  GLU796  ALA797  LYS798  CYS799  TRP800  GLU811  SER814 

> <Gold.Protein.RotatedAtoms>
  150.6909  134.2096  159.4353 H   0  0  0  0  0  0  0  0  0  0  0  0  # atno 6907 bound_to 6896
  152.0058  134.9901  160.0576 H   0  0  0  0  0  0  0  0  0  0  0  0  # atno 6908 bound_to 6896
  152.1535  133.4502  159.4862 H   0  0  0  0  0  0  0  0  0  0  0  0  # atno 6909 bound_to 6896
  145.2549  140.9250  143.3074 H   0  0  0  0  0  0  0  0  0  0  0  0  # atno 7974 bound_to 7965
  154.7127  140.0518  157.0565 H   0  0  0  0  0  0  0  0  0  0  0  0  # atno 8008 bound_to 7997
  155.0533  140.3181  155.4666 H   0  0  0  0  0  0  0  0  0  0  0  0  # atno 8009 bound_to 7997
  156.2794  140.2112  156.5659 H   0  0  0  0  0  0  0  0  0  0  0  0  # atno 8010 bound_to 7997
  139.6761  144.7122  151.1599 H   0  0  0  0  0  0  0  0  0  0  0  0  # atno 10167 bound_to 10162
  156.1005  130.4187  150.0825 H   0  0  0  0  0  0  0  0  0  0  0  0  # atno 10718 bound_to 10713
  154.4931  135.5814  153.6474 H   0  0  0  0  0  0  0  0  0  0  0  0  # atno 10763 bound_to 10752
  152.9865  135.6117  154.3099 H   0  0  0  0  0  0  0  0  0  0  0  0  # atno 10764 bound_to 10752
  154.3000  135.2847  155.2594 H   0  0  0  0  0  0  0  0  0  0  0  0  # atno 10765 bound_to 10752
  139.8880  134.8536  156.3107 H   0  0  0  0  0  0  0  0  0  0  0  0  # atno 11005 bound_to 11000
  144.9469  139.4125  143.6421 LP  0  0  0  0  0  0  0  0  0  0  0  0  # atno 17320 bound_to 7965
  146.3292  139.8458  142.8882 LP  0  0  0  0  0  0  0  0  0  0  0  0  # atno 17321 bound_to 7965
  140.7636  143.5769  150.8936 LP  0  0  0  0  0  0  0  0  0  0  0  0  # atno 17342 bound_to 10162
  139.9438  143.6351  152.3047 LP  0  0  0  0  0  0  0  0  0  0  0  0  # atno 17343 bound_to 10162
  156.8814  130.9557  151.3599 LP  0  0  0  0  0  0  0  0  0  0  0  0  # atno 17370 bound_to 10713
  157.6174  130.8629  149.9052 LP  0  0  0  0  0  0  0  0  0  0  0  0  # atno 17371 bound_to 10713
  140.9852  133.7242  156.0731 LP  0  0  0  0  0  0  0  0  0  0  0  0  # atno 17394 bound_to 11000
  140.7697  134.3846  157.5510 LP  0  0  0  0  0  0  0  0  0  0  0  0  # atno 17395 bound_to 11000

$$$$
