AV-unprocessed.smi:287|AV-procd|sdf|2198|dock4
  -GOLD-   2262022 03D 1   1.00000     0.00000
 Structure written by MMmdl.
 55 58  0  0  0  0  0  0  0  0  1 V2000
  154.7084  140.8418  160.9686 C   0  0  0  0  0  0  0  0  0  0  0  0
  153.6195  141.6821  160.3956 C   0  0  0  0  0  0  0  0  0  0  0  0
  152.9149  141.6462  159.2279 C   0  0  0  0  0  0  0  0  0  0  0  0
  151.9817  142.7253  159.2595 C   0  0  0  0  0  0  0  0  0  0  0  0
  150.9818  143.0845  158.1687 C   0  0  2  0  0  0  0  0  0  0  0  0
  151.7316  143.5990  156.9293 C   0  0  0  0  0  0  0  0  0  0  0  0
  150.1145  144.1357  158.5488 O   0  0  0  0  0  0  0  0  0  0  0  0
  150.0679  141.8982  157.7827 C   0  0  0  0  0  0  0  0  0  0  0  0
  149.2683  142.1612  156.5928 N   0  0  0  0  0  0  0  0  0  0  0  0
  148.8105  141.1501  155.8254 C   0  0  0  0  0  0  0  0  0  0  0  0
  149.3599  141.0620  154.5904 N   0  0  0  0  0  0  0  0  0  0  0  0
  148.9761  140.0966  153.7507 C   0  0  0  0  0  0  0  0  0  0  0  0
  148.0750  139.1322  153.9449 N   0  0  0  0  0  0  0  0  0  0  0  0
  147.5175  139.2137  155.1876 C   0  0  0  0  0  0  0  0  0  0  0  0
  147.8249  140.1831  156.1845 C   0  0  0  0  0  0  0  0  0  0  0  0
  147.0547  139.9328  157.3155 N   0  0  0  0  0  0  0  0  0  0  0  0
  146.3424  138.8856  157.0000 C   0  0  0  0  0  0  0  0  0  0  0  0
  146.5634  138.3841  155.7355 N   0  0  0  0  0  0  0  0  0  0  0  0
  145.9341  137.2051  155.0511 C   0  0  2  0  0  0  0  0  0  0  0  0
  146.8930  136.6439  154.2096 O   0  0  0  0  0  0  0  0  0  0  0  0
  146.6734  137.0029  152.8418 C   0  0  1  0  0  0  0  0  0  0  0  0
  146.4193  135.6810  152.0865 C   0  0  0  0  0  0  0  0  0  0  0  0
  147.6373  134.9886  151.9127 O   0  0  0  0  0  0  0  0  0  0  0  0
  145.4855  137.9897  152.8704 C   0  0  1  0  0  0  0  0  0  0  0  0
  144.6248  137.8826  151.7531 O   0  0  0  0  0  0  0  0  0  0  0  0
  144.7614  137.6281  154.1552 C   0  0  2  0  0  0  0  0  0  0  0  0
  144.0199  138.7268  154.6539 O   0  0  0  0  0  0  0  0  0  0  0  0
  152.2146  143.3540  160.4587 C   0  0  0  0  0  0  0  0  0  0  0  0
  151.6300  144.5525  161.1301 C   0  0  0  0  0  0  0  0  0  0  0  0
  153.2011  142.7246  161.1561 O   0  0  0  0  0  0  0  0  0  0  0  0
  145.6605  136.5247  155.8582 H   0  0  0  0  0  0  0  0  0  0  0  0
  147.5525  137.5017  152.4312 H   0  0  0  0  0  0  0  0  0  0  0  0
  145.8676  139.0102  152.9286 H   0  0  0  0  0  0  0  0  0  0  0  0
  144.1148  136.7612  154.0110 H   0  0  0  0  0  0  0  0  0  0  0  0
  154.8843  139.9601  160.3520 H   0  0  0  0  0  0  0  0  0  0  0  0
  154.4499  140.5050  161.9728 H   0  0  0  0  0  0  0  0  0  0  0  0
  155.6400  141.4045  161.0278 H   0  0  0  0  0  0  0  0  0  0  0  0
  153.0478  140.9198  158.4397 H   0  0  0  0  0  0  0  0  0  0  0  0
  152.4099  142.8407  156.5361 H   0  0  0  0  0  0  0  0  0  0  0  0
  152.3280  144.4819  157.1644 H   0  0  0  0  0  0  0  0  0  0  0  0
  151.0431  143.8694  156.1276 H   0  0  0  0  0  0  0  0  0  0  0  0
  149.6678  144.4494  157.7775 H   0  0  0  0  0  0  0  0  0  0  0  0
  150.6520  140.9861  157.6527 H   0  0  0  0  0  0  0  0  0  0  0  0
  149.3745  141.7160  158.6049 H   0  0  0  0  0  0  0  0  0  0  0  0
  149.0189  143.1280  156.4407 H   0  0  0  0  0  0  0  0  0  0  0  0
  149.4613  140.0964  152.7859 H   0  0  0  0  0  0  0  0  0  0  0  0
  145.6346  138.4517  157.6905 H   0  0  0  0  0  0  0  0  0  0  0  0
  145.6968  135.0532  152.6090 H   0  0  0  0  0  0  0  0  0  0  0  0
  146.0276  135.8658  151.0864 H   0  0  0  0  0  0  0  0  0  0  0  0
  148.2073  135.5144  151.3729 H   0  0  0  0  0  0  0  0  0  0  0  0
  144.0787  138.6536  151.7252 H   0  0  0  0  0  0  0  0  0  0  0  0
  143.8792  139.3386  153.9472 H   0  0  0  0  0  0  0  0  0  0  0  0
  151.6382  145.4123  160.4601 H   0  0  0  0  0  0  0  0  0  0  0  0
  152.1942  144.8193  162.0241 H   0  0  0  0  0  0  0  0  0  0  0  0
  150.5985  144.3634  161.4274 H   0  0  0  0  0  0  0  0  0  0  0  0
  1  2  1  0  0  0  0
  1 35  1  0  0  0  0
  1 36  1  0  0  0  0
  1 37  1  0  0  0  0
  2 30  1  0  0  0  0
  2  3  2  0  0  0  0
  3  4  1  0  0  0  0
  3 38  1  0  0  0  0
  4  5  1  0  0  0  0
  4 28  2  0  0  0  0
  5  6  1  0  0  0  0
  5  7  1  0  0  0  0
  5  8  1  0  0  0  0
  6 39  1  0  0  0  0
  6 40  1  0  0  0  0
  6 41  1  0  0  0  0
  7 42  1  0  0  0  0
  8  9  1  0  0  0  0
  8 43  1  0  0  0  0
  8 44  1  0  0  0  0
  9 10  1  0  0  0  0
  9 45  1  0  0  0  0
 10 15  1  0  0  0  0
 10 11  2  0  0  0  0
 11 12  1  0  0  0  0
 12 13  2  0  0  0  0
 12 46  1  0  0  0  0
 13 14  1  0  0  0  0
 14 18  1  0  0  0  0
 14 15  2  0  0  0  0
 15 16  1  0  0  0  0
 16 17  2  0  0  0  0
 17 18  1  0  0  0  0
 17 47  1  0  0  0  0
 18 19  1  0  0  0  0
 19 31  1  0  0  0  0
 19 26  1  0  0  0  0
 19 20  1  0  0  0  0
 20 21  1  0  0  0  0
 21 32  1  0  0  0  0
 21 22  1  0  0  0  0
 21 24  1  0  0  0  0
 22 23  1  0  0  0  0
 22 48  1  0  0  0  0
 22 49  1  0  0  0  0
 23 50  1  0  0  0  0
 24 33  1  0  0  0  0
 24 25  1  0  0  0  0
 24 26  1  0  0  0  0
 25 51  1  0  0  0  0
 26 34  1  0  0  0  0
 26 27  1  0  0  0  0
 27 52  1  0  0  0  0
 28 29  1  0  0  0  0
 28 30  1  0  0  0  0
 29 53  1  0  0  0  0
 29 54  1  0  0  0  0
 29 55  1  0  0  0  0
M  END
> <s_m_source_file>
AV-unprocessed.smi

> <i_m_source_file_index>
287

> <i_lp_mmshare_version>
43012

> <i_f3d_flags>
0

> <s_epik_input>
W0NIM11jMVtjSF1jKGMobzEpW0NIM10pW0NAQF0oW0NIM10pKFtPSF0pW0NIMl1bTkhdYyhuW2NIXW4yKWMoYzIzKW5bY0hdbjNbQ0BASF00T1tDQEhdKFtDSDJdW09IXSlbQ0BASF0oW09IXSlbQ0BIXTRbT0hd

> <s_epik_cmdline>
J2VwaWtfcHl0aG9uJywgJy1waCcsICc3LjAnLCAnLXRuJywgJzgnLCAnLW1hJywgJzIwMCcsICctbWV0YWxfYmluZGluZycsICctaW1hZScsICc8aW5maWxlLm1hZT4nLCAnLW9tYWUnLCAnPG91dGZpbGUubWFlPic=

> <r_lp_tautomer_probability>
1

> <r_epik_Ionization_Penalty>
0.000992612

> <r_epik_Ionization_Penalty_Charging>
0

> <r_epik_Ionization_Penalty_Neutral>
0.000992612

> <r_epik_State_Penalty>
-0

> <r_epik_Charging_Adjusted_Penalty>
0

> <i_epik_Tot_Q>
0

> <i_epik_Tot_abs_Q>
0

> <r_epik_Metal_State_Penalty>
-0

> <b_epik_Metal_Only>
0

> <s_epik_Chemistry_Notes>
This compound contains an acetal/aminal-like group ( X-CH(R)-Y where X, Y are N, S, or O) that may be acid/base labile, releasing an aldehyde.

> <s_lp_Force_Field>
OPLS_2005

> <r_lp_Energy>
45.8493

> <b_lp_Chiralities_Consistent>
1

> <s_lp_Variant>
AV-unprocessed.smi:287-22

> <Gold.Version>
5.8.1

> <Gold.Id.Protein>
6NUR|6NUR_protein|mol2

> <Gold.PLP.Fitness>
50.7726

> <Gold.PLP.PLP>
-36.2784

> <Gold.PLP.part.hbond>
-6.8377

> <Gold.PLP.part.metal>
0.0000

> <Gold.PLP.part.buried>
-3.5802

> <Gold.PLP.part.nonpolar>
-26.5722

> <Gold.PLP.part.repulsive>
0.3572

> <Gold.PLP.ligand.clash>
0.0000

> <Gold.PLP.ligand.torsion>
1.8233

> <Gold.PLP.Chemscore.Hbond>
4.9760

> <Gold.PLP.Chemscore.CHOScore>
1.0000

> <Gold.PLP.Chemscore.Metal>
0.0000

> <Gold.Chemscore.Hbonds>
donor molecule, donor type, donor heavy atom, donor atom, acceptor molecule, acceptor atom, score
      L1  H     7    42       P1  8028  0.29
      L1  H     9    45       P1  8028  1.00
      L1  H    25    51       P1 10175  0.99
      L1  H    27    52       P1 10175  1.00
      L1  C    12    46       P1  7957  0.01

> <Gold.PLP.Chemscore.Internal.Correction>
0.2128

> <Gold.Rescore>
     Score         DG    S(hbond)    S(metal)    S(lipo)     H(rot)  DE(clash)    DE(int)     intcor
     10.21     -19.30       4.63        0.00     101.24       5.27       2.91       6.19       ----

> <Gold.Chemscore.Fitness>
10.2050

> <Gold.Chemscore.DG>
-19.2991

> <Gold.Chemscore.ZeroCoef>
-5.4800

> <Gold.Chemscore.Hbond>
4.6282

> <Gold.Chemscore.Metal>
0.0000

> <Gold.Chemscore.Lipo>
101.2382

> <Gold.Chemscore.Internal_Hbond>
0.0000

> <Gold.Chemscore.DEClash>
2.9077

> <Gold.Chemscore.DEInternal>
6.1863

> <Gold.Chemscore.Rot>
5.2672

> <Gold.Chemscore.Internal.Correction>
   9.000000E+99

> <Gold.Chemscore.Hbonds>
donor molecule, donor type, donor heavy atom, donor atom, acceptor molecule, acceptor atom, score
      L1  H     7    42       P1  8028  0.02
      L1  H     9    45       P1  8028  0.99
      L1  H    25    51       P1 10175  0.91
      L1  H    27    52       P1 10175  1.00

> <Gold.Chemscore.Hbond.Weighted>
-15.4581

> <Gold.Chemscore.Metal.Weighted>
-0.0000

> <Gold.Chemscore.Lipo.Weighted>
-11.8449

> <Gold.Chemscore.Internal_Hbond.Weighted>
0.0000

> <Gold.Chemscore.DEClash.Weighted>
2.9077

> <Gold.Chemscore.DEInternal.Weighted>
6.1863

> <Gold.Chemscore.Rot.Weighted>
13.4839

> <Gold.Chemscore.Internal.Correction.Weighted>
   9.000000E+99

> <Gold.Protein.RotatedTorsions>
[ 6907 6896 6895 6894 ] final   40.98 input  -60.11 | X-H torsion
[ 7974 7965 7964 7962 ] final   13.50 input  175.53 | X-H torsion
[ 8008 7997 7996 7995 ] final   -4.47 input   59.86 | X-H torsion
[ 10167 10162 10161 10158 ] final  -83.08 input  -65.29 | X-H torsion
[ 10718 10713 10712 10709 ] final   -6.59 input   66.30 | X-H torsion
[ 10763 10752 10751 10750 ] final   15.96 input  -60.55 | X-H torsion
[ 11005 11000 10999 10996 ] final   12.11 input  -57.11 | X-H torsion

> <Gold.Protein.ActiveResidues>
 VAL166  LYS551  ARG553  GLY616  TRP617  ASP618  TYR619  PRO620  LYS621  CYS622 
 ASP623  PHE694  ASN695  SER759  ASP760  ASP761  ALA762  ILE779  LEU786  VAL792 
 PHE793  MET794  SER795  GLU796  ALA797  LYS798  CYS799  TRP800  GLU811  SER814 

> <Gold.Protein.RotatedAtoms>
  152.1894  134.8685  160.0518 H   0  0  0  0  0  0  0  0  0  0  0  0  # atno 6907 bound_to 6896
  151.9580  133.3681  159.4033 H   0  0  0  0  0  0  0  0  0  0  0  0  # atno 6908 bound_to 6896
  150.6932  134.4194  159.5242 H   0  0  0  0  0  0  0  0  0  0  0  0  # atno 6909 bound_to 6896
  146.2328  139.9179  142.8514 H   0  0  0  0  0  0  0  0  0  0  0  0  # atno 7974 bound_to 7965
  154.6139  140.2483  155.7634 H   0  0  0  0  0  0  0  0  0  0  0  0  # atno 8008 bound_to 7997
  156.2387  140.2940  156.0334 H   0  0  0  0  0  0  0  0  0  0  0  0  # atno 8009 bound_to 7997
  155.2006  140.0394  157.2907 H   0  0  0  0  0  0  0  0  0  0  0  0  # atno 8010 bound_to 7997
  140.4260  143.2566  151.8825 H   0  0  0  0  0  0  0  0  0  0  0  0  # atno 10167 bound_to 10162
  156.7297  130.5176  149.5848 H   0  0  0  0  0  0  0  0  0  0  0  0  # atno 10718 bound_to 10713
  153.1476  135.6772  153.8931 H   0  0  0  0  0  0  0  0  0  0  0  0  # atno 10763 bound_to 10752
  153.8368  135.3110  155.3424 H   0  0  0  0  0  0  0  0  0  0  0  0  # atno 10764 bound_to 10752
  154.7837  135.4874  153.9985 H   0  0  0  0  0  0  0  0  0  0  0  0  # atno 10765 bound_to 10752
  140.4957  134.0796  155.7781 H   0  0  0  0  0  0  0  0  0  0  0  0  # atno 11005 bound_to 11000
  145.2165  140.9917  143.4070 LP  0  0  0  0  0  0  0  0  0  0  0  0  # atno 17320 bound_to 7965
  144.9647  139.3943  143.6339 LP  0  0  0  0  0  0  0  0  0  0  0  0  # atno 17321 bound_to 7965
  139.4783  144.5386  151.8561 LP  0  0  0  0  0  0  0  0  0  0  0  0  # atno 17342 bound_to 10162
  140.4480  144.1894  150.5895 LP  0  0  0  0  0  0  0  0  0  0  0  0  # atno 17343 bound_to 10162
  156.1537  130.6327  151.0630 LP  0  0  0  0  0  0  0  0  0  0  0  0  # atno 17370 bound_to 10713
  157.6864  131.0823  150.7231 LP  0  0  0  0  0  0  0  0  0  0  0  0  # atno 17371 bound_to 10713
  141.1461  133.9052  157.2211 LP  0  0  0  0  0  0  0  0  0  0  0  0  # atno 17394 bound_to 11000
  139.9743  135.0119  156.9591 LP  0  0  0  0  0  0  0  0  0  0  0  0  # atno 17395 bound_to 11000

$$$$
