AV-unprocessed.smi:594|AV-procd|sdf|3015|dock5
  -GOLD-   2262023523D 1   1.00000     0.00000
 Structure written by MMmdl.
 40 41  0  0  0  0  0  0  0  0  3 V2000
  151.6525  144.0340  158.5247 C   0  0  0  0  0  0  0  0  0  0  0  0
  152.6242  143.4760  159.5787 C   0  0  1  0  0  0  0  0  0  0  0  0
  151.9547  143.3669  160.9649 C   0  0  0  0  0  0  0  0  0  0  0  0
  152.9370  142.8557  162.0309 C   0  0  0  0  0  0  0  0  0  0  0  0
  153.5615  141.5146  161.6185 C   0  0  0  0  0  0  0  0  0  0  0  0
  154.2365  141.6174  160.2403 C   0  0  0  0  0  0  0  0  0  0  0  0
  153.2650  142.1308  159.1543 C   0  0  1  0  0  0  0  0  0  0  0  0
  152.2408  141.1297  158.8549 N   0  0  0  0  0  0  0  0  0  0  0  0
  152.4371  139.9871  158.1806 C   0  0  0  0  0  0  0  0  0  0  0  0
  153.5236  139.6624  157.7000 O   0  0  0  0  0  0  0  0  0  0  0  0
  151.2072  139.0841  158.0164 C   0  0  0  0  0  0  0  0  0  0  0  0
  150.0583  139.7813  157.4147 N   0  0  0  0  0  0  0  0  0  0  0  0
  148.9255  139.9759  158.2295 C   0  0  0  0  0  0  0  0  0  0  0  0
  147.8202  140.6029  157.7813 C   0  0  0  0  0  0  0  0  0  0  0  0
  146.6664  140.7952  158.6324 N   0  3  0  0  0  0  0  0  0  0  0  0
  145.6296  141.2181  158.1314 O   0  0  0  0  0  0  0  0  0  0  0  0
  146.7567  140.5291  159.8273 O   0  5  0  0  0  0  0  0  0  0  0  0
  147.8252  141.0822  156.4127 C   0  0  0  0  0  0  0  0  0  0  0  0
  148.9064  140.9017  155.6289 C   0  0  0  0  0  0  0  0  0  0  0  0
  150.1089  140.2207  156.1195 C   0  0  0  0  0  0  0  0  0  0  0  0
  151.1012  140.0548  155.4096 O   0  0  0  0  0  0  0  0  0  0  0  0
  150.7735  143.3995  158.4083 H   0  0  0  0  0  0  0  0  0  0  0  0
  152.1357  144.1170  157.5508 H   0  0  0  0  0  0  0  0  0  0  0  0
  151.3040  145.0287  158.8038 H   0  0  0  0  0  0  0  0  0  0  0  0
  153.4350  144.2005  159.6698 H   0  0  0  0  0  0  0  0  0  0  0  0
  151.5661  144.3400  161.2675 H   0  0  0  0  0  0  0  0  0  0  0  0
  151.0948  142.6977  160.9122 H   0  0  0  0  0  0  0  0  0  0  0  0
  153.7255  143.5934  162.1845 H   0  0  0  0  0  0  0  0  0  0  0  0
  152.4244  142.7480  162.9873 H   0  0  0  0  0  0  0  0  0  0  0  0
  154.2903  141.1996  162.3656 H   0  0  0  0  0  0  0  0  0  0  0  0
  152.7916  140.7423  161.5961 H   0  0  0  0  0  0  0  0  0  0  0  0
  155.0852  142.2988  160.3105 H   0  0  0  0  0  0  0  0  0  0  0  0
  154.6525  140.6499  159.9569 H   0  0  0  0  0  0  0  0  0  0  0  0
  153.8377  142.3092  158.2421 H   0  0  0  0  0  0  0  0  0  0  0  0
  151.3126  141.3160  159.2059 H   0  0  0  0  0  0  0  0  0  0  0  0
  151.4694  138.2121  157.4137 H   0  0  0  0  0  0  0  0  0  0  0  0
  150.9480  138.6841  158.9976 H   0  0  0  0  0  0  0  0  0  0  0  0
  149.0230  139.5888  159.2336 H   0  0  0  0  0  0  0  0  0  0  0  0
  146.9626  141.5901  156.0068 H   0  0  0  0  0  0  0  0  0  0  0  0
  148.8888  141.2675  154.6127 H   0  0  0  0  0  0  0  0  0  0  0  0
  1  2  1  0  0  0  0
  1 22  1  0  0  0  0
  1 23  1  0  0  0  0
  1 24  1  0  0  0  0
  2  7  1  0  0  0  0
  2  3  1  0  0  0  0
  2 25  1  0  0  0  0
  3  4  1  0  0  0  0
  3 26  1  0  0  0  0
  3 27  1  0  0  0  0
  4  5  1  0  0  0  0
  4 28  1  0  0  0  0
  4 29  1  0  0  0  0
  5  6  1  0  0  0  0
  5 30  1  0  0  0  0
  5 31  1  0  0  0  0
  6  7  1  0  0  0  0
  6 32  1  0  0  0  0
  6 33  1  0  0  0  0
  7  8  1  0  0  0  0
  7 34  1  0  0  0  0
  8  9  1  0  0  0  0
  8 35  1  0  0  0  0
  9 10  2  0  0  0  0
  9 11  1  0  0  0  0
 11 12  1  0  0  0  0
 11 36  1  0  0  0  0
 11 37  1  0  0  0  0
 12 20  1  0  0  0  0
 12 13  1  0  0  0  0
 13 14  2  0  0  0  0
 13 38  1  0  0  0  0
 14 15  1  0  0  0  0
 14 18  1  0  0  0  0
 15 16  2  0  0  0  0
 15 17  1  0  0  0  0
 18 19  2  0  0  0  0
 18 39  1  0  0  0  0
 19 20  1  0  0  0  0
 19 40  1  0  0  0  0
 20 21  2  0  0  0  0
M  CHG  1  15   1
M  CHG  1  17  -1
M  END
> <s_m_source_file>
AV-unprocessed.smi

> <i_m_source_file_index>
594

> <i_lp_mmshare_version>
43012

> <i_f3d_flags>
0

> <s_epik_input>
W0NIM11bQ0BASF0xW0NIMl1bQ0gyXVtDSDJdW0NIMl1bQ0BIXTFbTkhdQyg9TylbQ0gyXW4yW2NIXWMoW04rXSg9TylbTy1dKVtjSF1bY0hdYzI9Tw==

> <s_epik_cmdline>
J2VwaWtfcHl0aG9uJywgJy1waCcsICc3LjAnLCAnLXRuJywgJzgnLCAnLW1hJywgJzIwMCcsICctbWV0YWxfYmluZGluZycsICctaW1hZScsICc8aW5maWxlLm1hZT4nLCAnLW9tYWUnLCAnPG91dGZpbGUubWFlPic=

> <r_lp_tautomer_probability>
1

> <r_epik_Ionization_Penalty>
1.91305e-08

> <r_epik_Ionization_Penalty_Charging>
8.35811e-11

> <r_epik_Ionization_Penalty_Neutral>
1.90469e-08

> <r_epik_State_Penalty>
-0

> <r_epik_Charging_Adjusted_Penalty>
8.35811e-11

> <i_epik_Tot_Q>
0

> <i_epik_Tot_abs_Q>
2

> <r_epik_Metal_State_Penalty>
-0

> <b_epik_Metal_Only>
0

> <s_lp_Force_Field>
OPLS_2005

> <r_lp_Energy>
20.421

> <b_lp_Chiralities_Consistent>
1

> <s_lp_Variant>
AV-unprocessed.smi:594-2

> <Gold.Version>
5.8.1

> <Gold.Id.Protein>
6NUR|6NUR_protein|mol2

> <Gold.PLP.Fitness>
51.6133

> <Gold.PLP.PLP>
-43.9745

> <Gold.PLP.part.hbond>
-3.0000

> <Gold.PLP.part.metal>
0.0000

> <Gold.PLP.part.buried>
-4.9527

> <Gold.PLP.part.nonpolar>
-36.3592

> <Gold.PLP.part.repulsive>
0.2228

> <Gold.PLP.ligand.clash>
0.0000

> <Gold.PLP.ligand.torsion>
0.2817

> <Gold.PLP.Chemscore.Hbond>
2.7296

> <Gold.PLP.Chemscore.CHOScore>
0.0000

> <Gold.PLP.Chemscore.Metal>
0.0000

> <Gold.Chemscore.Hbonds>
donor molecule, donor type, donor heavy atom, donor atom, acceptor molecule, acceptor atom, score
      P1  H  7989  7998       L1    21  0.71
      P1  H  7997  8008       L1    10  0.55

> <Gold.PLP.Chemscore.Internal.Correction>
0.0135

> <Gold.Rescore>
     Score         DG    S(hbond)    S(metal)    S(lipo)     H(rot)  DE(clash)    DE(int)     intcor
     22.11     -22.56       2.84        0.00      98.83       1.55       0.10       0.35       ----

> <Gold.Chemscore.Fitness>
22.1087

> <Gold.Chemscore.DG>
-22.5613

> <Gold.Chemscore.ZeroCoef>
-5.4800

> <Gold.Chemscore.Hbond>
2.8404

> <Gold.Chemscore.Metal>
0.0000

> <Gold.Chemscore.Lipo>
98.8328

> <Gold.Chemscore.Internal_Hbond>
0.0000

> <Gold.Chemscore.DEClash>
0.1013

> <Gold.Chemscore.DEInternal>
0.3514

> <Gold.Chemscore.Rot>
1.5505

> <Gold.Chemscore.Internal.Correction>
   9.000000E+99

> <Gold.Chemscore.Hbonds>
donor molecule, donor type, donor heavy atom, donor atom, acceptor molecule, acceptor atom, score
      P1  H  7989  7998       L1    21  0.72
      P1  H  7997  8008       L1    10  0.53

> <Gold.Chemscore.Hbond.Weighted>
-9.4870

> <Gold.Chemscore.Metal.Weighted>
-0.0000

> <Gold.Chemscore.Lipo.Weighted>
-11.5634

> <Gold.Chemscore.Internal_Hbond.Weighted>
0.0000

> <Gold.Chemscore.DEClash.Weighted>
0.1013

> <Gold.Chemscore.DEInternal.Weighted>
0.3514

> <Gold.Chemscore.Rot.Weighted>
3.9692

> <Gold.Chemscore.Internal.Correction.Weighted>
   9.000000E+99

> <Gold.Protein.RotatedTorsions>
[ 6907 6896 6895 6894 ] final  -53.16 input  -60.11 | X-H torsion
[ 7974 7965 7964 7962 ] final  141.83 input  175.53 | X-H torsion
[ 8008 7997 7996 7995 ] final  -67.94 input   59.86 | X-H torsion
[ 10167 10162 10161 10158 ] final  133.88 input  -65.29 | X-H torsion
[ 10718 10713 10712 10709 ] final   29.55 input   66.30 | X-H torsion
[ 10763 10752 10751 10750 ] final   10.14 input  -60.55 | X-H torsion
[ 11005 11000 10999 10996 ] final   -8.40 input  -57.11 | X-H torsion

> <Gold.Protein.ActiveResidues>
 VAL166  LYS551  ARG553  GLY616  TRP617  ASP618  TYR619  PRO620  LYS621  CYS622 
 ASP623  PHE694  ASN695  SER759  ASP760  ASP761  ALA762  ILE779  LEU786  VAL792 
 PHE793  MET794  SER795  GLU796  ALA797  LYS798  CYS799  TRP800  GLU811  SER814 

> <Gold.Protein.RotatedAtoms>
  150.8452  134.7758  159.6964 H   0  0  0  0  0  0  0  0  0  0  0  0  # atno 6907 bound_to 6896
  152.4530  134.5348  159.9831 H   0  0  0  0  0  0  0  0  0  0  0  0  # atno 6908 bound_to 6896
  151.5480  133.3384  159.2983 H   0  0  0  0  0  0  0  0  0  0  0  0  # atno 6909 bound_to 6896
  144.9061  139.5356  143.5731 H   0  0  0  0  0  0  0  0  0  0  0  0  # atno 7974 bound_to 7965
  154.4834  140.0882  156.7430 H   0  0  0  0  0  0  0  0  0  0  0  0  # atno 8008 bound_to 7997
  155.4412  140.3454  155.4272 H   0  0  0  0  0  0  0  0  0  0  0  0  # atno 8009 bound_to 7997
  156.1225  140.1478  156.9172 H   0  0  0  0  0  0  0  0  0  0  0  0  # atno 8010 bound_to 7997
  139.5278  144.6594  151.5060 H   0  0  0  0  0  0  0  0  0  0  0  0  # atno 10167 bound_to 10162
  157.2480  130.7101  149.6391 H   0  0  0  0  0  0  0  0  0  0  0  0  # atno 10718 bound_to 10713
  153.2064  135.6863  153.8168 H   0  0  0  0  0  0  0  0  0  0  0  0  # atno 10763 bound_to 10752
  153.7416  135.3237  155.3306 H   0  0  0  0  0  0  0  0  0  0  0  0  # atno 10764 bound_to 10752
  154.8199  135.4659  154.0852 H   0  0  0  0  0  0  0  0  0  0  0  0  # atno 10765 bound_to 10752
  140.7231  133.8812  155.8835 H   0  0  0  0  0  0  0  0  0  0  0  0  # atno 11005 bound_to 11000
  146.3134  139.7830  142.9002 LP  0  0  0  0  0  0  0  0  0  0  0  0  # atno 17320 bound_to 7965
  145.3533  141.0312  143.3326 LP  0  0  0  0  0  0  0  0  0  0  0  0  # atno 17321 bound_to 7965
  140.6435  143.8841  150.6715 LP  0  0  0  0  0  0  0  0  0  0  0  0  # atno 17342 bound_to 10162
  140.2183  143.3829  152.1663 LP  0  0  0  0  0  0  0  0  0  0  0  0  # atno 17343 bound_to 10162
  155.9667  130.4437  150.5431 LP  0  0  0  0  0  0  0  0  0  0  0  0  # atno 17370 bound_to 10713
  157.3308  131.0699  151.1862 LP  0  0  0  0  0  0  0  0  0  0  0  0  # atno 17371 bound_to 10713
  140.9986  134.1181  157.4339 LP  0  0  0  0  0  0  0  0  0  0  0  0  # atno 17394 bound_to 11000
  139.8843  135.0062  156.6362 LP  0  0  0  0  0  0  0  0  0  0  0  0  # atno 17395 bound_to 11000

$$$$
