AV-unprocessed.smi:3303|AV-procd|sdf|12677|dock2
  -GOLD-   2272019 13D 1   1.00000     0.00000
 Structure written by MMmdl.
 44 45  0  0  0  0  0  0  0  0  2 V2000
  147.2740  142.3908  154.1271 C   0  0  0  0  0  0  0  0  0  0  0  0
  148.1364  141.1181  154.1278 C   0  0  2  0  0  0  0  0  0  0  0  0
  147.4657  139.9614  154.8931 C   0  0  0  0  0  0  0  0  0  0  0  0
  148.2425  138.7245  154.7687 N   0  0  0  0  0  0  0  0  0  0  0  0
  147.4873  137.6708  155.4420 C   0  0  0  0  0  0  0  0  0  0  0  0
  149.5909  138.8877  155.3408 C   0  0  1  0  0  0  0  0  0  0  0  0
  150.4216  137.5925  155.2376 C   0  0  0  0  0  0  0  0  0  0  0  0
  150.3341  140.0307  154.6101 C   0  0  0  0  0  0  0  0  0  0  0  0
  149.5654  141.3591  154.6502 C   0  0  2  0  0  0  0  0  0  0  0  0
  149.5660  141.9146  156.0242 N   0  3  0  0  0  0  0  0  0  0  0  0
  150.8211  141.7152  156.7757 C   0  0  0  0  0  0  0  0  0  0  0  0
  151.2394  143.0023  157.4988 C   0  0  0  0  0  0  0  0  0  0  0  0
  151.8862  142.7214  158.8416 C   0  0  0  0  0  0  0  0  0  0  0  0
  152.8117  141.6665  158.9903 C   0  0  0  0  0  0  0  0  0  0  0  0
  153.3785  141.4461  160.2609 C   0  0  0  0  0  0  0  0  0  0  0  0
  152.9993  142.2840  161.3273 C   0  0  0  0  0  0  0  0  0  0  0  0
  152.0650  143.3085  161.0755 C   0  0  0  0  0  0  0  0  0  0  0  0
  151.5141  143.5271  159.8615 N   0  0  0  0  0  0  0  0  0  0  0  0
  147.0923  142.7578  155.1375 H   0  0  0  0  0  0  0  0  0  0  0  0
  146.3032  142.2031  153.6676 H   0  0  0  0  0  0  0  0  0  0  0  0
  147.7547  143.1901  153.5624 H   0  0  0  0  0  0  0  0  0  0  0  0
  148.2221  140.8058  153.0852 H   0  0  0  0  0  0  0  0  0  0  0  0
  147.3349  140.2212  155.9448 H   0  0  0  0  0  0  0  0  0  0  0  0
  146.4682  139.7985  154.4819 H   0  0  0  0  0  0  0  0  0  0  0  0
  147.9335  136.6911  155.2761 H   0  0  0  0  0  0  0  0  0  0  0  0
  146.4698  137.6172  155.0530 H   0  0  0  0  0  0  0  0  0  0  0  0
  147.4304  137.8477  156.5171 H   0  0  0  0  0  0  0  0  0  0  0  0
  149.4940  139.1484  156.3960 H   0  0  0  0  0  0  0  0  0  0  0  0
  151.4540  137.7685  155.5409 H   0  0  0  0  0  0  0  0  0  0  0  0
  150.4405  137.2107  154.2161 H   0  0  0  0  0  0  0  0  0  0  0  0
  150.0406  136.8048  155.8872 H   0  0  0  0  0  0  0  0  0  0  0  0
  151.3276  140.1693  155.0390 H   0  0  0  0  0  0  0  0  0  0  0  0
  150.4953  139.7453  153.5690 H   0  0  0  0  0  0  0  0  0  0  0  0
  150.0665  142.0613  153.9815 H   0  0  0  0  0  0  0  0  0  0  0  0
  149.3849  142.9061  155.9619 H   0  0  0  0  0  0  0  0  0  0  0  0
  150.6812  140.9069  157.4950 H   0  0  0  0  0  0  0  0  0  0  0  0
  151.6081  141.4055  156.0867 H   0  0  0  0  0  0  0  0  0  0  0  0
  151.9339  143.5702  156.8781 H   0  0  0  0  0  0  0  0  0  0  0  0
  150.3708  143.6444  157.6536 H   0  0  0  0  0  0  0  0  0  0  0  0
  153.0830  141.0395  158.1536 H   0  0  0  0  0  0  0  0  0  0  0  0
  154.0916  140.6496  160.4144 H   0  0  0  0  0  0  0  0  0  0  0  0
  153.4147  142.1455  162.3146 H   0  0  0  0  0  0  0  0  0  0  0  0
  151.7514  143.9694  161.8699 H   0  0  0  0  0  0  0  0  0  0  0  0
  148.8127  141.4840  156.5410 H   0  0  0  0  0  0  0  0  0  0  0  0
  1  2  1  0  0  0  0
  1 19  1  0  0  0  0
  1 20  1  0  0  0  0
  1 21  1  0  0  0  0
  2  9  1  0  0  0  0
  2  3  1  0  0  0  0
  2 22  1  0  0  0  0
  3  4  1  0  0  0  0
  3 23  1  0  0  0  0
  3 24  1  0  0  0  0
  4  5  1  0  0  0  0
  4  6  1  0  0  0  0
  5 25  1  0  0  0  0
  5 26  1  0  0  0  0
  5 27  1  0  0  0  0
  6  7  1  0  0  0  0
  6  8  1  0  0  0  0
  6 28  1  0  0  0  0
  7 29  1  0  0  0  0
  7 30  1  0  0  0  0
  7 31  1  0  0  0  0
  8  9  1  0  0  0  0
  8 32  1  0  0  0  0
  8 33  1  0  0  0  0
  9 10  1  0  0  0  0
  9 34  1  0  0  0  0
 10 11  1  0  0  0  0
 10 35  1  0  0  0  0
 10 44  1  0  0  0  0
 11 12  1  0  0  0  0
 11 36  1  0  0  0  0
 11 37  1  0  0  0  0
 12 13  1  0  0  0  0
 12 38  1  0  0  0  0
 12 39  1  0  0  0  0
 13 18  1  0  0  0  0
 13 14  2  0  0  0  0
 14 15  1  0  0  0  0
 14 40  1  0  0  0  0
 15 16  2  0  0  0  0
 15 41  1  0  0  0  0
 16 17  1  0  0  0  0
 16 42  1  0  0  0  0
 17 18  2  0  0  0  0
 17 43  1  0  0  0  0
M  CHG  1  10   1
M  END
> <s_m_source_file>
AV-unprocessed.smi

> <i_m_source_file_index>
3303

> <i_lp_mmshare_version>
43012

> <i_f3d_flags>
0

> <s_epik_input>
W0NIM11bQ0BASF0xW0NIMl1OKFtDSDNdKVtDQEBIXShbQ0gzXSlbQ0gyXVtDQEhdMVtOSF1bQ0gyXVtDSDJdYzJbY0hdW2NIXVtjSF1bY0hdbjI=

> <s_epik_cmdline>
J2VwaWtfcHl0aG9uJywgJy1waCcsICc3LjAnLCAnLXRuJywgJzgnLCAnLW1hJywgJzIwMCcsICctbWV0YWxfYmluZGluZycsICctaW1hZScsICc8aW5maWxlLm1hZT4nLCAnLW9tYWUnLCAnPG91dGZpbGUubWFlPic=

> <r_epik_Ionization_Penalty>
1.37325

> <r_epik_Ionization_Penalty_Charging>
0.000251572

> <r_epik_Ionization_Penalty_Neutral>
1.373

> <r_epik_State_Penalty>
1.46343

> <r_epik_Charging_Adjusted_Penalty>
1.46368

> <i_epik_Tot_Q>
1

> <i_epik_Tot_abs_Q>
1

> <r_epik_Metal_State_Penalty>
1.46331

> <b_epik_Metal_Only>
0

> <s_lp_Force_Field>
OPLS_2005

> <r_lp_Energy>
25.9316

> <b_lp_Chiralities_Consistent>
1

> <s_lp_Variant>
AV-unprocessed.smi:3303-21

> <Gold.Version>
5.8.1

> <Gold.Id.Protein>
6NUR|6NUR_protein|mol2

> <Gold.PLP.Fitness>
40.6738

> <Gold.PLP.PLP>
-36.6888

> <Gold.PLP.part.hbond>
-1.0000

> <Gold.PLP.part.metal>
0.0000

> <Gold.PLP.part.buried>
-2.3411

> <Gold.PLP.part.nonpolar>
-32.7992

> <Gold.PLP.part.repulsive>
0.2071

> <Gold.PLP.ligand.clash>
0.0000

> <Gold.PLP.ligand.torsion>
1.0296

> <Gold.PLP.Chemscore.Hbond>
2.0000

> <Gold.PLP.Chemscore.CHOScore>
0.0000

> <Gold.PLP.Chemscore.Metal>
0.0000

> <Gold.Chemscore.Hbonds>
donor molecule, donor type, donor heavy atom, donor atom, acceptor molecule, acceptor atom, score
      L1  H    10    35       P1  8028  2.00

> <Gold.PLP.Chemscore.Internal.Correction>
0.0442

> <Gold.Rescore>
     Score         DG    S(hbond)    S(metal)    S(lipo)     H(rot)  DE(clash)    DE(int)     intcor
     18.01     -18.77       1.00        0.00     114.22       1.33       0.09       0.67       ----

> <Gold.Chemscore.Fitness>
18.0108

> <Gold.Chemscore.DG>
-18.7682

> <Gold.Chemscore.ZeroCoef>
-5.4800

> <Gold.Chemscore.Hbond>
0.9966

> <Gold.Chemscore.Metal>
0.0000

> <Gold.Chemscore.Lipo>
114.2220

> <Gold.Chemscore.Internal_Hbond>
0.0000

> <Gold.Chemscore.DEClash>
0.0898

> <Gold.Chemscore.DEInternal>
0.6676

> <Gold.Chemscore.Rot>
1.3298

> <Gold.Chemscore.Internal.Correction>
   9.000000E+99

> <Gold.Chemscore.Hbonds>
donor molecule, donor type, donor heavy atom, donor atom, acceptor molecule, acceptor atom, score
      L1  H    10    35       P1  8028  1.00

> <Gold.Chemscore.Hbond.Weighted>
-3.3286

> <Gold.Chemscore.Metal.Weighted>
-0.0000

> <Gold.Chemscore.Lipo.Weighted>
-13.3640

> <Gold.Chemscore.Internal_Hbond.Weighted>
0.0000

> <Gold.Chemscore.DEClash.Weighted>
0.0898

> <Gold.Chemscore.DEInternal.Weighted>
0.6676

> <Gold.Chemscore.Rot.Weighted>
3.4043

> <Gold.Chemscore.Internal.Correction.Weighted>
   9.000000E+99

> <Gold.Protein.RotatedTorsions>
[ 6907 6896 6895 6894 ] final    5.01 input  -60.11 | X-H torsion
[ 7974 7965 7964 7962 ] final  150.24 input  175.53 | X-H torsion
[ 8008 7997 7996 7995 ] final   94.86 input   59.86 | X-H torsion
[ 10167 10162 10161 10158 ] final  163.62 input  -65.29 | X-H torsion
[ 10718 10713 10712 10709 ] final   74.82 input   66.30 | X-H torsion
[ 10763 10752 10751 10750 ] final    9.52 input  -60.55 | X-H torsion
[ 11005 11000 10999 10996 ] final   65.62 input  -57.11 | X-H torsion

> <Gold.Protein.ActiveResidues>
 VAL166  LYS551  ARG553  GLY616  TRP617  ASP618  TYR619  PRO620  LYS621  CYS622 
 ASP623  PHE694  ASN695  SER759  ASP760  ASP761  ALA762  ILE779  LEU786  VAL792 
 PHE793  MET794  SER795  GLU796  ALA797  LYS798  CYS799  TRP800  GLU811  SER814 

> <Gold.Protein.RotatedAtoms>
  151.6505  135.1002  160.0159 H   0  0  0  0  0  0  0  0  0  0  0  0  # atno 6907 bound_to 6896
  152.4003  133.6804  159.6319 H   0  0  0  0  0  0  0  0  0  0  0  0  # atno 6908 bound_to 6896
  150.7904  133.8719  159.3302 H   0  0  0  0  0  0  0  0  0  0  0  0  # atno 6909 bound_to 6896
  144.8379  139.6383  143.6030 H   0  0  0  0  0  0  0  0  0  0  0  0  # atno 7974 bound_to 7965
  156.0625  140.3294  155.7479 H   0  0  0  0  0  0  0  0  0  0  0  0  # atno 8008 bound_to 7997
  155.5432  140.0603  157.2883 H   0  0  0  0  0  0  0  0  0  0  0  0  # atno 8009 bound_to 7997
  154.4489  140.1907  156.0600 H   0  0  0  0  0  0  0  0  0  0  0  0  # atno 8010 bound_to 7997
  139.4876  144.4318  151.9060 H   0  0  0  0  0  0  0  0  0  0  0  0  # atno 10167 bound_to 10162
  157.6608  130.9696  150.1265 H   0  0  0  0  0  0  0  0  0  0  0  0  # atno 10718 bound_to 10713
  153.2131  135.6871  153.8090 H   0  0  0  0  0  0  0  0  0  0  0  0  # atno 10763 bound_to 10752
  153.7315  135.3252  155.3288 H   0  0  0  0  0  0  0  0  0  0  0  0  # atno 10764 bound_to 10752
  154.8232  135.4637  154.0947 H   0  0  0  0  0  0  0  0  0  0  0  0  # atno 10765 bound_to 10752
  139.9883  134.6633  156.0137 H   0  0  0  0  0  0  0  0  0  0  0  0  # atno 11005 bound_to 11000
  146.2675  139.6555  142.9319 LP  0  0  0  0  0  0  0  0  0  0  0  0  # atno 17320 bound_to 7965
  145.4756  141.0437  143.2674 LP  0  0  0  0  0  0  0  0  0  0  0  0  # atno 17321 bound_to 7965
  140.3766  144.2788  150.5913 LP  0  0  0  0  0  0  0  0  0  0  0  0  # atno 17342 bound_to 10162
  140.5271  143.2252  151.8298 LP  0  0  0  0  0  0  0  0  0  0  0  0  # atno 17343 bound_to 10162
  156.2122  130.3667  149.8656 LP  0  0  0  0  0  0  0  0  0  0  0  0  # atno 17370 bound_to 10713
  156.6531  130.8752  151.3535 LP  0  0  0  0  0  0  0  0  0  0  0  0  # atno 17371 bound_to 10713
  141.1543  133.6544  156.4113 LP  0  0  0  0  0  0  0  0  0  0  0  0  # atno 17394 bound_to 11000
  140.4959  134.6531  157.5229 LP  0  0  0  0  0  0  0  0  0  0  0  0  # atno 17395 bound_to 11000

$$$$
