AV-unprocessed.smi:2923|AV-procd|sdf|11213|dock4
  -GOLD-   2272016103D 1   1.00000     0.00000
 Structure written by MMmdl.
 46 48  0  0  0  0  0  0  0  0  1 V2000
  146.0297  129.9683  151.9494 C   0  0  0  0  0  0  0  0  0  0  0  0
  147.0724  129.7449  152.9387 N   0  0  0  0  0  0  0  0  0  0  0  0
  147.9957  128.6544  152.6648 C   0  0  0  0  0  0  0  0  0  0  0  0
  147.7165  130.9279  153.3239 C   0  0  0  0  0  0  0  0  0  0  0  0
  148.6621  130.9417  154.3743 C   0  0  0  0  0  0  0  0  0  0  0  0
  149.2797  132.1600  154.7153 C   0  0  0  0  0  0  0  0  0  0  0  0
  148.9378  133.3262  153.9900 C   0  0  0  0  0  0  0  0  0  0  0  0
  149.4752  134.6164  154.2461 N   0  0  0  0  0  0  0  0  0  0  0  0
  150.3441  134.9886  155.2013 C   0  0  0  0  0  0  0  0  0  0  0  0
  150.8402  134.2421  156.0448 O   0  0  0  0  0  0  0  0  0  0  0  0
  150.6239  136.2950  155.1117 N   0  0  0  0  0  0  0  0  0  0  0  0
  151.5356  137.0289  155.9919 C   0  0  1  0  0  0  0  0  0  0  0  0
  151.6131  138.5354  155.6561 C   0  0  1  0  0  0  0  0  0  0  0  0
  151.0334  139.1260  154.3938 C   0  0  0  0  0  0  0  0  0  0  0  0
  149.6705  139.6474  154.8588 C   0  0  0  0  0  0  0  0  0  0  0  0
  149.3880  138.9172  156.0508 O   0  0  0  0  0  0  0  0  0  0  0  0
  150.6092  138.7726  156.7727 C   0  0  1  0  0  0  0  0  0  0  0  0
  150.8989  137.3764  157.3633 C   0  0  0  0  0  0  0  0  0  0  0  0
  149.6823  136.5704  157.8389 C   0  0  0  0  0  0  0  0  0  0  0  0
  151.8912  137.3849  158.5300 C   0  0  0  0  0  0  0  0  0  0  0  0
  147.9721  133.2043  152.9695 C   0  0  0  0  0  0  0  0  0  0  0  0
  147.3777  132.0393  152.6359 N   0  0  0  0  0  0  0  0  0  0  0  0
  145.3855  130.7978  152.2439 H   0  0  0  0  0  0  0  0  0  0  0  0
  145.4077  129.0783  151.8511 H   0  0  0  0  0  0  0  0  0  0  0  0
  146.4599  130.1944  150.9732 H   0  0  0  0  0  0  0  0  0  0  0  0
  148.7279  128.5564  153.4674 H   0  0  0  0  0  0  0  0  0  0  0  0
  148.5292  128.8170  151.7276 H   0  0  0  0  0  0  0  0  0  0  0  0
  147.4522  127.7124  152.5890 H   0  0  0  0  0  0  0  0  0  0  0  0
  148.9102  130.0388  154.9129 H   0  0  0  0  0  0  0  0  0  0  0  0
  149.9874  132.1750  155.5292 H   0  0  0  0  0  0  0  0  0  0  0  0
  149.2126  135.3319  153.5841 H   0  0  0  0  0  0  0  0  0  0  0  0
  150.1725  136.8302  154.3843 H   0  0  0  0  0  0  0  0  0  0  0  0
  152.5254  136.5792  156.0889 H   0  0  0  0  0  0  0  0  0  0  0  0
  152.5917  138.9403  155.9190 H   0  0  0  0  0  0  0  0  0  0  0  0
  151.6482  139.9345  153.9971 H   0  0  0  0  0  0  0  0  0  0  0  0
  150.9260  138.3832  153.6034 H   0  0  0  0  0  0  0  0  0  0  0  0
  149.7296  140.7096  155.1004 H   0  0  0  0  0  0  0  0  0  0  0  0
  148.8898  139.5106  154.1106 H   0  0  0  0  0  0  0  0  0  0  0  0
  150.8444  139.6259  157.4105 H   0  0  0  0  0  0  0  0  0  0  0  0
  149.2759  136.9712  158.7680 H   0  0  0  0  0  0  0  0  0  0  0  0
  149.9415  135.5262  158.0166 H   0  0  0  0  0  0  0  0  0  0  0  0
  148.8692  136.5818  157.1129 H   0  0  0  0  0  0  0  0  0  0  0  0
  151.4675  137.8645  159.4129 H   0  0  0  0  0  0  0  0  0  0  0  0
  152.8041  137.9258  158.2789 H   0  0  0  0  0  0  0  0  0  0  0  0
  152.1846  136.3733  158.8125 H   0  0  0  0  0  0  0  0  0  0  0  0
  147.6681  134.0682  152.3965 H   0  0  0  0  0  0  0  0  0  0  0  0
  1  2  1  0  0  0  0
  1 23  1  0  0  0  0
  1 24  1  0  0  0  0
  1 25  1  0  0  0  0
  2  3  1  0  0  0  0
  2  4  1  0  0  0  0
  3 26  1  0  0  0  0
  3 27  1  0  0  0  0
  3 28  1  0  0  0  0
  4 22  1  0  0  0  0
  4  5  2  0  0  0  0
  5  6  1  0  0  0  0
  5 29  1  0  0  0  0
  6  7  2  0  0  0  0
  6 30  1  0  0  0  0
  7  8  1  0  0  0  0
  7 21  1  0  0  0  0
  8  9  1  0  0  0  0
  8 31  1  0  0  0  0
  9 10  2  0  0  0  0
  9 11  1  0  0  0  0
 11 12  1  0  0  0  0
 11 32  1  0  0  0  0
 12 18  1  0  0  0  0
 12 13  1  0  0  0  0
 12 33  1  0  0  0  0
 13 17  1  0  0  0  0
 13 14  1  0  0  0  0
 13 34  1  0  0  0  0
 14 15  1  0  0  0  0
 14 35  1  0  0  0  0
 14 36  1  0  0  0  0
 15 16  1  0  0  0  0
 15 37  1  0  0  0  0
 15 38  1  0  0  0  0
 16 17  1  0  0  0  0
 17 18  1  0  0  0  0
 17 39  1  0  0  0  0
 18 19  1  0  0  0  0
 18 20  1  0  0  0  0
 19 40  1  0  0  0  0
 19 41  1  0  0  0  0
 19 42  1  0  0  0  0
 20 43  1  0  0  0  0
 20 44  1  0  0  0  0
 20 45  1  0  0  0  0
 21 22  2  0  0  0  0
 21 46  1  0  0  0  0
M  END
> <s_m_source_file>
AV-unprocessed.smi

> <i_m_source_file_index>
2923

> <i_lp_mmshare_version>
43012

> <i_f3d_flags>
0

> <s_epik_input>
W0NIM11OKFtDSDNdKWMxW2NIXVtjSF1jKFtjSF1uMSlbTkhdQyg9TylbTkhdW0NASF0yQyhbQ0gzXSkoW0NIM10pW0NAQEhdKFtDQEhdMjMpT1tDSDJdW0NIMl0z

> <s_epik_cmdline>
J2VwaWtfcHl0aG9uJywgJy1waCcsICc3LjAnLCAnLXRuJywgJzgnLCAnLW1hJywgJzIwMCcsICctbWV0YWxfYmluZGluZycsICctaW1hZScsICc8aW5maWxlLm1hZT4nLCAnLW9tYWUnLCAnPG91dGZpbGUubWFlPic=

> <r_lp_tautomer_probability>
1

> <r_epik_Ionization_Penalty>
0.628785

> <r_epik_Ionization_Penalty_Charging>
0

> <r_epik_Ionization_Penalty_Neutral>
0.628785

> <r_epik_State_Penalty>
0.644286

> <r_epik_Charging_Adjusted_Penalty>
0.644286

> <i_epik_Tot_Q>
0

> <i_epik_Tot_abs_Q>
0

> <r_epik_Metal_State_Penalty>
0.308404

> <b_epik_Metal_Only>
0

> <s_lp_Force_Field>
OPLS_2005

> <r_lp_Energy>
44.9089

> <b_lp_Chiralities_Consistent>
1

> <s_lp_Variant>
AV-unprocessed.smi:2923-12

> <Gold.Version>
5.8.1

> <Gold.Id.Protein>
6NUR|6NUR_protein|mol2

> <Gold.PLP.Fitness>
35.5353

> <Gold.PLP.PLP>
-29.6421

> <Gold.PLP.part.hbond>
-1.0000

> <Gold.PLP.part.metal>
0.0000

> <Gold.PLP.part.buried>
-3.0608

> <Gold.PLP.part.nonpolar>
-25.5450

> <Gold.PLP.part.repulsive>
0.8397

> <Gold.PLP.ligand.clash>
0.0000

> <Gold.PLP.ligand.torsion>
0.2335

> <Gold.PLP.Chemscore.Hbond>
1.0000

> <Gold.PLP.Chemscore.CHOScore>
0.9880

> <Gold.PLP.Chemscore.Metal>
0.0000

> <Gold.Chemscore.Hbonds>
donor molecule, donor type, donor heavy atom, donor atom, acceptor molecule, acceptor atom, score
      L1  H     8    31       P1  7948  1.00
      L1  C    21    46       P1  7948  0.99

> <Gold.PLP.Chemscore.Internal.Correction>
0.3960

> <Gold.Rescore>
     Score         DG    S(hbond)    S(metal)    S(lipo)     H(rot)  DE(clash)    DE(int)     intcor
     12.48     -13.95       0.74        0.00      77.45       1.19       0.00       1.47       ----

> <Gold.Chemscore.Fitness>
12.4822

> <Gold.Chemscore.DG>
-13.9511

> <Gold.Chemscore.ZeroCoef>
-5.4800

> <Gold.Chemscore.Hbond>
0.7382

> <Gold.Chemscore.Metal>
0.0000

> <Gold.Chemscore.Lipo>
77.4468

> <Gold.Chemscore.Internal_Hbond>
0.0000

> <Gold.Chemscore.DEClash>
0.0029

> <Gold.Chemscore.DEInternal>
1.4660

> <Gold.Chemscore.Rot>
1.1937

> <Gold.Chemscore.Internal.Correction>
   9.000000E+99

> <Gold.Chemscore.Hbonds>
donor molecule, donor type, donor heavy atom, donor atom, acceptor molecule, acceptor atom, score
      L1  H     8    31       P1  7948  0.34

> <Gold.Chemscore.Hbond.Weighted>
-2.4657

> <Gold.Chemscore.Metal.Weighted>
-0.0000

> <Gold.Chemscore.Lipo.Weighted>
-9.0613

> <Gold.Chemscore.Internal_Hbond.Weighted>
0.0000

> <Gold.Chemscore.DEClash.Weighted>
0.0029

> <Gold.Chemscore.DEInternal.Weighted>
1.4660

> <Gold.Chemscore.Rot.Weighted>
3.0559

> <Gold.Chemscore.Internal.Correction.Weighted>
   9.000000E+99

> <Gold.Protein.RotatedTorsions>
[ 6907 6896 6895 6894 ] final -167.54 input  -60.11 | X-H torsion
[ 7974 7965 7964 7962 ] final  -14.08 input  175.53 | X-H torsion
[ 8008 7997 7996 7995 ] final   29.19 input   59.86 | X-H torsion
[ 10167 10162 10161 10158 ] final   18.74 input  -65.29 | X-H torsion
[ 10718 10713 10712 10709 ] final   -3.08 input   66.30 | X-H torsion
[ 10763 10752 10751 10750 ] final  -14.22 input  -60.55 | X-H torsion
[ 11005 11000 10999 10996 ] final  125.41 input  -57.11 | X-H torsion

> <Gold.Protein.ActiveResidues>
 VAL166  LYS551  ARG553  GLY616  TRP617  ASP618  TYR619  PRO620  LYS621  CYS622 
 ASP623  PHE694  ASN695  SER759  ASP760  ASP761  ALA762  ILE779  LEU786  VAL792 
 PHE793  MET794  SER795  GLU796  ALA797  LYS798  CYS799  TRP800  GLU811  SER814 

> <Gold.Protein.RotatedAtoms>
  151.4612  133.3592  159.2809 H   0  0  0  0  0  0  0  0  0  0  0  0  # atno 6907 bound_to 6896
  150.9024  134.8439  159.7380 H   0  0  0  0  0  0  0  0  0  0  0  0  # atno 6908 bound_to 6896
  152.4887  134.4533  159.9633 H   0  0  0  0  0  0  0  0  0  0  0  0  # atno 6909 bound_to 6896
  146.2089  140.3296  142.8398 H   0  0  0  0  0  0  0  0  0  0  0  0  # atno 7974 bound_to 7965
  155.0706  140.3200  155.4631 H   0  0  0  0  0  0  0  0  0  0  0  0  # atno 8008 bound_to 7997
  156.2791  140.2112  156.5779 H   0  0  0  0  0  0  0  0  0  0  0  0  # atno 8009 bound_to 7997
  154.7058  140.0503  157.0489 H   0  0  0  0  0  0  0  0  0  0  0  0  # atno 8010 bound_to 7997
  140.5631  143.9301  150.6656 H   0  0  0  0  0  0  0  0  0  0  0  0  # atno 10167 bound_to 10162
  156.7814  130.5332  149.5750 H   0  0  0  0  0  0  0  0  0  0  0  0  # atno 10718 bound_to 10713
  153.5250  135.7015  153.5712 H   0  0  0  0  0  0  0  0  0  0  0  0  # atno 10763 bound_to 10752
  153.3744  135.3936  155.1812 H   0  0  0  0  0  0  0  0  0  0  0  0  # atno 10764 bound_to 10752
  154.8691  135.3820  154.4742 H   0  0  0  0  0  0  0  0  0  0  0  0  # atno 10765 bound_to 10752
  139.9405  134.9636  156.8555 H   0  0  0  0  0  0  0  0  0  0  0  0  # atno 11005 bound_to 11000
  144.8862  140.7464  143.5956 LP  0  0  0  0  0  0  0  0  0  0  0  0  # atno 17320 bound_to 7965
  145.3217  139.1786  143.4584 LP  0  0  0  0  0  0  0  0  0  0  0  0  # atno 17321 bound_to 7965
  140.2757  143.3424  152.1197 LP  0  0  0  0  0  0  0  0  0  0  0  0  # atno 17342 bound_to 10162
  139.5079  144.6841  151.5933 LP  0  0  0  0  0  0  0  0  0  0  0  0  # atno 17343 bound_to 10162
  156.1216  130.6114  151.0201 LP  0  0  0  0  0  0  0  0  0  0  0  0  # atno 17370 bound_to 10713
  157.6644  131.0874  150.7762 LP  0  0  0  0  0  0  0  0  0  0  0  0  # atno 17371 bound_to 10713
  140.5963  134.0214  155.7519 LP  0  0  0  0  0  0  0  0  0  0  0  0  # atno 17394 bound_to 11000
  141.1038  133.9726  157.3033 LP  0  0  0  0  0  0  0  0  0  0  0  0  # atno 17395 bound_to 11000

$$$$
