AV-unprocessed.smi:1424|AV-procd|sdf|5802|dock1
  -GOLD-   22720 5453D 1   1.00000     0.00000
 Structure written by MMmdl.
 46 48  0  0  0  0  0  0  0  0  2 V2000
  151.2330  135.3642  155.7933 O   0  0  0  0  0  0  0  0  0  0  0  0
  150.6165  135.6783  154.7753 C   0  0  0  0  0  0  0  0  0  0  0  0
  150.7080  136.8830  154.1950 N   0  0  0  0  0  0  0  0  0  0  0  0
  151.5303  137.9850  154.6838 C   0  0  0  0  0  0  0  0  0  0  0  0
  150.6895  139.0663  155.3904 C   0  0  1  0  0  0  0  0  0  0  0  0
  151.4900  140.3568  155.6504 C   0  0  0  0  0  0  0  0  0  0  0  0
  150.5169  141.4517  156.0974 C   0  0  0  0  0  0  0  0  0  0  0  0
  148.9686  141.1408  155.1709 S   0  0  0  0  0  0  0  0  0  0  0  0
  147.8468  141.0701  156.1192 O   0  0  0  0  0  0  0  0  0  0  0  0
  148.9140  142.0247  153.9967 O   0  0  0  0  0  0  0  0  0  0  0  0
  149.4137  139.4496  154.6199 C   0  0  0  0  0  0  0  0  0  0  0  0
  149.7551  134.8841  154.1178 N   0  0  0  0  0  0  0  0  0  0  0  0
  149.3698  133.5516  154.4403 C   0  0  0  0  0  0  0  0  0  0  0  0
  150.0993  132.7852  155.3855 C   0  0  0  0  0  0  0  0  0  0  0  0
  149.6856  131.4774  155.7010 C   0  0  0  0  0  0  0  0  0  0  0  0
  148.5499  130.9514  155.0627 C   0  0  0  0  0  0  0  0  0  0  0  0
  147.8893  131.6969  154.1530 N   0  3  0  0  0  0  0  0  0  0  0  0
  148.2460  132.9562  153.7955 C   0  0  0  0  0  0  0  0  0  0  0  0
  147.4613  133.6089  152.8171 N   0  0  0  0  0  0  0  0  0  0  0  0
  146.5032  134.6383  153.2038 C   0  0  0  0  0  0  0  0  0  0  0  0
  145.6295  134.8490  151.9702 C   0  0  0  0  0  0  0  0  0  0  0  0
  145.5521  133.4447  151.3793 C   0  0  0  0  0  0  0  0  0  0  0  0
  146.9222  132.8384  151.7009 C   0  0  0  0  0  0  0  0  0  0  0  0
  150.1650  137.0569  153.3620 H   0  0  0  0  0  0  0  0  0  0  0  0
  152.3009  137.6035  155.3561 H   0  0  0  0  0  0  0  0  0  0  0  0
  152.0550  138.4177  153.8314 H   0  0  0  0  0  0  0  0  0  0  0  0
  150.3799  138.6864  156.3653 H   0  0  0  0  0  0  0  0  0  0  0  0
  152.2791  140.2019  156.3866 H   0  0  0  0  0  0  0  0  0  0  0  0
  151.9746  140.6726  154.7254 H   0  0  0  0  0  0  0  0  0  0  0  0
  150.2970  141.3625  157.1616 H   0  0  0  0  0  0  0  0  0  0  0  0
  150.8827  142.4589  155.8980 H   0  0  0  0  0  0  0  0  0  0  0  0
  149.5983  139.4890  153.5461 H   0  0  0  0  0  0  0  0  0  0  0  0
  148.5848  138.7664  154.8051 H   0  0  0  0  0  0  0  0  0  0  0  0
  149.2449  135.3146  153.3607 H   0  0  0  0  0  0  0  0  0  0  0  0
  150.9783  133.1797  155.8727 H   0  0  0  0  0  0  0  0  0  0  0  0
  150.2322  130.8886  156.4232 H   0  0  0  0  0  0  0  0  0  0  0  0
  148.1568  129.9614  155.2434 H   0  0  0  0  0  0  0  0  0  0  0  0
  145.8863  134.2917  154.0342 H   0  0  0  0  0  0  0  0  0  0  0  0
  147.0049  135.5580  153.5065 H   0  0  0  0  0  0  0  0  0  0  0  0
  144.6514  135.2677  152.2084 H   0  0  0  0  0  0  0  0  0  0  0  0
  146.1267  135.5215  151.2695 H   0  0  0  0  0  0  0  0  0  0  0  0
  144.7708  132.8772  151.8869 H   0  0  0  0  0  0  0  0  0  0  0  0
  145.3279  133.4432  150.3121 H   0  0  0  0  0  0  0  0  0  0  0  0
  147.5876  132.9496  150.8443 H   0  0  0  0  0  0  0  0  0  0  0  0
  146.8406  131.7761  151.9345 H   0  0  0  0  0  0  0  0  0  0  0  0
  147.0745  131.2830  153.6998 H   0  0  0  0  0  0  0  0  0  0  0  0
  1  2  2  0  0  0  0
  2  3  1  0  0  0  0
  2 12  1  0  0  0  0
  3  4  1  0  0  0  0
  3 24  1  0  0  0  0
  4  5  1  0  0  0  0
  4 25  1  0  0  0  0
  4 26  1  0  0  0  0
  5 11  1  0  0  0  0
  5  6  1  0  0  0  0
  5 27  1  0  0  0  0
  6  7  1  0  0  0  0
  6 28  1  0  0  0  0
  6 29  1  0  0  0  0
  7  8  1  0  0  0  0
  7 30  1  0  0  0  0
  7 31  1  0  0  0  0
  8  9  2  0  0  0  0
  8 10  2  0  0  0  0
  8 11  1  0  0  0  0
 11 32  1  0  0  0  0
 11 33  1  0  0  0  0
 12 13  1  0  0  0  0
 12 34  1  0  0  0  0
 13 18  1  0  0  0  0
 13 14  2  0  0  0  0
 14 15  1  0  0  0  0
 14 35  1  0  0  0  0
 15 16  2  0  0  0  0
 15 36  1  0  0  0  0
 16 17  1  0  0  0  0
 16 37  1  0  0  0  0
 17 18  2  0  0  0  0
 17 46  1  0  0  0  0
 18 19  1  0  0  0  0
 19 23  1  0  0  0  0
 19 20  1  0  0  0  0
 20 21  1  0  0  0  0
 20 38  1  0  0  0  0
 20 39  1  0  0  0  0
 21 22  1  0  0  0  0
 21 40  1  0  0  0  0
 21 41  1  0  0  0  0
 22 23  1  0  0  0  0
 22 42  1  0  0  0  0
 22 43  1  0  0  0  0
 23 44  1  0  0  0  0
 23 45  1  0  0  0  0
M  CHG  1  17   1
M  END
> <s_m_source_file>
AV-unprocessed.smi

> <i_m_source_file_index>
1424

> <i_lp_mmshare_version>
43012

> <i_f3d_flags>
0

> <s_epik_input>
Tz1TMSg9TylbQ0gyXVtDSDJdW0NASF0oW0NIMl0xKVtDSDJdW05IXUMoPU8pW05IXWMyW2NIXVtjSF1bY0hdbmMyTjNbQ0gyXVtDSDJdW0NIMl1bQ0gyXTM=

> <s_epik_cmdline>
J2VwaWtfcHl0aG9uJywgJy1waCcsICc3LjAnLCAnLXRuJywgJzgnLCAnLW1hJywgJzIwMCcsICctbWV0YWxfYmluZGluZycsICctaW1hZScsICc8aW5maWxlLm1hZT4nLCAnLW9tYWUnLCAnPG91dGZpbGUubWFlPic=

> <r_lp_tautomer_probability>
0.999994

> <r_epik_Ionization_Penalty>
1.12573

> <r_epik_Ionization_Penalty_Charging>
1.12571

> <r_epik_Ionization_Penalty_Neutral>
1.92863e-05

> <r_epik_State_Penalty>
1.18495

> <r_epik_Charging_Adjusted_Penalty>
2.31065

> <i_epik_Tot_Q>
1

> <i_epik_Tot_abs_Q>
1

> <r_epik_Metal_State_Penalty>
1.26881

> <b_epik_Metal_Only>
0

> <s_lp_Force_Field>
OPLS_2005

> <r_lp_Energy>
39.7192

> <b_lp_Chiralities_Consistent>
1

> <s_lp_Variant>
AV-unprocessed.smi:1424-4

> <Gold.Version>
5.8.1

> <Gold.Id.Protein>
6NUR|6NUR_protein|mol2

> <Gold.PLP.Fitness>
44.4862

> <Gold.PLP.PLP>
-36.7367

> <Gold.PLP.part.hbond>
-5.8099

> <Gold.PLP.part.metal>
0.0000

> <Gold.PLP.part.buried>
-0.6051

> <Gold.PLP.part.nonpolar>
-32.0856

> <Gold.PLP.part.repulsive>
0.9409

> <Gold.PLP.ligand.clash>
0.0000

> <Gold.PLP.ligand.torsion>
0.7699

> <Gold.PLP.Chemscore.Hbond>
2.9616

> <Gold.PLP.Chemscore.CHOScore>
0.0000

> <Gold.PLP.Chemscore.Metal>
0.0000

> <Gold.Chemscore.Hbonds>
donor molecule, donor type, donor heavy atom, donor atom, acceptor molecule, acceptor atom, score
      L1  H     3    24       P1  7948  0.71
      L1  H    12    34       P1  7948  0.95
      P1  H  8011  8017       L1    10  0.40
      P1  H 10752 10763       L1     1  0.60

> <Gold.PLP.Chemscore.Internal.Correction>
0.4046

> <Gold.Rescore>
     Score         DG    S(hbond)    S(metal)    S(lipo)     H(rot)  DE(clash)    DE(int)     intcor
     12.68     -14.91       1.60        0.00      67.72       1.50       0.09       2.13       ----

> <Gold.Chemscore.Fitness>
12.6806

> <Gold.Chemscore.DG>
-14.9052

> <Gold.Chemscore.ZeroCoef>
-5.4800

> <Gold.Chemscore.Hbond>
1.5967

> <Gold.Chemscore.Metal>
0.0000

> <Gold.Chemscore.Lipo>
67.7154

> <Gold.Chemscore.Internal_Hbond>
0.0000

> <Gold.Chemscore.DEClash>
0.0907

> <Gold.Chemscore.DEInternal>
2.1339

> <Gold.Chemscore.Rot>
1.4962

> <Gold.Chemscore.Internal.Correction>
   9.000000E+99

> <Gold.Chemscore.Hbonds>
donor molecule, donor type, donor heavy atom, donor atom, acceptor molecule, acceptor atom, score
      L1  H     3    24       P1  7948  0.10
      L1  H    12    34       P1  7948  0.21
      P1  H  8011  8017       L1    10  0.40
      P1  H 10752 10763       L1     1  0.04

> <Gold.Chemscore.Hbond.Weighted>
-5.3328

> <Gold.Chemscore.Metal.Weighted>
-0.0000

> <Gold.Chemscore.Lipo.Weighted>
-7.9227

> <Gold.Chemscore.Internal_Hbond.Weighted>
0.0000

> <Gold.Chemscore.DEClash.Weighted>
0.0907

> <Gold.Chemscore.DEInternal.Weighted>
2.1339

> <Gold.Chemscore.Rot.Weighted>
3.8303

> <Gold.Chemscore.Internal.Correction.Weighted>
   9.000000E+99

> <Gold.Protein.RotatedTorsions>
[ 6907 6896 6895 6894 ] final  102.70 input  -60.11 | X-H torsion
[ 7974 7965 7964 7962 ] final -102.85 input  175.53 | X-H torsion
[ 8008 7997 7996 7995 ] final -143.93 input   59.86 | X-H torsion
[ 10167 10162 10161 10158 ] final -115.05 input  -65.29 | X-H torsion
[ 10718 10713 10712 10709 ] final  147.22 input   66.30 | X-H torsion
[ 10763 10752 10751 10750 ] final   75.62 input  -60.55 | X-H torsion
[ 11005 11000 10999 10996 ] final  -22.32 input  -57.11 | X-H torsion

> <Gold.Protein.ActiveResidues>
 VAL166  LYS551  ARG553  GLY616  TRP617  ASP618  TYR619  PRO620  LYS621  CYS622 
 ASP623  PHE694  ASN695  SER759  ASP760  ASP761  ALA762  ILE779  LEU786  VAL792 
 PHE793  MET794  SER795  GLU796  ALA797  LYS798  CYS799  TRP800  GLU811  SER814 

> <Gold.Protein.RotatedAtoms>
  152.5316  133.9937  159.7862 H   0  0  0  0  0  0  0  0  0  0  0  0  # atno 6907 bound_to 6896
  151.0168  133.5906  159.2683 H   0  0  0  0  0  0  0  0  0  0  0  0  # atno 6908 bound_to 6896
  151.2960  135.0762  159.9275 H   0  0  0  0  0  0  0  0  0  0  0  0  # atno 6909 bound_to 6896
  145.2634  140.9276  143.3027 H   0  0  0  0  0  0  0  0  0  0  0  0  # atno 7974 bound_to 7965
  155.5186  140.0589  157.2911 H   0  0  0  0  0  0  0  0  0  0  0  0  # atno 8008 bound_to 7997
  154.4526  140.1956  156.0421 H   0  0  0  0  0  0  0  0  0  0  0  0  # atno 8009 bound_to 7997
  156.0735  140.3257  155.7608 H   0  0  0  0  0  0  0  0  0  0  0  0  # atno 8010 bound_to 7997
  140.0943  143.4671  152.1851 H   0  0  0  0  0  0  0  0  0  0  0  0  # atno 10167 bound_to 10162
  157.3237  131.0908  151.1220 H   0  0  0  0  0  0  0  0  0  0  0  0  # atno 10718 bound_to 10713
  153.0668  135.4982  154.8217 H   0  0  0  0  0  0  0  0  0  0  0  0  # atno 10763 bound_to 10752
  154.6964  135.2993  154.9407 H   0  0  0  0  0  0  0  0  0  0  0  0  # atno 10764 bound_to 10752
  154.0145  135.6750  153.4820 H   0  0  0  0  0  0  0  0  0  0  0  0  # atno 10765 bound_to 10752
  140.8645  133.7764  156.0114 H   0  0  0  0  0  0  0  0  0  0  0  0  # atno 11005 bound_to 11000
  144.9398  139.4202  143.6454 LP  0  0  0  0  0  0  0  0  0  0  0  0  # atno 17320 bound_to 7965
  146.3268  139.8352  142.8901 LP  0  0  0  0  0  0  0  0  0  0  0  0  # atno 17321 bound_to 7965
  139.5707  144.7461  151.3899 LP  0  0  0  0  0  0  0  0  0  0  0  0  # atno 17342 bound_to 10162
  140.7012  143.7627  150.7406 LP  0  0  0  0  0  0  0  0  0  0  0  0  # atno 17343 bound_to 10162
  157.2495  130.6607  149.5925 LP  0  0  0  0  0  0  0  0  0  0  0  0  # atno 17370 bound_to 10713
  155.9688  130.4543  150.5844 LP  0  0  0  0  0  0  0  0  0  0  0  0  # atno 17371 bound_to 10713
  140.8644  134.2802  157.5220 LP  0  0  0  0  0  0  0  0  0  0  0  0  # atno 17394 bound_to 11000
  139.8708  134.9535  156.4147 LP  0  0  0  0  0  0  0  0  0  0  0  0  # atno 17395 bound_to 11000

$$$$
