AV-unprocessed.smi:2701|AV-procd|sdf|10428|dock5
  -GOLD-   2272014463D 1   1.00000     0.00000
 Structure written by MMmdl.
 31 32  0  0  0  0  0  0  0  0  2 V2000
  152.1290  138.8907  155.4162 C   0  0  0  0  0  0  0  0  0  0  0  0
  150.8344  139.5980  155.8659 C   0  0  1  0  0  0  0  0  0  0  0  0
  150.3457  139.0717  157.2381 C   0  0  0  0  0  0  0  0  0  0  0  0
  150.2449  139.8535  158.1847 O   0  0  0  0  0  0  0  0  0  0  0  0
  150.0678  137.7453  157.2146 N   0  5  0  0  0  0  0  0  0  0  0  0
  149.8098  136.8628  158.5507 S   0  0  0  0  0  0  0  0  0  0  0  0
  149.6057  135.4376  158.2462 O   0  0  0  0  0  0  0  0  0  0  0  0
  150.7935  137.1838  159.5966 O   0  0  0  0  0  0  0  0  0  0  0  0
  148.1781  137.4971  159.1611 C   0  0  0  0  0  0  0  0  0  0  0  0
  147.7597  136.7868  160.4188 C   0  0  0  0  0  0  0  0  0  0  0  0
  147.6002  135.3891  160.6297 C   0  0  0  0  0  0  0  0  0  0  0  0
  147.2187  135.3045  161.9375 C   0  0  0  0  0  0  0  0  0  0  0  0
  147.1606  136.5395  162.4963 O   0  0  0  0  0  0  0  0  0  0  0  0
  147.5142  137.4788  161.5211 N   0  0  0  0  0  0  0  0  0  0  0  0
  150.9563  141.1357  155.8267 C   0  0  0  0  0  0  0  0  0  0  0  0
  149.5809  141.5766  155.3772 C   0  0  0  0  0  0  0  0  0  0  0  0
  149.2399  140.4872  154.3711 C   0  0  0  0  0  0  0  0  0  0  0  0
  149.8273  139.2980  154.8913 O   0  0  0  0  0  0  0  0  0  0  0  0
  152.9839  139.1898  156.0239 H   0  0  0  0  0  0  0  0  0  0  0  0
  152.3661  139.1326  154.3799 H   0  0  0  0  0  0  0  0  0  0  0  0
  152.0340  137.8062  155.4837 H   0  0  0  0  0  0  0  0  0  0  0  0
  148.2401  138.5737  159.3117 H   0  0  0  0  0  0  0  0  0  0  0  0
  147.4487  137.3296  158.3689 H   0  0  0  0  0  0  0  0  0  0  0  0
  147.7390  134.5798  159.9295 H   0  0  0  0  0  0  0  0  0  0  0  0
  146.9695  134.4780  162.5861 H   0  0  0  0  0  0  0  0  0  0  0  0
  151.2470  141.5902  156.7742 H   0  0  0  0  0  0  0  0  0  0  0  0
  151.6970  141.4388  155.0854 H   0  0  0  0  0  0  0  0  0  0  0  0
  148.8805  141.5541  156.2130 H   0  0  0  0  0  0  0  0  0  0  0  0
  149.5704  142.5770  154.9444 H   0  0  0  0  0  0  0  0  0  0  0  0
  148.1660  140.3717  154.2242 H   0  0  0  0  0  0  0  0  0  0  0  0
  149.6944  140.7068  153.4042 H   0  0  0  0  0  0  0  0  0  0  0  0
  1  2  1  0  0  0  0
  1 19  1  0  0  0  0
  1 20  1  0  0  0  0
  1 21  1  0  0  0  0
  2 18  1  0  0  0  0
  2  3  1  0  0  0  0
  2 15  1  0  0  0  0
  3  4  2  0  0  0  0
  3  5  1  0  0  0  0
  5  6  1  0  0  0  0
  6  7  2  0  0  0  0
  6  8  2  0  0  0  0
  6  9  1  0  0  0  0
  9 10  1  0  0  0  0
  9 22  1  0  0  0  0
  9 23  1  0  0  0  0
 10 14  2  0  0  0  0
 10 11  1  0  0  0  0
 11 12  2  0  0  0  0
 11 24  1  0  0  0  0
 12 13  1  0  0  0  0
 12 25  1  0  0  0  0
 13 14  1  0  0  0  0
 15 16  1  0  0  0  0
 15 26  1  0  0  0  0
 15 27  1  0  0  0  0
 16 17  1  0  0  0  0
 16 28  1  0  0  0  0
 16 29  1  0  0  0  0
 17 18  1  0  0  0  0
 17 30  1  0  0  0  0
 17 31  1  0  0  0  0
M  CHG  1   5  -1
M  END
> <s_m_source_file>
AV-unprocessed.smi

> <i_m_source_file_index>
2701

> <i_lp_mmshare_version>
43012

> <i_f3d_flags>
0

> <s_epik_input>
TzFbQ0gyXVtDSDJdW0NIMl1bQ0BAXTEoW0NIM10pQyg9TylbTkhdUyg9TykoPU8pW0NIMl1jMltjSF1bY0hdb24y

> <s_epik_cmdline>
J2VwaWtfcHl0aG9uJywgJy1waCcsICc3LjAnLCAnLXRuJywgJzgnLCAnLW1hJywgJzIwMCcsICctbWV0YWxfYmluZGluZycsICctaW1hZScsICc8aW5maWxlLm1hZT4nLCAnLW9tYWUnLCAnPG91dGZpbGUubWFlPic=

> <r_lp_tautomer_probability>
1

> <r_epik_Ionization_Penalty>
0.000279175

> <r_epik_Ionization_Penalty_Charging>
0.000279174

> <r_epik_Ionization_Penalty_Neutral>
1.67252e-10

> <r_epik_State_Penalty>
-0

> <r_epik_Charging_Adjusted_Penalty>
0.000279174

> <i_epik_Tot_Q>
-1

> <i_epik_Tot_abs_Q>
1

> <r_epik_Metal_State_Penalty>
-0

> <b_epik_Metal_Only>
0

> <s_lp_Force_Field>
OPLS_2005

> <r_lp_Energy>
15.6344

> <b_lp_Chiralities_Consistent>
1

> <s_lp_Variant>
AV-unprocessed.smi:2701-1

> <Gold.Version>
5.8.1

> <Gold.Id.Protein>
6NUR|6NUR_protein|mol2

> <Gold.PLP.Fitness>
37.3255

> <Gold.PLP.PLP>
-29.1239

> <Gold.PLP.part.hbond>
-3.7180

> <Gold.PLP.part.metal>
0.0000

> <Gold.PLP.part.buried>
-4.3209

> <Gold.PLP.part.nonpolar>
-21.6166

> <Gold.PLP.part.repulsive>
0.0920

> <Gold.PLP.ligand.clash>
0.0000

> <Gold.PLP.ligand.torsion>
0.6323

> <Gold.PLP.Chemscore.Hbond>
2.7920

> <Gold.PLP.Chemscore.CHOScore>
0.0000

> <Gold.PLP.Chemscore.Metal>
0.0000

> <Gold.Chemscore.Hbonds>
donor molecule, donor type, donor heavy atom, donor atom, acceptor molecule, acceptor atom, score
      P1  H  6896  6907       L1     7  1.00
      P1  H  6931  6943       L1    14  0.80
      P1  H  6934  6947       L1    14  0.78

> <Gold.PLP.Chemscore.Internal.Correction>
1.0903

> <Gold.Rescore>
     Score         DG    S(hbond)    S(metal)    S(lipo)     H(rot)  DE(clash)    DE(int)     intcor
     12.63     -14.29       1.77        0.00      58.90       1.56       0.13       1.53       ----

> <Gold.Chemscore.Fitness>
12.6319

> <Gold.Chemscore.DG>
-14.2913

> <Gold.Chemscore.ZeroCoef>
-5.4800

> <Gold.Chemscore.Hbond>
1.7699

> <Gold.Chemscore.Metal>
0.0000

> <Gold.Chemscore.Lipo>
58.9007

> <Gold.Chemscore.Internal_Hbond>
0.0000

> <Gold.Chemscore.DEClash>
0.1252

> <Gold.Chemscore.DEInternal>
1.5343

> <Gold.Chemscore.Rot>
1.5591

> <Gold.Chemscore.Internal.Correction>
   9.000000E+99

> <Gold.Chemscore.Hbonds>
donor molecule, donor type, donor heavy atom, donor atom, acceptor molecule, acceptor atom, score
      P1  H  6896  6907       L1     7  0.34
      P1  H  6931  6943       L1    14  0.31
      P1  H  6934  6947       L1    14  0.35

> <Gold.Chemscore.Hbond.Weighted>
-5.9113

> <Gold.Chemscore.Metal.Weighted>
-0.0000

> <Gold.Chemscore.Lipo.Weighted>
-6.8914

> <Gold.Chemscore.Internal_Hbond.Weighted>
0.0000

> <Gold.Chemscore.DEClash.Weighted>
0.1252

> <Gold.Chemscore.DEInternal.Weighted>
1.5343

> <Gold.Chemscore.Rot.Weighted>
3.9914

> <Gold.Chemscore.Internal.Correction.Weighted>
   9.000000E+99

> <Gold.Protein.RotatedTorsions>
[ 6907 6896 6895 6894 ] final  -67.92 input  -60.11 | X-H torsion
[ 7974 7965 7964 7962 ] final  127.99 input  175.53 | X-H torsion
[ 8008 7997 7996 7995 ] final -176.41 input   59.86 | X-H torsion
[ 10167 10162 10161 10158 ] final  146.38 input  -65.29 | X-H torsion
[ 10718 10713 10712 10709 ] final -173.32 input   66.30 | X-H torsion
[ 10763 10752 10751 10750 ] final  118.67 input  -60.55 | X-H torsion
[ 11005 11000 10999 10996 ] final  -52.20 input  -57.11 | X-H torsion

> <Gold.Protein.ActiveResidues>
 VAL166  LYS551  ARG553  GLY616  TRP617  ASP618  TYR619  PRO620  LYS621  CYS622 
 ASP623  PHE694  ASN695  SER759  ASP760  ASP761  ALA762  ILE779  LEU786  VAL792 
 PHE793  MET794  SER795  GLU796  ALA797  LYS798  CYS799  TRP800  GLU811  SER814 

> <Gold.Protein.RotatedAtoms>
  150.7383  134.5812  159.5939 H   0  0  0  0  0  0  0  0  0  0  0  0  # atno 6907 bound_to 6896
  152.3225  134.7359  160.0319 H   0  0  0  0  0  0  0  0  0  0  0  0  # atno 6908 bound_to 6896
  151.7869  133.3319  159.3524 H   0  0  0  0  0  0  0  0  0  0  0  0  # atno 6909 bound_to 6896
  145.0444  139.3935  143.5085 H   0  0  0  0  0  0  0  0  0  0  0  0  # atno 7974 bound_to 7965
  155.9946  140.1208  157.0606 H   0  0  0  0  0  0  0  0  0  0  0  0  # atno 8008 bound_to 7997
  154.4222  140.1119  156.5681 H   0  0  0  0  0  0  0  0  0  0  0  0  # atno 8009 bound_to 7997
  155.6296  140.3473  155.4681 H   0  0  0  0  0  0  0  0  0  0  0  0  # atno 8010 bound_to 7997
  139.4908  144.5834  151.6827 H   0  0  0  0  0  0  0  0  0  0  0  0  # atno 10167 bound_to 10162
  156.7686  130.9440  151.3119 H   0  0  0  0  0  0  0  0  0  0  0  0  # atno 10718 bound_to 10713
  153.5713  135.3502  155.2838 H   0  0  0  0  0  0  0  0  0  0  0  0  # atno 10763 bound_to 10752
  154.8681  135.4160  154.2723 H   0  0  0  0  0  0  0  0  0  0  0  0  # atno 10764 bound_to 10752
  153.3489  135.7054  153.6875 H   0  0  0  0  0  0  0  0  0  0  0  0  # atno 10765 bound_to 10752
  141.0911  133.6632  156.3989 H   0  0  0  0  0  0  0  0  0  0  0  0  # atno 11005 bound_to 11000
  146.3512  140.0062  142.8671 LP  0  0  0  0  0  0  0  0  0  0  0  0  # atno 17320 bound_to 7965
  145.1606  140.9671  143.4379 LP  0  0  0  0  0  0  0  0  0  0  0  0  # atno 17321 bound_to 7965
  140.5444  144.0526  150.6101 LP  0  0  0  0  0  0  0  0  0  0  0  0  # atno 17342 bound_to 10162
  140.3560  143.2936  152.0436 LP  0  0  0  0  0  0  0  0  0  0  0  0  # atno 17343 bound_to 10162
  157.6701  130.9043  150.0021 LP  0  0  0  0  0  0  0  0  0  0  0  0  # atno 17370 bound_to 10713
  156.1292  130.3644  149.9759 LP  0  0  0  0  0  0  0  0  0  0  0  0  # atno 17371 bound_to 10713
  140.5249  134.6269  157.5330 LP  0  0  0  0  0  0  0  0  0  0  0  0  # atno 17394 bound_to 11000
  139.9738  134.7249  155.9990 LP  0  0  0  0  0  0  0  0  0  0  0  0  # atno 17395 bound_to 11000

$$$$
