AV-unprocessed.smi:2184|AV-procd|sdf|8874|dock5
  -GOLD-   2272012 73D 1   1.00000     0.00000
 Structure written by MMmdl.
 47 48  0  0  0  0  0  0  0  0  1 V2000
  145.8526  130.5962  151.0778 C   0  0  0  0  0  0  0  0  0  0  0  0
  145.1048  132.1285  151.6947 S   0  0  0  0  0  0  0  0  0  0  0  0
  145.0297  133.1182  150.1709 C   0  0  1  0  0  0  0  0  0  0  0  0
  143.9741  132.5391  149.2164 C   0  0  0  0  0  0  0  0  0  0  0  0
  144.7525  134.5990  150.4580 C   0  0  0  0  0  0  0  0  0  0  0  0
  144.6512  135.4031  149.5308 O   0  0  0  0  0  0  0  0  0  0  0  0
  144.6209  134.9457  151.7482 N   0  0  0  0  0  0  0  0  0  0  0  0
  144.3423  136.2966  152.2242 C   0  0  0  0  0  0  0  0  0  0  0  0
  145.5464  136.9778  152.8544 C   0  0  0  0  0  0  0  0  0  0  0  0
  146.2216  136.3866  153.9394 C   0  0  0  0  0  0  0  0  0  0  0  0
  147.3357  137.0459  154.4933 C   0  0  0  0  0  0  0  0  0  0  0  0
  147.7491  138.2860  153.9434 C   0  0  0  0  0  0  0  0  0  0  0  0
  148.8572  139.0013  154.4476 N   0  0  0  0  0  0  0  0  0  0  0  0
  150.1894  138.4282  154.2927 C   0  0  0  0  0  0  0  0  0  0  0  0
  151.1916  139.1405  155.2180 C   0  0  1  0  0  0  0  0  0  0  0  0
  152.6273  138.6589  154.9845 C   0  0  0  0  0  0  0  0  0  0  0  0
  151.1521  140.5459  154.9762 O   0  0  0  0  0  0  0  0  0  0  0  0
  149.8692  141.1479  155.1615 C   0  0  2  0  0  0  0  0  0  0  0  0
  149.4671  141.2178  156.6455 C   0  0  0  0  0  0  0  0  0  0  0  0
  148.8181  140.4519  154.2745 C   0  0  0  0  0  0  0  0  0  0  0  0
  147.0889  138.8529  152.9049 N   0  0  0  0  0  0  0  0  0  0  0  0
  146.0199  138.2184  152.3813 C   0  0  0  0  0  0  0  0  0  0  0  0
  145.9007  129.8562  151.8764 H   0  0  0  0  0  0  0  0  0  0  0  0
  146.8659  130.7799  150.7227 H   0  0  0  0  0  0  0  0  0  0  0  0
  145.2626  130.1837  150.2594 H   0  0  0  0  0  0  0  0  0  0  0  0
  146.0014  133.0301  149.6825 H   0  0  0  0  0  0  0  0  0  0  0  0
  143.9102  133.1194  148.2950 H   0  0  0  0  0  0  0  0  0  0  0  0
  142.9833  132.5267  149.6726 H   0  0  0  0  0  0  0  0  0  0  0  0
  144.2219  131.5140  148.9399 H   0  0  0  0  0  0  0  0  0  0  0  0
  144.7180  134.2241  152.4478 H   0  0  0  0  0  0  0  0  0  0  0  0
  144.0150  136.8969  151.3751 H   0  0  0  0  0  0  0  0  0  0  0  0
  143.5080  136.2771  152.9276 H   0  0  0  0  0  0  0  0  0  0  0  0
  145.8980  135.4375  154.3409 H   0  0  0  0  0  0  0  0  0  0  0  0
  147.8559  136.5803  155.3166 H   0  0  0  0  0  0  0  0  0  0  0  0
  150.1741  137.3658  154.5387 H   0  0  0  0  0  0  0  0  0  0  0  0
  150.5015  138.5222  153.2518 H   0  0  0  0  0  0  0  0  0  0  0  0
  150.9353  138.9385  156.2581 H   0  0  0  0  0  0  0  0  0  0  0  0
  152.7153  137.5867  155.1617 H   0  0  0  0  0  0  0  0  0  0  0  0
  153.3214  139.1646  155.6560 H   0  0  0  0  0  0  0  0  0  0  0  0
  152.9490  138.8571  153.9617 H   0  0  0  0  0  0  0  0  0  0  0  0
  149.9651  142.1767  154.8136 H   0  0  0  0  0  0  0  0  0  0  0  0
  148.5556  141.8027  156.7699 H   0  0  0  0  0  0  0  0  0  0  0  0
  150.2477  141.6949  157.2385 H   0  0  0  0  0  0  0  0  0  0  0  0
  149.2772  140.2325  157.0702 H   0  0  0  0  0  0  0  0  0  0  0  0
  149.0208  140.6720  153.2256 H   0  0  0  0  0  0  0  0  0  0  0  0
  147.8332  140.8639  154.4952 H   0  0  0  0  0  0  0  0  0  0  0  0
  145.5301  138.7183  151.5589 H   0  0  0  0  0  0  0  0  0  0  0  0
  1  2  1  0  0  0  0
  1 23  1  0  0  0  0
  1 24  1  0  0  0  0
  1 25  1  0  0  0  0
  2  3  1  0  0  0  0
  3  4  1  0  0  0  0
  3  5  1  0  0  0  0
  3 26  1  0  0  0  0
  4 27  1  0  0  0  0
  4 28  1  0  0  0  0
  4 29  1  0  0  0  0
  5  6  2  0  0  0  0
  5  7  1  0  0  0  0
  7  8  1  0  0  0  0
  7 30  1  0  0  0  0
  8  9  1  0  0  0  0
  8 31  1  0  0  0  0
  8 32  1  0  0  0  0
  9 22  1  0  0  0  0
  9 10  2  0  0  0  0
 10 11  1  0  0  0  0
 10 33  1  0  0  0  0
 11 12  2  0  0  0  0
 11 34  1  0  0  0  0
 12 13  1  0  0  0  0
 12 21  1  0  0  0  0
 13 20  1  0  0  0  0
 13 14  1  0  0  0  0
 14 15  1  0  0  0  0
 14 35  1  0  0  0  0
 14 36  1  0  0  0  0
 15 16  1  0  0  0  0
 15 17  1  0  0  0  0
 15 37  1  0  0  0  0
 16 38  1  0  0  0  0
 16 39  1  0  0  0  0
 16 40  1  0  0  0  0
 17 18  1  0  0  0  0
 18 19  1  0  0  0  0
 18 20  1  0  0  0  0
 18 41  1  0  0  0  0
 19 42  1  0  0  0  0
 19 43  1  0  0  0  0
 19 44  1  0  0  0  0
 20 45  1  0  0  0  0
 20 46  1  0  0  0  0
 21 22  2  0  0  0  0
 22 47  1  0  0  0  0
M  END
> <s_m_source_file>
AV-unprocessed.smi

> <i_m_source_file_index>
2184

> <i_lp_mmshare_version>
43012

> <i_f3d_flags>
0

> <s_epik_input>
W0NIM11TW0NASF0oW0NIM10pQyg9TylbTkhdW0NIMl1jMVtjSF1bY0hdYyhuW2NIXTEpTjJbQ0gyXVtDQEBIXShbQ0gzXSlPW0NAQEhdKFtDSDNdKVtDSDJdMg==

> <s_epik_cmdline>
J2VwaWtfcHl0aG9uJywgJy1waCcsICc3LjAnLCAnLXRuJywgJzgnLCAnLW1hJywgJzIwMCcsICctbWV0YWxfYmluZGluZycsICctaW1hZScsICc8aW5maWxlLm1hZT4nLCAnLW9tYWUnLCAnPG91dGZpbGUubWFlPic=

> <r_lp_tautomer_probability>
1

> <r_epik_Ionization_Penalty>
0.00551702

> <r_epik_Ionization_Penalty_Charging>
0

> <r_epik_Ionization_Penalty_Neutral>
0.00551702

> <r_epik_State_Penalty>
0.00403758

> <r_epik_Charging_Adjusted_Penalty>
0.00403758

> <i_epik_Tot_Q>
0

> <i_epik_Tot_abs_Q>
0

> <r_epik_Metal_State_Penalty>
-0

> <b_epik_Metal_Only>
0

> <s_lp_Force_Field>
OPLS_2005

> <r_lp_Energy>
17.8704

> <b_lp_Chiralities_Consistent>
1

> <s_lp_Variant>
AV-unprocessed.smi:2184-6

> <Gold.Version>
5.8.1

> <Gold.Id.Protein>
6NUR|6NUR_protein|mol2

> <Gold.PLP.Fitness>
42.3860

> <Gold.PLP.PLP>
-34.7741

> <Gold.PLP.part.hbond>
-0.7716

> <Gold.PLP.part.metal>
0.0000

> <Gold.PLP.part.buried>
-5.0400

> <Gold.PLP.part.nonpolar>
-31.2996

> <Gold.PLP.part.repulsive>
2.2307

> <Gold.PLP.ligand.clash>
0.0000

> <Gold.PLP.ligand.torsion>
0.6026

> <Gold.PLP.Chemscore.Hbond>
0.9760

> <Gold.PLP.Chemscore.CHOScore>
1.8129

> <Gold.PLP.Chemscore.Metal>
0.0000

> <Gold.Chemscore.Hbonds>
donor molecule, donor type, donor heavy atom, donor atom, acceptor molecule, acceptor atom, score
      P1  H  7989  7998       L1    17  0.98
      L1  C    22    47       P1 10171  1.00
      L1  C    22    47       P1 10175  0.39

> <Gold.PLP.Chemscore.Internal.Correction>
0.4503

> <Gold.Rescore>
     Score         DG    S(hbond)    S(metal)    S(lipo)     H(rot)  DE(clash)    DE(int)     intcor
     13.83     -14.53       0.70        0.00      92.25       1.59       0.16       0.54       ----

> <Gold.Chemscore.Fitness>
13.8333

> <Gold.Chemscore.DG>
-14.5309

> <Gold.Chemscore.ZeroCoef>
-5.4800

> <Gold.Chemscore.Hbond>
0.7007

> <Gold.Chemscore.Metal>
0.0000

> <Gold.Chemscore.Lipo>
92.2487

> <Gold.Chemscore.Internal_Hbond>
0.0000

> <Gold.Chemscore.DEClash>
0.1601

> <Gold.Chemscore.DEInternal>
0.5375

> <Gold.Chemscore.Rot>
1.5947

> <Gold.Chemscore.Internal.Correction>
   9.000000E+99

> <Gold.Chemscore.Hbonds>
donor molecule, donor type, donor heavy atom, donor atom, acceptor molecule, acceptor atom, score
      P1  H  7989  7998       L1    17  0.47

> <Gold.Chemscore.Hbond.Weighted>
-2.3403

> <Gold.Chemscore.Metal.Weighted>
-0.0000

> <Gold.Chemscore.Lipo.Weighted>
-10.7931

> <Gold.Chemscore.Internal_Hbond.Weighted>
0.0000

> <Gold.Chemscore.DEClash.Weighted>
0.1601

> <Gold.Chemscore.DEInternal.Weighted>
0.5375

> <Gold.Chemscore.Rot.Weighted>
4.0824

> <Gold.Chemscore.Internal.Correction.Weighted>
   9.000000E+99

> <Gold.Protein.RotatedTorsions>
[ 6907 6896 6895 6894 ] final   83.91 input  -60.11 | X-H torsion
[ 7974 7965 7964 7962 ] final   31.22 input  175.53 | X-H torsion
[ 8008 7997 7996 7995 ] final  -65.92 input   59.86 | X-H torsion
[ 10167 10162 10161 10158 ] final    5.59 input  -65.29 | X-H torsion
[ 10718 10713 10712 10709 ] final   80.15 input   66.30 | X-H torsion
[ 10763 10752 10751 10750 ] final   36.81 input  -60.55 | X-H torsion
[ 11005 11000 10999 10996 ] final   17.05 input  -57.11 | X-H torsion

> <Gold.Protein.ActiveResidues>
 VAL166  LYS551  ARG553  GLY616  TRP617  ASP618  TYR619  PRO620  LYS621  CYS622 
 ASP623  PHE694  ASN695  SER759  ASP760  ASP761  ALA762  ILE779  LEU786  VAL792 
 PHE793  MET794  SER795  GLU796  ALA797  LYS798  CYS799  TRP800  GLU811  SER814 

> <Gold.Protein.RotatedAtoms>
  152.5339  134.2823  159.9011 H   0  0  0  0  0  0  0  0  0  0  0  0  # atno 6907 bound_to 6896
  151.2777  133.4218  159.2632 H   0  0  0  0  0  0  0  0  0  0  0  0  # atno 6908 bound_to 6896
  151.0311  134.9555  159.8168 H   0  0  0  0  0  0  0  0  0  0  0  0  # atno 6909 bound_to 6896
  146.1563  139.6685  142.9064 H   0  0  0  0  0  0  0  0  0  0  0  0  # atno 7974 bound_to 7965
  154.4702  140.0923  156.7125 H   0  0  0  0  0  0  0  0  0  0  0  0  # atno 8008 bound_to 7997
  155.4745  140.3465  155.4312 H   0  0  0  0  0  0  0  0  0  0  0  0  # atno 8009 bound_to 7997
  156.1026  140.1426  156.9436 H   0  0  0  0  0  0  0  0  0  0  0  0  # atno 8010 bound_to 7997
  140.6474  143.7629  150.7520 H   0  0  0  0  0  0  0  0  0  0  0  0  # atno 10167 bound_to 10162
  157.6798  130.9946  150.2036 H   0  0  0  0  0  0  0  0  0  0  0  0  # atno 10718 bound_to 10713
  153.0062  135.6295  154.2044 H   0  0  0  0  0  0  0  0  0  0  0  0  # atno 10763 bound_to 10752
  154.1788  135.2814  155.3060 H   0  0  0  0  0  0  0  0  0  0  0  0  # atno 10764 bound_to 10752
  154.5851  135.5635  153.7283 H   0  0  0  0  0  0  0  0  0  0  0  0  # atno 10765 bound_to 10752
  140.4403  134.1328  155.7690 H   0  0  0  0  0  0  0  0  0  0  0  0  # atno 11005 bound_to 11000
  145.4699  141.0436  143.2704 LP  0  0  0  0  0  0  0  0  0  0  0  0  # atno 17320 bound_to 7965
  144.7968  139.6218  143.7089 LP  0  0  0  0  0  0  0  0  0  0  0  0  # atno 17321 bound_to 7965
  140.1273  143.4558  152.2276 LP  0  0  0  0  0  0  0  0  0  0  0  0  # atno 17342 bound_to 10162
  139.5685  144.7449  151.3955 LP  0  0  0  0  0  0  0  0  0  0  0  0  # atno 17343 bound_to 10162
  156.2722  130.3723  149.8020 LP  0  0  0  0  0  0  0  0  0  0  0  0  # atno 17370 bound_to 10713
  156.5734  130.8434  151.3363 LP  0  0  0  0  0  0  0  0  0  0  0  0  # atno 17371 bound_to 10713
  141.1708  133.8612  157.1575 LP  0  0  0  0  0  0  0  0  0  0  0  0  # atno 17394 bound_to 11000
  140.0074  135.0002  157.0322 LP  0  0  0  0  0  0  0  0  0  0  0  0  # atno 17395 bound_to 11000

$$$$
