AV-unprocessed.smi:287|AV-procd|sdf|2186|dock10
  -GOLD-   2262021573D 1   1.00000     0.00000
 Structure written by MMmdl.
 55 58  0  0  0  0  0  0  0  0  1 V2000
  154.0091  140.7250  160.7045 C   0  0  0  0  0  0  0  0  0  0  0  0
  153.0494  140.8733  159.5742 C   0  0  0  0  0  0  0  0  0  0  0  0
  151.9645  141.6709  159.3549 C   0  0  0  0  0  0  0  0  0  0  0  0
  151.4575  141.3548  158.0590 C   0  0  0  0  0  0  0  0  0  0  0  0
  150.2554  142.0062  157.3876 C   0  0  2  0  0  0  0  0  0  0  0  0
  150.2461  141.6656  155.8882 C   0  0  0  0  0  0  0  0  0  0  0  0
  150.2883  143.4189  157.4511 O   0  0  0  0  0  0  0  0  0  0  0  0
  148.9191  141.5827  158.0395 C   0  0  0  0  0  0  0  0  0  0  0  0
  147.7712  141.8021  157.1656 N   0  0  0  0  0  0  0  0  0  0  0  0
  146.8179  142.6942  157.5045 C   0  0  0  0  0  0  0  0  0  0  0  0
  146.8044  143.2733  158.7334 N   0  0  0  0  0  0  0  0  0  0  0  0
  145.8531  144.1597  159.0418 C   0  0  0  0  0  0  0  0  0  0  0  0
  144.8452  144.5991  158.2848 N   0  0  0  0  0  0  0  0  0  0  0  0
  144.8529  144.0172  157.0507 C   0  0  0  0  0  0  0  0  0  0  0  0
  145.7993  143.0611  156.5883 C   0  0  0  0  0  0  0  0  0  0  0  0
  145.4978  142.6915  155.2843 N   0  0  0  0  0  0  0  0  0  0  0  0
  144.4355  143.3940  154.9954 C   0  0  0  0  0  0  0  0  0  0  0  0
  143.9793  144.2169  156.0013 N   0  0  0  0  0  0  0  0  0  0  0  0
  142.8038  145.1371  155.9630 C   0  0  2  0  0  0  0  0  0  0  0  0
  141.6483  144.3618  155.9977 O   0  0  0  0  0  0  0  0  0  0  0  0
  140.6465  145.0118  155.2318 C   0  0  2  0  0  0  0  0  0  0  0  0
  139.4931  144.0493  154.8975 C   0  0  0  0  0  0  0  0  0  0  0  0
  139.9663  142.9711  154.1184 O   0  0  0  0  0  0  0  0  0  0  0  0
  141.4260  145.6122  154.0511 C   0  0  2  0  0  0  0  0  0  0  0  0
  141.5877  144.6770  153.0017 O   0  0  0  0  0  0  0  0  0  0  0  0
  142.7809  145.9655  154.6642 C   0  0  1  0  0  0  0  0  0  0  0  0
  142.8208  147.3501  154.9463 O   0  0  0  0  0  0  0  0  0  0  0  0
  152.2825  140.3592  157.5933 C   0  0  0  0  0  0  0  0  0  0  0  0
  152.3365  139.5599  156.3334 C   0  0  0  0  0  0  0  0  0  0  0  0
  153.2516  140.0640  158.5045 O   0  0  0  0  0  0  0  0  0  0  0  0
  142.8842  145.7411  156.8684 H   0  0  0  0  0  0  0  0  0  0  0  0
  140.2615  145.8277  155.8470 H   0  0  0  0  0  0  0  0  0  0  0  0
  140.9116  146.4808  153.6378 H   0  0  0  0  0  0  0  0  0  0  0  0
  143.6161  145.7075  154.0107 H   0  0  0  0  0  0  0  0  0  0  0  0
  153.8499  141.5004  161.4542 H   0  0  0  0  0  0  0  0  0  0  0  0
  155.0376  140.8034  160.3518 H   0  0  0  0  0  0  0  0  0  0  0  0
  153.8892  139.7559  161.1889 H   0  0  0  0  0  0  0  0  0  0  0  0
  151.5804  142.4086  160.0437 H   0  0  0  0  0  0  0  0  0  0  0  0
  150.1875  140.5885  155.7274 H   0  0  0  0  0  0  0  0  0  0  0  0
  151.1515  142.0213  155.3946 H   0  0  0  0  0  0  0  0  0  0  0  0
  149.3932  142.1181  155.3804 H   0  0  0  0  0  0  0  0  0  0  0  0
  149.7725  143.7626  156.7379 H   0  0  0  0  0  0  0  0  0  0  0  0
  148.9549  140.5426  158.3672 H   0  0  0  0  0  0  0  0  0  0  0  0
  148.7637  142.1866  158.9349 H   0  0  0  0  0  0  0  0  0  0  0  0
  147.7909  141.3169  156.2797 H   0  0  0  0  0  0  0  0  0  0  0  0
  145.9076  144.5770  160.0364 H   0  0  0  0  0  0  0  0  0  0  0  0
  143.9524  143.3300  154.0314 H   0  0  0  0  0  0  0  0  0  0  0  0
  139.0072  143.6722  155.7976 H   0  0  0  0  0  0  0  0  0  0  0  0
  138.7285  144.5734  154.3238 H   0  0  0  0  0  0  0  0  0  0  0  0
  139.9300  143.2198  153.2075 H   0  0  0  0  0  0  0  0  0  0  0  0
  140.7351  144.3402  152.7682 H   0  0  0  0  0  0  0  0  0  0  0  0
  142.0489  147.5775  155.4416 H   0  0  0  0  0  0  0  0  0  0  0  0
  151.3863  139.0569  156.1540 H   0  0  0  0  0  0  0  0  0  0  0  0
  153.1148  138.7978  156.3814 H   0  0  0  0  0  0  0  0  0  0  0  0
  152.5479  140.2020  155.4784 H   0  0  0  0  0  0  0  0  0  0  0  0
  1  2  1  0  0  0  0
  1 35  1  0  0  0  0
  1 36  1  0  0  0  0
  1 37  1  0  0  0  0
  2 30  1  0  0  0  0
  2  3  2  0  0  0  0
  3  4  1  0  0  0  0
  3 38  1  0  0  0  0
  4  5  1  0  0  0  0
  4 28  2  0  0  0  0
  5  6  1  0  0  0  0
  5  7  1  0  0  0  0
  5  8  1  0  0  0  0
  6 39  1  0  0  0  0
  6 40  1  0  0  0  0
  6 41  1  0  0  0  0
  7 42  1  0  0  0  0
  8  9  1  0  0  0  0
  8 43  1  0  0  0  0
  8 44  1  0  0  0  0
  9 10  1  0  0  0  0
  9 45  1  0  0  0  0
 10 15  1  0  0  0  0
 10 11  2  0  0  0  0
 11 12  1  0  0  0  0
 12 13  2  0  0  0  0
 12 46  1  0  0  0  0
 13 14  1  0  0  0  0
 14 18  1  0  0  0  0
 14 15  2  0  0  0  0
 15 16  1  0  0  0  0
 16 17  2  0  0  0  0
 17 18  1  0  0  0  0
 17 47  1  0  0  0  0
 18 19  1  0  0  0  0
 19 31  1  0  0  0  0
 19 26  1  0  0  0  0
 19 20  1  0  0  0  0
 20 21  1  0  0  0  0
 21 32  1  0  0  0  0
 21 22  1  0  0  0  0
 21 24  1  0  0  0  0
 22 23  1  0  0  0  0
 22 48  1  0  0  0  0
 22 49  1  0  0  0  0
 23 50  1  0  0  0  0
 24 33  1  0  0  0  0
 24 25  1  0  0  0  0
 24 26  1  0  0  0  0
 25 51  1  0  0  0  0
 26 34  1  0  0  0  0
 26 27  1  0  0  0  0
 27 52  1  0  0  0  0
 28 29  1  0  0  0  0
 28 30  1  0  0  0  0
 29 53  1  0  0  0  0
 29 54  1  0  0  0  0
 29 55  1  0  0  0  0
M  END
> <s_m_source_file>
AV-unprocessed.smi

> <i_m_source_file_index>
287

> <i_lp_mmshare_version>
43012

> <i_f3d_flags>
0

> <s_epik_input>
W0NIM11jMVtjSF1jKGMobzEpW0NIM10pW0NAQF0oW0NIM10pKFtPSF0pW0NIMl1bTkhdYyhuW2NIXW4yKWMoYzIzKW5bY0hdbjNbQ0BASF00T1tDQEhdKFtDSDJdW09IXSlbQ0BASF0oW09IXSlbQ0BIXTRbT0hd

> <s_epik_cmdline>
J2VwaWtfcHl0aG9uJywgJy1waCcsICc3LjAnLCAnLXRuJywgJzgnLCAnLW1hJywgJzIwMCcsICctbWV0YWxfYmluZGluZycsICctaW1hZScsICc8aW5maWxlLm1hZT4nLCAnLW9tYWUnLCAnPG91dGZpbGUubWFlPic=

> <r_lp_tautomer_probability>
1

> <r_epik_Ionization_Penalty>
0.000992612

> <r_epik_Ionization_Penalty_Charging>
0

> <r_epik_Ionization_Penalty_Neutral>
0.000992612

> <r_epik_State_Penalty>
-0

> <r_epik_Charging_Adjusted_Penalty>
0

> <i_epik_Tot_Q>
0

> <i_epik_Tot_abs_Q>
0

> <r_epik_Metal_State_Penalty>
-0

> <b_epik_Metal_Only>
0

> <s_epik_Chemistry_Notes>
This compound contains an acetal/aminal-like group ( X-CH(R)-Y where X, Y are N, S, or O) that may be acid/base labile, releasing an aldehyde.

> <s_lp_Force_Field>
OPLS_2005

> <r_lp_Energy>
38.0531

> <b_lp_Chiralities_Consistent>
1

> <s_lp_Variant>
AV-unprocessed.smi:287-10

> <Gold.Version>
5.8.1

> <Gold.Id.Protein>
6NUR|6NUR_protein|mol2

> <Gold.PLP.Fitness>
53.8777

> <Gold.PLP.PLP>
-41.6980

> <Gold.PLP.part.hbond>
-6.3159

> <Gold.PLP.part.metal>
0.0000

> <Gold.PLP.part.buried>
-7.4428

> <Gold.PLP.part.nonpolar>
-28.2647

> <Gold.PLP.part.repulsive>
0.4985

> <Gold.PLP.ligand.clash>
0.0000

> <Gold.PLP.ligand.torsion>
1.0282

> <Gold.PLP.Chemscore.Hbond>
3.7056

> <Gold.PLP.Chemscore.CHOScore>
1.0000

> <Gold.PLP.Chemscore.Metal>
0.0000

> <Gold.Chemscore.Hbonds>
donor molecule, donor type, donor heavy atom, donor atom, acceptor molecule, acceptor atom, score
      L1  H     7    42       P1  8028  1.00
      L1  H    23    50       P1 10162  1.00
      L1  H    25    51       P1 10162  0.77
      P1  H  7997  8009       L1    30  0.77
      L1  C    17    47       P1 10174  1.00

> <Gold.PLP.Chemscore.Internal.Correction>
0.1192

> <Gold.Rescore>
     Score         DG    S(hbond)    S(metal)    S(lipo)     H(rot)  DE(clash)    DE(int)     intcor
      7.52     -10.68       2.53        0.00      87.63       5.27       1.65       1.51       ----

> <Gold.Chemscore.Fitness>
7.5243

> <Gold.Chemscore.DG>
-10.6832

> <Gold.Chemscore.ZeroCoef>
-5.4800

> <Gold.Chemscore.Hbond>
2.5253

> <Gold.Chemscore.Metal>
0.0000

> <Gold.Chemscore.Lipo>
87.6295

> <Gold.Chemscore.Internal_Hbond>
0.0000

> <Gold.Chemscore.DEClash>
1.6472

> <Gold.Chemscore.DEInternal>
1.5116

> <Gold.Chemscore.Rot>
5.2672

> <Gold.Chemscore.Internal.Correction>
   9.000000E+99

> <Gold.Chemscore.Hbonds>
donor molecule, donor type, donor heavy atom, donor atom, acceptor molecule, acceptor atom, score
      L1  H     7    42       P1  8028  0.99
      L1  H    23    50       P1 10162  0.40
      L1  H    25    51       P1 10162  0.30
      P1  H  7997  8009       L1    30  0.10

> <Gold.Chemscore.Hbond.Weighted>
-8.4345

> <Gold.Chemscore.Metal.Weighted>
-0.0000

> <Gold.Chemscore.Lipo.Weighted>
-10.2526

> <Gold.Chemscore.Internal_Hbond.Weighted>
0.0000

> <Gold.Chemscore.DEClash.Weighted>
1.6472

> <Gold.Chemscore.DEInternal.Weighted>
1.5116

> <Gold.Chemscore.Rot.Weighted>
13.4839

> <Gold.Chemscore.Internal.Correction.Weighted>
   9.000000E+99

> <Gold.Protein.RotatedTorsions>
[ 6907 6896 6895 6894 ] final   18.28 input  -60.11 | X-H torsion
[ 7974 7965 7964 7962 ] final   23.61 input  175.53 | X-H torsion
[ 8008 7997 7996 7995 ] final  140.22 input   59.86 | X-H torsion
[ 10167 10162 10161 10158 ] final   33.12 input  -65.29 | X-H torsion
[ 10718 10713 10712 10709 ] final  119.90 input   66.30 | X-H torsion
[ 10763 10752 10751 10750 ] final -167.56 input  -60.55 | X-H torsion
[ 11005 11000 10999 10996 ] final   63.64 input  -57.11 | X-H torsion

> <Gold.Protein.ActiveResidues>
 VAL166  LYS551  ARG553  GLY616  TRP617  ASP618  TYR619  PRO620  LYS621  CYS622 
 ASP623  PHE694  ASN695  SER759  ASP760  ASP761  ALA762  ILE779  LEU786  VAL792 
 PHE793  MET794  SER795  GLU796  ALA797  LYS798  CYS799  TRP800  GLU811  SER814 

> <Gold.Protein.RotatedAtoms>
  151.8628  135.0518  160.0470 H   0  0  0  0  0  0  0  0  0  0  0  0  # atno 6907 bound_to 6896
  152.2649  133.5326  159.5412 H   0  0  0  0  0  0  0  0  0  0  0  0  # atno 6908 bound_to 6896
  150.7130  134.0694  159.3901 H   0  0  0  0  0  0  0  0  0  0  0  0  # atno 6909 bound_to 6896
  146.1976  139.7720  142.8785 H   0  0  0  0  0  0  0  0  0  0  0  0  # atno 7974 bound_to 7965
  156.2981  140.2347  156.4365 H   0  0  0  0  0  0  0  0  0  0  0  0  # atno 8008 bound_to 7997
  154.8224  140.0437  157.1440 H   0  0  0  0  0  0  0  0  0  0  0  0  # atno 8009 bound_to 7997
  154.9300  140.3015  155.5176 H   0  0  0  0  0  0  0  0  0  0  0  0  # atno 8010 bound_to 7997
  140.4436  144.1151  150.6178 H   0  0  0  0  0  0  0  0  0  0  0  0  # atno 10167 bound_to 10162
  157.5929  131.1062  150.7960 H   0  0  0  0  0  0  0  0  0  0  0  0  # atno 10718 bound_to 10713
  154.6719  135.2940  154.9730 H   0  0  0  0  0  0  0  0  0  0  0  0  # atno 10763 bound_to 10752
  154.0754  135.6612  153.4834 H   0  0  0  0  0  0  0  0  0  0  0  0  # atno 10764 bound_to 10752
  153.0492  135.5185  154.7719 H   0  0  0  0  0  0  0  0  0  0  0  0  # atno 10765 bound_to 10752
  140.0011  134.6441  155.9929 H   0  0  0  0  0  0  0  0  0  0  0  0  # atno 11005 bound_to 11000
  145.3592  141.0322  143.3294 LP  0  0  0  0  0  0  0  0  0  0  0  0  # atno 17320 bound_to 7965
  144.8613  139.5173  143.6811 LP  0  0  0  0  0  0  0  0  0  0  0  0  # atno 17321 bound_to 7965
  140.4289  143.2577  151.9621 LP  0  0  0  0  0  0  0  0  0  0  0  0  # atno 17342 bound_to 10162
  139.4791  144.5762  151.8008 LP  0  0  0  0  0  0  0  0  0  0  0  0  # atno 17343 bound_to 10162
  156.8378  130.5037  149.5324 LP  0  0  0  0  0  0  0  0  0  0  0  0  # atno 17370 bound_to 10713
  156.0987  130.5952  150.9857 LP  0  0  0  0  0  0  0  0  0  0  0  0  # atno 17371 bound_to 10713
  141.1642  133.6537  156.4423 LP  0  0  0  0  0  0  0  0  0  0  0  0  # atno 17394 bound_to 11000
  140.4726  134.6739  157.5136 LP  0  0  0  0  0  0  0  0  0  0  0  0  # atno 17395 bound_to 11000

$$$$
