AV-unprocessed.smi:546|AV-procd|sdf|2885|dock6
  -GOLD-   2262023383D 1   1.00000     0.00000
 Structure written by MMmdl.
 52 54  0  0  0  0  0  0  0  0  1 V2000
  153.7963  137.0510  161.2090 C   0  0  0  0  0  0  0  0  0  0  0  0
  152.8946  137.7973  160.2236 C   0  0  0  0  0  0  0  0  0  0  0  0
  152.4582  136.8837  159.2340 O   0  0  0  0  0  0  0  0  0  0  0  0
  151.5769  137.4647  158.2877 C   0  0  0  0  0  0  0  0  0  0  0  0
  152.2095  138.7398  157.7114 C   0  0  0  0  0  0  0  0  0  0  0  0
  151.2149  139.5805  157.0530 N   0  0  0  0  0  0  0  0  0  0  0  0
  150.8975  140.8782  157.3127 C   0  0  0  0  0  0  0  0  0  0  0  0
  151.4813  141.6033  158.3549 N   0  0  0  0  0  0  0  0  0  0  0  0
  151.8801  141.0203  159.6405 C   0  0  0  0  0  0  0  0  0  0  0  0
  153.1242  141.6860  160.2742 C   0  0  1  0  0  0  0  0  0  0  0  0
  154.4432  141.3003  159.5852 C   0  0  0  0  0  0  0  0  0  0  0  0
  152.9337  143.2091  160.3668 C   0  0  0  0  0  0  0  0  0  0  0  0
  152.4849  143.7928  159.0184 C   0  0  2  0  0  0  0  0  0  0  0  0
  152.2182  145.3005  159.1216 C   0  0  0  0  0  0  0  0  0  0  0  0
  151.2413  143.0373  158.5173 C   0  0  0  0  0  0  0  0  0  0  0  0
  150.0047  141.4079  156.4708 N   0  0  0  0  0  0  0  0  0  0  0  0
  149.7085  140.3561  155.6188 C   0  0  0  0  0  0  0  0  0  0  0  0
  150.4222  139.2504  155.9507 C   0  0  0  0  0  0  0  0  0  0  0  0
  150.3246  137.9952  155.1908 C   0  0  0  0  0  0  0  0  0  0  0  0
  150.9622  136.9810  155.4648 O   0  0  0  0  0  0  0  0  0  0  0  0
  149.4598  138.0689  154.1503 N   0  0  0  0  0  0  0  0  0  0  0  0
  148.7133  139.1479  153.7640 C   0  0  0  0  0  0  0  0  0  0  0  0
  147.9709  139.0637  152.7859 O   0  0  0  0  0  0  0  0  0  0  0  0
  148.8303  140.2994  154.4992 N   0  0  0  0  0  0  0  0  0  0  0  0
  148.0592  141.4868  154.1264 C   0  0  0  0  0  0  0  0  0  0  0  0
  149.3566  137.2324  153.5946 H   0  0  0  0  0  0  0  0  0  0  0  0
  154.1554  137.7183  161.9922 H   0  0  0  0  0  0  0  0  0  0  0  0
  154.6651  136.6303  160.7022 H   0  0  0  0  0  0  0  0  0  0  0  0
  153.2586  136.2316  161.6865 H   0  0  0  0  0  0  0  0  0  0  0  0
  152.0383  138.2239  160.7476 H   0  0  0  0  0  0  0  0  0  0  0  0
  153.4454  138.6182  159.7623 H   0  0  0  0  0  0  0  0  0  0  0  0
  151.3678  136.7561  157.4853 H   0  0  0  0  0  0  0  0  0  0  0  0
  150.6279  137.7068  158.7685 H   0  0  0  0  0  0  0  0  0  0  0  0
  152.7060  139.3074  158.4960 H   0  0  0  0  0  0  0  0  0  0  0  0
  152.9975  138.4837  157.0113 H   0  0  0  0  0  0  0  0  0  0  0  0
  151.0360  141.1292  160.3229 H   0  0  0  0  0  0  0  0  0  0  0  0
  152.0314  139.9459  159.5430 H   0  0  0  0  0  0  0  0  0  0  0  0
  153.2012  141.3100  161.2951 H   0  0  0  0  0  0  0  0  0  0  0  0
  154.4674  141.6222  158.5455 H   0  0  0  0  0  0  0  0  0  0  0  0
  154.5962  140.2213  159.6073 H   0  0  0  0  0  0  0  0  0  0  0  0
  155.2947  141.7572  160.0899 H   0  0  0  0  0  0  0  0  0  0  0  0
  152.1762  143.4263  161.1213 H   0  0  0  0  0  0  0  0  0  0  0  0
  153.8512  143.6897  160.7085 H   0  0  0  0  0  0  0  0  0  0  0  0
  153.2851  143.6527  158.2909 H   0  0  0  0  0  0  0  0  0  0  0  0
  151.4207  145.5147  159.8339 H   0  0  0  0  0  0  0  0  0  0  0  0
  151.9223  145.7133  158.1569 H   0  0  0  0  0  0  0  0  0  0  0  0
  153.1103  145.8352  159.4489 H   0  0  0  0  0  0  0  0  0  0  0  0
  150.9306  143.4549  157.5587 H   0  0  0  0  0  0  0  0  0  0  0  0
  150.4053  143.1829  159.2030 H   0  0  0  0  0  0  0  0  0  0  0  0
  146.9929  141.2591  154.0934 H   0  0  0  0  0  0  0  0  0  0  0  0
  148.3622  141.8426  153.1410 H   0  0  0  0  0  0  0  0  0  0  0  0
  148.1917  142.3105  154.8277 H   0  0  0  0  0  0  0  0  0  0  0  0
  1  2  1  0  0  0  0
  1 27  1  0  0  0  0
  1 28  1  0  0  0  0
  1 29  1  0  0  0  0
  2  3  1  0  0  0  0
  2 30  1  0  0  0  0
  2 31  1  0  0  0  0
  3  4  1  0  0  0  0
  4  5  1  0  0  0  0
  4 32  1  0  0  0  0
  4 33  1  0  0  0  0
  5  6  1  0  0  0  0
  5 34  1  0  0  0  0
  5 35  1  0  0  0  0
  6 18  1  0  0  0  0
  6  7  1  0  0  0  0
  7  8  1  0  0  0  0
  7 16  2  0  0  0  0
  8 15  1  0  0  0  0
  8  9  1  0  0  0  0
  9 10  1  0  0  0  0
  9 36  1  0  0  0  0
  9 37  1  0  0  0  0
 10 11  1  0  0  0  0
 10 12  1  0  0  0  0
 10 38  1  0  0  0  0
 11 39  1  0  0  0  0
 11 40  1  0  0  0  0
 11 41  1  0  0  0  0
 12 13  1  0  0  0  0
 12 42  1  0  0  0  0
 12 43  1  0  0  0  0
 13 14  1  0  0  0  0
 13 15  1  0  0  0  0
 13 44  1  0  0  0  0
 14 45  1  0  0  0  0
 14 46  1  0  0  0  0
 14 47  1  0  0  0  0
 15 48  1  0  0  0  0
 15 49  1  0  0  0  0
 16 17  1  0  0  0  0
 17 24  1  0  0  0  0
 17 18  2  0  0  0  0
 18 19  1  0  0  0  0
 19 20  2  0  0  0  0
 19 21  1  0  0  0  0
 21 26  1  0  0  0  0
 21 22  1  0  0  0  0
 22 23  2  0  0  0  0
 22 24  1  0  0  0  0
 24 25  1  0  0  0  0
 25 50  1  0  0  0  0
 25 51  1  0  0  0  0
 25 52  1  0  0  0  0
M  END
> <s_m_source_file>
AV-unprocessed.smi

> <i_m_source_file_index>
546

> <i_lp_mmshare_version>
43012

> <i_f3d_flags>
0

> <s_epik_input>
W0NIM11uMWMoPU8pW25IXWMoPU8pYyhjMTIpbihbQ0gyXVtDSDJdT1tDSDJdW0NIM10pYyhuMilOM1tDSDJdW0NAQEhdKFtDSDNdKVtDSDJdW0NAQEhdKFtDSDNdKVtDSDJdMw==

> <s_epik_cmdline>
J2VwaWtfcHl0aG9uJywgJy1waCcsICc3LjAnLCAnLXRuJywgJzgnLCAnLW1hJywgJzIwMCcsICctbWV0YWxfYmluZGluZycsICctaW1hZScsICc8aW5maWxlLm1hZT4nLCAnLW9tYWUnLCAnPG91dGZpbGUubWFlPic=

> <r_lp_tautomer_probability>
1

> <r_epik_Ionization_Penalty>
0.000576472

> <r_epik_Ionization_Penalty_Charging>
0.000118943

> <r_epik_Ionization_Penalty_Neutral>
0.000457529

> <r_epik_State_Penalty>
-0

> <r_epik_Charging_Adjusted_Penalty>
0.000118943

> <i_epik_Tot_Q>
0

> <i_epik_Tot_abs_Q>
0

> <r_epik_Metal_State_Penalty>
0.0916165

> <b_epik_Metal_Only>
0

> <s_lp_Force_Field>
OPLS_2005

> <r_lp_Energy>
39.3864

> <b_lp_Chiralities_Consistent>
1

> <s_lp_Variant>
AV-unprocessed.smi:546-3

> <Gold.Version>
5.8.1

> <Gold.Id.Protein>
6NUR|6NUR_protein|mol2

> <Gold.PLP.Fitness>
48.6290

> <Gold.PLP.PLP>
-42.7967

> <Gold.PLP.part.hbond>
-2.0000

> <Gold.PLP.part.metal>
0.0000

> <Gold.PLP.part.buried>
-6.0183

> <Gold.PLP.part.nonpolar>
-39.5991

> <Gold.PLP.part.repulsive>
4.3724

> <Gold.PLP.ligand.clash>
0.0000

> <Gold.PLP.ligand.torsion>
0.3275

> <Gold.PLP.Chemscore.Hbond>
1.9913

> <Gold.PLP.Chemscore.CHOScore>
0.0000

> <Gold.PLP.Chemscore.Metal>
0.0000

> <Gold.Chemscore.Hbonds>
donor molecule, donor type, donor heavy atom, donor atom, acceptor molecule, acceptor atom, score
      L1  H    21    26       P1  7948  1.00
      P1  H  6896  6907       L1     3  1.00

> <Gold.PLP.Chemscore.Internal.Correction>
0.5136

> <Gold.Rescore>
     Score         DG    S(hbond)    S(metal)    S(lipo)     H(rot)  DE(clash)    DE(int)     intcor
     16.28     -19.70       1.77        0.00     104.81       1.55       1.26       2.16       ----

> <Gold.Chemscore.Fitness>
16.2802

> <Gold.Chemscore.DG>
-19.7036

> <Gold.Chemscore.ZeroCoef>
-5.4800

> <Gold.Chemscore.Hbond>
1.7724

> <Gold.Chemscore.Metal>
0.0000

> <Gold.Chemscore.Lipo>
104.8118

> <Gold.Chemscore.Internal_Hbond>
0.0000

> <Gold.Chemscore.DEClash>
1.2591

> <Gold.Chemscore.DEInternal>
2.1644

> <Gold.Chemscore.Rot>
1.5465

> <Gold.Chemscore.Internal.Correction>
   9.000000E+99

> <Gold.Chemscore.Hbonds>
donor molecule, donor type, donor heavy atom, donor atom, acceptor molecule, acceptor atom, score
      L1  H    21    26       P1  7948  0.89
      P1  H  6896  6907       L1     3  0.70

> <Gold.Chemscore.Hbond.Weighted>
-5.9198

> <Gold.Chemscore.Metal.Weighted>
-0.0000

> <Gold.Chemscore.Lipo.Weighted>
-12.2630

> <Gold.Chemscore.Internal_Hbond.Weighted>
0.0000

> <Gold.Chemscore.DEClash.Weighted>
1.2591

> <Gold.Chemscore.DEInternal.Weighted>
2.1644

> <Gold.Chemscore.Rot.Weighted>
3.9591

> <Gold.Chemscore.Internal.Correction.Weighted>
   9.000000E+99

> <Gold.Protein.RotatedTorsions>
[ 6907 6896 6895 6894 ] final   17.75 input  -60.11 | X-H torsion
[ 7974 7965 7964 7962 ] final  121.43 input  175.53 | X-H torsion
[ 8008 7997 7996 7995 ] final   10.67 input   59.86 | X-H torsion
[ 10167 10162 10161 10158 ] final  -10.86 input  -65.29 | X-H torsion
[ 10718 10713 10712 10709 ] final  139.91 input   66.30 | X-H torsion
[ 10763 10752 10751 10750 ] final  -80.49 input  -60.55 | X-H torsion
[ 11005 11000 10999 10996 ] final    0.19 input  -57.11 | X-H torsion

> <Gold.Protein.ActiveResidues>
 VAL166  LYS551  ARG553  GLY616  TRP617  ASP618  TYR619  PRO620  LYS621  CYS622 
 ASP623  PHE694  ASN695  SER759  ASP760  ASP761  ALA762  ILE779  LEU786  VAL792 
 PHE793  MET794  SER795  GLU796  ALA797  LYS798  CYS799  TRP800  GLU811  SER814 

> <Gold.Protein.RotatedAtoms>
  151.8546  135.0546  160.0462 H   0  0  0  0  0  0  0  0  0  0  0  0  # atno 6907 bound_to 6896
  152.2710  133.5378  159.5447 H   0  0  0  0  0  0  0  0  0  0  0  0  # atno 6908 bound_to 6896
  150.7152  134.0613  159.3874 H   0  0  0  0  0  0  0  0  0  0  0  0  # atno 6909 bound_to 6896
  145.1194  139.3399  143.4722 H   0  0  0  0  0  0  0  0  0  0  0  0  # atno 7974 bound_to 7965
  154.7966  140.2845  155.5952 H   0  0  0  0  0  0  0  0  0  0  0  0  # atno 8008 bound_to 7997
  156.2971  140.2594  156.2754 H   0  0  0  0  0  0  0  0  0  0  0  0  # atno 8009 bound_to 7997
  154.9608  140.0377  157.2178 H   0  0  0  0  0  0  0  0  0  0  0  0  # atno 8010 bound_to 7997
  140.7124  143.5702  150.9101 H   0  0  0  0  0  0  0  0  0  0  0  0  # atno 10167 bound_to 10162
  157.4091  131.1026  151.0473 H   0  0  0  0  0  0  0  0  0  0  0  0  # atno 10718 bound_to 10713
  154.5519  135.5659  153.6929 H   0  0  0  0  0  0  0  0  0  0  0  0  # atno 10763 bound_to 10752
  152.9992  135.6253  154.2363 H   0  0  0  0  0  0  0  0  0  0  0  0  # atno 10764 bound_to 10752
  154.2298  135.2866  155.2874 H   0  0  0  0  0  0  0  0  0  0  0  0  # atno 10765 bound_to 10752
  140.6293  133.9590  155.8266 H   0  0  0  0  0  0  0  0  0  0  0  0  # atno 11005 bound_to 11000
  146.3522  140.1146  142.8602 LP  0  0  0  0  0  0  0  0  0  0  0  0  # atno 17320 bound_to 7965
  145.0758  140.9187  143.4855 LP  0  0  0  0  0  0  0  0  0  0  0  0  # atno 17321 bound_to 7965
  139.9428  143.6363  152.3049 LP  0  0  0  0  0  0  0  0  0  0  0  0  # atno 17342 bound_to 10162
  139.6853  144.7652  151.1535 LP  0  0  0  0  0  0  0  0  0  0  0  0  # atno 17343 bound_to 10162
  157.1444  130.6157  149.5564 LP  0  0  0  0  0  0  0  0  0  0  0  0  # atno 17370 bound_to 10713
  155.9845  130.4870  150.6987 LP  0  0  0  0  0  0  0  0  0  0  0  0  # atno 17371 bound_to 10713
  141.0687  134.0238  157.3557 LP  0  0  0  0  0  0  0  0  0  0  0  0  # atno 17394 bound_to 11000
  139.9122  135.0192  156.7739 LP  0  0  0  0  0  0  0  0  0  0  0  0  # atno 17395 bound_to 11000

$$$$
