AV-unprocessed.smi:40|AV-procd|sdf|381|dock4
  -GOLD-   2262016233D 1   1.00000     0.00000
 Structure written by MMmdl.
 47 48  0  0  0  0  0  0  0  0  1 V2000
  152.2374  143.9878  159.3841 C   0  0  0  0  0  0  0  0  0  0  0  0
  152.1117  143.0436  160.5869 C   0  0  0  0  0  0  0  0  0  0  0  0
  153.0025  141.7942  160.4920 C   0  0  0  0  0  0  0  0  0  0  0  0
  152.5265  140.7706  159.4456 C   0  0  0  0  0  0  0  0  0  0  0  0
  153.1418  139.3791  159.6456 C   0  0  0  0  0  0  0  0  0  0  0  0
  153.0548  138.6493  158.4331 O   0  0  0  0  0  0  0  0  0  0  0  0
  152.2700  137.5603  158.3463 C   0  0  0  0  0  0  0  0  0  0  0  0
  151.7887  136.9798  159.3192 O   0  0  0  0  0  0  0  0  0  0  0  0
  152.0341  137.1807  156.9627 N   0  0  0  0  0  0  0  0  0  0  0  0
  151.3025  136.1496  156.4724 C   0  0  0  0  0  0  0  0  0  0  0  0
  151.1119  135.0265  157.1475 N   0  0  0  0  0  0  0  0  0  0  0  0
  150.3632  133.9761  156.6905 C   0  0  0  0  0  0  0  0  0  0  0  0
  150.2230  132.9597  157.3697 O   0  0  0  0  0  0  0  0  0  0  0  0
  149.7579  134.1132  155.4197 N   0  0  0  0  0  0  0  0  0  0  0  0
  148.9193  132.9652  154.8955 C   0  0  2  0  0  0  0  0  0  0  0  0
  148.7094  133.1308  153.5214 O   0  0  0  0  0  0  0  0  0  0  0  0
  147.3322  133.3850  153.2618 C   0  0  1  0  0  0  0  0  0  0  0  0
  146.9711  132.9223  151.8458 C   0  0  0  0  0  0  0  0  0  0  0  0
  146.6240  132.6161  154.3747 C   0  0  2  0  0  0  0  0  0  0  0  0
  145.2898  133.0425  154.5775 O   0  0  0  0  0  0  0  0  0  0  0  0
  147.5327  132.8637  155.5742 C   0  0  2  0  0  0  0  0  0  0  0  0
  147.1641  134.0318  156.2933 O   0  0  0  0  0  0  0  0  0  0  0  0
  149.9236  135.2913  154.7055 C   0  0  0  0  0  0  0  0  0  0  0  0
  150.6678  136.3126  155.1818 C   0  0  0  0  0  0  0  0  0  0  0  0
  150.8117  137.4457  154.4726 F   0  0  0  0  0  0  0  0  0  0  0  0
  149.5245  132.0658  155.0203 H   0  0  0  0  0  0  0  0  0  0  0  0
  147.1434  134.4544  153.3675 H   0  0  0  0  0  0  0  0  0  0  0  0
  146.6257  131.5503  154.1411 H   0  0  0  0  0  0  0  0  0  0  0  0
  147.5251  132.0199  156.2649 H   0  0  0  0  0  0  0  0  0  0  0  0
  151.5400  144.8209  159.4734 H   0  0  0  0  0  0  0  0  0  0  0  0
  152.0160  143.4692  158.4511 H   0  0  0  0  0  0  0  0  0  0  0  0
  153.2399  144.4085  159.3068 H   0  0  0  0  0  0  0  0  0  0  0  0
  152.3330  143.5864  161.5067 H   0  0  0  0  0  0  0  0  0  0  0  0
  151.0721  142.7248  160.6687 H   0  0  0  0  0  0  0  0  0  0  0  0
  154.0129  142.1178  160.2397 H   0  0  0  0  0  0  0  0  0  0  0  0
  153.0750  141.3176  161.4704 H   0  0  0  0  0  0  0  0  0  0  0  0
  151.4417  140.6775  159.4945 H   0  0  0  0  0  0  0  0  0  0  0  0
  152.7591  141.1291  158.4422 H   0  0  0  0  0  0  0  0  0  0  0  0
  154.1832  139.4637  159.9595 H   0  0  0  0  0  0  0  0  0  0  0  0
  152.6043  138.8456  160.4306 H   0  0  0  0  0  0  0  0  0  0  0  0
  152.5066  137.7655  156.2888 H   0  0  0  0  0  0  0  0  0  0  0  0
  145.9131  133.0848  151.6389 H   0  0  0  0  0  0  0  0  0  0  0  0
  147.1798  131.8606  151.7111 H   0  0  0  0  0  0  0  0  0  0  0  0
  147.5449  133.4721  151.0995 H   0  0  0  0  0  0  0  0  0  0  0  0
  144.7383  132.2781  154.6480 H   0  0  0  0  0  0  0  0  0  0  0  0
  146.4032  134.4087  155.8790 H   0  0  0  0  0  0  0  0  0  0  0  0
  149.4508  135.4205  153.7441 H   0  0  0  0  0  0  0  0  0  0  0  0
  1  2  1  0  0  0  0
  1 30  1  0  0  0  0
  1 31  1  0  0  0  0
  1 32  1  0  0  0  0
  2  3  1  0  0  0  0
  2 33  1  0  0  0  0
  2 34  1  0  0  0  0
  3  4  1  0  0  0  0
  3 35  1  0  0  0  0
  3 36  1  0  0  0  0
  4  5  1  0  0  0  0
  4 37  1  0  0  0  0
  4 38  1  0  0  0  0
  5  6  1  0  0  0  0
  5 39  1  0  0  0  0
  5 40  1  0  0  0  0
  6  7  1  0  0  0  0
  7  8  2  0  0  0  0
  7  9  1  0  0  0  0
  9 10  1  0  0  0  0
  9 41  1  0  0  0  0
 10 24  1  0  0  0  0
 10 11  2  0  0  0  0
 11 12  1  0  0  0  0
 12 13  2  0  0  0  0
 12 14  1  0  0  0  0
 14 15  1  0  0  0  0
 14 23  1  0  0  0  0
 15 26  1  0  0  0  0
 15 21  1  0  0  0  0
 15 16  1  0  0  0  0
 16 17  1  0  0  0  0
 17 27  1  0  0  0  0
 17 18  1  0  0  0  0
 17 19  1  0  0  0  0
 18 42  1  0  0  0  0
 18 43  1  0  0  0  0
 18 44  1  0  0  0  0
 19 28  1  0  0  0  0
 19 20  1  0  0  0  0
 19 21  1  0  0  0  0
 20 45  1  0  0  0  0
 21 29  1  0  0  0  0
 21 22  1  0  0  0  0
 22 46  1  0  0  0  0
 23 24  2  0  0  0  0
 23 47  1  0  0  0  0
 24 25  1  0  0  0  0
M  END
> <s_m_source_file>
AV-unprocessed.smi

> <i_m_source_file_index>
40

> <i_lp_mmshare_version>
43012

> <i_f3d_flags>
0

> <s_epik_input>
W0NIM11bQ0gyXVtDSDJdW0NIMl1bQ0gyXU9DKD1PKVtOSF1jMW5jKD1PKW4oW2NIXWMxRilbQ0BASF0yT1tDQEhdKFtDSDNdKVtDQEBIXShbT0hdKVtDQEhdMltPSF0=

> <s_epik_cmdline>
J2VwaWtfcHl0aG9uJywgJy1waCcsICc3LjAnLCAnLXRuJywgJzgnLCAnLW1hJywgJzIwMCcsICctbWV0YWxfYmluZGluZycsICctaW1hZScsICc8aW5maWxlLm1hZT4nLCAnLW9tYWUnLCAnPG91dGZpbGUubWFlPic=

> <r_lp_tautomer_probability>
1

> <r_epik_Ionization_Penalty>
2.29506e-06

> <r_epik_Ionization_Penalty_Charging>
8.26867e-09

> <r_epik_Ionization_Penalty_Neutral>
2.2868e-06

> <r_epik_State_Penalty>
-0

> <r_epik_Charging_Adjusted_Penalty>
8.26867e-09

> <i_epik_Tot_Q>
0

> <i_epik_Tot_abs_Q>
0

> <r_epik_Metal_State_Penalty>
-0

> <b_epik_Metal_Only>
0

> <s_epik_Chemistry_Notes>
This compound has an ester and may undergo hydrolysis at high or low pH. This compound contains an acetal/aminal-like group ( X-CH(R)-Y where X, Y are N, S, or O) that may be acid/base labile, releasing an aldehyde.

> <s_lp_Force_Field>
OPLS_2005

> <r_lp_Energy>
41.7027

> <b_lp_Chiralities_Consistent>
1

> <s_lp_Variant>
AV-unprocessed.smi:40-15

> <Gold.Version>
5.8.1

> <Gold.Id.Protein>
6NUR|6NUR_protein|mol2

> <Gold.PLP.Fitness>
46.9231

> <Gold.PLP.PLP>
-37.4804

> <Gold.PLP.part.hbond>
-4.0000

> <Gold.PLP.part.metal>
0.0000

> <Gold.PLP.part.buried>
-5.4707

> <Gold.PLP.part.nonpolar>
-30.0286

> <Gold.PLP.part.repulsive>
0.2827

> <Gold.PLP.ligand.clash>
0.0000

> <Gold.PLP.ligand.torsion>
1.3450

> <Gold.PLP.Chemscore.Hbond>
2.9750

> <Gold.PLP.Chemscore.CHOScore>
1.0000

> <Gold.PLP.Chemscore.Metal>
0.0000

> <Gold.Chemscore.Hbonds>
donor molecule, donor type, donor heavy atom, donor atom, acceptor molecule, acceptor atom, score
      L1  H    20    45       P1 10957  0.64
      P1  H  6896  6907       L1    13  0.86
      P1  H  6896  6908       L1     8  1.00
      L1  C    23    47       P1  7948  0.99

> <Gold.PLP.Chemscore.Internal.Correction>
0.2077

> <Gold.Rescore>
     Score         DG    S(hbond)    S(metal)    S(lipo)     H(rot)  DE(clash)    DE(int)     intcor
      9.50     -11.96       2.15        0.00      74.81       3.70       0.01       2.46       ----

> <Gold.Chemscore.Fitness>
9.4977

> <Gold.Chemscore.DG>
-11.9644

> <Gold.Chemscore.ZeroCoef>
-5.4800

> <Gold.Chemscore.Hbond>
2.1534

> <Gold.Chemscore.Metal>
0.0000

> <Gold.Chemscore.Lipo>
74.8117

> <Gold.Chemscore.Internal_Hbond>
0.0000

> <Gold.Chemscore.DEClash>
0.0089

> <Gold.Chemscore.DEInternal>
2.4579

> <Gold.Chemscore.Rot>
3.6957

> <Gold.Chemscore.Internal.Correction>
   9.000000E+99

> <Gold.Chemscore.Hbonds>
donor molecule, donor type, donor heavy atom, donor atom, acceptor molecule, acceptor atom, score
      L1  H    20    45       P1 10957  0.39
      P1  H  6896  6907       L1    13  0.25
      P1  H  6896  6908       L1     8  0.94

> <Gold.Chemscore.Hbond.Weighted>
-7.1924

> <Gold.Chemscore.Metal.Weighted>
-0.0000

> <Gold.Chemscore.Lipo.Weighted>
-8.7530

> <Gold.Chemscore.Internal_Hbond.Weighted>
0.0000

> <Gold.Chemscore.DEClash.Weighted>
0.0089

> <Gold.Chemscore.DEInternal.Weighted>
2.4579

> <Gold.Chemscore.Rot.Weighted>
9.4610

> <Gold.Chemscore.Internal.Correction.Weighted>
   9.000000E+99

> <Gold.Protein.RotatedTorsions>
[ 6907 6896 6895 6894 ] final -133.93 input  -60.11 | X-H torsion
[ 7974 7965 7964 7962 ] final   85.19 input  175.53 | X-H torsion
[ 8008 7997 7996 7995 ] final  110.60 input   59.86 | X-H torsion
[ 10167 10162 10161 10158 ] final -171.18 input  -65.29 | X-H torsion
[ 10718 10713 10712 10709 ] final    3.95 input   66.30 | X-H torsion
[ 10763 10752 10751 10750 ] final  -55.80 input  -60.55 | X-H torsion
[ 11005 11000 10999 10996 ] final -147.46 input  -57.11 | X-H torsion

> <Gold.Protein.ActiveResidues>
 VAL166  LYS551  ARG553  GLY616  TRP617  ASP618  TYR619  PRO620  LYS621  CYS622 
 ASP623  PHE694  ASN695  SER759  ASP760  ASP761  ALA762  ILE779  LEU786  VAL792 
 PHE793  MET794  SER795  GLU796  ALA797  LYS798  CYS799  TRP800  GLU811  SER814 

> <Gold.Protein.RotatedAtoms>
  150.9798  133.6257  159.2724 H   0  0  0  0  0  0  0  0  0  0  0  0  # atno 6907 bound_to 6896
  151.3516  135.0884  159.9414 H   0  0  0  0  0  0  0  0  0  0  0  0  # atno 6908 bound_to 6896
  152.5212  133.9390  159.7671 H   0  0  0  0  0  0  0  0  0  0  0  0  # atno 6909 bound_to 6896
  145.5888  139.2335  143.2311 H   0  0  0  0  0  0  0  0  0  0  0  0  # atno 7974 bound_to 7965
  156.2064  140.3035  155.9637 H   0  0  0  0  0  0  0  0  0  0  0  0  # atno 8008 bound_to 7997
  155.2830  140.0438  157.3034 H   0  0  0  0  0  0  0  0  0  0  0  0  # atno 8009 bound_to 7997
  154.5639  140.2328  155.8301 H   0  0  0  0  0  0  0  0  0  0  0  0  # atno 8010 bound_to 7997
  139.5817  144.1408  152.1524 H   0  0  0  0  0  0  0  0  0  0  0  0  # atno 10167 bound_to 10162
  156.8855  130.5669  149.5651 H   0  0  0  0  0  0  0  0  0  0  0  0  # atno 10718 bound_to 10713
  154.1965  135.6418  153.5075 H   0  0  0  0  0  0  0  0  0  0  0  0  # atno 10763 bound_to 10752
  153.0022  135.5441  154.6360 H   0  0  0  0  0  0  0  0  0  0  0  0  # atno 10764 bound_to 10752
  154.5762  135.2921  155.0751 H   0  0  0  0  0  0  0  0  0  0  0  0  # atno 10765 bound_to 10752
  140.7714  134.3184  157.5073 H   0  0  0  0  0  0  0  0  0  0  0  0  # atno 11005 bound_to 11000
  146.1662  140.6715  142.9254 LP  0  0  0  0  0  0  0  0  0  0  0  0  # atno 17320 bound_to 7965
  144.7360  140.4810  143.6903 LP  0  0  0  0  0  0  0  0  0  0  0  0  # atno 17321 bound_to 7965
  140.0962  144.5578  150.7020 LP  0  0  0  0  0  0  0  0  0  0  0  0  # atno 17342 bound_to 10162
  140.7095  143.2493  151.4626 LP  0  0  0  0  0  0  0  0  0  0  0  0  # atno 17343 bound_to 10162
  156.0655  130.5699  150.9280 LP  0  0  0  0  0  0  0  0  0  0  0  0  # atno 17370 bound_to 10713
  157.6115  131.0936  150.8786 LP  0  0  0  0  0  0  0  0  0  0  0  0  # atno 17371 bound_to 10713
  139.8755  134.9263  156.3397 LP  0  0  0  0  0  0  0  0  0  0  0  0  # atno 17394 bound_to 11000
  140.9570  133.7413  156.0349 LP  0  0  0  0  0  0  0  0  0  0  0  0  # atno 17395 bound_to 11000

$$$$
