AV-unprocessed.smi:1535|AV-procd|sdf|6178|dock6
  -GOLD-   22720 6333D 1   1.00000     0.00000
 Structure written by MMmdl.
 47 48  0  0  0  0  0  0  0  0  2 V2000
  153.4893  142.9867  161.3780 C   0  0  0  0  0  0  0  0  0  0  0  0
  152.8806  142.6656  160.0243 C   0  0  0  0  0  0  0  0  0  0  0  0
  153.0543  141.3722  159.4829 C   0  0  0  0  0  0  0  0  0  0  0  0
  152.5034  141.0324  158.2282 C   0  0  0  0  0  0  0  0  0  0  0  0
  152.5513  139.8450  157.5187 N   0  0  0  0  0  0  0  0  0  0  0  0
  151.8542  140.1545  156.4301 C   0  0  0  0  0  0  0  0  0  0  0  0
  151.3704  141.4089  156.3428 N   0  0  0  0  0  0  0  0  0  0  0  0
  150.5937  141.9706  155.2514 C   0  0  0  0  0  0  0  0  0  0  0  0
  149.5114  141.0047  154.7292 C   0  0  2  0  0  0  0  0  0  0  0  0
  150.1503  140.0032  153.9646 O   0  0  0  0  0  0  0  0  0  0  0  0
  148.4366  141.6850  153.8512 C   0  0  0  0  0  0  0  0  0  0  0  0
  147.6340  142.6629  154.6265 N   0  3  2  0  0  0  0  0  0  0  0  0
  147.2357  142.1362  155.9513 C   0  0  0  0  0  0  0  0  0  0  0  0
  146.4812  143.2107  153.8642 C   0  0  0  0  0  0  0  0  0  0  0  0
  145.8597  144.4311  154.5655 C   0  0  2  0  0  0  0  0  0  0  0  0
  144.8906  144.0085  155.6766 C   0  0  0  0  0  0  0  0  0  0  0  0
  145.1882  145.3127  153.5966 C   0  0  0  0  0  0  0  0  0  0  0  0
  144.6642  146.0084  152.8357 N   0  0  0  0  0  0  0  0  0  0  0  0
  151.7667  142.0293  157.5237 C   0  0  0  0  0  0  0  0  0  0  0  0
  151.5825  143.3182  158.0552 C   0  0  0  0  0  0  0  0  0  0  0  0
  152.1434  143.6424  159.3081 C   0  0  0  0  0  0  0  0  0  0  0  0
  151.9419  145.0382  159.8710 C   0  0  0  0  0  0  0  0  0  0  0  0
  153.9937  142.1189  161.8044 H   0  0  0  0  0  0  0  0  0  0  0  0
  152.7164  143.3014  162.0793 H   0  0  0  0  0  0  0  0  0  0  0  0
  154.2226  143.7885  161.2874 H   0  0  0  0  0  0  0  0  0  0  0  0
  153.6138  140.6269  160.0294 H   0  0  0  0  0  0  0  0  0  0  0  0
  151.6939  139.4290  155.6457 H   0  0  0  0  0  0  0  0  0  0  0  0
  150.1349  142.8983  155.5973 H   0  0  0  0  0  0  0  0  0  0  0  0
  151.2809  142.2418  154.4488 H   0  0  0  0  0  0  0  0  0  0  0  0
  149.0457  140.5125  155.5818 H   0  0  0  0  0  0  0  0  0  0  0  0
  149.6836  139.9009  153.1485 H   0  0  0  0  0  0  0  0  0  0  0  0
  148.8793  142.2029  152.9996 H   0  0  0  0  0  0  0  0  0  0  0  0
  147.7908  140.9118  153.4309 H   0  0  0  0  0  0  0  0  0  0  0  0
  146.5937  141.2605  155.8467 H   0  0  0  0  0  0  0  0  0  0  0  0
  146.6964  142.8884  156.5268 H   0  0  0  0  0  0  0  0  0  0  0  0
  148.1137  141.8489  156.5307 H   0  0  0  0  0  0  0  0  0  0  0  0
  146.7939  143.5149  152.8647 H   0  0  0  0  0  0  0  0  0  0  0  0
  145.7354  142.4287  153.7135 H   0  0  0  0  0  0  0  0  0  0  0  0
  146.6512  145.0266  155.0204 H   0  0  0  0  0  0  0  0  0  0  0  0
  144.4777  144.8800  156.1858 H   0  0  0  0  0  0  0  0  0  0  0  0
  145.3926  143.3956  156.4257 H   0  0  0  0  0  0  0  0  0  0  0  0
  144.0564  143.4319  155.2756 H   0  0  0  0  0  0  0  0  0  0  0  0
  151.0129  144.0528  157.5060 H   0  0  0  0  0  0  0  0  0  0  0  0
  151.4073  145.6777  159.1682 H   0  0  0  0  0  0  0  0  0  0  0  0
  152.9017  145.5084  160.0850 H   0  0  0  0  0  0  0  0  0  0  0  0
  151.3628  144.9964  160.7938 H   0  0  0  0  0  0  0  0  0  0  0  0
  148.2602  143.4354  154.8057 H   0  0  0  0  0  0  0  0  0  0  0  0
  1  2  1  0  0  0  0
  1 23  1  0  0  0  0
  1 24  1  0  0  0  0
  1 25  1  0  0  0  0
  2 21  1  0  0  0  0
  2  3  2  0  0  0  0
  3  4  1  0  0  0  0
  3 26  1  0  0  0  0
  4 19  2  0  0  0  0
  4  5  1  0  0  0  0
  5  6  2  0  0  0  0
  6  7  1  0  0  0  0
  6 27  1  0  0  0  0
  7  8  1  0  0  0  0
  7 19  1  0  0  0  0
  8  9  1  0  0  0  0
  8 28  1  0  0  0  0
  8 29  1  0  0  0  0
  9 10  1  0  0  0  0
  9 11  1  0  0  0  0
  9 30  1  0  0  0  0
 10 31  1  0  0  0  0
 11 12  1  0  0  0  0
 11 32  1  0  0  0  0
 11 33  1  0  0  0  0
 12 13  1  0  0  0  0
 12 14  1  0  0  0  0
 12 47  1  0  0  0  0
 13 34  1  0  0  0  0
 13 35  1  0  0  0  0
 13 36  1  0  0  0  0
 14 15  1  0  0  0  0
 14 37  1  0  0  0  0
 14 38  1  0  0  0  0
 15 16  1  0  0  0  0
 15 17  1  0  0  0  0
 15 39  1  0  0  0  0
 16 40  1  0  0  0  0
 16 41  1  0  0  0  0
 16 42  1  0  0  0  0
 17 18  3  0  0  0  0
 19 20  1  0  0  0  0
 20 21  2  0  0  0  0
 20 43  1  0  0  0  0
 21 22  1  0  0  0  0
 22 44  1  0  0  0  0
 22 45  1  0  0  0  0
 22 46  1  0  0  0  0
M  CHG  1  12   1
M  END
> <s_m_source_file>
AV-unprocessed.smi

> <i_m_source_file_index>
1535

> <i_lp_mmshare_version>
43012

> <i_f3d_flags>
0

> <s_epik_input>
W0NIM11jKFtjSF0xKWMoW0NIM10pW2NIXWMoYzEyKW4oW2NIXW4yKVtDSDJdW0NASF0oW09IXSlbQ0gyXU4oW0NIM10pW0NIMl1bQ0BIXShbQ0gzXSlDI04=

> <s_epik_cmdline>
J2VwaWtfcHl0aG9uJywgJy1waCcsICc3LjAnLCAnLXRuJywgJzgnLCAnLW1hJywgJzIwMCcsICctbWV0YWxfYmluZGluZycsICctaW1hZScsICc8aW5maWxlLm1hZT4nLCAnLW9tYWUnLCAnPG91dGZpbGUubWFlPic=

> <r_epik_Ionization_Penalty>
2.21058

> <r_epik_Ionization_Penalty_Charging>
2.12381

> <r_epik_Ionization_Penalty_Neutral>
0.0867699

> <r_epik_State_Penalty>
2.36208

> <r_epik_Charging_Adjusted_Penalty>
4.48589

> <i_epik_Tot_Q>
1

> <i_epik_Tot_abs_Q>
1

> <r_epik_Metal_State_Penalty>
2.2818

> <b_epik_Metal_Only>
0

> <s_lp_Force_Field>
OPLS_2005

> <r_lp_Energy>
15.029

> <b_lp_Chiralities_Consistent>
1

> <s_lp_Variant>
AV-unprocessed.smi:1535-9

> <Gold.Version>
5.8.1

> <Gold.Id.Protein>
6NUR|6NUR_protein|mol2

> <Gold.PLP.Fitness>
64.1383

> <Gold.PLP.PLP>
-50.4753

> <Gold.PLP.part.hbond>
-5.0000

> <Gold.PLP.part.metal>
0.0000

> <Gold.PLP.part.buried>
-6.7250

> <Gold.PLP.part.nonpolar>
-37.2116

> <Gold.PLP.part.repulsive>
0.2389

> <Gold.PLP.ligand.clash>
0.0000

> <Gold.PLP.ligand.torsion>
0.7299

> <Gold.PLP.Chemscore.Hbond>
4.9920

> <Gold.PLP.Chemscore.CHOScore>
0.0000

> <Gold.PLP.Chemscore.Metal>
0.0000

> <Gold.Chemscore.Hbonds>
donor molecule, donor type, donor heavy atom, donor atom, acceptor molecule, acceptor atom, score
      L1  H    10    31       P1  7957  1.00
      L1  H    12    47       P1  8028  2.00
      P1  H  7989  7998       L1    10  0.94
      P1  H  7997  8009       L1     5  0.85

> <Gold.PLP.Chemscore.Internal.Correction>
0.1468

> <Gold.Rescore>
     Score         DG    S(hbond)    S(metal)    S(lipo)     H(rot)  DE(clash)    DE(int)     intcor
     14.84     -18.98       1.77        0.00     121.72       2.60       1.98       2.16       ----

> <Gold.Chemscore.Fitness>
14.8398

> <Gold.Chemscore.DG>
-18.9761

> <Gold.Chemscore.ZeroCoef>
-5.4800

> <Gold.Chemscore.Hbond>
1.7722

> <Gold.Chemscore.Metal>
0.0000

> <Gold.Chemscore.Lipo>
121.7170

> <Gold.Chemscore.Internal_Hbond>
0.0000

> <Gold.Chemscore.DEClash>
1.9781

> <Gold.Chemscore.DEInternal>
2.1581

> <Gold.Chemscore.Rot>
2.6031

> <Gold.Chemscore.Internal.Correction>
   9.000000E+99

> <Gold.Chemscore.Hbonds>
donor molecule, donor type, donor heavy atom, donor atom, acceptor molecule, acceptor atom, score
      L1  H    10    31       P1  7957  0.91
      L1  H    12    47       P1  8028  0.95
      P1  H  7989  7998       L1    10  0.09
      P1  H  7997  8009       L1     5  0.03

> <Gold.Chemscore.Hbond.Weighted>
-5.9191

> <Gold.Chemscore.Metal.Weighted>
-0.0000

> <Gold.Chemscore.Lipo.Weighted>
-14.2409

> <Gold.Chemscore.Internal_Hbond.Weighted>
0.0000

> <Gold.Chemscore.DEClash.Weighted>
1.9781

> <Gold.Chemscore.DEInternal.Weighted>
2.1581

> <Gold.Chemscore.Rot.Weighted>
6.6640

> <Gold.Chemscore.Internal.Correction.Weighted>
   9.000000E+99

> <Gold.Protein.RotatedTorsions>
[ 6907 6896 6895 6894 ] final -177.78 input  -60.11 | X-H torsion
[ 7974 7965 7964 7962 ] final   51.51 input  175.53 | X-H torsion
[ 8008 7997 7996 7995 ] final  169.65 input   59.86 | X-H torsion
[ 10167 10162 10161 10158 ] final  104.63 input  -65.29 | X-H torsion
[ 10718 10713 10712 10709 ] final  -75.52 input   66.30 | X-H torsion
[ 10763 10752 10751 10750 ] final  -60.22 input  -60.55 | X-H torsion
[ 11005 11000 10999 10996 ] final   -9.33 input  -57.11 | X-H torsion

> <Gold.Protein.ActiveResidues>
 VAL166  LYS551  ARG553  GLY616  TRP617  ASP618  TYR619  PRO620  LYS621  CYS622 
 ASP623  PHE694  ASN695  SER759  ASP760  ASP761  ALA762  ILE779  LEU786  VAL792 
 PHE793  MET794  SER795  GLU796  ALA797  LYS798  CYS799  TRP800  GLU811  SER814 

> <Gold.Protein.RotatedAtoms>
  151.6266  133.3335  159.3099 H   0  0  0  0  0  0  0  0  0  0  0  0  # atno 6907 bound_to 6896
  150.8078  134.7218  159.6672 H   0  0  0  0  0  0  0  0  0  0  0  0  # atno 6908 bound_to 6896
  152.4174  134.6022  160.0054 H   0  0  0  0  0  0  0  0  0  0  0  0  # atno 6909 bound_to 6896
  145.9906  139.4335  143.0075 H   0  0  0  0  0  0  0  0  0  0  0  0  # atno 7974 bound_to 7965
  156.1438  140.1558  156.8879 H   0  0  0  0  0  0  0  0  0  0  0  0  # atno 8008 bound_to 7997
  154.5010  140.0825  156.7835 H   0  0  0  0  0  0  0  0  0  0  0  0  # atno 8009 bound_to 7997
  155.4028  140.3415  155.4260 H   0  0  0  0  0  0  0  0  0  0  0  0  # atno 8010 bound_to 7997
  139.7161  144.7068  151.0948 H   0  0  0  0  0  0  0  0  0  0  0  0  # atno 10167 bound_to 10162
  156.0205  130.4443  150.3056 H   0  0  0  0  0  0  0  0  0  0  0  0  # atno 10718 bound_to 10713
  154.2658  135.6299  153.5291 H   0  0  0  0  0  0  0  0  0  0  0  0  # atno 10763 bound_to 10752
  152.9888  135.5598  154.5654 H   0  0  0  0  0  0  0  0  0  0  0  0  # atno 10764 bound_to 10752
  154.5213  135.2882  155.1235 H   0  0  0  0  0  0  0  0  0  0  0  0  # atno 10765 bound_to 10752
  140.7330  133.8733  155.8907 H   0  0  0  0  0  0  0  0  0  0  0  0  # atno 11005 bound_to 11000
  145.7635  140.9926  143.1187 LP  0  0  0  0  0  0  0  0  0  0  0  0  # atno 17320 bound_to 7965
  144.6888  139.9359  143.7473 LP  0  0  0  0  0  0  0  0  0  0  0  0  # atno 17321 bound_to 7965
  140.7744  143.5228  150.9516 LP  0  0  0  0  0  0  0  0  0  0  0  0  # atno 17342 bound_to 10162
  139.8914  143.6949  152.3144 LP  0  0  0  0  0  0  0  0  0  0  0  0  # atno 17343 bound_to 10162
  157.1158  131.0233  151.3029 LP  0  0  0  0  0  0  0  0  0  0  0  0  # atno 17370 bound_to 10713
  157.4668  130.7685  149.7286 LP  0  0  0  0  0  0  0  0  0  0  0  0  # atno 17371 bound_to 10713
  140.9904  134.1286  157.4413 LP  0  0  0  0  0  0  0  0  0  0  0  0  # atno 17394 bound_to 11000
  139.8822  135.0039  156.6213 LP  0  0  0  0  0  0  0  0  0  0  0  0  # atno 17395 bound_to 11000

$$$$
