AV-unprocessed.smi:1945|AV-procd|sdf|7857|dock4
  -GOLD-   2272010 03D 1   1.00000     0.00000
 Structure written by MMmdl.
 47 48  0  0  0  0  0  0  0  0  1 V2000
  149.8364  142.0225  155.5796 C   0  0  0  0  0  0  0  0  0  0  0  0
  150.0848  140.5963  155.1865 C   0  0  0  0  0  0  0  0  0  0  0  0
  149.1232  139.5710  154.9517 C   0  0  0  0  0  0  0  0  0  0  0  0
  149.9035  138.4950  154.6273 C   0  0  0  0  0  0  0  0  0  0  0  0
  149.5216  137.2349  154.2885 N   0  0  0  0  0  0  0  0  0  0  0  0
  148.8498  136.3360  155.0282 C   0  0  0  0  0  0  0  0  0  0  0  0
  148.5386  136.4768  156.2110 O   0  0  0  0  0  0  0  0  0  0  0  0
  148.5551  135.2427  154.3097 N   0  0  0  0  0  0  0  0  0  0  0  0
  147.7775  134.1051  154.7903 C   0  0  0  0  0  0  0  0  0  0  0  0
  147.7700  132.9584  153.7684 C   0  0  0  0  0  0  0  0  0  0  0  0
  147.3580  133.4653  152.5082 O   0  0  0  0  0  0  0  0  0  0  0  0
  146.0334  133.1213  152.1284 C   0  0  2  0  0  0  0  0  0  0  0  0
  145.9879  131.6237  151.7565 C   0  0  0  0  0  0  0  0  0  0  0  0
  144.6186  131.2224  151.1889 C   0  0  0  0  0  0  0  0  0  0  0  0
  144.2458  132.0952  149.9825 C   0  0  0  0  0  0  0  0  0  0  0  0
  144.2779  133.5859  150.3510 C   0  0  0  0  0  0  0  0  0  0  0  0
  145.6485  134.0045  150.9199 C   0  0  1  0  0  0  0  0  0  0  0  0
  145.6520  135.4981  151.2832 C   0  0  0  0  0  0  0  0  0  0  0  0
  151.2261  138.8767  154.6653 N   0  0  0  0  0  0  0  0  0  0  0  0
  152.4196  138.0985  154.3969 C   0  0  0  0  0  0  0  0  0  0  0  0
  151.3336  140.1760  155.0181 N   0  0  0  0  0  0  0  0  0  0  0  0
  148.7701  142.2497  155.5846 H   0  0  0  0  0  0  0  0  0  0  0  0
  150.3179  142.7115  154.8852 H   0  0  0  0  0  0  0  0  0  0  0  0
  150.2241  142.2272  156.5776 H   0  0  0  0  0  0  0  0  0  0  0  0
  148.0472  139.6368  155.0120 H   0  0  0  0  0  0  0  0  0  0  0  0
  149.7512  136.9543  153.3467 H   0  0  0  0  0  0  0  0  0  0  0  0
  148.8604  135.2090  153.3483 H   0  0  0  0  0  0  0  0  0  0  0  0
  148.2394  133.7610  155.7158 H   0  0  0  0  0  0  0  0  0  0  0  0
  146.7595  134.4048  155.0452 H   0  0  0  0  0  0  0  0  0  0  0  0
  148.7577  132.4997  153.7155 H   0  0  0  0  0  0  0  0  0  0  0  0
  147.0702  132.1839  154.0845 H   0  0  0  0  0  0  0  0  0  0  0  0
  145.3390  133.3235  152.9466 H   0  0  0  0  0  0  0  0  0  0  0  0
  146.7622  131.4087  151.0185 H   0  0  0  0  0  0  0  0  0  0  0  0
  146.2120  131.0039  152.6242 H   0  0  0  0  0  0  0  0  0  0  0  0
  144.6305  130.1716  150.8984 H   0  0  0  0  0  0  0  0  0  0  0  0
  143.8572  131.3221  151.9636 H   0  0  0  0  0  0  0  0  0  0  0  0
  144.9409  131.9050  149.1636 H   0  0  0  0  0  0  0  0  0  0  0  0
  143.2551  131.8231  149.6174 H   0  0  0  0  0  0  0  0  0  0  0  0
  144.0428  134.1826  149.4689 H   0  0  0  0  0  0  0  0  0  0  0  0
  143.4957  133.7955  151.0818 H   0  0  0  0  0  0  0  0  0  0  0  0
  146.3947  133.8523  150.1383 H   0  0  0  0  0  0  0  0  0  0  0  0
  144.9326  135.7153  152.0735 H   0  0  0  0  0  0  0  0  0  0  0  0
  145.3943  136.1122  150.4200 H   0  0  0  0  0  0  0  0  0  0  0  0
  146.6342  135.8202  151.6301 H   0  0  0  0  0  0  0  0  0  0  0  0
  152.2695  137.4845  153.5085 H   0  0  0  0  0  0  0  0  0  0  0  0
  152.6303  137.4504  155.2477 H   0  0  0  0  0  0  0  0  0  0  0  0
  153.2742  138.7550  154.2280 H   0  0  0  0  0  0  0  0  0  0  0  0
  1  2  1  0  0  0  0
  1 22  1  0  0  0  0
  1 23  1  0  0  0  0
  1 24  1  0  0  0  0
  2 21  2  0  0  0  0
  2  3  1  0  0  0  0
  3  4  2  0  0  0  0
  3 25  1  0  0  0  0
  4  5  1  0  0  0  0
  4 19  1  0  0  0  0
  5  6  1  0  0  0  0
  5 26  1  0  0  0  0
  6  7  2  0  0  0  0
  6  8  1  0  0  0  0
  8  9  1  0  0  0  0
  8 27  1  0  0  0  0
  9 10  1  0  0  0  0
  9 28  1  0  0  0  0
  9 29  1  0  0  0  0
 10 11  1  0  0  0  0
 10 30  1  0  0  0  0
 10 31  1  0  0  0  0
 11 12  1  0  0  0  0
 12 17  1  0  0  0  0
 12 13  1  0  0  0  0
 12 32  1  0  0  0  0
 13 14  1  0  0  0  0
 13 33  1  0  0  0  0
 13 34  1  0  0  0  0
 14 15  1  0  0  0  0
 14 35  1  0  0  0  0
 14 36  1  0  0  0  0
 15 16  1  0  0  0  0
 15 37  1  0  0  0  0
 15 38  1  0  0  0  0
 16 17  1  0  0  0  0
 16 39  1  0  0  0  0
 16 40  1  0  0  0  0
 17 18  1  0  0  0  0
 17 41  1  0  0  0  0
 18 42  1  0  0  0  0
 18 43  1  0  0  0  0
 18 44  1  0  0  0  0
 19 20  1  0  0  0  0
 19 21  1  0  0  0  0
 20 45  1  0  0  0  0
 20 46  1  0  0  0  0
 20 47  1  0  0  0  0
M  END
> <s_m_source_file>
AV-unprocessed.smi

> <i_m_source_file_index>
1945

> <i_lp_mmshare_version>
43012

> <i_f3d_flags>
0

> <s_epik_input>
W0NIM11jMVtjSF1jKG4objEpW0NIM10pW05IXUMoPU8pW05IXVtDSDJdW0NIMl1PW0NAQEhdMltDSDJdW0NIMl1bQ0gyXVtDSDJdW0NASF0yW0NIM10=

> <s_epik_cmdline>
J2VwaWtfcHl0aG9uJywgJy1waCcsICc3LjAnLCAnLXRuJywgJzgnLCAnLW1hJywgJzIwMCcsICctbWV0YWxfYmluZGluZycsICctaW1hZScsICc8aW5maWxlLm1hZT4nLCAnLW9tYWUnLCAnPG91dGZpbGUubWFlPic=

> <r_lp_tautomer_probability>
1

> <r_epik_Ionization_Penalty>
9.47735e-05

> <r_epik_Ionization_Penalty_Charging>
0

> <r_epik_Ionization_Penalty_Neutral>
9.47735e-05

> <r_epik_State_Penalty>
-0

> <r_epik_Charging_Adjusted_Penalty>
0

> <i_epik_Tot_Q>
0

> <i_epik_Tot_abs_Q>
0

> <r_epik_Metal_State_Penalty>
-0

> <b_epik_Metal_Only>
0

> <s_lp_Force_Field>
OPLS_2005

> <r_lp_Energy>
11.707

> <b_lp_Chiralities_Consistent>
1

> <s_lp_Variant>
AV-unprocessed.smi:1945-1

> <Gold.Version>
5.8.1

> <Gold.Id.Protein>
6NUR|6NUR_protein|mol2

> <Gold.PLP.Fitness>
43.2716

> <Gold.PLP.PLP>
-37.1543

> <Gold.PLP.part.hbond>
-3.0000

> <Gold.PLP.part.metal>
0.0000

> <Gold.PLP.part.buried>
-3.3681

> <Gold.PLP.part.nonpolar>
-32.3927

> <Gold.PLP.part.repulsive>
0.2746

> <Gold.PLP.ligand.clash>
0.0000

> <Gold.PLP.ligand.torsion>
1.0208

> <Gold.PLP.Chemscore.Hbond>
2.6960

> <Gold.PLP.Chemscore.CHOScore>
0.0000

> <Gold.PLP.Chemscore.Metal>
0.0000

> <Gold.Chemscore.Hbonds>
donor molecule, donor type, donor heavy atom, donor atom, acceptor molecule, acceptor atom, score
      L1  H     5    26       P1  7948  0.83
      L1  H     8    27       P1  7948  0.86
      P1  H  7989  7998       L1    21  0.95

> <Gold.PLP.Chemscore.Internal.Correction>
0.0708

> <Gold.Rescore>
     Score         DG    S(hbond)    S(metal)    S(lipo)     H(rot)  DE(clash)    DE(int)     intcor
     16.57     -17.93       1.81        0.00      90.43       1.63       0.34       1.02       ----

> <Gold.Chemscore.Fitness>
16.5664

> <Gold.Chemscore.DG>
-17.9313

> <Gold.Chemscore.ZeroCoef>
-5.4800

> <Gold.Chemscore.Hbond>
1.8106

> <Gold.Chemscore.Metal>
0.0000

> <Gold.Chemscore.Lipo>
90.4328

> <Gold.Chemscore.Internal_Hbond>
0.0000

> <Gold.Chemscore.DEClash>
0.3428

> <Gold.Chemscore.DEInternal>
1.0221

> <Gold.Chemscore.Rot>
1.6316

> <Gold.Chemscore.Internal.Correction>
   9.000000E+99

> <Gold.Chemscore.Hbonds>
donor molecule, donor type, donor heavy atom, donor atom, acceptor molecule, acceptor atom, score
      L1  H     5    26       P1  7948  0.42
      L1  H     8    27       P1  7948  0.51
      P1  H  7989  7998       L1    21  0.05

> <Gold.Chemscore.Hbond.Weighted>
-6.0474

> <Gold.Chemscore.Metal.Weighted>
-0.0000

> <Gold.Chemscore.Lipo.Weighted>
-10.5806

> <Gold.Chemscore.Internal_Hbond.Weighted>
0.0000

> <Gold.Chemscore.DEClash.Weighted>
0.3428

> <Gold.Chemscore.DEInternal.Weighted>
1.0221

> <Gold.Chemscore.Rot.Weighted>
4.1768

> <Gold.Chemscore.Internal.Correction.Weighted>
   9.000000E+99

> <Gold.Protein.RotatedTorsions>
[ 6907 6896 6895 6894 ] final   -1.51 input  -60.11 | X-H torsion
[ 7974 7965 7964 7962 ] final  -53.31 input  175.53 | X-H torsion
[ 8008 7997 7996 7995 ] final  -52.53 input   59.86 | X-H torsion
[ 10167 10162 10161 10158 ] final  178.77 input  -65.29 | X-H torsion
[ 10718 10713 10712 10709 ] final    0.94 input   66.30 | X-H torsion
[ 10763 10752 10751 10750 ] final  177.15 input  -60.55 | X-H torsion
[ 11005 11000 10999 10996 ] final   84.30 input  -57.11 | X-H torsion

> <Gold.Protein.ActiveResidues>
 VAL166  LYS551  ARG553  GLY616  TRP617  ASP618  TYR619  PRO620  LYS621  CYS622 
 ASP623  PHE694  ASN695  SER759  ASP760  ASP761  ALA762  ILE779  LEU786  VAL792 
 PHE793  MET794  SER795  GLU796  ALA797  LYS798  CYS799  TRP800  GLU811  SER814 

> <Gold.Protein.RotatedAtoms>
  151.5448  135.1068  159.9935 H   0  0  0  0  0  0  0  0  0  0  0  0  # atno 6907 bound_to 6896
  152.4519  133.7641  159.6773 H   0  0  0  0  0  0  0  0  0  0  0  0  # atno 6908 bound_to 6896
  150.8449  133.7810  159.3071 H   0  0  0  0  0  0  0  0  0  0  0  0  # atno 6909 bound_to 6896
  145.8983  140.8015  142.9756 H   0  0  0  0  0  0  0  0  0  0  0  0  # atno 7974 bound_to 7965
  154.4109  140.1221  156.5007 H   0  0  0  0  0  0  0  0  0  0  0  0  # atno 8008 bound_to 7997
  155.6898  140.3495  155.4869 H   0  0  0  0  0  0  0  0  0  0  0  0  # atno 8009 bound_to 7997
  155.9479  140.1099  157.0991 H   0  0  0  0  0  0  0  0  0  0  0  0  # atno 8010 bound_to 7997
  139.5308  144.2640  152.0683 H   0  0  0  0  0  0  0  0  0  0  0  0  # atno 10167 bound_to 10162
  156.8409  130.5520  149.5678 H   0  0  0  0  0  0  0  0  0  0  0  0  # atno 10718 bound_to 10713
  154.4906  135.2779  155.1499 H   0  0  0  0  0  0  0  0  0  0  0  0  # atno 10763 bound_to 10752
  154.3172  135.6217  153.5495 H   0  0  0  0  0  0  0  0  0  0  0  0  # atno 10764 bound_to 10752
  152.9887  135.5734  154.5327 H   0  0  0  0  0  0  0  0  0  0  0  0  # atno 10765 bound_to 10752
  139.9004  134.8206  156.2426 H   0  0  0  0  0  0  0  0  0  0  0  0  # atno 11005 bound_to 11000
  144.6734  140.1636  143.7420 LP  0  0  0  0  0  0  0  0  0  0  0  0  # atno 17320 bound_to 7965
  145.8823  139.2330  143.1598 LP  0  0  0  0  0  0  0  0  0  0  0  0  # atno 17321 bound_to 7965
  140.2103  144.4569  150.6389 LP  0  0  0  0  0  0  0  0  0  0  0  0  # atno 17342 bound_to 10162
  140.6485  143.2219  151.6132 LP  0  0  0  0  0  0  0  0  0  0  0  0  # atno 17343 bound_to 10162
  156.0881  130.5874  150.9685 LP  0  0  0  0  0  0  0  0  0  0  0  0  # atno 17370 bound_to 10713
  157.6356  131.0916  150.8355 LP  0  0  0  0  0  0  0  0  0  0  0  0  # atno 17371 bound_to 10713
  141.0275  133.7007  156.1373 LP  0  0  0  0  0  0  0  0  0  0  0  0  # atno 17394 bound_to 11000
  140.7144  134.4426  157.5579 LP  0  0  0  0  0  0  0  0  0  0  0  0  # atno 17395 bound_to 11000

$$$$
