AV-unprocessed.smi:3132|AV-procd|sdf|11936|dock6
  -GOLD-   2272017323D 1   1.00000     0.00000
 Structure written by MMmdl.
 33 34  0  0  0  0  0  0  0  0  1 V2000
  148.7807  140.7195  157.7143 C   0  0  0  0  0  0  0  0  0  0  0  0
  150.2158  140.8019  157.1737 C   0  0  1  0  0  0  0  0  0  0  0  0
  150.2662  141.4962  155.7996 C   0  0  0  0  0  0  0  0  0  0  0  0
  149.2463  140.9965  154.8958 N   0  0  0  0  0  0  0  0  0  0  0  0
  148.2295  141.7250  154.2924 C   0  0  0  0  0  0  0  0  0  0  0  0
  147.5157  140.8373  153.5195 C   0  0  0  0  0  0  0  0  0  0  0  0
  148.0700  139.5646  153.6341 N   0  0  0  0  0  0  0  0  0  0  0  0
  149.0901  139.7373  154.4648 C   0  0  0  0  0  0  0  0  0  0  0  0
  151.0618  141.5187  158.1257 N   0  0  0  0  0  0  0  0  0  0  0  0
  152.3087  141.1729  158.4799 C   0  0  0  0  0  0  0  0  0  0  0  0
  152.8831  140.1728  158.0481 O   0  0  0  0  0  0  0  0  0  0  0  0
  153.0156  142.1171  159.4592 C   0  0  1  0  0  0  0  0  0  0  0  0
  153.1249  143.5742  158.9713 C   0  0  0  0  0  0  0  0  0  0  0  0
  152.1654  144.3262  159.8725 C   0  0  0  0  0  0  0  0  0  0  0  0
  152.2198  143.4957  161.1467 C   0  0  0  0  0  0  0  0  0  0  0  0
  152.2471  142.1630  160.6601 O   0  0  0  0  0  0  0  0  0  0  0  0
  148.1341  140.1735  157.0270 H   0  0  0  0  0  0  0  0  0  0  0  0
  148.3520  141.7120  157.8565 H   0  0  0  0  0  0  0  0  0  0  0  0
  148.7507  140.2015  158.6734 H   0  0  0  0  0  0  0  0  0  0  0  0
  150.5861  139.7827  157.0478 H   0  0  0  0  0  0  0  0  0  0  0  0
  150.1169  142.5706  155.9142 H   0  0  0  0  0  0  0  0  0  0  0  0
  151.2445  141.3644  155.3348 H   0  0  0  0  0  0  0  0  0  0  0  0
  148.1039  142.7854  154.4542 H   0  0  0  0  0  0  0  0  0  0  0  0
  146.6528  141.0155  152.8950 H   0  0  0  0  0  0  0  0  0  0  0  0
  149.7414  138.9293  154.7646 H   0  0  0  0  0  0  0  0  0  0  0  0
  150.6775  142.3612  158.5279 H   0  0  0  0  0  0  0  0  0  0  0  0
  154.0117  141.7354  159.6899 H   0  0  0  0  0  0  0  0  0  0  0  0
  154.1418  143.9362  159.1269 H   0  0  0  0  0  0  0  0  0  0  0  0
  152.8907  143.7143  157.9152 H   0  0  0  0  0  0  0  0  0  0  0  0
  152.4492  145.3674  160.0279 H   0  0  0  0  0  0  0  0  0  0  0  0
  151.1587  144.3023  159.4533 H   0  0  0  0  0  0  0  0  0  0  0  0
  153.1339  143.6996  161.7067 H   0  0  0  0  0  0  0  0  0  0  0  0
  151.3653  143.6677  161.8017 H   0  0  0  0  0  0  0  0  0  0  0  0
  1  2  1  0  0  0  0
  1 17  1  0  0  0  0
  1 18  1  0  0  0  0
  1 19  1  0  0  0  0
  2  3  1  0  0  0  0
  2  9  1  0  0  0  0
  2 20  1  0  0  0  0
  3  4  1  0  0  0  0
  3 21  1  0  0  0  0
  3 22  1  0  0  0  0
  4  8  1  0  0  0  0
  4  5  1  0  0  0  0
  5  6  2  0  0  0  0
  5 23  1  0  0  0  0
  6  7  1  0  0  0  0
  6 24  1  0  0  0  0
  7  8  2  0  0  0  0
  8 25  1  0  0  0  0
  9 10  1  0  0  0  0
  9 26  1  0  0  0  0
 10 11  2  0  0  0  0
 10 12  1  0  0  0  0
 12 16  1  0  0  0  0
 12 13  1  0  0  0  0
 12 27  1  0  0  0  0
 13 14  1  0  0  0  0
 13 28  1  0  0  0  0
 13 29  1  0  0  0  0
 14 15  1  0  0  0  0
 14 30  1  0  0  0  0
 14 31  1  0  0  0  0
 15 16  1  0  0  0  0
 15 32  1  0  0  0  0
 15 33  1  0  0  0  0
M  END
> <s_m_source_file>
AV-unprocessed.smi

> <i_m_source_file_index>
3132

> <i_lp_mmshare_version>
43012

> <i_f3d_flags>
0

> <s_epik_input>
W2NIXTFuW2NIXVtjSF1uMVtDSDJdW0NAQEhdKFtDSDNdKVtOSF1DKD1PKVtDQEBIXTJbQ0gyXVtDSDJdW0NIMl1PMg==

> <s_epik_cmdline>
J2VwaWtfcHl0aG9uJywgJy1waCcsICc3LjAnLCAnLXRuJywgJzgnLCAnLW1hJywgJzIwMCcsICctbWV0YWxfYmluZGluZycsICctaW1hZScsICc8aW5maWxlLm1hZT4nLCAnLW9tYWUnLCAnPG91dGZpbGUubWFlPic=

> <r_lp_tautomer_probability>
1

> <r_epik_Ionization_Penalty>
0.630322

> <r_epik_Ionization_Penalty_Charging>
0.630322

> <r_epik_Ionization_Penalty_Neutral>
3.82652e-08

> <r_epik_State_Penalty>
0.647117

> <r_epik_Charging_Adjusted_Penalty>
1.27744

> <i_epik_Tot_Q>
0

> <i_epik_Tot_abs_Q>
0

> <r_epik_Metal_State_Penalty>
0.309095

> <b_epik_Metal_Only>
0

> <s_lp_Force_Field>
OPLS_2005

> <r_lp_Energy>
20.0706

> <b_lp_Chiralities_Consistent>
1

> <s_lp_Variant>
AV-unprocessed.smi:3132-8

> <Gold.Version>
5.8.1

> <Gold.Id.Protein>
6NUR|6NUR_protein|mol2

> <Gold.PLP.Fitness>
40.5318

> <Gold.PLP.PLP>
-35.2198

> <Gold.PLP.part.hbond>
-1.0556

> <Gold.PLP.part.metal>
0.0000

> <Gold.PLP.part.buried>
-4.5207

> <Gold.PLP.part.nonpolar>
-30.7314

> <Gold.PLP.part.repulsive>
1.6036

> <Gold.PLP.ligand.clash>
0.0000

> <Gold.PLP.ligand.torsion>
0.3520

> <Gold.PLP.Chemscore.Hbond>
1.0000

> <Gold.PLP.Chemscore.CHOScore>
1.0000

> <Gold.PLP.Chemscore.Metal>
0.0000

> <Gold.Chemscore.Hbonds>
donor molecule, donor type, donor heavy atom, donor atom, acceptor molecule, acceptor atom, score
      P1  H  7997  8009       L1    11  1.00
      L1  C     5    23       P1  8028  1.00

> <Gold.PLP.Chemscore.Internal.Correction>
0.0160

> <Gold.Rescore>
     Score         DG    S(hbond)    S(metal)    S(lipo)     H(rot)  DE(clash)    DE(int)     intcor
     12.73     -13.09       0.95        0.00      78.70       1.86       0.07       0.29       ----

> <Gold.Chemscore.Fitness>
12.7327

> <Gold.Chemscore.DG>
-13.0916

> <Gold.Chemscore.ZeroCoef>
-5.4800

> <Gold.Chemscore.Hbond>
0.9506

> <Gold.Chemscore.Metal>
0.0000

> <Gold.Chemscore.Lipo>
78.6952

> <Gold.Chemscore.Internal_Hbond>
0.0000

> <Gold.Chemscore.DEClash>
0.0692

> <Gold.Chemscore.DEInternal>
0.2897

> <Gold.Chemscore.Rot>
1.8636

> <Gold.Chemscore.Internal.Correction>
   9.000000E+99

> <Gold.Chemscore.Hbonds>
donor molecule, donor type, donor heavy atom, donor atom, acceptor molecule, acceptor atom, score
      P1  H  7997  8009       L1    11  0.92

> <Gold.Chemscore.Hbond.Weighted>
-3.1751

> <Gold.Chemscore.Metal.Weighted>
-0.0000

> <Gold.Chemscore.Lipo.Weighted>
-9.2073

> <Gold.Chemscore.Internal_Hbond.Weighted>
0.0000

> <Gold.Chemscore.DEClash.Weighted>
0.0692

> <Gold.Chemscore.DEInternal.Weighted>
0.2897

> <Gold.Chemscore.Rot.Weighted>
4.7709

> <Gold.Chemscore.Internal.Correction.Weighted>
   9.000000E+99

> <Gold.Protein.RotatedTorsions>
[ 6907 6896 6895 6894 ] final -145.09 input  -60.11 | X-H torsion
[ 7974 7965 7964 7962 ] final   48.05 input  175.53 | X-H torsion
[ 8008 7997 7996 7995 ] final  161.76 input   59.86 | X-H torsion
[ 10167 10162 10161 10158 ] final  113.37 input  -65.29 | X-H torsion
[ 10718 10713 10712 10709 ] final   24.54 input   66.30 | X-H torsion
[ 10763 10752 10751 10750 ] final -136.42 input  -60.55 | X-H torsion
[ 11005 11000 10999 10996 ] final -137.44 input  -57.11 | X-H torsion

> <Gold.Protein.ActiveResidues>
 VAL166  LYS551  ARG553  GLY616  TRP617  ASP618  TYR619  PRO620  LYS621  CYS622 
 ASP623  PHE694  ASN695  SER759  ASP760  ASP761  ALA762  ILE779  LEU786  VAL792 
 PHE793  MET794  SER795  GLU796  ALA797  LYS798  CYS799  TRP800  GLU811  SER814 

> <Gold.Protein.RotatedAtoms>
  151.1229  133.5091  159.2601 H   0  0  0  0  0  0  0  0  0  0  0  0  # atno 6907 bound_to 6896
  151.1841  135.0373  159.8815 H   0  0  0  0  0  0  0  0  0  0  0  0  # atno 6908 bound_to 6896
  152.5456  134.1078  159.8398 H   0  0  0  0  0  0  0  0  0  0  0  0  # atno 6909 bound_to 6896
  146.0240  139.4685  142.9879 H   0  0  0  0  0  0  0  0  0  0  0  0  # atno 7974 bound_to 7965
  156.2080  140.1768  156.7758 H   0  0  0  0  0  0  0  0  0  0  0  0  # atno 8008 bound_to 7997
  154.5682  140.0687  156.8954 H   0  0  0  0  0  0  0  0  0  0  0  0  # atno 8009 bound_to 7997
  155.2722  140.3343  155.4267 H   0  0  0  0  0  0  0  0  0  0  0  0  # atno 8010 bound_to 7997
  139.6466  144.7127  151.2130 H   0  0  0  0  0  0  0  0  0  0  0  0  # atno 10167 bound_to 10162
  157.1812  130.6803  149.6114 H   0  0  0  0  0  0  0  0  0  0  0  0  # atno 10718 bound_to 10713
  154.8684  135.3673  154.5058 H   0  0  0  0  0  0  0  0  0  0  0  0  # atno 10763 bound_to 10752
  153.5696  135.7021  153.5515 H   0  0  0  0  0  0  0  0  0  0  0  0  # atno 10764 bound_to 10752
  153.3554  135.4061  155.1641 H   0  0  0  0  0  0  0  0  0  0  0  0  # atno 10765 bound_to 10752
  140.8711  134.2049  157.4650 H   0  0  0  0  0  0  0  0  0  0  0  0  # atno 11005 bound_to 11000
  145.7147  141.0095  143.1434 LP  0  0  0  0  0  0  0  0  0  0  0  0  # atno 17320 bound_to 7965
  144.7002  139.8799  143.7446 LP  0  0  0  0  0  0  0  0  0  0  0  0  # atno 17321 bound_to 7965
  140.7517  143.6220  150.8504 LP  0  0  0  0  0  0  0  0  0  0  0  0  # atno 17342 bound_to 10162
  139.9864  143.5895  152.2925 LP  0  0  0  0  0  0  0  0  0  0  0  0  # atno 17343 bound_to 10162
  155.9724  130.4646  150.6224 LP  0  0  0  0  0  0  0  0  0  0  0  0  # atno 17370 bound_to 10713
  157.3951  131.0801  151.1359 LP  0  0  0  0  0  0  0  0  0  0  0  0  # atno 17371 bound_to 10713
  139.8712  134.9774  156.4960 LP  0  0  0  0  0  0  0  0  0  0  0  0  # atno 17394 bound_to 11000
  140.8572  133.8087  155.9228 LP  0  0  0  0  0  0  0  0  0  0  0  0  # atno 17395 bound_to 11000

$$$$
