AV-unprocessed.smi:1605|AV-procd|sdf|6458|dock2
  -GOLD-   22720 7113D 1   1.00000     0.00000
 Structure written by MMmdl.
 52 54  0  0  0  0  0  0  0  0  3 V2000
  146.0549  132.9384  155.8544 C   0  0  0  0  0  0  0  0  0  0  0  0
  147.3956  132.9857  155.3910 O   0  0  0  0  0  0  0  0  0  0  0  0
  147.5644  133.6380  154.1374 C   0  0  2  0  0  0  0  0  0  0  0  0
  149.0271  133.5791  153.6579 C   0  0  0  0  0  0  0  0  0  0  0  0
  149.9578  134.3643  154.5975 C   0  0  0  0  0  0  0  0  0  0  0  0
  149.5157  135.7781  154.7348 N   0  3  2  0  0  0  0  0  0  0  0  0
  150.4526  136.6056  155.5372 C   0  0  0  0  0  0  0  0  0  0  0  0
  150.0788  138.1046  155.5263 C   0  0  1  0  0  0  0  0  0  0  0  0
  149.1476  138.3556  156.5588 O   0  0  0  0  0  0  0  0  0  0  0  0
  151.2848  139.0382  155.7592 C   0  0  0  0  0  0  0  0  0  0  0  0
  150.8984  140.4300  156.0249 N   0  0  0  0  0  0  0  0  0  0  0  0
  150.0863  141.2654  155.3209 C   0  0  0  0  0  0  0  0  0  0  0  0
  150.0522  142.4562  155.9808 N   0  3  0  0  0  0  0  0  0  0  0  0
  150.8640  142.3846  157.1151 C   0  0  0  0  0  0  0  0  0  0  0  0
  151.1525  143.3310  158.0912 C   0  0  0  0  0  0  0  0  0  0  0  0
  152.0341  142.9429  159.1255 C   0  0  0  0  0  0  0  0  0  0  0  0
  152.3732  143.9544  160.2071 C   0  0  0  0  0  0  0  0  0  0  0  0
  152.5945  141.6394  159.1568 C   0  0  0  0  0  0  0  0  0  0  0  0
  153.5425  141.2331  160.2723 C   0  0  0  0  0  0  0  0  0  0  0  0
  152.2887  140.6913  158.1544 C   0  0  0  0  0  0  0  0  0  0  0  0
  151.4161  141.0894  157.1448 C   0  0  0  0  0  0  0  0  0  0  0  0
  148.1184  135.8673  155.2315 C   0  0  0  0  0  0  0  0  0  0  0  0
  147.1475  135.1062  154.3113 C   0  0  0  0  0  0  0  0  0  0  0  0
  146.0304  132.4728  156.8395 H   0  0  0  0  0  0  0  0  0  0  0  0
  145.4167  132.3497  155.1960 H   0  0  0  0  0  0  0  0  0  0  0  0
  145.6330  133.9396  155.9492 H   0  0  0  0  0  0  0  0  0  0  0  0
  146.9093  133.1779  153.3956 H   0  0  0  0  0  0  0  0  0  0  0  0
  149.3687  132.5484  153.5672 H   0  0  0  0  0  0  0  0  0  0  0  0
  149.0922  134.0026  152.6549 H   0  0  0  0  0  0  0  0  0  0  0  0
  149.9812  133.8905  155.5803 H   0  0  0  0  0  0  0  0  0  0  0  0
  150.9735  134.3193  154.2065 H   0  0  0  0  0  0  0  0  0  0  0  0
  150.4663  136.2620  156.5729 H   0  0  0  0  0  0  0  0  0  0  0  0
  151.4626  136.4480  155.1575 H   0  0  0  0  0  0  0  0  0  0  0  0
  149.6062  138.3745  154.5832 H   0  0  0  0  0  0  0  0  0  0  0  0
  149.5773  138.8265  157.2561 H   0  0  0  0  0  0  0  0  0  0  0  0
  151.8922  138.6911  156.5966 H   0  0  0  0  0  0  0  0  0  0  0  0
  151.9361  139.0421  154.8838 H   0  0  0  0  0  0  0  0  0  0  0  0
  149.5617  141.0274  154.4066 H   0  0  0  0  0  0  0  0  0  0  0  0
  150.7242  144.3223  158.0599 H   0  0  0  0  0  0  0  0  0  0  0  0
  153.4505  144.1109  160.2632 H   0  0  0  0  0  0  0  0  0  0  0  0
  152.0227  143.6069  161.1790 H   0  0  0  0  0  0  0  0  0  0  0  0
  151.9075  144.9205  160.0103 H   0  0  0  0  0  0  0  0  0  0  0  0
  153.8403  140.1881  160.1821 H   0  0  0  0  0  0  0  0  0  0  0  0
  153.0683  141.3598  161.2457 H   0  0  0  0  0  0  0  0  0  0  0  0
  154.4470  141.8410  160.2448 H   0  0  0  0  0  0  0  0  0  0  0  0
  152.7201  139.7012  158.1748 H   0  0  0  0  0  0  0  0  0  0  0  0
  148.0659  135.4732  156.2479 H   0  0  0  0  0  0  0  0  0  0  0  0
  147.8124  136.9131  155.2821 H   0  0  0  0  0  0  0  0  0  0  0  0
  147.1196  135.5930  153.3353 H   0  0  0  0  0  0  0  0  0  0  0  0
  146.1336  135.1618  154.7094 H   0  0  0  0  0  0  0  0  0  0  0  0
  149.5047  136.1776  153.8074 H   0  0  0  0  0  0  0  0  0  0  0  0
  149.5191  143.2600  155.6736 H   0  0  0  0  0  0  0  0  0  0  0  0
  1  2  1  0  0  0  0
  1 24  1  0  0  0  0
  1 25  1  0  0  0  0
  1 26  1  0  0  0  0
  2  3  1  0  0  0  0
  3 23  1  0  0  0  0
  3  4  1  0  0  0  0
  3 27  1  0  0  0  0
  4  5  1  0  0  0  0
  4 28  1  0  0  0  0
  4 29  1  0  0  0  0
  5  6  1  0  0  0  0
  5 30  1  0  0  0  0
  5 31  1  0  0  0  0
  6  7  1  0  0  0  0
  6 22  1  0  0  0  0
  6 51  1  0  0  0  0
  7  8  1  0  0  0  0
  7 32  1  0  0  0  0
  7 33  1  0  0  0  0
  8  9  1  0  0  0  0
  8 10  1  0  0  0  0
  8 34  1  0  0  0  0
  9 35  1  0  0  0  0
 10 11  1  0  0  0  0
 10 36  1  0  0  0  0
 10 37  1  0  0  0  0
 11 21  1  0  0  0  0
 11 12  1  0  0  0  0
 12 13  2  0  0  0  0
 12 38  1  0  0  0  0
 13 14  1  0  0  0  0
 13 52  1  0  0  0  0
 14 21  2  0  0  0  0
 14 15  1  0  0  0  0
 15 16  2  0  0  0  0
 15 39  1  0  0  0  0
 16 17  1  0  0  0  0
 16 18  1  0  0  0  0
 17 40  1  0  0  0  0
 17 41  1  0  0  0  0
 17 42  1  0  0  0  0
 18 19  1  0  0  0  0
 18 20  2  0  0  0  0
 19 43  1  0  0  0  0
 19 44  1  0  0  0  0
 19 45  1  0  0  0  0
 20 21  1  0  0  0  0
 20 46  1  0  0  0  0
 22 23  1  0  0  0  0
 22 47  1  0  0  0  0
 22 48  1  0  0  0  0
 23 49  1  0  0  0  0
 23 50  1  0  0  0  0
M  CHG  1   6   1
M  CHG  1  13   1
M  END
> <s_m_source_file>
AV-unprocessed.smi

> <i_m_source_file_index>
1605

> <i_lp_mmshare_version>
43012

> <i_f3d_flags>
0

> <s_epik_input>
W0NIM11PW0NIXTFbQ0gyXVtDSDJdTihbQ0gyXVtDSDJdMSlbQ0gyXVtDQEhdKFtPSF0pW0NIMl1uKFtjSF1uMiljKGMyMylbY0hdYyhbQ0gzXSljKFtjSF0zKVtDSDNd

> <s_epik_cmdline>
J2VwaWtfcHl0aG9uJywgJy1waCcsICc3LjAnLCAnLXRuJywgJzgnLCAnLW1hJywgJzIwMCcsICctbWV0YWxfYmluZGluZycsICctaW1hZScsICc8aW5maWxlLm1hZT4nLCAnLW9tYWUnLCAnPG91dGZpbGUubWFlPic=

> <r_epik_Ionization_Penalty>
1.19848

> <r_epik_Ionization_Penalty_Charging>
1.19848

> <r_epik_Ionization_Penalty_Neutral>
1.67134e-06

> <r_epik_State_Penalty>
1.2782

> <r_epik_Charging_Adjusted_Penalty>
2.47668

> <i_epik_Tot_Q>
2

> <i_epik_Tot_abs_Q>
2

> <r_epik_Metal_State_Penalty>
5.29544

> <b_epik_Metal_Only>
0

> <s_lp_Force_Field>
OPLS_2005

> <r_lp_Energy>
34.9642

> <b_lp_Chiralities_Consistent>
1

> <s_lp_Variant>
AV-unprocessed.smi:1605-8

> <Gold.Version>
5.8.1

> <Gold.Id.Protein>
6NUR|6NUR_protein|mol2

> <Gold.PLP.Fitness>
51.6020

> <Gold.PLP.PLP>
-40.4157

> <Gold.PLP.part.hbond>
-2.0000

> <Gold.PLP.part.metal>
0.0000

> <Gold.PLP.part.buried>
-3.5677

> <Gold.PLP.part.nonpolar>
-33.8107

> <Gold.PLP.part.repulsive>
0.1728

> <Gold.PLP.ligand.clash>
0.0000

> <Gold.PLP.ligand.torsion>
0.4650

> <Gold.PLP.Chemscore.Hbond>
4.0000

> <Gold.PLP.Chemscore.CHOScore>
0.0000

> <Gold.PLP.Chemscore.Metal>
0.0000

> <Gold.Chemscore.Hbonds>
donor molecule, donor type, donor heavy atom, donor atom, acceptor molecule, acceptor atom, score
      L1  H     6    51       P1  7948  2.00
      L1  H    13    52       P1  8028  2.00

> <Gold.PLP.Chemscore.Internal.Correction>
0.1162

> <Gold.Rescore>
     Score         DG    S(hbond)    S(metal)    S(lipo)     H(rot)  DE(clash)    DE(int)     intcor
     17.12     -18.69       1.88        0.00     109.35       2.28       0.42       1.16       ----

> <Gold.Chemscore.Fitness>
17.1163

> <Gold.Chemscore.DG>
-18.6913

> <Gold.Chemscore.ZeroCoef>
-5.4800

> <Gold.Chemscore.Hbond>
1.8756

> <Gold.Chemscore.Metal>
0.0000

> <Gold.Chemscore.Lipo>
109.3470

> <Gold.Chemscore.Internal_Hbond>
0.0000

> <Gold.Chemscore.DEClash>
0.4156

> <Gold.Chemscore.DEInternal>
1.1594

> <Gold.Chemscore.Rot>
2.2839

> <Gold.Chemscore.Internal.Correction>
   9.000000E+99

> <Gold.Chemscore.Hbonds>
donor molecule, donor type, donor heavy atom, donor atom, acceptor molecule, acceptor atom, score
      L1  H     6    51       P1  7948  0.62
      L1  H    13    52       P1  8028  0.98

> <Gold.Chemscore.Hbond.Weighted>
-6.2646

> <Gold.Chemscore.Metal.Weighted>
-0.0000

> <Gold.Chemscore.Lipo.Weighted>
-12.7936

> <Gold.Chemscore.Internal_Hbond.Weighted>
0.0000

> <Gold.Chemscore.DEClash.Weighted>
0.4156

> <Gold.Chemscore.DEInternal.Weighted>
1.1594

> <Gold.Chemscore.Rot.Weighted>
5.8469

> <Gold.Chemscore.Internal.Correction.Weighted>
   9.000000E+99

> <Gold.Protein.RotatedTorsions>
[ 6907 6896 6895 6894 ] final  153.38 input  -60.11 | X-H torsion
[ 7974 7965 7964 7962 ] final  121.84 input  175.53 | X-H torsion
[ 8008 7997 7996 7995 ] final  -47.01 input   59.86 | X-H torsion
[ 10167 10162 10161 10158 ] final   81.48 input  -65.29 | X-H torsion
[ 10718 10713 10712 10709 ] final  106.00 input   66.30 | X-H torsion
[ 10763 10752 10751 10750 ] final   -5.42 input  -60.55 | X-H torsion
[ 11005 11000 10999 10996 ] final  -31.78 input  -57.11 | X-H torsion

> <Gold.Protein.ActiveResidues>
 VAL166  LYS551  ARG553  GLY616  TRP617  ASP618  TYR619  PRO620  LYS621  CYS622 
 ASP623  PHE694  ASN695  SER759  ASP760  ASP761  ALA762  ILE779  LEU786  VAL792 
 PHE793  MET794  SER795  GLU796  ALA797  LYS798  CYS799  TRP800  GLU811  SER814 

> <Gold.Protein.RotatedAtoms>
  152.0735  133.4118  159.4469 H   0  0  0  0  0  0  0  0  0  0  0  0  # atno 6907 bound_to 6896
  150.6863  134.3064  159.4737 H   0  0  0  0  0  0  0  0  0  0  0  0  # atno 6908 bound_to 6896
  152.0898  134.9414  160.0622 H   0  0  0  0  0  0  0  0  0  0  0  0  # atno 6909 bound_to 6896
  145.1145  139.3430  143.4746 H   0  0  0  0  0  0  0  0  0  0  0  0  # atno 7974 bound_to 7965
  154.4012  140.1357  156.4105 H   0  0  0  0  0  0  0  0  0  0  0  0  # atno 8008 bound_to 7997
  155.7738  140.3483  155.5241 H   0  0  0  0  0  0  0  0  0  0  0  0  # atno 8009 bound_to 7997
  155.8741  140.0976  157.1521 H   0  0  0  0  0  0  0  0  0  0  0  0  # atno 8010 bound_to 7997
  139.9388  144.6104  150.8272 H   0  0  0  0  0  0  0  0  0  0  0  0  # atno 10167 bound_to 10162
  157.6684  131.0841  150.5942 H   0  0  0  0  0  0  0  0  0  0  0  0  # atno 10718 bound_to 10713
  153.3982  135.7004  153.6445 H   0  0  0  0  0  0  0  0  0  0  0  0  # atno 10763 bound_to 10752
  153.4989  135.3656  155.2530 H   0  0  0  0  0  0  0  0  0  0  0  0  # atno 10764 bound_to 10752
  154.8708  135.4107  154.3312 H   0  0  0  0  0  0  0  0  0  0  0  0  # atno 10765 bound_to 10752
  140.9497  133.7228  156.1200 H   0  0  0  0  0  0  0  0  0  0  0  0  # atno 11005 bound_to 11000
  146.3524  140.1078  142.8605 LP  0  0  0  0  0  0  0  0  0  0  0  0  # atno 17320 bound_to 7965
  145.0809  140.9220  143.4826 LP  0  0  0  0  0  0  0  0  0  0  0  0  # atno 17321 bound_to 7965
  140.7617  143.3180  151.2688 LP  0  0  0  0  0  0  0  0  0  0  0  0  # atno 17342 bound_to 10162
  139.6722  144.0000  152.2759 LP  0  0  0  0  0  0  0  0  0  0  0  0  # atno 17343 bound_to 10162
  156.6242  130.4414  149.5811 LP  0  0  0  0  0  0  0  0  0  0  0  0  # atno 17370 bound_to 10713
  156.2332  130.6807  151.1484 LP  0  0  0  0  0  0  0  0  0  0  0  0  # atno 17371 bound_to 10713
  140.7620  134.3928  157.5524 LP  0  0  0  0  0  0  0  0  0  0  0  0  # atno 17394 bound_to 11000
  139.8844  134.8967  156.2708 LP  0  0  0  0  0  0  0  0  0  0  0  0  # atno 17395 bound_to 11000

$$$$
