AV-unprocessed.smi:811|AV-procd|sdf|3813|dock7
  -GOLD-   22720 1253D 1   1.00000     0.00000
 Structure written by MMmdl.
 46 48  0  0  0  0  0  0  0  0  2 V2000
  141.8160  134.7941  153.3822 C   0  0  0  0  0  0  0  0  0  0  0  0
  143.1974  134.2843  153.2422 N   0  3  1  0  0  0  0  0  0  0  0  0
  143.5712  133.9392  151.8469 C   0  0  0  0  0  0  0  0  0  0  0  0
  144.9448  134.5709  151.5903 C   0  0  0  0  0  0  0  0  0  0  0  0
  144.9384  135.7668  152.5337 C   0  0  2  0  0  0  0  0  0  0  0  0
  146.2705  136.2761  152.8476 N   0  0  0  0  0  0  0  0  0  0  0  0
  146.5620  137.1457  153.8258 C   0  0  0  0  0  0  0  0  0  0  0  0
  145.7220  137.6090  154.5965 O   0  0  0  0  0  0  0  0  0  0  0  0
  147.8719  137.4471  153.8302 N   0  0  0  0  0  0  0  0  0  0  0  0
  148.5748  138.3353  154.6890 C   0  0  0  0  0  0  0  0  0  0  0  0
  148.3602  138.4361  156.0844 C   0  0  0  0  0  0  0  0  0  0  0  0
  149.1345  139.3469  156.8281 C   0  0  0  0  0  0  0  0  0  0  0  0
  150.1028  140.1228  156.1593 C   0  0  0  0  0  0  0  0  0  0  0  0
  150.8740  141.0322  156.8966 N   0  0  0  0  0  0  0  0  0  0  0  0
  151.6839  140.4006  157.9309 C   0  0  0  0  0  0  0  0  0  0  0  0
  152.5883  141.4483  158.6027 C   0  0  0  0  0  0  0  0  0  0  0  0
  151.7900  142.5128  159.1131 O   0  0  0  0  0  0  0  0  0  0  0  0
  151.0554  143.1715  158.0851 C   0  0  0  0  0  0  0  0  0  0  0  0
  150.1117  142.1678  157.4006 C   0  0  0  0  0  0  0  0  0  0  0  0
  150.3229  140.0228  154.8270 N   0  0  0  0  0  0  0  0  0  0  0  0
  149.5780  139.1472  154.1203 C   0  0  0  0  0  0  0  0  0  0  0  0
  144.2323  135.2034  153.7665 C   0  0  0  0  0  0  0  0  0  0  0  0
  141.6849  135.7284  152.8346 H   0  0  0  0  0  0  0  0  0  0  0  0
  141.5795  134.9755  154.4311 H   0  0  0  0  0  0  0  0  0  0  0  0
  141.0995  134.0674  152.9980 H   0  0  0  0  0  0  0  0  0  0  0  0
  143.5841  132.8592  151.6989 H   0  0  0  0  0  0  0  0  0  0  0  0
  142.8461  134.3573  151.1466 H   0  0  0  0  0  0  0  0  0  0  0  0
  145.7347  133.8711  151.8685 H   0  0  0  0  0  0  0  0  0  0  0  0
  145.0936  134.8528  150.5475 H   0  0  0  0  0  0  0  0  0  0  0  0
  144.3080  136.5453  152.0988 H   0  0  0  0  0  0  0  0  0  0  0  0
  147.0287  135.9540  152.2639 H   0  0  0  0  0  0  0  0  0  0  0  0
  148.4226  137.0423  153.0874 H   0  0  0  0  0  0  0  0  0  0  0  0
  147.6332  137.8293  156.6009 H   0  0  0  0  0  0  0  0  0  0  0  0
  148.9886  139.4430  157.8942 H   0  0  0  0  0  0  0  0  0  0  0  0
  151.0363  139.9388  158.6776 H   0  0  0  0  0  0  0  0  0  0  0  0
  152.2904  139.6069  157.4929 H   0  0  0  0  0  0  0  0  0  0  0  0
  153.1436  140.9943  159.4233 H   0  0  0  0  0  0  0  0  0  0  0  0
  153.3235  141.8376  157.8964 H   0  0  0  0  0  0  0  0  0  0  0  0
  150.4813  143.9873  158.5244 H   0  0  0  0  0  0  0  0  0  0  0  0
  151.7407  143.6165  157.3621 H   0  0  0  0  0  0  0  0  0  0  0  0
  149.5816  142.6514  156.5790 H   0  0  0  0  0  0  0  0  0  0  0  0
  149.3603  141.8234  158.1128 H   0  0  0  0  0  0  0  0  0  0  0  0
  149.7887  139.0985  153.0617 H   0  0  0  0  0  0  0  0  0  0  0  0
  143.8245  135.9867  154.4073 H   0  0  0  0  0  0  0  0  0  0  0  0
  144.9280  134.6167  154.3687 H   0  0  0  0  0  0  0  0  0  0  0  0
  143.2536  133.4384  153.7915 H   0  0  0  0  0  0  0  0  0  0  0  0
  1  2  1  0  0  0  0
  1 23  1  0  0  0  0
  1 24  1  0  0  0  0
  1 25  1  0  0  0  0
  2 22  1  0  0  0  0
  2  3  1  0  0  0  0
  2 46  1  0  0  0  0
  3  4  1  0  0  0  0
  3 26  1  0  0  0  0
  3 27  1  0  0  0  0
  4  5  1  0  0  0  0
  4 28  1  0  0  0  0
  4 29  1  0  0  0  0
  5  6  1  0  0  0  0
  5 22  1  0  0  0  0
  5 30  1  0  0  0  0
  6  7  1  0  0  0  0
  6 31  1  0  0  0  0
  7  8  2  0  0  0  0
  7  9  1  0  0  0  0
  9 10  1  0  0  0  0
  9 32  1  0  0  0  0
 10 21  1  0  0  0  0
 10 11  2  0  0  0  0
 11 12  1  0  0  0  0
 11 33  1  0  0  0  0
 12 13  2  0  0  0  0
 12 34  1  0  0  0  0
 13 14  1  0  0  0  0
 13 20  1  0  0  0  0
 14 19  1  0  0  0  0
 14 15  1  0  0  0  0
 15 16  1  0  0  0  0
 15 35  1  0  0  0  0
 15 36  1  0  0  0  0
 16 17  1  0  0  0  0
 16 37  1  0  0  0  0
 16 38  1  0  0  0  0
 17 18  1  0  0  0  0
 18 19  1  0  0  0  0
 18 39  1  0  0  0  0
 18 40  1  0  0  0  0
 19 41  1  0  0  0  0
 19 42  1  0  0  0  0
 20 21  2  0  0  0  0
 21 43  1  0  0  0  0
 22 44  1  0  0  0  0
 22 45  1  0  0  0  0
M  CHG  1   2   1
M  END
> <s_m_source_file>
AV-unprocessed.smi

> <i_m_source_file_index>
811

> <i_lp_mmshare_version>
43012

> <i_f3d_flags>
0

> <s_epik_input>
W0NIM11OMVtDSDJdW0NIMl1bQ0BIXShbQ0gyXTEpW05IXUMoPU8pW05IXWMyW2NIXVtjSF1jKG5bY0hdMilOM1tDSDJdW0NIMl1PW0NIMl1bQ0gyXTM=

> <s_epik_cmdline>
J2VwaWtfcHl0aG9uJywgJy1waCcsICc3LjAnLCAnLXRuJywgJzgnLCAnLW1hJywgJzIwMCcsICctbWV0YWxfYmluZGluZycsICctaW1hZScsICc8aW5maWxlLm1hZT4nLCAnLW9tYWUnLCAnPG91dGZpbGUubWFlPic=

> <r_lp_tautomer_probability>
1

> <r_epik_Ionization_Penalty>
0.00503422

> <r_epik_Ionization_Penalty_Charging>
0.00366104

> <r_epik_Ionization_Penalty_Neutral>
0.00137318

> <r_epik_State_Penalty>
-0

> <r_epik_Charging_Adjusted_Penalty>
0.00366104

> <i_epik_Tot_Q>
1

> <i_epik_Tot_abs_Q>
1

> <r_epik_Metal_State_Penalty>
-0

> <b_epik_Metal_Only>
0

> <s_lp_Force_Field>
OPLS_2005

> <r_lp_Energy>
46.7377

> <b_lp_Chiralities_Consistent>
1

> <s_lp_Variant>
AV-unprocessed.smi:811-3

> <Gold.Version>
5.8.1

> <Gold.Id.Protein>
6NUR|6NUR_protein|mol2

> <Gold.PLP.Fitness>
43.3770

> <Gold.PLP.PLP>
-26.6385

> <Gold.PLP.part.hbond>
-4.0000

> <Gold.PLP.part.metal>
0.0000

> <Gold.PLP.part.buried>
-4.7068

> <Gold.PLP.part.nonpolar>
-18.4442

> <Gold.PLP.part.repulsive>
0.1870

> <Gold.PLP.ligand.clash>
0.0000

> <Gold.PLP.ligand.torsion>
0.5055

> <Gold.PLP.Chemscore.Hbond>
4.8785

> <Gold.PLP.Chemscore.CHOScore>
1.0000

> <Gold.PLP.Chemscore.Metal>
0.0000

> <Gold.Chemscore.Hbonds>
donor molecule, donor type, donor heavy atom, donor atom, acceptor molecule, acceptor atom, score
      L1  H     2    46       P1 10957  1.98
      L1  H     6    31       P1  7948  0.90
      L1  H     9    32       P1  7948  1.00
      P1  H  7989  7998       L1    20  0.96
      L1  C    21    43       P1  7957  1.00

> <Gold.PLP.Chemscore.Internal.Correction>
0.1141

> <Gold.Rescore>
     Score         DG    S(hbond)    S(metal)    S(lipo)     H(rot)  DE(clash)    DE(int)     intcor
     19.89     -21.12       3.40        0.00      63.63       1.23       0.11       1.12       ----

> <Gold.Chemscore.Fitness>
19.8907

> <Gold.Chemscore.DG>
-21.1229

> <Gold.Chemscore.ZeroCoef>
-5.4800

> <Gold.Chemscore.Hbond>
3.3970

> <Gold.Chemscore.Metal>
0.0000

> <Gold.Chemscore.Lipo>
63.6274

> <Gold.Chemscore.Internal_Hbond>
0.0000

> <Gold.Chemscore.DEClash>
0.1113

> <Gold.Chemscore.DEInternal>
1.1209

> <Gold.Chemscore.Rot>
1.2295

> <Gold.Chemscore.Internal.Correction>
   9.000000E+99

> <Gold.Chemscore.Hbonds>
donor molecule, donor type, donor heavy atom, donor atom, acceptor molecule, acceptor atom, score
      L1  H     2    46       P1 10957  0.93
      L1  H     6    31       P1  7948  0.85
      L1  H     9    32       P1  7948  0.96
      P1  H  7989  7998       L1    20  0.50

> <Gold.Chemscore.Hbond.Weighted>
-11.3459

> <Gold.Chemscore.Metal.Weighted>
-0.0000

> <Gold.Chemscore.Lipo.Weighted>
-7.4444

> <Gold.Chemscore.Internal_Hbond.Weighted>
0.0000

> <Gold.Chemscore.DEClash.Weighted>
0.1113

> <Gold.Chemscore.DEInternal.Weighted>
1.1209

> <Gold.Chemscore.Rot.Weighted>
3.1474

> <Gold.Chemscore.Internal.Correction.Weighted>
   9.000000E+99

> <Gold.Protein.RotatedTorsions>
[ 6907 6896 6895 6894 ] final  164.84 input  -60.11 | X-H torsion
[ 7974 7965 7964 7962 ] final   67.44 input  175.53 | X-H torsion
[ 8008 7997 7996 7995 ] final -173.79 input   59.86 | X-H torsion
[ 10167 10162 10161 10158 ] final  147.19 input  -65.29 | X-H torsion
[ 10718 10713 10712 10709 ] final  111.35 input   66.30 | X-H torsion
[ 10763 10752 10751 10750 ] final  169.75 input  -60.55 | X-H torsion
[ 11005 11000 10999 10996 ] final  -69.11 input  -57.11 | X-H torsion

> <Gold.Protein.ActiveResidues>
 VAL166  LYS551  ARG553  GLY616  TRP617  ASP618  TYR619  PRO620  LYS621  CYS622 
 ASP623  PHE694  ASN695  SER759  ASP760  ASP761  ALA762  ILE779  LEU786  VAL792 
 PHE793  MET794  SER795  GLU796  ALA797  LYS798  CYS799  TRP800  GLU811  SER814 

> <Gold.Protein.RotatedAtoms>
  151.9036  133.3544  159.3838 H   0  0  0  0  0  0  0  0  0  0  0  0  # atno 6907 bound_to 6896
  150.7074  134.4803  159.5476 H   0  0  0  0  0  0  0  0  0  0  0  0  # atno 6908 bound_to 6896
  152.2396  134.8242  160.0513 H   0  0  0  0  0  0  0  0  0  0  0  0  # atno 6909 bound_to 6896
  145.8146  139.3051  143.1079 H   0  0  0  0  0  0  0  0  0  0  0  0  # atno 7974 bound_to 7965
  155.9619  140.1146  157.0888 H   0  0  0  0  0  0  0  0  0  0  0  0  # atno 8008 bound_to 7997
  154.4134  140.1180  156.5257 H   0  0  0  0  0  0  0  0  0  0  0  0  # atno 8009 bound_to 7997
  155.6709  140.3473  155.4820 H   0  0  0  0  0  0  0  0  0  0  0  0  # atno 8010 bound_to 7997
  139.4894  144.5774  151.6939 H   0  0  0  0  0  0  0  0  0  0  0  0  # atno 10167 bound_to 10162
  157.6449  131.0949  150.6735 H   0  0  0  0  0  0  0  0  0  0  0  0  # atno 10718 bound_to 10713
  154.3877  135.2754  155.2174 H   0  0  0  0  0  0  0  0  0  0  0  0  # atno 10763 bound_to 10752
  154.4253  135.5990  153.6039 H   0  0  0  0  0  0  0  0  0  0  0  0  # atno 10764 bound_to 10752
  152.9833  135.5982  154.4127 H   0  0  0  0  0  0  0  0  0  0  0  0  # atno 10765 bound_to 10752
  141.1547  133.6756  156.6548 H   0  0  0  0  0  0  0  0  0  0  0  0  # atno 11005 bound_to 11000
  145.9740  140.8737  143.0148 LP  0  0  0  0  0  0  0  0  0  0  0  0  # atno 17320 bound_to 7965
  144.6754  140.1986  143.7389 LP  0  0  0  0  0  0  0  0  0  0  0  0  # atno 17321 bound_to 7965
  140.5373  144.0635  150.6075 LP  0  0  0  0  0  0  0  0  0  0  0  0  # atno 17342 bound_to 10162
  140.3646  143.2889  152.0346 LP  0  0  0  0  0  0  0  0  0  0  0  0  # atno 17343 bound_to 10162
  156.7054  130.4636  149.5561 LP  0  0  0  0  0  0  0  0  0  0  0  0  # atno 17370 bound_to 10713
  156.1766  130.6472  151.0902 LP  0  0  0  0  0  0  0  0  0  0  0  0  # atno 17371 bound_to 10713
  140.3292  134.7943  157.4313 LP  0  0  0  0  0  0  0  0  0  0  0  0  # atno 17394 bound_to 11000
  140.1031  134.5446  155.8334 LP  0  0  0  0  0  0  0  0  0  0  0  0  # atno 17395 bound_to 11000

$$$$
