AV-unprocessed.smi:694|AV-procd|sdf|3383|dock2
  -GOLD-   22720 0363D 1   1.00000     0.00000
 Structure written by MMmdl.
 42 43  0  0  0  0  0  0  0  0  1 V2000
  151.8212  144.4316  157.8861 C   0  0  0  0  0  0  0  0  0  0  0  0
  151.9154  144.4374  159.3426 N   0  0  0  0  0  0  0  0  0  0  0  0
  151.3930  145.5683  160.0993 C   0  0  0  0  0  0  0  0  0  0  0  0
  152.5562  143.3689  160.0108 C   0  0  0  0  0  0  0  0  0  0  0  0
  152.6783  143.3457  161.4223 C   0  0  0  0  0  0  0  0  0  0  0  0
  153.3221  142.2561  162.0387 C   0  0  0  0  0  0  0  0  0  0  0  0
  153.8223  141.2089  161.2421 C   0  0  0  0  0  0  0  0  0  0  0  0
  154.4804  140.1298  161.8909 N   0  0  0  0  0  0  0  0  0  0  0  0
  154.7451  138.9033  161.4094 C   0  0  0  0  0  0  0  0  0  0  0  0
  154.4346  138.4965  160.2899 O   0  0  0  0  0  0  0  0  0  0  0  0
  155.3771  138.1517  162.3221 N   0  0  0  0  0  0  0  0  0  0  0  0
  155.7778  136.7594  162.1425 C   0  0  0  0  0  0  0  0  0  0  0  0
  154.8692  135.7958  162.9315 C   0  0  1  0  0  0  0  0  0  0  0  0
  155.1052  134.3072  162.6339 C   0  0  0  0  0  0  0  0  0  0  0  0
  154.6514  133.5409  163.8856 C   0  0  0  0  0  0  0  0  0  0  0  0
  154.4029  134.5952  164.9722 C   0  0  0  0  0  0  0  0  0  0  0  0
  155.0558  135.8769  164.4494 C   0  0  2  0  0  0  0  0  0  0  0  0
  154.4508  137.0274  165.0022 O   0  0  0  0  0  0  0  0  0  0  0  0
  153.6682  141.3224  159.8406 C   0  0  0  0  0  0  0  0  0  0  0  0
  153.0534  142.3663  159.2462 N   0  0  0  0  0  0  0  0  0  0  0  0
  152.8151  144.4808  157.4400 H   0  0  0  0  0  0  0  0  0  0  0  0
  151.2470  145.2829  157.5204 H   0  0  0  0  0  0  0  0  0  0  0  0
  151.3281  143.5245  157.5354 H   0  0  0  0  0  0  0  0  0  0  0  0
  150.6070  145.2421  160.7810 H   0  0  0  0  0  0  0  0  0  0  0  0
  150.9683  146.3248  159.4395 H   0  0  0  0  0  0  0  0  0  0  0  0
  152.1857  146.0417  160.6795 H   0  0  0  0  0  0  0  0  0  0  0  0
  152.2912  144.1385  162.0440 H   0  0  0  0  0  0  0  0  0  0  0  0
  153.4236  142.2261  163.1139 H   0  0  0  0  0  0  0  0  0  0  0  0
  154.7233  140.2891  162.8575 H   0  0  0  0  0  0  0  0  0  0  0  0
  155.5878  138.5700  163.2163 H   0  0  0  0  0  0  0  0  0  0  0  0
  155.7978  136.4899  161.0850 H   0  0  0  0  0  0  0  0  0  0  0  0
  156.8044  136.6649  162.4970 H   0  0  0  0  0  0  0  0  0  0  0  0
  153.8264  136.0227  162.7010 H   0  0  0  0  0  0  0  0  0  0  0  0
  154.5784  133.9806  161.7368 H   0  0  0  0  0  0  0  0  0  0  0  0
  156.1680  134.1232  162.4711 H   0  0  0  0  0  0  0  0  0  0  0  0
  153.7439  132.9678  163.6927 H   0  0  0  0  0  0  0  0  0  0  0  0
  155.4227  132.8348  164.1952 H   0  0  0  0  0  0  0  0  0  0  0  0
  153.3273  134.7420  165.0833 H   0  0  0  0  0  0  0  0  0  0  0  0
  154.7947  134.2947  165.9444 H   0  0  0  0  0  0  0  0  0  0  0  0
  156.1188  135.8730  164.6954 H   0  0  0  0  0  0  0  0  0  0  0  0
  153.5576  136.8172  165.2279 H   0  0  0  0  0  0  0  0  0  0  0  0
  154.0571  140.5820  159.1593 H   0  0  0  0  0  0  0  0  0  0  0  0
  1  2  1  0  0  0  0
  1 21  1  0  0  0  0
  1 22  1  0  0  0  0
  1 23  1  0  0  0  0
  2  3  1  0  0  0  0
  2  4  1  0  0  0  0
  3 24  1  0  0  0  0
  3 25  1  0  0  0  0
  3 26  1  0  0  0  0
  4 20  1  0  0  0  0
  4  5  2  0  0  0  0
  5  6  1  0  0  0  0
  5 27  1  0  0  0  0
  6  7  2  0  0  0  0
  6 28  1  0  0  0  0
  7  8  1  0  0  0  0
  7 19  1  0  0  0  0
  8  9  1  0  0  0  0
  8 29  1  0  0  0  0
  9 10  2  0  0  0  0
  9 11  1  0  0  0  0
 11 12  1  0  0  0  0
 11 30  1  0  0  0  0
 12 13  1  0  0  0  0
 12 31  1  0  0  0  0
 12 32  1  0  0  0  0
 13 17  1  0  0  0  0
 13 14  1  0  0  0  0
 13 33  1  0  0  0  0
 14 15  1  0  0  0  0
 14 34  1  0  0  0  0
 14 35  1  0  0  0  0
 15 16  1  0  0  0  0
 15 36  1  0  0  0  0
 15 37  1  0  0  0  0
 16 17  1  0  0  0  0
 16 38  1  0  0  0  0
 16 39  1  0  0  0  0
 17 18  1  0  0  0  0
 17 40  1  0  0  0  0
 18 41  1  0  0  0  0
 19 20  2  0  0  0  0
 19 42  1  0  0  0  0
M  END
> <s_m_source_file>
AV-unprocessed.smi

> <i_m_source_file_index>
694

> <i_lp_mmshare_version>
43012

> <i_f3d_flags>
0

> <s_epik_input>
W0NIM11OKFtDSDNdKWMxW2NIXVtjSF1jKFtjSF1uMSlbTkhdQyg9TylbTkhdW0NIMl1bQ0BASF0yW0NIMl1bQ0gyXVtDSDJdW0NASF0yW09IXQ==

> <s_epik_cmdline>
J2VwaWtfcHl0aG9uJywgJy1waCcsICc3LjAnLCAnLXRuJywgJzgnLCAnLW1hJywgJzIwMCcsICctbWV0YWxfYmluZGluZycsICctaW1hZScsICc8aW5maWxlLm1hZT4nLCAnLW9tYWUnLCAnPG91dGZpbGUubWFlPic=

> <r_lp_tautomer_probability>
1

> <r_epik_Ionization_Penalty>
0.60335

> <r_epik_Ionization_Penalty_Charging>
0

> <r_epik_Ionization_Penalty_Neutral>
0.60335

> <r_epik_State_Penalty>
0.616805

> <r_epik_Charging_Adjusted_Penalty>
0.616805

> <i_epik_Tot_Q>
0

> <i_epik_Tot_abs_Q>
0

> <r_epik_Metal_State_Penalty>
0.301709

> <b_epik_Metal_Only>
0

> <s_lp_Force_Field>
OPLS_2005

> <r_lp_Energy>
25.3577

> <b_lp_Chiralities_Consistent>
1

> <s_lp_Variant>
AV-unprocessed.smi:694-8

> <Gold.Version>
5.8.1

> <Gold.Id.Protein>
6NUR|6NUR_protein|mol2

> <Gold.PLP.Fitness>
48.2013

> <Gold.PLP.PLP>
-48.6041

> <Gold.PLP.part.hbond>
-0.8636

> <Gold.PLP.part.metal>
0.0000

> <Gold.PLP.part.buried>
-6.8190

> <Gold.PLP.part.nonpolar>
-41.2074

> <Gold.PLP.part.repulsive>
0.0011

> <Gold.PLP.ligand.clash>
0.0000

> <Gold.PLP.ligand.torsion>
0.2052

> <Gold.PLP.Chemscore.Hbond>
0.0000

> <Gold.PLP.Chemscore.CHOScore>
0.0000

> <Gold.PLP.Chemscore.Metal>
0.0000

> <Gold.PLP.Chemscore.Internal.Correction>
0.0077

> <Gold.Rescore>
     Score         DG    S(hbond)    S(metal)    S(lipo)     H(rot)  DE(clash)    DE(int)     intcor
     12.22     -13.78       0.00        0.00     108.74       1.73       0.07       1.49       ----

> <Gold.Chemscore.Fitness>
12.2224

> <Gold.Chemscore.DG>
-13.7841

> <Gold.Chemscore.ZeroCoef>
-5.4800

> <Gold.Chemscore.Hbond>
0.0000

> <Gold.Chemscore.Metal>
0.0000

> <Gold.Chemscore.Lipo>
108.7390

> <Gold.Chemscore.Internal_Hbond>
0.0000

> <Gold.Chemscore.DEClash>
0.0705

> <Gold.Chemscore.DEInternal>
1.4912

> <Gold.Chemscore.Rot>
1.7259

> <Gold.Chemscore.Internal.Correction>
   9.000000E+99

> <Gold.Chemscore.Hbond.Weighted>
-0.0000

> <Gold.Chemscore.Metal.Weighted>
-0.0000

> <Gold.Chemscore.Lipo.Weighted>
-12.7225

> <Gold.Chemscore.Internal_Hbond.Weighted>
0.0000

> <Gold.Chemscore.DEClash.Weighted>
0.0705

> <Gold.Chemscore.DEInternal.Weighted>
1.4912

> <Gold.Chemscore.Rot.Weighted>
4.4184

> <Gold.Chemscore.Internal.Correction.Weighted>
   9.000000E+99

> <Gold.Protein.RotatedTorsions>
[ 6907 6896 6895 6894 ] final -174.44 input  -60.11 | X-H torsion
[ 7974 7965 7964 7962 ] final   75.52 input  175.53 | X-H torsion
[ 8008 7997 7996 7995 ] final  -76.26 input   59.86 | X-H torsion
[ 10167 10162 10161 10158 ] final -169.32 input  -65.29 | X-H torsion
[ 10718 10713 10712 10709 ] final -133.02 input   66.30 | X-H torsion
[ 10763 10752 10751 10750 ] final  118.98 input  -60.55 | X-H torsion
[ 11005 11000 10999 10996 ] final   92.71 input  -57.11 | X-H torsion

> <Gold.Protein.ActiveResidues>
 VAL166  LYS551  ARG553  GLY616  TRP617  ASP618  TYR619  PRO620  LYS621  CYS622 
 ASP623  PHE694  ASN695  SER759  ASP760  ASP761  ALA762  ILE779  LEU786  VAL792 
 PHE793  MET794  SER795  GLU796  ALA797  LYS798  CYS799  TRP800  GLU811  SER814 

> <Gold.Protein.RotatedAtoms>
  151.5724  133.3388  159.2991 H   0  0  0  0  0  0  0  0  0  0  0  0  # atno 6907 bound_to 6896
  150.8360  134.7636  159.6904 H   0  0  0  0  0  0  0  0  0  0  0  0  # atno 6908 bound_to 6896
  152.4436  134.5547  159.9928 H   0  0  0  0  0  0  0  0  0  0  0  0  # atno 6909 bound_to 6896
  145.7146  139.2626  143.1631 H   0  0  0  0  0  0  0  0  0  0  0  0  # atno 7974 bound_to 7965
  154.5490  140.0730  156.8636 H   0  0  0  0  0  0  0  0  0  0  0  0  # atno 8008 bound_to 7997
  155.3031  140.3385  155.4228 H   0  0  0  0  0  0  0  0  0  0  0  0  # atno 8009 bound_to 7997
  156.1944  140.1698  156.8014 H   0  0  0  0  0  0  0  0  0  0  0  0  # atno 8010 bound_to 7997
  139.5930  144.1173  152.1656 H   0  0  0  0  0  0  0  0  0  0  0  0  # atno 10167 bound_to 10162
  156.2406  130.7093  151.0952 H   0  0  0  0  0  0  0  0  0  0  0  0  # atno 10718 bound_to 10713
  153.5760  135.3493  155.2856 H   0  0  0  0  0  0  0  0  0  0  0  0  # atno 10763 bound_to 10752
  154.8675  135.4171  154.2673 H   0  0  0  0  0  0  0  0  0  0  0  0  # atno 10764 bound_to 10752
  153.3449  135.7052  153.6907 H   0  0  0  0  0  0  0  0  0  0  0  0  # atno 10765 bound_to 10752
  139.8819  134.8748  156.3612 H   0  0  0  0  0  0  0  0  0  0  0  0  # atno 11005 bound_to 11000
  146.0681  140.7898  142.9701 LP  0  0  0  0  0  0  0  0  0  0  0  0  # atno 17320 bound_to 7965
  144.6933  140.3300  143.7217 LP  0  0  0  0  0  0  0  0  0  0  0  0  # atno 17321 bound_to 7965
  140.0751  144.5747  150.7163 LP  0  0  0  0  0  0  0  0  0  0  0  0  # atno 17342 bound_to 10162
  140.7189  143.2569  151.4345 LP  0  0  0  0  0  0  0  0  0  0  0  0  # atno 17343 bound_to 10162
  157.7173  131.0702  150.6275 LP  0  0  0  0  0  0  0  0  0  0  0  0  # atno 17370 bound_to 10713
  156.6348  130.4442  149.5773 LP  0  0  0  0  0  0  0  0  0  0  0  0  # atno 17371 bound_to 10713
  140.9528  133.7440  156.0295 LP  0  0  0  0  0  0  0  0  0  0  0  0  # atno 17394 bound_to 11000
  140.8085  134.3427  157.5419 LP  0  0  0  0  0  0  0  0  0  0  0  0  # atno 17395 bound_to 11000

$$$$
