AV-unprocessed.smi:439|AV-procd|sdf|2580|dock8
  -GOLD-   2262022563D 1   1.00000     0.00000
 Structure written by MMmdl.
 45 46  0  0  0  0  0  0  0  0  2 V2000
  145.8722  128.7471  152.4652 C   0  0  0  0  0  0  0  0  0  0  0  0
  147.3239  129.2421  152.5158 C   0  0  0  0  0  0  0  0  0  0  0  0
  147.5763  130.3080  153.5942 C   0  0  0  0  0  0  0  0  0  0  0  0
  148.6954  131.3023  153.2308 C   0  0  0  0  0  0  0  0  0  0  0  0
  149.2468  131.9556  154.4373 N   0  0  0  0  0  0  0  0  0  0  0  0
  149.2090  133.3727  154.5341 C   0  0  0  0  0  0  0  0  0  0  0  0
  148.6561  134.1045  153.4925 N   0  0  0  0  0  0  0  0  0  0  0  0
  149.6866  133.9921  155.6472 C   0  0  0  0  0  0  0  0  0  0  0  0
  149.6869  135.3988  155.7824 N   0  0  0  0  0  0  0  0  0  0  0  0
  148.3632  136.0464  155.7606 C   0  0  0  0  0  0  0  0  0  0  0  0
  147.5001  135.6259  156.9607 C   0  0  0  0  0  0  0  0  0  0  0  0
  150.8174  136.1671  155.8430 C   0  0  0  0  0  0  0  0  0  0  0  0
  151.9263  135.6525  156.0075 O   0  0  0  0  0  0  0  0  0  0  0  0
  150.6584  137.6151  155.6707 C   0  0  0  0  0  0  0  0  0  0  0  0
  150.5431  138.1108  154.4170 C   0  0  0  0  0  0  0  0  0  0  0  0
  150.3379  139.4386  154.1343 O   0  0  0  0  0  0  0  0  0  0  0  0
  150.0152  140.2462  155.2604 C   0  0  0  0  0  0  0  0  0  0  0  0
  150.8483  139.8270  156.4794 C   0  0  0  0  0  0  0  0  0  0  0  0
  150.6245  138.4520  156.7634 O   0  0  0  0  0  0  0  0  0  0  0  0
  150.2761  133.1724  156.7151 C   0  0  0  0  0  0  0  0  0  0  0  0
  150.7409  133.7061  157.7226 O   0  0  0  0  0  0  0  0  0  0  0  0
  150.2919  131.8247  156.5430 N   0  5  0  0  0  0  0  0  0  0  0  0
  149.8028  131.2006  155.4340 C   0  0  0  0  0  0  0  0  0  0  0  0
  149.8534  129.9762  155.3080 O   0  0  0  0  0  0  0  0  0  0  0  0
  145.7322  128.0474  151.6410 H   0  0  0  0  0  0  0  0  0  0  0  0
  145.1789  129.5756  152.3189 H   0  0  0  0  0  0  0  0  0  0  0  0
  145.5912  128.2307  153.3829 H   0  0  0  0  0  0  0  0  0  0  0  0
  147.9976  128.3975  152.6645 H   0  0  0  0  0  0  0  0  0  0  0  0
  147.5785  129.6640  151.5432 H   0  0  0  0  0  0  0  0  0  0  0  0
  146.6517  130.8641  153.7539 H   0  0  0  0  0  0  0  0  0  0  0  0
  147.8004  129.8207  154.5438 H   0  0  0  0  0  0  0  0  0  0  0  0
  149.4853  130.8049  152.6693 H   0  0  0  0  0  0  0  0  0  0  0  0
  148.3108  132.0384  152.5231 H   0  0  0  0  0  0  0  0  0  0  0  0
  148.2802  133.6579  152.6686 H   0  0  0  0  0  0  0  0  0  0  0  0
  148.6612  135.1144  153.4936 H   0  0  0  0  0  0  0  0  0  0  0  0
  148.4701  137.1315  155.7786 H   0  0  0  0  0  0  0  0  0  0  0  0
  147.8420  135.8254  154.8277 H   0  0  0  0  0  0  0  0  0  0  0  0
  146.5308  136.1235  156.9318 H   0  0  0  0  0  0  0  0  0  0  0  0
  147.9805  135.8921  157.9028 H   0  0  0  0  0  0  0  0  0  0  0  0
  147.3197  134.5509  156.9706 H   0  0  0  0  0  0  0  0  0  0  0  0
  150.5707  137.5141  153.5164 H   0  0  0  0  0  0  0  0  0  0  0  0
  150.1984  141.2924  155.0145 H   0  0  0  0  0  0  0  0  0  0  0  0
  148.9506  140.1489  155.4771 H   0  0  0  0  0  0  0  0  0  0  0  0
  151.9114  139.9886  156.2947 H   0  0  0  0  0  0  0  0  0  0  0  0
  150.5787  140.4203  157.3531 H   0  0  0  0  0  0  0  0  0  0  0  0
  1  2  1  0  0  0  0
  1 25  1  0  0  0  0
  1 26  1  0  0  0  0
  1 27  1  0  0  0  0
  2  3  1  0  0  0  0
  2 28  1  0  0  0  0
  2 29  1  0  0  0  0
  3  4  1  0  0  0  0
  3 30  1  0  0  0  0
  3 31  1  0  0  0  0
  4  5  1  0  0  0  0
  4 32  1  0  0  0  0
  4 33  1  0  0  0  0
  5 23  1  0  0  0  0
  5  6  1  0  0  0  0
  6  7  1  0  0  0  0
  6  8  2  0  0  0  0
  7 34  1  0  0  0  0
  7 35  1  0  0  0  0
  8  9  1  0  0  0  0
  8 20  1  0  0  0  0
  9 10  1  0  0  0  0
  9 12  1  0  0  0  0
 10 11  1  0  0  0  0
 10 36  1  0  0  0  0
 10 37  1  0  0  0  0
 11 38  1  0  0  0  0
 11 39  1  0  0  0  0
 11 40  1  0  0  0  0
 12 13  2  0  0  0  0
 12 14  1  0  0  0  0
 14 19  1  0  0  0  0
 14 15  2  0  0  0  0
 15 16  1  0  0  0  0
 15 41  1  0  0  0  0
 16 17  1  0  0  0  0
 17 18  1  0  0  0  0
 17 42  1  0  0  0  0
 17 43  1  0  0  0  0
 18 19  1  0  0  0  0
 18 44  1  0  0  0  0
 18 45  1  0  0  0  0
 20 21  2  0  0  0  0
 20 22  1  0  0  0  0
 22 23  1  0  0  0  0
 23 24  2  0  0  0  0
M  CHG  1  22  -1
M  END
> <s_m_source_file>
AV-unprocessed.smi

> <i_m_source_file_index>
439

> <i_lp_mmshare_version>
43012

> <i_f3d_flags>
0

> <s_epik_input>
W0NIM11bQ0gyXVtDSDJdW0NIMl1uMWMoW05IMl0pYyhjKD1PKVtuSF1jMT1PKU4oW0NIMl1bQ0gzXSlDKD1PKUMyPVtDSF1PW0NIMl1bQ0gyXU8y

> <s_epik_cmdline>
J2VwaWtfcHl0aG9uJywgJy1waCcsICc3LjAnLCAnLXRuJywgJzgnLCAnLW1hJywgJzIwMCcsICctbWV0YWxfYmluZGluZycsICctaW1hZScsICc8aW5maWxlLm1hZT4nLCAnLW9tYWUnLCAnPG91dGZpbGUubWFlPic=

> <r_lp_tautomer_probability>
1

> <r_epik_Ionization_Penalty>
6.21372

> <r_epik_Ionization_Penalty_Charging>
0.188923

> <r_epik_Ionization_Penalty_Neutral>
6.0248

> <r_epik_State_Penalty>
6.02477

> <r_epik_Charging_Adjusted_Penalty>
6.2137

> <i_epik_Tot_Q>
-1

> <i_epik_Tot_abs_Q>
1

> <r_epik_Metal_State_Penalty>
1.95433

> <b_epik_Metal_Only>
1

> <s_epik_Chemistry_Notes>
This compound has an imine and may undergo hydrolysis.

> <s_lp_Force_Field>
OPLS_2005

> <r_lp_Energy>
37.3971

> <b_lp_Chiralities_Consistent>
1

> <s_lp_Variant>
AV-unprocessed.smi:439-2

> <Gold.Version>
5.8.1

> <Gold.Id.Protein>
6NUR|6NUR_protein|mol2

> <Gold.PLP.Fitness>
38.9996

> <Gold.PLP.PLP>
-30.2242

> <Gold.PLP.part.hbond>
-3.3645

> <Gold.PLP.part.metal>
0.0000

> <Gold.PLP.part.buried>
-0.6588

> <Gold.PLP.part.nonpolar>
-26.6685

> <Gold.PLP.part.repulsive>
0.5002

> <Gold.PLP.ligand.clash>
0.0000

> <Gold.PLP.ligand.torsion>
3.0100

> <Gold.PLP.Chemscore.Hbond>
2.6436

> <Gold.PLP.Chemscore.CHOScore>
1.0986

> <Gold.PLP.Chemscore.Metal>
0.0000

> <Gold.Chemscore.Hbonds>
donor molecule, donor type, donor heavy atom, donor atom, acceptor molecule, acceptor atom, score
      L1  H     7    35       P1  7948  0.45
      P1  H  6896  6908       L1    21  0.70
      P1  H  7989  7998       L1    16  0.50
      P1  H 10752 10764       L1    13  1.00
      L1  C    15    41       P1  7948  0.55
      L1  C    15    41       P1  7949  0.51

> <Gold.PLP.Chemscore.Internal.Correction>
3.5689

> <Gold.Rescore>
     Score         DG    S(hbond)    S(metal)    S(lipo)     H(rot)  DE(clash)    DE(int)     intcor
      7.95     -14.38       1.90        0.00      57.62       1.63       0.19       6.24       ----

> <Gold.Chemscore.Fitness>
7.9500

> <Gold.Chemscore.DG>
-14.3821

> <Gold.Chemscore.ZeroCoef>
-5.4800

> <Gold.Chemscore.Hbond>
1.8983

> <Gold.Chemscore.Metal>
0.0000

> <Gold.Chemscore.Lipo>
57.6178

> <Gold.Chemscore.Internal_Hbond>
0.0000

> <Gold.Chemscore.DEClash>
0.1878

> <Gold.Chemscore.DEInternal>
6.2443

> <Gold.Chemscore.Rot>
1.6325

> <Gold.Chemscore.Internal.Correction>
   9.000000E+99

> <Gold.Chemscore.Hbonds>
donor molecule, donor type, donor heavy atom, donor atom, acceptor molecule, acceptor atom, score
      L1  H     7    35       P1  7948  0.35
      P1  H  6896  6908       L1    21  0.67
      P1  H  7989  7998       L1    16  0.02
      P1  H 10752 10764       L1    13  0.94

> <Gold.Chemscore.Hbond.Weighted>
-6.3402

> <Gold.Chemscore.Metal.Weighted>
-0.0000

> <Gold.Chemscore.Lipo.Weighted>
-6.7413

> <Gold.Chemscore.Internal_Hbond.Weighted>
0.0000

> <Gold.Chemscore.DEClash.Weighted>
0.1878

> <Gold.Chemscore.DEInternal.Weighted>
6.2443

> <Gold.Chemscore.Rot.Weighted>
4.1793

> <Gold.Chemscore.Internal.Correction.Weighted>
   9.000000E+99

> <Gold.Protein.RotatedTorsions>
[ 6907 6896 6895 6894 ] final  108.22 input  -60.11 | X-H torsion
[ 7974 7965 7964 7962 ] final   94.33 input  175.53 | X-H torsion
[ 8008 7997 7996 7995 ] final -106.44 input   59.86 | X-H torsion
[ 10167 10162 10161 10158 ] final    6.61 input  -65.29 | X-H torsion
[ 10718 10713 10712 10709 ] final  -17.87 input   66.30 | X-H torsion
[ 10763 10752 10751 10750 ] final  -48.46 input  -60.55 | X-H torsion
[ 11005 11000 10999 10996 ] final -159.71 input  -57.11 | X-H torsion

> <Gold.Protein.ActiveResidues>
 VAL166  LYS551  ARG553  GLY616  TRP617  ASP618  TYR619  PRO620  LYS621  CYS622 
 ASP623  PHE694  ASN695  SER759  ASP760  ASP761  ALA762  ILE779  LEU786  VAL792 
 PHE793  MET794  SER795  GLU796  ALA797  LYS798  CYS799  TRP800  GLU811  SER814 

> <Gold.Protein.RotatedAtoms>
  152.5121  133.9121  159.7492 H   0  0  0  0  0  0  0  0  0  0  0  0  # atno 6907 bound_to 6896
  150.9512  133.6539  159.2778 H   0  0  0  0  0  0  0  0  0  0  0  0  # atno 6908 bound_to 6896
  151.3817  135.0946  159.9551 H   0  0  0  0  0  0  0  0  0  0  0  0  # atno 6909 bound_to 6896
  145.4669  139.2284  143.2956 H   0  0  0  0  0  0  0  0  0  0  0  0  # atno 7974 bound_to 7965
  154.9145  140.0409  157.1964 H   0  0  0  0  0  0  0  0  0  0  0  0  # atno 8008 bound_to 7997
  154.8315  140.2900  155.5698 H   0  0  0  0  0  0  0  0  0  0  0  0  # atno 8009 bound_to 7997
  156.2987  140.2500  156.3241 H   0  0  0  0  0  0  0  0  0  0  0  0  # atno 8010 bound_to 7997
  140.6418  143.7756  150.7439 H   0  0  0  0  0  0  0  0  0  0  0  0  # atno 10167 bound_to 10162
  156.5675  130.4741  149.6378 H   0  0  0  0  0  0  0  0  0  0  0  0  # atno 10718 bound_to 10713
  154.0781  135.6595  153.4834 H   0  0  0  0  0  0  0  0  0  0  0  0  # atno 10763 bound_to 10752
  153.0366  135.5173  154.7500 H   0  0  0  0  0  0  0  0  0  0  0  0  # atno 10764 bound_to 10752
  154.6587  135.3012  154.9862 H   0  0  0  0  0  0  0  0  0  0  0  0  # atno 10765 bound_to 10752
  140.6396  134.4565  157.5233 H   0  0  0  0  0  0  0  0  0  0  0  0  # atno 11005 bound_to 11000
  146.2419  140.5444  142.8930 LP  0  0  0  0  0  0  0  0  0  0  0  0  # atno 17320 bound_to 7965
  144.7968  140.6138  143.6504 LP  0  0  0  0  0  0  0  0  0  0  0  0  # atno 17321 bound_to 7965
  140.1389  143.4459  152.2206 LP  0  0  0  0  0  0  0  0  0  0  0  0  # atno 17342 bound_to 10162
  139.5627  144.7416  151.4108 LP  0  0  0  0  0  0  0  0  0  0  0  0  # atno 17343 bound_to 10162
  156.2744  130.7035  151.1842 LP  0  0  0  0  0  0  0  0  0  0  0  0  # atno 17370 bound_to 10713
  157.7355  131.0571  150.5464 LP  0  0  0  0  0  0  0  0  0  0  0  0  # atno 17371 bound_to 10713
  139.9085  134.8396  156.1615 LP  0  0  0  0  0  0  0  0  0  0  0  0  # atno 17394 bound_to 11000
  141.0616  133.6839  156.1964 LP  0  0  0  0  0  0  0  0  0  0  0  0  # atno 17395 bound_to 11000

$$$$
