AV-unprocessed.smi:2510|AV-procd|sdf|9877|dock10
  -GOLD-   2272013513D 1   1.00000     0.00000
 Structure written by MMmdl.
 48 49  0  0  0  0  0  0  0  0  1 V2000
  142.1478  135.2926  163.0023 C   0  0  0  0  0  0  0  0  0  0  0  0
  143.5967  135.7978  162.8985 C   0  0  0  0  0  0  0  0  0  0  0  0
  144.4174  135.2114  161.7240 C   0  0  0  0  0  0  0  0  0  0  0  0
  143.6942  135.5619  160.3960 C   0  0  0  0  0  0  0  0  0  0  0  0
  143.5349  137.0642  160.1134 C   0  0  0  0  0  0  0  0  0  0  0  0
  145.9473  135.4973  161.8274 C   0  0  2  0  0  0  0  0  0  0  0  0
  146.6297  135.5344  160.5351 N   0  0  0  0  0  0  0  0  0  0  0  0
  147.6059  136.3916  160.2020 C   0  0  0  0  0  0  0  0  0  0  0  0
  148.1142  137.1838  160.9949 O   0  0  0  0  0  0  0  0  0  0  0  0
  148.0531  136.3699  158.7395 C   0  0  0  0  0  0  0  0  0  0  0  0
  149.2779  137.2307  158.5715 C   0  0  0  0  0  0  0  0  0  0  0  0
  149.3964  138.4557  157.8501 C   0  0  0  0  0  0  0  0  0  0  0  0
  150.7150  138.7925  157.9699 C   0  0  0  0  0  0  0  0  0  0  0  0
  151.4888  139.9470  157.4302 C   0  0  0  0  0  0  0  0  0  0  0  0
  151.2964  137.8055  158.7318 N   0  0  0  0  0  0  0  0  0  0  0  0
  150.4286  136.8491  159.1098 N   0  0  0  0  0  0  0  0  0  0  0  0
  146.1333  134.1419  162.5314 C   0  0  2  0  0  0  0  0  0  0  0  0
  147.3989  133.3107  162.3300 C   0  0  0  0  0  0  0  0  0  0  0  0
  144.7900  133.7152  161.9117 C   0  0  2  0  0  0  0  0  0  0  0  0
  144.9540  133.0479  160.6645 O   0  0  0  0  0  0  0  0  0  0  0  0
  145.3227  131.6869  160.8025 C   0  0  0  0  0  0  0  0  0  0  0  0
  152.2705  137.7719  158.9971 H   0  0  0  0  0  0  0  0  0  0  0  0
  141.6063  135.8459  163.7697 H   0  0  0  0  0  0  0  0  0  0  0  0
  142.1030  134.2394  163.2778 H   0  0  0  0  0  0  0  0  0  0  0  0
  141.6077  135.4192  162.0644 H   0  0  0  0  0  0  0  0  0  0  0  0
  143.5503  136.8828  162.8090 H   0  0  0  0  0  0  0  0  0  0  0  0
  144.1043  135.6315  163.8479 H   0  0  0  0  0  0  0  0  0  0  0  0
  144.1804  135.0806  159.5480 H   0  0  0  0  0  0  0  0  0  0  0  0
  142.6866  135.1486  160.3955 H   0  0  0  0  0  0  0  0  0  0  0  0
  142.8994  137.2210  159.2416 H   0  0  0  0  0  0  0  0  0  0  0  0
  144.4904  137.5439  159.9038 H   0  0  0  0  0  0  0  0  0  0  0  0
  143.0715  137.5801  160.9544 H   0  0  0  0  0  0  0  0  0  0  0  0
  146.2033  136.3339  162.4791 H   0  0  0  0  0  0  0  0  0  0  0  0
  146.2711  134.9236  159.8149 H   0  0  0  0  0  0  0  0  0  0  0  0
  148.2668  135.3439  158.4377 H   0  0  0  0  0  0  0  0  0  0  0  0
  147.2349  136.7188  158.1076 H   0  0  0  0  0  0  0  0  0  0  0  0
  148.6312  138.9935  157.3103 H   0  0  0  0  0  0  0  0  0  0  0  0
  150.8534  140.8272  157.3308 H   0  0  0  0  0  0  0  0  0  0  0  0
  151.8947  139.7110  156.4462 H   0  0  0  0  0  0  0  0  0  0  0  0
  152.3200  140.2051  158.0870 H   0  0  0  0  0  0  0  0  0  0  0  0
  145.9791  134.2963  163.6004 H   0  0  0  0  0  0  0  0  0  0  0  0
  147.5623  133.0584  161.2821 H   0  0  0  0  0  0  0  0  0  0  0  0
  147.3463  132.3752  162.8864 H   0  0  0  0  0  0  0  0  0  0  0  0
  148.2803  133.8487  162.6788 H   0  0  0  0  0  0  0  0  0  0  0  0
  144.1213  133.1933  162.5988 H   0  0  0  0  0  0  0  0  0  0  0  0
  145.4715  131.2476  159.8163 H   0  0  0  0  0  0  0  0  0  0  0  0
  144.5392  131.1211  161.3077 H   0  0  0  0  0  0  0  0  0  0  0  0
  146.2497  131.5756  161.3649 H   0  0  0  0  0  0  0  0  0  0  0  0
  1  2  1  0  0  0  0
  1 23  1  0  0  0  0
  1 24  1  0  0  0  0
  1 25  1  0  0  0  0
  2  3  1  0  0  0  0
  2 26  1  0  0  0  0
  2 27  1  0  0  0  0
  3 19  1  0  0  0  0
  3  4  1  0  0  0  0
  3  6  1  0  0  0  0
  4  5  1  0  0  0  0
  4 28  1  0  0  0  0
  4 29  1  0  0  0  0
  5 30  1  0  0  0  0
  5 31  1  0  0  0  0
  5 32  1  0  0  0  0
  6  7  1  0  0  0  0
  6 17  1  0  0  0  0
  6 33  1  0  0  0  0
  7  8  1  0  0  0  0
  7 34  1  0  0  0  0
  8  9  2  0  0  0  0
  8 10  1  0  0  0  0
 10 11  1  0  0  0  0
 10 35  1  0  0  0  0
 10 36  1  0  0  0  0
 11 16  2  0  0  0  0
 11 12  1  0  0  0  0
 12 13  2  0  0  0  0
 12 37  1  0  0  0  0
 13 14  1  0  0  0  0
 13 15  1  0  0  0  0
 14 38  1  0  0  0  0
 14 39  1  0  0  0  0
 14 40  1  0  0  0  0
 15 22  1  0  0  0  0
 15 16  1  0  0  0  0
 17 18  1  0  0  0  0
 17 19  1  0  0  0  0
 17 41  1  0  0  0  0
 18 42  1  0  0  0  0
 18 43  1  0  0  0  0
 18 44  1  0  0  0  0
 19 20  1  0  0  0  0
 19 45  1  0  0  0  0
 20 21  1  0  0  0  0
 21 46  1  0  0  0  0
 21 47  1  0  0  0  0
 21 48  1  0  0  0  0
M  END
> <s_m_source_file>
AV-unprocessed.smi

> <i_m_source_file_index>
2510

> <i_lp_mmshare_version>
43012

> <i_f3d_flags>
0

> <s_epik_input>
W0NIM11PW0NAQEhdMVtDQEhdKFtDSDNdKVtDQEBIXShDMShbQ0gyXVtDSDNdKVtDSDJdW0NIM10pW05IXUMoPU8pW0NIMl1jMltjSF1jKFtDSDNdKVtuSF1uMg==

> <s_epik_cmdline>
J2VwaWtfcHl0aG9uJywgJy1waCcsICc3LjAnLCAnLXRuJywgJzgnLCAnLW1hJywgJzIwMCcsICctbWV0YWxfYmluZGluZycsICctaW1hZScsICc8aW5maWxlLm1hZT4nLCAnLW9tYWUnLCAnPG91dGZpbGUubWFlPic=

> <r_lp_tautomer_probability>
0.5

> <r_epik_Ionization_Penalty>
9.73156e-05

> <r_epik_Ionization_Penalty_Charging>
0

> <r_epik_Ionization_Penalty_Neutral>
9.73156e-05

> <r_epik_State_Penalty>
0.41068

> <r_epik_Charging_Adjusted_Penalty>
0.41068

> <i_epik_Tot_Q>
0

> <i_epik_Tot_abs_Q>
0

> <r_epik_Metal_State_Penalty>
0.410699

> <b_epik_Metal_Only>
0

> <s_lp_Force_Field>
OPLS_2005

> <r_lp_Energy>
26.3407

> <b_lp_Chiralities_Consistent>
1

> <s_lp_Variant>
AV-unprocessed.smi:2510-8

> <Gold.Version>
5.8.1

> <Gold.Id.Protein>
6NUR|6NUR_protein|mol2

> <Gold.PLP.Fitness>
35.7715

> <Gold.PLP.PLP>
-28.5315

> <Gold.PLP.part.hbond>
-2.7948

> <Gold.PLP.part.metal>
0.0000

> <Gold.PLP.part.buried>
-4.2639

> <Gold.PLP.part.nonpolar>
-21.1747

> <Gold.PLP.part.repulsive>
0.1854

> <Gold.PLP.ligand.clash>
0.0000

> <Gold.PLP.ligand.torsion>
0.4996

> <Gold.PLP.Chemscore.Hbond>
2.5374

> <Gold.PLP.Chemscore.CHOScore>
0.0000

> <Gold.PLP.Chemscore.Metal>
0.0000

> <Gold.Chemscore.Hbonds>
donor molecule, donor type, donor heavy atom, donor atom, acceptor molecule, acceptor atom, score
      P1  H  6896  6908       L1    16  0.91
      P1  H  6931  6943       L1     9  0.96
      P1  H  6934  6947       L1     9  0.65

> <Gold.PLP.Chemscore.Internal.Correction>
0.6269

> <Gold.Rescore>
     Score         DG    S(hbond)    S(metal)    S(lipo)     H(rot)  DE(clash)    DE(int)     intcor
     16.50     -17.29       2.56        0.00      67.48       1.81       0.09       0.71       ----

> <Gold.Chemscore.Fitness>
16.4973

> <Gold.Chemscore.DG>
-17.2946

> <Gold.Chemscore.ZeroCoef>
-5.4800

> <Gold.Chemscore.Hbond>
2.5610

> <Gold.Chemscore.Metal>
0.0000

> <Gold.Chemscore.Lipo>
67.4795

> <Gold.Chemscore.Internal_Hbond>
0.0000

> <Gold.Chemscore.DEClash>
0.0899

> <Gold.Chemscore.DEInternal>
0.7074

> <Gold.Chemscore.Rot>
1.8102

> <Gold.Chemscore.Internal.Correction>
   9.000000E+99

> <Gold.Chemscore.Hbonds>
donor molecule, donor type, donor heavy atom, donor atom, acceptor molecule, acceptor atom, score
      P1  H  6896  6908       L1    16  0.86
      P1  H  6931  6943       L1     9  0.92
      P1  H  6934  6947       L1     9  0.50

> <Gold.Chemscore.Hbond.Weighted>
-8.5536

> <Gold.Chemscore.Metal.Weighted>
-0.0000

> <Gold.Chemscore.Lipo.Weighted>
-7.8951

> <Gold.Chemscore.Internal_Hbond.Weighted>
0.0000

> <Gold.Chemscore.DEClash.Weighted>
0.0899

> <Gold.Chemscore.DEInternal.Weighted>
0.7074

> <Gold.Chemscore.Rot.Weighted>
4.6341

> <Gold.Chemscore.Internal.Correction.Weighted>
   9.000000E+99

> <Gold.Protein.RotatedTorsions>
[ 6907 6896 6895 6894 ] final -164.38 input  -60.11 | X-H torsion
[ 7974 7965 7964 7962 ] final  157.22 input  175.53 | X-H torsion
[ 8008 7997 7996 7995 ] final  178.57 input   59.86 | X-H torsion
[ 10167 10162 10161 10158 ] final  -81.17 input  -65.29 | X-H torsion
[ 10718 10713 10712 10709 ] final  -70.59 input   66.30 | X-H torsion
[ 10763 10752 10751 10750 ] final -118.03 input  -60.55 | X-H torsion
[ 11005 11000 10999 10996 ] final  -29.43 input  -57.11 | X-H torsion

> <Gold.Protein.ActiveResidues>
 VAL166  LYS551  ARG553  GLY616  TRP617  ASP618  TYR619  PRO620  LYS621  CYS622 
 ASP623  PHE694  ASN695  SER759  ASP760  ASP761  ALA762  ILE779  LEU786  VAL792 
 PHE793  MET794  SER795  GLU796  ALA797  LYS798  CYS799  TRP800  GLU811  SER814 

> <Gold.Protein.RotatedAtoms>
  151.4109  133.3728  159.2743 H   0  0  0  0  0  0  0  0  0  0  0  0  # atno 6907 bound_to 6896
  150.9364  134.8777  159.7595 H   0  0  0  0  0  0  0  0  0  0  0  0  # atno 6908 bound_to 6896
  152.5052  134.4056  159.9483 H   0  0  0  0  0  0  0  0  0  0  0  0  # atno 6909 bound_to 6896
  144.7916  139.7311  143.6219 H   0  0  0  0  0  0  0  0  0  0  0  0  # atno 7974 bound_to 7965
  156.0531  140.1330  157.0027 H   0  0  0  0  0  0  0  0  0  0  0  0  # atno 8008 bound_to 7997
  154.4445  140.1006  156.6477 H   0  0  0  0  0  0  0  0  0  0  0  0  # atno 8009 bound_to 7997
  155.5492  140.3462  155.4467 H   0  0  0  0  0  0  0  0  0  0  0  0  # atno 8010 bound_to 7997
  140.4436  143.2506  151.8590 H   0  0  0  0  0  0  0  0  0  0  0  0  # atno 10167 bound_to 10162
  156.0401  130.4334  150.2318 H   0  0  0  0  0  0  0  0  0  0  0  0  # atno 10718 bound_to 10713
  154.8574  135.4288  154.2074 H   0  0  0  0  0  0  0  0  0  0  0  0  # atno 10763 bound_to 10752
  153.3107  135.6975  153.7124 H   0  0  0  0  0  0  0  0  0  0  0  0  # atno 10764 bound_to 10752
  153.6217  135.3500  155.2987 H   0  0  0  0  0  0  0  0  0  0  0  0  # atno 10765 bound_to 10752
  140.9296  133.7347  156.0917 H   0  0  0  0  0  0  0  0  0  0  0  0  # atno 11005 bound_to 11000
  146.2170  139.5567  142.9643 LP  0  0  0  0  0  0  0  0  0  0  0  0  # atno 17320 bound_to 7965
  145.5780  141.0386  143.2138 LP  0  0  0  0  0  0  0  0  0  0  0  0  # atno 17321 bound_to 7965
  139.4791  144.5201  151.8814 LP  0  0  0  0  0  0  0  0  0  0  0  0  # atno 17342 bound_to 10162
  140.4289  144.2142  150.5887 LP  0  0  0  0  0  0  0  0  0  0  0  0  # atno 17343 bound_to 10162
  157.0414  131.0036  151.3282 LP  0  0  0  0  0  0  0  0  0  0  0  0  # atno 17370 bound_to 10713
  157.5207  130.7996  149.7805 LP  0  0  0  0  0  0  0  0  0  0  0  0  # atno 17371 bound_to 10713
  140.7880  134.3649  157.5471 LP  0  0  0  0  0  0  0  0  0  0  0  0  # atno 17394 bound_to 11000
  139.8793  134.9123  156.3057 LP  0  0  0  0  0  0  0  0  0  0  0  0  # atno 17395 bound_to 11000

$$$$
