AV-unprocessed.smi:867|AV-procd|sdf|3995|dock1
  -GOLD-   22720 1473D 1   1.00000     0.00000
 Structure written by MMmdl.
 53 56  0  0  0  0  0  0  0  0  2 V2000
  149.2365  132.1323  156.3824 O   0  0  0  0  0  0  0  0  0  0  0  0
  148.9445  133.3188  156.2292 C   0  0  0  0  0  0  0  0  0  0  0  0
  148.4749  134.0779  157.2337 N   0  0  0  0  0  0  0  0  0  0  0  0
  148.2768  133.6278  158.6063 C   0  0  0  0  0  0  0  0  0  0  0  0
  146.9080  134.0658  159.1505 C   0  0  0  0  0  0  0  0  0  0  0  0
  147.0384  134.9251  160.3923 C   0  0  0  0  0  0  0  0  0  0  0  0
  146.7324  134.4055  161.6667 C   0  0  0  0  0  0  0  0  0  0  0  0
  146.8648  135.2436  162.7906 C   0  0  0  0  0  0  0  0  0  0  0  0
  147.2979  136.5698  162.5911 C   0  0  0  0  0  0  0  0  0  0  0  0
  147.5920  137.0787  161.3752 N   0  0  0  0  0  0  0  0  0  0  0  0
  147.4628  136.2679  160.3027 C   0  0  0  0  0  0  0  0  0  0  0  0
  148.9943  133.9438  155.0268 N   0  0  0  0  0  0  0  0  0  0  0  0
  149.4687  133.3552  153.7687 C   0  0  0  0  0  0  0  0  0  0  0  0
  148.2628  133.0388  152.8617 C   0  0  0  0  0  0  0  0  0  0  0  0
  147.3960  134.2336  152.6371 N   0  3  0  0  0  0  0  0  0  0  0  0
  146.1830  133.9758  151.8005 C   0  0  1  0  0  0  0  0  0  0  0  0
  146.5502  133.3108  150.4467 C   0  0  0  0  0  0  0  0  0  0  0  0
  145.6690  132.0515  150.4073 C   0  0  2  0  0  0  0  0  0  0  0  0
  144.1982  132.4580  150.2211 C   0  0  0  0  0  0  0  0  0  0  0  0
  143.8454  133.0618  151.5911 C   0  0  0  0  0  0  0  0  0  0  0  0
  145.1688  132.9454  152.3745 C   0  0  1  0  0  0  0  0  0  0  0  0
  145.7034  131.6119  151.8648 C   0  0  0  0  0  0  0  0  0  0  0  0
  147.0452  134.9144  153.9186 C   0  0  0  0  0  0  0  0  0  0  0  0
  148.2895  135.2011  154.7743 C   0  0  0  0  0  0  0  0  0  0  0  0
  148.2242  135.0340  157.0287 H   0  0  0  0  0  0  0  0  0  0  0  0
  148.3507  132.5399  158.6183 H   0  0  0  0  0  0  0  0  0  0  0  0
  149.0804  134.0000  159.2442 H   0  0  0  0  0  0  0  0  0  0  0  0
  146.3590  134.6249  158.3916 H   0  0  0  0  0  0  0  0  0  0  0  0
  146.3015  133.1902  159.3868 H   0  0  0  0  0  0  0  0  0  0  0  0
  146.4004  133.3841  161.7825 H   0  0  0  0  0  0  0  0  0  0  0  0
  146.6385  134.8797  163.7817 H   0  0  0  0  0  0  0  0  0  0  0  0
  147.4098  137.2397  163.4307 H   0  0  0  0  0  0  0  0  0  0  0  0
  147.7025  136.7054  159.3447 H   0  0  0  0  0  0  0  0  0  0  0  0
  150.1286  134.0685  153.2724 H   0  0  0  0  0  0  0  0  0  0  0  0
  150.0656  132.4530  153.9025 H   0  0  0  0  0  0  0  0  0  0  0  0
  148.6624  132.6703  151.9194 H   0  0  0  0  0  0  0  0  0  0  0  0
  147.6669  132.2362  153.2992 H   0  0  0  0  0  0  0  0  0  0  0  0
  145.6789  134.9302  151.6380 H   0  0  0  0  0  0  0  0  0  0  0  0
  146.3698  133.9712  149.5976 H   0  0  0  0  0  0  0  0  0  0  0  0
  147.5974  133.0076  150.4117 H   0  0  0  0  0  0  0  0  0  0  0  0
  146.0092  131.3021  149.6919 H   0  0  0  0  0  0  0  0  0  0  0  0
  144.0656  133.1682  149.4040 H   0  0  0  0  0  0  0  0  0  0  0  0
  143.5757  131.5867  150.0135 H   0  0  0  0  0  0  0  0  0  0  0  0
  143.4928  134.0912  151.5153 H   0  0  0  0  0  0  0  0  0  0  0  0
  143.0592  132.4780  152.0721 H   0  0  0  0  0  0  0  0  0  0  0  0
  144.9885  132.9885  153.4460 H   0  0  0  0  0  0  0  0  0  0  0  0
  145.0425  130.7695  152.0775 H   0  0  0  0  0  0  0  0  0  0  0  0
  146.7069  131.3803  152.2262 H   0  0  0  0  0  0  0  0  0  0  0  0
  146.5268  135.8537  153.7291 H   0  0  0  0  0  0  0  0  0  0  0  0
  146.3531  134.2865  154.4824 H   0  0  0  0  0  0  0  0  0  0  0  0
  148.0026  135.7120  155.6950 H   0  0  0  0  0  0  0  0  0  0  0  0
  148.9547  135.8898  154.2512 H   0  0  0  0  0  0  0  0  0  0  0  0
  147.9644  134.8866  152.1170 H   0  0  0  0  0  0  0  0  0  0  0  0
  1  2  2  0  0  0  0
  2  3  1  0  0  0  0
  2 12  1  0  0  0  0
  3  4  1  0  0  0  0
  3 25  1  0  0  0  0
  4  5  1  0  0  0  0
  4 26  1  0  0  0  0
  4 27  1  0  0  0  0
  5  6  1  0  0  0  0
  5 28  1  0  0  0  0
  5 29  1  0  0  0  0
  6 11  1  0  0  0  0
  6  7  2  0  0  0  0
  7  8  1  0  0  0  0
  7 30  1  0  0  0  0
  8  9  2  0  0  0  0
  8 31  1  0  0  0  0
  9 10  1  0  0  0  0
  9 32  1  0  0  0  0
 10 11  2  0  0  0  0
 11 33  1  0  0  0  0
 12 24  1  0  0  0  0
 12 13  1  0  0  0  0
 13 14  1  0  0  0  0
 13 34  1  0  0  0  0
 13 35  1  0  0  0  0
 14 15  1  0  0  0  0
 14 36  1  0  0  0  0
 14 37  1  0  0  0  0
 15 16  1  0  0  0  0
 15 23  1  0  0  0  0
 15 53  1  0  0  0  0
 16 21  1  0  0  0  0
 16 17  1  0  0  0  0
 16 38  1  0  0  0  0
 17 18  1  0  0  0  0
 17 39  1  0  0  0  0
 17 40  1  0  0  0  0
 18 22  1  0  0  0  0
 18 19  1  0  0  0  0
 18 41  1  0  0  0  0
 19 20  1  0  0  0  0
 19 42  1  0  0  0  0
 19 43  1  0  0  0  0
 20 21  1  0  0  0  0
 20 44  1  0  0  0  0
 20 45  1  0  0  0  0
 21 22  1  0  0  0  0
 21 46  1  0  0  0  0
 22 47  1  0  0  0  0
 22 48  1  0  0  0  0
 23 24  1  0  0  0  0
 23 49  1  0  0  0  0
 23 50  1  0  0  0  0
 24 51  1  0  0  0  0
 24 52  1  0  0  0  0
M  CHG  1  15   1
M  END
> <s_m_source_file>
AV-unprocessed.smi

> <i_m_source_file_index>
867

> <i_lp_mmshare_version>
43012

> <i_f3d_flags>
0

> <s_epik_input>
W0NIMl0xW0NIMl1bQ0BASF0oW0NIMl0yKVtDQEBIXShbQ0gyXVtDQEhdMTIpTihbQ0gyXVtDSDJdMylbQ0gyXVtDSDJdTjNDKD1PKVtOSF1bQ0gyXVtDSDJdYzRbY0hdW2NIXVtjSF1uW2NIXTQ=

> <s_epik_cmdline>
J2VwaWtfcHl0aG9uJywgJy1waCcsICc3LjAnLCAnLXRuJywgJzgnLCAnLW1hJywgJzIwMCcsICctbWV0YWxfYmluZGluZycsICctaW1hZScsICc8aW5maWxlLm1hZT4nLCAnLW9tYWUnLCAnPG91dGZpbGUubWFlPic=

> <r_epik_Ionization_Penalty>
0.0161279

> <r_epik_Ionization_Penalty_Charging>
0.00262064

> <r_epik_Ionization_Penalty_Neutral>
0.0135072

> <r_epik_State_Penalty>
0.0104914

> <r_epik_Charging_Adjusted_Penalty>
0.013112

> <i_epik_Tot_Q>
1

> <i_epik_Tot_abs_Q>
1

> <r_epik_Metal_State_Penalty>
0.0102536

> <b_epik_Metal_Only>
0

> <s_lp_Force_Field>
OPLS_2005

> <r_lp_Energy>
96.0256

> <b_lp_Chiralities_Consistent>
1

> <s_lp_Variant>
AV-unprocessed.smi:867-2

> <Gold.Version>
5.8.1

> <Gold.Id.Protein>
6NUR|6NUR_protein|mol2

> <Gold.PLP.Fitness>
53.8382

> <Gold.PLP.PLP>
-45.3674

> <Gold.PLP.part.hbond>
-3.0000

> <Gold.PLP.part.metal>
0.0000

> <Gold.PLP.part.buried>
-3.9444

> <Gold.PLP.part.nonpolar>
-37.2858

> <Gold.PLP.part.repulsive>
0.0566

> <Gold.PLP.ligand.clash>
1.4416

> <Gold.PLP.ligand.torsion>
0.7185

> <Gold.PLP.Chemscore.Hbond>
3.7247

> <Gold.PLP.Chemscore.CHOScore>
0.0000

> <Gold.PLP.Chemscore.Metal>
0.0000

> <Gold.Chemscore.Hbonds>
donor molecule, donor type, donor heavy atom, donor atom, acceptor molecule, acceptor atom, score
      L1  H    15    53       P1  7948  2.00
      P1  H  6931  6943       L1    10  0.90
      P1  H  6934  6947       L1    10  0.87

> <Gold.PLP.Chemscore.Internal.Correction>
0.1753

> <Gold.Rescore>
     Score         DG    S(hbond)    S(metal)    S(lipo)     H(rot)  DE(clash)    DE(int)     intcor
     20.24     -21.00       1.84        0.00     110.26       1.37       0.08       0.68       ----

> <Gold.Chemscore.Fitness>
20.2392

> <Gold.Chemscore.DG>
-21.0006

> <Gold.Chemscore.ZeroCoef>
-5.4800

> <Gold.Chemscore.Hbond>
1.8369

> <Gold.Chemscore.Metal>
0.0000

> <Gold.Chemscore.Lipo>
110.2617

> <Gold.Chemscore.Internal_Hbond>
0.0000

> <Gold.Chemscore.DEClash>
0.0841

> <Gold.Chemscore.DEInternal>
0.6773

> <Gold.Chemscore.Rot>
1.3731

> <Gold.Chemscore.Internal.Correction>
   9.000000E+99

> <Gold.Chemscore.Hbonds>
donor molecule, donor type, donor heavy atom, donor atom, acceptor molecule, acceptor atom, score
      L1  H    15    53       P1  7948  0.55
      P1  H  6931  6943       L1    10  0.17
      P1  H  6934  6947       L1    10  0.67

> <Gold.Chemscore.Hbond.Weighted>
-6.1352

> <Gold.Chemscore.Metal.Weighted>
-0.0000

> <Gold.Chemscore.Lipo.Weighted>
-12.9006

> <Gold.Chemscore.Internal_Hbond.Weighted>
0.0000

> <Gold.Chemscore.DEClash.Weighted>
0.0841

> <Gold.Chemscore.DEInternal.Weighted>
0.6773

> <Gold.Chemscore.Rot.Weighted>
3.5152

> <Gold.Chemscore.Internal.Correction.Weighted>
   9.000000E+99

> <Gold.Protein.RotatedTorsions>
[ 6907 6896 6895 6894 ] final  -41.40 input  -60.11 | X-H torsion
[ 7974 7965 7964 7962 ] final  122.38 input  175.53 | X-H torsion
[ 8008 7997 7996 7995 ] final   69.62 input   59.86 | X-H torsion
[ 10167 10162 10161 10158 ] final   84.84 input  -65.29 | X-H torsion
[ 10718 10713 10712 10709 ] final  132.15 input   66.30 | X-H torsion
[ 10763 10752 10751 10750 ] final   -2.94 input  -60.55 | X-H torsion
[ 11005 11000 10999 10996 ] final   66.63 input  -57.11 | X-H torsion

> <Gold.Protein.ActiveResidues>
 VAL166  LYS551  ARG553  GLY616  TRP617  ASP618  TYR619  PRO620  LYS621  CYS622 
 ASP623  PHE694  ASN695  SER759  ASP760  ASP761  ALA762  ILE779  LEU786  VAL792 
 PHE793  MET794  SER795  GLU796  ALA797  LYS798  CYS799  TRP800  GLU811  SER814 

> <Gold.Protein.RotatedAtoms>
  150.9672  134.9051  159.7765 H   0  0  0  0  0  0  0  0  0  0  0  0  # atno 6907 bound_to 6896
  152.5177  134.3591  159.9288 H   0  0  0  0  0  0  0  0  0  0  0  0  # atno 6908 bound_to 6896
  151.3601  133.3852  159.2723 H   0  0  0  0  0  0  0  0  0  0  0  0  # atno 6909 bound_to 6896
  145.1082  139.3471  143.4776 H   0  0  0  0  0  0  0  0  0  0  0  0  # atno 7974 bound_to 7965
  155.7264  140.3492  155.5039 H   0  0  0  0  0  0  0  0  0  0  0  0  # atno 8008 bound_to 7997
  155.9223  140.1069  157.1219 H   0  0  0  0  0  0  0  0  0  0  0  0  # atno 8009 bound_to 7997
  154.4071  140.1247  156.4681 H   0  0  0  0  0  0  0  0  0  0  0  0  # atno 8010 bound_to 7997
  139.9039  144.6313  150.8608 H   0  0  0  0  0  0  0  0  0  0  0  0  # atno 10167 bound_to 10162
  157.4898  131.1090  150.9571 H   0  0  0  0  0  0  0  0  0  0  0  0  # atno 10718 bound_to 10713
  153.3647  135.6992  153.6684 H   0  0  0  0  0  0  0  0  0  0  0  0  # atno 10763 bound_to 10752
  153.5358  135.3583  155.2697 H   0  0  0  0  0  0  0  0  0  0  0  0  # atno 10764 bound_to 10752
  154.8673  135.4192  154.2912 H   0  0  0  0  0  0  0  0  0  0  0  0  # atno 10765 bound_to 10752
  139.9820  134.6729  156.0245 H   0  0  0  0  0  0  0  0  0  0  0  0  # atno 11005 bound_to 11000
  146.3527  140.0990  142.8609 LP  0  0  0  0  0  0  0  0  0  0  0  0  # atno 17320 bound_to 7965
  145.0877  140.9263  143.4788 LP  0  0  0  0  0  0  0  0  0  0  0  0  # atno 17321 bound_to 7965
  140.7701  143.3416  151.2196 LP  0  0  0  0  0  0  0  0  0  0  0  0  # atno 17342 bound_to 10162
  139.7001  143.9546  152.2901 LP  0  0  0  0  0  0  0  0  0  0  0  0  # atno 17343 bound_to 10162
  157.0276  130.5698  149.5339 LP  0  0  0  0  0  0  0  0  0  0  0  0  # atno 17370 bound_to 10713
  156.0167  130.5261  150.8156 LP  0  0  0  0  0  0  0  0  0  0  0  0  # atno 17371 bound_to 10713
  141.1491  133.6551  156.3957 LP  0  0  0  0  0  0  0  0  0  0  0  0  # atno 17394 bound_to 11000
  140.5078  134.6424  157.5273 LP  0  0  0  0  0  0  0  0  0  0  0  0  # atno 17395 bound_to 11000

$$$$
