AV-unprocessed.smi:99|AV-procd|sdf|887|dock7
  -GOLD-   2262017373D 1   1.00000     0.00000
 Structure written by MMmdl.
 52 55  0  0  0  0  0  0  0  0  2 V2000
  147.5349  131.4241  153.3203 O   0  0  0  0  0  0  0  0  0  0  0  0
  146.8647  132.4521  153.2009 C   0  0  0  0  0  0  0  0  0  0  0  0
  146.9042  133.4730  154.0784 O   0  0  0  0  0  0  0  0  0  0  0  0
  147.4511  133.2754  155.3715 C   0  0  0  0  0  0  0  0  0  0  0  0
  147.4119  134.5971  156.1442 C   0  0  2  0  0  0  0  0  0  0  0  0
  148.1323  135.5964  155.4434 O   0  0  0  0  0  0  0  0  0  0  0  0
  148.4878  136.6006  156.3406 C   0  0  2  0  0  0  0  0  0  0  0  0
  149.8047  137.1976  155.8944 N   0  0  0  0  0  0  0  0  0  0  0  0
  149.9408  138.5687  155.7580 C   0  0  0  0  0  0  0  0  0  0  0  0
  151.1037  139.1216  155.3562 C   0  0  0  0  0  0  0  0  0  0  0  0
  152.2419  138.2573  155.0559 C   0  0  0  0  0  0  0  0  0  0  0  0
  153.3022  138.7701  154.7022 O   0  0  0  0  0  0  0  0  0  0  0  0
  152.0754  136.9085  155.1813 N   0  5  0  0  0  0  0  0  0  0  0  0
  150.8972  136.3452  155.5795 C   0  0  0  0  0  0  0  0  0  0  0  0
  150.7303  135.1286  155.6733 O   0  0  0  0  0  0  0  0  0  0  0  0
  148.5417  135.9717  157.7518 C   0  0  2  0  0  0  0  0  0  0  0  0
  149.8133  136.0145  158.3742 O   0  0  0  0  0  0  0  0  0  0  0  0
  148.1281  134.5253  157.4929 C   0  0  1  0  0  0  0  0  0  0  0  0
  147.2167  134.0599  158.4813 O   0  0  0  0  0  0  0  0  0  0  0  0
  146.0960  134.7552  158.7691 C   0  0  0  0  0  0  0  0  0  0  0  0
  145.4963  135.4551  157.9508 O   0  0  0  0  0  0  0  0  0  0  0  0
  145.6559  134.5856  160.1838 C   0  0  0  0  0  0  0  0  0  0  0  0
  146.5081  133.9259  161.1000 C   0  0  0  0  0  0  0  0  0  0  0  0
  146.1193  133.7489  162.4420 C   0  0  0  0  0  0  0  0  0  0  0  0
  144.8726  134.2283  162.8843 C   0  0  0  0  0  0  0  0  0  0  0  0
  144.0155  134.8858  161.9827 C   0  0  0  0  0  0  0  0  0  0  0  0
  144.4031  135.0649  160.6403 C   0  0  0  0  0  0  0  0  0  0  0  0
  145.9231  132.6942  152.0700 C   0  0  0  0  0  0  0  0  0  0  0  0
  145.1947  133.9060  152.0222 C   0  0  0  0  0  0  0  0  0  0  0  0
  144.2991  134.1635  150.9662 C   0  0  0  0  0  0  0  0  0  0  0  0
  144.1202  133.2118  149.9454 C   0  0  0  0  0  0  0  0  0  0  0  0
  144.8376  132.0020  149.9822 C   0  0  0  0  0  0  0  0  0  0  0  0
  145.7344  131.7430  151.0369 C   0  0  0  0  0  0  0  0  0  0  0  0
  146.8554  132.5249  155.8931 H   0  0  0  0  0  0  0  0  0  0  0  0
  148.4735  132.8996  155.3083 H   0  0  0  0  0  0  0  0  0  0  0  0
  146.3841  134.9379  156.2854 H   0  0  0  0  0  0  0  0  0  0  0  0
  147.7372  137.3884  156.2593 H   0  0  0  0  0  0  0  0  0  0  0  0
  149.1013  139.2147  155.9680 H   0  0  0  0  0  0  0  0  0  0  0  0
  151.1919  140.1931  155.2524 H   0  0  0  0  0  0  0  0  0  0  0  0
  147.8117  136.4902  158.3752 H   0  0  0  0  0  0  0  0  0  0  0  0
  150.1737  136.8812  158.2636 H   0  0  0  0  0  0  0  0  0  0  0  0
  149.0052  133.8821  157.3979 H   0  0  0  0  0  0  0  0  0  0  0  0
  147.4700  133.5483  160.7839 H   0  0  0  0  0  0  0  0  0  0  0  0
  146.7788  133.2438  163.1326 H   0  0  0  0  0  0  0  0  0  0  0  0
  144.5741  134.0918  163.9133 H   0  0  0  0  0  0  0  0  0  0  0  0
  143.0578  135.2533  162.3208 H   0  0  0  0  0  0  0  0  0  0  0  0
  143.7206  135.5727  159.9745 H   0  0  0  0  0  0  0  0  0  0  0  0
  145.3155  134.6519  152.7949 H   0  0  0  0  0  0  0  0  0  0  0  0
  143.7491  135.0926  150.9400 H   0  0  0  0  0  0  0  0  0  0  0  0
  143.4337  133.4093  149.1355 H   0  0  0  0  0  0  0  0  0  0  0  0
  144.7002  131.2700  149.2002 H   0  0  0  0  0  0  0  0  0  0  0  0
  146.2686  130.8041  151.0346 H   0  0  0  0  0  0  0  0  0  0  0  0
  1  2  2  0  0  0  0
  2  3  1  0  0  0  0
  2 28  1  0  0  0  0
  3  4  1  0  0  0  0
  4  5  1  0  0  0  0
  4 34  1  0  0  0  0
  4 35  1  0  0  0  0
  5 18  1  0  0  0  0
  5  6  1  0  0  0  0
  5 36  1  0  0  0  0
  6  7  1  0  0  0  0
  7  8  1  0  0  0  0
  7 16  1  0  0  0  0
  7 37  1  0  0  0  0
  8 14  1  0  0  0  0
  8  9  1  0  0  0  0
  9 10  2  0  0  0  0
  9 38  1  0  0  0  0
 10 11  1  0  0  0  0
 10 39  1  0  0  0  0
 11 12  2  0  0  0  0
 11 13  1  0  0  0  0
 13 14  1  0  0  0  0
 14 15  2  0  0  0  0
 16 17  1  0  0  0  0
 16 18  1  0  0  0  0
 16 40  1  0  0  0  0
 17 41  1  0  0  0  0
 18 19  1  0  0  0  0
 18 42  1  0  0  0  0
 19 20  1  0  0  0  0
 20 21  2  0  0  0  0
 20 22  1  0  0  0  0
 22 27  1  0  0  0  0
 22 23  2  0  0  0  0
 23 24  1  0  0  0  0
 23 43  1  0  0  0  0
 24 25  2  0  0  0  0
 24 44  1  0  0  0  0
 25 26  1  0  0  0  0
 25 45  1  0  0  0  0
 26 27  2  0  0  0  0
 26 46  1  0  0  0  0
 27 47  1  0  0  0  0
 28 33  1  0  0  0  0
 28 29  2  0  0  0  0
 29 30  1  0  0  0  0
 29 48  1  0  0  0  0
 30 31  2  0  0  0  0
 30 49  1  0  0  0  0
 31 32  1  0  0  0  0
 31 50  1  0  0  0  0
 32 33  2  0  0  0  0
 32 51  1  0  0  0  0
 33 52  1  0  0  0  0
M  CHG  1  13  -1
M  END
> <s_m_source_file>
AV-unprocessed.smi

> <i_m_source_file_index>
99

> <i_lp_mmshare_version>
43012

> <i_f3d_flags>
0

> <s_epik_input>
W2NIXTFbY0hdW2NIXVtjSF1bY0hdYzFDKD1PKU9bQ0gyXVtDQEBIXTJPW0NAQEhdKG4zW2NIXVtjSF1jKD1PKVtuSF1jMz1PKVtDQEBIXShbT0hdKVtDQEhdMk9DKD1PKWM0W2NIXVtjSF1bY0hdW2NIXVtjSF00

> <s_epik_cmdline>
J2VwaWtfcHl0aG9uJywgJy1waCcsICc3LjAnLCAnLXRuJywgJzgnLCAnLW1hJywgJzIwMCcsICctbWV0YWxfYmluZGluZycsICctaW1hZScsICc8aW5maWxlLm1hZT4nLCAnLW9tYWUnLCAnPG91dGZpbGUubWFlPic=

> <r_lp_tautomer_probability>
1

> <r_epik_Ionization_Penalty>
2.89159

> <r_epik_Ionization_Penalty_Charging>
2.1077e-08

> <r_epik_Ionization_Penalty_Neutral>
2.89159

> <r_epik_State_Penalty>
2.88671

> <r_epik_Charging_Adjusted_Penalty>
2.88671

> <i_epik_Tot_Q>
-1

> <i_epik_Tot_abs_Q>
1

> <r_epik_Metal_State_Penalty>
0.0727308

> <b_epik_Metal_Only>
1

> <s_epik_Chemistry_Notes>
This compound has an ester and may undergo hydrolysis at high or low pH. This compound contains an acetal/aminal-like group ( X-CH(R)-Y where X, Y are N, S, or O) that may be acid/base labile, releasing an aldehyde.

> <s_lp_Force_Field>
OPLS_2005

> <r_lp_Energy>
47.3257

> <b_lp_Chiralities_Consistent>
1

> <s_lp_Variant>
AV-unprocessed.smi:99-23

> <Gold.Version>
5.8.1

> <Gold.Id.Protein>
6NUR|6NUR_protein|mol2

> <Gold.PLP.Fitness>
47.9882

> <Gold.PLP.PLP>
-37.7333

> <Gold.PLP.part.hbond>
-3.1292

> <Gold.PLP.part.metal>
0.0000

> <Gold.PLP.part.buried>
-8.0008

> <Gold.PLP.part.nonpolar>
-28.4820

> <Gold.PLP.part.repulsive>
0.3726

> <Gold.PLP.ligand.clash>
0.0000

> <Gold.PLP.ligand.torsion>
0.8409

> <Gold.PLP.Chemscore.Hbond>
3.8153

> <Gold.PLP.Chemscore.CHOScore>
0.0000

> <Gold.PLP.Chemscore.Metal>
0.0000

> <Gold.Chemscore.Hbonds>
donor molecule, donor type, donor heavy atom, donor atom, acceptor molecule, acceptor atom, score
      P1  H  6896  6909       L1    17  1.00
      P1  H  7997  8009       L1    12  0.65
      P1  H 10752 10763       L1    13  1.92

> <Gold.PLP.Chemscore.Internal.Correction>
0.4910

> <Gold.Rescore>
     Score         DG    S(hbond)    S(metal)    S(lipo)     H(rot)  DE(clash)    DE(int)     intcor
     11.25     -15.48       2.23        0.00      90.38       3.13       0.13       4.10       ----

> <Gold.Chemscore.Fitness>
11.2513

> <Gold.Chemscore.DG>
-15.4774

> <Gold.Chemscore.ZeroCoef>
-5.4800

> <Gold.Chemscore.Hbond>
2.2297

> <Gold.Chemscore.Metal>
0.0000

> <Gold.Chemscore.Lipo>
90.3814

> <Gold.Chemscore.Internal_Hbond>
0.0000

> <Gold.Chemscore.DEClash>
0.1263

> <Gold.Chemscore.DEInternal>
4.0998

> <Gold.Chemscore.Rot>
3.1346

> <Gold.Chemscore.Internal.Correction>
   9.000000E+99

> <Gold.Chemscore.Hbonds>
donor molecule, donor type, donor heavy atom, donor atom, acceptor molecule, acceptor atom, score
      P1  H  6896  6909       L1    17  0.90
      P1  H  7997  8009       L1    12  0.63
      P1  H 10752 10763       L1    13  0.37

> <Gold.Chemscore.Hbond.Weighted>
-7.4474

> <Gold.Chemscore.Metal.Weighted>
-0.0000

> <Gold.Chemscore.Lipo.Weighted>
-10.5746

> <Gold.Chemscore.Internal_Hbond.Weighted>
0.0000

> <Gold.Chemscore.DEClash.Weighted>
0.1263

> <Gold.Chemscore.DEInternal.Weighted>
4.0998

> <Gold.Chemscore.Rot.Weighted>
8.0246

> <Gold.Chemscore.Internal.Correction.Weighted>
   9.000000E+99

> <Gold.Protein.RotatedTorsions>
[ 6907 6896 6895 6894 ] final   57.86 input  -60.11 | X-H torsion
[ 7974 7965 7964 7962 ] final  -43.59 input  175.53 | X-H torsion
[ 8008 7997 7996 7995 ] final -128.38 input   59.86 | X-H torsion
[ 10167 10162 10161 10158 ] final   51.39 input  -65.29 | X-H torsion
[ 10718 10713 10712 10709 ] final -142.10 input   66.30 | X-H torsion
[ 10763 10752 10751 10750 ] final   69.21 input  -60.55 | X-H torsion
[ 11005 11000 10999 10996 ] final  124.65 input  -57.11 | X-H torsion

> <Gold.Protein.ActiveResidues>
 VAL166  LYS551  ARG553  GLY616  TRP617  ASP618  TYR619  PRO620  LYS621  CYS622 
 ASP623  PHE694  ASN695  SER759  ASP760  ASP761  ALA762  ILE779  LEU786  VAL792 
 PHE793  MET794  SER795  GLU796  ALA797  LYS798  CYS799  TRP800  GLU811  SER814 

> <Gold.Protein.RotatedAtoms>
  152.3771  134.6647  160.0155 H   0  0  0  0  0  0  0  0  0  0  0  0  # atno 6907 bound_to 6896
  151.6922  133.3305  159.3254 H   0  0  0  0  0  0  0  0  0  0  0  0  # atno 6908 bound_to 6896
  150.7718  134.6624  159.6391 H   0  0  0  0  0  0  0  0  0  0  0  0  # atno 6909 bound_to 6896
  146.0004  140.7080  142.9273 H   0  0  0  0  0  0  0  0  0  0  0  0  # atno 7974 bound_to 7965
  155.2617  140.0436  157.2998 H   0  0  0  0  0  0  0  0  0  0  0  0  # atno 8008 bound_to 7997
  154.5706  140.2373  155.8166 H   0  0  0  0  0  0  0  0  0  0  0  0  # atno 8009 bound_to 7997
  156.2120  140.2996  155.9761 H   0  0  0  0  0  0  0  0  0  0  0  0  # atno 8010 bound_to 7997
  140.2624  144.3358  150.6314 H   0  0  0  0  0  0  0  0  0  0  0  0  # atno 10167 bound_to 10162
  156.3418  130.7641  151.1779 H   0  0  0  0  0  0  0  0  0  0  0  0  # atno 10718 bound_to 10713
  153.0275  135.5219  154.7253 H   0  0  0  0  0  0  0  0  0  0  0  0  # atno 10763 bound_to 10752
  154.6297  135.2899  155.0233 H   0  0  0  0  0  0  0  0  0  0  0  0  # atno 10764 bound_to 10752
  154.1190  135.6610  153.4952 H   0  0  0  0  0  0  0  0  0  0  0  0  # atno 10765 bound_to 10752
  139.9369  134.9639  156.8441 H   0  0  0  0  0  0  0  0  0  0  0  0  # atno 11005 bound_to 11000
  144.6917  140.3223  143.7230 LP  0  0  0  0  0  0  0  0  0  0  0  0  # atno 17320 bound_to 7965
  145.7496  139.1789  143.2329 LP  0  0  0  0  0  0  0  0  0  0  0  0  # atno 17321 bound_to 7965
  140.5955  143.2167  151.7172 LP  0  0  0  0  0  0  0  0  0  0  0  0  # atno 17342 bound_to 10162
  139.5013  144.3874  152.0315 LP  0  0  0  0  0  0  0  0  0  0  0  0  # atno 17343 bound_to 10162
  157.7448  131.0452  150.4832 LP  0  0  0  0  0  0  0  0  0  0  0  0  # atno 17370 bound_to 10713
  156.5014  130.4118  149.6351 LP  0  0  0  0  0  0  0  0  0  0  0  0  # atno 17371 bound_to 10713
  140.6053  134.0133  155.7554 LP  0  0  0  0  0  0  0  0  0  0  0  0  # atno 17394 bound_to 11000
  141.0986  133.9803  157.3117 LP  0  0  0  0  0  0  0  0  0  0  0  0  # atno 17395 bound_to 11000

$$$$
