AV-unprocessed.smi:2855|AV-procd|sdf|10991|dock10
  -GOLD-   2272015443D 1   1.00000     0.00000
 Structure written by MMmdl.
 46 47  0  0  0  0  0  0  0  0  2 V2000
  152.7949  143.7562  159.2069 C   0  0  0  0  0  0  0  0  0  0  0  0
  151.7209  142.6622  159.2835 C   0  0  2  0  0  0  0  0  0  0  0  0
  152.2465  141.3165  158.7434 C   0  0  0  0  0  0  0  0  0  0  0  0
  151.1515  140.2329  158.7420 C   0  0  0  0  0  0  0  0  0  0  0  0
  149.9094  140.6590  157.9188 C   0  0  2  0  0  0  0  0  0  0  0  0
  150.1857  140.7259  156.3748 C   0  0  0  0  0  0  0  0  0  0  0  0
  148.9388  141.0417  155.5247 C   0  0  0  0  0  0  0  0  0  0  0  0
  150.8116  139.4242  155.8341 C   0  0  0  0  0  0  0  0  0  0  0  0
  149.3773  141.9612  158.5937 C   0  0  2  0  0  0  0  0  0  0  0  0
  148.0919  142.4326  158.0873 N   0  0  0  0  0  0  0  0  0  0  0  0
  146.9347  141.7552  158.1405 C   0  0  0  0  0  0  0  0  0  0  0  0
  146.8327  140.6339  158.6404 O   0  0  0  0  0  0  0  0  0  0  0  0
  145.7266  142.4586  157.5059 C   0  0  0  0  0  0  0  0  0  0  0  0
  144.8301  143.0903  158.4874 N   0  0  0  0  0  0  0  0  0  0  0  0
  145.3722  144.0918  159.3122 C   0  0  0  0  0  0  0  0  0  0  0  0
  144.6298  144.7298  160.2368 C   0  0  0  0  0  0  0  0  0  0  0  0
  143.2268  144.3581  160.3717 C   0  0  0  0  0  0  0  0  0  0  0  0
  142.5355  144.9251  161.2156 O   0  0  0  0  0  0  0  0  0  0  0  0
  142.7453  143.3856  159.5430 N   0  5  0  0  0  0  0  0  0  0  0  0
  143.5116  142.7480  158.6040 C   0  0  0  0  0  0  0  0  0  0  0  0
  143.0556  141.8765  157.8629 O   0  0  0  0  0  0  0  0  0  0  0  0
  150.4282  143.0870  158.5574 C   0  0  0  0  0  0  0  0  0  0  0  0
  153.0958  143.9445  158.1757 H   0  0  0  0  0  0  0  0  0  0  0  0
  153.6860  143.4716  159.7668 H   0  0  0  0  0  0  0  0  0  0  0  0
  152.4295  144.6950  159.6236 H   0  0  0  0  0  0  0  0  0  0  0  0
  151.4744  142.5200  160.3368 H   0  0  0  0  0  0  0  0  0  0  0  0
  152.6395  141.4467  157.7350 H   0  0  0  0  0  0  0  0  0  0  0  0
  153.0862  140.9803  159.3524 H   0  0  0  0  0  0  0  0  0  0  0  0
  151.5577  139.2820  158.4015 H   0  0  0  0  0  0  0  0  0  0  0  0
  150.8474  140.0454  159.7728 H   0  0  0  0  0  0  0  0  0  0  0  0
  149.1606  139.8799  158.0674 H   0  0  0  0  0  0  0  0  0  0  0  0
  150.9065  141.5185  156.1776 H   0  0  0  0  0  0  0  0  0  0  0  0
  148.1005  140.3970  155.7908 H   0  0  0  0  0  0  0  0  0  0  0  0
  149.1355  140.9014  154.4615 H   0  0  0  0  0  0  0  0  0  0  0  0
  148.6243  142.0783  155.6314 H   0  0  0  0  0  0  0  0  0  0  0  0
  150.2039  138.5553  156.0891 H   0  0  0  0  0  0  0  0  0  0  0  0
  151.8169  139.2621  156.2207 H   0  0  0  0  0  0  0  0  0  0  0  0
  150.9089  139.4511  154.7484 H   0  0  0  0  0  0  0  0  0  0  0  0
  149.2058  141.7376  159.6490 H   0  0  0  0  0  0  0  0  0  0  0  0
  148.0811  143.3469  157.6592 H   0  0  0  0  0  0  0  0  0  0  0  0
  146.0825  143.1954  156.7836 H   0  0  0  0  0  0  0  0  0  0  0  0
  145.1749  141.7251  156.9161 H   0  0  0  0  0  0  0  0  0  0  0  0
  146.4162  144.3112  159.1425 H   0  0  0  0  0  0  0  0  0  0  0  0
  145.0605  145.4998  160.8600 H   0  0  0  0  0  0  0  0  0  0  0  0
  150.0247  143.9797  159.0375 H   0  0  0  0  0  0  0  0  0  0  0  0
  150.6466  143.3703  157.5276 H   0  0  0  0  0  0  0  0  0  0  0  0
  1  2  1  0  0  0  0
  1 23  1  0  0  0  0
  1 24  1  0  0  0  0
  1 25  1  0  0  0  0
  2 22  1  0  0  0  0
  2  3  1  0  0  0  0
  2 26  1  0  0  0  0
  3  4  1  0  0  0  0
  3 27  1  0  0  0  0
  3 28  1  0  0  0  0
  4  5  1  0  0  0  0
  4 29  1  0  0  0  0
  4 30  1  0  0  0  0
  5  6  1  0  0  0  0
  5  9  1  0  0  0  0
  5 31  1  0  0  0  0
  6  7  1  0  0  0  0
  6  8  1  0  0  0  0
  6 32  1  0  0  0  0
  7 33  1  0  0  0  0
  7 34  1  0  0  0  0
  7 35  1  0  0  0  0
  8 36  1  0  0  0  0
  8 37  1  0  0  0  0
  8 38  1  0  0  0  0
  9 10  1  0  0  0  0
  9 22  1  0  0  0  0
  9 39  1  0  0  0  0
 10 11  1  0  0  0  0
 10 40  1  0  0  0  0
 11 12  2  0  0  0  0
 11 13  1  0  0  0  0
 13 14  1  0  0  0  0
 13 41  1  0  0  0  0
 13 42  1  0  0  0  0
 14 20  1  0  0  0  0
 14 15  1  0  0  0  0
 15 16  2  0  0  0  0
 15 43  1  0  0  0  0
 16 17  1  0  0  0  0
 16 44  1  0  0  0  0
 17 18  2  0  0  0  0
 17 19  1  0  0  0  0
 19 20  1  0  0  0  0
 20 21  2  0  0  0  0
 22 45  1  0  0  0  0
 22 46  1  0  0  0  0
M  CHG  1  19  -1
M  END
> <s_m_source_file>
AV-unprocessed.smi

> <i_m_source_file_index>
2855

> <i_lp_mmshare_version>
43012

> <i_f3d_flags>
0

> <s_epik_input>
W0NIM11bQ0BASF0xW0NIMl1bQ0gyXVtDQEBIXShbQ0hdKFtDSDNdKVtDSDNdKVtDQEhdKFtDSDJdMSlbTkhdQyg9TylbQ0gyXW4yW2NIXVtjSF1jKD1PKVtuSF1jMj1P

> <s_epik_cmdline>
J2VwaWtfcHl0aG9uJywgJy1waCcsICc3LjAnLCAnLXRuJywgJzgnLCAnLW1hJywgJzIwMCcsICctbWV0YWxfYmluZGluZycsICctaW1hZScsICc8aW5maWxlLm1hZT4nLCAnLW9tYWUnLCAnPG91dGZpbGUubWFlPic=

> <r_lp_tautomer_probability>
0.999537

> <r_epik_Ionization_Penalty>
3.12102

> <r_epik_Ionization_Penalty_Charging>
2.9581e-08

> <r_epik_Ionization_Penalty_Neutral>
3.12102

> <r_epik_State_Penalty>
3.12011

> <r_epik_Charging_Adjusted_Penalty>
3.12011

> <i_epik_Tot_Q>
-1

> <i_epik_Tot_abs_Q>
1

> <r_epik_Metal_State_Penalty>
0.463583

> <b_epik_Metal_Only>
1

> <s_lp_Force_Field>
OPLS_2005

> <r_lp_Energy>
28.6833

> <b_lp_Chiralities_Consistent>
1

> <s_lp_Variant>
AV-unprocessed.smi:2855-15

> <Gold.Version>
5.8.1

> <Gold.Id.Protein>
6NUR|6NUR_protein|mol2

> <Gold.PLP.Fitness>
33.9331

> <Gold.PLP.PLP>
-28.5210

> <Gold.PLP.part.hbond>
-1.0000

> <Gold.PLP.part.metal>
0.0000

> <Gold.PLP.part.buried>
-2.8079

> <Gold.PLP.part.nonpolar>
-25.0696

> <Gold.PLP.part.repulsive>
0.1724

> <Gold.PLP.ligand.clash>
0.0000

> <Gold.PLP.ligand.torsion>
0.3303

> <Gold.PLP.Chemscore.Hbond>
1.0000

> <Gold.PLP.Chemscore.CHOScore>
1.0000

> <Gold.PLP.Chemscore.Metal>
0.0000

> <Gold.Chemscore.Hbonds>
donor molecule, donor type, donor heavy atom, donor atom, acceptor molecule, acceptor atom, score
      P1  H  6934  6946       L1    12  0.12
      L1  C    15    43       P1  8029  0.16

> <Gold.PLP.Chemscore.Internal.Correction>
0.0727

> <Gold.Rescore>
     Score         DG    S(hbond)    S(metal)    S(lipo)     H(rot)  DE(clash)    DE(int)     intcor
     11.23     -11.71       0.65        0.00      74.37       1.81       0.03       0.45       ----

> <Gold.Chemscore.Fitness>
11.2326

> <Gold.Chemscore.DG>
-11.7146

> <Gold.Chemscore.ZeroCoef>
-5.4800

> <Gold.Chemscore.Hbond>
0.6487

> <Gold.Chemscore.Metal>
0.0000

> <Gold.Chemscore.Lipo>
74.3726

> <Gold.Chemscore.Internal_Hbond>
0.0000

> <Gold.Chemscore.DEClash>
0.0310

> <Gold.Chemscore.DEInternal>
0.4511

> <Gold.Chemscore.Rot>
1.8100

> <Gold.Chemscore.Internal.Correction>
   9.000000E+99

> <Gold.Chemscore.Hbonds>
donor molecule, donor type, donor heavy atom, donor atom, acceptor molecule, acceptor atom, score
      P1  H  6934  6946       L1    12  0.10

> <Gold.Chemscore.Hbond.Weighted>
-2.1665

> <Gold.Chemscore.Metal.Weighted>
-0.0000

> <Gold.Chemscore.Lipo.Weighted>
-8.7016

> <Gold.Chemscore.Internal_Hbond.Weighted>
0.0000

> <Gold.Chemscore.DEClash.Weighted>
0.0310

> <Gold.Chemscore.DEInternal.Weighted>
0.4511

> <Gold.Chemscore.Rot.Weighted>
4.6335

> <Gold.Chemscore.Internal.Correction.Weighted>
   9.000000E+99

> <Gold.Protein.RotatedTorsions>
[ 6907 6896 6895 6894 ] final  177.33 input  -60.11 | X-H torsion
[ 7974 7965 7964 7962 ] final   47.82 input  175.53 | X-H torsion
[ 8008 7997 7996 7995 ] final  142.72 input   59.86 | X-H torsion
[ 10167 10162 10161 10158 ] final   32.50 input  -65.29 | X-H torsion
[ 10718 10713 10712 10709 ] final -115.51 input   66.30 | X-H torsion
[ 10763 10752 10751 10750 ] final   72.07 input  -60.55 | X-H torsion
[ 11005 11000 10999 10996 ] final  169.85 input  -57.11 | X-H torsion

> <Gold.Protein.ActiveResidues>
 VAL166  LYS551  ARG553  GLY616  TRP617  ASP618  TYR619  PRO620  LYS621  CYS622 
 ASP623  PHE694  ASN695  SER759  ASP760  ASP761  ALA762  ILE779  LEU786  VAL792 
 PHE793  MET794  SER795  GLU796  ALA797  LYS798  CYS799  TRP800  GLU811  SER814 

> <Gold.Protein.RotatedAtoms>
  151.7057  133.3311  159.3277 H   0  0  0  0  0  0  0  0  0  0  0  0  # atno 6907 bound_to 6896
  150.7716  134.6577  159.6332 H   0  0  0  0  0  0  0  0  0  0  0  0  # atno 6908 bound_to 6896
  152.3742  134.6691  160.0217 H   0  0  0  0  0  0  0  0  0  0  0  0  # atno 6909 bound_to 6896
  146.0262  139.4709  142.9866 H   0  0  0  0  0  0  0  0  0  0  0  0  # atno 7974 bound_to 7965
  156.2944  140.2281  156.4773 H   0  0  0  0  0  0  0  0  0  0  0  0  # atno 8008 bound_to 7997
  154.7883  140.0456  157.1202 H   0  0  0  0  0  0  0  0  0  0  0  0  # atno 8009 bound_to 7997
  154.9675  140.3062  155.5006 H   0  0  0  0  0  0  0  0  0  0  0  0  # atno 8010 bound_to 7997
  140.4492  144.1073  150.6188 H   0  0  0  0  0  0  0  0  0  0  0  0  # atno 10167 bound_to 10162
  156.0901  130.6085  150.8916 H   0  0  0  0  0  0  0  0  0  0  0  0  # atno 10718 bound_to 10713
  153.0436  135.5113  154.7688 H   0  0  0  0  0  0  0  0  0  0  0  0  # atno 10763 bound_to 10752
  154.6606  135.2938  154.9874 H   0  0  0  0  0  0  0  0  0  0  0  0  # atno 10764 bound_to 10752
  154.0726  135.6675  153.4879 H   0  0  0  0  0  0  0  0  0  0  0  0  # atno 10765 bound_to 10752
  140.3021  134.7587  157.3924 H   0  0  0  0  0  0  0  0  0  0  0  0  # atno 11005 bound_to 11000
  145.7115  141.0105  143.1451 LP  0  0  0  0  0  0  0  0  0  0  0  0  # atno 17320 bound_to 7965
  144.7010  139.8762  143.7444 LP  0  0  0  0  0  0  0  0  0  0  0  0  # atno 17321 bound_to 7965
  140.4227  143.2604  151.9695 LP  0  0  0  0  0  0  0  0  0  0  0  0  # atno 17342 bound_to 10162
  139.4795  144.5816  151.7922 LP  0  0  0  0  0  0  0  0  0  0  0  0  # atno 17343 bound_to 10162
  157.6047  131.0939  150.8899 LP  0  0  0  0  0  0  0  0  0  0  0  0  # atno 17370 bound_to 10713
  156.9050  130.5260  149.5281 LP  0  0  0  0  0  0  0  0  0  0  0  0  # atno 17371 bound_to 10713
  140.1100  134.5358  155.8275 LP  0  0  0  0  0  0  0  0  0  0  0  0  # atno 17394 bound_to 11000
  141.2126  133.6721  156.6671 LP  0  0  0  0  0  0  0  0  0  0  0  0  # atno 17395 bound_to 11000

$$$$
