AV-unprocessed.smi:1570|AV-procd|sdf|6319|dock9
  -GOLD-   22720 6523D 1   1.00000     0.00000
 Structure written by MMmdl.
 52 54  0  0  0  0  0  0  0  0  2 V2000
  154.0338  141.6719  161.7097 C   0  0  0  0  0  0  0  0  0  0  0  0
  154.4877  141.6121  160.2457 C   0  0  0  0  0  0  0  0  0  0  0  0
  153.3447  141.4954  159.3437 N   0  0  0  0  0  0  0  0  0  0  0  0
  153.0825  140.4682  158.5023 C   0  0  0  0  0  0  0  0  0  0  0  0
  153.7766  139.4633  158.3463 O   0  0  0  0  0  0  0  0  0  0  0  0
  151.9112  140.7266  157.8736 N   0  0  0  0  0  0  0  0  0  0  0  0
  151.2533  139.8754  156.8827 C   0  0  0  0  0  0  0  0  0  0  0  0
  151.8575  140.0608  155.4755 C   0  0  1  0  0  0  0  0  0  0  0  0
  153.1899  139.5871  155.5010 O   0  0  0  0  0  0  0  0  0  0  0  0
  151.0922  139.2468  154.4124 C   0  0  0  0  0  0  0  0  0  0  0  0
  149.6315  139.5150  154.4379 N   0  3  1  0  0  0  0  0  0  0  0  0
  149.3156  140.9602  154.3513 C   0  0  0  0  0  0  0  0  0  0  0  0
  147.7950  141.1876  154.4496 C   0  0  1  0  0  0  0  0  0  0  0  0
  147.4195  142.6641  154.2840 C   0  0  0  0  0  0  0  0  0  0  0  0
  147.1470  140.4473  153.4207 O   0  0  0  0  0  0  0  0  0  0  0  0
  147.3647  139.0453  153.5337 C   0  0  1  0  0  0  0  0  0  0  0  0
  146.5525  138.3454  152.4382 C   0  0  0  0  0  0  0  0  0  0  0  0
  148.8729  138.7600  153.4099 C   0  0  0  0  0  0  0  0  0  0  0  0
  151.4012  141.9481  158.3380 C   0  0  0  0  0  0  0  0  0  0  0  0
  150.2211  142.6424  158.0182 C   0  0  0  0  0  0  0  0  0  0  0  0
  149.9916  143.8691  158.6843 C   0  0  0  0  0  0  0  0  0  0  0  0
  150.9210  144.3659  159.6345 C   0  0  0  0  0  0  0  0  0  0  0  0
  152.0996  143.6460  159.9401 C   0  0  0  0  0  0  0  0  0  0  0  0
  152.3038  142.4310  159.2630 C   0  0  0  0  0  0  0  0  0  0  0  0
  154.8904  141.7597  162.3782 H   0  0  0  0  0  0  0  0  0  0  0  0
  153.4845  140.7727  161.9901 H   0  0  0  0  0  0  0  0  0  0  0  0
  153.3851  142.5303  161.8876 H   0  0  0  0  0  0  0  0  0  0  0  0
  155.0620  142.5041  159.9948 H   0  0  0  0  0  0  0  0  0  0  0  0
  155.1633  140.7676  160.1015 H   0  0  0  0  0  0  0  0  0  0  0  0
  151.2683  138.8281  157.1857 H   0  0  0  0  0  0  0  0  0  0  0  0
  150.1993  140.1577  156.8684 H   0  0  0  0  0  0  0  0  0  0  0  0
  151.8604  141.1169  155.2088 H   0  0  0  0  0  0  0  0  0  0  0  0
  153.3869  139.1911  154.6656 H   0  0  0  0  0  0  0  0  0  0  0  0
  151.4997  139.4842  153.4282 H   0  0  0  0  0  0  0  0  0  0  0  0
  151.2558  138.1775  154.5553 H   0  0  0  0  0  0  0  0  0  0  0  0
  149.8187  141.4955  155.1577 H   0  0  0  0  0  0  0  0  0  0  0  0
  149.6991  141.3605  153.4111 H   0  0  0  0  0  0  0  0  0  0  0  0
  147.4335  140.8442  155.4206 H   0  0  0  0  0  0  0  0  0  0  0  0
  147.8792  143.2760  155.0605 H   0  0  0  0  0  0  0  0  0  0  0  0
  146.3397  142.8014  154.3492 H   0  0  0  0  0  0  0  0  0  0  0  0
  147.7456  143.0487  153.3171 H   0  0  0  0  0  0  0  0  0  0  0  0
  147.0038  138.7025  154.5052 H   0  0  0  0  0  0  0  0  0  0  0  0
  146.6776  137.2634  152.4864 H   0  0  0  0  0  0  0  0  0  0  0  0
  146.8614  138.6746  151.4456 H   0  0  0  0  0  0  0  0  0  0  0  0
  145.4888  138.5607  152.5438 H   0  0  0  0  0  0  0  0  0  0  0  0
  149.2268  139.0423  152.4168 H   0  0  0  0  0  0  0  0  0  0  0  0
  149.0476  137.6899  153.5161 H   0  0  0  0  0  0  0  0  0  0  0  0
  149.5132  142.2601  157.2982 H   0  0  0  0  0  0  0  0  0  0  0  0
  149.0965  144.4338  158.4682 H   0  0  0  0  0  0  0  0  0  0  0  0
  150.7252  145.3041  160.1324 H   0  0  0  0  0  0  0  0  0  0  0  0
  152.8083  144.0173  160.6654 H   0  0  0  0  0  0  0  0  0  0  0  0
  149.3007  139.2061  155.3414 H   0  0  0  0  0  0  0  0  0  0  0  0
  1  2  1  0  0  0  0
  1 25  1  0  0  0  0
  1 26  1  0  0  0  0
  1 27  1  0  0  0  0
  2  3  1  0  0  0  0
  2 28  1  0  0  0  0
  2 29  1  0  0  0  0
  3 24  1  0  0  0  0
  3  4  1  0  0  0  0
  4  5  2  0  0  0  0
  4  6  1  0  0  0  0
  6  7  1  0  0  0  0
  6 19  1  0  0  0  0
  7  8  1  0  0  0  0
  7 30  1  0  0  0  0
  7 31  1  0  0  0  0
  8  9  1  0  0  0  0
  8 10  1  0  0  0  0
  8 32  1  0  0  0  0
  9 33  1  0  0  0  0
 10 11  1  0  0  0  0
 10 34  1  0  0  0  0
 10 35  1  0  0  0  0
 11 18  1  0  0  0  0
 11 12  1  0  0  0  0
 11 52  1  0  0  0  0
 12 13  1  0  0  0  0
 12 36  1  0  0  0  0
 12 37  1  0  0  0  0
 13 14  1  0  0  0  0
 13 15  1  0  0  0  0
 13 38  1  0  0  0  0
 14 39  1  0  0  0  0
 14 40  1  0  0  0  0
 14 41  1  0  0  0  0
 15 16  1  0  0  0  0
 16 17  1  0  0  0  0
 16 18  1  0  0  0  0
 16 42  1  0  0  0  0
 17 43  1  0  0  0  0
 17 44  1  0  0  0  0
 17 45  1  0  0  0  0
 18 46  1  0  0  0  0
 18 47  1  0  0  0  0
 19 24  2  0  0  0  0
 19 20  1  0  0  0  0
 20 21  2  0  0  0  0
 20 48  1  0  0  0  0
 21 22  1  0  0  0  0
 21 49  1  0  0  0  0
 22 23  2  0  0  0  0
 22 50  1  0  0  0  0
 23 24  1  0  0  0  0
 23 51  1  0  0  0  0
M  CHG  1  11   1
M  END
> <s_m_source_file>
AV-unprocessed.smi

> <i_m_source_file_index>
1570

> <i_lp_mmshare_version>
43012

> <i_f3d_flags>
0

> <s_epik_input>
W2NIXTFbY0hdW2NIXVtjSF1jKGMxMiluKFtDSDJdW0NIM10pYyg9TyluMltDSDJdW0NASF0oW09IXSlbQ0gyXU4zW0NIMl1bQ0BASF0oW0NIM10pT1tDQEBIXShbQ0gzXSlbQ0gyXTM=

> <s_epik_cmdline>
J2VwaWtfcHl0aG9uJywgJy1waCcsICc3LjAnLCAnLXRuJywgJzgnLCAnLW1hJywgJzIwMCcsICctbWV0YWxfYmluZGluZycsICctaW1hZScsICc8aW5maWxlLm1hZT4nLCAnLW9tYWUnLCAnPG91dGZpbGUubWFlPic=

> <r_epik_Ionization_Penalty>
0.706332

> <r_epik_Ionization_Penalty_Charging>
0.706318

> <r_epik_Ionization_Penalty_Neutral>
1.42224e-05

> <r_epik_State_Penalty>
0.729493

> <r_epik_Charging_Adjusted_Penalty>
1.43581

> <i_epik_Tot_Q>
1

> <i_epik_Tot_abs_Q>
1

> <r_epik_Metal_State_Penalty>
0.729493

> <b_epik_Metal_Only>
0

> <s_lp_Force_Field>
OPLS_2005

> <r_lp_Energy>
52.3817

> <b_lp_Chiralities_Consistent>
1

> <s_lp_Variant>
AV-unprocessed.smi:1570-8

> <Gold.Version>
5.8.1

> <Gold.Id.Protein>
6NUR|6NUR_protein|mol2

> <Gold.PLP.Fitness>
49.2296

> <Gold.PLP.PLP>
-45.4222

> <Gold.PLP.part.hbond>
-2.0000

> <Gold.PLP.part.metal>
0.0000

> <Gold.PLP.part.buried>
4.2338

> <Gold.PLP.part.nonpolar>
-46.1885

> <Gold.PLP.part.repulsive>
0.2497

> <Gold.PLP.ligand.clash>
0.0000

> <Gold.PLP.ligand.torsion>
0.3581

> <Gold.PLP.Chemscore.Hbond>
1.4810

> <Gold.PLP.Chemscore.CHOScore>
0.0000

> <Gold.PLP.Chemscore.Metal>
0.0000

> <Gold.Chemscore.Hbonds>
donor molecule, donor type, donor heavy atom, donor atom, acceptor molecule, acceptor atom, score
      P1  H  7997  8009       L1     5  0.66
      P1  H  7997  8010       L1     9  0.89

> <Gold.PLP.Chemscore.Internal.Correction>
0.0804

> <Gold.Rescore>
     Score         DG    S(hbond)    S(metal)    S(lipo)     H(rot)  DE(clash)    DE(int)     intcor
     14.96     -18.92       0.84        0.00     137.47       2.13       3.51       0.45       ----

> <Gold.Chemscore.Fitness>
14.9610

> <Gold.Chemscore.DG>
-18.9158

> <Gold.Chemscore.ZeroCoef>
-5.4800

> <Gold.Chemscore.Hbond>
0.8399

> <Gold.Chemscore.Metal>
0.0000

> <Gold.Chemscore.Lipo>
137.4721

> <Gold.Chemscore.Internal_Hbond>
0.0000

> <Gold.Chemscore.DEClash>
3.5057

> <Gold.Chemscore.DEInternal>
0.4491

> <Gold.Chemscore.Rot>
2.1303

> <Gold.Chemscore.Internal.Correction>
   9.000000E+99

> <Gold.Chemscore.Hbonds>
donor molecule, donor type, donor heavy atom, donor atom, acceptor molecule, acceptor atom, score
      P1  H  7997  8009       L1     5  0.32
      P1  H  7997  8010       L1     9  0.22

> <Gold.Chemscore.Hbond.Weighted>
-2.8051

> <Gold.Chemscore.Metal.Weighted>
-0.0000

> <Gold.Chemscore.Lipo.Weighted>
-16.0842

> <Gold.Chemscore.Internal_Hbond.Weighted>
0.0000

> <Gold.Chemscore.DEClash.Weighted>
3.5057

> <Gold.Chemscore.DEInternal.Weighted>
0.4491

> <Gold.Chemscore.Rot.Weighted>
5.4535

> <Gold.Chemscore.Internal.Correction.Weighted>
   9.000000E+99

> <Gold.Protein.RotatedTorsions>
[ 6907 6896 6895 6894 ] final   28.20 input  -60.11 | X-H torsion
[ 7974 7965 7964 7962 ] final -119.11 input  175.53 | X-H torsion
[ 8008 7997 7996 7995 ] final  111.59 input   59.86 | X-H torsion
[ 10167 10162 10161 10158 ] final   94.77 input  -65.29 | X-H torsion
[ 10718 10713 10712 10709 ] final  -95.32 input   66.30 | X-H torsion
[ 10763 10752 10751 10750 ] final   -4.38 input  -60.55 | X-H torsion
[ 11005 11000 10999 10996 ] final   85.50 input  -57.11 | X-H torsion

> <Gold.Protein.ActiveResidues>
 VAL166  LYS551  ARG553  GLY616  TRP617  ASP618  TYR619  PRO620  LYS621  CYS622 
 ASP623  PHE694  ASN695  SER759  ASP760  ASP761  ALA762  ILE779  LEU786  VAL792 
 PHE793  MET794  SER795  GLU796  ALA797  LYS798  CYS799  TRP800  GLU811  SER814 

> <Gold.Protein.RotatedAtoms>
  152.0135  134.9863  160.0568 H   0  0  0  0  0  0  0  0  0  0  0  0  # atno 6907 bound_to 6896
  152.1406  133.4457  159.4773 H   0  0  0  0  0  0  0  0  0  0  0  0  # atno 6908 bound_to 6896
  150.6865  134.2228  159.4446 H   0  0  0  0  0  0  0  0  0  0  0  0  # atno 6909 bound_to 6896
  145.0662  140.8326  143.4123 H   0  0  0  0  0  0  0  0  0  0  0  0  # atno 7974 bound_to 7965
  156.2134  140.3016  155.9785 H   0  0  0  0  0  0  0  0  0  0  0  0  # atno 8008 bound_to 7997
  155.2665  140.0432  157.3020 H   0  0  0  0  0  0  0  0  0  0  0  0  # atno 8009 bound_to 7997
  154.5733  140.2354  155.8168 H   0  0  0  0  0  0  0  0  0  0  0  0  # atno 8010 bound_to 7997
  139.8051  144.6797  150.9713 H   0  0  0  0  0  0  0  0  0  0  0  0  # atno 10167 bound_to 10162
  156.0041  130.5104  150.6059 H   0  0  0  0  0  0  0  0  0  0  0  0  # atno 10718 bound_to 10713
  153.3841  135.6999  153.6543 H   0  0  0  0  0  0  0  0  0  0  0  0  # atno 10763 bound_to 10752
  153.5143  135.3625  155.2602 H   0  0  0  0  0  0  0  0  0  0  0  0  # atno 10764 bound_to 10752
  154.8696  135.4142  154.3145 H   0  0  0  0  0  0  0  0  0  0  0  0  # atno 10765 bound_to 10752
  139.8970  134.8291  156.2592 H   0  0  0  0  0  0  0  0  0  0  0  0  # atno 11005 bound_to 11000
  145.1348  139.2609  143.5520 LP  0  0  0  0  0  0  0  0  0  0  0  0  # atno 17320 bound_to 7965
  146.3527  140.1009  142.8608 LP  0  0  0  0  0  0  0  0  0  0  0  0  # atno 17321 bound_to 7965
  140.7819  143.4241  151.0795 LP  0  0  0  0  0  0  0  0  0  0  0  0  # atno 17342 bound_to 10162
  139.7911  143.8217  152.3152 LP  0  0  0  0  0  0  0  0  0  0  0  0  # atno 17343 bound_to 10162
  157.3900  131.0794  151.1402 LP  0  0  0  0  0  0  0  0  0  0  0  0  # atno 17370 bound_to 10713
  157.2097  130.6432  149.5769 LP  0  0  0  0  0  0  0  0  0  0  0  0  # atno 17371 bound_to 10713
  141.0174  133.7061  156.1211 LP  0  0  0  0  0  0  0  0  0  0  0  0  # atno 17394 bound_to 11000
  140.7282  134.4283  157.5568 LP  0  0  0  0  0  0  0  0  0  0  0  0  # atno 17395 bound_to 11000

$$$$
