AV-unprocessed.smi:906|AV-procd|sdf|4102|dock3
  -GOLD-   22720 1593D 1   1.00000     0.00000
 Structure written by MMmdl.
 48 49  0  0  0  0  0  0  0  0  2 V2000
  150.8456  145.2050  158.8465 C   0  0  0  0  0  0  0  0  0  0  0  0
  151.6700  144.2909  159.7275 C   0  0  0  0  0  0  0  0  0  0  0  0
  152.4407  143.2312  159.2031 C   0  0  0  0  0  0  0  0  0  0  0  0
  153.1799  142.4160  160.0848 C   0  0  0  0  0  0  0  0  0  0  0  0
  153.1334  142.6755  161.4724 C   0  0  0  0  0  0  0  0  0  0  0  0
  153.8870  141.7946  162.4537 C   0  0  0  0  0  0  0  0  0  0  0  0
  154.6903  140.6656  161.7788 C   0  0  0  0  0  0  0  0  0  0  0  0
  154.9559  139.5513  162.6861 N   0  0  0  0  0  0  0  0  0  0  0  0
  156.1660  139.0394  162.9725 C   0  0  0  0  0  0  0  0  0  0  0  0
  157.2025  139.4892  162.4815 O   0  0  0  0  0  0  0  0  0  0  0  0
  156.1537  138.0495  163.8981 N   0  0  0  0  0  0  0  0  0  0  0  0
  154.9678  137.4714  164.5464 C   0  0  0  0  0  0  0  0  0  0  0  0
  154.7348  136.0554  163.9847 C   0  0  0  0  0  0  0  0  0  0  0  0
  155.9170  135.2160  164.2242 N   0  0  0  0  0  0  0  0  0  0  0  0
  155.7676  133.8014  163.8420 C   0  0  2  0  0  0  0  0  0  0  0  0
  155.0397  133.5916  162.4958 C   0  0  0  0  0  0  0  0  0  0  0  0
  155.1512  132.9567  164.9831 C   0  0  0  0  0  0  0  0  0  0  0  0
  156.0090  132.8574  165.9994 F   0  0  0  0  0  0  0  0  0  0  0  0
  154.0058  133.4710  165.4307 F   0  0  0  0  0  0  0  0  0  0  0  0
  154.9051  131.7272  164.5307 F   0  0  0  0  0  0  0  0  0  0  0  0
  157.1144  135.8174  163.6245 C   0  0  0  0  0  0  0  0  0  0  0  0
  157.3337  137.2323  164.1922 C   0  0  0  0  0  0  0  0  0  0  0  0
  152.3509  143.7540  161.9380 C   0  0  0  0  0  0  0  0  0  0  0  0
  151.6558  144.5105  161.0614 N   0  3  0  0  0  0  0  0  0  0  0  0
  150.8971  144.8953  157.8021 H   0  0  0  0  0  0  0  0  0  0  0  0
  151.2101  146.2303  158.9163 H   0  0  0  0  0  0  0  0  0  0  0  0
  149.7998  145.1885  159.1543 H   0  0  0  0  0  0  0  0  0  0  0  0
  152.4630  143.0399  158.1401 H   0  0  0  0  0  0  0  0  0  0  0  0
  153.7650  141.5938  159.6988 H   0  0  0  0  0  0  0  0  0  0  0  0
  154.5569  142.4141  163.0517 H   0  0  0  0  0  0  0  0  0  0  0  0
  153.1699  141.3637  163.1533 H   0  0  0  0  0  0  0  0  0  0  0  0
  154.1277  140.2789  160.9289 H   0  0  0  0  0  0  0  0  0  0  0  0
  155.6227  141.0576  161.3688 H   0  0  0  0  0  0  0  0  0  0  0  0
  154.1552  139.1392  163.1431 H   0  0  0  0  0  0  0  0  0  0  0  0
  155.1323  137.4256  165.6241 H   0  0  0  0  0  0  0  0  0  0  0  0
  154.0619  138.0625  164.4145 H   0  0  0  0  0  0  0  0  0  0  0  0
  153.8581  135.6286  164.4672 H   0  0  0  0  0  0  0  0  0  0  0  0
  154.5199  136.1173  162.9174 H   0  0  0  0  0  0  0  0  0  0  0  0
  156.7814  133.4178  163.7188 H   0  0  0  0  0  0  0  0  0  0  0  0
  155.0591  132.5396  162.2110 H   0  0  0  0  0  0  0  0  0  0  0  0
  155.5076  134.1476  161.6842 H   0  0  0  0  0  0  0  0  0  0  0  0
  153.9923  133.8886  162.5476 H   0  0  0  0  0  0  0  0  0  0  0  0
  157.9877  135.2028  163.8452 H   0  0  0  0  0  0  0  0  0  0  0  0
  157.0187  135.8649  162.5394 H   0  0  0  0  0  0  0  0  0  0  0  0
  158.2507  137.6582  163.7830 H   0  0  0  0  0  0  0  0  0  0  0  0
  157.4853  137.1877  165.2718 H   0  0  0  0  0  0  0  0  0  0  0  0
  152.2484  144.0230  162.9792 H   0  0  0  0  0  0  0  0  0  0  0  0
  151.0905  145.2789  161.4231 H   0  0  0  0  0  0  0  0  0  0  0  0
  1  2  1  0  0  0  0
  1 25  1  0  0  0  0
  1 26  1  0  0  0  0
  1 27  1  0  0  0  0
  2 24  1  0  0  0  0
  2  3  2  0  0  0  0
  3  4  1  0  0  0  0
  3 28  1  0  0  0  0
  4  5  2  0  0  0  0
  4 29  1  0  0  0  0
  5  6  1  0  0  0  0
  5 23  1  0  0  0  0
  6  7  1  0  0  0  0
  6 30  1  0  0  0  0
  6 31  1  0  0  0  0
  7  8  1  0  0  0  0
  7 32  1  0  0  0  0
  7 33  1  0  0  0  0
  8  9  1  0  0  0  0
  8 34  1  0  0  0  0
  9 10  2  0  0  0  0
  9 11  1  0  0  0  0
 11 22  1  0  0  0  0
 11 12  1  0  0  0  0
 12 13  1  0  0  0  0
 12 35  1  0  0  0  0
 12 36  1  0  0  0  0
 13 14  1  0  0  0  0
 13 37  1  0  0  0  0
 13 38  1  0  0  0  0
 14 15  1  0  0  0  0
 14 21  1  0  0  0  0
 15 16  1  0  0  0  0
 15 17  1  0  0  0  0
 15 39  1  0  0  0  0
 16 40  1  0  0  0  0
 16 41  1  0  0  0  0
 16 42  1  0  0  0  0
 17 18  1  0  0  0  0
 17 19  1  0  0  0  0
 17 20  1  0  0  0  0
 21 22  1  0  0  0  0
 21 43  1  0  0  0  0
 21 44  1  0  0  0  0
 22 45  1  0  0  0  0
 22 46  1  0  0  0  0
 23 24  2  0  0  0  0
 23 47  1  0  0  0  0
 24 48  1  0  0  0  0
M  CHG  1  24   1
M  END
> <s_m_source_file>
AV-unprocessed.smi

> <i_m_source_file_index>
906

> <i_lp_mmshare_version>
43012

> <i_f3d_flags>
0

> <s_epik_input>
W0NIM11jMVtjSF1bY0hdYyhbY0hdbjEpW0NIMl1bQ0gyXVtOSF1DKD1PKU4yW0NIMl1bQ0gyXU4oW0NASF0oW0NIM10pQyhGKShGKUYpW0NIMl1bQ0gyXTI=

> <s_epik_cmdline>
J2VwaWtfcHl0aG9uJywgJy1waCcsICc3LjAnLCAnLXRuJywgJzgnLCAnLW1hJywgJzIwMCcsICctbWV0YWxfYmluZGluZycsICctaW1hZScsICc8aW5maWxlLm1hZT4nLCAnLW9tYWUnLCAnPG91dGZpbGUubWFlPic=

> <r_epik_Ionization_Penalty>
1.4413

> <r_epik_Ionization_Penalty_Charging>
1.42075

> <r_epik_Ionization_Penalty_Neutral>
0.0205507

> <r_epik_State_Penalty>
1.52216

> <r_epik_Charging_Adjusted_Penalty>
2.94291

> <i_epik_Tot_Q>
1

> <i_epik_Tot_abs_Q>
1

> <r_epik_Metal_State_Penalty>
1.57308

> <b_epik_Metal_Only>
0

> <s_lp_Force_Field>
OPLS_2005

> <r_lp_Energy>
52.9553

> <b_lp_Chiralities_Consistent>
1

> <s_lp_Variant>
AV-unprocessed.smi:906-3

> <Gold.Version>
5.8.1

> <Gold.Id.Protein>
6NUR|6NUR_protein|mol2

> <Gold.PLP.Fitness>
49.0345

> <Gold.PLP.PLP>
-50.3244

> <Gold.PLP.part.hbond>
-0.3755

> <Gold.PLP.part.metal>
0.0000

> <Gold.PLP.part.buried>
-3.8948

> <Gold.PLP.part.nonpolar>
-45.4281

> <Gold.PLP.part.repulsive>
0.1555

> <Gold.PLP.ligand.clash>
0.0000

> <Gold.PLP.ligand.torsion>
1.0183

> <Gold.PLP.Chemscore.Hbond>
0.0000

> <Gold.PLP.Chemscore.CHOScore>
0.0000

> <Gold.PLP.Chemscore.Metal>
0.0000

> <Gold.PLP.Chemscore.Internal.Correction>
0.7468

> <Gold.Rescore>
     Score         DG    S(hbond)    S(metal)    S(lipo)     H(rot)  DE(clash)    DE(int)     intcor
     15.61     -16.42       0.00        0.00     129.72       1.66       0.05       0.75       ----

> <Gold.Chemscore.Fitness>
15.6107

> <Gold.Chemscore.DG>
-16.4192

> <Gold.Chemscore.ZeroCoef>
-5.4800

> <Gold.Chemscore.Hbond>
0.0000

> <Gold.Chemscore.Metal>
0.0000

> <Gold.Chemscore.Lipo>
129.7164

> <Gold.Chemscore.Internal_Hbond>
0.0000

> <Gold.Chemscore.DEClash>
0.0543

> <Gold.Chemscore.DEInternal>
0.7543

> <Gold.Chemscore.Rot>
1.6553

> <Gold.Chemscore.Internal.Correction>
   9.000000E+99

> <Gold.Chemscore.Hbond.Weighted>
-0.0000

> <Gold.Chemscore.Metal.Weighted>
-0.0000

> <Gold.Chemscore.Lipo.Weighted>
-15.1768

> <Gold.Chemscore.Internal_Hbond.Weighted>
0.0000

> <Gold.Chemscore.DEClash.Weighted>
0.0543

> <Gold.Chemscore.DEInternal.Weighted>
0.7543

> <Gold.Chemscore.Rot.Weighted>
4.2376

> <Gold.Chemscore.Internal.Correction.Weighted>
   9.000000E+99

> <Gold.Protein.RotatedTorsions>
[ 6907 6896 6895 6894 ] final  153.52 input  -60.11 | X-H torsion
[ 7974 7965 7964 7962 ] final   21.47 input  175.53 | X-H torsion
[ 8008 7997 7996 7995 ] final  157.49 input   59.86 | X-H torsion
[ 10167 10162 10161 10158 ] final  -31.71 input  -65.29 | X-H torsion
[ 10718 10713 10712 10709 ] final -109.54 input   66.30 | X-H torsion
[ 10763 10752 10751 10750 ] final   61.60 input  -60.55 | X-H torsion
[ 11005 11000 10999 10996 ] final -100.98 input  -57.11 | X-H torsion

> <Gold.Protein.ActiveResidues>
 VAL166  LYS551  ARG553  GLY616  TRP617  ASP618  TYR619  PRO620  LYS621  CYS622 
 ASP623  PHE694  ASN695  SER759  ASP760  ASP761  ALA762  ILE779  LEU786  VAL792 
 PHE793  MET794  SER795  GLU796  ALA797  LYS798  CYS799  TRP800  GLU811  SER814 

> <Gold.Protein.RotatedAtoms>
  152.0716  133.4109  159.4461 H   0  0  0  0  0  0  0  0  0  0  0  0  # atno 6907 bound_to 6896
  150.6863  134.3085  159.4745 H   0  0  0  0  0  0  0  0  0  0  0  0  # atno 6908 bound_to 6896
  152.0918  134.9402  160.0622 H   0  0  0  0  0  0  0  0  0  0  0  0  # atno 6909 bound_to 6896
  146.2070  139.8023  142.8718 H   0  0  0  0  0  0  0  0  0  0  0  0  # atno 7974 bound_to 7965
  156.2361  140.1884  156.7116 H   0  0  0  0  0  0  0  0  0  0  0  0  # atno 8008 bound_to 7997
  154.6109  140.0622  156.9519 H   0  0  0  0  0  0  0  0  0  0  0  0  # atno 8009 bound_to 7997
  155.2018  140.3293  155.4344 H   0  0  0  0  0  0  0  0  0  0  0  0  # atno 8010 bound_to 7997
  140.7232  143.3750  151.1706 H   0  0  0  0  0  0  0  0  0  0  0  0  # atno 10167 bound_to 10162
  156.0543  130.5769  150.8114 H   0  0  0  0  0  0  0  0  0  0  0  0  # atno 10718 bound_to 10713
  152.9956  135.5495  154.6060 H   0  0  0  0  0  0  0  0  0  0  0  0  # atno 10763 bound_to 10752
  154.5391  135.2818  155.1114 H   0  0  0  0  0  0  0  0  0  0  0  0  # atno 10764 bound_to 10752
  154.2398  135.6418  153.5256 H   0  0  0  0  0  0  0  0  0  0  0  0  # atno 10765 bound_to 10752
  141.1249  133.8442  157.1173 H   0  0  0  0  0  0  0  0  0  0  0  0  # atno 11005 bound_to 11000
  145.3283  141.0260  143.3461 LP  0  0  0  0  0  0  0  0  0  0  0  0  # atno 17320 bound_to 7965
  144.8817  139.4895  143.6720 LP  0  0  0  0  0  0  0  0  0  0  0  0  # atno 17321 bound_to 7965
  139.7329  143.9045  152.3025 LP  0  0  0  0  0  0  0  0  0  0  0  0  # atno 17342 bound_to 10162
  139.8840  144.7002  150.8845 LP  0  0  0  0  0  0  0  0  0  0  0  0  # atno 17343 bound_to 10162
  157.5498  131.0943  150.9712 LP  0  0  0  0  0  0  0  0  0  0  0  0  # atno 17370 bound_to 10713
  156.9974  130.5587  149.5308 LP  0  0  0  0  0  0  0  0  0  0  0  0  # atno 17371 bound_to 10713
  140.0238  134.9933  157.0645 LP  0  0  0  0  0  0  0  0  0  0  0  0  # atno 17394 bound_to 11000
  140.4396  134.1695  155.7173 LP  0  0  0  0  0  0  0  0  0  0  0  0  # atno 17395 bound_to 11000

$$$$
