AV-unprocessed.smi:1788|AV-procd|sdf|7213|dock3
  -GOLD-   22720 8453D 1   1.00000     0.00000
 Structure written by MMmdl.
 55 57  0  0  0  0  0  0  0  0  2 V2000
  147.4530  132.4761  153.9137 C   0  0  0  0  0  0  0  0  0  0  0  0
  147.1135  133.4768  152.8003 C   0  0  1  0  0  0  0  0  0  0  0  0
  146.2056  132.8421  151.7338 C   0  0  0  0  0  0  0  0  0  0  0  0
  145.8616  133.8700  150.6487 C   0  0  0  0  0  0  0  0  0  0  0  0
  145.2427  135.1346  151.2653 C   0  0  0  0  0  0  0  0  0  0  0  0
  146.1427  135.7277  152.2883 N   0  3  1  0  0  0  0  0  0  0  0  0
  145.6297  137.0222  152.8037 C   0  0  0  0  0  0  0  0  0  0  0  0
  146.1184  138.2225  151.9687 C   0  0  0  0  0  0  0  0  0  0  0  0
  147.4293  138.6863  152.4084 N   0  0  0  0  0  0  0  0  0  0  0  0
  147.6730  139.3030  153.5737 C   0  0  0  0  0  0  0  0  0  0  0  0
  146.7930  139.5624  154.3935 O   0  0  0  0  0  0  0  0  0  0  0  0
  148.9784  139.5973  153.7025 N   0  0  0  0  0  0  0  0  0  0  0  0
  149.6603  140.2307  154.7786 C   0  0  0  0  0  0  0  0  0  0  0  0
  150.9534  139.8849  155.2366 C   0  0  0  0  0  0  0  0  0  0  0  0
  151.5143  140.6067  156.3078 C   0  0  0  0  0  0  0  0  0  0  0  0
  150.7779  141.6614  156.8965 C   0  0  0  0  0  0  0  0  0  0  0  0
  151.3220  142.3982  157.9716 N   0  0  0  0  0  0  0  0  0  0  0  0
  151.5832  143.8219  157.7655 C   0  0  0  0  0  0  0  0  0  0  0  0
  151.8836  144.5123  159.1066 C   0  0  0  0  0  0  0  0  0  0  0  0
  152.9599  143.8460  159.7578 O   0  0  0  0  0  0  0  0  0  0  0  0
  152.6426  142.4893  160.0497 C   0  0  0  0  0  0  0  0  0  0  0  0
  152.3636  141.7249  158.7439 C   0  0  0  0  0  0  0  0  0  0  0  0
  149.5391  141.9892  156.4548 N   0  0  0  0  0  0  0  0  0  0  0  0
  149.0059  141.2966  155.4275 C   0  0  0  0  0  0  0  0  0  0  0  0
  146.4586  134.7525  153.3670 C   0  0  0  0  0  0  0  0  0  0  0  0
  146.5557  132.1484  154.4395 H   0  0  0  0  0  0  0  0  0  0  0  0
  148.1267  132.9180  154.6484 H   0  0  0  0  0  0  0  0  0  0  0  0
  147.9436  131.5903  153.5092 H   0  0  0  0  0  0  0  0  0  0  0  0
  148.0506  133.7637  152.3202 H   0  0  0  0  0  0  0  0  0  0  0  0
  146.6956  131.9778  151.2840 H   0  0  0  0  0  0  0  0  0  0  0  0
  145.2877  132.4753  152.1956 H   0  0  0  0  0  0  0  0  0  0  0  0
  146.7633  134.1349  150.0950 H   0  0  0  0  0  0  0  0  0  0  0  0
  145.1725  133.4316  149.9262 H   0  0  0  0  0  0  0  0  0  0  0  0
  145.0531  135.8600  150.4731 H   0  0  0  0  0  0  0  0  0  0  0  0
  144.2784  134.8999  151.7192 H   0  0  0  0  0  0  0  0  0  0  0  0
  144.5392  137.0159  152.7731 H   0  0  0  0  0  0  0  0  0  0  0  0
  145.9061  137.1306  153.8537 H   0  0  0  0  0  0  0  0  0  0  0  0
  146.1668  137.9817  150.9064 H   0  0  0  0  0  0  0  0  0  0  0  0
  145.4169  139.0514  152.0658 H   0  0  0  0  0  0  0  0  0  0  0  0
  148.2083  138.5108  151.7903 H   0  0  0  0  0  0  0  0  0  0  0  0
  149.5627  139.3525  152.9163 H   0  0  0  0  0  0  0  0  0  0  0  0
  151.5337  139.0911  154.7950 H   0  0  0  0  0  0  0  0  0  0  0  0
  152.4938  140.3331  156.6703 H   0  0  0  0  0  0  0  0  0  0  0  0
  152.4302  143.9385  157.0879 H   0  0  0  0  0  0  0  0  0  0  0  0
  150.7221  144.3019  157.2986 H   0  0  0  0  0  0  0  0  0  0  0  0
  152.1597  145.5534  158.9390 H   0  0  0  0  0  0  0  0  0  0  0  0
  151.0013  144.5162  159.7488 H   0  0  0  0  0  0  0  0  0  0  0  0
  153.4812  142.0353  160.5779 H   0  0  0  0  0  0  0  0  0  0  0  0
  151.7821  142.4418  160.7191 H   0  0  0  0  0  0  0  0  0  0  0  0
  152.0898  140.6998  158.9884 H   0  0  0  0  0  0  0  0  0  0  0  0
  153.2708  141.6752  158.1402 H   0  0  0  0  0  0  0  0  0  0  0  0
  148.0192  141.6059  155.1146 H   0  0  0  0  0  0  0  0  0  0  0  0
  145.5443  134.4996  153.9068 H   0  0  0  0  0  0  0  0  0  0  0  0
  147.1350  135.2023  154.0928 H   0  0  0  0  0  0  0  0  0  0  0  0
  147.0099  135.9330  151.8127 H   0  0  0  0  0  0  0  0  0  0  0  0
  1  2  1  0  0  0  0
  1 26  1  0  0  0  0
  1 27  1  0  0  0  0
  1 28  1  0  0  0  0
  2 25  1  0  0  0  0
  2  3  1  0  0  0  0
  2 29  1  0  0  0  0
  3  4  1  0  0  0  0
  3 30  1  0  0  0  0
  3 31  1  0  0  0  0
  4  5  1  0  0  0  0
  4 32  1  0  0  0  0
  4 33  1  0  0  0  0
  5  6  1  0  0  0  0
  5 34  1  0  0  0  0
  5 35  1  0  0  0  0
  6  7  1  0  0  0  0
  6 25  1  0  0  0  0
  6 55  1  0  0  0  0
  7  8  1  0  0  0  0
  7 36  1  0  0  0  0
  7 37  1  0  0  0  0
  8  9  1  0  0  0  0
  8 38  1  0  0  0  0
  8 39  1  0  0  0  0
  9 10  1  0  0  0  0
  9 40  1  0  0  0  0
 10 11  2  0  0  0  0
 10 12  1  0  0  0  0
 12 13  1  0  0  0  0
 12 41  1  0  0  0  0
 13 24  1  0  0  0  0
 13 14  2  0  0  0  0
 14 15  1  0  0  0  0
 14 42  1  0  0  0  0
 15 16  2  0  0  0  0
 15 43  1  0  0  0  0
 16 17  1  0  0  0  0
 16 23  1  0  0  0  0
 17 22  1  0  0  0  0
 17 18  1  0  0  0  0
 18 19  1  0  0  0  0
 18 44  1  0  0  0  0
 18 45  1  0  0  0  0
 19 20  1  0  0  0  0
 19 46  1  0  0  0  0
 19 47  1  0  0  0  0
 20 21  1  0  0  0  0
 21 22  1  0  0  0  0
 21 48  1  0  0  0  0
 21 49  1  0  0  0  0
 22 50  1  0  0  0  0
 22 51  1  0  0  0  0
 23 24  2  0  0  0  0
 24 52  1  0  0  0  0
 25 53  1  0  0  0  0
 25 54  1  0  0  0  0
M  CHG  1   6   1
M  END
> <s_m_source_file>
AV-unprocessed.smi

> <i_m_source_file_index>
1788

> <i_lp_mmshare_version>
43012

> <i_f3d_flags>
0

> <s_epik_input>
W0NIM11bQ0BASF0xW0NIMl1bQ0gyXVtDSDJdTihbQ0gyXTEpW0NIMl1bQ0gyXVtOSF1DKD1PKVtOSF1jMltjSF1bY0hdYyhuW2NIXTIpTjNbQ0gyXVtDSDJdT1tDSDJdW0NIMl0z

> <s_epik_cmdline>
J2VwaWtfcHl0aG9uJywgJy1waCcsICc3LjAnLCAnLXRuJywgJzgnLCAnLW1hJywgJzIwMCcsICctbWV0YWxfYmluZGluZycsICctaW1hZScsICc8aW5maWxlLm1hZT4nLCAnLW9tYWUnLCAnPG91dGZpbGUubWFlPic=

> <r_lp_tautomer_probability>
1

> <r_epik_Ionization_Penalty>
0.00340126

> <r_epik_Ionization_Penalty_Charging>
0.00171832

> <r_epik_Ionization_Penalty_Neutral>
0.00168294

> <r_epik_State_Penalty>
-0

> <r_epik_Charging_Adjusted_Penalty>
0.00171832

> <i_epik_Tot_Q>
1

> <i_epik_Tot_abs_Q>
1

> <r_epik_Metal_State_Penalty>
-0

> <b_epik_Metal_Only>
0

> <s_lp_Force_Field>
OPLS_2005

> <r_lp_Energy>
34.4498

> <b_lp_Chiralities_Consistent>
1

> <s_lp_Variant>
AV-unprocessed.smi:1788-4

> <Gold.Version>
5.8.1

> <Gold.Id.Protein>
6NUR|6NUR_protein|mol2

> <Gold.PLP.Fitness>
54.7488

> <Gold.PLP.PLP>
-47.8349

> <Gold.PLP.part.hbond>
-4.0000

> <Gold.PLP.part.metal>
0.0000

> <Gold.PLP.part.buried>
-2.3742

> <Gold.PLP.part.nonpolar>
-42.7537

> <Gold.PLP.part.repulsive>
1.8419

> <Gold.PLP.ligand.clash>
0.0000

> <Gold.PLP.ligand.torsion>
1.2410

> <Gold.PLP.Chemscore.Hbond>
2.9968

> <Gold.PLP.Chemscore.CHOScore>
0.0000

> <Gold.PLP.Chemscore.Metal>
0.0000

> <Gold.Chemscore.Hbonds>
donor molecule, donor type, donor heavy atom, donor atom, acceptor molecule, acceptor atom, score
      L1  H     6    55       P1  7948  2.00
      L1  H     9    40       P1  7957  0.37
      L1  H    12    41       P1  7957  0.62

> <Gold.PLP.Chemscore.Internal.Correction>
0.4056

> <Gold.Rescore>
     Score         DG    S(hbond)    S(metal)    S(lipo)     H(rot)  DE(clash)    DE(int)     intcor
     19.39     -22.14       2.33        0.00     110.66       1.60       0.54       2.20       ----

> <Gold.Chemscore.Fitness>
19.3947

> <Gold.Chemscore.DG>
-22.1352

> <Gold.Chemscore.ZeroCoef>
-5.4800

> <Gold.Chemscore.Hbond>
2.3347

> <Gold.Chemscore.Metal>
0.0000

> <Gold.Chemscore.Lipo>
110.6603

> <Gold.Chemscore.Internal_Hbond>
0.0000

> <Gold.Chemscore.DEClash>
0.5356

> <Gold.Chemscore.DEInternal>
2.2048

> <Gold.Chemscore.Rot>
1.5976

> <Gold.Chemscore.Internal.Correction>
   9.000000E+99

> <Gold.Chemscore.Hbonds>
donor molecule, donor type, donor heavy atom, donor atom, acceptor molecule, acceptor atom, score
      L1  H     6    55       P1  7948  0.96
      L1  H     9    40       P1  7957  0.23
      L1  H    12    41       P1  7957  0.62

> <Gold.Chemscore.Hbond.Weighted>
-7.7979

> <Gold.Chemscore.Metal.Weighted>
-0.0000

> <Gold.Chemscore.Lipo.Weighted>
-12.9473

> <Gold.Chemscore.Internal_Hbond.Weighted>
0.0000

> <Gold.Chemscore.DEClash.Weighted>
0.5356

> <Gold.Chemscore.DEInternal.Weighted>
2.2048

> <Gold.Chemscore.Rot.Weighted>
4.0899

> <Gold.Chemscore.Internal.Correction.Weighted>
   9.000000E+99

> <Gold.Protein.RotatedTorsions>
[ 6907 6896 6895 6894 ] final  -33.86 input  -60.11 | X-H torsion
[ 7974 7965 7964 7962 ] final  129.53 input  175.53 | X-H torsion
[ 8008 7997 7996 7995 ] final    4.83 input   59.86 | X-H torsion
[ 10167 10162 10161 10158 ] final  -58.41 input  -65.29 | X-H torsion
[ 10718 10713 10712 10709 ] final  -73.82 input   66.30 | X-H torsion
[ 10763 10752 10751 10750 ] final   26.80 input  -60.55 | X-H torsion
[ 11005 11000 10999 10996 ] final -131.58 input  -57.11 | X-H torsion

> <Gold.Protein.ActiveResidues>
 VAL166  LYS551  ARG553  GLY616  TRP617  ASP618  TYR619  PRO620  LYS621  CYS622 
 ASP623  PHE694  ASN695  SER759  ASP760  ASP761  ALA762  ILE779  LEU786  VAL792 
 PHE793  MET794  SER795  GLU796  ALA797  LYS798  CYS799  TRP800  GLU811  SER814 

> <Gold.Protein.RotatedAtoms>
  151.0601  134.9731  159.8255 H   0  0  0  0  0  0  0  0  0  0  0  0  # atno 6907 bound_to 6896
  152.5394  134.2428  159.8879 H   0  0  0  0  0  0  0  0  0  0  0  0  # atno 6908 bound_to 6896
  151.2448  133.4337  159.2642 H   0  0  0  0  0  0  0  0  0  0  0  0  # atno 6909 bound_to 6896
  145.0276  139.4075  143.5166 H   0  0  0  0  0  0  0  0  0  0  0  0  # atno 7974 bound_to 7965
  154.7208  140.2711  155.6543 H   0  0  0  0  0  0  0  0  0  0  0  0  # atno 8008 bound_to 7997
  156.2823  140.2735  156.1803 H   0  0  0  0  0  0  0  0  0  0  0  0  # atno 8009 bound_to 7997
  155.0510  140.0371  157.2533 H   0  0  0  0  0  0  0  0  0  0  0  0  # atno 8010 bound_to 7997
  140.6199  143.2415  151.5507 H   0  0  0  0  0  0  0  0  0  0  0  0  # atno 10167 bound_to 10162
  156.0265  130.4403  150.2800 H   0  0  0  0  0  0  0  0  0  0  0  0  # atno 10718 bound_to 10713
  153.0598  135.6552  154.0490 H   0  0  0  0  0  0  0  0  0  0  0  0  # atno 10763 bound_to 10752
  154.0160  135.2924  155.3388 H   0  0  0  0  0  0  0  0  0  0  0  0  # atno 10764 bound_to 10752
  154.6931  135.5275  153.8488 H   0  0  0  0  0  0  0  0  0  0  0  0  # atno 10765 bound_to 10752
  140.9246  134.1400  157.4286 H   0  0  0  0  0  0  0  0  0  0  0  0  # atno 11005 bound_to 11000
  146.3494  139.9808  142.8696 LP  0  0  0  0  0  0  0  0  0  0  0  0  # atno 17320 bound_to 7965
  145.1813  140.9768  143.4265 LP  0  0  0  0  0  0  0  0  0  0  0  0  # atno 17321 bound_to 7965
  139.5429  144.2598  152.1387 LP  0  0  0  0  0  0  0  0  0  0  0  0  # atno 17342 bound_to 10162
  140.1815  144.4839  150.6526 LP  0  0  0  0  0  0  0  0  0  0  0  0  # atno 17343 bound_to 10162
  157.0903  131.0168  151.3124 LP  0  0  0  0  0  0  0  0  0  0  0  0  # atno 17370 bound_to 10713
  157.4859  130.7793  149.7459 LP  0  0  0  0  0  0  0  0  0  0  0  0  # atno 17371 bound_to 10713
  139.8782  134.9983  156.5895 LP  0  0  0  0  0  0  0  0  0  0  0  0  # atno 17394 bound_to 11000
  140.7943  133.8556  155.8672 LP  0  0  0  0  0  0  0  0  0  0  0  0  # atno 17395 bound_to 11000

$$$$
