AV-unprocessed.smi:3249|AV-procd|sdf|12422|dock2
  -GOLD-   2272018303D 1   1.00000     0.00000
 Structure written by MMmdl.
 44 45  0  0  0  0  0  0  0  0  2 V2000
  145.5539  132.0266  151.0075 C   0  0  0  0  0  0  0  0  0  0  0  0
  145.1878  133.4505  151.3123 C   0  0  0  0  0  0  0  0  0  0  0  0
  145.6242  134.6281  150.6424 C   0  0  0  0  0  0  0  0  0  0  0  0
  145.1183  135.7327  151.1650 N   0  0  0  0  0  0  0  0  0  0  0  0
  144.3358  135.3033  152.1803 N   0  0  0  0  0  0  0  0  0  0  0  0
  143.6178  136.2599  153.0163 C   0  0  1  0  0  0  0  0  0  0  0  0
  142.8820  135.5035  154.1380 C   0  0  0  0  0  0  0  0  0  0  0  0
  144.5506  137.3848  153.5451 C   0  0  2  0  0  0  0  0  0  0  0  0
  143.8473  138.2947  154.5711 C   0  0  0  0  0  0  0  0  0  0  0  0
  145.0545  138.1973  152.4122 N   0  3  0  0  0  0  0  0  0  0  0  0
  146.5258  138.2948  152.3067 C   0  0  0  0  0  0  0  0  0  0  0  0
  147.1077  139.1950  153.4072 C   0  0  1  0  0  0  0  0  0  0  0  0
  148.5813  138.8670  153.7271 C   0  0  0  0  0  0  0  0  0  0  0  0
  149.1444  139.8564  154.7537 C   0  0  0  0  0  0  0  0  0  0  0  0
  148.9108  141.2915  154.2708 C   0  0  0  0  0  0  0  0  0  0  0  0
  147.4294  141.5015  153.9194 C   0  0  0  0  0  0  0  0  0  0  0  0
  147.0207  140.5420  152.9488 O   0  0  0  0  0  0  0  0  0  0  0  0
  144.3709  133.9291  152.2970 C   0  0  0  0  0  0  0  0  0  0  0  0
  145.9628  131.9193  150.0026 H   0  0  0  0  0  0  0  0  0  0  0  0
  144.6903  131.3645  151.0742 H   0  0  0  0  0  0  0  0  0  0  0  0
  146.3043  131.6483  151.7017 H   0  0  0  0  0  0  0  0  0  0  0  0
  146.2921  134.7124  149.7976 H   0  0  0  0  0  0  0  0  0  0  0  0
  142.8603  136.7225  152.3815 H   0  0  0  0  0  0  0  0  0  0  0  0
  142.1932  136.1505  154.6801 H   0  0  0  0  0  0  0  0  0  0  0  0
  143.5821  135.0802  154.8591 H   0  0  0  0  0  0  0  0  0  0  0  0
  142.2902  134.6823  153.7319 H   0  0  0  0  0  0  0  0  0  0  0  0
  145.4062  136.9153  154.0333 H   0  0  0  0  0  0  0  0  0  0  0  0
  143.5366  137.7396  155.4554 H   0  0  0  0  0  0  0  0  0  0  0  0
  142.9607  138.7636  154.1430 H   0  0  0  0  0  0  0  0  0  0  0  0
  144.5037  139.0899  154.9230 H   0  0  0  0  0  0  0  0  0  0  0  0
  144.7282  137.7583  151.5627 H   0  0  0  0  0  0  0  0  0  0  0  0
  146.9819  137.3060  152.3502 H   0  0  0  0  0  0  0  0  0  0  0  0
  146.7723  138.7166  151.3312 H   0  0  0  0  0  0  0  0  0  0  0  0
  146.4985  139.0933  154.3075 H   0  0  0  0  0  0  0  0  0  0  0  0
  148.6740  137.8496  154.1081 H   0  0  0  0  0  0  0  0  0  0  0  0
  149.1761  138.9141  152.8138 H   0  0  0  0  0  0  0  0  0  0  0  0
  148.6530  139.7075  155.7161 H   0  0  0  0  0  0  0  0  0  0  0  0
  150.2081  139.6769  154.9131 H   0  0  0  0  0  0  0  0  0  0  0  0
  149.2235  142.0033  155.0353 H   0  0  0  0  0  0  0  0  0  0  0  0
  149.5247  141.4874  153.3906 H   0  0  0  0  0  0  0  0  0  0  0  0
  146.8029  141.4248  154.8096 H   0  0  0  0  0  0  0  0  0  0  0  0
  147.2795  142.5012  153.5108 H   0  0  0  0  0  0  0  0  0  0  0  0
  143.8163  133.4084  153.0639 H   0  0  0  0  0  0  0  0  0  0  0  0
  144.6565  139.1238  152.4675 H   0  0  0  0  0  0  0  0  0  0  0  0
  1  2  1  0  0  0  0
  1 19  1  0  0  0  0
  1 20  1  0  0  0  0
  1 21  1  0  0  0  0
  2 18  2  0  0  0  0
  2  3  1  0  0  0  0
  3  4  2  0  0  0  0
  3 22  1  0  0  0  0
  4  5  1  0  0  0  0
  5  6  1  0  0  0  0
  5 18  1  0  0  0  0
  6  7  1  0  0  0  0
  6  8  1  0  0  0  0
  6 23  1  0  0  0  0
  7 24  1  0  0  0  0
  7 25  1  0  0  0  0
  7 26  1  0  0  0  0
  8  9  1  0  0  0  0
  8 10  1  0  0  0  0
  8 27  1  0  0  0  0
  9 28  1  0  0  0  0
  9 29  1  0  0  0  0
  9 30  1  0  0  0  0
 10 11  1  0  0  0  0
 10 31  1  0  0  0  0
 10 44  1  0  0  0  0
 11 12  1  0  0  0  0
 11 32  1  0  0  0  0
 11 33  1  0  0  0  0
 12 17  1  0  0  0  0
 12 13  1  0  0  0  0
 12 34  1  0  0  0  0
 13 14  1  0  0  0  0
 13 35  1  0  0  0  0
 13 36  1  0  0  0  0
 14 15  1  0  0  0  0
 14 37  1  0  0  0  0
 14 38  1  0  0  0  0
 15 16  1  0  0  0  0
 15 39  1  0  0  0  0
 15 40  1  0  0  0  0
 16 17  1  0  0  0  0
 16 41  1  0  0  0  0
 16 42  1  0  0  0  0
 18 43  1  0  0  0  0
M  CHG  1  10   1
M  END
> <s_m_source_file>
AV-unprocessed.smi

> <i_m_source_file_index>
3249

> <i_lp_mmshare_version>
43012

> <i_f3d_flags>
0

> <s_epik_input>
W0NIM11jMVtjSF1ubihbY0hdMSlbQ0BIXShbQ0gzXSlbQ0BIXShbQ0gzXSlbTkhdW0NIMl1bQ0BASF0yW0NIMl1bQ0gyXVtDSDJdW0NIMl1PMg==

> <s_epik_cmdline>
J2VwaWtfcHl0aG9uJywgJy1waCcsICc3LjAnLCAnLXRuJywgJzgnLCAnLW1hJywgJzIwMCcsICctbWV0YWxfYmluZGluZycsICctaW1hZScsICc8aW5maWxlLm1hZT4nLCAnLW9tYWUnLCAnPG91dGZpbGUubWFlPic=

> <r_lp_tautomer_probability>
1

> <r_epik_Ionization_Penalty>
0.00659207

> <r_epik_Ionization_Penalty_Charging>
0.00656881

> <r_epik_Ionization_Penalty_Neutral>
2.32662e-05

> <r_epik_State_Penalty>
0.0048654

> <r_epik_Charging_Adjusted_Penalty>
0.0114342

> <i_epik_Tot_Q>
1

> <i_epik_Tot_abs_Q>
1

> <r_epik_Metal_State_Penalty>
-0

> <b_epik_Metal_Only>
0

> <s_lp_Force_Field>
OPLS_2005

> <r_lp_Energy>
17.782

> <b_lp_Chiralities_Consistent>
1

> <s_lp_Variant>
AV-unprocessed.smi:3249-6

> <Gold.Version>
5.8.1

> <Gold.Id.Protein>
6NUR|6NUR_protein|mol2

> <Gold.PLP.Fitness>
40.4707

> <Gold.PLP.PLP>
-29.2983

> <Gold.PLP.part.hbond>
-2.0000

> <Gold.PLP.part.metal>
0.0000

> <Gold.PLP.part.buried>
-2.0336

> <Gold.PLP.part.nonpolar>
-26.0700

> <Gold.PLP.part.repulsive>
0.4464

> <Gold.PLP.ligand.clash>
0.0000

> <Gold.PLP.ligand.torsion>
1.1906

> <Gold.PLP.Chemscore.Hbond>
2.4732

> <Gold.PLP.Chemscore.CHOScore>
2.0000

> <Gold.PLP.Chemscore.Metal>
0.0000

> <Gold.Chemscore.Hbonds>
donor molecule, donor type, donor heavy atom, donor atom, acceptor molecule, acceptor atom, score
      L1  H    10    31       P1 10171  0.47
      L1  H    10    44       P1 10175  2.00
      L1  C     3    22       P1  7921  1.00
      L1  C    18    43       P1 10957  0.74

> <Gold.PLP.Chemscore.Internal.Correction>
0.1341

> <Gold.Rescore>
     Score         DG    S(hbond)    S(metal)    S(lipo)     H(rot)  DE(clash)    DE(int)     intcor
     13.88     -15.75       1.60        0.00      75.72       1.53       0.72       1.15       ----

> <Gold.Chemscore.Fitness>
13.8755

> <Gold.Chemscore.DG>
-15.7455

> <Gold.Chemscore.ZeroCoef>
-5.4800

> <Gold.Chemscore.Hbond>
1.5962

> <Gold.Chemscore.Metal>
0.0000

> <Gold.Chemscore.Lipo>
75.7211

> <Gold.Chemscore.Internal_Hbond>
0.0000

> <Gold.Chemscore.DEClash>
0.7222

> <Gold.Chemscore.DEInternal>
1.1478

> <Gold.Chemscore.Rot>
1.5333

> <Gold.Chemscore.Internal.Correction>
   9.000000E+99

> <Gold.Chemscore.Hbonds>
donor molecule, donor type, donor heavy atom, donor atom, acceptor molecule, acceptor atom, score
      L1  H    10    31       P1 10171  0.48
      L1  H    10    44       P1 10175  1.00

> <Gold.Chemscore.Hbond.Weighted>
-5.3314

> <Gold.Chemscore.Metal.Weighted>
-0.0000

> <Gold.Chemscore.Lipo.Weighted>
-8.8594

> <Gold.Chemscore.Internal_Hbond.Weighted>
0.0000

> <Gold.Chemscore.DEClash.Weighted>
0.7222

> <Gold.Chemscore.DEInternal.Weighted>
1.1478

> <Gold.Chemscore.Rot.Weighted>
3.9252

> <Gold.Chemscore.Internal.Correction.Weighted>
   9.000000E+99

> <Gold.Protein.RotatedTorsions>
[ 6907 6896 6895 6894 ] final  146.62 input  -60.11 | X-H torsion
[ 7974 7965 7964 7962 ] final   95.21 input  175.53 | X-H torsion
[ 8008 7997 7996 7995 ] final   91.82 input   59.86 | X-H torsion
[ 10167 10162 10161 10158 ] final -164.73 input  -65.29 | X-H torsion
[ 10718 10713 10712 10709 ] final   89.28 input   66.30 | X-H torsion
[ 10763 10752 10751 10750 ] final   93.60 input  -60.55 | X-H torsion
[ 11005 11000 10999 10996 ] final  -91.07 input  -57.11 | X-H torsion

> <Gold.Protein.ActiveResidues>
 VAL166  LYS551  ARG553  GLY616  TRP617  ASP618  TYR619  PRO620  LYS621  CYS622 
 ASP623  PHE694  ASN695  SER759  ASP760  ASP761  ALA762  ILE779  LEU786  VAL792 
 PHE793  MET794  SER795  GLU796  ALA797  LYS798  CYS799  TRP800  GLU811  SER814 

> <Gold.Protein.RotatedAtoms>
  152.1655  133.4609  159.4882 H   0  0  0  0  0  0  0  0  0  0  0  0  # atno 6907 bound_to 6896
  150.6912  134.2019  159.4334 H   0  0  0  0  0  0  0  0  0  0  0  0  # atno 6908 bound_to 6896
  151.9923  134.9972  160.0612 H   0  0  0  0  0  0  0  0  0  0  0  0  # atno 6909 bound_to 6896
  145.4552  139.2290  143.3018 H   0  0  0  0  0  0  0  0  0  0  0  0  # atno 7974 bound_to 7965
  156.0282  140.3333  155.7111 H   0  0  0  0  0  0  0  0  0  0  0  0  # atno 8008 bound_to 7997
  155.5923  140.0647  157.2773 H   0  0  0  0  0  0  0  0  0  0  0  0  # atno 8009 bound_to 7997
  154.4342  140.1825  156.1076 H   0  0  0  0  0  0  0  0  0  0  0  0  # atno 8010 bound_to 7997
  139.6230  144.0587  152.1950 H   0  0  0  0  0  0  0  0  0  0  0  0  # atno 10167 bound_to 10162
  157.6954  131.0327  150.3402 H   0  0  0  0  0  0  0  0  0  0  0  0  # atno 10718 bound_to 10713
  153.2322  135.4319  155.0607 H   0  0  0  0  0  0  0  0  0  0  0  0  # atno 10763 bound_to 10752
  154.8302  135.3382  154.6771 H   0  0  0  0  0  0  0  0  0  0  0  0  # atno 10764 bound_to 10752
  153.7198  135.7017  153.5072 H   0  0  0  0  0  0  0  0  0  0  0  0  # atno 10765 bound_to 10752
  141.1552  133.7732  156.9827 H   0  0  0  0  0  0  0  0  0  0  0  0  # atno 11005 bound_to 11000
  146.2482  140.5315  142.8905 LP  0  0  0  0  0  0  0  0  0  0  0  0  # atno 17320 bound_to 7965
  144.8037  140.6260  143.6461 LP  0  0  0  0  0  0  0  0  0  0  0  0  # atno 17321 bound_to 7965
  140.0234  144.6136  150.7548 LP  0  0  0  0  0  0  0  0  0  0  0  0  # atno 17342 bound_to 10162
  140.7394  143.2790  151.3654 LP  0  0  0  0  0  0  0  0  0  0  0  0  # atno 17343 bound_to 10162
  156.3864  130.3890  149.7063 LP  0  0  0  0  0  0  0  0  0  0  0  0  # atno 17370 bound_to 10713
  156.4428  130.7869  151.2890 LP  0  0  0  0  0  0  0  0  0  0  0  0  # atno 17371 bound_to 10713
  140.1055  134.9509  157.1988 LP  0  0  0  0  0  0  0  0  0  0  0  0  # atno 17394 bound_to 11000
  140.3262  134.2861  155.7236 LP  0  0  0  0  0  0  0  0  0  0  0  0  # atno 17395 bound_to 11000

$$$$
