AV-unprocessed.smi:1225|AV-procd|sdf|5136|dock1
  -GOLD-   22720 4193D 1   1.00000     0.00000
 Structure written by MMmdl.
 48 50  0  0  0  0  0  0  0  0  1 V2000
  142.8913  145.7093  154.1010 C   0  0  0  0  0  0  0  0  0  0  0  0
  143.8563  144.6179  154.4151 C   0  0  0  0  0  0  0  0  0  0  0  0
  143.7269  143.7955  155.4587 N   0  0  0  0  0  0  0  0  0  0  0  0
  144.7602  142.8585  155.5295 C   0  0  0  0  0  0  0  0  0  0  0  0
  145.6852  142.9749  154.5212 C   0  0  0  0  0  0  0  0  0  0  0  0
  146.9053  142.1388  154.3050 C   0  0  0  0  0  0  0  0  0  0  0  0
  146.9365  140.9311  155.1358 N   0  0  0  0  0  0  0  0  0  0  0  0
  146.2938  139.8215  154.4366 C   0  0  0  0  0  0  0  0  0  0  0  0
  148.3022  140.5681  155.5313 C   0  0  0  0  0  0  0  0  0  0  0  0
  149.4372  141.1205  154.6376 C   0  0  2  0  0  0  0  0  0  0  0  0
  150.0961  140.0366  154.0117 O   0  0  0  0  0  0  0  0  0  0  0  0
  150.4595  142.0473  155.3252 C   0  0  0  0  0  0  0  0  0  0  0  0
  150.9939  141.4728  156.5464 N   0  0  0  0  0  0  0  0  0  0  0  0
  151.2387  140.1715  156.7939 C   0  0  0  0  0  0  0  0  0  0  0  0
  151.7307  139.8618  157.9901 N   0  0  0  0  0  0  0  0  0  0  0  0
  151.8093  141.1070  158.5902 C   0  0  0  0  0  0  0  0  0  0  0  0
  152.2516  141.4775  159.8790 C   0  0  0  0  0  0  0  0  0  0  0  0
  152.2416  142.8304  160.2875 C   0  0  0  0  0  0  0  0  0  0  0  0
  152.7215  143.1830  161.6844 C   0  0  0  0  0  0  0  0  0  0  0  0
  151.7859  143.8377  159.3993 C   0  0  0  0  0  0  0  0  0  0  0  0
  151.7649  145.2973  159.8169 C   0  0  0  0  0  0  0  0  0  0  0  0
  151.3426  143.4850  158.1074 C   0  0  0  0  0  0  0  0  0  0  0  0
  151.3553  142.1355  157.7137 C   0  0  0  0  0  0  0  0  0  0  0  0
  145.2812  144.2823  153.4393 S   0  0  0  0  0  0  0  0  0  0  0  0
  142.2820  145.9457  154.9739 H   0  0  0  0  0  0  0  0  0  0  0  0
  142.2342  145.4013  153.2876 H   0  0  0  0  0  0  0  0  0  0  0  0
  143.4286  146.6080  153.7976 H   0  0  0  0  0  0  0  0  0  0  0  0
  144.7602  142.1380  156.3342 H   0  0  0  0  0  0  0  0  0  0  0  0
  146.9818  141.8624  153.2524 H   0  0  0  0  0  0  0  0  0  0  0  0
  147.7741  142.7626  154.4980 H   0  0  0  0  0  0  0  0  0  0  0  0
  146.2724  138.9300  155.0644 H   0  0  0  0  0  0  0  0  0  0  0  0
  146.8235  139.5755  153.5154 H   0  0  0  0  0  0  0  0  0  0  0  0
  145.2606  140.0591  154.1820 H   0  0  0  0  0  0  0  0  0  0  0  0
  148.4989  140.9292  156.5424 H   0  0  0  0  0  0  0  0  0  0  0  0
  148.3858  139.4825  155.6020 H   0  0  0  0  0  0  0  0  0  0  0  0
  148.9605  141.6855  153.8357 H   0  0  0  0  0  0  0  0  0  0  0  0
  149.7028  139.8964  153.1640 H   0  0  0  0  0  0  0  0  0  0  0  0
  151.2952  142.2523  154.6555 H   0  0  0  0  0  0  0  0  0  0  0  0
  150.0023  143.0057  155.5749 H   0  0  0  0  0  0  0  0  0  0  0  0
  151.0476  139.4091  156.0527 H   0  0  0  0  0  0  0  0  0  0  0  0
  152.5986  140.7097  160.5550 H   0  0  0  0  0  0  0  0  0  0  0  0
  151.9178  143.6453  162.2581 H   0  0  0  0  0  0  0  0  0  0  0  0
  153.5592  143.8791  161.6377 H   0  0  0  0  0  0  0  0  0  0  0  0
  153.0528  142.2971  162.2272 H   0  0  0  0  0  0  0  0  0  0  0  0
  151.3822  145.9343  159.0188 H   0  0  0  0  0  0  0  0  0  0  0  0
  152.7703  145.6384  160.0642 H   0  0  0  0  0  0  0  0  0  0  0  0
  151.1268  145.4352  160.6900 H   0  0  0  0  0  0  0  0  0  0  0  0
  150.9933  144.2414  157.4201 H   0  0  0  0  0  0  0  0  0  0  0  0
  1  2  1  0  0  0  0
  1 25  1  0  0  0  0
  1 26  1  0  0  0  0
  1 27  1  0  0  0  0
  2 24  1  0  0  0  0
  2  3  2  0  0  0  0
  3  4  1  0  0  0  0
  4  5  2  0  0  0  0
  4 28  1  0  0  0  0
  5  6  1  0  0  0  0
  5 24  1  0  0  0  0
  6  7  1  0  0  0  0
  6 29  1  0  0  0  0
  6 30  1  0  0  0  0
  7  8  1  0  0  0  0
  7  9  1  0  0  0  0
  8 31  1  0  0  0  0
  8 32  1  0  0  0  0
  8 33  1  0  0  0  0
  9 10  1  0  0  0  0
  9 34  1  0  0  0  0
  9 35  1  0  0  0  0
 10 11  1  0  0  0  0
 10 12  1  0  0  0  0
 10 36  1  0  0  0  0
 11 37  1  0  0  0  0
 12 13  1  0  0  0  0
 12 38  1  0  0  0  0
 12 39  1  0  0  0  0
 13 23  1  0  0  0  0
 13 14  1  0  0  0  0
 14 15  2  0  0  0  0
 14 40  1  0  0  0  0
 15 16  1  0  0  0  0
 16 23  2  0  0  0  0
 16 17  1  0  0  0  0
 17 18  2  0  0  0  0
 17 41  1  0  0  0  0
 18 19  1  0  0  0  0
 18 20  1  0  0  0  0
 19 42  1  0  0  0  0
 19 43  1  0  0  0  0
 19 44  1  0  0  0  0
 20 21  1  0  0  0  0
 20 22  2  0  0  0  0
 21 45  1  0  0  0  0
 21 46  1  0  0  0  0
 21 47  1  0  0  0  0
 22 23  1  0  0  0  0
 22 48  1  0  0  0  0
M  END
> <s_m_source_file>
AV-unprocessed.smi

> <i_m_source_file_index>
1225

> <i_lp_mmshare_version>
43012

> <i_f3d_flags>
0

> <s_epik_input>
W0NIM11jMW5bY0hdYyhzMSlbQ0gyXU4oW0NIM10pW0NIMl1bQ0BIXShbT0hdKVtDSDJdbihbY0hdbjIpYyhjMjMpW2NIXWMoW0NIM10pYyhbY0hdMylbQ0gzXQ==

> <s_epik_cmdline>
J2VwaWtfcHl0aG9uJywgJy1waCcsICc3LjAnLCAnLXRuJywgJzgnLCAnLW1hJywgJzIwMCcsICctbWV0YWxfYmluZGluZycsICctaW1hZScsICc8aW5maWxlLm1hZT4nLCAnLW9tYWUnLCAnPG91dGZpbGUubWFlPic=

> <r_epik_Ionization_Penalty>
0.12717

> <r_epik_Ionization_Penalty_Charging>
0

> <r_epik_Ionization_Penalty_Neutral>
0.12717

> <r_epik_State_Penalty>
0.11216

> <r_epik_Charging_Adjusted_Penalty>
0.11216

> <i_epik_Tot_Q>
0

> <i_epik_Tot_abs_Q>
0

> <r_epik_Metal_State_Penalty>
0.099641

> <b_epik_Metal_Only>
0

> <s_lp_Force_Field>
OPLS_2005

> <r_lp_Energy>
23.0021

> <b_lp_Chiralities_Consistent>
1

> <s_lp_Variant>
AV-unprocessed.smi:1225-1

> <Gold.Version>
5.8.1

> <Gold.Id.Protein>
6NUR|6NUR_protein|mol2

> <Gold.PLP.Fitness>
52.3166

> <Gold.PLP.PLP>
-50.7842

> <Gold.PLP.part.hbond>
-2.0000

> <Gold.PLP.part.metal>
0.0000

> <Gold.PLP.part.buried>
-4.5732

> <Gold.PLP.part.nonpolar>
-43.8460

> <Gold.PLP.part.repulsive>
0.1736

> <Gold.PLP.ligand.clash>
0.0289

> <Gold.PLP.ligand.torsion>
2.2634

> <Gold.PLP.Chemscore.Hbond>
1.8520

> <Gold.PLP.Chemscore.CHOScore>
0.0000

> <Gold.PLP.Chemscore.Metal>
0.0000

> <Gold.Chemscore.Hbonds>
donor molecule, donor type, donor heavy atom, donor atom, acceptor molecule, acceptor atom, score
      L1  H    11    37       P1  7957  1.00
      P1  H  7989  7998       L1    11  0.84

> <Gold.PLP.Chemscore.Internal.Correction>
0.5322

> <Gold.Rescore>
     Score         DG    S(hbond)    S(metal)    S(lipo)     H(rot)  DE(clash)    DE(int)     intcor
     14.89     -19.67       1.02        0.00     142.21       2.28       1.77       3.01       ----

> <Gold.Chemscore.Fitness>
14.8945

> <Gold.Chemscore.DG>
-19.6729

> <Gold.Chemscore.ZeroCoef>
-5.4800

> <Gold.Chemscore.Hbond>
1.0188

> <Gold.Chemscore.Metal>
0.0000

> <Gold.Chemscore.Lipo>
142.2054

> <Gold.Chemscore.Internal_Hbond>
0.0000

> <Gold.Chemscore.DEClash>
1.7677

> <Gold.Chemscore.DEInternal>
3.0108

> <Gold.Chemscore.Rot>
2.2844

> <Gold.Chemscore.Internal.Correction>
   9.000000E+99

> <Gold.Chemscore.Hbonds>
donor molecule, donor type, donor heavy atom, donor atom, acceptor molecule, acceptor atom, score
      L1  H    11    37       P1  7957  0.93
      P1  H  7989  7998       L1    11  0.04

> <Gold.Chemscore.Hbond.Weighted>
-3.4029

> <Gold.Chemscore.Metal.Weighted>
-0.0000

> <Gold.Chemscore.Lipo.Weighted>
-16.6380

> <Gold.Chemscore.Internal_Hbond.Weighted>
0.0000

> <Gold.Chemscore.DEClash.Weighted>
1.7677

> <Gold.Chemscore.DEInternal.Weighted>
3.0108

> <Gold.Chemscore.Rot.Weighted>
5.8480

> <Gold.Chemscore.Internal.Correction.Weighted>
   9.000000E+99

> <Gold.Protein.RotatedTorsions>
[ 6907 6896 6895 6894 ] final  -95.70 input  -60.11 | X-H torsion
[ 7974 7965 7964 7962 ] final  166.91 input  175.53 | X-H torsion
[ 8008 7997 7996 7995 ] final  -99.96 input   59.86 | X-H torsion
[ 10167 10162 10161 10158 ] final  -60.85 input  -65.29 | X-H torsion
[ 10718 10713 10712 10709 ] final  -16.88 input   66.30 | X-H torsion
[ 10763 10752 10751 10750 ] final   97.63 input  -60.55 | X-H torsion
[ 11005 11000 10999 10996 ] final -174.48 input  -57.11 | X-H torsion

> <Gold.Protein.ActiveResidues>
 VAL166  LYS551  ARG553  GLY616  TRP617  ASP618  TYR619  PRO620  LYS621  CYS622 
 ASP623  PHE694  ASN695  SER759  ASP760  ASP761  ALA762  ILE779  LEU786  VAL792 
 PHE793  MET794  SER795  GLU796  ALA797  LYS798  CYS799  TRP800  GLU811  SER814 

> <Gold.Protein.RotatedAtoms>
  150.6970  134.1618  159.4178 H   0  0  0  0  0  0  0  0  0  0  0  0  # atno 6907 bound_to 6896
  151.9598  135.0127  160.0556 H   0  0  0  0  0  0  0  0  0  0  0  0  # atno 6908 bound_to 6896
  152.1937  133.4756  159.5058 H   0  0  0  0  0  0  0  0  0  0  0  0  # atno 6909 bound_to 6896
  144.7444  139.8684  143.6387 H   0  0  0  0  0  0  0  0  0  0  0  0  # atno 7974 bound_to 7965
  154.8221  140.0444  157.1417 H   0  0  0  0  0  0  0  0  0  0  0  0  # atno 8008 bound_to 7997
  154.9248  140.3032  155.5177 H   0  0  0  0  0  0  0  0  0  0  0  0  # atno 8009 bound_to 7997
  156.2981  140.2334  156.4302 H   0  0  0  0  0  0  0  0  0  0  0  0  # atno 8010 bound_to 7997
  140.6044  143.2369  151.5854 H   0  0  0  0  0  0  0  0  0  0  0  0  # atno 10167 bound_to 10162
  156.5813  130.4775  149.6319 H   0  0  0  0  0  0  0  0  0  0  0  0  # atno 10718 bound_to 10713
  153.2792  135.4177  155.1062 H   0  0  0  0  0  0  0  0  0  0  0  0  # atno 10763 bound_to 10752
  154.8483  135.3491  154.6136 H   0  0  0  0  0  0  0  0  0  0  0  0  # atno 10764 bound_to 10752
  153.6557  135.7050  153.5252 H   0  0  0  0  0  0  0  0  0  0  0  0  # atno 10765 bound_to 10752
  140.4741  134.6138  157.4893 H   0  0  0  0  0  0  0  0  0  0  0  0  # atno 11005 bound_to 11000
  146.1298  139.4331  143.0176 LP  0  0  0  0  0  0  0  0  0  0  0  0  # atno 17320 bound_to 7965
  145.7181  141.0084  143.1417 LP  0  0  0  0  0  0  0  0  0  0  0  0  # atno 17321 bound_to 7965
  139.5314  144.2905  152.1156 LP  0  0  0  0  0  0  0  0  0  0  0  0  # atno 17342 bound_to 10162
  140.2091  144.4580  150.6394 LP  0  0  0  0  0  0  0  0  0  0  0  0  # atno 17343 bound_to 10162
  156.2629  130.6972  151.1746 LP  0  0  0  0  0  0  0  0  0  0  0  0  # atno 17370 bound_to 10713
  157.7326  131.0598  150.5621 LP  0  0  0  0  0  0  0  0  0  0  0  0  # atno 17371 bound_to 10713
  139.9867  134.7050  155.9761 LP  0  0  0  0  0  0  0  0  0  0  0  0  # atno 17394 bound_to 11000
  141.1563  133.6542  156.4172 LP  0  0  0  0  0  0  0  0  0  0  0  0  # atno 17395 bound_to 11000

$$$$
