AV-unprocessed.smi:2699|AV-procd|sdf|10424|dock6
  -GOLD-   2272014463D 1   1.00000     0.00000
 Structure written by MMmdl.
 43 45  0  0  0  0  0  0  0  0  1 V2000
  147.8625  139.9812  154.3427 C   0  0  0  0  0  0  0  0  0  0  0  0
  149.2241  139.3646  154.6387 C   0  0  0  0  0  0  0  0  0  0  0  0
  149.5164  138.1094  154.2515 C   0  0  0  0  0  0  0  0  0  0  0  0
  150.8254  137.5646  154.5151 C   0  0  0  0  0  0  0  0  0  0  0  0
  151.1200  136.3135  154.1411 O   0  0  0  0  0  0  0  0  0  0  0  0
  151.7501  138.3231  155.1316 C   0  0  0  0  0  0  0  0  0  0  0  0
  151.4672  139.6953  155.5585 C   0  0  0  0  0  0  0  0  0  0  0  0
  152.3271  140.3841  156.1097 O   0  0  0  0  0  0  0  0  0  0  0  0
  150.1987  140.1585  155.3130 N   0  0  0  0  0  0  0  0  0  0  0  0
  149.8495  141.5249  155.7682 C   0  0  0  0  0  0  0  0  0  0  0  0
  150.0638  141.7461  157.2794 C   0  0  0  0  0  0  0  0  0  0  0  0
  150.0974  140.7900  158.0525 O   0  0  0  0  0  0  0  0  0  0  0  0
  150.2202  142.9996  157.7320 N   0  0  0  0  0  0  0  0  0  0  0  0
  150.4324  143.4014  159.1193 C   0  0  0  0  0  0  0  0  0  0  0  0
  151.8986  143.7877  159.3926 C   0  0  0  0  0  0  0  0  0  0  0  0
  152.7627  142.5592  159.0891 C   0  0  0  0  0  0  0  0  0  0  0  0
  153.1247  141.5630  160.1617 C   0  0  0  0  0  0  0  0  0  0  0  0
  154.2061  142.4027  159.5079 C   0  0  0  0  0  0  0  0  0  0  0  0
  152.3758  145.1084  158.7491 C   0  0  0  0  0  0  0  0  0  0  0  0
  151.9850  145.8524  160.0247 C   0  0  0  0  0  0  0  0  0  0  0  0
  152.1079  144.5113  160.7464 C   0  0  0  0  0  0  0  0  0  0  0  0
  147.3214  139.3836  153.6087 H   0  0  0  0  0  0  0  0  0  0  0  0
  147.9497  140.9846  153.9268 H   0  0  0  0  0  0  0  0  0  0  0  0
  147.2552  140.0208  155.2472 H   0  0  0  0  0  0  0  0  0  0  0  0
  148.7801  137.5129  153.7322 H   0  0  0  0  0  0  0  0  0  0  0  0
  150.8604  136.2183  153.2374 H   0  0  0  0  0  0  0  0  0  0  0  0
  152.7315  137.9130  155.3232 H   0  0  0  0  0  0  0  0  0  0  0  0
  150.3960  142.2833  155.2101 H   0  0  0  0  0  0  0  0  0  0  0  0
  148.8067  141.7430  155.5326 H   0  0  0  0  0  0  0  0  0  0  0  0
  150.1880  143.7444  157.0508 H   0  0  0  0  0  0  0  0  0  0  0  0
  149.7674  144.2368  159.3430 H   0  0  0  0  0  0  0  0  0  0  0  0
  150.1324  142.5865  159.7796 H   0  0  0  0  0  0  0  0  0  0  0  0
  152.5589  142.1342  158.1079 H   0  0  0  0  0  0  0  0  0  0  0  0
  152.8569  141.8013  161.1891 H   0  0  0  0  0  0  0  0  0  0  0  0
  153.0769  140.5078  159.9008 H   0  0  0  0  0  0  0  0  0  0  0  0
  154.8734  141.8997  158.8111 H   0  0  0  0  0  0  0  0  0  0  0  0
  154.6741  143.1800  160.1056 H   0  0  0  0  0  0  0  0  0  0  0  0
  153.4523  145.1291  158.5710 H   0  0  0  0  0  0  0  0  0  0  0  0
  151.8254  145.4183  157.8603 H   0  0  0  0  0  0  0  0  0  0  0  0
  152.6975  146.6121  160.3469 H   0  0  0  0  0  0  0  0  0  0  0  0
  150.9639  146.2358  160.0004 H   0  0  0  0  0  0  0  0  0  0  0  0
  151.3282  144.3287  161.4865 H   0  0  0  0  0  0  0  0  0  0  0  0
  153.0947  144.3839  161.1891 H   0  0  0  0  0  0  0  0  0  0  0  0
  1  2  1  0  0  0  0
  1 22  1  0  0  0  0
  1 23  1  0  0  0  0
  1 24  1  0  0  0  0
  2  9  1  0  0  0  0
  2  3  2  0  0  0  0
  3  4  1  0  0  0  0
  3 25  1  0  0  0  0
  4  5  1  0  0  0  0
  4  6  2  0  0  0  0
  5 26  1  0  0  0  0
  6  7  1  0  0  0  0
  6 27  1  0  0  0  0
  7  8  2  0  0  0  0
  7  9  1  0  0  0  0
  9 10  1  0  0  0  0
 10 11  1  0  0  0  0
 10 28  1  0  0  0  0
 10 29  1  0  0  0  0
 11 12  2  0  0  0  0
 11 13  1  0  0  0  0
 13 14  1  0  0  0  0
 13 30  1  0  0  0  0
 14 15  1  0  0  0  0
 14 31  1  0  0  0  0
 14 32  1  0  0  0  0
 15 21  1  0  0  0  0
 15 16  1  0  0  0  0
 15 19  1  0  0  0  0
 16 18  1  0  0  0  0
 16 17  1  0  0  0  0
 16 33  1  0  0  0  0
 17 18  1  0  0  0  0
 17 34  1  0  0  0  0
 17 35  1  0  0  0  0
 18 36  1  0  0  0  0
 18 37  1  0  0  0  0
 19 20  1  0  0  0  0
 19 38  1  0  0  0  0
 19 39  1  0  0  0  0
 20 21  1  0  0  0  0
 20 40  1  0  0  0  0
 20 41  1  0  0  0  0
 21 42  1  0  0  0  0
 21 43  1  0  0  0  0
M  END
> <s_m_source_file>
AV-unprocessed.smi

> <i_m_source_file_index>
2699

> <i_lp_mmshare_version>
43012

> <i_f3d_flags>
0

> <s_epik_input>
W0NIM11jMVtjSF1jKFtPSF0pW2NIXWMoPU8pbjFbQ0gyXUMoPU8pW05IXVtDSDJdQzIoW0NIXTNbQ0gyXVtDSDJdMylbQ0gyXVtDSDJdW0NIMl0y

> <s_epik_cmdline>
J2VwaWtfcHl0aG9uJywgJy1waCcsICc3LjAnLCAnLXRuJywgJzgnLCAnLW1hJywgJzIwMCcsICctbWV0YWxfYmluZGluZycsICctaW1hZScsICc8aW5maWxlLm1hZT4nLCAnLW9tYWUnLCAnPG91dGZpbGUubWFlPic=

> <r_lp_tautomer_probability>
0.999984

> <r_epik_Ionization_Penalty>
0.783068

> <r_epik_Ionization_Penalty_Charging>
1.5268e-07

> <r_epik_Ionization_Penalty_Neutral>
0.783068

> <r_epik_State_Penalty>
0.823318

> <r_epik_Charging_Adjusted_Penalty>
0.823318

> <i_epik_Tot_Q>
0

> <i_epik_Tot_abs_Q>
0

> <r_epik_Metal_State_Penalty>
0.823318

> <b_epik_Metal_Only>
0

> <s_lp_Force_Field>
OPLS_2005

> <r_lp_Energy>
38.185

> <b_lp_Chiralities_Consistent>
1

> <s_lp_Variant>
AV-unprocessed.smi:2699-2

> <Gold.Version>
5.8.1

> <Gold.Id.Protein>
6NUR|6NUR_protein|mol2

> <Gold.PLP.Fitness>
60.0808

> <Gold.PLP.PLP>
-50.5268

> <Gold.PLP.part.hbond>
-4.4959

> <Gold.PLP.part.metal>
0.0000

> <Gold.PLP.part.buried>
0.9168

> <Gold.PLP.part.nonpolar>
-46.4577

> <Gold.PLP.part.repulsive>
0.0394

> <Gold.PLP.ligand.clash>
0.0000

> <Gold.PLP.ligand.torsion>
1.3040

> <Gold.PLP.Chemscore.Hbond>
3.4867

> <Gold.PLP.Chemscore.CHOScore>
0.0000

> <Gold.PLP.Chemscore.Metal>
0.0000

> <Gold.Chemscore.Hbonds>
donor molecule, donor type, donor heavy atom, donor atom, acceptor molecule, acceptor atom, score
      L1  H     5    26       P1  7949  0.70
      L1  H    13    30       P1  8028  0.66
      P1  H  7997  8010       L1     8  1.00
      P1  H 10752 10765       L1     5  1.00

> <Gold.PLP.Chemscore.Internal.Correction>
1.7018

> <Gold.Rescore>
     Score         DG    S(hbond)    S(metal)    S(lipo)     H(rot)  DE(clash)    DE(int)     intcor
     20.62     -23.35       2.72        0.00     125.27       2.30       1.40       1.33       ----

> <Gold.Chemscore.Fitness>
20.6160

> <Gold.Chemscore.DG>
-23.3480

> <Gold.Chemscore.ZeroCoef>
-5.4800

> <Gold.Chemscore.Hbond>
2.7213

> <Gold.Chemscore.Metal>
0.0000

> <Gold.Chemscore.Lipo>
125.2737

> <Gold.Chemscore.Internal_Hbond>
0.0000

> <Gold.Chemscore.DEClash>
1.3984

> <Gold.Chemscore.DEInternal>
1.3336

> <Gold.Chemscore.Rot>
2.2962

> <Gold.Chemscore.Internal.Correction>
   9.000000E+99

> <Gold.Chemscore.Hbonds>
donor molecule, donor type, donor heavy atom, donor atom, acceptor molecule, acceptor atom, score
      L1  H     5    26       P1  7949  0.07
      L1  H    13    30       P1  8028  0.62
      P1  H  7997  8010       L1     8  0.90
      P1  H 10752 10765       L1     5  0.63

> <Gold.Chemscore.Hbond.Weighted>
-9.0893

> <Gold.Chemscore.Metal.Weighted>
-0.0000

> <Gold.Chemscore.Lipo.Weighted>
-14.6570

> <Gold.Chemscore.Internal_Hbond.Weighted>
0.0000

> <Gold.Chemscore.DEClash.Weighted>
1.3984

> <Gold.Chemscore.DEInternal.Weighted>
1.3336

> <Gold.Chemscore.Rot.Weighted>
5.8783

> <Gold.Chemscore.Internal.Correction.Weighted>
   9.000000E+99

> <Gold.Protein.RotatedTorsions>
[ 6907 6896 6895 6894 ] final  107.53 input  -60.11 | X-H torsion
[ 7974 7965 7964 7962 ] final -126.05 input  175.53 | X-H torsion
[ 8008 7997 7996 7995 ] final   84.73 input   59.86 | X-H torsion
[ 10167 10162 10161 10158 ] final  -61.86 input  -65.29 | X-H torsion
[ 10718 10713 10712 10709 ] final -122.61 input   66.30 | X-H torsion
[ 10763 10752 10751 10750 ] final  163.83 input  -60.55 | X-H torsion
[ 11005 11000 10999 10996 ] final  -35.68 input  -57.11 | X-H torsion

> <Gold.Protein.ActiveResidues>
 VAL166  LYS551  ARG553  GLY616  TRP617  ASP618  TYR619  PRO620  LYS621  CYS622 
 ASP623  PHE694  ASN695  SER759  ASP760  ASP761  ALA762  ILE779  LEU786  VAL792 
 PHE793  MET794  SER795  GLU796  ALA797  LYS798  CYS799  TRP800  GLU811  SER814 

> <Gold.Protein.RotatedAtoms>
  152.5150  133.9222  159.7539 H   0  0  0  0  0  0  0  0  0  0  0  0  # atno 6907 bound_to 6896
  150.9591  133.6456  159.2764 H   0  0  0  0  0  0  0  0  0  0  0  0  # atno 6908 bound_to 6896
  151.3708  135.0927  159.9517 H   0  0  0  0  0  0  0  0  0  0  0  0  # atno 6909 bound_to 6896
  144.9912  140.7734  143.4553 H   0  0  0  0  0  0  0  0  0  0  0  0  # atno 7974 bound_to 7965
  155.9408  140.3408  155.6326 H   0  0  0  0  0  0  0  0  0  0  0  0  # atno 8008 bound_to 7997
  155.7042  140.0764  157.2416 H   0  0  0  0  0  0  0  0  0  0  0  0  # atno 8009 bound_to 7997
  154.4102  140.1634  156.2212 H   0  0  0  0  0  0  0  0  0  0  0  0  # atno 8010 bound_to 7997
  140.5977  143.2354  151.5998 H   0  0  0  0  0  0  0  0  0  0  0  0  # atno 10167 bound_to 10162
  156.1433  130.6481  150.9803 H   0  0  0  0  0  0  0  0  0  0  0  0  # atno 10718 bound_to 10713
  154.2997  135.2759  155.2617 H   0  0  0  0  0  0  0  0  0  0  0  0  # atno 10763 bound_to 10752
  154.5059  135.5795  153.6570 H   0  0  0  0  0  0  0  0  0  0  0  0  # atno 10764 bound_to 10752
  152.9902  135.6169  154.3167 H   0  0  0  0  0  0  0  0  0  0  0  0  # atno 10765 bound_to 10752
  140.9815  133.7054  156.1692 H   0  0  0  0  0  0  0  0  0  0  0  0  # atno 11005 bound_to 11000
  145.2283  139.2127  143.5056 LP  0  0  0  0  0  0  0  0  0  0  0  0  # atno 17320 bound_to 7965
  146.3432  140.2155  142.8590 LP  0  0  0  0  0  0  0  0  0  0  0  0  # atno 17321 bound_to 7965
  139.5270  144.3030  152.1057 LP  0  0  0  0  0  0  0  0  0  0  0  0  # atno 17342 bound_to 10162
  140.2206  144.4470  150.6344 LP  0  0  0  0  0  0  0  0  0  0  0  0  # atno 17343 bound_to 10162
  157.6594  131.0883  150.7872 LP  0  0  0  0  0  0  0  0  0  0  0  0  # atno 17370 bound_to 10713
  156.7946  130.4901  149.5379 LP  0  0  0  0  0  0  0  0  0  0  0  0  # atno 17371 bound_to 10713
  140.7179  134.4390  157.5577 LP  0  0  0  0  0  0  0  0  0  0  0  0  # atno 17394 bound_to 11000
  139.8952  134.8688  156.2142 LP  0  0  0  0  0  0  0  0  0  0  0  0  # atno 17395 bound_to 11000

$$$$
