AV-unprocessed.smi:1404|AV-procd|sdf|5706|dock9
  -GOLD-   22720 5343D 1   1.00000     0.00000
 Structure written by MMmdl.
 48 49  0  0  0  0  0  0  0  0  2 V2000
  152.8627  143.7910  159.8293 C   0  0  0  0  0  0  0  0  0  0  0  0
  152.4625  142.5702  159.1607 N   0  0  0  0  0  0  0  0  0  0  0  0
  152.8912  141.3253  159.6820 C   0  0  0  0  0  0  0  0  0  0  0  0
  153.5906  141.2321  160.6912 O   0  0  0  0  0  0  0  0  0  0  0  0
  152.4406  140.1659  158.9210 C   0  0  0  0  0  0  0  0  0  0  0  0
  151.6827  140.3139  157.8126 C   0  0  0  0  0  0  0  0  0  0  0  0
  151.2836  141.5434  157.3209 N   0  0  0  0  0  0  0  0  0  0  0  0
  150.4724  141.6134  156.0994 C   0  0  0  0  0  0  0  0  0  0  0  0
  150.4926  140.2980  155.3121 C   0  0  0  0  0  0  0  0  0  0  0  0
  151.5317  139.9056  154.7802 O   0  0  0  0  0  0  0  0  0  0  0  0
  149.3325  139.6271  155.2492 N   0  0  0  0  0  0  0  0  0  0  0  0
  149.1042  138.3838  154.5136 C   0  0  0  0  0  0  0  0  0  0  0  0
  149.7611  137.1275  155.1675 C   0  0  0  0  0  0  0  0  0  0  0  0
  151.2777  137.1666  154.8411 C   0  0  0  0  0  0  0  0  0  0  0  0
  149.6127  137.1618  156.7092 C   0  0  0  0  0  0  0  0  0  0  0  0
  149.1103  135.8938  154.5881 N   0  3  0  0  0  0  0  0  0  0  0  0
  149.7924  134.5956  154.8600 C   0  0  0  0  0  0  0  0  0  0  0  0
  149.1118  133.4457  154.0959 C   0  0  0  0  0  0  0  0  0  0  0  0
  147.7331  133.3823  154.4294 O   0  0  0  0  0  0  0  0  0  0  0  0
  147.0556  134.5787  154.0756 C   0  0  0  0  0  0  0  0  0  0  0  0
  147.6521  135.7514  154.8687 C   0  0  0  0  0  0  0  0  0  0  0  0
  151.6758  142.7186  157.9975 C   0  0  0  0  0  0  0  0  0  0  0  0
  151.3422  143.8295  157.5761 O   0  0  0  0  0  0  0  0  0  0  0  0
  153.3432  143.5797  160.7839 H   0  0  0  0  0  0  0  0  0  0  0  0
  151.9618  144.3811  160.0074 H   0  0  0  0  0  0  0  0  0  0  0  0
  153.5531  144.3087  159.1614 H   0  0  0  0  0  0  0  0  0  0  0  0
  152.7199  139.1751  159.2483 H   0  0  0  0  0  0  0  0  0  0  0  0
  151.3785  139.4230  157.2823 H   0  0  0  0  0  0  0  0  0  0  0  0
  149.4359  141.8464  156.3472 H   0  0  0  0  0  0  0  0  0  0  0  0
  150.8191  142.4368  155.4715 H   0  0  0  0  0  0  0  0  0  0  0  0
  148.5351  140.0257  155.7241 H   0  0  0  0  0  0  0  0  0  0  0  0
  148.0317  138.2570  154.3756 H   0  0  0  0  0  0  0  0  0  0  0  0
  149.5109  138.5248  153.5114 H   0  0  0  0  0  0  0  0  0  0  0  0
  151.7435  138.0964  155.1681 H   0  0  0  0  0  0  0  0  0  0  0  0
  151.4596  137.0736  153.7699 H   0  0  0  0  0  0  0  0  0  0  0  0
  151.8295  136.3760  155.3498 H   0  0  0  0  0  0  0  0  0  0  0  0
  150.1972  137.9700  157.1493 H   0  0  0  0  0  0  0  0  0  0  0  0
  149.9626  136.2380  157.1698 H   0  0  0  0  0  0  0  0  0  0  0  0
  148.5793  137.3184  157.0187 H   0  0  0  0  0  0  0  0  0  0  0  0
  150.8318  134.6124  154.5374 H   0  0  0  0  0  0  0  0  0  0  0  0
  149.7862  134.3875  155.9305 H   0  0  0  0  0  0  0  0  0  0  0  0
  149.2303  133.5730  153.0186 H   0  0  0  0  0  0  0  0  0  0  0  0
  149.5795  132.4956  154.3549 H   0  0  0  0  0  0  0  0  0  0  0  0
  147.1253  134.7540  153.0009 H   0  0  0  0  0  0  0  0  0  0  0  0
  145.9974  134.4655  154.3124 H   0  0  0  0  0  0  0  0  0  0  0  0
  147.4892  135.5724  155.9321 H   0  0  0  0  0  0  0  0  0  0  0  0
  147.1008  136.6527  154.6111 H   0  0  0  0  0  0  0  0  0  0  0  0
  149.1830  136.0146  153.5881 H   0  0  0  0  0  0  0  0  0  0  0  0
  1  2  1  0  0  0  0
  1 24  1  0  0  0  0
  1 25  1  0  0  0  0
  1 26  1  0  0  0  0
  2 22  1  0  0  0  0
  2  3  1  0  0  0  0
  3  4  2  0  0  0  0
  3  5  1  0  0  0  0
  5  6  2  0  0  0  0
  5 27  1  0  0  0  0
  6  7  1  0  0  0  0
  6 28  1  0  0  0  0
  7  8  1  0  0  0  0
  7 22  1  0  0  0  0
  8  9  1  0  0  0  0
  8 29  1  0  0  0  0
  8 30  1  0  0  0  0
  9 10  2  0  0  0  0
  9 11  1  0  0  0  0
 11 12  1  0  0  0  0
 11 31  1  0  0  0  0
 12 13  1  0  0  0  0
 12 32  1  0  0  0  0
 12 33  1  0  0  0  0
 13 14  1  0  0  0  0
 13 15  1  0  0  0  0
 13 16  1  0  0  0  0
 14 34  1  0  0  0  0
 14 35  1  0  0  0  0
 14 36  1  0  0  0  0
 15 37  1  0  0  0  0
 15 38  1  0  0  0  0
 15 39  1  0  0  0  0
 16 21  1  0  0  0  0
 16 17  1  0  0  0  0
 16 48  1  0  0  0  0
 17 18  1  0  0  0  0
 17 40  1  0  0  0  0
 17 41  1  0  0  0  0
 18 19  1  0  0  0  0
 18 42  1  0  0  0  0
 18 43  1  0  0  0  0
 19 20  1  0  0  0  0
 20 21  1  0  0  0  0
 20 44  1  0  0  0  0
 20 45  1  0  0  0  0
 21 46  1  0  0  0  0
 21 47  1  0  0  0  0
 22 23  2  0  0  0  0
M  CHG  1  16   1
M  END
> <s_m_source_file>
AV-unprocessed.smi

> <i_m_source_file_index>
1404

> <i_lp_mmshare_version>
43012

> <i_f3d_flags>
0

> <s_epik_input>
W0NIM11uMWMoPU8pW2NIXVtjSF1uKGMxPU8pW0NIMl1DKD1PKVtOSF1bQ0gyXUMoW0NIM10pKFtDSDNdKU4yW0NIMl1bQ0gyXU9bQ0gyXVtDSDJdMg==

> <s_epik_cmdline>
J2VwaWtfcHl0aG9uJywgJy1waCcsICc3LjAnLCAnLXRuJywgJzgnLCAnLW1hJywgJzIwMCcsICctbWV0YWxfYmluZGluZycsICctaW1hZScsICc8aW5maWxlLm1hZT4nLCAnLW9tYWUnLCAnPG91dGZpbGUubWFlPic=

> <r_lp_tautomer_probability>
1

> <r_epik_Ionization_Penalty>
0.656654

> <r_epik_Ionization_Penalty_Charging>
0.656653

> <r_epik_Ionization_Penalty_Neutral>
9.12373e-08

> <r_epik_State_Penalty>
0.675641

> <r_epik_Charging_Adjusted_Penalty>
1.33229

> <i_epik_Tot_Q>
1

> <i_epik_Tot_abs_Q>
1

> <r_epik_Metal_State_Penalty>
0.675694

> <b_epik_Metal_Only>
0

> <s_lp_Force_Field>
OPLS_2005

> <r_lp_Energy>
33.2005

> <b_lp_Chiralities_Consistent>
1

> <s_lp_Variant>
AV-unprocessed.smi:1404-2

> <Gold.Version>
5.8.1

> <Gold.Id.Protein>
6NUR|6NUR_protein|mol2

> <Gold.PLP.Fitness>
46.3535

> <Gold.PLP.PLP>
-38.5875

> <Gold.PLP.part.hbond>
-1.9134

> <Gold.PLP.part.metal>
0.0000

> <Gold.PLP.part.buried>
-5.5455

> <Gold.PLP.part.nonpolar>
-31.7494

> <Gold.PLP.part.repulsive>
0.3406

> <Gold.PLP.ligand.clash>
0.0000

> <Gold.PLP.ligand.torsion>
0.6635

> <Gold.PLP.Chemscore.Hbond>
3.0000

> <Gold.PLP.Chemscore.CHOScore>
0.0000

> <Gold.PLP.Chemscore.Metal>
0.0000

> <Gold.Chemscore.Hbonds>
donor molecule, donor type, donor heavy atom, donor atom, acceptor molecule, acceptor atom, score
      L1  H    16    48       P1  7948  2.00
      P1  H  7989  7998       L1    10  1.00

> <Gold.PLP.Chemscore.Internal.Correction>
0.0930

> <Gold.Rescore>
     Score         DG    S(hbond)    S(metal)    S(lipo)     H(rot)  DE(clash)    DE(int)     intcor
     11.99     -14.16       1.96        0.00      64.99       2.14       0.00       2.17       ----

> <Gold.Chemscore.Fitness>
11.9934

> <Gold.Chemscore.DG>
-14.1620

> <Gold.Chemscore.ZeroCoef>
-5.4800

> <Gold.Chemscore.Hbond>
1.9616

> <Gold.Chemscore.Metal>
0.0000

> <Gold.Chemscore.Lipo>
64.9881

> <Gold.Chemscore.Internal_Hbond>
0.0000

> <Gold.Chemscore.DEClash>
0.0015

> <Gold.Chemscore.DEInternal>
2.1671

> <Gold.Chemscore.Rot>
2.1381

> <Gold.Chemscore.Internal.Correction>
   9.000000E+99

> <Gold.Chemscore.Hbonds>
donor molecule, donor type, donor heavy atom, donor atom, acceptor molecule, acceptor atom, score
      L1  H    16    48       P1  7948  0.85
      P1  H  7989  7998       L1    10  0.39

> <Gold.Chemscore.Hbond.Weighted>
-6.5519

> <Gold.Chemscore.Metal.Weighted>
-0.0000

> <Gold.Chemscore.Lipo.Weighted>
-7.6036

> <Gold.Chemscore.Internal_Hbond.Weighted>
0.0000

> <Gold.Chemscore.DEClash.Weighted>
0.0015

> <Gold.Chemscore.DEInternal.Weighted>
2.1671

> <Gold.Chemscore.Rot.Weighted>
5.4735

> <Gold.Chemscore.Internal.Correction.Weighted>
   9.000000E+99

> <Gold.Protein.RotatedTorsions>
[ 6907 6896 6895 6894 ] final  136.80 input  -60.11 | X-H torsion
[ 7974 7965 7964 7962 ] final -128.47 input  175.53 | X-H torsion
[ 8008 7997 7996 7995 ] final -136.50 input   59.86 | X-H torsion
[ 10167 10162 10161 10158 ] final   70.65 input  -65.29 | X-H torsion
[ 10718 10713 10712 10709 ] final  100.00 input   66.30 | X-H torsion
[ 10763 10752 10751 10750 ] final -119.34 input  -60.55 | X-H torsion
[ 11005 11000 10999 10996 ] final    9.71 input  -57.11 | X-H torsion

> <Gold.Protein.ActiveResidues>
 VAL166  LYS551  ARG553  GLY616  TRP617  ASP618  TYR619  PRO620  LYS621  CYS622 
 ASP623  PHE694  ASN695  SER759  ASP760  ASP761  ALA762  ILE779  LEU786  VAL792 
 PHE793  MET794  SER795  GLU796  ALA797  LYS798  CYS799  TRP800  GLU811  SER814 

> <Gold.Protein.RotatedAtoms>
  152.2853  133.5509  159.5523 H   0  0  0  0  0  0  0  0  0  0  0  0  # atno 6907 bound_to 6896
  150.7212  134.0506  159.3806 H   0  0  0  0  0  0  0  0  0  0  0  0  # atno 6908 bound_to 6896
  151.8414  135.0589  160.0499 H   0  0  0  0  0  0  0  0  0  0  0  0  # atno 6909 bound_to 6896
  144.9668  140.7504  143.4695 H   0  0  0  0  0  0  0  0  0  0  0  0  # atno 7974 bound_to 7965
  155.3963  140.0503  157.3038 H   0  0  0  0  0  0  0  0  0  0  0  0  # atno 8008 bound_to 7997
  154.5012  140.2157  155.9304 H   0  0  0  0  0  0  0  0  0  0  0  0  # atno 8009 bound_to 7997
  156.1469  140.3143  155.8590 H   0  0  0  0  0  0  0  0  0  0  0  0  # atno 8010 bound_to 7997
  140.0547  144.5283  150.7338 H   0  0  0  0  0  0  0  0  0  0  0  0  # atno 10167 bound_to 10162
  157.6864  131.0686  150.5033 H   0  0  0  0  0  0  0  0  0  0  0  0  # atno 10718 bound_to 10713
  154.8614  135.4242  154.2283 H   0  0  0  0  0  0  0  0  0  0  0  0  # atno 10763 bound_to 10752
  153.3273  135.6986  153.6983 H   0  0  0  0  0  0  0  0  0  0  0  0  # atno 10764 bound_to 10752
  153.6014  135.3536  155.2920 H   0  0  0  0  0  0  0  0  0  0  0  0  # atno 10765 bound_to 10752
  140.5227  134.0543  155.7849 H   0  0  0  0  0  0  0  0  0  0  0  0  # atno 11005 bound_to 11000
  145.2618  139.1989  143.4888 LP  0  0  0  0  0  0  0  0  0  0  0  0  # atno 17320 bound_to 7965
  146.3370  140.2550  142.8600 LP  0  0  0  0  0  0  0  0  0  0  0  0  # atno 17321 bound_to 7965
  140.7200  143.2580  151.4309 LP  0  0  0  0  0  0  0  0  0  0  0  0  # atno 17342 bound_to 10162
  139.5931  144.1455  152.2112 LP  0  0  0  0  0  0  0  0  0  0  0  0  # atno 17343 bound_to 10162
  156.5354  130.4195  149.6180 LP  0  0  0  0  0  0  0  0  0  0  0  0  # atno 17370 bound_to 10713
  156.3032  130.7188  151.2065 LP  0  0  0  0  0  0  0  0  0  0  0  0  # atno 17371 bound_to 10713
  141.1325  133.9278  157.2505 LP  0  0  0  0  0  0  0  0  0  0  0  0  # atno 17394 bound_to 11000
  139.9597  135.0157  156.9226 LP  0  0  0  0  0  0  0  0  0  0  0  0  # atno 17395 bound_to 11000

$$$$
