AV-unprocessed.smi:1464|AV-procd|sdf|5936|dock4
  -GOLD-   22720 6 13D 1   1.00000     0.00000
 Structure written by MMmdl.
 40 41  0  0  0  0  0  0  0  0  2 V2000
  151.8677  143.1582  159.0662 C   0  0  0  0  0  0  0  0  0  0  0  0
  150.9251  142.2197  158.2944 C   0  0  1  0  0  0  0  0  0  0  0  0
  151.1614  142.2974  156.7724 C   0  0  0  0  0  0  0  0  0  0  0  0
  150.1504  141.4350  156.0003 C   0  0  0  0  0  0  0  0  0  0  0  0
  150.1540  139.9816  156.4968 C   0  0  0  0  0  0  0  0  0  0  0  0
  149.9111  139.9103  158.0167 C   0  0  1  0  0  0  0  0  0  0  0  0
  149.8846  138.5150  158.4494 N   0  0  0  0  0  0  0  0  0  0  0  0
  148.7966  137.8533  158.8726 C   0  0  0  0  0  0  0  0  0  0  0  0
  147.6727  138.3565  158.9078 O   0  0  0  0  0  0  0  0  0  0  0  0
  149.0215  136.3973  159.3087 C   0  0  0  0  0  0  0  0  0  0  0  0
  148.2416  136.0127  160.4943 N   0  0  0  0  0  0  0  0  0  0  0  0
  147.9028  137.1317  161.3696 N   0  5  0  0  0  0  0  0  0  0  0  0
  147.2098  136.8913  162.5141 C   0  0  0  0  0  0  0  0  0  0  0  0
  146.9087  137.7782  163.3097 O   0  0  0  0  0  0  0  0  0  0  0  0
  146.8072  135.5234  162.7960 C   0  0  0  0  0  0  0  0  0  0  0  0
  147.1039  134.5149  161.9527 C   0  0  0  0  0  0  0  0  0  0  0  0
  147.8502  134.7252  160.7182 C   0  0  0  0  0  0  0  0  0  0  0  0
  148.1131  133.8104  159.9367 O   0  0  0  0  0  0  0  0  0  0  0  0
  150.9525  140.7538  158.8045 C   0  0  1  0  0  0  0  0  0  0  0  0
  152.3662  140.1259  158.8107 C   0  0  0  0  0  0  0  0  0  0  0  0
  152.9156  142.9334  158.8683 H   0  0  0  0  0  0  0  0  0  0  0  0
  151.7040  143.0835  160.1416 H   0  0  0  0  0  0  0  0  0  0  0  0
  151.7003  144.1969  158.7804 H   0  0  0  0  0  0  0  0  0  0  0  0
  149.9160  142.5932  158.4765 H   0  0  0  0  0  0  0  0  0  0  0  0
  151.0808  143.3319  156.4371 H   0  0  0  0  0  0  0  0  0  0  0  0
  152.1761  141.9788  156.5324 H   0  0  0  0  0  0  0  0  0  0  0  0
  149.1506  141.8550  156.1175 H   0  0  0  0  0  0  0  0  0  0  0  0
  150.3739  141.4649  154.9336 H   0  0  0  0  0  0  0  0  0  0  0  0
  149.3833  139.4179  155.9697 H   0  0  0  0  0  0  0  0  0  0  0  0
  151.1037  139.5097  156.2425 H   0  0  0  0  0  0  0  0  0  0  0  0
  148.9210  140.3322  158.2022 H   0  0  0  0  0  0  0  0  0  0  0  0
  150.7652  138.0213  158.4488 H   0  0  0  0  0  0  0  0  0  0  0  0
  148.7794  135.7532  158.4616 H   0  0  0  0  0  0  0  0  0  0  0  0
  150.0817  136.2322  159.5099 H   0  0  0  0  0  0  0  0  0  0  0  0
  146.2549  135.3114  163.6994 H   0  0  0  0  0  0  0  0  0  0  0  0
  146.7819  133.5144  162.2004 H   0  0  0  0  0  0  0  0  0  0  0  0
  150.6272  140.7764  159.8457 H   0  0  0  0  0  0  0  0  0  0  0  0
  152.7976  140.0762  157.8118 H   0  0  0  0  0  0  0  0  0  0  0  0
  152.3526  139.1131  159.2130 H   0  0  0  0  0  0  0  0  0  0  0  0
  153.0525  140.6925  159.4388 H   0  0  0  0  0  0  0  0  0  0  0  0
  1  2  1  0  0  0  0
  1 21  1  0  0  0  0
  1 22  1  0  0  0  0
  1 23  1  0  0  0  0
  2 19  1  0  0  0  0
  2  3  1  0  0  0  0
  2 24  1  0  0  0  0
  3  4  1  0  0  0  0
  3 25  1  0  0  0  0
  3 26  1  0  0  0  0
  4  5  1  0  0  0  0
  4 27  1  0  0  0  0
  4 28  1  0  0  0  0
  5  6  1  0  0  0  0
  5 29  1  0  0  0  0
  5 30  1  0  0  0  0
  6  7  1  0  0  0  0
  6 19  1  0  0  0  0
  6 31  1  0  0  0  0
  7  8  1  0  0  0  0
  7 32  1  0  0  0  0
  8  9  2  0  0  0  0
  8 10  1  0  0  0  0
 10 33  1  0  0  0  0
 10 34  1  0  0  0  0
 10 11  1  0  0  0  0
 11 12  1  0  0  0  0
 11 17  1  0  0  0  0
 12 13  1  0  0  0  0
 13 14  2  0  0  0  0
 13 15  1  0  0  0  0
 15 35  1  0  0  0  0
 15 16  2  0  0  0  0
 16 36  1  0  0  0  0
 16 17  1  0  0  0  0
 17 18  2  0  0  0  0
 19 20  1  0  0  0  0
 19 37  1  0  0  0  0
 20 38  1  0  0  0  0
 20 39  1  0  0  0  0
 20 40  1  0  0  0  0
M  CHG  1  12  -1
M  END
> <s_m_source_file>
AV-unprocessed.smi

> <i_m_source_file_index>
1464

> <i_lp_mmshare_version>
43012

> <i_f3d_flags>
0

> <s_epik_input>
W0NIM11bQ0BASF0xW0NIMl1bQ0gyXVtDSDJdW0NASF0oW0NASF0xW0NIM10pW05IXUMoPU8pW0NIMl1uMltuSF1jKD1PKVtjSF1bY0hdYzI9Tw==

> <s_epik_cmdline>
J2VwaWtfcHl0aG9uJywgJy1waCcsICc3LjAnLCAnLXRuJywgJzgnLCAnLW1hJywgJzIwMCcsICctbWV0YWxfYmluZGluZycsICctaW1hZScsICc8aW5maWxlLm1hZT4nLCAnLW9tYWUnLCAnPG91dGZpbGUubWFlPic=

> <r_lp_tautomer_probability>
1

> <r_epik_Ionization_Penalty>
0.101366

> <r_epik_Ionization_Penalty_Charging>
0.101366

> <r_epik_Ionization_Penalty_Neutral>
1.90469e-08

> <r_epik_State_Penalty>
0.035861

> <r_epik_Charging_Adjusted_Penalty>
0.137227

> <i_epik_Tot_Q>
-1

> <i_epik_Tot_abs_Q>
1

> <r_epik_Metal_State_Penalty>
0.035861

> <b_epik_Metal_Only>
0

> <s_lp_Force_Field>
OPLS_2005

> <r_lp_Energy>
30.1614

> <b_lp_Chiralities_Consistent>
1

> <s_lp_Variant>
AV-unprocessed.smi:1464-2

> <Gold.Version>
5.8.1

> <Gold.Id.Protein>
6NUR|6NUR_protein|mol2

> <Gold.PLP.Fitness>
42.9277

> <Gold.PLP.PLP>
-33.7760

> <Gold.PLP.part.hbond>
-4.2686

> <Gold.PLP.part.metal>
0.0000

> <Gold.PLP.part.buried>
-3.6975

> <Gold.PLP.part.nonpolar>
-28.0042

> <Gold.PLP.part.repulsive>
0.1573

> <Gold.PLP.ligand.clash>
0.0521

> <Gold.PLP.ligand.torsion>
0.7113

> <Gold.PLP.Chemscore.Hbond>
3.5360

> <Gold.PLP.Chemscore.CHOScore>
0.0000

> <Gold.PLP.Chemscore.Metal>
0.0000

> <Gold.Chemscore.Hbonds>
donor molecule, donor type, donor heavy atom, donor atom, acceptor molecule, acceptor atom, score
      P1  H  6931  6943       L1    12  2.00
      P1  H  6934  6947       L1    12  1.24

> <Gold.PLP.Chemscore.Internal.Correction>
0.0184

> <Gold.Rescore>
     Score         DG    S(hbond)    S(metal)    S(lipo)     H(rot)  DE(clash)    DE(int)     intcor
     10.06     -12.47       0.90        0.00      70.11       1.64       0.24       2.17       ----

> <Gold.Chemscore.Fitness>
10.0599

> <Gold.Chemscore.DG>
-12.4714

> <Gold.Chemscore.ZeroCoef>
-5.4800

> <Gold.Chemscore.Hbond>
0.8972

> <Gold.Chemscore.Metal>
0.0000

> <Gold.Chemscore.Lipo>
70.1090

> <Gold.Chemscore.Internal_Hbond>
0.0000

> <Gold.Chemscore.DEClash>
0.2418

> <Gold.Chemscore.DEInternal>
2.1697

> <Gold.Chemscore.Rot>
1.6438

> <Gold.Chemscore.Internal.Correction>
   9.000000E+99

> <Gold.Chemscore.Hbonds>
donor molecule, donor type, donor heavy atom, donor atom, acceptor molecule, acceptor atom, score
      P1  H  6931  6943       L1    12  0.29
      P1  H  6934  6947       L1    12  0.14

> <Gold.Chemscore.Hbond.Weighted>
-2.9966

> <Gold.Chemscore.Metal.Weighted>
-0.0000

> <Gold.Chemscore.Lipo.Weighted>
-8.2028

> <Gold.Chemscore.Internal_Hbond.Weighted>
0.0000

> <Gold.Chemscore.DEClash.Weighted>
0.2418

> <Gold.Chemscore.DEInternal.Weighted>
2.1697

> <Gold.Chemscore.Rot.Weighted>
4.2080

> <Gold.Chemscore.Internal.Correction.Weighted>
   9.000000E+99

> <Gold.Protein.RotatedTorsions>
[ 6907 6896 6895 6894 ] final   66.64 input  -60.11 | X-H torsion
[ 7974 7965 7964 7962 ] final   47.98 input  175.53 | X-H torsion
[ 8008 7997 7996 7995 ] final   62.45 input   59.86 | X-H torsion
[ 10167 10162 10161 10158 ] final  154.37 input  -65.29 | X-H torsion
[ 10718 10713 10712 10709 ] final  171.77 input   66.30 | X-H torsion
[ 10763 10752 10751 10750 ] final   81.59 input  -60.55 | X-H torsion
[ 11005 11000 10999 10996 ] final  -75.57 input  -57.11 | X-H torsion

> <Gold.Protein.ActiveResidues>
 VAL166  LYS551  ARG553  GLY616  TRP617  ASP618  TYR619  PRO620  LYS621  CYS622 
 ASP623  PHE694  ASN695  SER759  ASP760  ASP761  ALA762  ILE779  LEU786  VAL792 
 PHE793  MET794  SER795  GLU796  ALA797  LYS798  CYS799  TRP800  GLU811  SER814 

> <Gold.Protein.RotatedAtoms>
  152.4495  134.5423  159.9842 H   0  0  0  0  0  0  0  0  0  0  0  0  # atno 6907 bound_to 6896
  151.5500  133.3413  159.2959 H   0  0  0  0  0  0  0  0  0  0  0  0  # atno 6908 bound_to 6896
  150.8420  134.7748  159.7003 H   0  0  0  0  0  0  0  0  0  0  0  0  # atno 6909 bound_to 6896
  146.0247  139.4692  142.9875 H   0  0  0  0  0  0  0  0  0  0  0  0  # atno 7974 bound_to 7965
  155.6145  140.3495  155.4632 H   0  0  0  0  0  0  0  0  0  0  0  0  # atno 8008 bound_to 7997
  156.0128  140.1237  157.0461 H   0  0  0  0  0  0  0  0  0  0  0  0  # atno 8009 bound_to 7997
  154.4287  140.1078  156.5840 H   0  0  0  0  0  0  0  0  0  0  0  0  # atno 8010 bound_to 7997
  139.4823  144.5192  151.7903 H   0  0  0  0  0  0  0  0  0  0  0  0  # atno 10167 bound_to 10162
  156.9887  131.0141  151.2862 H   0  0  0  0  0  0  0  0  0  0  0  0  # atno 10718 bound_to 10713
  153.1130  135.4760  154.9067 H   0  0  0  0  0  0  0  0  0  0  0  0  # atno 10763 bound_to 10752
  154.7499  135.3103  154.8578 H   0  0  0  0  0  0  0  0  0  0  0  0  # atno 10764 bound_to 10752
  153.9162  135.6860  153.4803 H   0  0  0  0  0  0  0  0  0  0  0  0  # atno 10765 bound_to 10752
  141.1646  133.6951  156.7537 H   0  0  0  0  0  0  0  0  0  0  0  0  # atno 11005 bound_to 11000
  145.7137  141.0098  143.1439 LP  0  0  0  0  0  0  0  0  0  0  0  0  # atno 17320 bound_to 7965
  144.7004  139.8788  143.7445 LP  0  0  0  0  0  0  0  0  0  0  0  0  # atno 17321 bound_to 7965
  140.4704  144.1595  150.5917 LP  0  0  0  0  0  0  0  0  0  0  0  0  # atno 17342 bound_to 10162
  140.4388  143.2535  151.9500 LP  0  0  0  0  0  0  0  0  0  0  0  0  # atno 17343 bound_to 10162
  157.5474  130.8160  149.8103 LP  0  0  0  0  0  0  0  0  0  0  0  0  # atno 17370 bound_to 10713
  156.0215  130.3794  150.1947 LP  0  0  0  0  0  0  0  0  0  0  0  0  # atno 17371 bound_to 10713
  140.2585  134.8485  157.3736 LP  0  0  0  0  0  0  0  0  0  0  0  0  # atno 17394 bound_to 11000
  140.1634  134.4700  155.7879 LP  0  0  0  0  0  0  0  0  0  0  0  0  # atno 17395 bound_to 11000

$$$$
