AV-unprocessed.smi:1631|AV-procd|sdf|6527|dock8
  -GOLD-   22720 7203D 1   1.00000     0.00000
 Structure written by MMmdl.
 38 39  0  0  0  0  0  0  0  0  1 V2000
  153.1957  138.5472  155.0978 C   0  0  0  0  0  0  0  0  0  0  0  0
  151.8065  139.1173  155.1943 C   0  0  0  0  0  0  0  0  0  0  0  0
  151.7141  140.3714  155.4913 N   0  0  0  0  0  0  0  0  0  0  0  0
  150.4880  141.0000  155.5890 N   0  0  0  0  0  0  0  0  0  0  0  0
  150.5689  142.4391  155.8744 C   0  0  0  0  0  0  0  0  0  0  0  0
  150.2620  142.7734  157.3550 C   0  0  1  0  0  0  0  0  0  0  0  0
  148.9255  142.3992  157.6177 O   0  0  0  0  0  0  0  0  0  0  0  0
  151.2343  142.1147  158.3377 C   0  0  0  0  0  0  0  0  0  0  0  0
  151.4627  140.7250  158.2070 C   0  0  0  0  0  0  0  0  0  0  0  0
  152.3640  140.0554  159.0521 C   0  0  0  0  0  0  0  0  0  0  0  0
  153.0468  140.7707  160.0484 C   0  0  0  0  0  0  0  0  0  0  0  0
  152.8191  142.1498  160.2015 C   0  0  0  0  0  0  0  0  0  0  0  0
  151.9126  142.8390  159.3607 C   0  0  0  0  0  0  0  0  0  0  0  0
  151.6852  144.3341  159.5892 C   0  0  0  0  0  0  0  0  0  0  0  0
  152.3111  144.7700  160.6830 F   0  0  0  0  0  0  0  0  0  0  0  0
  152.1475  145.0370  158.5570 F   0  0  0  0  0  0  0  0  0  0  0  0
  150.3846  144.5815  159.7471 F   0  0  0  0  0  0  0  0  0  0  0  0
  149.2840  140.3803  155.4324 C   0  0  0  0  0  0  0  0  0  0  0  0
  148.2119  140.9755  155.5509 O   0  0  0  0  0  0  0  0  0  0  0  0
  149.3951  138.9590  155.0966 C   0  0  0  0  0  0  0  0  0  0  0  0
  148.1570  138.2759  154.9030 C   0  0  0  0  0  0  0  0  0  0  0  0
  147.1626  137.7078  154.7335 N   0  0  0  0  0  0  0  0  0  0  0  0
  150.5940  138.3367  154.9712 C   0  0  0  0  0  0  0  0  0  0  0  0
  150.7634  136.8653  154.6196 C   0  0  0  0  0  0  0  0  0  0  0  0
  153.3137  137.6956  155.7680 H   0  0  0  0  0  0  0  0  0  0  0  0
  153.9564  139.2828  155.3643 H   0  0  0  0  0  0  0  0  0  0  0  0
  153.4052  138.2114  154.0820 H   0  0  0  0  0  0  0  0  0  0  0  0
  151.5573  142.8169  155.6055 H   0  0  0  0  0  0  0  0  0  0  0  0
  149.8799  142.9768  155.2203 H   0  0  0  0  0  0  0  0  0  0  0  0
  150.2875  143.8549  157.4555 H   0  0  0  0  0  0  0  0  0  0  0  0
  148.8731  142.0794  158.5055 H   0  0  0  0  0  0  0  0  0  0  0  0
  150.9478  140.1621  157.4425 H   0  0  0  0  0  0  0  0  0  0  0  0
  152.5314  138.9949  158.9344 H   0  0  0  0  0  0  0  0  0  0  0  0
  153.7409  140.2613  160.7004 H   0  0  0  0  0  0  0  0  0  0  0  0
  153.3524  142.6711  160.9818 H   0  0  0  0  0  0  0  0  0  0  0  0
  149.8132  136.3837  154.3910 H   0  0  0  0  0  0  0  0  0  0  0  0
  151.2158  136.3251  155.4517 H   0  0  0  0  0  0  0  0  0  0  0  0
  151.4040  136.7487  153.7449 H   0  0  0  0  0  0  0  0  0  0  0  0
  1  2  1  0  0  0  0
  1 25  1  0  0  0  0
  1 26  1  0  0  0  0
  1 27  1  0  0  0  0
  2 23  1  0  0  0  0
  2  3  2  0  0  0  0
  3  4  1  0  0  0  0
  4  5  1  0  0  0  0
  4 18  1  0  0  0  0
  5  6  1  0  0  0  0
  5 28  1  0  0  0  0
  5 29  1  0  0  0  0
  6  7  1  0  0  0  0
  6  8  1  0  0  0  0
  6 30  1  0  0  0  0
  7 31  1  0  0  0  0
  8 13  1  0  0  0  0
  8  9  2  0  0  0  0
  9 10  1  0  0  0  0
  9 32  1  0  0  0  0
 10 11  2  0  0  0  0
 10 33  1  0  0  0  0
 11 12  1  0  0  0  0
 11 34  1  0  0  0  0
 12 13  2  0  0  0  0
 12 35  1  0  0  0  0
 13 14  1  0  0  0  0
 14 15  1  0  0  0  0
 14 16  1  0  0  0  0
 14 17  1  0  0  0  0
 18 19  2  0  0  0  0
 18 20  1  0  0  0  0
 20 21  1  0  0  0  0
 20 23  2  0  0  0  0
 21 22  3  0  0  0  0
 23 24  1  0  0  0  0
 24 36  1  0  0  0  0
 24 37  1  0  0  0  0
 24 38  1  0  0  0  0
M  END
> <s_m_source_file>
AV-unprocessed.smi

> <i_m_source_file_index>
1631

> <i_lp_mmshare_version>
43012

> <i_f3d_flags>
0

> <s_epik_input>
TiNDYyhjMVtDSDNdKWMoPU8pbihuYzFbQ0gzXSlbQ0gyXVtDQEhdKFtPSF0pYzJbY0hdW2NIXVtjSF1bY0hdYzJDKEYpKEYpRg==

> <s_epik_cmdline>
J2VwaWtfcHl0aG9uJywgJy1waCcsICc3LjAnLCAnLXRuJywgJzgnLCAnLW1hJywgJzIwMCcsICctbWV0YWxfYmluZGluZycsICctaW1hZScsICc8aW5maWxlLm1hZT4nLCAnLW9tYWUnLCAnPG91dGZpbGUubWFlPic=

> <r_lp_tautomer_probability>
1

> <r_epik_Ionization_Penalty>
7.1854e-08

> <r_epik_Ionization_Penalty_Charging>
1.40848e-10

> <r_epik_Ionization_Penalty_Neutral>
7.17131e-08

> <r_epik_State_Penalty>
-0

> <r_epik_Charging_Adjusted_Penalty>
1.40848e-10

> <i_epik_Tot_Q>
0

> <i_epik_Tot_abs_Q>
0

> <r_epik_Metal_State_Penalty>
-0

> <b_epik_Metal_Only>
0

> <s_lp_Force_Field>
OPLS_2005

> <r_lp_Energy>
27.8833

> <b_lp_Chiralities_Consistent>
1

> <s_lp_Variant>
AV-unprocessed.smi:1631-2

> <Gold.Version>
5.8.1

> <Gold.Id.Protein>
6NUR|6NUR_protein|mol2

> <Gold.PLP.Fitness>
44.5736

> <Gold.PLP.PLP>
-45.2739

> <Gold.PLP.part.hbond>
-2.0000

> <Gold.PLP.part.metal>
0.0000

> <Gold.PLP.part.buried>
-2.2122

> <Gold.PLP.part.nonpolar>
-42.5334

> <Gold.PLP.part.repulsive>
0.1445

> <Gold.PLP.ligand.clash>
1.4816

> <Gold.PLP.ligand.torsion>
0.5618

> <Gold.PLP.Chemscore.Hbond>
0.1345

> <Gold.PLP.Chemscore.CHOScore>
0.0000

> <Gold.PLP.Chemscore.Metal>
0.0000

> <Gold.Chemscore.Hbonds>
donor molecule, donor type, donor heavy atom, donor atom, acceptor molecule, acceptor atom, score
      P1  H  7989  7998       L1     3  0.13

> <Gold.PLP.Chemscore.Internal.Correction>
1.5017

> <Gold.Rescore>
     Score         DG    S(hbond)    S(metal)    S(lipo)     H(rot)  DE(clash)    DE(int)     intcor
      6.45     -13.86       0.00        0.00     117.86       2.11       0.92       6.50       ----

> <Gold.Chemscore.Fitness>
6.4510

> <Gold.Chemscore.DG>
-13.8624

> <Gold.Chemscore.ZeroCoef>
-5.4800

> <Gold.Chemscore.Hbond>
0.0000

> <Gold.Chemscore.Metal>
0.0000

> <Gold.Chemscore.Lipo>
117.8641

> <Gold.Chemscore.Internal_Hbond>
0.0000

> <Gold.Chemscore.DEClash>
0.9161

> <Gold.Chemscore.DEInternal>
6.4953

> <Gold.Chemscore.Rot>
2.1124

> <Gold.Chemscore.Internal.Correction>
   9.000000E+99

> <Gold.Chemscore.Hbond.Weighted>
-0.0001

> <Gold.Chemscore.Metal.Weighted>
-0.0000

> <Gold.Chemscore.Lipo.Weighted>
-13.7901

> <Gold.Chemscore.Internal_Hbond.Weighted>
0.0000

> <Gold.Chemscore.DEClash.Weighted>
0.9161

> <Gold.Chemscore.DEInternal.Weighted>
6.4953

> <Gold.Chemscore.Rot.Weighted>
5.4078

> <Gold.Chemscore.Internal.Correction.Weighted>
   9.000000E+99

> <Gold.Protein.RotatedTorsions>
[ 6907 6896 6895 6894 ] final -135.01 input  -60.11 | X-H torsion
[ 7974 7965 7964 7962 ] final   -7.27 input  175.53 | X-H torsion
[ 8008 7997 7996 7995 ] final   99.64 input   59.86 | X-H torsion
[ 10167 10162 10161 10158 ] final  -35.65 input  -65.29 | X-H torsion
[ 10718 10713 10712 10709 ] final -158.32 input   66.30 | X-H torsion
[ 10763 10752 10751 10750 ] final -109.58 input  -60.55 | X-H torsion
[ 11005 11000 10999 10996 ] final  -15.51 input  -57.11 | X-H torsion

> <Gold.Protein.ActiveResidues>
 VAL166  LYS551  ARG553  GLY616  TRP617  ASP618  TYR619  PRO620  LYS621  CYS622 
 ASP623  PHE694  ASN695  SER759  ASP760  ASP761  ALA762  ILE779  LEU786  VAL792 
 PHE793  MET794  SER795  GLU796  ALA797  LYS798  CYS799  TRP800  GLU811  SER814 

> <Gold.Protein.RotatedAtoms>
  150.9927  133.6134  159.2705 H   0  0  0  0  0  0  0  0  0  0  0  0  # atno 6907 bound_to 6896
  151.3348  135.0849  159.9361 H   0  0  0  0  0  0  0  0  0  0  0  0  # atno 6908 bound_to 6896
  152.5250  133.9549  159.7744 H   0  0  0  0  0  0  0  0  0  0  0  0  # atno 6909 bound_to 6896
  146.2311  140.2294  142.8340 H   0  0  0  0  0  0  0  0  0  0  0  0  # atno 7974 bound_to 7965
  156.1125  140.3225  155.8092 H   0  0  0  0  0  0  0  0  0  0  0  0  # atno 8008 bound_to 7997
  155.4648  140.0542  157.3004 H   0  0  0  0  0  0  0  0  0  0  0  0  # atno 8009 bound_to 7997
  154.4770  140.2036  155.9869 H   0  0  0  0  0  0  0  0  0  0  0  0  # atno 8010 bound_to 7997
  140.7160  143.3463  151.2250 H   0  0  0  0  0  0  0  0  0  0  0  0  # atno 10167 bound_to 10162
  156.5525  130.8611  151.2784 H   0  0  0  0  0  0  0  0  0  0  0  0  # atno 10718 bound_to 10713
  154.8201  135.4595  154.0755 H   0  0  0  0  0  0  0  0  0  0  0  0  # atno 10763 bound_to 10752
  153.2115  135.6882  153.8115 H   0  0  0  0  0  0  0  0  0  0  0  0  # atno 10764 bound_to 10752
  153.7564  135.3290  155.3306 H   0  0  0  0  0  0  0  0  0  0  0  0  # atno 10765 bound_to 10752
  140.7974  133.8241  155.9437 H   0  0  0  0  0  0  0  0  0  0  0  0  # atno 11005 bound_to 11000
  144.9569  140.8236  143.5537 LP  0  0  0  0  0  0  0  0  0  0  0  0  # atno 17320 bound_to 7965
  145.2261  139.2136  143.5067 LP  0  0  0  0  0  0  0  0  0  0  0  0  # atno 17321 bound_to 7965
  139.6983  143.9576  152.2893 LP  0  0  0  0  0  0  0  0  0  0  0  0  # atno 17342 bound_to 10162
  139.9261  144.6770  150.8411 LP  0  0  0  0  0  0  0  0  0  0  0  0  # atno 17343 bound_to 10162
  157.7385  130.9814  150.2254 LP  0  0  0  0  0  0  0  0  0  0  0  0  # atno 17370 bound_to 10713
  156.2872  130.3741  149.7877 LP  0  0  0  0  0  0  0  0  0  0  0  0  # atno 17371 bound_to 10713
  140.9329  134.1999  157.4851 LP  0  0  0  0  0  0  0  0  0  0  0  0  # atno 17394 bound_to 11000
  139.8725  134.9840  156.5222 LP  0  0  0  0  0  0  0  0  0  0  0  0  # atno 17395 bound_to 11000

$$$$
