AV-unprocessed.smi:3056|AV-procd|sdf|11649|dock5
  -GOLD-   2272017 43D 1   1.00000     0.00000
 Structure written by MMmdl.
 48 49  0  0  0  0  0  0  0  0  2 V2000
  144.0000  131.9670  150.7128 C   0  0  0  0  0  0  0  0  0  0  0  0
  145.2763  132.5855  151.2063 C   0  0  0  0  0  0  0  0  0  0  0  0
  145.5201  133.9525  151.5205 C   0  0  0  0  0  0  0  0  0  0  0  0
  146.7574  134.1714  151.9334 N   0  0  0  0  0  0  0  0  0  0  0  0
  147.3481  132.9562  151.8989 N   0  0  0  0  0  0  0  0  0  0  0  0
  148.7411  132.8079  152.3006 C   0  0  2  0  0  0  0  0  0  0  0  0
  149.1792  131.3417  152.1211 C   0  0  0  0  0  0  0  0  0  0  0  0
  148.9922  133.3610  153.7314 C   0  0  2  0  0  0  0  0  0  0  0  0
  147.6871  133.5564  154.5252 C   0  0  0  0  0  0  0  0  0  0  0  0
  149.7156  134.6545  153.6819 N   0  3  0  0  0  0  0  0  0  0  0  0
  150.0671  135.2423  154.9963 C   0  0  0  0  0  0  0  0  0  0  0  0
  151.4661  135.8825  155.0255 C   0  0  0  0  0  0  0  0  0  0  0  0
  152.4363  135.2034  154.6858 O   0  0  0  0  0  0  0  0  0  0  0  0
  151.5924  137.1687  155.4310 N   0  0  0  0  0  0  0  0  0  0  0  0
  152.8324  137.9510  155.4526 C   0  0  0  0  0  0  0  0  0  0  0  0
  152.6847  139.1210  154.4640 C   0  0  0  0  0  0  0  0  0  0  0  0
  151.5489  139.9071  154.8158 O   0  0  0  0  0  0  0  0  0  0  0  0
  150.3287  139.1683  154.8218 C   0  0  2  0  0  0  0  0  0  0  0  0
  149.1889  140.1262  155.1849 C   0  0  0  0  0  0  0  0  0  0  0  0
  150.4515  138.0019  155.8226 C   0  0  0  0  0  0  0  0  0  0  0  0
  146.4738  131.9812  151.4653 C   0  0  0  0  0  0  0  0  0  0  0  0
  143.3504  132.7037  150.2395 H   0  0  0  0  0  0  0  0  0  0  0  0
  143.4334  131.5141  151.5264 H   0  0  0  0  0  0  0  0  0  0  0  0
  144.1877  131.1852  149.9764 H   0  0  0  0  0  0  0  0  0  0  0  0
  144.8377  134.7876  151.4613 H   0  0  0  0  0  0  0  0  0  0  0  0
  149.3295  133.4085  151.6048 H   0  0  0  0  0  0  0  0  0  0  0  0
  150.2547  131.2246  152.2517 H   0  0  0  0  0  0  0  0  0  0  0  0
  148.9395  130.9837  151.1193 H   0  0  0  0  0  0  0  0  0  0  0  0
  148.6812  130.6841  152.8347 H   0  0  0  0  0  0  0  0  0  0  0  0
  149.5943  132.6399  154.2870 H   0  0  0  0  0  0  0  0  0  0  0  0
  147.1641  132.6136  154.6862 H   0  0  0  0  0  0  0  0  0  0  0  0
  147.0052  134.2315  154.0072 H   0  0  0  0  0  0  0  0  0  0  0  0
  147.8866  133.9795  155.5100 H   0  0  0  0  0  0  0  0  0  0  0  0
  150.5609  134.5177  153.1471 H   0  0  0  0  0  0  0  0  0  0  0  0
  149.3099  135.9713  155.2851 H   0  0  0  0  0  0  0  0  0  0  0  0
  150.0466  134.4398  155.7341 H   0  0  0  0  0  0  0  0  0  0  0  0
  152.9978  138.3326  156.4613 H   0  0  0  0  0  0  0  0  0  0  0  0
  153.7232  137.3790  155.1998 H   0  0  0  0  0  0  0  0  0  0  0  0
  153.5726  139.7525  154.4912 H   0  0  0  0  0  0  0  0  0  0  0  0
  152.5833  138.7553  153.4409 H   0  0  0  0  0  0  0  0  0  0  0  0
  150.1479  138.7750  153.8197 H   0  0  0  0  0  0  0  0  0  0  0  0
  148.2290  139.6097  155.1916 H   0  0  0  0  0  0  0  0  0  0  0  0
  149.1216  140.9422  154.4650 H   0  0  0  0  0  0  0  0  0  0  0  0
  149.3404  140.5642  156.1718 H   0  0  0  0  0  0  0  0  0  0  0  0
  149.5137  137.4458  155.8586 H   0  0  0  0  0  0  0  0  0  0  0  0
  150.6140  138.3822  156.8325 H   0  0  0  0  0  0  0  0  0  0  0  0
  146.7722  130.9469  151.3765 H   0  0  0  0  0  0  0  0  0  0  0  0
  149.1359  135.3257  153.1977 H   0  0  0  0  0  0  0  0  0  0  0  0
  1  2  1  0  0  0  0
  1 22  1  0  0  0  0
  1 23  1  0  0  0  0
  1 24  1  0  0  0  0
  2 21  2  0  0  0  0
  2  3  1  0  0  0  0
  3  4  2  0  0  0  0
  3 25  1  0  0  0  0
  4  5  1  0  0  0  0
  5  6  1  0  0  0  0
  5 21  1  0  0  0  0
  6  7  1  0  0  0  0
  6  8  1  0  0  0  0
  6 26  1  0  0  0  0
  7 27  1  0  0  0  0
  7 28  1  0  0  0  0
  7 29  1  0  0  0  0
  8  9  1  0  0  0  0
  8 10  1  0  0  0  0
  8 30  1  0  0  0  0
  9 31  1  0  0  0  0
  9 32  1  0  0  0  0
  9 33  1  0  0  0  0
 10 11  1  0  0  0  0
 10 34  1  0  0  0  0
 10 48  1  0  0  0  0
 11 12  1  0  0  0  0
 11 35  1  0  0  0  0
 11 36  1  0  0  0  0
 12 13  2  0  0  0  0
 12 14  1  0  0  0  0
 14 20  1  0  0  0  0
 14 15  1  0  0  0  0
 15 16  1  0  0  0  0
 15 37  1  0  0  0  0
 15 38  1  0  0  0  0
 16 17  1  0  0  0  0
 16 39  1  0  0  0  0
 16 40  1  0  0  0  0
 17 18  1  0  0  0  0
 18 19  1  0  0  0  0
 18 20  1  0  0  0  0
 18 41  1  0  0  0  0
 19 42  1  0  0  0  0
 19 43  1  0  0  0  0
 19 44  1  0  0  0  0
 20 45  1  0  0  0  0
 20 46  1  0  0  0  0
 21 47  1  0  0  0  0
M  CHG  1  10   1
M  END
> <s_m_source_file>
AV-unprocessed.smi

> <i_m_source_file_index>
3056

> <i_lp_mmshare_version>
43012

> <i_f3d_flags>
0

> <s_epik_input>
W0NIM11jMVtjSF1ubihbY0hdMSlbQ0BIXShbQ0gzXSlbQ0BIXShbQ0gzXSlbTkhdW0NIMl1DKD1PKU4yW0NIMl1bQ0gyXU9bQ0BASF0oW0NIM10pW0NIMl0y

> <s_epik_cmdline>
J2VwaWtfcHl0aG9uJywgJy1waCcsICc3LjAnLCAnLXRuJywgJzgnLCAnLW1hJywgJzIwMCcsICctbWV0YWxfYmluZGluZycsICctaW1hZScsICc8aW5maWxlLm1hZT4nLCAnLW9tYWUnLCAnPG91dGZpbGUubWFlPic=

> <r_lp_tautomer_probability>
1

> <r_epik_Ionization_Penalty>
0.233715

> <r_epik_Ionization_Penalty_Charging>
0.233698

> <r_epik_Ionization_Penalty_Neutral>
1.68157e-05

> <r_epik_State_Penalty>
0.225221

> <r_epik_Charging_Adjusted_Penalty>
0.458919

> <i_epik_Tot_Q>
1

> <i_epik_Tot_abs_Q>
1

> <r_epik_Metal_State_Penalty>
0.225535

> <b_epik_Metal_Only>
0

> <s_lp_Force_Field>
OPLS_2005

> <r_lp_Energy>
28.5623

> <b_lp_Chiralities_Consistent>
1

> <s_lp_Variant>
AV-unprocessed.smi:3056-5

> <Gold.Version>
5.8.1

> <Gold.Id.Protein>
6NUR|6NUR_protein|mol2

> <Gold.PLP.Fitness>
44.9945

> <Gold.PLP.PLP>
-36.2399

> <Gold.PLP.part.hbond>
-3.0000

> <Gold.PLP.part.metal>
0.0000

> <Gold.PLP.part.buried>
-5.7880

> <Gold.PLP.part.nonpolar>
-29.4222

> <Gold.PLP.part.repulsive>
1.2025

> <Gold.PLP.ligand.clash>
0.0000

> <Gold.PLP.ligand.torsion>
1.6769

> <Gold.PLP.Chemscore.Hbond>
3.9920

> <Gold.PLP.Chemscore.CHOScore>
0.0000

> <Gold.PLP.Chemscore.Metal>
0.0000

> <Gold.Chemscore.Hbonds>
donor molecule, donor type, donor heavy atom, donor atom, acceptor molecule, acceptor atom, score
      L1  H    10    48       P1  7948  1.76
      P1  H  7989  7998       L1    17  0.70
      L1  C    21    47       P1 10747  0.58

> <Gold.PLP.Chemscore.Internal.Correction>
0.1325

> <Gold.Rescore>
     Score         DG    S(hbond)    S(metal)    S(lipo)     H(rot)  DE(clash)    DE(int)     intcor
     15.63     -18.94       2.35        0.00      85.81       1.74       0.15       3.16       ----

> <Gold.Chemscore.Fitness>
15.6264

> <Gold.Chemscore.DG>
-18.9402

> <Gold.Chemscore.ZeroCoef>
-5.4800

> <Gold.Chemscore.Hbond>
2.3541

> <Gold.Chemscore.Metal>
0.0000

> <Gold.Chemscore.Lipo>
85.8123

> <Gold.Chemscore.Internal_Hbond>
0.0000

> <Gold.Chemscore.DEClash>
0.1536

> <Gold.Chemscore.DEInternal>
3.1602

> <Gold.Chemscore.Rot>
1.7354

> <Gold.Chemscore.Internal.Correction>
   9.000000E+99

> <Gold.Chemscore.Hbonds>
donor molecule, donor type, donor heavy atom, donor atom, acceptor molecule, acceptor atom, score
      L1  H    10    48       P1  7948  0.22
      P1  H  7989  7998       L1    17  0.06

> <Gold.Chemscore.Hbond.Weighted>
-7.8628

> <Gold.Chemscore.Metal.Weighted>
-0.0000

> <Gold.Chemscore.Lipo.Weighted>
-10.0400

> <Gold.Chemscore.Internal_Hbond.Weighted>
0.0000

> <Gold.Chemscore.DEClash.Weighted>
0.1536

> <Gold.Chemscore.DEInternal.Weighted>
3.1602

> <Gold.Chemscore.Rot.Weighted>
4.4426

> <Gold.Chemscore.Internal.Correction.Weighted>
   9.000000E+99

> <Gold.Protein.RotatedTorsions>
[ 6907 6896 6895 6894 ] final  -37.94 input  -60.11 | X-H torsion
[ 7974 7965 7964 7962 ] final  -60.47 input  175.53 | X-H torsion
[ 8008 7997 7996 7995 ] final  -20.28 input   59.86 | X-H torsion
[ 10167 10162 10161 10158 ] final   89.47 input  -65.29 | X-H torsion
[ 10718 10713 10712 10709 ] final  137.69 input   66.30 | X-H torsion
[ 10763 10752 10751 10750 ] final -168.30 input  -60.55 | X-H torsion
[ 11005 11000 10999 10996 ] final   79.31 input  -57.11 | X-H torsion

> <Gold.Protein.ActiveResidues>
 VAL166  LYS551  ARG553  GLY616  TRP617  ASP618  TYR619  PRO620  LYS621  CYS622 
 ASP623  PHE694  ASN695  SER759  ASP760  ASP761  ALA762  ILE779  LEU786  VAL792 
 PHE793  MET794  SER795  GLU796  ALA797  LYS798  CYS799  TRP800  GLU811  SER814 

> <Gold.Protein.RotatedAtoms>
  151.0085  134.9378  159.7993 H   0  0  0  0  0  0  0  0  0  0  0  0  # atno 6907 bound_to 6896
  152.5296  134.3060  159.9106 H   0  0  0  0  0  0  0  0  0  0  0  0  # atno 6908 bound_to 6896
  151.3066  133.4057  159.2678 H   0  0  0  0  0  0  0  0  0  0  0  0  # atno 6909 bound_to 6896
  145.8151  140.8575  143.0161 H   0  0  0  0  0  0  0  0  0  0  0  0  # atno 7974 bound_to 7965
  154.4780  140.2066  155.9831 H   0  0  0  0  0  0  0  0  0  0  0  0  # atno 8008 bound_to 7997
  156.1121  140.3227  155.8056 H   0  0  0  0  0  0  0  0  0  0  0  0  # atno 8009 bound_to 7997
  155.4617  140.0524  157.2981 H   0  0  0  0  0  0  0  0  0  0  0  0  # atno 8010 bound_to 7997
  139.8569  144.6564  150.9103 H   0  0  0  0  0  0  0  0  0  0  0  0  # atno 10167 bound_to 10162
  157.4333  131.1050  151.0225 H   0  0  0  0  0  0  0  0  0  0  0  0  # atno 10718 bound_to 10713
  154.6643  135.2929  154.9826 H   0  0  0  0  0  0  0  0  0  0  0  0  # atno 10763 bound_to 10752
  154.0875  135.6595  153.4851 H   0  0  0  0  0  0  0  0  0  0  0  0  # atno 10764 bound_to 10752
  153.0448  135.5212  154.7608 H   0  0  0  0  0  0  0  0  0  0  0  0  # atno 10765 bound_to 10752
  139.9177  134.7833  156.1763 H   0  0  0  0  0  0  0  0  0  0  0  0  # atno 11005 bound_to 11000
  144.6753  140.0452  143.7480 LP  0  0  0  0  0  0  0  0  0  0  0  0  # atno 17320 bound_to 7965
  145.9735  139.2887  143.1084 LP  0  0  0  0  0  0  0  0  0  0  0  0  # atno 17321 bound_to 7965
  140.7780  143.3778  151.1532 LP  0  0  0  0  0  0  0  0  0  0  0  0  # atno 17342 bound_to 10162
  139.7411  143.8923  152.3050 LP  0  0  0  0  0  0  0  0  0  0  0  0  # atno 17343 bound_to 10162
  157.1114  130.6023  149.5483 LP  0  0  0  0  0  0  0  0  0  0  0  0  # atno 17370 bound_to 10713
  155.9921  130.4978  150.7327 LP  0  0  0  0  0  0  0  0  0  0  0  0  # atno 17371 bound_to 10713
  141.0670  133.6815  156.2064 LP  0  0  0  0  0  0  0  0  0  0  0  0  # atno 17394 bound_to 11000
  140.6569  134.5008  157.5581 LP  0  0  0  0  0  0  0  0  0  0  0  0  # atno 17395 bound_to 11000

$$$$
