AV-unprocessed.smi:1033|AV-procd|sdf|4511|dock3
  -GOLD-   22720 2513D 1   1.00000     0.00000
 Structure written by MMmdl.
 57 59  0  0  0  0  0  0  0  0  3 V2000
  152.9520  141.0712  159.3287 C   0  0  0  0  0  0  0  0  0  0  0  0
  151.9791  141.0665  158.1624 C   0  0  0  0  0  0  0  0  0  0  0  0
  152.0111  139.9918  157.2454 C   0  0  0  0  0  0  0  0  0  0  0  0
  151.1231  139.9487  156.1487 C   0  0  0  0  0  0  0  0  0  0  0  0
  150.9839  139.0103  155.1406 N   0  0  0  0  0  0  0  0  0  0  0  0
  149.9946  139.5320  154.4220 C   0  0  0  0  0  0  0  0  0  0  0  0
  149.4827  140.7059  154.8391 N   0  0  0  0  0  0  0  0  0  0  0  0
  148.4182  141.4647  154.2087 C   0  0  0  0  0  0  0  0  0  0  0  0
  147.0797  140.7004  154.1925 C   0  0  1  0  0  0  0  0  0  0  0  0
  146.0802  141.5900  153.7379 O   0  0  0  0  0  0  0  0  0  0  0  0
  147.0901  139.4540  153.2790 C   0  0  0  0  0  0  0  0  0  0  0  0
  145.8187  138.6878  153.3393 N   0  3  2  0  0  0  0  0  0  0  0  0
  145.4167  138.3126  154.7203 C   0  0  0  0  0  0  0  0  0  0  0  0
  144.0638  137.5707  154.7319 C   0  0  0  0  0  0  0  0  0  0  0  0
  144.0529  136.3998  153.8155 N   0  3  2  0  0  0  0  0  0  0  0  0
  144.7618  135.1972  154.3313 C   0  0  0  0  0  0  0  0  0  0  0  0
  144.2290  134.7466  155.7054 C   0  0  2  0  0  0  0  0  0  0  0  0
  145.1601  133.7324  156.3821 C   0  0  0  0  0  0  0  0  0  0  0  0
  142.9644  134.1399  155.5342 O   0  0  0  0  0  0  0  0  0  0  0  0
  144.4674  136.7918  152.4453 C   0  0  0  0  0  0  0  0  0  0  0  0
  145.8325  137.5049  152.4432 C   0  0  0  0  0  0  0  0  0  0  0  0
  150.1959  141.0203  155.9916 C   0  0  0  0  0  0  0  0  0  0  0  0
  150.1539  142.0951  156.8975 C   0  0  0  0  0  0  0  0  0  0  0  0
  151.0472  142.1213  157.9889 C   0  0  0  0  0  0  0  0  0  0  0  0
  150.9916  143.2835  158.9648 C   0  0  0  0  0  0  0  0  0  0  0  0
  153.5857  140.1837  159.3224 H   0  0  0  0  0  0  0  0  0  0  0  0
  152.4134  141.0906  160.2763 H   0  0  0  0  0  0  0  0  0  0  0  0
  153.6014  141.9456  159.2812 H   0  0  0  0  0  0  0  0  0  0  0  0
  152.7206  139.1878  157.3779 H   0  0  0  0  0  0  0  0  0  0  0  0
  149.6249  139.0367  153.5359 H   0  0  0  0  0  0  0  0  0  0  0  0
  148.3092  142.4080  154.7464 H   0  0  0  0  0  0  0  0  0  0  0  0
  148.7271  141.7202  153.1942 H   0  0  0  0  0  0  0  0  0  0  0  0
  146.8355  140.4178  155.2160 H   0  0  0  0  0  0  0  0  0  0  0  0
  145.4144  141.0941  153.2852 H   0  0  0  0  0  0  0  0  0  0  0  0
  147.2756  139.7818  152.2549 H   0  0  0  0  0  0  0  0  0  0  0  0
  147.9112  138.7838  153.5353 H   0  0  0  0  0  0  0  0  0  0  0  0
  146.1942  137.6954  155.1722 H   0  0  0  0  0  0  0  0  0  0  0  0
  145.3314  139.2023  155.3428 H   0  0  0  0  0  0  0  0  0  0  0  0
  143.8029  137.2756  155.7475 H   0  0  0  0  0  0  0  0  0  0  0  0
  143.2789  138.2565  154.4096 H   0  0  0  0  0  0  0  0  0  0  0  0
  144.6421  134.3700  153.6296 H   0  0  0  0  0  0  0  0  0  0  0  0
  145.8334  135.3896  154.3848 H   0  0  0  0  0  0  0  0  0  0  0  0
  144.1099  135.6005  156.3715 H   0  0  0  0  0  0  0  0  0  0  0  0
  146.1463  134.1634  156.5575 H   0  0  0  0  0  0  0  0  0  0  0  0
  145.2922  132.8398  155.7695 H   0  0  0  0  0  0  0  0  0  0  0  0
  144.7639  133.4175  157.3481 H   0  0  0  0  0  0  0  0  0  0  0  0
  143.0687  133.3587  155.0120 H   0  0  0  0  0  0  0  0  0  0  0  0
  144.4851  135.9220  151.7877 H   0  0  0  0  0  0  0  0  0  0  0  0
  143.7093  137.4618  152.0374 H   0  0  0  0  0  0  0  0  0  0  0  0
  146.0686  137.8189  151.4257 H   0  0  0  0  0  0  0  0  0  0  0  0
  146.6228  136.8192  152.7529 H   0  0  0  0  0  0  0  0  0  0  0  0
  149.4394  142.8923  156.7559 H   0  0  0  0  0  0  0  0  0  0  0  0
  150.2422  144.0178  158.6678 H   0  0  0  0  0  0  0  0  0  0  0  0
  151.9556  143.7903  159.0131 H   0  0  0  0  0  0  0  0  0  0  0  0
  150.7355  142.9298  159.9637 H   0  0  0  0  0  0  0  0  0  0  0  0
  143.0880  136.1082  153.7346 H   0  0  0  0  0  0  0  0  0  0  0  0
  145.1040  139.3056  152.9800 H   0  0  0  0  0  0  0  0  0  0  0  0
  1  2  1  0  0  0  0
  1 26  1  0  0  0  0
  1 27  1  0  0  0  0
  1 28  1  0  0  0  0
  2 24  1  0  0  0  0
  2  3  2  0  0  0  0
  3  4  1  0  0  0  0
  3 29  1  0  0  0  0
  4 22  2  0  0  0  0
  4  5  1  0  0  0  0
  5  6  2  0  0  0  0
  6  7  1  0  0  0  0
  6 30  1  0  0  0  0
  7  8  1  0  0  0  0
  7 22  1  0  0  0  0
  8  9  1  0  0  0  0
  8 31  1  0  0  0  0
  8 32  1  0  0  0  0
  9 10  1  0  0  0  0
  9 11  1  0  0  0  0
  9 33  1  0  0  0  0
 10 34  1  0  0  0  0
 11 12  1  0  0  0  0
 11 35  1  0  0  0  0
 11 36  1  0  0  0  0
 12 21  1  0  0  0  0
 12 13  1  0  0  0  0
 12 57  1  0  0  0  0
 13 14  1  0  0  0  0
 13 37  1  0  0  0  0
 13 38  1  0  0  0  0
 14 15  1  0  0  0  0
 14 39  1  0  0  0  0
 14 40  1  0  0  0  0
 15 16  1  0  0  0  0
 15 20  1  0  0  0  0
 15 56  1  0  0  0  0
 16 17  1  0  0  0  0
 16 41  1  0  0  0  0
 16 42  1  0  0  0  0
 17 18  1  0  0  0  0
 17 19  1  0  0  0  0
 17 43  1  0  0  0  0
 18 44  1  0  0  0  0
 18 45  1  0  0  0  0
 18 46  1  0  0  0  0
 19 47  1  0  0  0  0
 20 21  1  0  0  0  0
 20 48  1  0  0  0  0
 20 49  1  0  0  0  0
 21 50  1  0  0  0  0
 21 51  1  0  0  0  0
 22 23  1  0  0  0  0
 23 24  2  0  0  0  0
 23 52  1  0  0  0  0
 24 25  1  0  0  0  0
 25 53  1  0  0  0  0
 25 54  1  0  0  0  0
 25 55  1  0  0  0  0
M  CHG  1  12   1
M  CHG  1  15   1
M  END
> <s_m_source_file>
AV-unprocessed.smi

> <i_m_source_file_index>
1033

> <i_lp_mmshare_version>
43012

> <i_f3d_flags>
0

> <s_epik_input>
W0NIM11jKFtjSF0xKWMoW0NIM10pW2NIXWMoYzEyKW4oW2NIXW4yKVtDSDJdW0NASF0oW09IXSlbQ0gyXU4zW0NIMl1bQ0gyXU4oW0NIMl1bQ0gyXTMpW0NIMl1bQ0BIXShbQ0gzXSlbT0hd

> <s_epik_cmdline>
J2VwaWtfcHl0aG9uJywgJy1waCcsICc3LjAnLCAnLXRuJywgJzgnLCAnLW1hJywgJzIwMCcsICctbWV0YWxfYmluZGluZycsICctaW1hZScsICc8aW5maWxlLm1hZT4nLCAnLW9tYWUnLCAnPG91dGZpbGUubWFlPic=

> <r_epik_Ionization_Penalty>
3.16016

> <r_epik_Ionization_Penalty_Charging>
3.07679

> <r_epik_Ionization_Penalty_Neutral>
0.083365

> <r_epik_State_Penalty>
2.09701

> <r_epik_Charging_Adjusted_Penalty>
5.1738

> <i_epik_Tot_Q>
2

> <i_epik_Tot_abs_Q>
2

> <r_epik_Metal_State_Penalty>
2.02534

> <b_epik_Metal_Only>
0

> <s_lp_Force_Field>
OPLS_2005

> <r_lp_Energy>
29.7714

> <b_lp_Chiralities_Consistent>
1

> <s_lp_Variant>
AV-unprocessed.smi:1033-22

> <Gold.Version>
5.8.1

> <Gold.Id.Protein>
6NUR|6NUR_protein|mol2

> <Gold.PLP.Fitness>
54.9479

> <Gold.PLP.PLP>
-38.8189

> <Gold.PLP.part.hbond>
-4.0000

> <Gold.PLP.part.metal>
0.0000

> <Gold.PLP.part.buried>
-3.3399

> <Gold.PLP.part.nonpolar>
-31.8422

> <Gold.PLP.part.repulsive>
0.0655

> <Gold.PLP.ligand.clash>
0.0000

> <Gold.PLP.ligand.torsion>
0.1584

> <Gold.PLP.Chemscore.Hbond>
4.5268

> <Gold.PLP.Chemscore.CHOScore>
0.8896

> <Gold.PLP.Chemscore.Metal>
0.0000

> <Gold.Chemscore.Hbonds>
donor molecule, donor type, donor heavy atom, donor atom, acceptor molecule, acceptor atom, score
      L1  H    10    34       P1 10175  1.00
      L1  H    12    57       P1 10175  2.00
      L1  H    19    47       P1 10957  0.93
      P1  H 11000 11005       L1    19  0.62
      L1  C     6    30       P1  7957  0.82

> <Gold.PLP.Chemscore.Internal.Correction>
0.1966

> <Gold.Rescore>
     Score         DG    S(hbond)    S(metal)    S(lipo)     H(rot)  DE(clash)    DE(int)     intcor
     17.28     -17.50       2.65        0.00      95.83       3.14       0.11       0.10       ----

> <Gold.Chemscore.Fitness>
17.2825

> <Gold.Chemscore.DG>
-17.4983

> <Gold.Chemscore.ZeroCoef>
-5.4800

> <Gold.Chemscore.Hbond>
2.6466

> <Gold.Chemscore.Metal>
0.0000

> <Gold.Chemscore.Lipo>
95.8288

> <Gold.Chemscore.Internal_Hbond>
0.0000

> <Gold.Chemscore.DEClash>
0.1115

> <Gold.Chemscore.DEInternal>
0.1043

> <Gold.Chemscore.Rot>
3.1380

> <Gold.Chemscore.Internal.Correction>
   9.000000E+99

> <Gold.Chemscore.Hbonds>
donor molecule, donor type, donor heavy atom, donor atom, acceptor molecule, acceptor atom, score
      L1  H    10    34       P1 10175  0.38
      L1  H    12    57       P1 10175  1.00
      L1  H    19    47       P1 10957  0.89
      P1  H 11000 11005       L1    19  0.15

> <Gold.Chemscore.Hbond.Weighted>
-8.8395

> <Gold.Chemscore.Metal.Weighted>
-0.0000

> <Gold.Chemscore.Lipo.Weighted>
-11.2120

> <Gold.Chemscore.Internal_Hbond.Weighted>
0.0000

> <Gold.Chemscore.DEClash.Weighted>
0.1115

> <Gold.Chemscore.DEInternal.Weighted>
0.1043

> <Gold.Chemscore.Rot.Weighted>
8.0332

> <Gold.Chemscore.Internal.Correction.Weighted>
   9.000000E+99

> <Gold.Protein.RotatedTorsions>
[ 6907 6896 6895 6894 ] final   40.49 input  -60.11 | X-H torsion
[ 7974 7965 7964 7962 ] final  -81.12 input  175.53 | X-H torsion
[ 8008 7997 7996 7995 ] final  -60.52 input   59.86 | X-H torsion
[ 10167 10162 10161 10158 ] final   41.09 input  -65.29 | X-H torsion
[ 10718 10713 10712 10709 ] final -158.92 input   66.30 | X-H torsion
[ 10763 10752 10751 10750 ] final   39.99 input  -60.55 | X-H torsion
[ 11005 11000 10999 10996 ] final  -63.59 input  -57.11 | X-H torsion

> <Gold.Protein.ActiveResidues>
 VAL166  LYS551  ARG553  GLY616  TRP617  ASP618  TYR619  PRO620  LYS621  CYS622 
 ASP623  PHE694  ASN695  SER759  ASP760  ASP761  ALA762  ILE779  LEU786  VAL792 
 PHE793  MET794  SER795  GLU796  ALA797  LYS798  CYS799  TRP800  GLU811  SER814 

> <Gold.Protein.RotatedAtoms>
  152.1832  134.8736  160.0524 H   0  0  0  0  0  0  0  0  0  0  0  0  # atno 6907 bound_to 6896
  151.9652  133.3703  159.4058 H   0  0  0  0  0  0  0  0  0  0  0  0  # atno 6908 bound_to 6896
  150.6921  134.4121  159.5210 H   0  0  0  0  0  0  0  0  0  0  0  0  # atno 6909 bound_to 6896
  145.5508  140.9497  143.1500 H   0  0  0  0  0  0  0  0  0  0  0  0  # atno 7974 bound_to 7965
  154.4403  140.1037  156.6287 H   0  0  0  0  0  0  0  0  0  0  0  0  # atno 8008 bound_to 7997
  155.5628  140.3488  155.4477 H   0  0  0  0  0  0  0  0  0  0  0  0  # atno 8009 bound_to 7997
  156.0447  140.1290  157.0106 H   0  0  0  0  0  0  0  0  0  0  0  0  # atno 8010 bound_to 7997
  140.3677  144.2146  150.6134 H   0  0  0  0  0  0  0  0  0  0  0  0  # atno 10167 bound_to 10162
  156.5608  130.8646  151.2809 H   0  0  0  0  0  0  0  0  0  0  0  0  # atno 10718 bound_to 10713
  152.9950  135.6204  154.2555 H   0  0  0  0  0  0  0  0  0  0  0  0  # atno 10763 bound_to 10752
  154.2292  135.2793  155.2898 H   0  0  0  0  0  0  0  0  0  0  0  0  # atno 10764 bound_to 10752
  154.5463  135.5746  153.6941 H   0  0  0  0  0  0  0  0  0  0  0  0  # atno 10765 bound_to 10752
  141.1398  133.6654  156.5703 H   0  0  0  0  0  0  0  0  0  0  0  0  # atno 11005 bound_to 11000
  144.7530  139.7145  143.7265 LP  0  0  0  0  0  0  0  0  0  0  0  0  # atno 17320 bound_to 7965
  146.1918  139.5162  142.9800 LP  0  0  0  0  0  0  0  0  0  0  0  0  # atno 17321 bound_to 7965
  140.5064  143.2303  151.8601 LP  0  0  0  0  0  0  0  0  0  0  0  0  # atno 17342 bound_to 10162
  139.4807  144.5000  151.9073 LP  0  0  0  0  0  0  0  0  0  0  0  0  # atno 17343 bound_to 10162
  157.7369  130.9786  150.2161 LP  0  0  0  0  0  0  0  0  0  0  0  0  # atno 17370 bound_to 10713
  156.2800  130.3732  149.7944 LP  0  0  0  0  0  0  0  0  0  0  0  0  # atno 17371 bound_to 10713
  140.3918  134.7433  157.4726 LP  0  0  0  0  0  0  0  0  0  0  0  0  # atno 17394 bound_to 11000
  140.0560  134.6062  155.8804 LP  0  0  0  0  0  0  0  0  0  0  0  0  # atno 17395 bound_to 11000

$$$$
