AV-unprocessed.smi:55|AV-procd|sdf|572|dock2
  -GOLD-   2262016473D 1   1.00000     0.00000
 Structure written by MMmdl.
 30 31  0  0  0  0  0  0  0  0  2 V2000
  149.1610  141.5404  154.7772 C   0  0  0  0  0  0  0  0  0  0  0  0
  150.2379  141.1656  155.7803 C   0  0  0  0  0  0  0  0  0  0  0  0
  150.3278  141.7522  156.9950 C   0  0  0  0  0  0  0  0  0  0  0  0
  151.3123  141.4076  157.9069 N   0  0  0  0  0  0  0  0  0  0  0  0
  151.4078  142.0683  159.2689 C   0  0  1  0  0  0  0  0  0  0  0  0
  152.7151  142.8727  159.3937 C   0  0  0  0  0  0  0  0  0  0  0  0
  152.2439  144.2416  159.8518 C   0  0  2  0  0  0  0  0  0  0  0  0
  152.2775  144.3371  161.2638 O   0  0  0  0  0  0  0  0  0  0  0  0
  150.8147  144.3028  159.3008 C   0  0  2  0  0  0  0  0  0  0  0  0
  149.8499  145.2963  159.9714 C   0  0  0  0  0  0  0  0  0  0  0  0
  148.5224  145.0528  159.5553 O   0  0  0  0  0  0  0  0  0  0  0  0
  150.3481  142.9660  159.4407 O   0  0  0  0  0  0  0  0  0  0  0  0
  152.2558  140.4018  157.5691 C   0  0  0  0  0  0  0  0  0  0  0  0
  153.1155  140.1128  158.4020 O   0  0  0  0  0  0  0  0  0  0  0  0
  152.1727  139.8049  156.3460 N   0  5  0  0  0  0  0  0  0  0  0  0
  151.2178  140.1309  155.4288 C   0  0  0  0  0  0  0  0  0  0  0  0
  151.1566  139.5863  154.3266 O   0  0  0  0  0  0  0  0  0  0  0  0
  151.3113  141.2606  159.9964 H   0  0  0  0  0  0  0  0  0  0  0  0
  152.8653  145.0383  159.4419 H   0  0  0  0  0  0  0  0  0  0  0  0
  150.8657  144.5221  158.2327 H   0  0  0  0  0  0  0  0  0  0  0  0
  148.5064  142.3186  155.1698 H   0  0  0  0  0  0  0  0  0  0  0  0
  148.5468  140.6722  154.5361 H   0  0  0  0  0  0  0  0  0  0  0  0
  149.6113  141.9112  153.8558 H   0  0  0  0  0  0  0  0  0  0  0  0
  149.6021  142.5094  157.2473 H   0  0  0  0  0  0  0  0  0  0  0  0
  153.4098  142.3894  160.0818 H   0  0  0  0  0  0  0  0  0  0  0  0
  153.1944  142.9516  158.4167 H   0  0  0  0  0  0  0  0  0  0  0  0
  152.1374  145.2401  161.5050 H   0  0  0  0  0  0  0  0  0  0  0  0
  149.8958  145.1822  161.0547 H   0  0  0  0  0  0  0  0  0  0  0  0
  150.1205  146.3291  159.7512 H   0  0  0  0  0  0  0  0  0  0  0  0
  148.3304  145.6149  158.8203 H   0  0  0  0  0  0  0  0  0  0  0  0
  1  2  1  0  0  0  0
  1 21  1  0  0  0  0
  1 22  1  0  0  0  0
  1 23  1  0  0  0  0
  2 16  1  0  0  0  0
  2  3  2  0  0  0  0
  3  4  1  0  0  0  0
  3 24  1  0  0  0  0
  4  5  1  0  0  0  0
  4 13  1  0  0  0  0
  5 18  1  0  0  0  0
  5 12  1  0  0  0  0
  5  6  1  0  0  0  0
  6  7  1  0  0  0  0
  6 25  1  0  0  0  0
  6 26  1  0  0  0  0
  7 19  1  0  0  0  0
  7  8  1  0  0  0  0
  7  9  1  0  0  0  0
  8 27  1  0  0  0  0
  9 20  1  0  0  0  0
  9 10  1  0  0  0  0
  9 12  1  0  0  0  0
 10 11  1  0  0  0  0
 10 28  1  0  0  0  0
 10 29  1  0  0  0  0
 11 30  1  0  0  0  0
 13 14  2  0  0  0  0
 13 15  1  0  0  0  0
 15 16  1  0  0  0  0
 16 17  2  0  0  0  0
M  CHG  1  15  -1
M  END
> <s_m_source_file>
AV-unprocessed.smi

> <i_m_source_file_index>
55

> <i_lp_mmshare_version>
43012

> <i_f3d_flags>
0

> <s_epik_input>
Tz1jMVtuSF1jKD1PKW4oW2NIXWMxW0NIM10pW0NAQEhdMltDSDJdW0NAQEhdKFtPSF0pW0NAQEhdKE8yKVtDSDJdW09IXQ==

> <s_epik_cmdline>
J2VwaWtfcHl0aG9uJywgJy1waCcsICc3LjAnLCAnLXRuJywgJzgnLCAnLW1hJywgJzIwMCcsICctbWV0YWxfYmluZGluZycsICctaW1hZScsICc8aW5maWxlLm1hZT4nLCAnLW9tYWUnLCAnPG91dGZpbGUubWFlPic=

> <r_lp_tautomer_probability>
0.999537

> <r_epik_Ionization_Penalty>
3.66603

> <r_epik_Ionization_Penalty_Charging>
1.09773e-07

> <r_epik_Ionization_Penalty_Neutral>
3.66603

> <r_epik_State_Penalty>
3.66562

> <r_epik_Charging_Adjusted_Penalty>
3.66562

> <i_epik_Tot_Q>
-1

> <i_epik_Tot_abs_Q>
1

> <r_epik_Metal_State_Penalty>
0.234536

> <b_epik_Metal_Only>
1

> <s_epik_Chemistry_Notes>
This compound contains an acetal/aminal-like group ( X-CH(R)-Y where X, Y are N, S, or O) that may be acid/base labile, releasing an aldehyde.

> <s_lp_Force_Field>
OPLS_2005

> <r_lp_Energy>
39.9297

> <b_lp_Chiralities_Consistent>
1

> <s_lp_Variant>
AV-unprocessed.smi:55-12

> <Gold.Version>
5.8.1

> <Gold.Id.Protein>
6NUR|6NUR_protein|mol2

> <Gold.PLP.Fitness>
41.1919

> <Gold.PLP.PLP>
-32.0517

> <Gold.PLP.part.hbond>
-4.3280

> <Gold.PLP.part.metal>
0.0000

> <Gold.PLP.part.buried>
0.0935

> <Gold.PLP.part.nonpolar>
-26.9470

> <Gold.PLP.part.repulsive>
0.2019

> <Gold.PLP.ligand.clash>
0.0000

> <Gold.PLP.ligand.torsion>
0.0983

> <Gold.PLP.Chemscore.Hbond>
2.7424

> <Gold.PLP.Chemscore.CHOScore>
0.3686

> <Gold.PLP.Chemscore.Metal>
0.0000

> <Gold.Chemscore.Hbonds>
donor molecule, donor type, donor heavy atom, donor atom, acceptor molecule, acceptor atom, score
      L1  H    11    30       P1  8029  1.00
      P1  H  7989  7998       L1    17  0.80
      P1  H  7997  8009       L1    14  0.84
      L1  C     3    24       P1  8028  0.28

> <Gold.PLP.Chemscore.Internal.Correction>
0.0036

> <Gold.Rescore>
     Score         DG    S(hbond)    S(metal)    S(lipo)     H(rot)  DE(clash)    DE(int)     intcor
     10.16     -11.49       1.70        0.00      61.51       2.69       0.08       1.24       ----

> <Gold.Chemscore.Fitness>
10.1642

> <Gold.Chemscore.DG>
-11.4902

> <Gold.Chemscore.ZeroCoef>
-5.4800

> <Gold.Chemscore.Hbond>
1.7043

> <Gold.Chemscore.Metal>
0.0000

> <Gold.Chemscore.Lipo>
61.5131

> <Gold.Chemscore.Internal_Hbond>
0.0000

> <Gold.Chemscore.DEClash>
0.0829

> <Gold.Chemscore.DEInternal>
1.2431

> <Gold.Chemscore.Rot>
2.6871

> <Gold.Chemscore.Internal.Correction>
   9.000000E+99

> <Gold.Chemscore.Hbonds>
donor molecule, donor type, donor heavy atom, donor atom, acceptor molecule, acceptor atom, score
      L1  H    11    30       P1  8029  0.98
      P1  H  7989  7998       L1    17  0.12
      P1  H  7997  8009       L1    14  0.13

> <Gold.Chemscore.Hbond.Weighted>
-5.6922

> <Gold.Chemscore.Metal.Weighted>
-0.0000

> <Gold.Chemscore.Lipo.Weighted>
-7.1970

> <Gold.Chemscore.Internal_Hbond.Weighted>
0.0000

> <Gold.Chemscore.DEClash.Weighted>
0.0829

> <Gold.Chemscore.DEInternal.Weighted>
1.2431

> <Gold.Chemscore.Rot.Weighted>
6.8791

> <Gold.Chemscore.Internal.Correction.Weighted>
   9.000000E+99

> <Gold.Protein.RotatedTorsions>
[ 6907 6896 6895 6894 ] final   62.20 input  -60.11 | X-H torsion
[ 7974 7965 7964 7962 ] final  176.25 input  175.53 | X-H torsion
[ 8008 7997 7996 7995 ] final  147.37 input   59.86 | X-H torsion
[ 10167 10162 10161 10158 ] final   69.06 input  -65.29 | X-H torsion
[ 10718 10713 10712 10709 ] final -179.59 input   66.30 | X-H torsion
[ 10763 10752 10751 10750 ] final   39.95 input  -60.55 | X-H torsion
[ 11005 11000 10999 10996 ] final -179.37 input  -57.11 | X-H torsion

> <Gold.Protein.ActiveResidues>
 VAL166  LYS551  ARG553  GLY616  TRP617  ASP618  TYR619  PRO620  LYS621  CYS622 
 ASP623  PHE694  ASN695  SER759  ASP760  ASP761  ALA762  ILE779  LEU786  VAL792 
 PHE793  MET794  SER795  GLU796  ALA797  LYS798  CYS799  TRP800  GLU811  SER814 

> <Gold.Protein.RotatedAtoms>
  152.4153  134.6053  160.0010 H   0  0  0  0  0  0  0  0  0  0  0  0  # atno 6907 bound_to 6896
  151.6218  133.3333  159.3097 H   0  0  0  0  0  0  0  0  0  0  0  0  # atno 6908 bound_to 6896
  150.8042  134.7195  159.6694 H   0  0  0  0  0  0  0  0  0  0  0  0  # atno 6909 bound_to 6896
  144.7187  140.0068  143.6440 H   0  0  0  0  0  0  0  0  0  0  0  0  # atno 7974 bound_to 7965
  156.2826  140.2157  156.5527 H   0  0  0  0  0  0  0  0  0  0  0  0  # atno 8008 bound_to 7997
  154.7277  140.0498  157.0721 H   0  0  0  0  0  0  0  0  0  0  0  0  # atno 8009 bound_to 7997
  155.0394  140.3144  155.4733 H   0  0  0  0  0  0  0  0  0  0  0  0  # atno 8010 bound_to 7997
  140.0719  144.5145  150.7221 H   0  0  0  0  0  0  0  0  0  0  0  0  # atno 10167 bound_to 10162
  156.8613  130.9752  151.3083 H   0  0  0  0  0  0  0  0  0  0  0  0  # atno 10718 bound_to 10713
  152.9951  135.6205  154.2547 H   0  0  0  0  0  0  0  0  0  0  0  0  # atno 10763 bound_to 10752
  154.2285  135.2793  155.2900 H   0  0  0  0  0  0  0  0  0  0  0  0  # atno 10764 bound_to 10752
  154.5469  135.5744  153.6946 H   0  0  0  0  0  0  0  0  0  0  0  0  # atno 10765 bound_to 10752
  140.4194  134.6619  157.4656 H   0  0  0  0  0  0  0  0  0  0  0  0  # atno 11005 bound_to 11000
  146.0290  139.3318  143.0766 LP  0  0  0  0  0  0  0  0  0  0  0  0  # atno 17320 bound_to 7965
  145.8475  140.9547  143.0767 LP  0  0  0  0  0  0  0  0  0  0  0  0  # atno 17321 bound_to 7965
  140.7121  143.2514  151.4548 LP  0  0  0  0  0  0  0  0  0  0  0  0  # atno 17342 bound_to 10162
  139.5831  144.1665  152.1994 LP  0  0  0  0  0  0  0  0  0  0  0  0  # atno 17343 bound_to 10162
  157.6248  130.8683  149.9171 LP  0  0  0  0  0  0  0  0  0  0  0  0  # atno 17370 bound_to 10713
  156.0775  130.3677  150.0648 LP  0  0  0  0  0  0  0  0  0  0  0  0  # atno 17371 bound_to 10713
  140.0211  134.6546  155.9239 LP  0  0  0  0  0  0  0  0  0  0  0  0  # atno 17394 bound_to 11000
  141.1790  133.6544  156.4943 LP  0  0  0  0  0  0  0  0  0  0  0  0  # atno 17395 bound_to 11000

$$$$
