AV-unprocessed.smi:2976|AV-procd|sdf|11362|dock8
  -GOLD-   2272016283D 1   1.00000     0.00000
 Structure written by MMmdl.
 40 41  0  0  0  0  0  0  0  0  1 V2000
  152.2755  143.5049  161.1777 C   0  0  0  0  0  0  0  0  0  0  0  0
  153.0792  143.1919  159.8988 C   0  0  1  0  0  0  0  0  0  0  0  0
  154.0362  142.0003  160.1061 C   0  0  0  0  0  0  0  0  0  0  0  0
  153.2891  140.6589  160.1681 C   0  0  0  0  0  0  0  0  0  0  0  0
  152.4273  140.4472  158.9158 C   0  0  0  0  0  0  0  0  0  0  0  0
  151.4496  141.6158  158.6871 C   0  0  2  0  0  0  0  0  0  0  0  0
  150.7189  141.3771  157.4431 N   0  0  0  0  0  0  0  0  0  0  0  0
  150.1466  140.2206  157.0740 C   0  0  0  0  0  0  0  0  0  0  0  0
  150.1983  139.1907  157.7474 O   0  0  0  0  0  0  0  0  0  0  0  0
  149.4097  140.2351  155.7273 C   0  0  0  0  0  0  0  0  0  0  0  0
  148.1783  141.0383  155.7523 N   0  0  0  0  0  0  0  0  0  0  0  0
  147.5156  141.0195  156.9669 N   0  0  0  0  0  0  0  0  0  0  0  0
  146.4270  141.6946  157.1060 C   0  0  0  0  0  0  0  0  0  0  0  0
  145.8628  142.4776  156.0289 C   0  0  0  0  0  0  0  0  0  0  0  0
  144.3988  143.3626  156.2746 Cl  0  0  0  0  0  0  0  0  0  0  0  0
  146.5183  142.4862  154.8411 C   0  0  0  0  0  0  0  0  0  0  0  0
  145.9047  143.3992  153.5054 Cl  0  0  0  0  0  0  0  0  0  0  0  0
  147.7610  141.7270  154.6450 C   0  0  0  0  0  0  0  0  0  0  0  0
  148.3814  141.7036  153.5812 O   0  0  0  0  0  0  0  0  0  0  0  0
  152.2033  142.9724  158.6360 C   0  0  1  0  0  0  0  0  0  0  0  0
  151.2798  144.1737  158.3491 C   0  0  0  0  0  0  0  0  0  0  0  0
  151.5728  142.7107  161.4280 H   0  0  0  0  0  0  0  0  0  0  0  0
  151.7071  144.4292  161.0777 H   0  0  0  0  0  0  0  0  0  0  0  0
  152.9409  143.6340  162.0317 H   0  0  0  0  0  0  0  0  0  0  0  0
  153.7044  144.0663  159.7121 H   0  0  0  0  0  0  0  0  0  0  0  0
  154.7525  141.9691  159.2841 H   0  0  0  0  0  0  0  0  0  0  0  0
  154.6259  142.1412  161.0126 H   0  0  0  0  0  0  0  0  0  0  0  0
  154.0046  139.8422  160.2651 H   0  0  0  0  0  0  0  0  0  0  0  0
  152.6611  140.6208  161.0585 H   0  0  0  0  0  0  0  0  0  0  0  0
  153.0795  140.3365  158.0482 H   0  0  0  0  0  0  0  0  0  0  0  0
  151.8755  139.5109  159.0066 H   0  0  0  0  0  0  0  0  0  0  0  0
  150.7516  141.6340  159.5252 H   0  0  0  0  0  0  0  0  0  0  0  0
  150.6233  142.1658  156.8200 H   0  0  0  0  0  0  0  0  0  0  0  0
  150.0741  140.6057  154.9442 H   0  0  0  0  0  0  0  0  0  0  0  0
  149.1857  139.2020  155.4563 H   0  0  0  0  0  0  0  0  0  0  0  0
  145.8721  141.7113  158.0440 H   0  0  0  0  0  0  0  0  0  0  0  0
  152.8942  142.9182  157.7928 H   0  0  0  0  0  0  0  0  0  0  0  0
  150.4591  144.2291  159.0647 H   0  0  0  0  0  0  0  0  0  0  0  0
  150.8404  144.1111  157.3535 H   0  0  0  0  0  0  0  0  0  0  0  0
  151.8303  145.1134  158.3963 H   0  0  0  0  0  0  0  0  0  0  0  0
  1  2  1  0  0  0  0
  1 22  1  0  0  0  0
  1 23  1  0  0  0  0
  1 24  1  0  0  0  0
  2 20  1  0  0  0  0
  2  3  1  0  0  0  0
  2 25  1  0  0  0  0
  3  4  1  0  0  0  0
  3 26  1  0  0  0  0
  3 27  1  0  0  0  0
  4  5  1  0  0  0  0
  4 28  1  0  0  0  0
  4 29  1  0  0  0  0
  5  6  1  0  0  0  0
  5 30  1  0  0  0  0
  5 31  1  0  0  0  0
  6  7  1  0  0  0  0
  6 20  1  0  0  0  0
  6 32  1  0  0  0  0
  7  8  1  0  0  0  0
  7 33  1  0  0  0  0
  8  9  2  0  0  0  0
  8 10  1  0  0  0  0
 10 11  1  0  0  0  0
 10 34  1  0  0  0  0
 10 35  1  0  0  0  0
 11 18  1  0  0  0  0
 11 12  1  0  0  0  0
 12 13  2  0  0  0  0
 13 14  1  0  0  0  0
 13 36  1  0  0  0  0
 14 15  1  0  0  0  0
 14 16  2  0  0  0  0
 16 17  1  0  0  0  0
 16 18  1  0  0  0  0
 18 19  2  0  0  0  0
 20 21  1  0  0  0  0
 20 37  1  0  0  0  0
 21 38  1  0  0  0  0
 21 39  1  0  0  0  0
 21 40  1  0  0  0  0
M  END
> <s_m_source_file>
AV-unprocessed.smi

> <i_m_source_file_index>
2976

> <i_lp_mmshare_version>
43012

> <i_f3d_flags>
0

> <s_epik_input>
W0NIM11bQ0BASF0xW0NIMl1bQ0gyXVtDSDJdW0NASF0oW0NASF0xW0NIM10pW05IXUMoPU8pW0NIMl1uMm5bY0hdYyhDbCljKENsKWMyPU8=

> <s_epik_cmdline>
J2VwaWtfcHl0aG9uJywgJy1waCcsICc3LjAnLCAnLXRuJywgJzgnLCAnLW1hJywgJzIwMCcsICctbWV0YWxfYmluZGluZycsICctaW1hZScsICc8aW5maWxlLm1hZT4nLCAnLW9tYWUnLCAnPG91dGZpbGUubWFlPic=

> <r_lp_tautomer_probability>
1

> <r_epik_Ionization_Penalty>
1.90777e-08

> <r_epik_Ionization_Penalty_Charging>
3.07942e-11

> <r_epik_Ionization_Penalty_Neutral>
1.90469e-08

> <r_epik_State_Penalty>
-0

> <r_epik_Charging_Adjusted_Penalty>
3.07942e-11

> <i_epik_Tot_Q>
0

> <i_epik_Tot_abs_Q>
0

> <r_epik_Metal_State_Penalty>
-0

> <b_epik_Metal_Only>
0

> <s_lp_Force_Field>
OPLS_2005

> <r_lp_Energy>
28.0936

> <b_lp_Chiralities_Consistent>
1

> <s_lp_Variant>
AV-unprocessed.smi:2976-4

> <Gold.Version>
5.8.1

> <Gold.Id.Protein>
6NUR|6NUR_protein|mol2

> <Gold.PLP.Fitness>
40.6715

> <Gold.PLP.PLP>
-40.0648

> <Gold.PLP.part.hbond>
-1.0000

> <Gold.PLP.part.metal>
0.0000

> <Gold.PLP.part.buried>
-5.6862

> <Gold.PLP.part.nonpolar>
-33.6946

> <Gold.PLP.part.repulsive>
0.2621

> <Gold.PLP.ligand.clash>
0.0000

> <Gold.PLP.ligand.torsion>
0.5872

> <Gold.PLP.Chemscore.Hbond>
0.5920

> <Gold.PLP.Chemscore.CHOScore>
0.0000

> <Gold.PLP.Chemscore.Metal>
0.0000

> <Gold.Chemscore.Hbonds>
donor molecule, donor type, donor heavy atom, donor atom, acceptor molecule, acceptor atom, score
      P1  H  8011  8017       L1    19  0.59

> <Gold.PLP.Chemscore.Internal.Correction>
0.0051

> <Gold.Rescore>
     Score         DG    S(hbond)    S(metal)    S(lipo)     H(rot)  DE(clash)    DE(int)     intcor
     14.07     -16.32       0.71        0.00     105.04       1.49       0.33       1.93       ----

> <Gold.Chemscore.Fitness>
14.0667

> <Gold.Chemscore.DG>
-16.3248

> <Gold.Chemscore.ZeroCoef>
-5.4800

> <Gold.Chemscore.Hbond>
0.7067

> <Gold.Chemscore.Metal>
0.0000

> <Gold.Chemscore.Lipo>
105.0448

> <Gold.Chemscore.Internal_Hbond>
0.0000

> <Gold.Chemscore.DEClash>
0.3273

> <Gold.Chemscore.DEInternal>
1.9309

> <Gold.Chemscore.Rot>
1.4866

> <Gold.Chemscore.Internal.Correction>
   9.000000E+99

> <Gold.Chemscore.Hbonds>
donor molecule, donor type, donor heavy atom, donor atom, acceptor molecule, acceptor atom, score
      P1  H  8011  8017       L1    19  0.57

> <Gold.Chemscore.Hbond.Weighted>
-2.3603

> <Gold.Chemscore.Metal.Weighted>
-0.0000

> <Gold.Chemscore.Lipo.Weighted>
-12.2902

> <Gold.Chemscore.Internal_Hbond.Weighted>
0.0000

> <Gold.Chemscore.DEClash.Weighted>
0.3273

> <Gold.Chemscore.DEInternal.Weighted>
1.9309

> <Gold.Chemscore.Rot.Weighted>
3.8057

> <Gold.Chemscore.Internal.Correction.Weighted>
   9.000000E+99

> <Gold.Protein.RotatedTorsions>
[ 6907 6896 6895 6894 ] final  -41.14 input  -60.11 | X-H torsion
[ 7974 7965 7964 7962 ] final   62.03 input  175.53 | X-H torsion
[ 8008 7997 7996 7995 ] final  137.53 input   59.86 | X-H torsion
[ 10167 10162 10161 10158 ] final   95.58 input  -65.29 | X-H torsion
[ 10718 10713 10712 10709 ] final   76.38 input   66.30 | X-H torsion
[ 10763 10752 10751 10750 ] final  103.82 input  -60.55 | X-H torsion
[ 11005 11000 10999 10996 ] final -129.61 input  -57.11 | X-H torsion

> <Gold.Protein.ActiveResidues>
 VAL166  LYS551  ARG553  GLY616  TRP617  ASP618  TYR619  PRO620  LYS621  CYS622 
 ASP623  PHE694  ASN695  SER759  ASP760  ASP761  ALA762  ILE779  LEU786  VAL792 
 PHE793  MET794  SER795  GLU796  ALA797  LYS798  CYS799  TRP800  GLU811  SER814 

> <Gold.Protein.RotatedAtoms>
  150.9702  134.9076  159.7783 H   0  0  0  0  0  0  0  0  0  0  0  0  # atno 6907 bound_to 6896
  152.5187  134.3551  159.9275 H   0  0  0  0  0  0  0  0  0  0  0  0  # atno 6908 bound_to 6896
  151.3561  133.3866  159.2719 H   0  0  0  0  0  0  0  0  0  0  0  0  # atno 6909 bound_to 6896
  145.8780  139.3423  143.0723 H   0  0  0  0  0  0  0  0  0  0  0  0  # atno 7974 bound_to 7965
  156.3002  140.2417  156.3924 H   0  0  0  0  0  0  0  0  0  0  0  0  # atno 8008 bound_to 7997
  154.8601  140.0420  157.1680 H   0  0  0  0  0  0  0  0  0  0  0  0  # atno 8009 bound_to 7997
  154.8905  140.2962  155.5377 H   0  0  0  0  0  0  0  0  0  0  0  0  # atno 8010 bound_to 7997
  139.7975  144.6827  150.9809 H   0  0  0  0  0  0  0  0  0  0  0  0  # atno 10167 bound_to 10162
  157.6671  130.9771  150.1489 H   0  0  0  0  0  0  0  0  0  0  0  0  # atno 10718 bound_to 10713
  153.3577  135.3964  155.1694 H   0  0  0  0  0  0  0  0  0  0  0  0  # atno 10763 bound_to 10752
  154.8673  135.3672  154.5140 H   0  0  0  0  0  0  0  0  0  0  0  0  # atno 10764 bound_to 10752
  153.5597  135.7081  153.5613 H   0  0  0  0  0  0  0  0  0  0  0  0  # atno 10765 bound_to 10752
  140.9417  134.1184  157.4144 H   0  0  0  0  0  0  0  0  0  0  0  0  # atno 11005 bound_to 11000
  145.9058  140.9213  143.0479 LP  0  0  0  0  0  0  0  0  0  0  0  0  # atno 17320 bound_to 7965
  144.6726  140.1093  143.7456 LP  0  0  0  0  0  0  0  0  0  0  0  0  # atno 17321 bound_to 7965
  140.7820  143.4316  151.0686 LP  0  0  0  0  0  0  0  0  0  0  0  0  # atno 17342 bound_to 10162
  139.7990  143.8111  152.3161 LP  0  0  0  0  0  0  0  0  0  0  0  0  # atno 17343 bound_to 10162
  156.2293  130.3680  149.8464 LP  0  0  0  0  0  0  0  0  0  0  0  0  # atno 17370 bound_to 10713
  156.6295  130.8660  151.3492 LP  0  0  0  0  0  0  0  0  0  0  0  0  # atno 17371 bound_to 10713
  139.8822  135.0038  156.6213 LP  0  0  0  0  0  0  0  0  0  0  0  0  # atno 17394 bound_to 11000
  140.7725  133.8727  155.8503 LP  0  0  0  0  0  0  0  0  0  0  0  0  # atno 17395 bound_to 11000

$$$$
