AV-unprocessed.smi:2317|AV-procd|sdf|9273|dock9
  -GOLD-   2272012493D 1   1.00000     0.00000
 Structure written by MMmdl.
 37 38  0  0  0  0  0  0  0  0  1 V2000
  144.4112  136.5780  152.4337 O   0  0  0  0  0  0  0  0  0  0  0  0
  145.6311  136.4624  152.3189 C   0  0  0  0  0  0  0  0  0  0  0  0
  146.5039  137.3509  152.8128 N   0  0  0  0  0  0  0  0  0  0  0  0
  146.1326  138.5548  153.5475 C   0  0  0  0  0  0  0  0  0  0  0  0
  147.2875  139.5775  153.5940 C   0  0  2  0  0  0  0  0  0  0  0  0
  148.4694  139.0488  154.4340 C   0  0  0  0  0  0  0  0  0  0  0  0
  149.6506  140.0321  154.4377 C   0  0  0  0  0  0  0  0  0  0  0  0
  149.2196  141.4187  154.9367 C   0  0  0  0  0  0  0  0  0  0  0  0
  148.0442  141.9667  154.1093 C   0  0  0  0  0  0  0  0  0  0  0  0
  146.8531  140.9892  154.0698 C   0  0  2  0  0  0  0  0  0  0  0  0
  146.2547  140.9330  155.3512 O   0  0  0  0  0  0  0  0  0  0  0  0
  146.2655  135.4621  151.6835 N   0  0  0  0  0  0  0  0  0  0  0  0
  145.7155  134.3358  151.0109 C   0  0  0  0  0  0  0  0  0  0  0  0
  144.5075  134.3577  150.2717 C   0  0  0  0  0  0  0  0  0  0  0  0
  144.0660  133.1648  149.6646 C   0  0  0  0  0  0  0  0  0  0  0  0
  144.7305  131.9933  149.7543 N   0  0  0  0  0  0  0  0  0  0  0  0
  145.8745  131.9729  150.4704 C   0  0  0  0  0  0  0  0  0  0  0  0
  146.4031  133.1080  151.1170 C   0  0  0  0  0  0  0  0  0  0  0  0
  147.5552  133.0167  151.8248 F   0  0  0  0  0  0  0  0  0  0  0  0
  147.4899  137.1845  152.6729 H   0  0  0  0  0  0  0  0  0  0  0  0
  145.2480  139.0099  153.0987 H   0  0  0  0  0  0  0  0  0  0  0  0
  145.8533  138.2637  154.5609 H   0  0  0  0  0  0  0  0  0  0  0  0
  147.6530  139.6861  152.5713 H   0  0  0  0  0  0  0  0  0  0  0  0
  148.1443  138.8655  155.4589 H   0  0  0  0  0  0  0  0  0  0  0  0
  148.8025  138.0869  154.0428 H   0  0  0  0  0  0  0  0  0  0  0  0
  150.4543  139.6451  155.0649 H   0  0  0  0  0  0  0  0  0  0  0  0
  150.0588  140.1174  153.4300 H   0  0  0  0  0  0  0  0  0  0  0  0
  148.9345  141.3565  155.9877 H   0  0  0  0  0  0  0  0  0  0  0  0
  150.0617  142.1094  154.8875 H   0  0  0  0  0  0  0  0  0  0  0  0
  147.7275  142.9330  154.5034 H   0  0  0  0  0  0  0  0  0  0  0  0
  148.3859  142.1527  153.0903 H   0  0  0  0  0  0  0  0  0  0  0  0
  146.1046  141.3921  153.3867 H   0  0  0  0  0  0  0  0  0  0  0  0
  145.8437  141.7654  155.5280 H   0  0  0  0  0  0  0  0  0  0  0  0
  147.2698  135.5451  151.6227 H   0  0  0  0  0  0  0  0  0  0  0  0
  143.9092  135.2491  150.1667 H   0  0  0  0  0  0  0  0  0  0  0  0
  143.1486  133.1507  149.0948 H   0  0  0  0  0  0  0  0  0  0  0  0
  146.3839  131.0228  150.5318 H   0  0  0  0  0  0  0  0  0  0  0  0
  1  2  2  0  0  0  0
  2  3  1  0  0  0  0
  2 12  1  0  0  0  0
  3  4  1  0  0  0  0
  3 20  1  0  0  0  0
  4  5  1  0  0  0  0
  4 21  1  0  0  0  0
  4 22  1  0  0  0  0
  5 10  1  0  0  0  0
  5  6  1  0  0  0  0
  5 23  1  0  0  0  0
  6  7  1  0  0  0  0
  6 24  1  0  0  0  0
  6 25  1  0  0  0  0
  7  8  1  0  0  0  0
  7 26  1  0  0  0  0
  7 27  1  0  0  0  0
  8  9  1  0  0  0  0
  8 28  1  0  0  0  0
  8 29  1  0  0  0  0
  9 10  1  0  0  0  0
  9 30  1  0  0  0  0
  9 31  1  0  0  0  0
 10 11  1  0  0  0  0
 10 32  1  0  0  0  0
 11 33  1  0  0  0  0
 12 13  1  0  0  0  0
 12 34  1  0  0  0  0
 13 18  1  0  0  0  0
 13 14  2  0  0  0  0
 14 15  1  0  0  0  0
 14 35  1  0  0  0  0
 15 16  2  0  0  0  0
 15 36  1  0  0  0  0
 16 17  1  0  0  0  0
 17 18  2  0  0  0  0
 17 37  1  0  0  0  0
 18 19  1  0  0  0  0
M  END
> <s_m_source_file>
AV-unprocessed.smi

> <i_m_source_file_index>
2317

> <i_lp_mmshare_version>
43012

> <i_f3d_flags>
0

> <s_epik_input>
RmMxW2NIXW5bY0hdW2NIXWMxW05IXUMoPU8pW05IXVtDSDJdW0NAQEhdMltDSDJdW0NIMl1bQ0gyXVtDSDJdW0NASF0yW09IXQ==

> <s_epik_cmdline>
J2VwaWtfcHl0aG9uJywgJy1waCcsICc3LjAnLCAnLXRuJywgJzgnLCAnLW1hJywgJzIwMCcsICctbWV0YWxfYmluZGluZycsICctaW1hZScsICc8aW5maWxlLm1hZT4nLCAnLW9tYWUnLCAnPG91dGZpbGUubWFlPic=

> <r_epik_Ionization_Penalty>
0.00317647

> <r_epik_Ionization_Penalty_Charging>
0

> <r_epik_Ionization_Penalty_Neutral>
0.00317647

> <r_epik_State_Penalty>
0.0022093

> <r_epik_Charging_Adjusted_Penalty>
0.0022093

> <i_epik_Tot_Q>
0

> <i_epik_Tot_abs_Q>
0

> <r_epik_Metal_State_Penalty>
-0

> <b_epik_Metal_Only>
0

> <s_lp_Force_Field>
OPLS_2005

> <r_lp_Energy>
20.2731

> <b_lp_Chiralities_Consistent>
1

> <s_lp_Variant>
AV-unprocessed.smi:2317-3

> <Gold.Version>
5.8.1

> <Gold.Id.Protein>
6NUR|6NUR_protein|mol2

> <Gold.PLP.Fitness>
43.7069

> <Gold.PLP.PLP>
-33.1377

> <Gold.PLP.part.hbond>
-2.1788

> <Gold.PLP.part.metal>
0.0000

> <Gold.PLP.part.buried>
-1.6034

> <Gold.PLP.part.nonpolar>
-29.1993

> <Gold.PLP.part.repulsive>
0.3938

> <Gold.PLP.ligand.clash>
0.0000

> <Gold.PLP.ligand.torsion>
0.4394

> <Gold.PLP.Chemscore.Hbond>
2.0000

> <Gold.PLP.Chemscore.CHOScore>
1.8123

> <Gold.PLP.Chemscore.Metal>
0.0000

> <Gold.Chemscore.Hbonds>
donor molecule, donor type, donor heavy atom, donor atom, acceptor molecule, acceptor atom, score
      L1  H     3    20       P1  7948  1.00
      L1  H    12    34       P1  7948  1.00
      L1  C    15    36       P1 10186  0.97
      L1  C    17    37       P1 10747  0.69

> <Gold.PLP.Chemscore.Internal.Correction>
0.0109

> <Gold.Rescore>
     Score         DG    S(hbond)    S(metal)    S(lipo)     H(rot)  DE(clash)    DE(int)     intcor
     16.45     -17.05       1.93        0.00      82.78       1.79       0.18       0.42       ----

> <Gold.Chemscore.Fitness>
16.4525

> <Gold.Chemscore.DG>
-17.0534

> <Gold.Chemscore.ZeroCoef>
-5.4800

> <Gold.Chemscore.Hbond>
1.9339

> <Gold.Chemscore.Metal>
0.0000

> <Gold.Chemscore.Lipo>
82.7753

> <Gold.Chemscore.Internal_Hbond>
0.0000

> <Gold.Chemscore.DEClash>
0.1821

> <Gold.Chemscore.DEInternal>
0.4188

> <Gold.Chemscore.Rot>
1.7853

> <Gold.Chemscore.Internal.Correction>
   9.000000E+99

> <Gold.Chemscore.Hbonds>
donor molecule, donor type, donor heavy atom, donor atom, acceptor molecule, acceptor atom, score
      L1  H     3    20       P1  7948  0.96
      L1  H    12    34       P1  7948  0.99

> <Gold.Chemscore.Hbond.Weighted>
-6.4591

> <Gold.Chemscore.Metal.Weighted>
-0.0000

> <Gold.Chemscore.Lipo.Weighted>
-9.6847

> <Gold.Chemscore.Internal_Hbond.Weighted>
0.0000

> <Gold.Chemscore.DEClash.Weighted>
0.1821

> <Gold.Chemscore.DEInternal.Weighted>
0.4188

> <Gold.Chemscore.Rot.Weighted>
4.5704

> <Gold.Chemscore.Internal.Correction.Weighted>
   9.000000E+99

> <Gold.Protein.RotatedTorsions>
[ 6907 6896 6895 6894 ] final  171.01 input  -60.11 | X-H torsion
[ 7974 7965 7964 7962 ] final   53.16 input  175.53 | X-H torsion
[ 8008 7997 7996 7995 ] final   29.90 input   59.86 | X-H torsion
[ 10167 10162 10161 10158 ] final   -1.07 input  -65.29 | X-H torsion
[ 10718 10713 10712 10709 ] final  -68.84 input   66.30 | X-H torsion
[ 10763 10752 10751 10750 ] final  -83.84 input  -60.55 | X-H torsion
[ 11005 11000 10999 10996 ] final  -62.72 input  -57.11 | X-H torsion

> <Gold.Protein.ActiveResidues>
 VAL166  LYS551  ARG553  GLY616  TRP617  ASP618  TYR619  PRO620  LYS621  CYS622 
 ASP623  PHE694  ASN695  SER759  ASP760  ASP761  ALA762  ILE779  LEU786  VAL792 
 PHE793  MET794  SER795  GLU796  ALA797  LYS798  CYS799  TRP800  GLU811  SER814 

> <Gold.Protein.RotatedAtoms>
  151.8070  133.3377  159.3543 H   0  0  0  0  0  0  0  0  0  0  0  0  # atno 6907 bound_to 6896
  150.7339  134.5699  159.5894 H   0  0  0  0  0  0  0  0  0  0  0  0  # atno 6908 bound_to 6896
  152.3102  134.7508  160.0389 H   0  0  0  0  0  0  0  0  0  0  0  0  # atno 6909 bound_to 6896
  145.9740  139.4176  143.0173 H   0  0  0  0  0  0  0  0  0  0  0  0  # atno 7974 bound_to 7965
  155.0819  140.3211  155.4599 H   0  0  0  0  0  0  0  0  0  0  0  0  # atno 8008 bound_to 7997
  156.2765  140.2093  156.5893 H   0  0  0  0  0  0  0  0  0  0  0  0  # atno 8009 bound_to 7997
  154.6971  140.0510  157.0409 H   0  0  0  0  0  0  0  0  0  0  0  0  # atno 8010 bound_to 7997
  140.6795  143.6818  150.8099 H   0  0  0  0  0  0  0  0  0  0  0  0  # atno 10167 bound_to 10162
  156.0485  130.4302  150.2060 H   0  0  0  0  0  0  0  0  0  0  0  0  # atno 10718 bound_to 10713
  154.5925  135.5542  153.7292 H   0  0  0  0  0  0  0  0  0  0  0  0  # atno 10763 bound_to 10752
  153.0122  135.6346  154.1829 H   0  0  0  0  0  0  0  0  0  0  0  0  # atno 10764 bound_to 10752
  154.1770  135.2889  155.3044 H   0  0  0  0  0  0  0  0  0  0  0  0  # atno 10765 bound_to 10752
  141.1369  133.6643  156.5571 H   0  0  0  0  0  0  0  0  0  0  0  0  # atno 11005 bound_to 11000
  145.7866  140.9833  143.1071 LP  0  0  0  0  0  0  0  0  0  0  0  0  # atno 17320 bound_to 7965
  144.6844  139.9630  143.7480 LP  0  0  0  0  0  0  0  0  0  0  0  0  # atno 17321 bound_to 7965
  140.0517  143.5243  152.2670 LP  0  0  0  0  0  0  0  0  0  0  0  0  # atno 17342 bound_to 10162
  139.6108  144.7608  151.2957 LP  0  0  0  0  0  0  0  0  0  0  0  0  # atno 17343 bound_to 10162
  157.0147  130.9961  151.3356 LP  0  0  0  0  0  0  0  0  0  0  0  0  # atno 17370 bound_to 10713
  157.5386  130.8105  149.8001 LP  0  0  0  0  0  0  0  0  0  0  0  0  # atno 17371 bound_to 10713
  140.4017  134.7350  157.4784 LP  0  0  0  0  0  0  0  0  0  0  0  0  # atno 17394 bound_to 11000
  140.0491  134.6157  155.8884 LP  0  0  0  0  0  0  0  0  0  0  0  0  # atno 17395 bound_to 11000

$$$$
