AV-unprocessed.smi:113|AV-procd|sdf|1106|dock5
  -GOLD-   2262018223D 1   1.00000     0.00000
 Structure written by MMmdl.
 53 56  0  0  0  0  0  0  0  0  2 V2000
  149.7197  145.3030  160.3056 C   0  0  0  0  0  0  0  0  0  0  0  0
  150.5669  144.1443  159.8242 C   0  0  0  0  0  0  0  0  0  0  0  0
  150.4123  143.5836  158.5416 C   0  0  0  0  0  0  0  0  0  0  0  0
  151.2324  142.5001  158.1398 C   0  0  0  0  0  0  0  0  0  0  0  0
  151.0837  141.8663  156.7524 C   0  0  0  0  0  0  0  0  0  0  0  0
  150.7954  140.4398  156.7070 N   0  0  0  0  0  0  0  0  0  0  0  0
  151.5991  139.6272  155.8711 C   0  0  0  0  0  0  0  0  0  0  0  0
  152.5102  140.1052  155.1918 O   0  0  0  0  0  0  0  0  0  0  0  0
  151.2488  138.2050  155.8633 C   0  0  0  0  0  0  0  0  0  0  0  0
  152.0758  137.2684  154.9966 C   0  0  0  0  0  0  0  0  0  0  0  0
  150.2101  137.7629  156.6124 C   0  0  0  0  0  0  0  0  0  0  0  0
  149.4272  138.5845  157.4089 N   0  0  0  0  0  0  0  0  0  0  0  0
  148.2568  138.0518  158.2138 C   0  0  1  0  0  0  0  0  0  0  0  0
  147.8100  136.6927  157.6741 C   0  0  0  0  0  0  0  0  0  0  0  0
  148.6649  135.7474  158.4915 C   0  0  2  0  0  0  0  0  0  0  0  0
  148.1040  134.4507  158.5377 O   0  0  0  0  0  0  0  0  0  0  0  0
  148.7623  136.4652  159.8503 C   0  0  2  0  0  0  0  0  0  0  0  0
  147.6515  136.1319  160.8668 C   0  0  0  0  0  0  0  0  0  0  0  0
  147.4692  137.1968  161.7762 O   0  0  0  0  0  0  0  0  0  0  0  0
  148.6416  137.8574  159.5441 O   0  0  0  0  0  0  0  0  0  0  0  0
  149.7023  139.9661  157.4657 C   0  0  0  0  0  0  0  0  0  0  0  0
  148.9989  140.7257  158.1365 O   0  0  0  0  0  0  0  0  0  0  0  0
  152.2024  142.0123  159.0580 C   0  0  0  0  0  0  0  0  0  0  0  0
  153.0675  140.9376  158.7408 C   0  0  0  0  0  0  0  0  0  0  0  0
  154.0181  140.4842  159.6764 C   0  0  0  0  0  0  0  0  0  0  0  0
  154.1177  141.0951  160.9402 C   0  0  0  0  0  0  0  0  0  0  0  0
  153.2644  142.1635  161.2728 C   0  0  0  0  0  0  0  0  0  0  0  0
  152.3137  142.6195  160.3381 C   0  0  0  0  0  0  0  0  0  0  0  0
  151.4996  143.6466  160.6617 N   0  3  0  0  0  0  0  0  0  0  0  0
  148.8449  145.4385  159.6687 H   0  0  0  0  0  0  0  0  0  0  0  0
  150.2994  146.2262  160.2909 H   0  0  0  0  0  0  0  0  0  0  0  0
  149.3723  145.1289  161.3245 H   0  0  0  0  0  0  0  0  0  0  0  0
  149.6638  143.9940  157.8803 H   0  0  0  0  0  0  0  0  0  0  0  0
  150.3014  142.3762  156.1879 H   0  0  0  0  0  0  0  0  0  0  0  0
  151.9886  142.0304  156.1651 H   0  0  0  0  0  0  0  0  0  0  0  0
  151.7378  136.2349  155.0772 H   0  0  0  0  0  0  0  0  0  0  0  0
  153.1245  137.2991  155.2943 H   0  0  0  0  0  0  0  0  0  0  0  0
  152.0079  137.5600  153.9480 H   0  0  0  0  0  0  0  0  0  0  0  0
  149.9865  136.7080  156.5700 H   0  0  0  0  0  0  0  0  0  0  0  0
  147.4867  138.8235  158.1677 H   0  0  0  0  0  0  0  0  0  0  0  0
  146.7514  136.5636  157.9045 H   0  0  0  0  0  0  0  0  0  0  0  0
  147.9501  136.6024  156.5962 H   0  0  0  0  0  0  0  0  0  0  0  0
  149.6580  135.6824  158.0453 H   0  0  0  0  0  0  0  0  0  0  0  0
  147.3699  134.4620  159.1333 H   0  0  0  0  0  0  0  0  0  0  0  0
  149.7373  136.2928  160.3082 H   0  0  0  0  0  0  0  0  0  0  0  0
  146.7048  135.9856  160.3462 H   0  0  0  0  0  0  0  0  0  0  0  0
  147.8644  135.2081  161.4056 H   0  0  0  0  0  0  0  0  0  0  0  0
  147.2369  136.8358  162.6182 H   0  0  0  0  0  0  0  0  0  0  0  0
  153.0216  140.4446  157.7815 H   0  0  0  0  0  0  0  0  0  0  0  0
  154.6742  139.6643  159.4220 H   0  0  0  0  0  0  0  0  0  0  0  0
  154.8491  140.7443  161.6535 H   0  0  0  0  0  0  0  0  0  0  0  0
  153.3455  142.6285  162.2448 H   0  0  0  0  0  0  0  0  0  0  0  0
  151.5953  144.0681  161.5853 H   0  0  0  0  0  0  0  0  0  0  0  0
  1  2  1  0  0  0  0
  1 30  1  0  0  0  0
  1 31  1  0  0  0  0
  1 32  1  0  0  0  0
  2 29  1  0  0  0  0
  2  3  2  0  0  0  0
  3  4  1  0  0  0  0
  3 33  1  0  0  0  0
  4  5  1  0  0  0  0
  4 23  2  0  0  0  0
  5  6  1  0  0  0  0
  5 34  1  0  0  0  0
  5 35  1  0  0  0  0
  6 21  1  0  0  0  0
  6  7  1  0  0  0  0
  7  8  2  0  0  0  0
  7  9  1  0  0  0  0
  9 10  1  0  0  0  0
  9 11  2  0  0  0  0
 10 36  1  0  0  0  0
 10 37  1  0  0  0  0
 10 38  1  0  0  0  0
 11 12  1  0  0  0  0
 11 39  1  0  0  0  0
 12 13  1  0  0  0  0
 12 21  1  0  0  0  0
 13 20  1  0  0  0  0
 13 14  1  0  0  0  0
 13 40  1  0  0  0  0
 14 15  1  0  0  0  0
 14 41  1  0  0  0  0
 14 42  1  0  0  0  0
 15 16  1  0  0  0  0
 15 17  1  0  0  0  0
 15 43  1  0  0  0  0
 16 44  1  0  0  0  0
 17 18  1  0  0  0  0
 17 20  1  0  0  0  0
 17 45  1  0  0  0  0
 18 19  1  0  0  0  0
 18 46  1  0  0  0  0
 18 47  1  0  0  0  0
 19 48  1  0  0  0  0
 21 22  2  0  0  0  0
 23 28  1  0  0  0  0
 23 24  1  0  0  0  0
 24 25  2  0  0  0  0
 24 49  1  0  0  0  0
 25 26  1  0  0  0  0
 25 50  1  0  0  0  0
 26 27  2  0  0  0  0
 26 51  1  0  0  0  0
 27 28  1  0  0  0  0
 27 52  1  0  0  0  0
 28 29  2  0  0  0  0
 29 53  1  0  0  0  0
M  CHG  1  29   1
M  END
> <s_m_source_file>
AV-unprocessed.smi

> <i_m_source_file_index>
113

> <i_lp_mmshare_version>
43012

> <i_f3d_flags>
0

> <s_epik_input>
W2NIXTFbY0hdW2NIXVtjSF1jKGMxMiluYyhbQ0gzXSlbY0hdYzJbQ0gyXW4zYyg9TyljKFtDSDNdKVtjSF1uKGMzPU8pW0NAQEhdNFtDSDJdW0NAQEhdKFtPSF0pW0NASF0oTzQpW0NIMl1bT0hd

> <s_epik_cmdline>
J2VwaWtfcHl0aG9uJywgJy1waCcsICc3LjAnLCAnLXRuJywgJzgnLCAnLW1hJywgJzIwMCcsICctbWV0YWxfYmluZGluZycsICctaW1hZScsICc8aW5maWxlLm1hZT4nLCAnLW9tYWUnLCAnPG91dGZpbGUubWFlPic=

> <r_lp_tautomer_probability>
1

> <r_epik_Ionization_Penalty>
0.705471

> <r_epik_Ionization_Penalty_Charging>
0.70547

> <r_epik_Ionization_Penalty_Neutral>
1.19947e-07

> <r_epik_State_Penalty>
0.728574

> <r_epik_Charging_Adjusted_Penalty>
1.43404

> <i_epik_Tot_Q>
1

> <i_epik_Tot_abs_Q>
1

> <r_epik_Metal_State_Penalty>
4.61665

> <b_epik_Metal_Only>
0

> <s_epik_Chemistry_Notes>
This compound contains an acetal/aminal-like group ( X-CH(R)-Y where X, Y are N, S, or O) that may be acid/base labile, releasing an aldehyde.

> <s_lp_Force_Field>
OPLS_2005

> <r_lp_Energy>
45.4749

> <b_lp_Chiralities_Consistent>
1

> <s_lp_Variant>
AV-unprocessed.smi:113-16

> <Gold.Version>
5.8.1

> <Gold.Id.Protein>
6NUR|6NUR_protein|mol2

> <Gold.PLP.Fitness>
50.8761

> <Gold.PLP.PLP>
-43.0123

> <Gold.PLP.part.hbond>
-6.1136

> <Gold.PLP.part.metal>
0.0000

> <Gold.PLP.part.buried>
-0.4229

> <Gold.PLP.part.nonpolar>
-36.2272

> <Gold.PLP.part.repulsive>
0.1157

> <Gold.PLP.ligand.clash>
0.0000

> <Gold.PLP.ligand.torsion>
0.9161

> <Gold.PLP.Chemscore.Hbond>
3.2259

> <Gold.PLP.Chemscore.CHOScore>
0.0000

> <Gold.PLP.Chemscore.Metal>
0.0000

> <Gold.Chemscore.Hbonds>
donor molecule, donor type, donor heavy atom, donor atom, acceptor molecule, acceptor atom, score
      P1  H  6931  6943       L1    19  0.94
      P1  H  6934  6947       L1    19  0.77
      P1  H  7989  7998       L1     8  0.56
      P1  H  7997  8008       L1     8  0.93

> <Gold.PLP.Chemscore.Internal.Correction>
0.0185

> <Gold.Rescore>
     Score         DG    S(hbond)    S(metal)    S(lipo)     H(rot)  DE(clash)    DE(int)     intcor
     17.27     -20.87       2.48        0.00     126.70       3.01       1.42       2.18       ----

> <Gold.Chemscore.Fitness>
17.2724

> <Gold.Chemscore.DG>
-20.8732

> <Gold.Chemscore.ZeroCoef>
-5.4800

> <Gold.Chemscore.Hbond>
2.4790

> <Gold.Chemscore.Metal>
0.0000

> <Gold.Chemscore.Lipo>
126.7025

> <Gold.Chemscore.Internal_Hbond>
0.0000

> <Gold.Chemscore.DEClash>
1.4179

> <Gold.Chemscore.DEInternal>
2.1829

> <Gold.Chemscore.Rot>
3.0120

> <Gold.Chemscore.Internal.Correction>
   9.000000E+99

> <Gold.Chemscore.Hbonds>
donor molecule, donor type, donor heavy atom, donor atom, acceptor molecule, acceptor atom, score
      P1  H  6931  6943       L1    19  0.56
      P1  H  6934  6947       L1    19  0.67
      P1  H  7989  7998       L1     8  0.34
      P1  H  7997  8008       L1     8  0.83

> <Gold.Chemscore.Hbond.Weighted>
-8.2798

> <Gold.Chemscore.Metal.Weighted>
-0.0000

> <Gold.Chemscore.Lipo.Weighted>
-14.8242

> <Gold.Chemscore.Internal_Hbond.Weighted>
0.0000

> <Gold.Chemscore.DEClash.Weighted>
1.4179

> <Gold.Chemscore.DEInternal.Weighted>
2.1829

> <Gold.Chemscore.Rot.Weighted>
7.7108

> <Gold.Chemscore.Internal.Correction.Weighted>
   9.000000E+99

> <Gold.Protein.RotatedTorsions>
[ 6907 6896 6895 6894 ] final  -98.24 input  -60.11 | X-H torsion
[ 7974 7965 7964 7962 ] final  -35.05 input  175.53 | X-H torsion
[ 8008 7997 7996 7995 ] final  -27.24 input   59.86 | X-H torsion
[ 10167 10162 10161 10158 ] final    6.72 input  -65.29 | X-H torsion
[ 10718 10713 10712 10709 ] final  -43.92 input   66.30 | X-H torsion
[ 10763 10752 10751 10750 ] final  -54.88 input  -60.55 | X-H torsion
[ 11005 11000 10999 10996 ] final  116.18 input  -57.11 | X-H torsion

> <Gold.Protein.ActiveResidues>
 VAL166  LYS551  ARG553  GLY616  TRP617  ASP618  TYR619  PRO620  LYS621  CYS622 
 ASP623  PHE694  ASN695  SER759  ASP760  ASP761  ALA762  ILE779  LEU786  VAL792 
 PHE793  MET794  SER795  GLU796  ALA797  LYS798  CYS799  TRP800  GLU811  SER814 

> <Gold.Protein.RotatedAtoms>
  150.7041  134.1225  159.4039 H   0  0  0  0  0  0  0  0  0  0  0  0  # atno 6907 bound_to 6896
  151.9211  135.0295  160.0531 H   0  0  0  0  0  0  0  0  0  0  0  0  # atno 6908 bound_to 6896
  152.2255  133.4982  159.5223 H   0  0  0  0  0  0  0  0  0  0  0  0  # atno 6909 bound_to 6896
  146.0779  140.6112  142.8922 H   0  0  0  0  0  0  0  0  0  0  0  0  # atno 7974 bound_to 7965
  154.4386  140.1877  156.0901 H   0  0  0  0  0  0  0  0  0  0  0  0  # atno 8008 bound_to 7997
  156.0372  140.3324  155.7178 H   0  0  0  0  0  0  0  0  0  0  0  0  # atno 8009 bound_to 7997
  155.5753  140.0616  157.2787 H   0  0  0  0  0  0  0  0  0  0  0  0  # atno 8010 bound_to 7997
  140.6412  143.7769  150.7431 H   0  0  0  0  0  0  0  0  0  0  0  0  # atno 10167 bound_to 10162
  156.2439  130.4182  149.8728 H   0  0  0  0  0  0  0  0  0  0  0  0  # atno 10718 bound_to 10713
  154.1819  135.6442  153.5036 H   0  0  0  0  0  0  0  0  0  0  0  0  # atno 10763 bound_to 10752
  153.0057  135.5408  154.6505 H   0  0  0  0  0  0  0  0  0  0  0  0  # atno 10764 bound_to 10752
  154.5871  135.2930  155.0646 H   0  0  0  0  0  0  0  0  0  0  0  0  # atno 10765 bound_to 10752
  139.9033  134.9594  156.7159 H   0  0  0  0  0  0  0  0  0  0  0  0  # atno 11005 bound_to 11000
  144.7273  140.4566  143.6963 LP  0  0  0  0  0  0  0  0  0  0  0  0  # atno 17320 bound_to 7965
  145.6272  139.1531  143.2989 LP  0  0  0  0  0  0  0  0  0  0  0  0  # atno 17321 bound_to 7965
  140.1401  143.4449  152.2199 LP  0  0  0  0  0  0  0  0  0  0  0  0  # atno 17342 bound_to 10162
  139.5621  144.7412  151.4124 LP  0  0  0  0  0  0  0  0  0  0  0  0  # atno 17343 bound_to 10162
  156.6300  130.8662  151.3493 LP  0  0  0  0  0  0  0  0  0  0  0  0  # atno 17370 bound_to 10713
  157.7187  130.9530  150.1353 LP  0  0  0  0  0  0  0  0  0  0  0  0  # atno 17371 bound_to 10713
  140.7039  133.9282  155.8041 LP  0  0  0  0  0  0  0  0  0  0  0  0  # atno 17394 bound_to 11000
  141.0351  134.0701  157.3968 LP  0  0  0  0  0  0  0  0  0  0  0  0  # atno 17395 bound_to 11000

$$$$
