AV-unprocessed.smi:2477|AV-procd|sdf|9761|dock3
  -GOLD-   2272013403D 1   1.00000     0.00000
 Structure written by MMmdl.
 51 53  0  0  0  0  0  0  0  0  1 V2000
  145.7041  129.8245  152.4350 C   0  0  0  0  0  0  0  0  0  0  0  0
  145.6670  131.2785  152.2580 N   0  0  0  0  0  0  0  0  0  0  0  0
  144.6559  131.8078  151.4388 C   0  0  0  0  0  0  0  0  0  0  0  0
  144.5466  133.1253  151.2200 C   0  0  0  0  0  0  0  0  0  0  0  0
  145.4996  134.0078  151.8492 C   0  0  0  0  0  0  0  0  0  0  0  0
  146.4853  133.5184  152.6440 C   0  0  0  0  0  0  0  0  0  0  0  0
  147.4583  134.2957  153.2984 N   0  0  0  0  0  0  0  0  0  0  0  0
  147.9573  134.1920  154.5438 C   0  0  0  0  0  0  0  0  0  0  0  0
  147.6365  133.3570  155.3886 O   0  0  0  0  0  0  0  0  0  0  0  0
  148.8885  135.1313  154.7592 N   0  0  0  0  0  0  0  0  0  0  0  0
  149.6596  135.2920  155.9889 C   0  0  2  0  0  0  0  0  0  0  0  0
  148.7094  135.5679  157.1698 C   0  0  0  0  0  0  0  0  0  0  0  0
  149.4867  135.7583  158.4814 C   0  0  0  0  0  0  0  0  0  0  0  0
  150.5329  136.8754  158.3502 C   0  0  0  0  0  0  0  0  0  0  0  0
  151.4856  136.6130  157.1719 C   0  0  0  0  0  0  0  0  0  0  0  0
  150.7249  136.4064  155.8488 C   0  0  2  0  0  0  0  0  0  0  0  0
  150.0923  137.6377  155.5102 O   0  0  0  0  0  0  0  0  0  0  0  0
  150.7792  138.4294  154.5479 C   0  0  0  0  0  0  0  0  0  0  0  0
  152.2742  138.5041  154.8739 C   0  0  0  0  0  0  0  0  0  0  0  0
  152.3822  139.5363  156.0010 C   0  0  0  0  0  0  0  0  0  0  0  0
  151.1444  140.4385  155.8762 C   0  0  0  0  0  0  0  0  0  0  0  0
  150.3154  139.8761  154.7147 C   0  0  0  0  0  0  0  0  0  0  0  0
  146.5969  132.0647  152.8776 C   0  0  0  0  0  0  0  0  0  0  0  0
  147.4750  131.5712  153.5897 O   0  0  0  0  0  0  0  0  0  0  0  0
  144.8917  129.3153  151.9154 H   0  0  0  0  0  0  0  0  0  0  0  0
  145.6262  129.5638  153.4916 H   0  0  0  0  0  0  0  0  0  0  0  0
  146.6409  129.4171  152.0521 H   0  0  0  0  0  0  0  0  0  0  0  0
  143.9821  131.0839  151.0038 H   0  0  0  0  0  0  0  0  0  0  0  0
  143.7643  133.5180  150.5874 H   0  0  0  0  0  0  0  0  0  0  0  0
  145.3865  135.0606  151.6536 H   0  0  0  0  0  0  0  0  0  0  0  0
  147.8405  135.0390  152.7318 H   0  0  0  0  0  0  0  0  0  0  0  0
  149.0957  135.7750  154.0098 H   0  0  0  0  0  0  0  0  0  0  0  0
  150.1733  134.3507  156.1946 H   0  0  0  0  0  0  0  0  0  0  0  0
  148.1142  136.4598  156.9684 H   0  0  0  0  0  0  0  0  0  0  0  0
  148.0028  134.7447  157.2805 H   0  0  0  0  0  0  0  0  0  0  0  0
  148.7957  135.9895  159.2925 H   0  0  0  0  0  0  0  0  0  0  0  0
  149.9807  134.8244  158.7525 H   0  0  0  0  0  0  0  0  0  0  0  0
  150.0298  137.8329  158.2092 H   0  0  0  0  0  0  0  0  0  0  0  0
  151.1027  136.9612  159.2758 H   0  0  0  0  0  0  0  0  0  0  0  0
  152.1901  137.4393  157.0727 H   0  0  0  0  0  0  0  0  0  0  0  0
  152.0832  135.7258  157.3844 H   0  0  0  0  0  0  0  0  0  0  0  0
  151.4511  136.1181  155.0863 H   0  0  0  0  0  0  0  0  0  0  0  0
  150.5871  138.0702  153.5359 H   0  0  0  0  0  0  0  0  0  0  0  0
  152.7108  137.5423  155.1426 H   0  0  0  0  0  0  0  0  0  0  0  0
  152.8126  138.8700  153.9987 H   0  0  0  0  0  0  0  0  0  0  0  0
  152.3707  139.0312  156.9677 H   0  0  0  0  0  0  0  0  0  0  0  0
  153.3120  140.1026  155.9393 H   0  0  0  0  0  0  0  0  0  0  0  0
  150.5689  140.4043  156.8020 H   0  0  0  0  0  0  0  0  0  0  0  0
  151.4160  141.4796  155.6988 H   0  0  0  0  0  0  0  0  0  0  0  0
  150.5460  140.4339  153.8060 H   0  0  0  0  0  0  0  0  0  0  0  0
  149.2412  139.9580  154.8840 H   0  0  0  0  0  0  0  0  0  0  0  0
  1  2  1  0  0  0  0
  1 25  1  0  0  0  0
  1 26  1  0  0  0  0
  1 27  1  0  0  0  0
  2 23  1  0  0  0  0
  2  3  1  0  0  0  0
  3  4  2  0  0  0  0
  3 28  1  0  0  0  0
  4  5  1  0  0  0  0
  4 29  1  0  0  0  0
  5  6  2  0  0  0  0
  5 30  1  0  0  0  0
  6  7  1  0  0  0  0
  6 23  1  0  0  0  0
  7  8  1  0  0  0  0
  7 31  1  0  0  0  0
  8  9  2  0  0  0  0
  8 10  1  0  0  0  0
 10 11  1  0  0  0  0
 10 32  1  0  0  0  0
 11 16  1  0  0  0  0
 11 12  1  0  0  0  0
 11 33  1  0  0  0  0
 12 13  1  0  0  0  0
 12 34  1  0  0  0  0
 12 35  1  0  0  0  0
 13 14  1  0  0  0  0
 13 36  1  0  0  0  0
 13 37  1  0  0  0  0
 14 15  1  0  0  0  0
 14 38  1  0  0  0  0
 14 39  1  0  0  0  0
 15 16  1  0  0  0  0
 15 40  1  0  0  0  0
 15 41  1  0  0  0  0
 16 17  1  0  0  0  0
 16 42  1  0  0  0  0
 17 18  1  0  0  0  0
 18 22  1  0  0  0  0
 18 19  1  0  0  0  0
 18 43  1  0  0  0  0
 19 20  1  0  0  0  0
 19 44  1  0  0  0  0
 19 45  1  0  0  0  0
 20 21  1  0  0  0  0
 20 46  1  0  0  0  0
 20 47  1  0  0  0  0
 21 22  1  0  0  0  0
 21 48  1  0  0  0  0
 21 49  1  0  0  0  0
 22 50  1  0  0  0  0
 22 51  1  0  0  0  0
 23 24  2  0  0  0  0
M  END
> <s_m_source_file>
AV-unprocessed.smi

> <i_m_source_file_index>
2477

> <i_lp_mmshare_version>
43012

> <i_f3d_flags>
0

> <s_epik_input>
W0NIM11uMVtjSF1bY0hdW2NIXWMoYzE9TylbTkhdQyg9TylbTkhdW0NAQEhdMltDSDJdW0NIMl1bQ0gyXVtDSDJdW0NASF0yT1tDSF0zW0NIMl1bQ0gyXVtDSDJdW0NIMl0z

> <s_epik_cmdline>
J2VwaWtfcHl0aG9uJywgJy1waCcsICc3LjAnLCAnLXRuJywgJzgnLCAnLW1hJywgJzIwMCcsICctbWV0YWxfYmluZGluZycsICctaW1hZScsICc8aW5maWxlLm1hZT4nLCAnLW9tYWUnLCAnPG91dGZpbGUubWFlPic=

> <r_lp_tautomer_probability>
1

> <r_epik_Ionization_Penalty>
2.40753e-05

> <r_epik_Ionization_Penalty_Charging>
4.84018e-06

> <r_epik_Ionization_Penalty_Neutral>
1.92352e-05

> <r_epik_State_Penalty>
-0

> <r_epik_Charging_Adjusted_Penalty>
4.84018e-06

> <i_epik_Tot_Q>
0

> <i_epik_Tot_abs_Q>
0

> <r_epik_Metal_State_Penalty>
-0

> <b_epik_Metal_Only>
0

> <s_lp_Force_Field>
OPLS_2005

> <r_lp_Energy>
42.349

> <b_lp_Chiralities_Consistent>
1

> <s_lp_Variant>
AV-unprocessed.smi:2477-3

> <Gold.Version>
5.8.1

> <Gold.Id.Protein>
6NUR|6NUR_protein|mol2

> <Gold.PLP.Fitness>
44.3744

> <Gold.PLP.PLP>
-40.4340

> <Gold.PLP.part.hbond>
-2.0000

> <Gold.PLP.part.metal>
0.0000

> <Gold.PLP.part.buried>
-4.7440

> <Gold.PLP.part.nonpolar>
-33.5646

> <Gold.PLP.part.repulsive>
0.2565

> <Gold.PLP.ligand.clash>
0.0000

> <Gold.PLP.ligand.torsion>
1.0628

> <Gold.PLP.Chemscore.Hbond>
2.0000

> <Gold.PLP.Chemscore.CHOScore>
0.0000

> <Gold.PLP.Chemscore.Metal>
0.0000

> <Gold.Chemscore.Hbonds>
donor molecule, donor type, donor heavy atom, donor atom, acceptor molecule, acceptor atom, score
      L1  H     7    31       P1  7948  1.00
      L1  H    10    32       P1  7948  0.60

> <Gold.PLP.Chemscore.Internal.Correction>
0.0661

> <Gold.Rescore>
     Score         DG    S(hbond)    S(metal)    S(lipo)     H(rot)  DE(clash)    DE(int)     intcor
     13.32     -19.12       1.84        0.00      93.73       1.36       1.19       4.61       ----

> <Gold.Chemscore.Fitness>
13.3153

> <Gold.Chemscore.DG>
-19.1152

> <Gold.Chemscore.ZeroCoef>
-5.4800

> <Gold.Chemscore.Hbond>
1.8386

> <Gold.Chemscore.Metal>
0.0000

> <Gold.Chemscore.Lipo>
93.7310

> <Gold.Chemscore.Internal_Hbond>
0.0000

> <Gold.Chemscore.DEClash>
1.1949

> <Gold.Chemscore.DEInternal>
4.6051

> <Gold.Chemscore.Rot>
1.3564

> <Gold.Chemscore.Internal.Correction>
   9.000000E+99

> <Gold.Chemscore.Hbonds>
donor molecule, donor type, donor heavy atom, donor atom, acceptor molecule, acceptor atom, score
      L1  H     7    31       P1  7948  0.98
      L1  H    10    32       P1  7948  0.50

> <Gold.Chemscore.Hbond.Weighted>
-6.1411

> <Gold.Chemscore.Metal.Weighted>
-0.0000

> <Gold.Chemscore.Lipo.Weighted>
-10.9665

> <Gold.Chemscore.Internal_Hbond.Weighted>
0.0000

> <Gold.Chemscore.DEClash.Weighted>
1.1949

> <Gold.Chemscore.DEInternal.Weighted>
4.6051

> <Gold.Chemscore.Rot.Weighted>
3.4724

> <Gold.Chemscore.Internal.Correction.Weighted>
   9.000000E+99

> <Gold.Protein.RotatedTorsions>
[ 6907 6896 6895 6894 ] final -144.34 input  -60.11 | X-H torsion
[ 7974 7965 7964 7962 ] final   23.70 input  175.53 | X-H torsion
[ 8008 7997 7996 7995 ] final  127.55 input   59.86 | X-H torsion
[ 10167 10162 10161 10158 ] final  150.35 input  -65.29 | X-H torsion
[ 10718 10713 10712 10709 ] final   16.85 input   66.30 | X-H torsion
[ 10763 10752 10751 10750 ] final -105.74 input  -60.55 | X-H torsion
[ 11005 11000 10999 10996 ] final -175.73 input  -57.11 | X-H torsion

> <Gold.Protein.ActiveResidues>
 VAL166  LYS551  ARG553  GLY616  TRP617  ASP618  TYR619  PRO620  LYS621  CYS622 
 ASP623  PHE694  ASN695  SER759  ASP760  ASP761  ALA762  ILE779  LEU786  VAL792 
 PHE793  MET794  SER795  GLU796  ALA797  LYS798  CYS799  TRP800  GLU811  SER814 

> <Gold.Protein.RotatedAtoms>
  151.1127  133.5161  159.2604 H   0  0  0  0  0  0  0  0  0  0  0  0  # atno 6907 bound_to 6896
  151.1949  135.0418  159.8858 H   0  0  0  0  0  0  0  0  0  0  0  0  # atno 6908 bound_to 6896
  152.5451  134.0962  159.8351 H   0  0  0  0  0  0  0  0  0  0  0  0  # atno 6909 bound_to 6896
  146.1972  139.7708  142.8788 H   0  0  0  0  0  0  0  0  0  0  0  0  # atno 7974 bound_to 7965
  156.2893  140.2666  156.2292 H   0  0  0  0  0  0  0  0  0  0  0  0  # atno 8008 bound_to 7997
  155.0089  140.0387  157.2409 H   0  0  0  0  0  0  0  0  0  0  0  0  # atno 8009 bound_to 7997
  154.7535  140.2747  155.6278 H   0  0  0  0  0  0  0  0  0  0  0  0  # atno 8010 bound_to 7997
  139.4851  144.5529  151.7369 H   0  0  0  0  0  0  0  0  0  0  0  0  # atno 10167 bound_to 10162
  157.0738  130.6359  149.5811 H   0  0  0  0  0  0  0  0  0  0  0  0  # atno 10718 bound_to 10713
  154.7966  135.4738  154.0176 H   0  0  0  0  0  0  0  0  0  0  0  0  # atno 10763 bound_to 10752
  153.1714  135.6825  153.8610 H   0  0  0  0  0  0  0  0  0  0  0  0  # atno 10764 bound_to 10752
  153.8191  135.3206  155.3386 H   0  0  0  0  0  0  0  0  0  0  0  0  # atno 10765 bound_to 10752
  140.4600  134.6264  157.4838 H   0  0  0  0  0  0  0  0  0  0  0  0  # atno 11005 bound_to 11000
  145.3604  141.0324  143.3288 LP  0  0  0  0  0  0  0  0  0  0  0  0  # atno 17320 bound_to 7965
  144.8606  139.5183  143.6814 LP  0  0  0  0  0  0  0  0  0  0  0  0  # atno 17321 bound_to 7965
  140.5086  144.1060  150.5989 LP  0  0  0  0  0  0  0  0  0  0  0  0  # atno 17342 bound_to 10162
  140.3978  143.2719  151.9984 LP  0  0  0  0  0  0  0  0  0  0  0  0  # atno 17343 bound_to 10162
  155.9943  130.5006  150.7414 LP  0  0  0  0  0  0  0  0  0  0  0  0  # atno 17370 bound_to 10713
  157.4857  131.0906  151.0486 LP  0  0  0  0  0  0  0  0  0  0  0  0  # atno 17371 bound_to 10713
  139.9952  134.6923  155.9622 LP  0  0  0  0  0  0  0  0  0  0  0  0  # atno 17394 bound_to 11000
  141.1626  133.6538  156.4369 LP  0  0  0  0  0  0  0  0  0  0  0  0  # atno 17395 bound_to 11000

$$$$
