AV-unprocessed.smi:865|AV-procd|sdf|3991|dock10
  -GOLD-   22720 1473D 1   1.00000     0.00000
 Structure written by MMmdl.
 36 36  0  0  0  0  0  0  0  0  1 V2000
  146.8244  139.1327  151.7110 C   0  0  0  0  0  0  0  0  0  0  0  0
  147.4256  138.9926  153.1176 C   0  0  0  0  0  0  0  0  0  0  0  0
  147.3588  140.2768  153.9837 C   0  0  0  0  0  0  0  0  0  0  0  0
  146.7377  141.4594  153.1954 C   0  0  0  0  0  0  0  0  0  0  0  0
  146.3070  142.6475  154.0685 C   0  0  0  0  0  0  0  0  0  0  0  0
  148.7334  140.6401  154.6140 C   0  0  1  0  0  0  0  0  0  0  0  0
  149.5999  141.1058  153.5968 O   0  0  0  0  0  0  0  0  0  0  0  0
  148.6381  141.7127  155.7224 C   0  0  0  0  0  0  0  0  0  0  0  0
  149.9422  141.9914  156.3130 N   0  0  0  0  0  0  0  0  0  0  0  0
  150.2648  141.7981  157.6008 C   0  0  0  0  0  0  0  0  0  0  0  0
  149.4948  141.3193  158.4327 O   0  0  0  0  0  0  0  0  0  0  0  0
  151.6713  142.2229  158.0202 C   0  0  0  0  0  0  0  0  0  0  0  0
  151.6212  143.0551  159.2066 N   0  0  0  0  0  0  0  0  0  0  0  0
  151.9881  144.3230  159.4043 C   0  0  0  0  0  0  0  0  0  0  0  0
  151.7861  144.7002  160.6575 N   0  0  0  0  0  0  0  0  0  0  0  0
  151.2586  143.5634  161.2475 N   0  0  0  0  0  0  0  0  0  0  0  0
  151.1588  142.5838  160.3915 N   0  0  0  0  0  0  0  0  0  0  0  0
  147.0242  138.2391  151.1196 H   0  0  0  0  0  0  0  0  0  0  0  0
  147.2541  139.9823  151.1801 H   0  0  0  0  0  0  0  0  0  0  0  0
  145.7430  139.2612  151.7401 H   0  0  0  0  0  0  0  0  0  0  0  0
  146.9471  138.1618  153.6368 H   0  0  0  0  0  0  0  0  0  0  0  0
  148.4653  138.6967  152.9876 H   0  0  0  0  0  0  0  0  0  0  0  0
  146.6846  140.0608  154.8139 H   0  0  0  0  0  0  0  0  0  0  0  0
  147.4568  141.8432  152.4730 H   0  0  0  0  0  0  0  0  0  0  0  0
  145.8860  141.1119  152.6095 H   0  0  0  0  0  0  0  0  0  0  0  0
  145.9705  143.4770  153.4463 H   0  0  0  0  0  0  0  0  0  0  0  0
  147.1351  143.0091  154.6787 H   0  0  0  0  0  0  0  0  0  0  0  0
  145.4836  142.3906  154.7336 H   0  0  0  0  0  0  0  0  0  0  0  0
  149.1723  139.7431  155.0498 H   0  0  0  0  0  0  0  0  0  0  0  0
  149.8387  140.3742  153.0485 H   0  0  0  0  0  0  0  0  0  0  0  0
  148.1569  142.6257  155.3667 H   0  0  0  0  0  0  0  0  0  0  0  0
  148.0154  141.3407  156.5364 H   0  0  0  0  0  0  0  0  0  0  0  0
  150.6410  142.3927  155.7043 H   0  0  0  0  0  0  0  0  0  0  0  0
  152.2777  141.3420  158.2342 H   0  0  0  0  0  0  0  0  0  0  0  0
  152.1648  142.7670  157.2130 H   0  0  0  0  0  0  0  0  0  0  0  0
  152.4025  144.9617  158.6380 H   0  0  0  0  0  0  0  0  0  0  0  0
  1  2  1  0  0  0  0
  1 18  1  0  0  0  0
  1 19  1  0  0  0  0
  1 20  1  0  0  0  0
  2  3  1  0  0  0  0
  2 21  1  0  0  0  0
  2 22  1  0  0  0  0
  3  4  1  0  0  0  0
  3  6  1  0  0  0  0
  3 23  1  0  0  0  0
  4  5  1  0  0  0  0
  4 24  1  0  0  0  0
  4 25  1  0  0  0  0
  5 26  1  0  0  0  0
  5 27  1  0  0  0  0
  5 28  1  0  0  0  0
  6  7  1  0  0  0  0
  6  8  1  0  0  0  0
  6 29  1  0  0  0  0
  7 30  1  0  0  0  0
  8  9  1  0  0  0  0
  8 31  1  0  0  0  0
  8 32  1  0  0  0  0
  9 10  1  0  0  0  0
  9 33  1  0  0  0  0
 10 11  2  0  0  0  0
 10 12  1  0  0  0  0
 12 13  1  0  0  0  0
 12 34  1  0  0  0  0
 12 35  1  0  0  0  0
 13 17  1  0  0  0  0
 13 14  1  0  0  0  0
 14 15  2  0  0  0  0
 14 36  1  0  0  0  0
 15 16  1  0  0  0  0
 16 17  2  0  0  0  0
M  END
> <s_m_source_file>
AV-unprocessed.smi

> <i_m_source_file_index>
865

> <i_lp_mmshare_version>
43012

> <i_f3d_flags>
0

> <s_epik_input>
W0NIM11bQ0gyXVtDSF0oW0NIMl1bQ0gzXSlbQ0BIXShbT0hdKVtDSDJdW05IXUMoPU8pW0NIMl1uMVtjSF1ubm4x

> <s_epik_cmdline>
J2VwaWtfcHl0aG9uJywgJy1waCcsICc3LjAnLCAnLXRuJywgJzgnLCAnLW1hJywgJzIwMCcsICctbWV0YWxfYmluZGluZycsICctaW1hZScsICc8aW5maWxlLm1hZT4nLCAnLW9tYWUnLCAnPG91dGZpbGUubWFlPic=

> <r_lp_tautomer_probability>
1

> <r_epik_Ionization_Penalty>
9.39891e-07

> <r_epik_Ionization_Penalty_Charging>
0

> <r_epik_Ionization_Penalty_Neutral>
9.39891e-07

> <r_epik_State_Penalty>
-0

> <r_epik_Charging_Adjusted_Penalty>
0

> <i_epik_Tot_Q>
0

> <i_epik_Tot_abs_Q>
0

> <r_epik_Metal_State_Penalty>
-0

> <b_epik_Metal_Only>
0

> <s_lp_Force_Field>
OPLS_2005

> <r_lp_Energy>
13.5174

> <b_lp_Chiralities_Consistent>
1

> <s_lp_Variant>
AV-unprocessed.smi:865-2

> <Gold.Version>
5.8.1

> <Gold.Id.Protein>
6NUR|6NUR_protein|mol2

> <Gold.PLP.Fitness>
36.6638

> <Gold.PLP.PLP>
-33.6186

> <Gold.PLP.part.hbond>
-5.3510

> <Gold.PLP.part.metal>
0.0000

> <Gold.PLP.part.buried>
-1.3638

> <Gold.PLP.part.nonpolar>
-25.7324

> <Gold.PLP.part.repulsive>
0.4642

> <Gold.PLP.ligand.clash>
0.0000

> <Gold.PLP.ligand.torsion>
0.9908

> <Gold.PLP.Chemscore.Hbond>
1.6080

> <Gold.PLP.Chemscore.CHOScore>
0.0000

> <Gold.PLP.Chemscore.Metal>
0.0000

> <Gold.Chemscore.Hbonds>
donor molecule, donor type, donor heavy atom, donor atom, acceptor molecule, acceptor atom, score
      L1  H     7    30       P1  7957  0.64
      P1  H  8011  8017       L1     7  0.84

> <Gold.PLP.Chemscore.Internal.Correction>
0.2029

> <Gold.Rescore>
     Score         DG    S(hbond)    S(metal)    S(lipo)     H(rot)  DE(clash)    DE(int)     intcor
      3.91      -7.17       1.29        0.00      60.67       3.80       0.87       2.39       ----

> <Gold.Chemscore.Fitness>
3.9056

> <Gold.Chemscore.DG>
-7.1666

> <Gold.Chemscore.ZeroCoef>
-5.4800

> <Gold.Chemscore.Hbond>
1.2896

> <Gold.Chemscore.Metal>
0.0000

> <Gold.Chemscore.Lipo>
60.6687

> <Gold.Chemscore.Internal_Hbond>
0.0000

> <Gold.Chemscore.DEClash>
0.8676

> <Gold.Chemscore.DEInternal>
2.3934

> <Gold.Chemscore.Rot>
3.7964

> <Gold.Chemscore.Internal.Correction>
   9.000000E+99

> <Gold.Chemscore.Hbonds>
donor molecule, donor type, donor heavy atom, donor atom, acceptor molecule, acceptor atom, score
      L1  H     7    30       P1  7957  0.64
      P1  H  8011  8017       L1     7  0.14

> <Gold.Chemscore.Hbond.Weighted>
-4.3072

> <Gold.Chemscore.Metal.Weighted>
-0.0000

> <Gold.Chemscore.Lipo.Weighted>
-7.0982

> <Gold.Chemscore.Internal_Hbond.Weighted>
0.0000

> <Gold.Chemscore.DEClash.Weighted>
0.8676

> <Gold.Chemscore.DEInternal.Weighted>
2.3934

> <Gold.Chemscore.Rot.Weighted>
9.7188

> <Gold.Chemscore.Internal.Correction.Weighted>
   9.000000E+99

> <Gold.Protein.RotatedTorsions>
[ 6907 6896 6895 6894 ] final  101.08 input  -60.11 | X-H torsion
[ 7974 7965 7964 7962 ] final -148.50 input  175.53 | X-H torsion
[ 8008 7997 7996 7995 ] final -139.63 input   59.86 | X-H torsion
[ 10167 10162 10161 10158 ] final  -86.84 input  -65.29 | X-H torsion
[ 10718 10713 10712 10709 ] final  152.93 input   66.30 | X-H torsion
[ 10763 10752 10751 10750 ] final  -10.78 input  -60.55 | X-H torsion
[ 11005 11000 10999 10996 ] final  -77.96 input  -57.11 | X-H torsion

> <Gold.Protein.ActiveResidues>
 VAL166  LYS551  ARG553  GLY616  TRP617  ASP618  TYR619  PRO620  LYS621  CYS622 
 ASP623  PHE694  ASN695  SER759  ASP760  ASP761  ALA762  ILE779  LEU786  VAL792 
 PHE793  MET794  SER795  GLU796  ALA797  LYS798  CYS799  TRP800  GLU811  SER814 

> <Gold.Protein.RotatedAtoms>
  152.5358  134.0180  159.7968 H   0  0  0  0  0  0  0  0  0  0  0  0  # atno 6907 bound_to 6896
  151.0371  133.5731  159.2662 H   0  0  0  0  0  0  0  0  0  0  0  0  # atno 6908 bound_to 6896
  151.2714  135.0693  159.9189 H   0  0  0  0  0  0  0  0  0  0  0  0  # atno 6909 bound_to 6896
  144.8025  140.5188  143.5697 H   0  0  0  0  0  0  0  0  0  0  0  0  # atno 7974 bound_to 7965
  155.4480  140.0536  157.3004 H   0  0  0  0  0  0  0  0  0  0  0  0  # atno 8008 bound_to 7997
  154.4789  140.2073  155.9767 H   0  0  0  0  0  0  0  0  0  0  0  0  # atno 8009 bound_to 7997
  156.1175  140.3194  155.8165 H   0  0  0  0  0  0  0  0  0  0  0  0  # atno 8010 bound_to 7997
  140.3903  143.2708  151.9273 H   0  0  0  0  0  0  0  0  0  0  0  0  # atno 10167 bound_to 10162
  157.2514  131.0779  151.1727 H   0  0  0  0  0  0  0  0  0  0  0  0  # atno 10718 bound_to 10713
  153.4742  135.7017  153.5975 H   0  0  0  0  0  0  0  0  0  0  0  0  # atno 10763 bound_to 10752
  153.4216  135.3824  155.2115 H   0  0  0  0  0  0  0  0  0  0  0  0  # atno 10764 bound_to 10752
  154.8724  135.3929  154.4184 H   0  0  0  0  0  0  0  0  0  0  0  0  # atno 10765 bound_to 10752
  141.1663  133.7043  156.7900 H   0  0  0  0  0  0  0  0  0  0  0  0  # atno 11005 bound_to 11000
  145.5518  139.1477  143.3390 LP  0  0  0  0  0  0  0  0  0  0  0  0  # atno 17320 bound_to 7965
  146.2310  140.5655  142.8975 LP  0  0  0  0  0  0  0  0  0  0  0  0  # atno 17321 bound_to 7965
  139.4789  144.5734  151.8051 LP  0  0  0  0  0  0  0  0  0  0  0  0  # atno 17342 bound_to 10162
  140.4847  144.1398  150.5939 LP  0  0  0  0  0  0  0  0  0  0  0  0  # atno 17343 bound_to 10162
  157.3274  130.6968  149.6304 LP  0  0  0  0  0  0  0  0  0  0  0  0  # atno 17370 bound_to 10713
  155.9666  130.4317  150.4933 LP  0  0  0  0  0  0  0  0  0  0  0  0  # atno 17371 bound_to 10713
  140.2332  134.8669  157.3498 LP  0  0  0  0  0  0  0  0  0  0  0  0  # atno 17394 bound_to 11000
  140.1869  134.4419  155.7738 LP  0  0  0  0  0  0  0  0  0  0  0  0  # atno 17395 bound_to 11000

$$$$
