AV-unprocessed.smi:290|AV-procd|sdf|2233|dock3
  -GOLD-   2262022 93D 1   1.00000     0.00000
 Structure written by MMmdl.
 59 62  0  0  0  0  0  0  0  0  2 V2000
  153.1497  141.7457  160.1203 C   0  0  0  0  0  0  0  0  0  0  0  0
  152.7813  142.6198  158.9103 C   0  0  2  0  0  0  0  0  0  0  0  0
  152.6548  143.9702  159.3447 O   0  0  0  0  0  0  0  0  0  0  0  0
  151.7409  144.6355  158.4923 C   0  0  0  0  0  0  0  0  0  0  0  0
  150.6622  143.5816  158.2908 C   0  0  0  0  0  0  0  0  0  0  0  0
  151.4519  142.2760  158.1780 C   0  0  2  0  0  0  0  0  0  0  0  0
  150.7184  141.2649  158.8477 O   0  0  0  0  0  0  0  0  0  0  0  0
  151.6484  141.7648  156.7220 C   0  0  0  0  0  0  0  0  0  0  0  0
  150.4621  141.2025  156.0885 N   0  0  0  0  0  0  0  0  0  0  0  0
  149.6411  141.8192  155.1693 C   0  0  0  0  0  0  0  0  0  0  0  0
  148.6372  141.1012  154.7444 N   0  0  0  0  0  0  0  0  0  0  0  0
  148.7905  139.8874  155.4022 C   0  0  0  0  0  0  0  0  0  0  0  0
  148.0680  138.6610  155.4055 C   0  0  0  0  0  0  0  0  0  0  0  0
  146.9531  138.4230  154.6810 N   0  0  0  0  0  0  0  0  0  0  0  0
  146.8117  139.2366  153.4824 C   0  0  0  0  0  0  0  0  0  0  0  0
  146.5619  138.2655  152.3347 C   0  0  0  0  0  0  0  0  0  0  0  0
  145.9637  137.0212  153.0061 C   0  0  1  0  0  0  0  0  0  0  0  0
  146.1523  135.8115  152.1475 N   0  3  1  0  0  0  0  0  0  0  0  0
  146.0808  134.5131  152.8598 C   0  0  0  0  0  0  0  0  0  0  0  0
  145.2748  135.8193  150.9453 C   0  0  0  0  0  0  0  0  0  0  0  0
  143.8505  135.3404  151.2706 C   0  0  0  0  0  0  0  0  0  0  0  0
  143.6390  134.0514  150.7333 O   0  0  0  0  0  0  0  0  0  0  0  0
  146.7097  137.0168  154.3634 C   0  0  2  0  0  0  0  0  0  0  0  0
  145.9440  136.3605  155.5311 C   0  0  0  0  0  0  0  0  0  0  0  0
  148.5292  137.6506  156.1809 N   0  0  0  0  0  0  0  0  0  0  0  0
  149.6336  137.8236  156.9129 C   0  0  0  0  0  0  0  0  0  0  0  0
  150.4080  138.9063  157.0124 N   0  0  0  0  0  0  0  0  0  0  0  0
  149.9413  139.9275  156.2377 C   0  0  0  0  0  0  0  0  0  0  0  0
  144.8991  137.1823  153.1869 H   0  0  0  0  0  0  0  0  0  0  0  0
  147.6690  136.5125  154.2375 H   0  0  0  0  0  0  0  0  0  0  0  0
  153.2624  140.7004  159.8319 H   0  0  0  0  0  0  0  0  0  0  0  0
  152.3904  141.8030  160.9009 H   0  0  0  0  0  0  0  0  0  0  0  0
  154.0940  142.0703  160.5574 H   0  0  0  0  0  0  0  0  0  0  0  0
  153.6152  142.5893  158.2125 H   0  0  0  0  0  0  0  0  0  0  0  0
  151.3577  145.5487  158.9476 H   0  0  0  0  0  0  0  0  0  0  0  0
  152.2295  144.8976  157.5533 H   0  0  0  0  0  0  0  0  0  0  0  0
  150.0310  143.5707  159.1812 H   0  0  0  0  0  0  0  0  0  0  0  0
  150.0097  143.7847  157.4436 H   0  0  0  0  0  0  0  0  0  0  0  0
  150.5395  141.5570  159.7286 H   0  0  0  0  0  0  0  0  0  0  0  0
  152.0158  142.5760  156.0915 H   0  0  0  0  0  0  0  0  0  0  0  0
  152.4239  140.9974  156.7019 H   0  0  0  0  0  0  0  0  0  0  0  0
  149.8082  142.8276  154.8191 H   0  0  0  0  0  0  0  0  0  0  0  0
  145.9474  139.8871  153.6198 H   0  0  0  0  0  0  0  0  0  0  0  0
  147.6735  139.8763  153.2852 H   0  0  0  0  0  0  0  0  0  0  0  0
  145.9204  138.7027  151.5696 H   0  0  0  0  0  0  0  0  0  0  0  0
  147.5152  138.0150  151.8661 H   0  0  0  0  0  0  0  0  0  0  0  0
  145.1225  134.3978  153.3676 H   0  0  0  0  0  0  0  0  0  0  0  0
  146.8860  134.4166  153.5873 H   0  0  0  0  0  0  0  0  0  0  0  0
  146.1908  133.6770  152.1701 H   0  0  0  0  0  0  0  0  0  0  0  0
  145.2468  136.8257  150.5248 H   0  0  0  0  0  0  0  0  0  0  0  0
  145.6752  135.1872  150.1529 H   0  0  0  0  0  0  0  0  0  0  0  0
  143.6609  135.3240  152.3435 H   0  0  0  0  0  0  0  0  0  0  0  0
  143.1194  136.0188  150.8302 H   0  0  0  0  0  0  0  0  0  0  0  0
  142.7934  134.0329  150.3103 H   0  0  0  0  0  0  0  0  0  0  0  0
  145.7495  135.3025  155.3754 H   0  0  0  0  0  0  0  0  0  0  0  0
  144.9831  136.8497  155.6935 H   0  0  0  0  0  0  0  0  0  0  0  0
  146.5100  136.4387  156.4597 H   0  0  0  0  0  0  0  0  0  0  0  0
  149.9402  136.9734  157.5046 H   0  0  0  0  0  0  0  0  0  0  0  0
  147.0974  135.8815  151.7969 H   0  0  0  0  0  0  0  0  0  0  0  0
  1  2  1  0  0  0  0
  1 31  1  0  0  0  0
  1 32  1  0  0  0  0
  1 33  1  0  0  0  0
  2  6  1  0  0  0  0
  2  3  1  0  0  0  0
  2 34  1  0  0  0  0
  3  4  1  0  0  0  0
  4  5  1  0  0  0  0
  4 35  1  0  0  0  0
  4 36  1  0  0  0  0
  5  6  1  0  0  0  0
  5 37  1  0  0  0  0
  5 38  1  0  0  0  0
  6  7  1  0  0  0  0
  6  8  1  0  0  0  0
  7 39  1  0  0  0  0
  8  9  1  0  0  0  0
  8 40  1  0  0  0  0
  8 41  1  0  0  0  0
  9 28  1  0  0  0  0
  9 10  1  0  0  0  0
 10 11  2  0  0  0  0
 10 42  1  0  0  0  0
 11 12  1  0  0  0  0
 12 28  2  0  0  0  0
 12 13  1  0  0  0  0
 13 14  1  0  0  0  0
 13 25  2  0  0  0  0
 14 23  1  0  0  0  0
 14 15  1  0  0  0  0
 15 16  1  0  0  0  0
 15 43  1  0  0  0  0
 15 44  1  0  0  0  0
 16 17  1  0  0  0  0
 16 45  1  0  0  0  0
 16 46  1  0  0  0  0
 17 29  1  0  0  0  0
 17 18  1  0  0  0  0
 17 23  1  0  0  0  0
 18 19  1  0  0  0  0
 18 20  1  0  0  0  0
 18 59  1  0  0  0  0
 19 47  1  0  0  0  0
 19 48  1  0  0  0  0
 19 49  1  0  0  0  0
 20 21  1  0  0  0  0
 20 50  1  0  0  0  0
 20 51  1  0  0  0  0
 21 22  1  0  0  0  0
 21 52  1  0  0  0  0
 21 53  1  0  0  0  0
 22 54  1  0  0  0  0
 23 30  1  0  0  0  0
 23 24  1  0  0  0  0
 24 55  1  0  0  0  0
 24 56  1  0  0  0  0
 24 57  1  0  0  0  0
 25 26  1  0  0  0  0
 26 27  2  0  0  0  0
 26 58  1  0  0  0  0
 27 28  1  0  0  0  0
M  CHG  1  18   1
M  END
> <s_m_source_file>
AV-unprocessed.smi

> <i_m_source_file_index>
290

> <i_lp_mmshare_version>
43012

> <i_f3d_flags>
0

> <s_epik_input>
W0NIMl0xW0NIMl1PW0NAQEhdKFtDSDNdKVtDQEBdMShbT0hdKVtDSDJdbihbY0hdbjIpYyhjMjMpbltjSF1uYzNONFtDSDJdW0NIMl1bQ0BIXShbQ0BIXTRbQ0gzXSlOKFtDSDNdKVtDSDJdW0NIMl1bT0hd

> <s_epik_cmdline>
J2VwaWtfcHl0aG9uJywgJy1waCcsICc3LjAnLCAnLXRuJywgJzgnLCAnLW1hJywgJzIwMCcsICctbWV0YWxfYmluZGluZycsICctaW1hZScsICc8aW5maWxlLm1hZT4nLCAnLW9tYWUnLCAnPG91dGZpbGUubWFlPic=

> <r_lp_tautomer_probability>
1

> <r_epik_Ionization_Penalty>
0.0036983

> <r_epik_Ionization_Penalty_Charging>
0.0032725

> <r_epik_Ionization_Penalty_Neutral>
0.000425798

> <r_epik_State_Penalty>
-0

> <r_epik_Charging_Adjusted_Penalty>
0.0032725

> <i_epik_Tot_Q>
1

> <i_epik_Tot_abs_Q>
1

> <r_epik_Metal_State_Penalty>
-0

> <b_epik_Metal_Only>
0

> <s_lp_Force_Field>
OPLS_2005

> <r_lp_Energy>
66.0364

> <b_lp_Chiralities_Consistent>
1

> <s_lp_Variant>
AV-unprocessed.smi:290-19

> <Gold.Version>
5.8.1

> <Gold.Id.Protein>
6NUR|6NUR_protein|mol2

> <Gold.PLP.Fitness>
46.5399

> <Gold.PLP.PLP>
-37.8957

> <Gold.PLP.part.hbond>
-2.0992

> <Gold.PLP.part.metal>
0.0000

> <Gold.PLP.part.buried>
-3.8613

> <Gold.PLP.part.nonpolar>
-32.5419

> <Gold.PLP.part.repulsive>
0.2932

> <Gold.PLP.ligand.clash>
0.0000

> <Gold.PLP.ligand.torsion>
1.7920

> <Gold.PLP.Chemscore.Hbond>
3.0000

> <Gold.PLP.Chemscore.CHOScore>
0.9757

> <Gold.PLP.Chemscore.Metal>
0.0000

> <Gold.Chemscore.Hbonds>
donor molecule, donor type, donor heavy atom, donor atom, acceptor molecule, acceptor atom, score
      L1  H    18    59       P1  7948  2.00
      L1  H    22    54       P1 10186  1.00
      L1  C    10    42       P1  8028  0.95

> <Gold.PLP.Chemscore.Internal.Correction>
0.3009

> <Gold.Rescore>
     Score         DG    S(hbond)    S(metal)    S(lipo)     H(rot)  DE(clash)    DE(int)     intcor
      8.58     -14.16       1.92        0.00      99.56       3.67       1.26       4.31       ----

> <Gold.Chemscore.Fitness>
8.5844

> <Gold.Chemscore.DG>
-14.1567

> <Gold.Chemscore.ZeroCoef>
-5.4800

> <Gold.Chemscore.Hbond>
1.9200

> <Gold.Chemscore.Metal>
0.0000

> <Gold.Chemscore.Lipo>
99.5585

> <Gold.Chemscore.Internal_Hbond>
0.0000

> <Gold.Chemscore.DEClash>
1.2623

> <Gold.Chemscore.DEInternal>
4.3100

> <Gold.Chemscore.Rot>
3.6658

> <Gold.Chemscore.Internal.Correction>
   9.000000E+99

> <Gold.Chemscore.Hbonds>
donor molecule, donor type, donor heavy atom, donor atom, acceptor molecule, acceptor atom, score
      L1  H    18    59       P1  7948  0.99
      L1  H    22    54       P1 10186  0.94

> <Gold.Chemscore.Hbond.Weighted>
-6.4128

> <Gold.Chemscore.Metal.Weighted>
-0.0000

> <Gold.Chemscore.Lipo.Weighted>
-11.6483

> <Gold.Chemscore.Internal_Hbond.Weighted>
0.0000

> <Gold.Chemscore.DEClash.Weighted>
1.2623

> <Gold.Chemscore.DEInternal.Weighted>
4.3100

> <Gold.Chemscore.Rot.Weighted>
9.3844

> <Gold.Chemscore.Internal.Correction.Weighted>
   9.000000E+99

> <Gold.Protein.RotatedTorsions>
[ 6907 6896 6895 6894 ] final   60.47 input  -60.11 | X-H torsion
[ 7974 7965 7964 7962 ] final  -78.04 input  175.53 | X-H torsion
[ 8008 7997 7996 7995 ] final -161.12 input   59.86 | X-H torsion
[ 10167 10162 10161 10158 ] final  -97.47 input  -65.29 | X-H torsion
[ 10718 10713 10712 10709 ] final -107.58 input   66.30 | X-H torsion
[ 10763 10752 10751 10750 ] final  -37.78 input  -60.55 | X-H torsion
[ 11005 11000 10999 10996 ] final -125.82 input  -57.11 | X-H torsion

> <Gold.Protein.ActiveResidues>
 VAL166  LYS551  ARG553  GLY616  TRP617  ASP618  TYR619  PRO620  LYS621  CYS622 
 ASP623  PHE694  ASN695  SER759  ASP760  ASP761  ALA762  ILE779  LEU786  VAL792 
 PHE793  MET794  SER795  GLU796  ALA797  LYS798  CYS799  TRP800  GLU811  SER814 

> <Gold.Protein.RotatedAtoms>
  152.4005  134.6293  160.0071 H   0  0  0  0  0  0  0  0  0  0  0  0  # atno 6907 bound_to 6896
  151.6500  133.3316  159.3158 H   0  0  0  0  0  0  0  0  0  0  0  0  # atno 6908 bound_to 6896
  150.7906  134.6970  159.6573 H   0  0  0  0  0  0  0  0  0  0  0  0  # atno 6909 bound_to 6896
  145.5917  140.9428  143.1289 H   0  0  0  0  0  0  0  0  0  0  0  0  # atno 7974 bound_to 7965
  155.7876  140.0874  157.2026 H   0  0  0  0  0  0  0  0  0  0  0  0  # atno 8008 bound_to 7997
  154.3987  140.1496  156.3183 H   0  0  0  0  0  0  0  0  0  0  0  0  # atno 8009 bound_to 7997
  155.8591  140.3431  155.5747 H   0  0  0  0  0  0  0  0  0  0  0  0  # atno 8010 bound_to 7997
  140.2831  143.3269  152.0422 H   0  0  0  0  0  0  0  0  0  0  0  0  # atno 10167 bound_to 10162
  156.0444  130.5670  150.7842 H   0  0  0  0  0  0  0  0  0  0  0  0  # atno 10718 bound_to 10713
  153.9019  135.6801  153.4755 H   0  0  0  0  0  0  0  0  0  0  0  0  # atno 10763 bound_to 10752
  153.1125  135.4777  154.9056 H   0  0  0  0  0  0  0  0  0  0  0  0  # atno 10764 bound_to 10752
  154.7571  135.3200  154.8404 H   0  0  0  0  0  0  0  0  0  0  0  0  # atno 10765 bound_to 10752
  140.9731  134.0777  157.3847 H   0  0  0  0  0  0  0  0  0  0  0  0  # atno 11005 bound_to 11000
  144.7348  139.7617  143.7333 LP  0  0  0  0  0  0  0  0  0  0  0  0  # atno 17320 bound_to 7965
  146.1642  139.4767  142.9969 LP  0  0  0  0  0  0  0  0  0  0  0  0  # atno 17321 bound_to 7965
  139.4957  144.6578  151.6533 LP  0  0  0  0  0  0  0  0  0  0  0  0  # atno 17342 bound_to 10162
  140.5795  143.9970  150.6260 LP  0  0  0  0  0  0  0  0  0  0  0  0  # atno 17343 bound_to 10162
  157.5301  131.0936  150.9966 LP  0  0  0  0  0  0  0  0  0  0  0  0  # atno 17370 bound_to 10713
  157.0275  130.5698  149.5339 LP  0  0  0  0  0  0  0  0  0  0  0  0  # atno 17371 bound_to 10713
  139.8920  135.0122  156.6822 LP  0  0  0  0  0  0  0  0  0  0  0  0  # atno 17394 bound_to 11000
  140.7299  133.9068  155.8204 LP  0  0  0  0  0  0  0  0  0  0  0  0  # atno 17395 bound_to 11000

$$$$
