AV-unprocessed.smi:1958|AV-procd|sdf|7909|dock5
  -GOLD-   2272010 73D 1   1.00000     0.00000
 Structure written by MMmdl.
 48 49  0  0  0  0  0  0  0  0  2 V2000
  152.0539  144.3610  158.5472 C   0  0  0  0  0  0  0  0  0  0  0  0
  151.0430  143.6646  157.8401 O   0  0  0  0  0  0  0  0  0  0  0  0
  151.3409  142.2880  157.6819 C   0  0  0  0  0  0  0  0  0  0  0  0
  150.3152  141.6689  156.7213 C   0  0  0  0  0  0  0  0  0  0  0  0
  150.6801  140.2972  156.3541 N   0  0  0  0  0  0  0  0  0  0  0  0
  151.1733  139.5452  157.4069 N   0  0  0  0  0  0  0  0  0  0  0  0
  151.5254  138.3146  157.2183 C   0  0  0  0  0  0  0  0  0  0  0  0
  152.0534  137.4725  158.3273 C   0  0  0  0  0  0  0  0  0  0  0  0
  151.9977  136.2423  158.2929 O   0  0  0  0  0  0  0  0  0  0  0  0
  152.5809  138.1526  159.3622 N   0  0  0  0  0  0  0  0  0  0  0  0
  153.1425  137.5647  160.5757 C   0  0  0  0  0  0  0  0  0  0  0  0
  154.3566  138.3635  161.1189 C   0  0  1  0  0  0  0  0  0  0  0  0
  154.1522  139.8822  160.8916 C   0  0  0  0  0  0  0  0  0  0  0  0
  154.6157  138.0117  162.5550 N   0  3  0  0  0  0  0  0  0  0  0  0
  154.6670  136.5420  162.7900 C   0  0  0  0  0  0  0  0  0  0  0  0
  154.8515  136.2240  164.2826 C   0  0  0  0  0  0  0  0  0  0  0  0
  156.0429  136.8361  164.7516 O   0  0  0  0  0  0  0  0  0  0  0  0
  155.9773  138.2493  164.6386 C   0  0  0  0  0  0  0  0  0  0  0  0
  155.8168  138.6512  163.1620 C   0  0  0  0  0  0  0  0  0  0  0  0
  151.4143  137.7015  155.9057 C   0  0  0  0  0  0  0  0  0  0  0  0
  150.9419  138.4514  154.8857 C   0  0  0  0  0  0  0  0  0  0  0  0
  150.5406  139.8470  155.0708 C   0  0  0  0  0  0  0  0  0  0  0  0
  150.1184  140.5532  154.1558 O   0  0  0  0  0  0  0  0  0  0  0  0
  151.7754  145.4102  158.6448 H   0  0  0  0  0  0  0  0  0  0  0  0
  153.0075  144.3131  158.0201 H   0  0  0  0  0  0  0  0  0  0  0  0
  152.1868  143.9529  159.5498 H   0  0  0  0  0  0  0  0  0  0  0  0
  152.3516  142.1680  157.2888 H   0  0  0  0  0  0  0  0  0  0  0  0
  151.3005  141.7850  158.6494 H   0  0  0  0  0  0  0  0  0  0  0  0
  149.3299  141.6766  157.1911 H   0  0  0  0  0  0  0  0  0  0  0  0
  150.2147  142.2898  155.8294 H   0  0  0  0  0  0  0  0  0  0  0  0
  152.5854  139.1610  159.3020 H   0  0  0  0  0  0  0  0  0  0  0  0
  152.3865  137.4665  161.3564 H   0  0  0  0  0  0  0  0  0  0  0  0
  153.4253  136.5499  160.3031 H   0  0  0  0  0  0  0  0  0  0  0  0
  155.2402  138.0779  160.5457 H   0  0  0  0  0  0  0  0  0  0  0  0
  153.9435  140.1136  159.8477 H   0  0  0  0  0  0  0  0  0  0  0  0
  155.0436  140.4584  161.1390 H   0  0  0  0  0  0  0  0  0  0  0  0
  153.3199  140.2652  161.4830 H   0  0  0  0  0  0  0  0  0  0  0  0
  153.7560  136.0529  162.4519 H   0  0  0  0  0  0  0  0  0  0  0  0
  155.4892  136.1101  162.2173 H   0  0  0  0  0  0  0  0  0  0  0  0
  153.9938  136.5647  164.8651 H   0  0  0  0  0  0  0  0  0  0  0  0
  154.9281  135.1467  164.4302 H   0  0  0  0  0  0  0  0  0  0  0  0
  155.1530  138.6370  165.2394 H   0  0  0  0  0  0  0  0  0  0  0  0
  156.8937  138.6777  165.0451 H   0  0  0  0  0  0  0  0  0  0  0  0
  156.7071  138.3692  162.5976 H   0  0  0  0  0  0  0  0  0  0  0  0
  155.7382  139.7372  163.1312 H   0  0  0  0  0  0  0  0  0  0  0  0
  151.7039  136.6740  155.7399 H   0  0  0  0  0  0  0  0  0  0  0  0
  150.8562  138.0096  153.9037 H   0  0  0  0  0  0  0  0  0  0  0  0
  153.8259  138.3639  163.0772 H   0  0  0  0  0  0  0  0  0  0  0  0
  1  2  1  0  0  0  0
  1 24  1  0  0  0  0
  1 25  1  0  0  0  0
  1 26  1  0  0  0  0
  2  3  1  0  0  0  0
  3  4  1  0  0  0  0
  3 27  1  0  0  0  0
  3 28  1  0  0  0  0
  4  5  1  0  0  0  0
  4 29  1  0  0  0  0
  4 30  1  0  0  0  0
  5 22  1  0  0  0  0
  5  6  1  0  0  0  0
  6  7  2  0  0  0  0
  7  8  1  0  0  0  0
  7 20  1  0  0  0  0
  8  9  2  0  0  0  0
  8 10  1  0  0  0  0
 10 11  1  0  0  0  0
 10 31  1  0  0  0  0
 11 12  1  0  0  0  0
 11 32  1  0  0  0  0
 11 33  1  0  0  0  0
 12 13  1  0  0  0  0
 12 14  1  0  0  0  0
 12 34  1  0  0  0  0
 13 35  1  0  0  0  0
 13 36  1  0  0  0  0
 13 37  1  0  0  0  0
 14 19  1  0  0  0  0
 14 15  1  0  0  0  0
 14 48  1  0  0  0  0
 15 16  1  0  0  0  0
 15 38  1  0  0  0  0
 15 39  1  0  0  0  0
 16 17  1  0  0  0  0
 16 40  1  0  0  0  0
 16 41  1  0  0  0  0
 17 18  1  0  0  0  0
 18 19  1  0  0  0  0
 18 42  1  0  0  0  0
 18 43  1  0  0  0  0
 19 44  1  0  0  0  0
 19 45  1  0  0  0  0
 20 21  2  0  0  0  0
 20 46  1  0  0  0  0
 21 22  1  0  0  0  0
 21 47  1  0  0  0  0
 22 23  2  0  0  0  0
M  CHG  1  14   1
M  END
> <s_m_source_file>
AV-unprocessed.smi

> <i_m_source_file_index>
1958

> <i_lp_mmshare_version>
43012

> <i_f3d_flags>
0

> <s_epik_input>
W0NIM11PW0NIMl1bQ0gyXW4xbmMoW2NIXVtjSF1jMT1PKUMoPU8pW05IXVtDSDJdW0NASF0oW0NIM10pTjJbQ0gyXVtDSDJdT1tDSDJdW0NIMl0y

> <s_epik_cmdline>
J2VwaWtfcHl0aG9uJywgJy1waCcsICc3LjAnLCAnLXRuJywgJzgnLCAnLW1hJywgJzIwMCcsICctbWV0YWxfYmluZGluZycsICctaW1hZScsICc8aW5maWxlLm1hZT4nLCAnLW9tYWUnLCAnPG91dGZpbGUubWFlPic=

> <r_lp_tautomer_probability>
1

> <r_epik_Ionization_Penalty>
0.724355

> <r_epik_Ionization_Penalty_Charging>
0.724348

> <r_epik_Ionization_Penalty_Neutral>
6.31911e-06

> <r_epik_State_Penalty>
0.749058

> <r_epik_Charging_Adjusted_Penalty>
1.47341

> <i_epik_Tot_Q>
1

> <i_epik_Tot_abs_Q>
1

> <r_epik_Metal_State_Penalty>
0.750821

> <b_epik_Metal_Only>
0

> <s_lp_Force_Field>
OPLS_2005

> <r_lp_Energy>
42.169

> <b_lp_Chiralities_Consistent>
1

> <s_lp_Variant>
AV-unprocessed.smi:1958-4

> <Gold.Version>
5.8.1

> <Gold.Id.Protein>
6NUR|6NUR_protein|mol2

> <Gold.PLP.Fitness>
38.2810

> <Gold.PLP.PLP>
-36.0530

> <Gold.PLP.part.hbond>
-1.6922

> <Gold.PLP.part.metal>
0.0000

> <Gold.PLP.part.buried>
-5.3384

> <Gold.PLP.part.nonpolar>
-29.9502

> <Gold.PLP.part.repulsive>
1.0889

> <Gold.PLP.ligand.clash>
0.0000

> <Gold.PLP.ligand.torsion>
0.9546

> <Gold.PLP.Chemscore.Hbond>
1.3280

> <Gold.PLP.Chemscore.CHOScore>
0.0000

> <Gold.PLP.Chemscore.Metal>
0.0000

> <Gold.Chemscore.Hbonds>
donor molecule, donor type, donor heavy atom, donor atom, acceptor molecule, acceptor atom, score
      P1  H  6896  6907       L1     9  0.39
      P1  H  7989  7998       L1    23  0.67

> <Gold.PLP.Chemscore.Internal.Correction>
0.1532

> <Gold.Rescore>
     Score         DG    S(hbond)    S(metal)    S(lipo)     H(rot)  DE(clash)    DE(int)     intcor
     14.42     -15.68       1.49        0.00      91.20       2.12       0.24       1.02       ----

> <Gold.Chemscore.Fitness>
14.4183

> <Gold.Chemscore.DG>
-15.6791

> <Gold.Chemscore.ZeroCoef>
-5.4800

> <Gold.Chemscore.Hbond>
1.4853

> <Gold.Chemscore.Metal>
0.0000

> <Gold.Chemscore.Lipo>
91.2015

> <Gold.Chemscore.Internal_Hbond>
0.0000

> <Gold.Chemscore.DEClash>
0.2408

> <Gold.Chemscore.DEInternal>
1.0199

> <Gold.Chemscore.Rot>
2.1221

> <Gold.Chemscore.Internal.Correction>
   9.000000E+99

> <Gold.Chemscore.Hbonds>
donor molecule, donor type, donor heavy atom, donor atom, acceptor molecule, acceptor atom, score
      P1  H  6896  6907       L1     9  0.36
      P1  H  7989  7998       L1    23  0.11

> <Gold.Chemscore.Hbond.Weighted>
-4.9610

> <Gold.Chemscore.Metal.Weighted>
-0.0000

> <Gold.Chemscore.Lipo.Weighted>
-10.6706

> <Gold.Chemscore.Internal_Hbond.Weighted>
0.0000

> <Gold.Chemscore.DEClash.Weighted>
0.2408

> <Gold.Chemscore.DEInternal.Weighted>
1.0199

> <Gold.Chemscore.Rot.Weighted>
5.4325

> <Gold.Chemscore.Internal.Correction.Weighted>
   9.000000E+99

> <Gold.Protein.RotatedTorsions>
[ 6907 6896 6895 6894 ] final  -12.35 input  -60.11 | X-H torsion
[ 7974 7965 7964 7962 ] final -152.36 input  175.53 | X-H torsion
[ 8008 7997 7996 7995 ] final  -84.68 input   59.86 | X-H torsion
[ 10167 10162 10161 10158 ] final  177.40 input  -65.29 | X-H torsion
[ 10718 10713 10712 10709 ] final  155.86 input   66.30 | X-H torsion
[ 10763 10752 10751 10750 ] final  -35.93 input  -60.55 | X-H torsion
[ 11005 11000 10999 10996 ] final    3.24 input  -57.11 | X-H torsion

> <Gold.Protein.ActiveResidues>
 VAL166  LYS551  ARG553  GLY616  TRP617  ASP618  TYR619  PRO620  LYS621  CYS622 
 ASP623  PHE694  ASN695  SER759  ASP760  ASP761  ALA762  ILE779  LEU786  VAL792 
 PHE793  MET794  SER795  GLU796  ALA797  LYS798  CYS799  TRP800  GLU811  SER814 

> <Gold.Protein.RotatedAtoms>
  151.3719  135.0924  159.9467 H   0  0  0  0  0  0  0  0  0  0  0  0  # atno 6907 bound_to 6896
  152.5133  133.9156  159.7520 H   0  0  0  0  0  0  0  0  0  0  0  0  # atno 6908 bound_to 6896
  150.9572  133.6430  159.2790 H   0  0  0  0  0  0  0  0  0  0  0  0  # atno 6909 bound_to 6896
  144.7798  140.4672  143.5847 H   0  0  0  0  0  0  0  0  0  0  0  0  # atno 7974 bound_to 7965
  154.6325  140.0601  156.9749 H   0  0  0  0  0  0  0  0  0  0  0  0  # atno 8008 bound_to 7997
  155.1643  140.3285  155.4386 H   0  0  0  0  0  0  0  0  0  0  0  0  # atno 8009 bound_to 7997
  156.2490  140.1925  156.6749 H   0  0  0  0  0  0  0  0  0  0  0  0  # atno 8010 bound_to 7997
  139.5252  144.2802  152.0553 H   0  0  0  0  0  0  0  0  0  0  0  0  # atno 10167 bound_to 10162
  157.2127  131.0701  151.1960 H   0  0  0  0  0  0  0  0  0  0  0  0  # atno 10718 bound_to 10713
  153.8714  135.6830  153.4774 H   0  0  0  0  0  0  0  0  0  0  0  0  # atno 10763 bound_to 10752
  153.1285  135.4708  154.9309 H   0  0  0  0  0  0  0  0  0  0  0  0  # atno 10764 bound_to 10752
  154.7712  135.3239  154.8135 H   0  0  0  0  0  0  0  0  0  0  0  0  # atno 10765 bound_to 10752
  140.5953  133.9886  155.8107 H   0  0  0  0  0  0  0  0  0  0  0  0  # atno 11005 bound_to 11000
  145.6082  139.1510  143.3091 LP  0  0  0  0  0  0  0  0  0  0  0  0  # atno 17320 bound_to 7965
  146.2000  140.6199  142.9107 LP  0  0  0  0  0  0  0  0  0  0  0  0  # atno 17321 bound_to 7965
  140.2258  144.4420  150.6322 LP  0  0  0  0  0  0  0  0  0  0  0  0  # atno 17342 bound_to 10162
  140.6388  143.2200  151.6335 LP  0  0  0  0  0  0  0  0  0  0  0  0  # atno 17343 bound_to 10162
  157.3656  130.7154  149.6530 LP  0  0  0  0  0  0  0  0  0  0  0  0  # atno 17370 bound_to 10713
  155.9689  130.4213  150.4464 LP  0  0  0  0  0  0  0  0  0  0  0  0  # atno 17371 bound_to 10713
  141.0908  133.9920  157.3240 LP  0  0  0  0  0  0  0  0  0  0  0  0  # atno 17394 bound_to 11000
  139.9256  135.0201  156.8221 LP  0  0  0  0  0  0  0  0  0  0  0  0  # atno 17395 bound_to 11000

$$$$
