AV-unprocessed.smi:2673|AV-procd|sdf|10356|dock5
  -GOLD-   2272014383D 1   1.00000     0.00000
 Structure written by MMmdl.
 32 33  0  0  0  0  0  0  0  0  1 V2000
  147.2670  140.9780  158.4371 O   0  0  0  0  0  0  0  0  0  0  0  0
  147.5366  142.0804  157.9626 C   0  0  0  0  0  0  0  0  0  0  0  0
  147.1295  143.2576  158.4691 N   0  0  0  0  0  0  0  0  0  0  0  0
  146.3488  143.4949  159.6315 C   0  0  0  0  0  0  0  0  0  0  0  0
  146.5245  142.8455  160.7931 N   0  0  0  0  0  0  0  0  0  0  0  0
  145.6311  143.2721  161.7671 N   0  0  0  0  0  0  0  0  0  0  0  0
  144.8177  144.2248  161.3026 C   0  0  0  0  0  0  0  0  0  0  0  0
  145.0629  144.6933  159.6290 S   0  0  0  0  0  0  0  0  0  0  0  0
  148.2795  142.2692  156.8591 N   0  0  0  0  0  0  0  0  0  0  0  0
  148.9457  141.2779  155.9962 C   0  0  0  0  0  0  0  0  0  0  0  0
  150.4063  141.0483  156.4818 C   0  0  0  0  0  0  0  0  0  0  0  0
  151.0461  140.2151  155.6599 F   0  0  0  0  0  0  0  0  0  0  0  0
  151.0736  142.2036  156.5035 F   0  0  0  0  0  0  0  0  0  0  0  0
  150.4480  140.5188  157.7040 F   0  0  0  0  0  0  0  0  0  0  0  0
  148.1642  139.9334  155.9337 C   0  0  0  0  0  0  0  0  0  0  0  0
  146.7521  140.0826  155.3384 C   0  0  0  0  0  0  0  0  0  0  0  0
  146.8075  140.7039  153.9355 C   0  0  0  0  0  0  0  0  0  0  0  0
  147.5634  142.0400  153.9508 C   0  0  0  0  0  0  0  0  0  0  0  0
  148.9681  141.8820  154.5656 C   0  0  0  0  0  0  0  0  0  0  0  0
  147.4219  144.0846  157.9698 H   0  0  0  0  0  0  0  0  0  0  0  0
  144.0683  144.6548  161.9502 H   0  0  0  0  0  0  0  0  0  0  0  0
  148.4204  143.2289  156.5804 H   0  0  0  0  0  0  0  0  0  0  0  0
  148.7212  139.2257  155.3187 H   0  0  0  0  0  0  0  0  0  0  0  0
  148.1000  139.4651  156.9151 H   0  0  0  0  0  0  0  0  0  0  0  0
  146.2680  139.1069  155.2895 H   0  0  0  0  0  0  0  0  0  0  0  0
  146.1328  140.6979  155.9918 H   0  0  0  0  0  0  0  0  0  0  0  0
  147.3023  140.0137  153.2511 H   0  0  0  0  0  0  0  0  0  0  0  0
  145.7976  140.8498  153.5512 H   0  0  0  0  0  0  0  0  0  0  0  0
  147.6482  142.4252  152.9344 H   0  0  0  0  0  0  0  0  0  0  0  0
  146.9894  142.7803  154.5092 H   0  0  0  0  0  0  0  0  0  0  0  0
  149.4701  142.8503  154.5722 H   0  0  0  0  0  0  0  0  0  0  0  0
  149.5591  141.2458  153.9060 H   0  0  0  0  0  0  0  0  0  0  0  0
  1  2  2  0  0  0  0
  2  3  1  0  0  0  0
  2  9  1  0  0  0  0
  3  4  1  0  0  0  0
  3 20  1  0  0  0  0
  4  8  1  0  0  0  0
  4  5  2  0  0  0  0
  5  6  1  0  0  0  0
  6  7  2  0  0  0  0
  7  8  1  0  0  0  0
  7 21  1  0  0  0  0
  9 10  1  0  0  0  0
  9 22  1  0  0  0  0
 10 19  1  0  0  0  0
 10 11  1  0  0  0  0
 10 15  1  0  0  0  0
 11 12  1  0  0  0  0
 11 13  1  0  0  0  0
 11 14  1  0  0  0  0
 15 16  1  0  0  0  0
 15 23  1  0  0  0  0
 15 24  1  0  0  0  0
 16 17  1  0  0  0  0
 16 25  1  0  0  0  0
 16 26  1  0  0  0  0
 17 18  1  0  0  0  0
 17 27  1  0  0  0  0
 17 28  1  0  0  0  0
 18 19  1  0  0  0  0
 18 29  1  0  0  0  0
 18 30  1  0  0  0  0
 19 31  1  0  0  0  0
 19 32  1  0  0  0  0
M  END
> <s_m_source_file>
AV-unprocessed.smi

> <i_m_source_file_index>
2673

> <i_lp_mmshare_version>
43012

> <i_f3d_flags>
0

> <s_epik_input>
czFbY0hdbm5jMVtOSF1DKD1PKVtOSF1DMihDKEYpKEYpRilbQ0gyXVtDSDJdW0NIMl1bQ0gyXVtDSDJdMg==

> <s_epik_cmdline>
J2VwaWtfcHl0aG9uJywgJy1waCcsICc3LjAnLCAnLXRuJywgJzgnLCAnLW1hJywgJzIwMCcsICctbWV0YWxfYmluZGluZycsICctaW1hZScsICc8aW5maWxlLm1hZT4nLCAnLW9tYWUnLCAnPG91dGZpbGUubWFlPic=

> <r_lp_tautomer_probability>
1

> <r_epik_Ionization_Penalty>
1.40881

> <r_epik_Ionization_Penalty_Charging>
0

> <r_epik_Ionization_Penalty_Neutral>
1.40881

> <r_epik_State_Penalty>
1.51827

> <r_epik_Charging_Adjusted_Penalty>
1.51827

> <i_epik_Tot_Q>
0

> <i_epik_Tot_abs_Q>
0

> <r_epik_Metal_State_Penalty>
1.5692

> <b_epik_Metal_Only>
0

> <s_lp_Force_Field>
OPLS_2005

> <r_lp_Energy>
12.8136

> <b_lp_Chiralities_Consistent>
1

> <s_lp_Variant>
AV-unprocessed.smi:2673-2

> <Gold.Version>
5.8.1

> <Gold.Id.Protein>
6NUR|6NUR_protein|mol2

> <Gold.PLP.Fitness>
36.4294

> <Gold.PLP.PLP>
-27.1125

> <Gold.PLP.part.hbond>
-5.0000

> <Gold.PLP.part.metal>
0.0000

> <Gold.PLP.part.buried>
-2.2808

> <Gold.PLP.part.nonpolar>
-20.1958

> <Gold.PLP.part.repulsive>
0.1479

> <Gold.PLP.ligand.clash>
0.0000

> <Gold.PLP.ligand.torsion>
0.9071

> <Gold.PLP.Chemscore.Hbond>
3.7002

> <Gold.PLP.Chemscore.CHOScore>
0.0000

> <Gold.PLP.Chemscore.Metal>
0.0000

> <Gold.Chemscore.Hbonds>
donor molecule, donor type, donor heavy atom, donor atom, acceptor molecule, acceptor atom, score
      L1  H     3    20       P1  8029  0.90
      L1  H     9    22       P1  8028  1.00
      P1  H  6933  6944       L1     5  0.66
      P1  H  6934  6946       L1     5  0.96

> <Gold.PLP.Chemscore.Internal.Correction>
0.0306

> <Gold.Rescore>
     Score         DG    S(hbond)    S(metal)    S(lipo)     H(rot)  DE(clash)    DE(int)     intcor
     14.43     -16.76       2.54        0.00      45.65       1.00       0.05       2.28       ----

> <Gold.Chemscore.Fitness>
14.4251

> <Gold.Chemscore.DG>
-16.7564

> <Gold.Chemscore.ZeroCoef>
-5.4800

> <Gold.Chemscore.Hbond>
2.5434

> <Gold.Chemscore.Metal>
0.0000

> <Gold.Chemscore.Lipo>
45.6541

> <Gold.Chemscore.Internal_Hbond>
0.0000

> <Gold.Chemscore.DEClash>
0.0472

> <Gold.Chemscore.DEInternal>
2.2841

> <Gold.Chemscore.Rot>
1.0000

> <Gold.Chemscore.Internal.Correction>
   9.000000E+99

> <Gold.Chemscore.Hbonds>
donor molecule, donor type, donor heavy atom, donor atom, acceptor molecule, acceptor atom, score
      L1  H     3    20       P1  8029  0.17
      L1  H     9    22       P1  8028  0.55
      P1  H  6933  6944       L1     5  0.60
      P1  H  6934  6946       L1     5  0.79

> <Gold.Chemscore.Hbond.Weighted>
-8.4949

> <Gold.Chemscore.Metal.Weighted>
-0.0000

> <Gold.Chemscore.Lipo.Weighted>
-5.3415

> <Gold.Chemscore.Internal_Hbond.Weighted>
0.0000

> <Gold.Chemscore.DEClash.Weighted>
0.0472

> <Gold.Chemscore.DEInternal.Weighted>
2.2841

> <Gold.Chemscore.Rot.Weighted>
2.5600

> <Gold.Chemscore.Internal.Correction.Weighted>
   9.000000E+99

> <Gold.Protein.RotatedTorsions>
[ 6907 6896 6895 6894 ] final  -32.51 input  -60.11 | X-H torsion
[ 7974 7965 7964 7962 ] final   32.00 input  175.53 | X-H torsion
[ 8008 7997 7996 7995 ] final   77.99 input   59.86 | X-H torsion
[ 10167 10162 10161 10158 ] final  -30.57 input  -65.29 | X-H torsion
[ 10718 10713 10712 10709 ] final    2.01 input   66.30 | X-H torsion
[ 10763 10752 10751 10750 ] final  172.55 input  -60.55 | X-H torsion
[ 11005 11000 10999 10996 ] final -147.37 input  -57.11 | X-H torsion

> <Gold.Protein.ActiveResidues>
 VAL166  LYS551  ARG553  GLY616  TRP617  ASP618  TYR619  PRO620  LYS621  CYS622 
 ASP623  PHE694  ASN695  SER759  ASP760  ASP761  ALA762  ILE779  LEU786  VAL792 
 PHE793  MET794  SER795  GLU796  ALA797  LYS798  CYS799  TRP800  GLU811  SER814 

> <Gold.Protein.RotatedAtoms>
  151.0778  134.9839  159.8340 H   0  0  0  0  0  0  0  0  0  0  0  0  # atno 6907 bound_to 6896
  152.5416  134.2219  159.8801 H   0  0  0  0  0  0  0  0  0  0  0  0  # atno 6908 bound_to 6896
  151.2247  133.4439  159.2635 H   0  0  0  0  0  0  0  0  0  0  0  0  # atno 6909 bound_to 6896
  146.1514  139.6583  142.9096 H   0  0  0  0  0  0  0  0  0  0  0  0  # atno 7974 bound_to 7965
  155.8495  140.3459  155.5684 H   0  0  0  0  0  0  0  0  0  0  0  0  # atno 8008 bound_to 7997
  155.8053  140.0891  157.1954 H   0  0  0  0  0  0  0  0  0  0  0  0  # atno 8009 bound_to 7997
  154.4007  140.1458  156.3310 H   0  0  0  0  0  0  0  0  0  0  0  0  # atno 8010 bound_to 7997
  140.7247  143.3838  151.1552 H   0  0  0  0  0  0  0  0  0  0  0  0  # atno 10167 bound_to 10162
  156.8567  130.5572  149.5666 H   0  0  0  0  0  0  0  0  0  0  0  0  # atno 10718 bound_to 10713
  154.4277  135.2759  155.1933 H   0  0  0  0  0  0  0  0  0  0  0  0  # atno 10763 bound_to 10752
  154.3852  135.6078  153.5816 H   0  0  0  0  0  0  0  0  0  0  0  0  # atno 10764 bound_to 10752
  152.9835  135.5890  154.4583 H   0  0  0  0  0  0  0  0  0  0  0  0  # atno 10765 bound_to 10752
  140.7724  134.3174  157.5071 H   0  0  0  0  0  0  0  0  0  0  0  0  # atno 11005 bound_to 11000
  145.4813  141.0438  143.2644 LP  0  0  0  0  0  0  0  0  0  0  0  0  # atno 17320 bound_to 7965
  144.7909  139.6330  143.7114 LP  0  0  0  0  0  0  0  0  0  0  0  0  # atno 17321 bound_to 7965
  139.7432  143.8892  152.3056 LP  0  0  0  0  0  0  0  0  0  0  0  0  # atno 17342 bound_to 10162
  139.8721  144.7063  150.8976 LP  0  0  0  0  0  0  0  0  0  0  0  0  # atno 17343 bound_to 10162
  156.0799  130.5812  150.9543 LP  0  0  0  0  0  0  0  0  0  0  0  0  # atno 17370 bound_to 10713
  157.6273  131.0924  150.8509 LP  0  0  0  0  0  0  0  0  0  0  0  0  # atno 17371 bound_to 10713
  139.8754  134.9268  156.3410 LP  0  0  0  0  0  0  0  0  0  0  0  0  # atno 17394 bound_to 11000
  140.9561  133.7419  156.0338 LP  0  0  0  0  0  0  0  0  0  0  0  0  # atno 17395 bound_to 11000

$$$$
