AV-unprocessed.smi:2124|AV-procd|sdf|8667|dock4
  -GOLD-   2272011413D 1   1.00000     0.00000
 Structure written by MMmdl.
 46 48  0  0  0  0  0  0  0  0  2 V2000
  149.6114  133.8336  155.6493 C   0  0  0  0  0  0  0  0  0  0  0  0
  150.3717  135.1384  155.7562 C   0  0  0  0  0  0  0  0  0  0  0  0
  151.1944  135.3063  156.7206 N   0  0  0  0  0  0  0  0  0  0  0  0
  151.8999  136.5173  156.8250 C   0  0  0  0  0  0  0  0  0  0  0  0
  152.8507  136.6319  158.0037 C   0  0  0  0  0  0  0  0  0  0  0  0
  151.7229  137.5173  155.9144 C   0  0  0  0  0  0  0  0  0  0  0  0
  152.4551  138.8574  155.9846 C   0  0  0  0  0  0  0  0  0  0  0  0
  151.5811  140.1144  155.9811 C   0  0  0  0  0  0  0  0  0  0  0  0
  150.9175  140.4200  154.9897 O   0  0  0  0  0  0  0  0  0  0  0  0
  151.6008  140.8397  157.1095 N   0  0  0  0  0  0  0  0  0  0  0  0
  150.8747  142.0872  157.3348 C   0  0  1  0  0  0  0  0  0  0  0  0
  149.4064  141.9003  156.9193 C   0  0  0  0  0  0  0  0  0  0  0  0
  151.0146  142.5126  158.8153 C   0  0  2  0  0  0  0  0  0  0  0  0
  150.2392  143.7928  159.1998 C   0  0  0  0  0  0  0  0  0  0  0  0
  151.3031  144.6388  159.9248 C   0  0  2  0  0  0  0  0  0  0  0  0
  152.2895  145.2050  158.8867 C   0  0  0  0  0  0  0  0  0  0  0  0
  153.0987  143.9613  158.4770 C   0  0  0  0  0  0  0  0  0  0  0  0
  152.4465  142.8389  159.3111 C   0  0  1  0  0  0  0  0  0  0  0  0
  152.1480  143.5734  160.6141 C   0  0  0  0  0  0  0  0  0  0  0  0
  150.7751  137.2791  154.8116 C   0  0  0  0  0  0  0  0  0  0  0  0
  150.5946  138.1407  153.9518 O   0  0  0  0  0  0  0  0  0  0  0  0
  150.1230  136.0818  154.7846 N   0  5  0  0  0  0  0  0  0  0  0  0
  149.8153  133.1883  156.5047 H   0  0  0  0  0  0  0  0  0  0  0  0
  149.9008  133.3019  154.7425 H   0  0  0  0  0  0  0  0  0  0  0  0
  148.5379  134.0221  155.6126 H   0  0  0  0  0  0  0  0  0  0  0  0
  153.8542  136.8914  157.6664 H   0  0  0  0  0  0  0  0  0  0  0  0
  152.9163  135.6908  158.5506 H   0  0  0  0  0  0  0  0  0  0  0  0
  152.5075  137.3994  158.6970 H   0  0  0  0  0  0  0  0  0  0  0  0
  153.1065  138.8826  156.8592 H   0  0  0  0  0  0  0  0  0  0  0  0
  153.1338  138.9297  155.1349 H   0  0  0  0  0  0  0  0  0  0  0  0
  152.1731  140.5057  157.8714 H   0  0  0  0  0  0  0  0  0  0  0  0
  151.2949  142.8745  156.7076 H   0  0  0  0  0  0  0  0  0  0  0  0
  148.8363  142.8203  157.0474 H   0  0  0  0  0  0  0  0  0  0  0  0
  148.9213  141.1232  157.5108 H   0  0  0  0  0  0  0  0  0  0  0  0
  149.3301  141.6143  155.8696 H   0  0  0  0  0  0  0  0  0  0  0  0
  150.6403  141.6928  159.4317 H   0  0  0  0  0  0  0  0  0  0  0  0
  149.8260  144.3187  158.3382 H   0  0  0  0  0  0  0  0  0  0  0  0
  149.4101  143.5511  159.8660 H   0  0  0  0  0  0  0  0  0  0  0  0
  150.8835  145.3968  160.5868 H   0  0  0  0  0  0  0  0  0  0  0  0
  151.7805  145.6679  158.0403 H   0  0  0  0  0  0  0  0  0  0  0  0
  152.9414  145.9550  159.3362 H   0  0  0  0  0  0  0  0  0  0  0  0
  153.0745  143.7751  157.4038 H   0  0  0  0  0  0  0  0  0  0  0  0
  154.1453  144.0833  158.7586 H   0  0  0  0  0  0  0  0  0  0  0  0
  153.0804  141.9591  159.4259 H   0  0  0  0  0  0  0  0  0  0  0  0
  153.0389  143.9747  161.1006 H   0  0  0  0  0  0  0  0  0  0  0  0
  151.5867  142.9747  161.3338 H   0  0  0  0  0  0  0  0  0  0  0  0
  1  2  1  0  0  0  0
  1 23  1  0  0  0  0
  1 24  1  0  0  0  0
  1 25  1  0  0  0  0
  2 22  1  0  0  0  0
  2  3  2  0  0  0  0
  3  4  1  0  0  0  0
  4  5  1  0  0  0  0
  4  6  2  0  0  0  0
  5 26  1  0  0  0  0
  5 27  1  0  0  0  0
  5 28  1  0  0  0  0
  6  7  1  0  0  0  0
  6 20  1  0  0  0  0
  7  8  1  0  0  0  0
  7 29  1  0  0  0  0
  7 30  1  0  0  0  0
  8  9  2  0  0  0  0
  8 10  1  0  0  0  0
 10 11  1  0  0  0  0
 10 31  1  0  0  0  0
 11 12  1  0  0  0  0
 11 13  1  0  0  0  0
 11 32  1  0  0  0  0
 12 33  1  0  0  0  0
 12 34  1  0  0  0  0
 12 35  1  0  0  0  0
 13 18  1  0  0  0  0
 13 14  1  0  0  0  0
 13 36  1  0  0  0  0
 14 15  1  0  0  0  0
 14 37  1  0  0  0  0
 14 38  1  0  0  0  0
 15 19  1  0  0  0  0
 15 16  1  0  0  0  0
 15 39  1  0  0  0  0
 16 17  1  0  0  0  0
 16 40  1  0  0  0  0
 16 41  1  0  0  0  0
 17 18  1  0  0  0  0
 17 42  1  0  0  0  0
 17 43  1  0  0  0  0
 18 19  1  0  0  0  0
 18 44  1  0  0  0  0
 19 45  1  0  0  0  0
 19 46  1  0  0  0  0
 20 21  2  0  0  0  0
 20 22  1  0  0  0  0
M  CHG  1  22  -1
M  END
> <s_m_source_file>
AV-unprocessed.smi

> <i_m_source_file_index>
2124

> <i_lp_mmshare_version>
43012

> <i_f3d_flags>
0

> <s_epik_input>
W0NIM11jMW5jKFtDSDNdKWMoYyg9TylbbkhdMSlbQ0gyXUMoPU8pW05IXVtDQEhdKFtDSDNdKVtDQEhdKFtDSDJdW0NASF0yMylbQ0BIXShbQ0gyXTMpW0NIMl1bQ0gyXTI=

> <s_epik_cmdline>
J2VwaWtfcHl0aG9uJywgJy1waCcsICc3LjAnLCAnLXRuJywgJzgnLCAnLW1hJywgJzIwMCcsICctbWV0YWxfYmluZGluZycsICctaW1hZScsICc8aW5maWxlLm1hZT4nLCAnLW9tYWUnLCAnPG91dGZpbGUubWFlPic=

> <r_lp_tautomer_probability>
0.839158

> <r_epik_Ionization_Penalty>
6.63797

> <r_epik_Ionization_Penalty_Charging>
7.48558e-08

> <r_epik_Ionization_Penalty_Neutral>
6.63797

> <r_epik_State_Penalty>
4.49496

> <r_epik_Charging_Adjusted_Penalty>
4.49496

> <i_epik_Tot_Q>
-1

> <i_epik_Tot_abs_Q>
1

> <r_epik_Metal_State_Penalty>
0.841241

> <b_epik_Metal_Only>
1

> <s_lp_Force_Field>
OPLS_2005

> <r_lp_Energy>
55.4984

> <b_lp_Chiralities_Consistent>
1

> <s_lp_Variant>
AV-unprocessed.smi:2124-18

> <Gold.Version>
5.8.1

> <Gold.Id.Protein>
6NUR|6NUR_protein|mol2

> <Gold.PLP.Fitness>
44.9707

> <Gold.PLP.PLP>
-42.2422

> <Gold.PLP.part.hbond>
-1.1975

> <Gold.PLP.part.metal>
0.0000

> <Gold.PLP.part.buried>
-5.1652

> <Gold.PLP.part.nonpolar>
-35.5082

> <Gold.PLP.part.repulsive>
0.6011

> <Gold.PLP.ligand.clash>
0.0000

> <Gold.PLP.ligand.torsion>
0.1598

> <Gold.PLP.Chemscore.Hbond>
1.0000

> <Gold.PLP.Chemscore.CHOScore>
0.0000

> <Gold.PLP.Chemscore.Metal>
0.0000

> <Gold.Chemscore.Hbonds>
donor molecule, donor type, donor heavy atom, donor atom, acceptor molecule, acceptor atom, score
      P1  H  7989  7998       L1     9  1.00

> <Gold.PLP.Chemscore.Internal.Correction>
0.0480

> <Gold.Rescore>
     Score         DG    S(hbond)    S(metal)    S(lipo)     H(rot)  DE(clash)    DE(int)     intcor
     15.24     -18.33       0.98        0.00     116.98       1.61       0.10       2.99       ----

> <Gold.Chemscore.Fitness>
15.2418

> <Gold.Chemscore.DG>
-18.3342

> <Gold.Chemscore.ZeroCoef>
-5.4800

> <Gold.Chemscore.Hbond>
0.9808

> <Gold.Chemscore.Metal>
0.0000

> <Gold.Chemscore.Lipo>
116.9845

> <Gold.Chemscore.Internal_Hbond>
0.0000

> <Gold.Chemscore.DEClash>
0.1036

> <Gold.Chemscore.DEInternal>
2.9889

> <Gold.Chemscore.Rot>
1.6051

> <Gold.Chemscore.Internal.Correction>
   9.000000E+99

> <Gold.Chemscore.Hbonds>
donor molecule, donor type, donor heavy atom, donor atom, acceptor molecule, acceptor atom, score
      P1  H  7989  7998       L1     9  0.97

> <Gold.Chemscore.Hbond.Weighted>
-3.2760

> <Gold.Chemscore.Metal.Weighted>
-0.0000

> <Gold.Chemscore.Lipo.Weighted>
-13.6872

> <Gold.Chemscore.Internal_Hbond.Weighted>
0.0000

> <Gold.Chemscore.DEClash.Weighted>
0.1036

> <Gold.Chemscore.DEInternal.Weighted>
2.9889

> <Gold.Chemscore.Rot.Weighted>
4.1090

> <Gold.Chemscore.Internal.Correction.Weighted>
   9.000000E+99

> <Gold.Protein.RotatedTorsions>
[ 6907 6896 6895 6894 ] final  -23.15 input  -60.11 | X-H torsion
[ 7974 7965 7964 7962 ] final   56.75 input  175.53 | X-H torsion
[ 8008 7997 7996 7995 ] final   76.53 input   59.86 | X-H torsion
[ 10167 10162 10161 10158 ] final -124.95 input  -65.29 | X-H torsion
[ 10718 10713 10712 10709 ] final  144.16 input   66.30 | X-H torsion
[ 10763 10752 10751 10750 ] final   57.65 input  -60.55 | X-H torsion
[ 11005 11000 10999 10996 ] final   58.82 input  -57.11 | X-H torsion

> <Gold.Protein.ActiveResidues>
 VAL166  LYS551  ARG553  GLY616  TRP617  ASP618  TYR619  PRO620  LYS621  CYS622 
 ASP623  PHE694  ASN695  SER759  ASP760  ASP761  ALA762  ILE779  LEU786  VAL792 
 PHE793  MET794  SER795  GLU796  ALA797  LYS798  CYS799  TRP800  GLU811  SER814 

> <Gold.Protein.RotatedAtoms>
  151.2083  135.0471  159.8900 H   0  0  0  0  0  0  0  0  0  0  0  0  # atno 6907 bound_to 6896
  152.5427  134.0774  159.8230 H   0  0  0  0  0  0  0  0  0  0  0  0  # atno 6908 bound_to 6896
  151.0923  133.5258  159.2646 H   0  0  0  0  0  0  0  0  0  0  0  0  # atno 6909 bound_to 6896
  145.9365  139.3852  143.0389 H   0  0  0  0  0  0  0  0  0  0  0  0  # atno 7974 bound_to 7965
  155.8287  140.3467  155.5559 H   0  0  0  0  0  0  0  0  0  0  0  0  # atno 8008 bound_to 7997
  155.8265  140.0920  157.1838 H   0  0  0  0  0  0  0  0  0  0  0  0  # atno 8009 bound_to 7997
  154.4004  140.1420  156.3550 H   0  0  0  0  0  0  0  0  0  0  0  0  # atno 8010 bound_to 7997
  139.9873  143.5679  152.2355 H   0  0  0  0  0  0  0  0  0  0  0  0  # atno 10167 bound_to 10162
  157.3605  131.0964  151.0920 H   0  0  0  0  0  0  0  0  0  0  0  0  # atno 10718 bound_to 10713
  152.9854  135.5634  154.5425 H   0  0  0  0  0  0  0  0  0  0  0  0  # atno 10763 bound_to 10752
  154.4877  135.2791  155.1523 H   0  0  0  0  0  0  0  0  0  0  0  0  # atno 10764 bound_to 10752
  154.3005  135.6308  153.5476 H   0  0  0  0  0  0  0  0  0  0  0  0  # atno 10765 bound_to 10752
  140.0349  134.5957  155.9457 H   0  0  0  0  0  0  0  0  0  0  0  0  # atno 11005 bound_to 11000
  145.8357  140.9607  143.0826 LP  0  0  0  0  0  0  0  0  0  0  0  0  # atno 17320 bound_to 7965
  144.6772  140.0219  143.7483 LP  0  0  0  0  0  0  0  0  0  0  0  0  # atno 17321 bound_to 7965
  139.6366  144.7650  151.2425 LP  0  0  0  0  0  0  0  0  0  0  0  0  # atno 17342 bound_to 10162
  140.7468  143.6388  150.8354 LP  0  0  0  0  0  0  0  0  0  0  0  0  # atno 17343 bound_to 10162
  157.2061  130.6417  149.5757 LP  0  0  0  0  0  0  0  0  0  0  0  0  # atno 17370 bound_to 10713
  155.9736  130.4675  150.6326 LP  0  0  0  0  0  0  0  0  0  0  0  0  # atno 17371 bound_to 10713
  141.1852  133.6554  156.5187 LP  0  0  0  0  0  0  0  0  0  0  0  0  # atno 17394 bound_to 11000
  140.4164  134.7227  157.4865 LP  0  0  0  0  0  0  0  0  0  0  0  0  # atno 17395 bound_to 11000

$$$$
