AV-unprocessed.smi:3350|AV-procd|sdf|12939|dock2
  -GOLD-   2272019373D 1   1.00000     0.00000
 Structure written by MMmdl.
 41 42  0  0  0  0  0  0  0  0  1 V2000
  145.2679  134.4230  153.8118 C   0  0  0  0  0  0  0  0  0  0  0  0
  145.2378  135.7442  153.0319 C   0  0  2  0  0  0  0  0  0  0  0  0
  144.8454  135.5207  151.5571 C   0  0  0  0  0  0  0  0  0  0  0  0
  145.0264  134.1427  151.1359 N   0  0  0  0  0  0  0  0  0  0  0  0
  144.0627  133.2221  150.7824 C   0  0  0  0  0  0  0  0  0  0  0  0
  144.7086  132.0668  150.4469 C   0  0  0  0  0  0  0  0  0  0  0  0
  146.0838  132.3830  150.6301 C   0  0  0  0  0  0  0  0  0  0  0  0
  146.2710  133.6249  151.0462 N   0  0  0  0  0  0  0  0  0  0  0  0
  146.5506  136.3809  153.1278 N   0  0  0  0  0  0  0  0  0  0  0  0
  146.8857  137.3560  153.9848 C   0  0  0  0  0  0  0  0  0  0  0  0
  146.1187  137.8408  154.8169 O   0  0  0  0  0  0  0  0  0  0  0  0
  148.1612  137.7344  153.8246 N   0  0  0  0  0  0  0  0  0  0  0  0
  148.8596  138.7340  154.6309 C   0  0  2  0  0  0  0  0  0  0  0  0
  148.0627  140.0461  154.6133 C   0  0  0  0  0  0  0  0  0  0  0  0
  150.3145  138.9345  154.1489 C   0  0  2  0  0  0  0  0  0  0  0  0
  151.2394  137.7138  154.2599 C   0  0  0  0  0  0  0  0  0  0  0  0
  152.5914  138.3612  154.4543 C   0  0  0  0  0  0  0  0  0  0  0  0
  152.2300  139.5447  155.3430 C   0  0  0  0  0  0  0  0  0  0  0  0
  150.9546  139.9780  154.8833 O   0  0  0  0  0  0  0  0  0  0  0  0
  144.2942  133.9330  153.7908 H   0  0  0  0  0  0  0  0  0  0  0  0
  145.5290  134.5902  154.8574 H   0  0  0  0  0  0  0  0  0  0  0  0
  145.9982  133.7302  153.3924 H   0  0  0  0  0  0  0  0  0  0  0  0
  144.4803  136.3760  153.4997 H   0  0  0  0  0  0  0  0  0  0  0  0
  143.8088  135.8163  151.3856 H   0  0  0  0  0  0  0  0  0  0  0  0
  145.4578  136.1485  150.9086 H   0  0  0  0  0  0  0  0  0  0  0  0
  143.0104  133.4652  150.7939 H   0  0  0  0  0  0  0  0  0  0  0  0
  144.2667  131.1381  150.1182 H   0  0  0  0  0  0  0  0  0  0  0  0
  146.9454  131.7508  150.4750 H   0  0  0  0  0  0  0  0  0  0  0  0
  147.2566  136.0585  152.4825 H   0  0  0  0  0  0  0  0  0  0  0  0
  148.7018  137.2768  153.1056 H   0  0  0  0  0  0  0  0  0  0  0  0
  148.8928  138.3980  155.6689 H   0  0  0  0  0  0  0  0  0  0  0  0
  148.5476  140.8071  155.2253 H   0  0  0  0  0  0  0  0  0  0  0  0
  147.0570  139.8987  155.0085 H   0  0  0  0  0  0  0  0  0  0  0  0
  147.9674  140.4436  153.6023 H   0  0  0  0  0  0  0  0  0  0  0  0
  150.3024  139.2644  153.1090 H   0  0  0  0  0  0  0  0  0  0  0  0
  151.0023  137.1052  155.1327 H   0  0  0  0  0  0  0  0  0  0  0  0
  151.1978  137.0709  153.3802 H   0  0  0  0  0  0  0  0  0  0  0  0
  153.3260  137.6948  154.9067 H   0  0  0  0  0  0  0  0  0  0  0  0
  152.9845  138.7117  153.4991 H   0  0  0  0  0  0  0  0  0  0  0  0
  152.1354  139.2250  156.3819 H   0  0  0  0  0  0  0  0  0  0  0  0
  152.9673  140.3466  155.2988 H   0  0  0  0  0  0  0  0  0  0  0  0
  1  2  1  0  0  0  0
  1 20  1  0  0  0  0
  1 21  1  0  0  0  0
  1 22  1  0  0  0  0
  2  3  1  0  0  0  0
  2  9  1  0  0  0  0
  2 23  1  0  0  0  0
  3  4  1  0  0  0  0
  3 24  1  0  0  0  0
  3 25  1  0  0  0  0
  4  8  1  0  0  0  0
  4  5  1  0  0  0  0
  5  6  2  0  0  0  0
  5 26  1  0  0  0  0
  6  7  1  0  0  0  0
  6 27  1  0  0  0  0
  7  8  2  0  0  0  0
  7 28  1  0  0  0  0
  9 10  1  0  0  0  0
  9 29  1  0  0  0  0
 10 11  2  0  0  0  0
 10 12  1  0  0  0  0
 12 13  1  0  0  0  0
 12 30  1  0  0  0  0
 13 14  1  0  0  0  0
 13 15  1  0  0  0  0
 13 31  1  0  0  0  0
 14 32  1  0  0  0  0
 14 33  1  0  0  0  0
 14 34  1  0  0  0  0
 15 19  1  0  0  0  0
 15 16  1  0  0  0  0
 15 35  1  0  0  0  0
 16 17  1  0  0  0  0
 16 36  1  0  0  0  0
 16 37  1  0  0  0  0
 17 18  1  0  0  0  0
 17 38  1  0  0  0  0
 17 39  1  0  0  0  0
 18 19  1  0  0  0  0
 18 40  1  0  0  0  0
 18 41  1  0  0  0  0
M  END
> <s_m_source_file>
AV-unprocessed.smi

> <i_m_source_file_index>
3350

> <i_lp_mmshare_version>
43012

> <i_f3d_flags>
0

> <s_epik_input>
bjFbY0hdW2NIXVtjSF1uMVtDSDJdW0NAQEhdKFtDSDNdKVtOSF1DKD1PKVtOSF1bQ0BIXShbQ0gzXSlbQ0BASF0yW0NIMl1bQ0gyXVtDSDJdTzI=

> <s_epik_cmdline>
J2VwaWtfcHl0aG9uJywgJy1waCcsICc3LjAnLCAnLXRuJywgJzgnLCAnLW1hJywgJzIwMCcsICctbWV0YWxfYmluZGluZycsICctaW1hZScsICc8aW5maWxlLm1hZT4nLCAnLW9tYWUnLCAnPG91dGZpbGUubWFlPic=

> <r_lp_tautomer_probability>
1

> <r_epik_Ionization_Penalty>
6.42349e-05

> <r_epik_Ionization_Penalty_Charging>
0

> <r_epik_Ionization_Penalty_Neutral>
6.42349e-05

> <r_epik_State_Penalty>
-0

> <r_epik_Charging_Adjusted_Penalty>
0

> <i_epik_Tot_Q>
0

> <i_epik_Tot_abs_Q>
0

> <r_epik_Metal_State_Penalty>
-0

> <b_epik_Metal_Only>
0

> <s_lp_Force_Field>
OPLS_2005

> <r_lp_Energy>
17.0585

> <b_lp_Chiralities_Consistent>
1

> <s_lp_Variant>
AV-unprocessed.smi:3350-1

> <Gold.Version>
5.8.1

> <Gold.Id.Protein>
6NUR|6NUR_protein|mol2

> <Gold.PLP.Fitness>
48.4664

> <Gold.PLP.PLP>
-35.4919

> <Gold.PLP.part.hbond>
-3.0000

> <Gold.PLP.part.metal>
0.0000

> <Gold.PLP.part.buried>
-5.2311

> <Gold.PLP.part.nonpolar>
-28.7960

> <Gold.PLP.part.repulsive>
0.4154

> <Gold.PLP.ligand.clash>
0.0000

> <Gold.PLP.ligand.torsion>
0.9721

> <Gold.PLP.Chemscore.Hbond>
2.9600

> <Gold.PLP.Chemscore.CHOScore>
2.0000

> <Gold.PLP.Chemscore.Metal>
0.0000

> <Gold.Chemscore.Hbonds>
donor molecule, donor type, donor heavy atom, donor atom, acceptor molecule, acceptor atom, score
      L1  H     9    29       P1  7948  0.98
      L1  H    12    30       P1  7948  1.00
      P1  H  7989  7998       L1    19  0.58
      L1  C     5    26       P1 10186  0.97
      L1  C     7    28       P1 10747  1.00

> <Gold.PLP.Chemscore.Internal.Correction>
0.0388

> <Gold.Rescore>
     Score         DG    S(hbond)    S(metal)    S(lipo)     H(rot)  DE(clash)    DE(int)     intcor
     15.54     -17.71       2.15        0.00      82.95       1.82       0.07       2.10       ----

> <Gold.Chemscore.Fitness>
15.5432

> <Gold.Chemscore.DG>
-17.7130

> <Gold.Chemscore.ZeroCoef>
-5.4800

> <Gold.Chemscore.Hbond>
2.1516

> <Gold.Chemscore.Metal>
0.0000

> <Gold.Chemscore.Lipo>
82.9474

> <Gold.Chemscore.Internal_Hbond>
0.0000

> <Gold.Chemscore.DEClash>
0.0697

> <Gold.Chemscore.DEInternal>
2.1001

> <Gold.Chemscore.Rot>
1.8197

> <Gold.Chemscore.Internal.Correction>
   9.000000E+99

> <Gold.Chemscore.Hbonds>
donor molecule, donor type, donor heavy atom, donor atom, acceptor molecule, acceptor atom, score
      L1  H     9    29       P1  7948  0.93
      L1  H    12    30       P1  7948  0.98
      P1  H  7989  7998       L1    19  0.01

> <Gold.Chemscore.Hbond.Weighted>
-7.1865

> <Gold.Chemscore.Metal.Weighted>
-0.0000

> <Gold.Chemscore.Lipo.Weighted>
-9.7048

> <Gold.Chemscore.Internal_Hbond.Weighted>
0.0000

> <Gold.Chemscore.DEClash.Weighted>
0.0697

> <Gold.Chemscore.DEInternal.Weighted>
2.1001

> <Gold.Chemscore.Rot.Weighted>
4.6583

> <Gold.Chemscore.Internal.Correction.Weighted>
   9.000000E+99

> <Gold.Protein.RotatedTorsions>
[ 6907 6896 6895 6894 ] final  -89.71 input  -60.11 | X-H torsion
[ 7974 7965 7964 7962 ] final  108.67 input  175.53 | X-H torsion
[ 8008 7997 7996 7995 ] final -116.37 input   59.86 | X-H torsion
[ 10167 10162 10161 10158 ] final   31.84 input  -65.29 | X-H torsion
[ 10718 10713 10712 10709 ] final -143.64 input   66.30 | X-H torsion
[ 10763 10752 10751 10750 ] final  -59.02 input  -60.55 | X-H torsion
[ 11005 11000 10999 10996 ] final -162.99 input  -57.11 | X-H torsion

> <Gold.Protein.ActiveResidues>
 VAL166  LYS551  ARG553  GLY616  TRP617  ASP618  TYR619  PRO620  LYS621  CYS622 
 ASP623  PHE694  ASN695  SER759  ASP760  ASP761  ALA762  ILE779  LEU786  VAL792 
 PHE793  MET794  SER795  GLU796  ALA797  LYS798  CYS799  TRP800  GLU811  SER814 

> <Gold.Protein.RotatedAtoms>
  150.6876  134.2545  159.4523 H   0  0  0  0  0  0  0  0  0  0  0  0  # atno 6907 bound_to 6896
  152.0480  134.9668  160.0584 H   0  0  0  0  0  0  0  0  0  0  0  0  # atno 6908 bound_to 6896
  152.1144  133.4284  159.4683 H   0  0  0  0  0  0  0  0  0  0  0  0  # atno 6909 bound_to 6896
  145.2776  139.2644  143.3933 H   0  0  0  0  0  0  0  0  0  0  0  0  # atno 7974 bound_to 7965
  155.0667  140.0393  157.2595 H   0  0  0  0  0  0  0  0  0  0  0  0  # atno 8008 bound_to 7997
  154.7015  140.2674  155.6690 H   0  0  0  0  0  0  0  0  0  0  0  0  # atno 8009 bound_to 7997
  156.2762  140.2739  156.1628 H   0  0  0  0  0  0  0  0  0  0  0  0  # atno 8010 bound_to 7997
  140.4552  144.0989  150.6200 H   0  0  0  0  0  0  0  0  0  0  0  0  # atno 10167 bound_to 10162
  156.3603  130.7735  151.1901 H   0  0  0  0  0  0  0  0  0  0  0  0  # atno 10718 bound_to 10713
  154.2472  135.6332  153.5227 H   0  0  0  0  0  0  0  0  0  0  0  0  # atno 10763 bound_to 10752
  152.9919  135.5556  154.5847 H   0  0  0  0  0  0  0  0  0  0  0  0  # atno 10764 bound_to 10752
  154.5366  135.2892  155.1108 H   0  0  0  0  0  0  0  0  0  0  0  0  # atno 10765 bound_to 10752
  140.6031  134.4927  157.5207 H   0  0  0  0  0  0  0  0  0  0  0  0  # atno 11005 bound_to 11000
  146.3226  140.3235  142.8635 LP  0  0  0  0  0  0  0  0  0  0  0  0  # atno 17320 bound_to 7965
  144.9281  140.7944  143.5706 LP  0  0  0  0  0  0  0  0  0  0  0  0  # atno 17321 bound_to 7965
  140.4159  143.2634  151.9775 LP  0  0  0  0  0  0  0  0  0  0  0  0  # atno 17342 bound_to 10162
  139.4800  144.5874  151.7830 LP  0  0  0  0  0  0  0  0  0  0  0  0  # atno 17343 bound_to 10162
  157.7472  131.0402  150.4586 LP  0  0  0  0  0  0  0  0  0  0  0  0  # atno 17370 bound_to 10713
  156.4795  130.4070  149.6470 LP  0  0  0  0  0  0  0  0  0  0  0  0  # atno 17371 bound_to 10713
  139.9224  134.8123  156.1171 LP  0  0  0  0  0  0  0  0  0  0  0  0  # atno 17394 bound_to 11000
  141.0859  133.6734  156.2435 LP  0  0  0  0  0  0  0  0  0  0  0  0  # atno 17395 bound_to 11000

$$$$
