AV-unprocessed.smi:290|AV-procd|sdf|2243|dock3
  -GOLD-   2262022123D 1   1.00000     0.00000
 Structure written by MMmdl.
 59 62  0  0  0  0  0  0  0  0  2 V2000
  151.9300  144.6364  159.9607 C   0  0  0  0  0  0  0  0  0  0  0  0
  151.9748  143.2149  160.5429 C   0  0  2  0  0  0  0  0  0  0  0  0
  152.9916  143.1861  161.5409 O   0  0  0  0  0  0  0  0  0  0  0  0
  153.5266  141.8765  161.6080 C   0  0  0  0  0  0  0  0  0  0  0  0
  153.6081  141.4847  160.1408 C   0  0  0  0  0  0  0  0  0  0  0  0
  152.3206  142.0621  159.5574 C   0  0  1  0  0  0  0  0  0  0  0  0
  151.3126  141.0721  159.6793 O   0  0  0  0  0  0  0  0  0  0  0  0
  152.4401  142.4488  158.0596 C   0  0  0  0  0  0  0  0  0  0  0  0
  151.3469  141.9429  157.2439 N   0  0  0  0  0  0  0  0  0  0  0  0
  150.0519  142.4085  157.2172 C   0  0  0  0  0  0  0  0  0  0  0  0
  149.2551  141.7883  156.3908 N   0  0  0  0  0  0  0  0  0  0  0  0
  150.0596  140.8181  155.8032 C   0  0  0  0  0  0  0  0  0  0  0  0
  149.8413  139.8080  154.8218 C   0  0  0  0  0  0  0  0  0  0  0  0
  148.6428  139.6271  154.2039 N   0  0  0  0  0  0  0  0  0  0  0  0
  148.1576  138.2520  154.0905 C   0  0  0  0  0  0  0  0  0  0  0  0
  146.6685  138.2842  154.4580 C   0  0  0  0  0  0  0  0  0  0  0  0
  146.5182  139.6137  155.2101 C   0  0  2  0  0  0  0  0  0  0  0  0
  145.1280  140.1441  155.3083 N   0  3  2  0  0  0  0  0  0  0  0  0
  145.0738  141.5505  155.7803 C   0  0  0  0  0  0  0  0  0  0  0  0
  144.1614  139.2598  156.0222 C   0  0  0  0  0  0  0  0  0  0  0  0
  142.7024  139.7674  156.0633 C   0  0  0  0  0  0  0  0  0  0  0  0
  142.0519  139.5892  154.8237 O   0  0  0  0  0  0  0  0  0  0  0  0
  147.5047  140.5144  154.4427 C   0  0  2  0  0  0  0  0  0  0  0  0
  146.9728  141.0474  153.0952 C   0  0  0  0  0  0  0  0  0  0  0  0
  150.8972  139.0106  154.5089 N   0  0  0  0  0  0  0  0  0  0  0  0
  152.0831  139.1898  155.0977 C   0  0  0  0  0  0  0  0  0  0  0  0
  152.4299  140.0935  156.0149 N   0  0  0  0  0  0  0  0  0  0  0  0
  151.3758  140.8944  156.3412 C   0  0  0  0  0  0  0  0  0  0  0  0
  146.9063  139.4806  156.2217 H   0  0  0  0  0  0  0  0  0  0  0  0
  147.7603  141.3763  155.0577 H   0  0  0  0  0  0  0  0  0  0  0  0
  151.1579  144.7307  159.1971 H   0  0  0  0  0  0  0  0  0  0  0  0
  152.8857  144.9192  159.5190 H   0  0  0  0  0  0  0  0  0  0  0  0
  151.7051  145.3636  160.7412 H   0  0  0  0  0  0  0  0  0  0  0  0
  151.0228  143.0173  161.0395 H   0  0  0  0  0  0  0  0  0  0  0  0
  154.4967  141.8614  162.1051 H   0  0  0  0  0  0  0  0  0  0  0  0
  152.8441  141.2236  162.1547 H   0  0  0  0  0  0  0  0  0  0  0  0
  154.4750  141.9756  159.6963 H   0  0  0  0  0  0  0  0  0  0  0  0
  153.7208  140.4102  159.9882 H   0  0  0  0  0  0  0  0  0  0  0  0
  151.5504  140.4850  160.3807 H   0  0  0  0  0  0  0  0  0  0  0  0
  152.4752  143.5331  157.9466 H   0  0  0  0  0  0  0  0  0  0  0  0
  153.3694  142.0639  157.6386 H   0  0  0  0  0  0  0  0  0  0  0  0
  149.7149  143.2315  157.8303 H   0  0  0  0  0  0  0  0  0  0  0  0
  148.3122  137.8673  153.0821 H   0  0  0  0  0  0  0  0  0  0  0  0
  148.6881  137.5981  154.7845 H   0  0  0  0  0  0  0  0  0  0  0  0
  146.0626  138.2835  153.5512 H   0  0  0  0  0  0  0  0  0  0  0  0
  146.3781  137.4167  155.0502 H   0  0  0  0  0  0  0  0  0  0  0  0
  145.5615  141.6661  156.7486 H   0  0  0  0  0  0  0  0  0  0  0  0
  144.0422  141.8913  155.8728 H   0  0  0  0  0  0  0  0  0  0  0  0
  145.5705  142.2223  155.0812 H   0  0  0  0  0  0  0  0  0  0  0  0
  144.1704  138.3006  155.5030 H   0  0  0  0  0  0  0  0  0  0  0  0
  144.5147  139.0346  157.0286 H   0  0  0  0  0  0  0  0  0  0  0  0
  142.1200  139.3055  156.8594 H   0  0  0  0  0  0  0  0  0  0  0  0
  142.7050  140.8379  156.2694 H   0  0  0  0  0  0  0  0  0  0  0  0
  142.5429  140.0431  154.1552 H   0  0  0  0  0  0  0  0  0  0  0  0
  146.1080  141.6970  153.2266 H   0  0  0  0  0  0  0  0  0  0  0  0
  146.6825  140.2447  152.4173 H   0  0  0  0  0  0  0  0  0  0  0  0
  147.7394  141.6350  152.5894 H   0  0  0  0  0  0  0  0  0  0  0  0
  152.8668  138.5144  154.7875 H   0  0  0  0  0  0  0  0  0  0  0  0
  144.7919  140.1694  154.3562 H   0  0  0  0  0  0  0  0  0  0  0  0
  1  2  1  0  0  0  0
  1 31  1  0  0  0  0
  1 32  1  0  0  0  0
  1 33  1  0  0  0  0
  2  6  1  0  0  0  0
  2  3  1  0  0  0  0
  2 34  1  0  0  0  0
  3  4  1  0  0  0  0
  4  5  1  0  0  0  0
  4 35  1  0  0  0  0
  4 36  1  0  0  0  0
  5  6  1  0  0  0  0
  5 37  1  0  0  0  0
  5 38  1  0  0  0  0
  6  7  1  0  0  0  0
  6  8  1  0  0  0  0
  7 39  1  0  0  0  0
  8  9  1  0  0  0  0
  8 40  1  0  0  0  0
  8 41  1  0  0  0  0
  9 28  1  0  0  0  0
  9 10  1  0  0  0  0
 10 11  2  0  0  0  0
 10 42  1  0  0  0  0
 11 12  1  0  0  0  0
 12 28  2  0  0  0  0
 12 13  1  0  0  0  0
 13 14  1  0  0  0  0
 13 25  2  0  0  0  0
 14 23  1  0  0  0  0
 14 15  1  0  0  0  0
 15 16  1  0  0  0  0
 15 43  1  0  0  0  0
 15 44  1  0  0  0  0
 16 17  1  0  0  0  0
 16 45  1  0  0  0  0
 16 46  1  0  0  0  0
 17 29  1  0  0  0  0
 17 18  1  0  0  0  0
 17 23  1  0  0  0  0
 18 19  1  0  0  0  0
 18 20  1  0  0  0  0
 18 59  1  0  0  0  0
 19 47  1  0  0  0  0
 19 48  1  0  0  0  0
 19 49  1  0  0  0  0
 20 21  1  0  0  0  0
 20 50  1  0  0  0  0
 20 51  1  0  0  0  0
 21 22  1  0  0  0  0
 21 52  1  0  0  0  0
 21 53  1  0  0  0  0
 22 54  1  0  0  0  0
 23 30  1  0  0  0  0
 23 24  1  0  0  0  0
 24 55  1  0  0  0  0
 24 56  1  0  0  0  0
 24 57  1  0  0  0  0
 25 26  1  0  0  0  0
 26 27  2  0  0  0  0
 26 58  1  0  0  0  0
 27 28  1  0  0  0  0
M  CHG  1  18   1
M  END
> <s_m_source_file>
AV-unprocessed.smi

> <i_m_source_file_index>
290

> <i_lp_mmshare_version>
43012

> <i_f3d_flags>
0

> <s_epik_input>
W0NIMl0xW0NIMl1PW0NAQEhdKFtDSDNdKVtDQEBdMShbT0hdKVtDSDJdbihbY0hdbjIpYyhjMjMpbltjSF1uYzNONFtDSDJdW0NIMl1bQ0BIXShbQ0BIXTRbQ0gzXSlOKFtDSDNdKVtDSDJdW0NIMl1bT0hd

> <s_epik_cmdline>
J2VwaWtfcHl0aG9uJywgJy1waCcsICc3LjAnLCAnLXRuJywgJzgnLCAnLW1hJywgJzIwMCcsICctbWV0YWxfYmluZGluZycsICctaW1hZScsICc8aW5maWxlLm1hZT4nLCAnLW9tYWUnLCAnPG91dGZpbGUubWFlPic=

> <r_lp_tautomer_probability>
1

> <r_epik_Ionization_Penalty>
0.0036983

> <r_epik_Ionization_Penalty_Charging>
0.0032725

> <r_epik_Ionization_Penalty_Neutral>
0.000425798

> <r_epik_State_Penalty>
-0

> <r_epik_Charging_Adjusted_Penalty>
0.0032725

> <i_epik_Tot_Q>
1

> <i_epik_Tot_abs_Q>
1

> <r_epik_Metal_State_Penalty>
-0

> <b_epik_Metal_Only>
0

> <s_lp_Force_Field>
OPLS_2005

> <r_lp_Energy>
63.2975

> <b_lp_Chiralities_Consistent>
1

> <s_lp_Variant>
AV-unprocessed.smi:290-29

> <Gold.Version>
5.8.1

> <Gold.Id.Protein>
6NUR|6NUR_protein|mol2

> <Gold.PLP.Fitness>
47.9212

> <Gold.PLP.PLP>
-37.3121

> <Gold.PLP.part.hbond>
-4.0378

> <Gold.PLP.part.metal>
0.0000

> <Gold.PLP.part.buried>
-0.7066

> <Gold.PLP.part.nonpolar>
-33.5570

> <Gold.PLP.part.repulsive>
2.4852

> <Gold.PLP.ligand.clash>
0.0000

> <Gold.PLP.ligand.torsion>
1.5260

> <Gold.PLP.Chemscore.Hbond>
4.0000

> <Gold.PLP.Chemscore.CHOScore>
0.3626

> <Gold.PLP.Chemscore.Metal>
0.0000

> <Gold.Chemscore.Hbonds>
donor molecule, donor type, donor heavy atom, donor atom, acceptor molecule, acceptor atom, score
      L1  H    18    59       P1 10175  1.17
      L1  H    22    54       P1 10175  1.00
      P1  H  7997  8008       L1    27  1.00
      L1  C    10    42       P1  8028  0.13

> <Gold.PLP.Chemscore.Internal.Correction>
0.5731

> <Gold.Rescore>
     Score         DG    S(hbond)    S(metal)    S(lipo)     H(rot)  DE(clash)    DE(int)     intcor
      9.16     -16.65       2.73        0.00      97.62       3.67       4.36       3.13       ----

> <Gold.Chemscore.Fitness>
9.1636

> <Gold.Chemscore.DG>
-16.6515

> <Gold.Chemscore.ZeroCoef>
-5.4800

> <Gold.Chemscore.Hbond>
2.7350

> <Gold.Chemscore.Metal>
0.0000

> <Gold.Chemscore.Lipo>
97.6161

> <Gold.Chemscore.Internal_Hbond>
0.0000

> <Gold.Chemscore.DEClash>
4.3605

> <Gold.Chemscore.DEInternal>
3.1273

> <Gold.Chemscore.Rot>
3.6658

> <Gold.Chemscore.Internal.Correction>
   9.000000E+99

> <Gold.Chemscore.Hbonds>
donor molecule, donor type, donor heavy atom, donor atom, acceptor molecule, acceptor atom, score
      L1  H    18    59       P1 10175  0.58
      L1  H    22    54       P1 10175  0.94
      P1  H  7997  8008       L1    27  0.84

> <Gold.Chemscore.Hbond.Weighted>
-9.1348

> <Gold.Chemscore.Metal.Weighted>
-0.0000

> <Gold.Chemscore.Lipo.Weighted>
-11.4211

> <Gold.Chemscore.Internal_Hbond.Weighted>
0.0000

> <Gold.Chemscore.DEClash.Weighted>
4.3605

> <Gold.Chemscore.DEInternal.Weighted>
3.1273

> <Gold.Chemscore.Rot.Weighted>
9.3844

> <Gold.Chemscore.Internal.Correction.Weighted>
   9.000000E+99

> <Gold.Protein.RotatedTorsions>
[ 6907 6896 6895 6894 ] final  -80.98 input  -60.11 | X-H torsion
[ 7974 7965 7964 7962 ] final   55.44 input  175.53 | X-H torsion
[ 8008 7997 7996 7995 ] final  -43.42 input   59.86 | X-H torsion
[ 10167 10162 10161 10158 ] final  -38.84 input  -65.29 | X-H torsion
[ 10718 10713 10712 10709 ] final -135.86 input   66.30 | X-H torsion
[ 10763 10752 10751 10750 ] final  -43.15 input  -60.55 | X-H torsion
[ 11005 11000 10999 10996 ] final -122.87 input  -57.11 | X-H torsion

> <Gold.Protein.ActiveResidues>
 VAL166  LYS551  ARG553  GLY616  TRP617  ASP618  TYR619  PRO620  LYS621  CYS622 
 ASP623  PHE694  ASN695  SER759  ASP760  ASP761  ALA762  ILE779  LEU786  VAL792 
 PHE793  MET794  SER795  GLU796  ALA797  LYS798  CYS799  TRP800  GLU811  SER814 

> <Gold.Protein.RotatedAtoms>
  150.6920  134.3888  159.5066 H   0  0  0  0  0  0  0  0  0  0  0  0  # atno 6907 bound_to 6896
  152.1679  134.8856  160.0546 H   0  0  0  0  0  0  0  0  0  0  0  0  # atno 6908 bound_to 6896
  151.9893  133.3750  159.4175 H   0  0  0  0  0  0  0  0  0  0  0  0  # atno 6909 bound_to 6896
  145.9504  139.3967  143.0309 H   0  0  0  0  0  0  0  0  0  0  0  0  # atno 7974 bound_to 7965
  154.3997  140.1448  156.3515 H   0  0  0  0  0  0  0  0  0  0  0  0  # atno 8008 bound_to 7997
  155.8264  140.3467  155.5524 H   0  0  0  0  0  0  0  0  0  0  0  0  # atno 8009 bound_to 7997
  155.8234  140.0901  157.1826 H   0  0  0  0  0  0  0  0  0  0  0  0  # atno 8010 bound_to 7997
  140.7081  143.3252  151.2698 H   0  0  0  0  0  0  0  0  0  0  0  0  # atno 10167 bound_to 10162
  156.2707  130.7264  151.1230 H   0  0  0  0  0  0  0  0  0  0  0  0  # atno 10718 bound_to 10713
  153.9908  135.6705  153.4754 H   0  0  0  0  0  0  0  0  0  0  0  0  # atno 10763 bound_to 10752
  153.0706  135.4976  154.8292 H   0  0  0  0  0  0  0  0  0  0  0  0  # atno 10764 bound_to 10752
  154.7110  135.3097  154.9159 H   0  0  0  0  0  0  0  0  0  0  0  0  # atno 10765 bound_to 10752
  140.9962  134.0468  157.3594 H   0  0  0  0  0  0  0  0  0  0  0  0  # atno 11005 bound_to 11000
  145.8179  140.9694  143.0914 LP  0  0  0  0  0  0  0  0  0  0  0  0  # atno 17320 bound_to 7965
  144.6795  140.0004  143.7484 LP  0  0  0  0  0  0  0  0  0  0  0  0  # atno 17321 bound_to 7965
  139.6718  144.0007  152.2757 LP  0  0  0  0  0  0  0  0  0  0  0  0  # atno 17342 bound_to 10162
  139.9608  144.6559  150.8081 LP  0  0  0  0  0  0  0  0  0  0  0  0  # atno 17343 bound_to 10162
  157.7283  131.0633  150.5827 LP  0  0  0  0  0  0  0  0  0  0  0  0  # atno 17370 bound_to 10713
  156.5923  130.4332  149.5931 LP  0  0  0  0  0  0  0  0  0  0  0  0  # atno 17371 bound_to 10713
  139.9016  135.0166  156.7294 LP  0  0  0  0  0  0  0  0  0  0  0  0  # atno 17394 bound_to 11000
  140.6962  133.9347  155.7996 LP  0  0  0  0  0  0  0  0  0  0  0  0  # atno 17395 bound_to 11000

$$$$
