AV-unprocessed.smi:102|AV-procd|sdf|974|dock8
  -GOLD-   2262017533D 1   1.00000     0.00000
 Structure written by MMmdl.
 43 44  0  0  0  0  0  0  0  0  2 V2000
  146.2976  135.3213  162.4744 C   0  0  0  0  0  0  0  0  0  0  0  0
  146.7723  136.4215  161.5330 C   0  0  0  0  0  0  0  0  0  0  0  0
  147.1973  137.4940  161.9630 O   0  0  0  0  0  0  0  0  0  0  0  0
  146.6645  136.0767  160.2420 O   0  0  0  0  0  0  0  0  0  0  0  0
  147.2723  136.8810  159.2431 C   0  0  0  0  0  0  0  0  0  0  0  0
  147.2949  136.1478  157.8928 C   0  0  1  0  0  0  0  0  0  0  0  0
  147.9130  136.9821  156.9142 O   0  0  0  0  0  0  0  0  0  0  0  0
  148.9825  136.3072  156.3314 C   0  0  1  0  0  0  0  0  0  0  0  0
  150.0740  137.3144  156.0338 N   0  0  0  0  0  0  0  0  0  0  0  0
  149.8364  138.6684  156.2072 C   0  0  0  0  0  0  0  0  0  0  0  0
  150.7585  139.5947  155.8772 C   0  0  0  0  0  0  0  0  0  0  0  0
  150.4912  140.8996  156.0590 F   0  0  0  0  0  0  0  0  0  0  0  0
  152.0332  139.1712  155.3039 C   0  0  0  0  0  0  0  0  0  0  0  0
  152.8844  140.0167  155.0329 O   0  0  0  0  0  0  0  0  0  0  0  0
  152.2195  137.8377  155.0860 N   0  5  0  0  0  0  0  0  0  0  0  0
  151.2809  136.8976  155.4029 C   0  0  0  0  0  0  0  0  0  0  0  0
  151.4392  135.6996  155.1697 O   0  0  0  0  0  0  0  0  0  0  0  0
  149.4108  135.1971  157.2932 C   0  0  2  0  0  0  0  0  0  0  0  0
  150.0496  134.1337  156.5977 O   0  0  0  0  0  0  0  0  0  0  0  0
  150.3523  132.9954  157.2431 C   0  0  0  0  0  0  0  0  0  0  0  0
  151.0117  131.9695  156.3316 C   0  0  0  0  0  0  0  0  0  0  0  0
  150.1350  132.7556  158.4311 O   0  0  0  0  0  0  0  0  0  0  0  0
  148.0711  134.8176  157.9113 C   0  0  2  0  0  0  0  0  0  0  0  0
  147.3993  133.8566  157.1005 O   0  0  0  0  0  0  0  0  0  0  0  0
  146.1844  133.4008  157.4512 C   0  0  0  0  0  0  0  0  0  0  0  0
  145.6527  132.3599  156.4755 C   0  0  0  0  0  0  0  0  0  0  0  0
  145.5320  133.7554  158.4332 O   0  0  0  0  0  0  0  0  0  0  0  0
  146.1838  134.3749  161.9453 H   0  0  0  0  0  0  0  0  0  0  0  0
  145.3360  135.5898  162.9112 H   0  0  0  0  0  0  0  0  0  0  0  0
  147.0165  135.1785  163.2813 H   0  0  0  0  0  0  0  0  0  0  0  0
  146.7122  137.8120  159.1473 H   0  0  0  0  0  0  0  0  0  0  0  0
  148.2891  137.1427  159.5394 H   0  0  0  0  0  0  0  0  0  0  0  0
  146.2614  135.9826  157.5866 H   0  0  0  0  0  0  0  0  0  0  0  0
  148.6449  135.8781  155.3880 H   0  0  0  0  0  0  0  0  0  0  0  0
  148.8913  139.0096  156.5964 H   0  0  0  0  0  0  0  0  0  0  0  0
  150.0579  135.6043  158.0673 H   0  0  0  0  0  0  0  0  0  0  0  0
  151.7918  132.4388  155.7318 H   0  0  0  0  0  0  0  0  0  0  0  0
  150.2726  131.5332  155.6598 H   0  0  0  0  0  0  0  0  0  0  0  0
  151.4622  131.1687  156.9184 H   0  0  0  0  0  0  0  0  0  0  0  0
  148.2121  134.4300  158.9216 H   0  0  0  0  0  0  0  0  0  0  0  0
  146.3976  131.5816  156.3079 H   0  0  0  0  0  0  0  0  0  0  0  0
  145.4162  132.8259  155.5188 H   0  0  0  0  0  0  0  0  0  0  0  0
  144.7482  131.8937  156.8666 H   0  0  0  0  0  0  0  0  0  0  0  0
  1  2  1  0  0  0  0
  1 28  1  0  0  0  0
  1 29  1  0  0  0  0
  1 30  1  0  0  0  0
  2  3  2  0  0  0  0
  2  4  1  0  0  0  0
  4  5  1  0  0  0  0
  5  6  1  0  0  0  0
  5 31  1  0  0  0  0
  5 32  1  0  0  0  0
  6 23  1  0  0  0  0
  6  7  1  0  0  0  0
  6 33  1  0  0  0  0
  7  8  1  0  0  0  0
  8  9  1  0  0  0  0
  8 18  1  0  0  0  0
  8 34  1  0  0  0  0
  9 16  1  0  0  0  0
  9 10  1  0  0  0  0
 10 11  2  0  0  0  0
 10 35  1  0  0  0  0
 11 12  1  0  0  0  0
 11 13  1  0  0  0  0
 13 14  2  0  0  0  0
 13 15  1  0  0  0  0
 15 16  1  0  0  0  0
 16 17  2  0  0  0  0
 18 19  1  0  0  0  0
 18 23  1  0  0  0  0
 18 36  1  0  0  0  0
 19 20  1  0  0  0  0
 20 21  1  0  0  0  0
 20 22  2  0  0  0  0
 21 37  1  0  0  0  0
 21 38  1  0  0  0  0
 21 39  1  0  0  0  0
 23 24  1  0  0  0  0
 23 40  1  0  0  0  0
 24 25  1  0  0  0  0
 25 26  1  0  0  0  0
 25 27  2  0  0  0  0
 26 41  1  0  0  0  0
 26 42  1  0  0  0  0
 26 43  1  0  0  0  0
M  CHG  1  15  -1
M  END
> <s_m_source_file>
AV-unprocessed.smi

> <i_m_source_file_index>
102

> <i_lp_mmshare_version>
43012

> <i_f3d_flags>
0

> <s_epik_input>
W0NIM11DKD1PKU9bQ0gyXVtDQEBIXTFPW0NASF0oW0NAQEhdKE9DKD1PKVtDSDNdKVtDQEhdMU9DKD1PKVtDSDNdKW4yW2NIXWMoRiljKD1PKVtuSF1jMj1P

> <s_epik_cmdline>
J2VwaWtfcHl0aG9uJywgJy1waCcsICc3LjAnLCAnLXRuJywgJzgnLCAnLW1hJywgJzIwMCcsICctbWV0YWxfYmluZGluZycsICctaW1hZScsICc8aW5maWxlLm1hZT4nLCAnLW9tYWUnLCAnPG91dGZpbGUubWFlPic=

> <r_epik_Ionization_Penalty>
1.40304

> <r_epik_Ionization_Penalty_Charging>
1.43915e-08

> <r_epik_Ionization_Penalty_Neutral>
1.40304

> <r_epik_State_Penalty>
1.48536

> <r_epik_Charging_Adjusted_Penalty>
1.48536

> <i_epik_Tot_Q>
-1

> <i_epik_Tot_abs_Q>
1

> <r_epik_Metal_State_Penalty>
0.00663881

> <b_epik_Metal_Only>
0

> <s_epik_Chemistry_Notes>
This compound has an ester and may undergo hydrolysis at high or low pH. This compound contains an acetal/aminal-like group ( X-CH(R)-Y where X, Y are N, S, or O) that may be acid/base labile, releasing an aldehyde.

> <s_lp_Force_Field>
OPLS_2005

> <r_lp_Energy>
27.5776

> <b_lp_Chiralities_Consistent>
1

> <s_lp_Variant>
AV-unprocessed.smi:102-30

> <Gold.Version>
5.8.1

> <Gold.Id.Protein>
6NUR|6NUR_protein|mol2

> <Gold.PLP.Fitness>
42.8700

> <Gold.PLP.PLP>
-30.5451

> <Gold.PLP.part.hbond>
-5.4134

> <Gold.PLP.part.metal>
0.0000

> <Gold.PLP.part.buried>
-4.7624

> <Gold.PLP.part.nonpolar>
-21.5981

> <Gold.PLP.part.repulsive>
0.2811

> <Gold.PLP.ligand.clash>
0.0000

> <Gold.PLP.ligand.torsion>
0.2337

> <Gold.PLP.Chemscore.Hbond>
4.1857

> <Gold.PLP.Chemscore.CHOScore>
0.0000

> <Gold.PLP.Chemscore.Metal>
0.0000

> <Gold.Chemscore.Hbonds>
donor molecule, donor type, donor heavy atom, donor atom, acceptor molecule, acceptor atom, score
      P1  H  6896  6907       L1    22  0.81
      P1  H  6931  6943       L1     3  0.70
      P1  H  6934  6947       L1     3  0.70
      P1  H  7989  7998       L1    14  0.20
      P1  H  7997  8010       L1    14  1.00
      P1  H 10752 10765       L1    17  0.72

> <Gold.PLP.Chemscore.Internal.Correction>
0.2350

> <Gold.Rescore>
     Score         DG    S(hbond)    S(metal)    S(lipo)     H(rot)  DE(clash)    DE(int)     intcor
      5.61      -9.27       2.99        0.00      34.50       4.00       0.16       3.50       ----

> <Gold.Chemscore.Fitness>
5.6082

> <Gold.Chemscore.DG>
-9.2713

> <Gold.Chemscore.ZeroCoef>
-5.4800

> <Gold.Chemscore.Hbond>
2.9886

> <Gold.Chemscore.Metal>
0.0000

> <Gold.Chemscore.Lipo>
34.5023

> <Gold.Chemscore.Internal_Hbond>
0.0000

> <Gold.Chemscore.DEClash>
0.1612

> <Gold.Chemscore.DEInternal>
3.5020

> <Gold.Chemscore.Rot>
3.9951

> <Gold.Chemscore.Internal.Correction>
   9.000000E+99

> <Gold.Chemscore.Hbonds>
donor molecule, donor type, donor heavy atom, donor atom, acceptor molecule, acceptor atom, score
      P1  H  6896  6907       L1    22  0.52
      P1  H  6931  6943       L1     3  0.68
      P1  H  6934  6947       L1     3  0.69
      P1  H  7989  7998       L1    14  0.02
      P1  H  7997  8010       L1    14  0.90
      P1  H 10752 10765       L1    17  0.32

> <Gold.Chemscore.Hbond.Weighted>
-9.9820

> <Gold.Chemscore.Metal.Weighted>
-0.0000

> <Gold.Chemscore.Lipo.Weighted>
-4.0368

> <Gold.Chemscore.Internal_Hbond.Weighted>
0.0000

> <Gold.Chemscore.DEClash.Weighted>
0.1612

> <Gold.Chemscore.DEInternal.Weighted>
3.5020

> <Gold.Chemscore.Rot.Weighted>
10.2274

> <Gold.Chemscore.Internal.Correction.Weighted>
   9.000000E+99

> <Gold.Protein.RotatedTorsions>
[ 6907 6896 6895 6894 ] final -151.17 input  -60.11 | X-H torsion
[ 7974 7965 7964 7962 ] final   61.71 input  175.53 | X-H torsion
[ 8008 7997 7996 7995 ] final   84.97 input   59.86 | X-H torsion
[ 10167 10162 10161 10158 ] final -121.72 input  -65.29 | X-H torsion
[ 10718 10713 10712 10709 ] final   10.89 input   66.30 | X-H torsion
[ 10763 10752 10751 10750 ] final  158.85 input  -60.55 | X-H torsion
[ 11005 11000 10999 10996 ] final   50.19 input  -57.11 | X-H torsion

> <Gold.Protein.ActiveResidues>
 VAL166  LYS551  ARG553  GLY616  TRP617  ASP618  TYR619  PRO620  LYS621  CYS622 
 ASP623  PHE694  ASN695  SER759  ASP760  ASP761  ALA762  ILE779  LEU786  VAL792 
 PHE793  MET794  SER795  GLU796  ALA797  LYS798  CYS799  TRP800  GLU811  SER814 

> <Gold.Protein.RotatedAtoms>
  151.2092  133.4566  159.2597 H   0  0  0  0  0  0  0  0  0  0  0  0  # atno 6907 bound_to 6896
  151.0993  134.9963  159.8451 H   0  0  0  0  0  0  0  0  0  0  0  0  # atno 6908 bound_to 6896
  152.5442  134.2019  159.8768 H   0  0  0  0  0  0  0  0  0  0  0  0  # atno 6909 bound_to 6896
  145.8817  139.3448  143.0702 H   0  0  0  0  0  0  0  0  0  0  0  0  # atno 7974 bound_to 7965
  155.9440  140.3406  155.6351 H   0  0  0  0  0  0  0  0  0  0  0  0  # atno 8008 bound_to 7997
  155.7004  140.0759  157.2431 H   0  0  0  0  0  0  0  0  0  0  0  0  # atno 8009 bound_to 7997
  154.4108  140.1641  156.2172 H   0  0  0  0  0  0  0  0  0  0  0  0  # atno 8010 bound_to 7997
  140.0220  143.5335  152.2216 H   0  0  0  0  0  0  0  0  0  0  0  0  # atno 10167 bound_to 10162
  156.9876  130.6030  149.5682 H   0  0  0  0  0  0  0  0  0  0  0  0  # atno 10718 bound_to 10713
  154.2226  135.2781  155.2919 H   0  0  0  0  0  0  0  0  0  0  0  0  # atno 10763 bound_to 10752
  154.5689  135.5624  153.7080 H   0  0  0  0  0  0  0  0  0  0  0  0  # atno 10764 bound_to 10752
  153.0038  135.6316  154.2366 H   0  0  0  0  0  0  0  0  0  0  0  0  # atno 10765 bound_to 10752
  140.1038  134.5045  155.8738 H   0  0  0  0  0  0  0  0  0  0  0  0  # atno 11005 bound_to 11000
  145.9016  140.9239  143.0500 LP  0  0  0  0  0  0  0  0  0  0  0  0  # atno 17320 bound_to 7965
  144.6727  140.1040  143.7459 LP  0  0  0  0  0  0  0  0  0  0  0  0  # atno 17321 bound_to 7965
  139.6133  144.7614  151.2902 LP  0  0  0  0  0  0  0  0  0  0  0  0  # atno 17342 bound_to 10162
  140.7338  143.6783  150.8023 LP  0  0  0  0  0  0  0  0  0  0  0  0  # atno 17343 bound_to 10162
  156.0220  130.5314  150.8301 LP  0  0  0  0  0  0  0  0  0  0  0  0  # atno 17370 bound_to 10713
  157.5482  131.0943  150.9733 LP  0  0  0  0  0  0  0  0  0  0  0  0  # atno 17371 bound_to 10713
  141.2113  133.6705  156.6571 LP  0  0  0  0  0  0  0  0  0  0  0  0  # atno 17394 bound_to 11000
  140.3183  134.8029  157.4232 LP  0  0  0  0  0  0  0  0  0  0  0  0  # atno 17395 bound_to 11000

$$$$
