AV-unprocessed.smi:1605|AV-procd|sdf|6460|dock1
  -GOLD-   22720 7113D 1   1.00000     0.00000
 Structure written by MMmdl.
 50 52  0  0  0  0  0  0  0  0  1 V2000
  144.4413  145.6285  155.9732 C   0  0  0  0  0  0  0  0  0  0  0  0
  143.6530  144.5749  155.4427 O   0  0  0  0  0  0  0  0  0  0  0  0
  144.4057  143.5035  154.8879 C   0  0  0  0  0  0  0  0  0  0  0  0
  145.3477  142.8717  155.9320 C   0  0  0  0  0  0  0  0  0  0  0  0
  146.3035  141.8657  155.2665 C   0  0  0  0  0  0  0  0  0  0  0  0
  147.0985  142.4673  154.1936 N   0  0  0  0  0  0  0  0  0  0  0  0
  148.0601  141.5078  153.6433 C   0  0  0  0  0  0  0  0  0  0  0  0
  149.0163  140.8559  154.6669 C   0  0  1  0  0  0  0  0  0  0  0  0
  149.6844  139.8066  153.9929 O   0  0  0  0  0  0  0  0  0  0  0  0
  150.0670  141.7982  155.2919 C   0  0  0  0  0  0  0  0  0  0  0  0
  150.7010  141.2303  156.4690 N   0  0  0  0  0  0  0  0  0  0  0  0
  150.9992  139.9360  156.6936 C   0  0  0  0  0  0  0  0  0  0  0  0
  151.5898  139.6391  157.8478 N   0  0  0  0  0  0  0  0  0  0  0  0
  151.6877  140.8869  158.4400 C   0  0  0  0  0  0  0  0  0  0  0  0
  152.2258  141.2706  159.6880 C   0  0  0  0  0  0  0  0  0  0  0  0
  152.2223  142.6244  160.0936 C   0  0  0  0  0  0  0  0  0  0  0  0
  152.8143  142.9926  161.4427 C   0  0  0  0  0  0  0  0  0  0  0  0
  151.6747  143.6193  159.2442 C   0  0  0  0  0  0  0  0  0  0  0  0
  151.6609  145.0805  159.6573 C   0  0  0  0  0  0  0  0  0  0  0  0
  151.1325  143.2531  157.9946 C   0  0  0  0  0  0  0  0  0  0  0  0
  151.1418  141.9030  157.6027 C   0  0  0  0  0  0  0  0  0  0  0  0
  146.1865  142.9895  153.1700 C   0  0  0  0  0  0  0  0  0  0  0  0
  145.2392  144.0653  153.7252 C   0  0  0  0  0  0  0  0  0  0  0  0
  143.7878  146.3866  156.4045 H   0  0  0  0  0  0  0  0  0  0  0  0
  145.0449  146.1112  155.2047 H   0  0  0  0  0  0  0  0  0  0  0  0
  145.1011  145.2685  156.7636 H   0  0  0  0  0  0  0  0  0  0  0  0
  143.7321  142.7422  154.4899 H   0  0  0  0  0  0  0  0  0  0  0  0
  145.9286  143.6529  156.4244 H   0  0  0  0  0  0  0  0  0  0  0  0
  144.7779  142.3680  156.7124 H   0  0  0  0  0  0  0  0  0  0  0  0
  146.9665  141.4635  156.0336 H   0  0  0  0  0  0  0  0  0  0  0  0
  145.7338  141.0202  154.8775 H   0  0  0  0  0  0  0  0  0  0  0  0
  147.5049  140.6867  153.1861 H   0  0  0  0  0  0  0  0  0  0  0  0
  148.6219  141.9598  152.8244 H   0  0  0  0  0  0  0  0  0  0  0  0
  148.4246  140.4003  155.4620 H   0  0  0  0  0  0  0  0  0  0  0  0
  149.7253  140.0183  153.0731 H   0  0  0  0  0  0  0  0  0  0  0  0
  150.8392  142.0523  154.5644 H   0  0  0  0  0  0  0  0  0  0  0  0
  149.5996  142.7300  155.6063 H   0  0  0  0  0  0  0  0  0  0  0  0
  150.7687  139.1684  155.9694 H   0  0  0  0  0  0  0  0  0  0  0  0
  152.6447  140.5128  160.3334 H   0  0  0  0  0  0  0  0  0  0  0  0
  153.6899  143.6291  161.3122 H   0  0  0  0  0  0  0  0  0  0  0  0
  153.1240  142.1059  161.9967 H   0  0  0  0  0  0  0  0  0  0  0  0
  152.0837  143.5269  162.0505 H   0  0  0  0  0  0  0  0  0  0  0  0
  151.2550  145.7130  158.8671 H   0  0  0  0  0  0  0  0  0  0  0  0
  152.6715  145.4264  159.8763 H   0  0  0  0  0  0  0  0  0  0  0  0
  151.0458  145.2191  160.5469 H   0  0  0  0  0  0  0  0  0  0  0  0
  150.7109  143.9995  157.3374 H   0  0  0  0  0  0  0  0  0  0  0  0
  146.7369  143.4154  152.3365 H   0  0  0  0  0  0  0  0  0  0  0  0
  145.5972  142.1727  152.7501 H   0  0  0  0  0  0  0  0  0  0  0  0
  144.5818  144.4291  152.9352 H   0  0  0  0  0  0  0  0  0  0  0  0
  145.8227  144.9223  154.0650 H   0  0  0  0  0  0  0  0  0  0  0  0
  1  2  1  0  0  0  0
  1 24  1  0  0  0  0
  1 25  1  0  0  0  0
  1 26  1  0  0  0  0
  2  3  1  0  0  0  0
  3 23  1  0  0  0  0
  3  4  1  0  0  0  0
  3 27  1  0  0  0  0
  4  5  1  0  0  0  0
  4 28  1  0  0  0  0
  4 29  1  0  0  0  0
  5  6  1  0  0  0  0
  5 30  1  0  0  0  0
  5 31  1  0  0  0  0
  6  7  1  0  0  0  0
  6 22  1  0  0  0  0
  7  8  1  0  0  0  0
  7 32  1  0  0  0  0
  7 33  1  0  0  0  0
  8  9  1  0  0  0  0
  8 10  1  0  0  0  0
  8 34  1  0  0  0  0
  9 35  1  0  0  0  0
 10 11  1  0  0  0  0
 10 36  1  0  0  0  0
 10 37  1  0  0  0  0
 11 21  1  0  0  0  0
 11 12  1  0  0  0  0
 12 13  2  0  0  0  0
 12 38  1  0  0  0  0
 13 14  1  0  0  0  0
 14 21  2  0  0  0  0
 14 15  1  0  0  0  0
 15 16  2  0  0  0  0
 15 39  1  0  0  0  0
 16 17  1  0  0  0  0
 16 18  1  0  0  0  0
 17 40  1  0  0  0  0
 17 41  1  0  0  0  0
 17 42  1  0  0  0  0
 18 19  1  0  0  0  0
 18 20  2  0  0  0  0
 19 43  1  0  0  0  0
 19 44  1  0  0  0  0
 19 45  1  0  0  0  0
 20 21  1  0  0  0  0
 20 46  1  0  0  0  0
 22 23  1  0  0  0  0
 22 47  1  0  0  0  0
 22 48  1  0  0  0  0
 23 49  1  0  0  0  0
 23 50  1  0  0  0  0
M  END
> <s_m_source_file>
AV-unprocessed.smi

> <i_m_source_file_index>
1605

> <i_lp_mmshare_version>
43012

> <i_f3d_flags>
0

> <s_epik_input>
W0NIM11PW0NIXTFbQ0gyXVtDSDJdTihbQ0gyXVtDSDJdMSlbQ0gyXVtDQEhdKFtPSF0pW0NIMl1uKFtjSF1uMiljKGMyMylbY0hdYyhbQ0gzXSljKFtjSF0zKVtDSDNd

> <s_epik_cmdline>
J2VwaWtfcHl0aG9uJywgJy1waCcsICc3LjAnLCAnLXRuJywgJzgnLCAnLW1hJywgJzIwMCcsICctbWV0YWxfYmluZGluZycsICctaW1hZScsICc8aW5maWxlLm1hZT4nLCAnLW9tYWUnLCAnPG91dGZpbGUubWFlPic=

> <r_epik_Ionization_Penalty>
2.02119

> <r_epik_Ionization_Penalty_Charging>
0

> <r_epik_Ionization_Penalty_Neutral>
2.02119

> <r_epik_State_Penalty>
2.11303

> <r_epik_Charging_Adjusted_Penalty>
2.11303

> <i_epik_Tot_Q>
0

> <i_epik_Tot_abs_Q>
0

> <r_epik_Metal_State_Penalty>
2.04251

> <b_epik_Metal_Only>
0

> <s_lp_Force_Field>
OPLS_2005

> <r_lp_Energy>
33.5926

> <b_lp_Chiralities_Consistent>
1

> <s_lp_Variant>
AV-unprocessed.smi:1605-10

> <Gold.Version>
5.8.1

> <Gold.Id.Protein>
6NUR|6NUR_protein|mol2

> <Gold.PLP.Fitness>
51.8418

> <Gold.PLP.PLP>
-49.6508

> <Gold.PLP.part.hbond>
-1.9426

> <Gold.PLP.part.metal>
0.0000

> <Gold.PLP.part.buried>
-6.6383

> <Gold.PLP.part.nonpolar>
-40.9105

> <Gold.PLP.part.repulsive>
0.1979

> <Gold.PLP.ligand.clash>
0.0000

> <Gold.PLP.ligand.torsion>
0.5152

> <Gold.PLP.Chemscore.Hbond>
1.0000

> <Gold.PLP.Chemscore.CHOScore>
0.0000

> <Gold.PLP.Chemscore.Metal>
0.0000

> <Gold.Chemscore.Hbonds>
donor molecule, donor type, donor heavy atom, donor atom, acceptor molecule, acceptor atom, score
      L1  H     9    35       P1  7957  1.00

> <Gold.PLP.Chemscore.Internal.Correction>
0.2213

> <Gold.Rescore>
     Score         DG    S(hbond)    S(metal)    S(lipo)     H(rot)  DE(clash)    DE(int)     intcor
     17.63     -18.39       1.00        0.00     128.81       2.14       0.10       0.65       ----

> <Gold.Chemscore.Fitness>
17.6321

> <Gold.Chemscore.DG>
-18.3878

> <Gold.Chemscore.ZeroCoef>
-5.4800

> <Gold.Chemscore.Hbond>
0.9957

> <Gold.Chemscore.Metal>
0.0000

> <Gold.Chemscore.Lipo>
128.8069

> <Gold.Chemscore.Internal_Hbond>
0.0000

> <Gold.Chemscore.DEClash>
0.1017

> <Gold.Chemscore.DEInternal>
0.6540

> <Gold.Chemscore.Rot>
2.1438

> <Gold.Chemscore.Internal.Correction>
   9.000000E+99

> <Gold.Chemscore.Hbonds>
donor molecule, donor type, donor heavy atom, donor atom, acceptor molecule, acceptor atom, score
      L1  H     9    35       P1  7957  1.00

> <Gold.Chemscore.Hbond.Weighted>
-3.3255

> <Gold.Chemscore.Metal.Weighted>
-0.0000

> <Gold.Chemscore.Lipo.Weighted>
-15.0704

> <Gold.Chemscore.Internal_Hbond.Weighted>
0.0000

> <Gold.Chemscore.DEClash.Weighted>
0.1017

> <Gold.Chemscore.DEInternal.Weighted>
0.6540

> <Gold.Chemscore.Rot.Weighted>
5.4881

> <Gold.Chemscore.Internal.Correction.Weighted>
   9.000000E+99

> <Gold.Protein.RotatedTorsions>
[ 6907 6896 6895 6894 ] final -102.82 input  -60.11 | X-H torsion
[ 7974 7965 7964 7962 ] final  177.54 input  175.53 | X-H torsion
[ 8008 7997 7996 7995 ] final  158.43 input   59.86 | X-H torsion
[ 10167 10162 10161 10158 ] final   54.83 input  -65.29 | X-H torsion
[ 10718 10713 10712 10709 ] final -135.85 input   66.30 | X-H torsion
[ 10763 10752 10751 10750 ] final   26.64 input  -60.55 | X-H torsion
[ 11005 11000 10999 10996 ] final -110.58 input  -57.11 | X-H torsion

> <Gold.Protein.ActiveResidues>
 VAL166  LYS551  ARG553  GLY616  TRP617  ASP618  TYR619  PRO620  LYS621  CYS622 
 ASP623  PHE694  ASN695  SER759  ASP760  ASP761  ALA762  ILE779  LEU786  VAL792 
 PHE793  MET794  SER795  GLU796  ALA797  LYS798  CYS799  TRP800  GLU811  SER814 

> <Gold.Protein.RotatedAtoms>
  150.7213  134.0523  159.3802 H   0  0  0  0  0  0  0  0  0  0  0  0  # atno 6907 bound_to 6896
  151.8501  135.0558  160.0467 H   0  0  0  0  0  0  0  0  0  0  0  0  # atno 6908 bound_to 6896
  152.2797  133.5423  159.5526 H   0  0  0  0  0  0  0  0  0  0  0  0  # atno 6909 bound_to 6896
  144.7168  140.0263  143.6439 H   0  0  0  0  0  0  0  0  0  0  0  0  # atno 7974 bound_to 7965
  156.2303  140.1858  156.7260 H   0  0  0  0  0  0  0  0  0  0  0  0  # atno 8008 bound_to 7997
  154.6011  140.0636  156.9397 H   0  0  0  0  0  0  0  0  0  0  0  0  # atno 8009 bound_to 7997
  155.2173  140.3304  155.4323 H   0  0  0  0  0  0  0  0  0  0  0  0  # atno 8010 bound_to 7997
  140.2259  144.3739  150.6433 H   0  0  0  0  0  0  0  0  0  0  0  0  # atno 10167 bound_to 10162
  156.2706  130.7263  151.1229 H   0  0  0  0  0  0  0  0  0  0  0  0  # atno 10718 bound_to 10713
  153.0609  135.6555  154.0466 H   0  0  0  0  0  0  0  0  0  0  0  0  # atno 10763 bound_to 10752
  154.0134  135.2926  155.3391 H   0  0  0  0  0  0  0  0  0  0  0  0  # atno 10764 bound_to 10752
  154.6946  135.5269  153.8508 H   0  0  0  0  0  0  0  0  0  0  0  0  # atno 10765 bound_to 10752
  141.0784  133.9262  157.2342 H   0  0  0  0  0  0  0  0  0  0  0  0  # atno 11005 bound_to 11000
  146.0139  139.3193  143.0853 LP  0  0  0  0  0  0  0  0  0  0  0  0  # atno 17320 bound_to 7965
  145.8648  140.9454  143.0681 LP  0  0  0  0  0  0  0  0  0  0  0  0  # atno 17321 bound_to 7965
  140.6221  143.2177  151.6673 LP  0  0  0  0  0  0  0  0  0  0  0  0  # atno 17342 bound_to 10162
  139.5127  144.3466  152.0691 LP  0  0  0  0  0  0  0  0  0  0  0  0  # atno 17343 bound_to 10162
  157.7282  131.0633  150.5828 LP  0  0  0  0  0  0  0  0  0  0  0  0  # atno 17370 bound_to 10713
  156.5924  130.4333  149.5931 LP  0  0  0  0  0  0  0  0  0  0  0  0  # atno 17371 bound_to 10713
  139.9596  135.0157  156.9225 LP  0  0  0  0  0  0  0  0  0  0  0  0  # atno 17394 bound_to 11000
  140.5523  134.0615  155.7373 LP  0  0  0  0  0  0  0  0  0  0  0  0  # atno 17395 bound_to 11000

$$$$
