AV-unprocessed.smi:2124|AV-procd|sdf|8653|dock3
  -GOLD-   2272011403D 1   1.00000     0.00000
 Structure written by MMmdl.
 47 49  0  0  0  0  0  0  0  0  1 V2000
  147.4479  139.2215  152.8119 C   0  0  0  0  0  0  0  0  0  0  0  0
  148.6571  139.4299  153.6991 C   0  0  0  0  0  0  0  0  0  0  0  0
  148.8337  140.4704  154.4451 N   0  0  0  0  0  0  0  0  0  0  0  0
  149.9974  140.5520  155.2228 C   0  0  0  0  0  0  0  0  0  0  0  0
  150.1380  141.8083  156.0653 C   0  0  0  0  0  0  0  0  0  0  0  0
  150.9359  139.5606  155.2125 C   0  0  0  0  0  0  0  0  0  0  0  0
  152.2168  139.6207  156.0440 C   0  0  0  0  0  0  0  0  0  0  0  0
  152.0353  139.6990  157.5621 C   0  0  0  0  0  0  0  0  0  0  0  0
  151.5564  138.7508  158.1848 O   0  0  0  0  0  0  0  0  0  0  0  0
  152.4348  140.8449  158.1388 N   0  0  0  0  0  0  0  0  0  0  0  0
  152.4110  141.1819  159.5653 C   0  0  1  0  0  0  0  0  0  0  0  0
  153.5687  140.4838  160.3069 C   0  0  0  0  0  0  0  0  0  0  0  0
  152.3586  142.7164  159.8043 C   0  0  1  0  0  0  0  0  0  0  0  0
  153.5182  143.4977  159.1352 C   0  0  0  0  0  0  0  0  0  0  0  0
  152.7922  144.5743  158.3100 C   0  0  2  0  0  0  0  0  0  0  0  0
  152.1433  145.6003  159.2564 C   0  0  0  0  0  0  0  0  0  0  0  0
  150.9634  144.8101  159.8523 C   0  0  0  0  0  0  0  0  0  0  0  0
  151.1186  143.4226  159.2001 C   0  0  1  0  0  0  0  0  0  0  0  0
  151.5845  143.8017  157.7979 C   0  0  0  0  0  0  0  0  0  0  0  0
  150.7244  138.3777  154.3564 C   0  0  0  0  0  0  0  0  0  0  0  0
  151.5074  137.4333  154.2656 O   0  0  0  0  0  0  0  0  0  0  0  0
  149.5783  138.3855  153.6397 N   0  0  0  0  0  0  0  0  0  0  0  0
  149.3888  137.5991  153.0357 H   0  0  0  0  0  0  0  0  0  0  0  0
  147.3691  140.0329  152.0882 H   0  0  0  0  0  0  0  0  0  0  0  0
  146.5387  139.2083  153.4132 H   0  0  0  0  0  0  0  0  0  0  0  0
  147.5080  138.2802  152.2635 H   0  0  0  0  0  0  0  0  0  0  0  0
  150.1072  141.5614  157.1267 H   0  0  0  0  0  0  0  0  0  0  0  0
  149.3313  142.5134  155.8622 H   0  0  0  0  0  0  0  0  0  0  0  0
  151.0808  142.3126  155.8530 H   0  0  0  0  0  0  0  0  0  0  0  0
  152.8153  138.7366  155.8234 H   0  0  0  0  0  0  0  0  0  0  0  0
  152.8354  140.4609  155.7265 H   0  0  0  0  0  0  0  0  0  0  0  0
  152.8080  141.5563  157.5270 H   0  0  0  0  0  0  0  0  0  0  0  0
  151.4833  140.7493  159.9406 H   0  0  0  0  0  0  0  0  0  0  0  0
  153.4547  140.5547  161.3877 H   0  0  0  0  0  0  0  0  0  0  0  0
  154.5348  140.9192  160.0510 H   0  0  0  0  0  0  0  0  0  0  0  0
  153.6074  139.4223  160.0605 H   0  0  0  0  0  0  0  0  0  0  0  0
  152.3766  142.8953  160.8800 H   0  0  0  0  0  0  0  0  0  0  0  0
  154.2037  143.9261  159.8674 H   0  0  0  0  0  0  0  0  0  0  0  0
  154.1035  142.8603  158.4712 H   0  0  0  0  0  0  0  0  0  0  0  0
  153.4141  145.0241  157.5354 H   0  0  0  0  0  0  0  0  0  0  0  0
  152.8373  145.9531  160.0203 H   0  0  0  0  0  0  0  0  0  0  0  0
  151.7825  146.4683  158.7034 H   0  0  0  0  0  0  0  0  0  0  0  0
  150.9951  144.7684  160.9416 H   0  0  0  0  0  0  0  0  0  0  0  0
  150.0153  145.2665  159.5652 H   0  0  0  0  0  0  0  0  0  0  0  0
  150.1995  142.8390  159.2315 H   0  0  0  0  0  0  0  0  0  0  0  0
  150.8691  144.4251  157.2582 H   0  0  0  0  0  0  0  0  0  0  0  0
  151.8483  142.9444  157.1768 H   0  0  0  0  0  0  0  0  0  0  0  0
  1  2  1  0  0  0  0
  1 24  1  0  0  0  0
  1 25  1  0  0  0  0
  1 26  1  0  0  0  0
  2 22  1  0  0  0  0
  2  3  2  0  0  0  0
  3  4  1  0  0  0  0
  4  5  1  0  0  0  0
  4  6  2  0  0  0  0
  5 27  1  0  0  0  0
  5 28  1  0  0  0  0
  5 29  1  0  0  0  0
  6  7  1  0  0  0  0
  6 20  1  0  0  0  0
  7  8  1  0  0  0  0
  7 30  1  0  0  0  0
  7 31  1  0  0  0  0
  8  9  2  0  0  0  0
  8 10  1  0  0  0  0
 10 11  1  0  0  0  0
 10 32  1  0  0  0  0
 11 12  1  0  0  0  0
 11 13  1  0  0  0  0
 11 33  1  0  0  0  0
 12 34  1  0  0  0  0
 12 35  1  0  0  0  0
 12 36  1  0  0  0  0
 13 18  1  0  0  0  0
 13 14  1  0  0  0  0
 13 37  1  0  0  0  0
 14 15  1  0  0  0  0
 14 38  1  0  0  0  0
 14 39  1  0  0  0  0
 15 19  1  0  0  0  0
 15 16  1  0  0  0  0
 15 40  1  0  0  0  0
 16 17  1  0  0  0  0
 16 41  1  0  0  0  0
 16 42  1  0  0  0  0
 17 18  1  0  0  0  0
 17 43  1  0  0  0  0
 17 44  1  0  0  0  0
 18 19  1  0  0  0  0
 18 45  1  0  0  0  0
 19 46  1  0  0  0  0
 19 47  1  0  0  0  0
 20 21  2  0  0  0  0
 20 22  1  0  0  0  0
 22 23  1  0  0  0  0
M  END
> <s_m_source_file>
AV-unprocessed.smi

> <i_m_source_file_index>
2124

> <i_lp_mmshare_version>
43012

> <i_f3d_flags>
0

> <s_epik_input>
W0NIM11jMW5jKFtDSDNdKWMoYyg9TylbbkhdMSlbQ0gyXUMoPU8pW05IXVtDQEhdKFtDSDNdKVtDQEhdKFtDSDJdW0NASF0yMylbQ0BIXShbQ0gyXTMpW0NIMl1bQ0gyXTI=

> <s_epik_cmdline>
J2VwaWtfcHl0aG9uJywgJy1waCcsICc3LjAnLCAnLXRuJywgJzgnLCAnLW1hJywgJzIwMCcsICctbWV0YWxfYmluZGluZycsICctaW1hZScsICc8aW5maWxlLm1hZT4nLCAnLW9tYWUnLCAnPG91dGZpbGUubWFlPic=

> <r_lp_tautomer_probability>
0.839158

> <r_epik_Ionization_Penalty>
0.000383628

> <r_epik_Ionization_Penalty_Charging>
0.00035045

> <r_epik_Ionization_Penalty_Neutral>
3.31781e-05

> <r_epik_State_Penalty>
0.09125

> <r_epik_Charging_Adjusted_Penalty>
0.0916005

> <i_epik_Tot_Q>
0

> <i_epik_Tot_abs_Q>
0

> <r_epik_Metal_State_Penalty>
0.255229

> <b_epik_Metal_Only>
0

> <s_lp_Force_Field>
OPLS_2005

> <r_lp_Energy>
52.6925

> <b_lp_Chiralities_Consistent>
1

> <s_lp_Variant>
AV-unprocessed.smi:2124-4

> <Gold.Version>
5.8.1

> <Gold.Id.Protein>
6NUR|6NUR_protein|mol2

> <Gold.PLP.Fitness>
53.5446

> <Gold.PLP.PLP>
-48.9606

> <Gold.PLP.part.hbond>
-2.2705

> <Gold.PLP.part.metal>
0.0000

> <Gold.PLP.part.buried>
-2.0093

> <Gold.PLP.part.nonpolar>
-45.8878

> <Gold.PLP.part.repulsive>
0.4254

> <Gold.PLP.ligand.clash>
0.0000

> <Gold.PLP.ligand.torsion>
0.3625

> <Gold.PLP.Chemscore.Hbond>
1.7475

> <Gold.PLP.Chemscore.CHOScore>
0.0000

> <Gold.PLP.Chemscore.Metal>
0.0000

> <Gold.Chemscore.Hbonds>
donor molecule, donor type, donor heavy atom, donor atom, acceptor molecule, acceptor atom, score
      L1  H    22    23       P1  7948  1.00
      P1  H 10752 10764       L1    21  0.37

> <Gold.PLP.Chemscore.Internal.Correction>
0.0665

> <Gold.Rescore>
     Score         DG    S(hbond)    S(metal)    S(lipo)     H(rot)  DE(clash)    DE(int)     intcor
     20.82     -21.18       1.28        0.00     133.87       1.65       0.03       0.33       ----

> <Gold.Chemscore.Fitness>
20.8226

> <Gold.Chemscore.DG>
-21.1780

> <Gold.Chemscore.ZeroCoef>
-5.4800

> <Gold.Chemscore.Hbond>
1.2778

> <Gold.Chemscore.Metal>
0.0000

> <Gold.Chemscore.Lipo>
133.8703

> <Gold.Chemscore.Internal_Hbond>
0.0000

> <Gold.Chemscore.DEClash>
0.0295

> <Gold.Chemscore.DEInternal>
0.3259

> <Gold.Chemscore.Rot>
1.6534

> <Gold.Chemscore.Internal.Correction>
   9.000000E+99

> <Gold.Chemscore.Hbonds>
donor molecule, donor type, donor heavy atom, donor atom, acceptor molecule, acceptor atom, score
      L1  H    22    23       P1  7948  0.93
      P1  H 10752 10764       L1    21  0.36

> <Gold.Chemscore.Hbond.Weighted>
-4.2677

> <Gold.Chemscore.Metal.Weighted>
-0.0000

> <Gold.Chemscore.Lipo.Weighted>
-15.6628

> <Gold.Chemscore.Internal_Hbond.Weighted>
0.0000

> <Gold.Chemscore.DEClash.Weighted>
0.0295

> <Gold.Chemscore.DEInternal.Weighted>
0.3259

> <Gold.Chemscore.Rot.Weighted>
4.2326

> <Gold.Chemscore.Internal.Correction.Weighted>
   9.000000E+99

> <Gold.Protein.RotatedTorsions>
[ 6907 6896 6895 6894 ] final  137.95 input  -60.11 | X-H torsion
[ 7974 7965 7964 7962 ] final  150.21 input  175.53 | X-H torsion
[ 8008 7997 7996 7995 ] final -159.67 input   59.86 | X-H torsion
[ 10167 10162 10161 10158 ] final   46.28 input  -65.29 | X-H torsion
[ 10718 10713 10712 10709 ] final -120.69 input   66.30 | X-H torsion
[ 10763 10752 10751 10750 ] final  -74.03 input  -60.55 | X-H torsion
[ 11005 11000 10999 10996 ] final -167.54 input  -57.11 | X-H torsion

> <Gold.Protein.ActiveResidues>
 VAL166  LYS551  ARG553  GLY616  TRP617  ASP618  TYR619  PRO620  LYS621  CYS622 
 ASP623  PHE694  ASN695  SER759  ASP760  ASP761  ALA762  ILE779  LEU786  VAL792 
 PHE793  MET794  SER795  GLU796  ALA797  LYS798  CYS799  TRP800  GLU811  SER814 

> <Gold.Protein.RotatedAtoms>
  152.2722  133.5393  159.5446 H   0  0  0  0  0  0  0  0  0  0  0  0  # atno 6907 bound_to 6896
  150.7164  134.0681  159.3864 H   0  0  0  0  0  0  0  0  0  0  0  0  # atno 6908 bound_to 6896
  151.8595  135.0529  160.0518 H   0  0  0  0  0  0  0  0  0  0  0  0  # atno 6909 bound_to 6896
  144.8381  139.6379  143.6029 H   0  0  0  0  0  0  0  0  0  0  0  0  # atno 7974 bound_to 7965
  155.7661  140.0845  157.2131 H   0  0  0  0  0  0  0  0  0  0  0  0  # atno 8008 bound_to 7997
  154.3999  140.1534  156.2945 H   0  0  0  0  0  0  0  0  0  0  0  0  # atno 8009 bound_to 7997
  155.8793  140.3421  155.5879 H   0  0  0  0  0  0  0  0  0  0  0  0  # atno 8010 bound_to 7997
  140.3155  144.2768  150.6192 H   0  0  0  0  0  0  0  0  0  0  0  0  # atno 10167 bound_to 10162
  156.1278  130.6372  150.9571 H   0  0  0  0  0  0  0  0  0  0  0  0  # atno 10718 bound_to 10713
  154.4675  135.5878  153.6299 H   0  0  0  0  0  0  0  0  0  0  0  0  # atno 10763 bound_to 10752
  152.9830  135.6059  154.3408 H   0  0  0  0  0  0  0  0  0  0  0  0  # atno 10764 bound_to 10752
  154.3286  135.2843  155.2462 H   0  0  0  0  0  0  0  0  0  0  0  0  # atno 10765 bound_to 10752
  140.5521  134.5418  157.5125 H   0  0  0  0  0  0  0  0  0  0  0  0  # atno 11005 bound_to 11000
  146.2677  139.6560  142.9318 LP  0  0  0  0  0  0  0  0  0  0  0  0  # atno 17320 bound_to 7965
  145.4751  141.0437  143.2677 LP  0  0  0  0  0  0  0  0  0  0  0  0  # atno 17321 bound_to 7965
  140.5530  143.2203  151.7895 LP  0  0  0  0  0  0  0  0  0  0  0  0  # atno 17342 bound_to 10162
  139.4885  144.4451  151.9719 LP  0  0  0  0  0  0  0  0  0  0  0  0  # atno 17343 bound_to 10162
  157.6458  131.0904  150.8156 LP  0  0  0  0  0  0  0  0  0  0  0  0  # atno 17370 bound_to 10713
  156.8244  130.4995  149.5339 LP  0  0  0  0  0  0  0  0  0  0  0  0  # atno 17371 bound_to 10713
  139.9450  134.7719  156.0585 LP  0  0  0  0  0  0  0  0  0  0  0  0  # atno 17394 bound_to 11000
  141.1165  133.6626  156.3107 LP  0  0  0  0  0  0  0  0  0  0  0  0  # atno 17395 bound_to 11000

$$$$
