AV-unprocessed.smi:3092|AV-procd|sdf|11784|dock7
  -GOLD-   2272017163D 1   1.00000     0.00000
 Structure written by MMmdl.
 26 27  0  0  0  0  0  0  0  0  3 V2000
  153.1508  142.5826  160.0471 C   0  0  0  0  0  0  0  0  0  0  0  0
  152.2273  143.5174  159.4007 N   0  0  0  0  0  0  0  0  0  0  0  0
  151.9178  144.7802  159.8373 C   0  0  0  0  0  0  0  0  0  0  0  0
  151.0235  145.2992  158.9392 C   0  0  0  0  0  0  0  0  0  0  0  0
  150.8231  144.3325  157.9922 N   0  3  0  0  0  0  0  0  0  0  0  0
  151.5527  143.2436  158.2696 C   0  0  0  0  0  0  0  0  0  0  0  0
  151.5886  141.9852  157.4467 C   0  0  2  0  0  0  0  0  0  0  0  0
  150.6998  141.9867  156.2053 C   0  0  0  0  0  0  0  0  0  0  0  0
  150.5668  140.4948  155.8660 C   0  0  0  0  0  0  0  0  0  0  0  0
  150.8627  139.7480  157.1085 N   0  3  0  0  0  0  0  0  0  0  0  0
  151.1186  140.7286  158.1790 C   0  0  0  0  0  0  0  0  0  0  0  0
  153.5717  143.0438  160.9411 H   0  0  0  0  0  0  0  0  0  0  0  0
  153.9581  142.3352  159.3568 H   0  0  0  0  0  0  0  0  0  0  0  0
  152.6110  141.6783  160.3295 H   0  0  0  0  0  0  0  0  0  0  0  0
  152.3468  145.2074  160.7327 H   0  0  0  0  0  0  0  0  0  0  0  0
  150.5284  146.2589  158.9037 H   0  0  0  0  0  0  0  0  0  0  0  0
  152.6201  141.8304  157.1296 H   0  0  0  0  0  0  0  0  0  0  0  0
  149.7142  142.3876  156.4464 H   0  0  0  0  0  0  0  0  0  0  0  0
  151.1098  142.5793  155.3868 H   0  0  0  0  0  0  0  0  0  0  0  0
  149.5723  140.2529  155.4899 H   0  0  0  0  0  0  0  0  0  0  0  0
  151.2929  140.2043  155.1060 H   0  0  0  0  0  0  0  0  0  0  0  0
  150.0964  139.1384  157.3580 H   0  0  0  0  0  0  0  0  0  0  0  0
  151.8438  140.3613  158.9056 H   0  0  0  0  0  0  0  0  0  0  0  0
  150.1784  140.9134  158.7009 H   0  0  0  0  0  0  0  0  0  0  0  0
  151.6969  139.1981  156.9585 H   0  0  0  0  0  0  0  0  0  0  0  0
  150.2108  144.4288  157.1918 H   0  0  0  0  0  0  0  0  0  0  0  0
  1  2  1  0  0  0  0
  1 12  1  0  0  0  0
  1 13  1  0  0  0  0
  1 14  1  0  0  0  0
  2  6  1  0  0  0  0
  2  3  1  0  0  0  0
  3  4  2  0  0  0  0
  3 15  1  0  0  0  0
  4  5  1  0  0  0  0
  4 16  1  0  0  0  0
  5  6  2  0  0  0  0
  5 26  1  0  0  0  0
  6  7  1  0  0  0  0
  7 11  1  0  0  0  0
  7  8  1  0  0  0  0
  7 17  1  0  0  0  0
  8  9  1  0  0  0  0
  8 18  1  0  0  0  0
  8 19  1  0  0  0  0
  9 10  1  0  0  0  0
  9 20  1  0  0  0  0
  9 21  1  0  0  0  0
 10 11  1  0  0  0  0
 10 22  1  0  0  0  0
 10 25  1  0  0  0  0
 11 23  1  0  0  0  0
 11 24  1  0  0  0  0
M  CHG  1   5   1
M  CHG  1  10   1
M  END
> <s_m_source_file>
AV-unprocessed.smi

> <i_m_source_file_index>
3092

> <i_lp_mmshare_version>
43012

> <i_f3d_flags>
0

> <s_epik_input>
W0NIM11uMVtjSF1bY0hdbmMxW0NAQEhdMltDSDJdW0NIMl1bTkhdW0NIMl0y

> <s_epik_cmdline>
J2VwaWtfcHl0aG9uJywgJy1waCcsICc3LjAnLCAnLXRuJywgJzgnLCAnLW1hJywgJzIwMCcsICctbWV0YWxfYmluZGluZycsICctaW1hZScsICc8aW5maWxlLm1hZT4nLCAnLW9tYWUnLCAnPG91dGZpbGUubWFlPic=

> <r_lp_tautomer_probability>
1

> <r_epik_Ionization_Penalty>
0.803493

> <r_epik_Ionization_Penalty_Charging>
0.000689375

> <r_epik_Ionization_Penalty_Neutral>
0.802804

> <r_epik_State_Penalty>
0.834355

> <r_epik_Charging_Adjusted_Penalty>
0.835044

> <i_epik_Tot_Q>
2

> <i_epik_Tot_abs_Q>
2

> <r_epik_Metal_State_Penalty>
4.76097

> <b_epik_Metal_Only>
0

> <s_lp_Force_Field>
OPLS_2005

> <r_lp_Energy>
35.9538

> <b_lp_Chiralities_Consistent>
1

> <s_lp_Variant>
AV-unprocessed.smi:3092-3

> <Gold.Version>
5.8.1

> <Gold.Id.Protein>
6NUR|6NUR_protein|mol2

> <Gold.PLP.Fitness>
34.8786

> <Gold.PLP.PLP>
-28.8804

> <Gold.PLP.part.hbond>
-1.0000

> <Gold.PLP.part.metal>
0.0000

> <Gold.PLP.part.buried>
-3.9715

> <Gold.PLP.part.nonpolar>
-23.6194

> <Gold.PLP.part.repulsive>
0.0923

> <Gold.PLP.ligand.clash>
0.0000

> <Gold.PLP.ligand.torsion>
0.0021

> <Gold.PLP.Chemscore.Hbond>
2.0000

> <Gold.PLP.Chemscore.CHOScore>
0.0000

> <Gold.PLP.Chemscore.Metal>
0.0000

> <Gold.Chemscore.Hbonds>
donor molecule, donor type, donor heavy atom, donor atom, acceptor molecule, acceptor atom, score
      L1  H     5    26       P1  8028  2.00

> <Gold.PLP.Chemscore.Internal.Correction>
0.0025

> <Gold.Rescore>
     Score         DG    S(hbond)    S(metal)    S(lipo)     H(rot)  DE(clash)    DE(int)     intcor
     13.27     -13.37       0.96        0.00      61.81       1.00       0.10       0.00       ----

> <Gold.Chemscore.Fitness>
13.2688

> <Gold.Chemscore.DG>
-13.3710

> <Gold.Chemscore.ZeroCoef>
-5.4800

> <Gold.Chemscore.Hbond>
0.9639

> <Gold.Chemscore.Metal>
0.0000

> <Gold.Chemscore.Lipo>
61.8073

> <Gold.Chemscore.Internal_Hbond>
0.0000

> <Gold.Chemscore.DEClash>
0.1007

> <Gold.Chemscore.DEInternal>
0.0015

> <Gold.Chemscore.Rot>
1.0000

> <Gold.Chemscore.Internal.Correction>
   9.000000E+99

> <Gold.Chemscore.Hbonds>
donor molecule, donor type, donor heavy atom, donor atom, acceptor molecule, acceptor atom, score
      L1  H     5    26       P1  8028  0.62

> <Gold.Chemscore.Hbond.Weighted>
-3.2195

> <Gold.Chemscore.Metal.Weighted>
-0.0000

> <Gold.Chemscore.Lipo.Weighted>
-7.2314

> <Gold.Chemscore.Internal_Hbond.Weighted>
0.0000

> <Gold.Chemscore.DEClash.Weighted>
0.1007

> <Gold.Chemscore.DEInternal.Weighted>
0.0015

> <Gold.Chemscore.Rot.Weighted>
2.5600

> <Gold.Chemscore.Internal.Correction.Weighted>
   9.000000E+99

> <Gold.Protein.RotatedTorsions>
[ 6907 6896 6895 6894 ] final -167.95 input  -60.11 | X-H torsion
[ 7974 7965 7964 7962 ] final   33.61 input  175.53 | X-H torsion
[ 8008 7997 7996 7995 ] final   33.39 input   59.86 | X-H torsion
[ 10167 10162 10161 10158 ] final -161.27 input  -65.29 | X-H torsion
[ 10718 10713 10712 10709 ] final   88.93 input   66.30 | X-H torsion
[ 10763 10752 10751 10750 ] final  143.24 input  -60.55 | X-H torsion
[ 11005 11000 10999 10996 ] final   28.48 input  -57.11 | X-H torsion

> <Gold.Protein.ActiveResidues>
 VAL166  LYS551  ARG553  GLY616  TRP617  ASP618  TYR619  PRO620  LYS621  CYS622 
 ASP623  PHE694  ASN695  SER759  ASP760  ASP761  ALA762  ILE779  LEU786  VAL792 
 PHE793  MET794  SER795  GLU796  ALA797  LYS798  CYS799  TRP800  GLU811  SER814 

> <Gold.Protein.RotatedAtoms>
  151.4677  133.3577  159.2818 H   0  0  0  0  0  0  0  0  0  0  0  0  # atno 6907 bound_to 6896
  150.8982  134.8394  159.7352 H   0  0  0  0  0  0  0  0  0  0  0  0  # atno 6908 bound_to 6896
  152.4864  134.4594  159.9652 H   0  0  0  0  0  0  0  0  0  0  0  0  # atno 6909 bound_to 6896
  146.1409  139.6375  142.9164 H   0  0  0  0  0  0  0  0  0  0  0  0  # atno 7974 bound_to 7965
  155.1379  140.3263  155.4459 H   0  0  0  0  0  0  0  0  0  0  0  0  # atno 8008 bound_to 7997
  156.2614  140.1999  156.6445 H   0  0  0  0  0  0  0  0  0  0  0  0  # atno 8009 bound_to 7997
  154.6564  140.0552  157.0000 H   0  0  0  0  0  0  0  0  0  0  0  0  # atno 8010 bound_to 7997
  139.6478  144.0141  152.2139 H   0  0  0  0  0  0  0  0  0  0  0  0  # atno 10167 bound_to 10162
  157.6952  131.0313  150.3349 H   0  0  0  0  0  0  0  0  0  0  0  0  # atno 10718 bound_to 10713
  153.9691  135.2952  155.3428 H   0  0  0  0  0  0  0  0  0  0  0  0  # atno 10763 bound_to 10752
  154.7332  135.5058  153.9002 H   0  0  0  0  0  0  0  0  0  0  0  0  # atno 10764 bound_to 10752
  153.0909  135.6707  153.9968 H   0  0  0  0  0  0  0  0  0  0  0  0  # atno 10765 bound_to 10752
  140.3151  134.2605  155.7727 H   0  0  0  0  0  0  0  0  0  0  0  0  # atno 11005 bound_to 11000
  145.5049  141.0437  143.2520 LP  0  0  0  0  0  0  0  0  0  0  0  0  # atno 17320 bound_to 7965
  144.7791  139.6564  143.7162 LP  0  0  0  0  0  0  0  0  0  0  0  0  # atno 17321 bound_to 7965
  139.9847  144.6404  150.7869 LP  0  0  0  0  0  0  0  0  0  0  0  0  # atno 17342 bound_to 10162
  140.7523  143.2987  151.3136 LP  0  0  0  0  0  0  0  0  0  0  0  0  # atno 17343 bound_to 10162
  156.3817  130.3882  149.7096 LP  0  0  0  0  0  0  0  0  0  0  0  0  # atno 17370 bound_to 10713
  156.4476  130.7891  151.2912 LP  0  0  0  0  0  0  0  0  0  0  0  0  # atno 17371 bound_to 10713
  141.2099  133.7734  156.9965 LP  0  0  0  0  0  0  0  0  0  0  0  0  # atno 17394 bound_to 11000
  140.0990  134.9547  157.1894 LP  0  0  0  0  0  0  0  0  0  0  0  0  # atno 17395 bound_to 11000

$$$$
