AV-unprocessed.smi:349|AV-procd|sdf|2396|dock9
  -GOLD-   2262022323D 1   1.00000     0.00000
 Structure written by MMmdl.
 43 44  0  0  0  0  0  0  0  0  1 V2000
  154.1247  136.7810  163.0788 C   0  0  0  0  0  0  0  0  0  0  0  0
  153.6462  137.1664  161.6700 C   0  0  0  0  0  0  0  0  0  0  0  0
  154.4976  138.2578  160.9836 C   0  0  2  0  0  0  0  0  0  0  0  0
  154.7768  139.4241  161.9467 C   0  0  0  0  0  0  0  0  0  0  0  0
  153.8328  138.7789  159.7006 C   0  0  0  0  0  0  0  0  0  0  0  0
  154.4132  138.6833  158.6186 O   0  0  0  0  0  0  0  0  0  0  0  0
  152.6206  139.3384  159.8383 N   0  0  0  0  0  0  0  0  0  0  0  0
  151.8470  139.9297  158.7515 C   0  0  0  0  0  0  0  0  0  0  0  0
  152.0100  141.4459  158.6245 C   0  0  0  0  0  0  0  0  0  0  0  0
  153.0225  142.1084  159.3557 C   0  0  0  0  0  0  0  0  0  0  0  0
  153.1518  143.5046  159.2516 C   0  0  0  0  0  0  0  0  0  0  0  0
  152.2521  144.1955  158.4217 C   0  0  0  0  0  0  0  0  0  0  0  0
  151.2735  143.5832  157.7248 N   0  0  0  0  0  0  0  0  0  0  0  0
  151.1457  142.2367  157.8189 C   0  0  0  0  0  0  0  0  0  0  0  0
  150.1272  141.6360  157.0581 N   0  0  0  0  0  0  0  0  0  0  0  0
  150.3642  141.7252  155.6229 C   0  0  0  0  0  0  0  0  0  0  0  0
  149.3403  140.8606  154.8677 C   0  0  0  0  0  0  0  0  0  0  0  0
  148.0191  141.2546  155.2294 O   0  0  0  0  0  0  0  0  0  0  0  0
  147.7745  141.0971  156.6246 C   0  0  0  0  0  0  0  0  0  0  0  0
  148.7552  141.9743  157.4213 C   0  0  0  0  0  0  0  0  0  0  0  0
  153.4384  136.0693  163.5377 H   0  0  0  0  0  0  0  0  0  0  0  0
  154.1804  137.6545  163.7288 H   0  0  0  0  0  0  0  0  0  0  0  0
  155.1096  136.3142  163.0565 H   0  0  0  0  0  0  0  0  0  0  0  0
  153.6087  136.2726  161.0455 H   0  0  0  0  0  0  0  0  0  0  0  0
  152.6168  137.5186  161.7445 H   0  0  0  0  0  0  0  0  0  0  0  0
  155.4596  137.8168  160.7167 H   0  0  0  0  0  0  0  0  0  0  0  0
  155.3630  140.2075  161.4642 H   0  0  0  0  0  0  0  0  0  0  0  0
  155.3411  139.0848  162.8158 H   0  0  0  0  0  0  0  0  0  0  0  0
  153.8525  139.8754  162.3101 H   0  0  0  0  0  0  0  0  0  0  0  0
  152.2137  139.3729  160.7618 H   0  0  0  0  0  0  0  0  0  0  0  0
  152.0951  139.4097  157.8264 H   0  0  0  0  0  0  0  0  0  0  0  0
  150.7935  139.7222  158.9387 H   0  0  0  0  0  0  0  0  0  0  0  0
  153.6959  141.5579  159.9957 H   0  0  0  0  0  0  0  0  0  0  0  0
  153.9197  144.0325  159.7972 H   0  0  0  0  0  0  0  0  0  0  0  0
  152.3181  145.2683  158.3153 H   0  0  0  0  0  0  0  0  0  0  0  0
  150.2791  142.7662  155.3078 H   0  0  0  0  0  0  0  0  0  0  0  0
  151.3765  141.4007  155.3819 H   0  0  0  0  0  0  0  0  0  0  0  0
  149.4659  140.9823  153.7920 H   0  0  0  0  0  0  0  0  0  0  0  0
  149.4888  139.8023  155.0886 H   0  0  0  0  0  0  0  0  0  0  0  0
  146.7468  141.3890  156.8413 H   0  0  0  0  0  0  0  0  0  0  0  0
  147.8743  140.0473  156.9057 H   0  0  0  0  0  0  0  0  0  0  0  0
  148.6090  141.8266  158.4920 H   0  0  0  0  0  0  0  0  0  0  0  0
  148.5620  143.0265  157.2075 H   0  0  0  0  0  0  0  0  0  0  0  0
  1  2  1  0  0  0  0
  1 21  1  0  0  0  0
  1 22  1  0  0  0  0
  1 23  1  0  0  0  0
  2  3  1  0  0  0  0
  2 24  1  0  0  0  0
  2 25  1  0  0  0  0
  3  4  1  0  0  0  0
  3  5  1  0  0  0  0
  3 26  1  0  0  0  0
  4 27  1  0  0  0  0
  4 28  1  0  0  0  0
  4 29  1  0  0  0  0
  5  6  2  0  0  0  0
  5  7  1  0  0  0  0
  7  8  1  0  0  0  0
  7 30  1  0  0  0  0
  8  9  1  0  0  0  0
  8 31  1  0  0  0  0
  8 32  1  0  0  0  0
  9 14  1  0  0  0  0
  9 10  2  0  0  0  0
 10 11  1  0  0  0  0
 10 33  1  0  0  0  0
 11 12  2  0  0  0  0
 11 34  1  0  0  0  0
 12 13  1  0  0  0  0
 12 35  1  0  0  0  0
 13 14  2  0  0  0  0
 14 15  1  0  0  0  0
 15 20  1  0  0  0  0
 15 16  1  0  0  0  0
 16 17  1  0  0  0  0
 16 36  1  0  0  0  0
 16 37  1  0  0  0  0
 17 18  1  0  0  0  0
 17 38  1  0  0  0  0
 17 39  1  0  0  0  0
 18 19  1  0  0  0  0
 19 20  1  0  0  0  0
 19 40  1  0  0  0  0
 19 41  1  0  0  0  0
 20 42  1  0  0  0  0
 20 43  1  0  0  0  0
M  END
> <s_m_source_file>
AV-unprocessed.smi

> <i_m_source_file_index>
349

> <i_lp_mmshare_version>
43012

> <i_f3d_flags>
0

> <s_epik_input>
W0NIM11bQ0gyXVtDQEhdKFtDSDNdKUMoPU8pW05IXVtDSDJdYzFbY0hdW2NIXVtjSF1uYzFOMltDSDJdW0NIMl1PW0NIMl1bQ0gyXTI=

> <s_epik_cmdline>
J2VwaWtfcHl0aG9uJywgJy1waCcsICc3LjAnLCAnLXRuJywgJzgnLCAnLW1hJywgJzIwMCcsICctbWV0YWxfYmluZGluZycsICctaW1hZScsICc8aW5maWxlLm1hZT4nLCAnLW9tYWUnLCAnPG91dGZpbGUubWFlPic=

> <r_lp_tautomer_probability>
1

> <r_epik_Ionization_Penalty>
0.00513869

> <r_epik_Ionization_Penalty_Charging>
0

> <r_epik_Ionization_Penalty_Neutral>
0.00513869

> <r_epik_State_Penalty>
0.00374265

> <r_epik_Charging_Adjusted_Penalty>
0.00374265

> <i_epik_Tot_Q>
0

> <i_epik_Tot_abs_Q>
0

> <r_epik_Metal_State_Penalty>
-0

> <b_epik_Metal_Only>
0

> <s_lp_Force_Field>
OPLS_2005

> <r_lp_Energy>
18.1158

> <b_lp_Chiralities_Consistent>
1

> <s_lp_Variant>
AV-unprocessed.smi:349-1

> <Gold.Version>
5.8.1

> <Gold.Id.Protein>
6NUR|6NUR_protein|mol2

> <Gold.PLP.Fitness>
38.7105

> <Gold.PLP.PLP>
-36.4675

> <Gold.PLP.part.hbond>
-1.0000

> <Gold.PLP.part.metal>
0.0000

> <Gold.PLP.part.buried>
-4.5283

> <Gold.PLP.part.nonpolar>
-30.9473

> <Gold.PLP.part.repulsive>
0.4166

> <Gold.PLP.ligand.clash>
0.0000

> <Gold.PLP.ligand.torsion>
0.4761

> <Gold.PLP.Chemscore.Hbond>
1.0000

> <Gold.PLP.Chemscore.CHOScore>
0.0000

> <Gold.PLP.Chemscore.Metal>
0.0000

> <Gold.Chemscore.Hbonds>
donor molecule, donor type, donor heavy atom, donor atom, acceptor molecule, acceptor atom, score
      P1  H  7997  8008       L1     6  1.00

> <Gold.PLP.Chemscore.Internal.Correction>
0.1951

> <Gold.Rescore>
     Score         DG    S(hbond)    S(metal)    S(lipo)     H(rot)  DE(clash)    DE(int)     intcor
     15.93     -16.41       0.99        0.00     100.99       1.64       0.01       0.47       ----

> <Gold.Chemscore.Fitness>
15.9349

> <Gold.Chemscore.DG>
-16.4081

> <Gold.Chemscore.ZeroCoef>
-5.4800

> <Gold.Chemscore.Hbond>
0.9916

> <Gold.Chemscore.Metal>
0.0000

> <Gold.Chemscore.Lipo>
100.9936

> <Gold.Chemscore.Internal_Hbond>
0.0000

> <Gold.Chemscore.DEClash>
0.0057

> <Gold.Chemscore.DEInternal>
0.4675

> <Gold.Chemscore.Rot>
1.6407

> <Gold.Chemscore.Internal.Correction>
   9.000000E+99

> <Gold.Chemscore.Hbonds>
donor molecule, donor type, donor heavy atom, donor atom, acceptor molecule, acceptor atom, score
      P1  H  7997  8008       L1     6  0.99

> <Gold.Chemscore.Hbond.Weighted>
-3.3120

> <Gold.Chemscore.Metal.Weighted>
-0.0000

> <Gold.Chemscore.Lipo.Weighted>
-11.8162

> <Gold.Chemscore.Internal_Hbond.Weighted>
0.0000

> <Gold.Chemscore.DEClash.Weighted>
0.0057

> <Gold.Chemscore.DEInternal.Weighted>
0.4675

> <Gold.Chemscore.Rot.Weighted>
4.2001

> <Gold.Chemscore.Internal.Correction.Weighted>
   9.000000E+99

> <Gold.Protein.RotatedTorsions>
[ 6907 6896 6895 6894 ] final  110.82 input  -60.11 | X-H torsion
[ 7974 7965 7964 7962 ] final   81.16 input  175.53 | X-H torsion
[ 8008 7997 7996 7995 ] final -118.03 input   59.86 | X-H torsion
[ 10167 10162 10161 10158 ] final   99.32 input  -65.29 | X-H torsion
[ 10718 10713 10712 10709 ] final -108.85 input   66.30 | X-H torsion
[ 10763 10752 10751 10750 ] final  153.92 input  -60.55 | X-H torsion
[ 11005 11000 10999 10996 ] final  121.38 input  -57.11 | X-H torsion

> <Gold.Protein.ActiveResidues>
 VAL166  LYS551  ARG553  GLY616  TRP617  ASP618  TYR619  PRO620  LYS621  CYS622 
 ASP623  PHE694  ASN695  SER759  ASP760  ASP761  ALA762  ILE779  LEU786  VAL792 
 PHE793  MET794  SER795  GLU796  ALA797  LYS798  CYS799  TRP800  GLU811  SER814 

> <Gold.Protein.RotatedAtoms>
  152.5000  133.8745  159.7315 H   0  0  0  0  0  0  0  0  0  0  0  0  # atno 6907 bound_to 6896
  150.9223  133.6856  159.2836 H   0  0  0  0  0  0  0  0  0  0  0  0  # atno 6908 bound_to 6896
  151.4229  135.1004  159.9671 H   0  0  0  0  0  0  0  0  0  0  0  0  # atno 6909 bound_to 6896
  145.6418  139.2427  143.2026 H   0  0  0  0  0  0  0  0  0  0  0  0  # atno 7974 bound_to 7965
  155.0932  140.0395  157.2675 H   0  0  0  0  0  0  0  0  0  0  0  0  # atno 8008 bound_to 7997
  154.6816  140.2634  155.6878 H   0  0  0  0  0  0  0  0  0  0  0  0  # atno 8009 bound_to 7997
  156.2696  140.2777  156.1362 H   0  0  0  0  0  0  0  0  0  0  0  0  # atno 8010 bound_to 7997
  139.7628  144.6948  151.0267 H   0  0  0  0  0  0  0  0  0  0  0  0  # atno 10167 bound_to 10162
  156.0506  130.5734  150.8018 H   0  0  0  0  0  0  0  0  0  0  0  0  # atno 10718 bound_to 10713
  154.1439  135.2819  155.3153 H   0  0  0  0  0  0  0  0  0  0  0  0  # atno 10763 bound_to 10752
  154.6267  135.5449  153.7638 H   0  0  0  0  0  0  0  0  0  0  0  0  # atno 10764 bound_to 10752
  153.0242  135.6452  154.1585 H   0  0  0  0  0  0  0  0  0  0  0  0  # atno 10765 bound_to 10752
  139.9223  134.9638  156.7950 H   0  0  0  0  0  0  0  0  0  0  0  0  # atno 11005 bound_to 11000
  146.1274  140.7230  142.9428 LP  0  0  0  0  0  0  0  0  0  0  0  0  # atno 17320 bound_to 7965
  144.7154  140.4192  143.7048 LP  0  0  0  0  0  0  0  0  0  0  0  0  # atno 17321 bound_to 7965
  140.7808  143.4677  151.0189 LP  0  0  0  0  0  0  0  0  0  0  0  0  # atno 17342 bound_to 10162
  139.8363  143.7624  152.3180 LP  0  0  0  0  0  0  0  0  0  0  0  0  # atno 17343 bound_to 10162
  157.5429  131.0941  150.9802 LP  0  0  0  0  0  0  0  0  0  0  0  0  # atno 17370 bound_to 10713
  157.0081  130.5626  149.5318 LP  0  0  0  0  0  0  0  0  0  0  0  0  # atno 17371 bound_to 10713
  140.6436  133.9795  155.7720 LP  0  0  0  0  0  0  0  0  0  0  0  0  # atno 17394 bound_to 11000
  141.0755  134.0142  157.3464 LP  0  0  0  0  0  0  0  0  0  0  0  0  # atno 17395 bound_to 11000

$$$$
