AV-unprocessed.smi:261|AV-procd|sdf|1989|dock7
  -GOLD-   2262021173D 1   1.00000     0.00000
 Structure written by MMmdl.
 51 54  0  0  0  0  0  0  0  0  1 V2000
  143.8675  135.6899  151.6259 C   0  0  0  0  0  0  0  0  0  0  0  0
  144.2935  135.9716  152.9488 O   0  0  0  0  0  0  0  0  0  0  0  0
  145.2633  137.0064  153.0239 C   0  0  1  0  0  0  0  0  0  0  0  0
  144.6718  138.4076  152.8443 C   0  0  0  0  0  0  0  0  0  0  0  0
  145.6628  139.3372  153.5657 C   0  0  2  0  0  0  0  0  0  0  0  0
  146.7581  139.8460  152.6107 C   0  0  0  0  0  0  0  0  0  0  0  0
  147.5069  138.9184  152.0096 N   0  0  0  0  0  0  0  0  0  0  0  0
  146.9363  141.0491  152.4243 O   0  0  0  0  0  0  0  0  0  0  0  0
  146.2077  138.4880  154.6255 N   0  0  0  0  0  0  0  0  0  0  0  0
  146.7859  138.9385  155.7740 C   0  0  0  0  0  0  0  0  0  0  0  0
  146.6247  138.1904  156.8980 N   0  0  0  0  0  0  0  0  0  0  0  0
  147.1635  138.5713  158.0587 C   0  0  0  0  0  0  0  0  0  0  0  0
  147.8949  139.6537  158.3214 N   0  0  0  0  0  0  0  0  0  0  0  0
  148.0662  140.4147  157.2037 C   0  0  0  0  0  0  0  0  0  0  0  0
  147.5533  140.1377  155.9016 C   0  0  0  0  0  0  0  0  0  0  0  0
  147.9444  141.1512  155.0312 N   0  0  0  0  0  0  0  0  0  0  0  0
  148.6427  141.9691  155.7684 C   0  0  0  0  0  0  0  0  0  0  0  0
  148.7621  141.6051  157.0881 N   0  0  0  0  0  0  0  0  0  0  0  0
  149.4756  142.3300  158.1254 C   0  0  0  0  0  0  0  0  0  0  0  0
  150.6947  141.5510  158.6578 C   0  0  1  0  0  0  0  0  0  0  0  0
  151.3427  140.8929  157.5848 O   0  0  0  0  0  0  0  0  0  0  0  0
  151.6897  142.4693  159.3970 C   0  0  2  0  0  0  0  0  0  0  0  0
  152.8474  141.7800  160.1429 C   0  0  0  0  0  0  0  0  0  0  0  0
  152.6907  142.2622  161.5745 C   0  0  0  0  0  0  0  0  0  0  0  0
  151.9081  143.5586  161.4098 C   0  0  0  0  0  0  0  0  0  0  0  0
  150.9986  143.2498  160.3667 O   0  0  0  0  0  0  0  0  0  0  0  0
  145.8664  137.0827  154.4264 C   0  0  0  0  0  0  0  0  0  0  0  0
  146.0645  136.8414  152.3006 H   0  0  0  0  0  0  0  0  0  0  0  0
  145.1115  140.1796  153.9845 H   0  0  0  0  0  0  0  0  0  0  0  0
  143.1437  134.8754  151.6433 H   0  0  0  0  0  0  0  0  0  0  0  0
  144.7048  135.3804  150.9994 H   0  0  0  0  0  0  0  0  0  0  0  0
  143.3856  136.5531  151.1661 H   0  0  0  0  0  0  0  0  0  0  0  0
  144.5161  138.6675  151.7962 H   0  0  0  0  0  0  0  0  0  0  0  0
  143.7011  138.4617  153.3396 H   0  0  0  0  0  0  0  0  0  0  0  0
  148.2443  139.1968  151.3788 H   0  0  0  0  0  0  0  0  0  0  0  0
  147.3362  137.9408  152.1949 H   0  0  0  0  0  0  0  0  0  0  0  0
  146.9823  137.9142  158.8964 H   0  0  0  0  0  0  0  0  0  0  0  0
  149.0889  142.8682  155.3688 H   0  0  0  0  0  0  0  0  0  0  0  0
  149.7832  143.2989  157.7302 H   0  0  0  0  0  0  0  0  0  0  0  0
  148.7757  142.5347  158.9361 H   0  0  0  0  0  0  0  0  0  0  0  0
  150.3411  140.7882  159.3527 H   0  0  0  0  0  0  0  0  0  0  0  0
  152.0377  141.4509  157.2702 H   0  0  0  0  0  0  0  0  0  0  0  0
  152.1120  143.1788  158.6832 H   0  0  0  0  0  0  0  0  0  0  0  0
  152.8293  140.6915  160.0799 H   0  0  0  0  0  0  0  0  0  0  0  0
  153.8017  142.1131  159.7328 H   0  0  0  0  0  0  0  0  0  0  0  0
  152.0974  141.5451  162.1436 H   0  0  0  0  0  0  0  0  0  0  0  0
  153.6427  142.4002  162.0877 H   0  0  0  0  0  0  0  0  0  0  0  0
  151.3906  143.8588  162.3211 H   0  0  0  0  0  0  0  0  0  0  0  0
  152.5626  144.3739  161.0970 H   0  0  0  0  0  0  0  0  0  0  0  0
  145.1330  136.7871  155.1785 H   0  0  0  0  0  0  0  0  0  0  0  0
  146.7355  136.4302  154.5178 H   0  0  0  0  0  0  0  0  0  0  0  0
  1  2  1  0  0  0  0
  1 30  1  0  0  0  0
  1 31  1  0  0  0  0
  1 32  1  0  0  0  0
  2  3  1  0  0  0  0
  3 28  1  0  0  0  0
  3 27  1  0  0  0  0
  3  4  1  0  0  0  0
  4  5  1  0  0  0  0
  4 33  1  0  0  0  0
  4 34  1  0  0  0  0
  5 29  1  0  0  0  0
  5  6  1  0  0  0  0
  5  9  1  0  0  0  0
  6  7  1  0  0  0  0
  6  8  2  0  0  0  0
  7 35  1  0  0  0  0
  7 36  1  0  0  0  0
  9 10  1  0  0  0  0
  9 27  1  0  0  0  0
 10 15  1  0  0  0  0
 10 11  2  0  0  0  0
 11 12  1  0  0  0  0
 12 13  2  0  0  0  0
 12 37  1  0  0  0  0
 13 14  1  0  0  0  0
 14 18  1  0  0  0  0
 14 15  2  0  0  0  0
 15 16  1  0  0  0  0
 16 17  2  0  0  0  0
 17 18  1  0  0  0  0
 17 38  1  0  0  0  0
 18 19  1  0  0  0  0
 19 20  1  0  0  0  0
 19 39  1  0  0  0  0
 19 40  1  0  0  0  0
 20 21  1  0  0  0  0
 20 22  1  0  0  0  0
 20 41  1  0  0  0  0
 21 42  1  0  0  0  0
 22 26  1  0  0  0  0
 22 23  1  0  0  0  0
 22 43  1  0  0  0  0
 23 24  1  0  0  0  0
 23 44  1  0  0  0  0
 23 45  1  0  0  0  0
 24 25  1  0  0  0  0
 24 46  1  0  0  0  0
 24 47  1  0  0  0  0
 25 26  1  0  0  0  0
 25 48  1  0  0  0  0
 25 49  1  0  0  0  0
 27 50  1  0  0  0  0
 27 51  1  0  0  0  0
M  END
> <s_m_source_file>
AV-unprocessed.smi

> <i_m_source_file_index>
261

> <i_lp_mmshare_version>
43012

> <i_f3d_flags>
0

> <s_epik_input>
W0NIM11PW0NASF0xW0NIMl1bQ0BASF0oQyg9TylbTkgyXSlOKFtDSDJdMSljKG5bY0hdbjIpYyhjMjMpbltjSF1uM1tDSDJdW0NASF0oW09IXSlbQ0BASF00W0NIMl1bQ0gyXVtDSDJdTzQ=

> <s_epik_cmdline>
J2VwaWtfcHl0aG9uJywgJy1waCcsICc3LjAnLCAnLXRuJywgJzgnLCAnLW1hJywgJzIwMCcsICctbWV0YWxfYmluZGluZycsICctaW1hZScsICc8aW5maWxlLm1hZT4nLCAnLW9tYWUnLCAnPG91dGZpbGUubWFlPic=

> <r_lp_tautomer_probability>
1

> <r_epik_Ionization_Penalty>
0.000713824

> <r_epik_Ionization_Penalty_Charging>
0

> <r_epik_Ionization_Penalty_Neutral>
0.000713824

> <r_epik_State_Penalty>
0.000402132

> <r_epik_Charging_Adjusted_Penalty>
0.000402132

> <i_epik_Tot_Q>
0

> <i_epik_Tot_abs_Q>
0

> <r_epik_Metal_State_Penalty>
-0

> <b_epik_Metal_Only>
0

> <s_lp_Force_Field>
OPLS_2005

> <r_lp_Energy>
44.9421

> <b_lp_Chiralities_Consistent>
1

> <s_lp_Variant>
AV-unprocessed.smi:261-7

> <Gold.Version>
5.8.1

> <Gold.Id.Protein>
6NUR|6NUR_protein|mol2

> <Gold.PLP.Fitness>
39.2554

> <Gold.PLP.PLP>
-32.7438

> <Gold.PLP.part.hbond>
-4.0000

> <Gold.PLP.part.metal>
0.0000

> <Gold.PLP.part.buried>
-4.5712

> <Gold.PLP.part.nonpolar>
-25.2086

> <Gold.PLP.part.repulsive>
0.6865

> <Gold.PLP.ligand.clash>
0.0000

> <Gold.PLP.ligand.torsion>
0.7125

> <Gold.PLP.Chemscore.Hbond>
1.6000

> <Gold.PLP.Chemscore.CHOScore>
1.0000

> <Gold.PLP.Chemscore.Metal>
0.0000

> <Gold.Chemscore.Hbonds>
donor molecule, donor type, donor heavy atom, donor atom, acceptor molecule, acceptor atom, score
      L1  H     7    35       P1  7957  0.99
      L1  H     7    36       P1  7948  0.09
      L1  C    17    38       P1  8028  0.62

> <Gold.PLP.Chemscore.Internal.Correction>
0.1366

> <Gold.Rescore>
     Score         DG    S(hbond)    S(metal)    S(lipo)     H(rot)  DE(clash)    DE(int)     intcor
      7.26     -10.70       1.59        0.00      68.84       3.18       0.13       3.30       ----

> <Gold.Chemscore.Fitness>
7.2647

> <Gold.Chemscore.DG>
-10.6965

> <Gold.Chemscore.ZeroCoef>
-5.4800

> <Gold.Chemscore.Hbond>
1.5899

> <Gold.Chemscore.Metal>
0.0000

> <Gold.Chemscore.Lipo>
68.8447

> <Gold.Chemscore.Internal_Hbond>
0.0000

> <Gold.Chemscore.DEClash>
0.1296

> <Gold.Chemscore.DEInternal>
3.3023

> <Gold.Chemscore.Rot>
3.1831

> <Gold.Chemscore.Internal.Correction>
   9.000000E+99

> <Gold.Chemscore.Hbonds>
donor molecule, donor type, donor heavy atom, donor atom, acceptor molecule, acceptor atom, score
      L1  H     7    35       P1  7957  0.72
      L1  H     7    36       P1  7948  0.09

> <Gold.Chemscore.Hbond.Weighted>
-5.3103

> <Gold.Chemscore.Metal.Weighted>
-0.0000

> <Gold.Chemscore.Lipo.Weighted>
-8.0548

> <Gold.Chemscore.Internal_Hbond.Weighted>
0.0000

> <Gold.Chemscore.DEClash.Weighted>
0.1296

> <Gold.Chemscore.DEInternal.Weighted>
3.3023

> <Gold.Chemscore.Rot.Weighted>
8.1486

> <Gold.Chemscore.Internal.Correction.Weighted>
   9.000000E+99

> <Gold.Protein.RotatedTorsions>
[ 6907 6896 6895 6894 ] final   35.58 input  -60.11 | X-H torsion
[ 7974 7965 7964 7962 ] final  112.91 input  175.53 | X-H torsion
[ 8008 7997 7996 7995 ] final  102.96 input   59.86 | X-H torsion
[ 10167 10162 10161 10158 ] final  -88.42 input  -65.29 | X-H torsion
[ 10718 10713 10712 10709 ] final -123.26 input   66.30 | X-H torsion
[ 10763 10752 10751 10750 ] final   36.14 input  -60.55 | X-H torsion
[ 11005 11000 10999 10996 ] final  111.02 input  -57.11 | X-H torsion

> <Gold.Protein.ActiveResidues>
 VAL166  LYS551  ARG553  GLY616  TRP617  ASP618  TYR619  PRO620  LYS621  CYS622 
 ASP623  PHE694  ASN695  SER759  ASP760  ASP761  ALA762  ILE779  LEU786  VAL792 
 PHE793  MET794  SER795  GLU796  ALA797  LYS798  CYS799  TRP800  GLU811  SER814 

> <Gold.Protein.RotatedAtoms>
  152.1181  134.9225  160.0563 H   0  0  0  0  0  0  0  0  0  0  0  0  # atno 6907 bound_to 6896
  152.0377  133.3959  159.4332 H   0  0  0  0  0  0  0  0  0  0  0  0  # atno 6908 bound_to 6896
  150.6847  134.3371  159.4895 H   0  0  0  0  0  0  0  0  0  0  0  0  # atno 6909 bound_to 6896
  145.2236  139.2851  143.4205 H   0  0  0  0  0  0  0  0  0  0  0  0  # atno 7974 bound_to 7965
  156.1441  140.3172  155.8542 H   0  0  0  0  0  0  0  0  0  0  0  0  # atno 8008 bound_to 7997
  155.4098  140.0505  157.3049 H   0  0  0  0  0  0  0  0  0  0  0  0  # atno 8009 bound_to 7997
  154.5001  140.2126  155.9377 H   0  0  0  0  0  0  0  0  0  0  0  0  # atno 8010 bound_to 7997
  140.3749  143.2776  151.9455 H   0  0  0  0  0  0  0  0  0  0  0  0  # atno 10167 bound_to 10162
  156.1487  130.6519  150.9881 H   0  0  0  0  0  0  0  0  0  0  0  0  # atno 10718 bound_to 10713
  153.0089  135.6314  154.1938 H   0  0  0  0  0  0  0  0  0  0  0  0  # atno 10763 bound_to 10752
  154.1681  135.2820  155.3091 H   0  0  0  0  0  0  0  0  0  0  0  0  # atno 10764 bound_to 10752
  154.5930  135.5611  153.7358 H   0  0  0  0  0  0  0  0  0  0  0  0  # atno 10765 bound_to 10752
  139.8894  134.9498  156.6368 H   0  0  0  0  0  0  0  0  0  0  0  0  # atno 11005 bound_to 11000
  146.3370  140.2549  142.8600 LP  0  0  0  0  0  0  0  0  0  0  0  0  # atno 17320 bound_to 7965
  144.9742  140.8398  143.5436 LP  0  0  0  0  0  0  0  0  0  0  0  0  # atno 17321 bound_to 7965
  139.4800  144.5873  151.7832 LP  0  0  0  0  0  0  0  0  0  0  0  0  # atno 17342 bound_to 10162
  140.4996  144.1188  150.5968 LP  0  0  0  0  0  0  0  0  0  0  0  0  # atno 17343 bound_to 10162
  157.6638  131.0875  150.7776 LP  0  0  0  0  0  0  0  0  0  0  0  0  # atno 17370 bound_to 10713
  156.7845  130.4870  149.5395 LP  0  0  0  0  0  0  0  0  0  0  0  0  # atno 17371 bound_to 10713
  140.7624  133.8806  155.8428 LP  0  0  0  0  0  0  0  0  0  0  0  0  # atno 17394 bound_to 11000
  140.9911  134.1278  157.4407 LP  0  0  0  0  0  0  0  0  0  0  0  0  # atno 17395 bound_to 11000

$$$$
