AV-unprocessed.smi:1244|AV-procd|sdf|5235|dock7
  -GOLD-   22720 4343D 1   1.00000     0.00000
 Structure written by MMmdl.
 55 57  0  0  0  0  0  0  0  0  4 V2000
  146.3494  135.6726  153.7355 C   0  0  0  0  0  0  0  0  0  0  0  0
  146.9280  134.7466  154.8201 C   0  0  2  0  0  0  0  0  0  0  0  0
  148.3106  135.1921  155.3353 C   0  0  0  0  0  0  0  0  0  0  0  0
  149.3697  134.9149  154.3352 N   0  3  1  0  0  0  0  0  0  0  0  0
  150.7076  135.4064  154.7596 C   0  0  0  0  0  0  0  0  0  0  0  0
  150.7305  136.9364  154.9537 C   0  0  0  0  0  0  0  0  0  0  0  0
  151.4237  137.2713  156.1971 N   0  5  0  0  0  0  0  0  0  0  0  0
  151.9287  138.4969  156.5017 C   0  0  0  0  0  0  0  0  0  0  0  0
  153.1175  138.8195  156.6055 O   0  0  0  0  0  0  0  0  0  0  0  0
  150.9562  139.4006  156.7130 N   0  0  0  0  0  0  0  0  0  0  0  0
  151.0630  140.7711  157.0833 C   0  0  0  0  0  0  0  0  0  0  0  0
  152.1666  141.2488  157.8354 C   0  0  0  0  0  0  0  0  0  0  0  0
  152.2335  142.6060  158.2018 C   0  0  0  0  0  0  0  0  0  0  0  0
  151.1984  143.4689  157.8043 C   0  0  0  0  0  0  0  0  0  0  0  0
  150.1744  142.9899  157.0682 N   0  3  0  0  0  0  0  0  0  0  0  0
  150.0605  141.6974  156.6715 C   0  0  0  0  0  0  0  0  0  0  0  0
  148.9374  141.3476  155.8864 N   0  0  0  0  0  0  0  0  0  0  0  0
  147.5873  141.6394  156.3544 C   0  0  0  0  0  0  0  0  0  0  0  0
  146.6938  141.4475  155.1319 C   0  0  0  0  0  0  0  0  0  0  0  0
  147.5888  141.9260  153.9927 C   0  0  0  0  0  0  0  0  0  0  0  0
  148.9950  141.5103  154.4371 C   0  0  0  0  0  0  0  0  0  0  0  0
  149.3472  133.4791  153.9546 C   0  0  0  0  0  0  0  0  0  0  0  0
  147.9599  133.0902  153.4155 C   0  0  1  0  0  0  0  0  0  0  0  0
  147.8695  131.5960  153.0867 C   0  0  0  0  0  0  0  0  0  0  0  0
  146.9711  133.3829  154.3995 O   0  0  0  0  0  0  0  0  0  0  0  0
  146.2006  136.6791  154.1269 H   0  0  0  0  0  0  0  0  0  0  0  0
  145.3821  135.3081  153.3895 H   0  0  0  0  0  0  0  0  0  0  0  0
  147.0053  135.7570  152.8692 H   0  0  0  0  0  0  0  0  0  0  0  0
  146.2356  134.7795  155.6619 H   0  0  0  0  0  0  0  0  0  0  0  0
  148.2892  136.2557  155.5769 H   0  0  0  0  0  0  0  0  0  0  0  0
  148.5489  134.6627  156.2593 H   0  0  0  0  0  0  0  0  0  0  0  0
  150.9792  134.9437  155.7100 H   0  0  0  0  0  0  0  0  0  0  0  0
  151.4675  135.0894  154.0435 H   0  0  0  0  0  0  0  0  0  0  0  0
  151.2268  137.3936  154.0979 H   0  0  0  0  0  0  0  0  0  0  0  0
  149.7078  137.3155  154.9286 H   0  0  0  0  0  0  0  0  0  0  0  0
  150.0196  139.0251  156.7074 H   0  0  0  0  0  0  0  0  0  0  0  0
  152.9704  140.5929  158.1335 H   0  0  0  0  0  0  0  0  0  0  0  0
  153.0668  142.9773  158.7800 H   0  0  0  0  0  0  0  0  0  0  0  0
  151.1627  144.5224  158.0410 H   0  0  0  0  0  0  0  0  0  0  0  0
  147.2987  140.9809  157.1744 H   0  0  0  0  0  0  0  0  0  0  0  0
  147.5187  142.6718  156.6999 H   0  0  0  0  0  0  0  0  0  0  0  0
  146.4601  140.3897  155.0023 H   0  0  0  0  0  0  0  0  0  0  0  0
  145.7551  141.9979  155.2000 H   0  0  0  0  0  0  0  0  0  0  0  0
  147.3095  141.5073  153.0255 H   0  0  0  0  0  0  0  0  0  0  0  0
  147.5340  143.0129  153.9166 H   0  0  0  0  0  0  0  0  0  0  0  0
  149.7401  142.2473  154.1338 H   0  0  0  0  0  0  0  0  0  0  0  0
  149.2603  140.5528  153.9871 H   0  0  0  0  0  0  0  0  0  0  0  0
  150.1021  133.2777  153.1939 H   0  0  0  0  0  0  0  0  0  0  0  0
  149.6008  132.8682  154.8227 H   0  0  0  0  0  0  0  0  0  0  0  0
  147.7506  133.6492  152.5033 H   0  0  0  0  0  0  0  0  0  0  0  0
  148.6013  131.3157  152.3288 H   0  0  0  0  0  0  0  0  0  0  0  0
  146.8812  131.3405  152.7037 H   0  0  0  0  0  0  0  0  0  0  0  0
  148.0524  130.9847  153.9709 H   0  0  0  0  0  0  0  0  0  0  0  0
  149.1267  135.4472  153.5117 H   0  0  0  0  0  0  0  0  0  0  0  0
  149.4445  143.6432  156.7846 H   0  0  0  0  0  0  0  0  0  0  0  0
  1  2  1  0  0  0  0
  1 26  1  0  0  0  0
  1 27  1  0  0  0  0
  1 28  1  0  0  0  0
  2 25  1  0  0  0  0
  2  3  1  0  0  0  0
  2 29  1  0  0  0  0
  3  4  1  0  0  0  0
  3 30  1  0  0  0  0
  3 31  1  0  0  0  0
  4  5  1  0  0  0  0
  4 22  1  0  0  0  0
  4 54  1  0  0  0  0
  5  6  1  0  0  0  0
  5 32  1  0  0  0  0
  5 33  1  0  0  0  0
  6  7  1  0  0  0  0
  6 34  1  0  0  0  0
  6 35  1  0  0  0  0
  7  8  1  0  0  0  0
  8  9  2  0  0  0  0
  8 10  1  0  0  0  0
 10 11  1  0  0  0  0
 10 36  1  0  0  0  0
 11 16  1  0  0  0  0
 11 12  2  0  0  0  0
 12 13  1  0  0  0  0
 12 37  1  0  0  0  0
 13 14  2  0  0  0  0
 13 38  1  0  0  0  0
 14 15  1  0  0  0  0
 14 39  1  0  0  0  0
 15 16  2  0  0  0  0
 15 55  1  0  0  0  0
 16 17  1  0  0  0  0
 17 21  1  0  0  0  0
 17 18  1  0  0  0  0
 18 19  1  0  0  0  0
 18 40  1  0  0  0  0
 18 41  1  0  0  0  0
 19 20  1  0  0  0  0
 19 42  1  0  0  0  0
 19 43  1  0  0  0  0
 20 21  1  0  0  0  0
 20 44  1  0  0  0  0
 20 45  1  0  0  0  0
 21 46  1  0  0  0  0
 21 47  1  0  0  0  0
 22 23  1  0  0  0  0
 22 48  1  0  0  0  0
 22 49  1  0  0  0  0
 23 24  1  0  0  0  0
 23 25  1  0  0  0  0
 23 50  1  0  0  0  0
 24 51  1  0  0  0  0
 24 52  1  0  0  0  0
 24 53  1  0  0  0  0
M  CHG  1   4   1
M  CHG  1   7  -1
M  CHG  1  15   1
M  END
> <s_m_source_file>
AV-unprocessed.smi

> <i_m_source_file_index>
1244

> <i_lp_mmshare_version>
43012

> <i_f3d_flags>
0

> <s_epik_input>
W0NIM11bQ0BASF0xW0NIMl1OKFtDSDJdW0NASF0oTzEpW0NIM10pW0NIMl1bQ0gyXVtOSF1DKD1PKVtOSF1jMltjSF1bY0hdW2NIXW5jMk4zW0NIMl1bQ0gyXVtDSDJdW0NIMl0z

> <s_epik_cmdline>
J2VwaWtfcHl0aG9uJywgJy1waCcsICc3LjAnLCAnLXRuJywgJzgnLCAnLW1hJywgJzIwMCcsICctbWV0YWxfYmluZGluZycsICctaW1hZScsICc8aW5maWxlLm1hZT4nLCAnLW9tYWUnLCAnPG91dGZpbGUubWFlPic=

> <r_lp_tautomer_probability>
0.999994

> <r_epik_Ionization_Penalty>
8.60539

> <r_epik_Ionization_Penalty_Charging>
8.60539

> <r_epik_Ionization_Penalty_Neutral>
3.60441e-06

> <r_epik_State_Penalty>
8.59967

> <r_epik_Charging_Adjusted_Penalty>
17.2051

> <i_epik_Tot_Q>
1

> <i_epik_Tot_abs_Q>
3

> <r_epik_Metal_State_Penalty>
4.59489

> <b_epik_Metal_Only>
1

> <s_lp_Force_Field>
OPLS_2005

> <r_lp_Energy>
46.9863

> <b_lp_Chiralities_Consistent>
1

> <s_lp_Variant>
AV-unprocessed.smi:1244-15

> <Gold.Version>
5.8.1

> <Gold.Id.Protein>
6NUR|6NUR_protein|mol2

> <Gold.PLP.Fitness>
47.6588

> <Gold.PLP.PLP>
-35.5063

> <Gold.PLP.part.hbond>
-3.0000

> <Gold.PLP.part.metal>
0.0000

> <Gold.PLP.part.buried>
-3.6756

> <Gold.PLP.part.nonpolar>
-28.6297

> <Gold.PLP.part.repulsive>
0.2139

> <Gold.PLP.ligand.clash>
0.0000

> <Gold.PLP.ligand.torsion>
1.6674

> <Gold.PLP.Chemscore.Hbond>
5.0000

> <Gold.PLP.Chemscore.CHOScore>
0.0000

> <Gold.PLP.Chemscore.Metal>
0.0000

> <Gold.Chemscore.Hbonds>
donor molecule, donor type, donor heavy atom, donor atom, acceptor molecule, acceptor atom, score
      L1  H     4    54       P1  7948  2.00
      L1  H    15    55       P1  8028  1.95
      P1  H  7997  8008       L1     9  1.00

> <Gold.PLP.Chemscore.Internal.Correction>
0.4873

> <Gold.Rescore>
     Score         DG    S(hbond)    S(metal)    S(lipo)     H(rot)  DE(clash)    DE(int)     intcor
     17.46     -20.58       2.71        0.00      86.75       1.60       0.30       2.83       ----

> <Gold.Chemscore.Fitness>
17.4573

> <Gold.Chemscore.DG>
-20.5846

> <Gold.Chemscore.ZeroCoef>
-5.4800

> <Gold.Chemscore.Hbond>
2.7082

> <Gold.Chemscore.Metal>
0.0000

> <Gold.Chemscore.Lipo>
86.7489

> <Gold.Chemscore.Internal_Hbond>
0.0000

> <Gold.Chemscore.DEClash>
0.2996

> <Gold.Chemscore.DEInternal>
2.8277

> <Gold.Chemscore.Rot>
1.5978

> <Gold.Chemscore.Internal.Correction>
   9.000000E+99

> <Gold.Chemscore.Hbonds>
donor molecule, donor type, donor heavy atom, donor atom, acceptor molecule, acceptor atom, score
      L1  H     4    54       P1  7948  0.55
      L1  H    15    55       P1  8028  0.90
      P1  H  7997  8008       L1     9  0.99

> <Gold.Chemscore.Hbond.Weighted>
-9.0455

> <Gold.Chemscore.Metal.Weighted>
-0.0000

> <Gold.Chemscore.Lipo.Weighted>
-10.1496

> <Gold.Chemscore.Internal_Hbond.Weighted>
0.0000

> <Gold.Chemscore.DEClash.Weighted>
0.2996

> <Gold.Chemscore.DEInternal.Weighted>
2.8277

> <Gold.Chemscore.Rot.Weighted>
4.0905

> <Gold.Chemscore.Internal.Correction.Weighted>
   9.000000E+99

> <Gold.Protein.RotatedTorsions>
[ 6907 6896 6895 6894 ] final -137.09 input  -60.11 | X-H torsion
[ 7974 7965 7964 7962 ] final  -90.49 input  175.53 | X-H torsion
[ 8008 7997 7996 7995 ] final  -54.32 input   59.86 | X-H torsion
[ 10167 10162 10161 10158 ] final  -30.66 input  -65.29 | X-H torsion
[ 10718 10713 10712 10709 ] final  -33.47 input   66.30 | X-H torsion
[ 10763 10752 10751 10750 ] final  -85.71 input  -60.55 | X-H torsion
[ 11005 11000 10999 10996 ] final   22.42 input  -57.11 | X-H torsion

> <Gold.Protein.ActiveResidues>
 VAL166  LYS551  ARG553  GLY616  TRP617  ASP618  TYR619  PRO620  LYS621  CYS622 
 ASP623  PHE694  ASN695  SER759  ASP760  ASP761  ALA762  ILE779  LEU786  VAL792 
 PHE793  MET794  SER795  GLU796  ALA797  LYS798  CYS799  TRP800  GLU811  SER814 

> <Gold.Protein.RotatedAtoms>
  151.0181  133.5902  159.2674 H   0  0  0  0  0  0  0  0  0  0  0  0  # atno 6907 bound_to 6896
  151.3028  135.0772  159.9254 H   0  0  0  0  0  0  0  0  0  0  0  0  # atno 6908 bound_to 6896
  152.5316  133.9860  159.7883 H   0  0  0  0  0  0  0  0  0  0  0  0  # atno 6909 bound_to 6896
  145.4258  140.9553  143.2155 H   0  0  0  0  0  0  0  0  0  0  0  0  # atno 7974 bound_to 7965
  154.4159  140.1179  156.5296 H   0  0  0  0  0  0  0  0  0  0  0  0  # atno 8008 bound_to 7997
  155.6619  140.3496  155.4766 H   0  0  0  0  0  0  0  0  0  0  0  0  # atno 8009 bound_to 7997
  155.9706  140.1140  157.0805 H   0  0  0  0  0  0  0  0  0  0  0  0  # atno 8010 bound_to 7997
  140.7246  143.3832  151.1563 H   0  0  0  0  0  0  0  0  0  0  0  0  # atno 10167 bound_to 10162
  156.3623  130.4326  149.7613 H   0  0  0  0  0  0  0  0  0  0  0  0  # atno 10718 bound_to 10713
  154.6142  135.5475  153.7505 H   0  0  0  0  0  0  0  0  0  0  0  0  # atno 10763 bound_to 10752
  153.0208  135.6397  154.1534 H   0  0  0  0  0  0  0  0  0  0  0  0  # atno 10764 bound_to 10752
  154.1471  135.2905  155.3125 H   0  0  0  0  0  0  0  0  0  0  0  0  # atno 10765 bound_to 10752
  140.3807  134.1923  155.7664 H   0  0  0  0  0  0  0  0  0  0  0  0  # atno 11005 bound_to 11000
  144.8215  139.5783  143.6984 LP  0  0  0  0  0  0  0  0  0  0  0  0  # atno 17320 bound_to 7965
  146.2633  139.6461  142.9347 LP  0  0  0  0  0  0  0  0  0  0  0  0  # atno 17321 bound_to 7965
  139.7424  143.8904  152.3054 LP  0  0  0  0  0  0  0  0  0  0  0  0  # atno 17342 bound_to 10162
  139.8730  144.7058  150.8966 LP  0  0  0  0  0  0  0  0  0  0  0  0  # atno 17343 bound_to 10162
  156.4772  130.8024  151.3040 LP  0  0  0  0  0  0  0  0  0  0  0  0  # atno 17370 bound_to 10713
  157.7475  131.0017  150.2973 LP  0  0  0  0  0  0  0  0  0  0  0  0  # atno 17371 bound_to 10713
  141.1924  133.8173  157.0840 LP  0  0  0  0  0  0  0  0  0  0  0  0  # atno 17394 bound_to 11000
  140.0480  134.9820  157.1085 LP  0  0  0  0  0  0  0  0  0  0  0  0  # atno 17395 bound_to 11000

$$$$
