AV-unprocessed.smi:50|AV-procd|sdf|491|dock1
  -GOLD-   2262016353D 1   1.00000     0.00000
 Structure written by MMmdl.
 44 45  0  0  0  0  0  0  0  0  2 V2000
  152.3268  145.3956  159.3686 C   0  0  0  0  0  0  0  0  0  0  0  0
  152.2300  143.8679  159.1976 C   0  0  0  0  0  0  0  0  0  0  0  0
  153.6474  143.2622  159.2046 C   0  0  0  0  0  0  0  0  0  0  0  0
  151.4062  143.4814  157.9382 C   0  0  2  0  0  0  0  0  0  0  0  0
  150.0003  143.9152  158.0573 N   0  3  0  0  0  0  0  0  0  0  0  0
  151.3788  141.9667  157.6692 C   0  0  0  0  0  0  0  0  0  0  0  0
  152.1319  141.1491  158.2019 O   0  0  0  0  0  0  0  0  0  0  0  0
  150.4366  141.6722  156.7586 O   0  0  0  0  0  0  0  0  0  0  0  0
  150.4380  140.4017  156.1276 C   0  0  0  0  0  0  0  0  0  0  0  0
  149.3723  139.5114  156.7724 C   0  0  0  0  0  0  0  0  0  0  0  0
  148.6034  138.9000  155.7490 O   0  0  0  0  0  0  0  0  0  0  0  0
  148.3532  137.5530  155.9826 C   0  0  0  0  0  0  0  0  0  0  0  0
  147.0351  137.2483  155.4552 N   0  0  0  0  0  0  0  0  0  0  0  0
  146.0489  136.4776  156.0198 C   0  0  0  0  0  0  0  0  0  0  0  0
  144.9679  136.3849  155.2968 N   0  0  0  0  0  0  0  0  0  0  0  0
  145.2519  137.1385  154.1617 C   0  0  0  0  0  0  0  0  0  0  0  0
  144.4468  137.4036  153.0030 C   0  0  0  0  0  0  0  0  0  0  0  0
  143.3053  137.0159  152.7632 O   0  0  0  0  0  0  0  0  0  0  0  0
  145.1121  138.2106  152.0712 N   0  0  0  0  0  0  0  0  0  0  0  0
  146.4036  138.7026  152.2439 C   0  0  0  0  0  0  0  0  0  0  0  0
  146.8987  139.4591  151.2556 N   0  0  0  0  0  0  0  0  0  0  0  0
  147.1420  138.4610  153.3127 N   0  0  0  0  0  0  0  0  0  0  0  0
  146.5232  137.6733  154.2469 C   0  0  0  0  0  0  0  0  0  0  0  0
  151.8294  143.9879  157.0699 H   0  0  0  0  0  0  0  0  0  0  0  0
  144.6102  138.4397  151.2258 H   0  0  0  0  0  0  0  0  0  0  0  0
  152.8161  145.8590  158.5112 H   0  0  0  0  0  0  0  0  0  0  0  0
  152.9035  145.6553  160.2569 H   0  0  0  0  0  0  0  0  0  0  0  0
  151.3460  145.8570  159.4832 H   0  0  0  0  0  0  0  0  0  0  0  0
  151.7105  143.4793  160.0751 H   0  0  0  0  0  0  0  0  0  0  0  0
  154.2060  143.5520  158.3139 H   0  0  0  0  0  0  0  0  0  0  0  0
  153.6263  142.1733  159.2478 H   0  0  0  0  0  0  0  0  0  0  0  0
  154.2136  143.5999  160.0733 H   0  0  0  0  0  0  0  0  0  0  0  0
  149.5857  143.9633  157.1377 H   0  0  0  0  0  0  0  0  0  0  0  0
  149.9620  144.8243  158.4953 H   0  0  0  0  0  0  0  0  0  0  0  0
  150.2122  140.5293  155.0680 H   0  0  0  0  0  0  0  0  0  0  0  0
  151.4228  139.9381  156.2006 H   0  0  0  0  0  0  0  0  0  0  0  0
  149.8355  138.7625  157.4170 H   0  0  0  0  0  0  0  0  0  0  0  0
  148.7218  140.1251  157.3973 H   0  0  0  0  0  0  0  0  0  0  0  0
  149.1025  136.9359  155.4840 H   0  0  0  0  0  0  0  0  0  0  0  0
  148.3532  137.3367  157.0520 H   0  0  0  0  0  0  0  0  0  0  0  0
  146.1541  135.9924  156.9793 H   0  0  0  0  0  0  0  0  0  0  0  0
  146.3361  139.6447  150.4378 H   0  0  0  0  0  0  0  0  0  0  0  0
  147.8294  139.8442  151.3253 H   0  0  0  0  0  0  0  0  0  0  0  0
  149.4921  143.2467  158.6188 H   0  0  0  0  0  0  0  0  0  0  0  0
  1  2  1  0  0  0  0
  1 26  1  0  0  0  0
  1 27  1  0  0  0  0
  1 28  1  0  0  0  0
  2  3  1  0  0  0  0
  2  4  1  0  0  0  0
  2 29  1  0  0  0  0
  3 30  1  0  0  0  0
  3 31  1  0  0  0  0
  3 32  1  0  0  0  0
  4 24  1  0  0  0  0
  4  5  1  0  0  0  0
  4  6  1  0  0  0  0
  5 33  1  0  0  0  0
  5 34  1  0  0  0  0
  5 44  1  0  0  0  0
  6  7  2  0  0  0  0
  6  8  1  0  0  0  0
  8  9  1  0  0  0  0
  9 10  1  0  0  0  0
  9 35  1  0  0  0  0
  9 36  1  0  0  0  0
 10 11  1  0  0  0  0
 10 37  1  0  0  0  0
 10 38  1  0  0  0  0
 11 12  1  0  0  0  0
 12 13  1  0  0  0  0
 12 39  1  0  0  0  0
 12 40  1  0  0  0  0
 13 23  1  0  0  0  0
 13 14  1  0  0  0  0
 14 15  2  0  0  0  0
 14 41  1  0  0  0  0
 15 16  1  0  0  0  0
 16 23  2  0  0  0  0
 16 17  1  0  0  0  0
 17 18  2  0  0  0  0
 17 19  1  0  0  0  0
 19 25  1  0  0  0  0
 19 20  1  0  0  0  0
 20 21  1  0  0  0  0
 20 22  2  0  0  0  0
 21 42  1  0  0  0  0
 21 43  1  0  0  0  0
 22 23  1  0  0  0  0
M  CHG  1   5   1
M  END
> <s_m_source_file>
AV-unprocessed.smi

> <i_m_source_file_index>
50

> <i_lp_mmshare_version>
43012

> <i_f3d_flags>
0

> <s_epik_input>
W0NIM11bQ0hdKFtDSDNdKVtDQEhdKFtOSDJdKUMoPU8pT1tDSDJdW0NIMl1PW0NIMl1uKFtjSF1uMSljKGMxMiluYyhbTkgyXSlbbkhdYzI9Tw==

> <s_epik_cmdline>
J2VwaWtfcHl0aG9uJywgJy1waCcsICc3LjAnLCAnLXRuJywgJzgnLCAnLW1hJywgJzIwMCcsICctbWV0YWxfYmluZGluZycsICctaW1hZScsICc8aW5maWxlLm1hZT4nLCAnLW9tYWUnLCAnPG91dGZpbGUubWFlPic=

> <r_lp_tautomer_probability>
0.99994

> <r_epik_Ionization_Penalty>
0.217551

> <r_epik_Ionization_Penalty_Charging>
0.217477

> <r_epik_Ionization_Penalty_Neutral>
7.42487e-05

> <r_epik_State_Penalty>
0.206211

> <r_epik_Charging_Adjusted_Penalty>
0.423688

> <i_epik_Tot_Q>
1

> <i_epik_Tot_abs_Q>
1

> <r_epik_Metal_State_Penalty>
0.526339

> <b_epik_Metal_Only>
0

> <s_epik_Chemistry_Notes>
This compound has an ester and may undergo hydrolysis at high or low pH. This compound contains an acetal/aminal-like group ( X-CH(R)-Y where X, Y are N, S, or O) that may be acid/base labile, releasing an aldehyde.

> <s_lp_Force_Field>
OPLS_2005

> <r_lp_Energy>
8.83135

> <b_lp_Chiralities_Consistent>
1

> <s_lp_Variant>
AV-unprocessed.smi:50-1

> <Gold.Version>
5.8.1

> <Gold.Id.Protein>
6NUR|6NUR_protein|mol2

> <Gold.PLP.Fitness>
40.1270

> <Gold.PLP.PLP>
-31.7682

> <Gold.PLP.part.hbond>
-5.0000

> <Gold.PLP.part.metal>
0.0000

> <Gold.PLP.part.buried>
-5.5130

> <Gold.PLP.part.nonpolar>
-22.8594

> <Gold.PLP.part.repulsive>
1.0302

> <Gold.PLP.ligand.clash>
0.0000

> <Gold.PLP.ligand.torsion>
1.9957

> <Gold.PLP.Chemscore.Hbond>
4.0000

> <Gold.PLP.Chemscore.CHOScore>
0.0000

> <Gold.PLP.Chemscore.Metal>
0.0000

> <Gold.Chemscore.Hbonds>
donor molecule, donor type, donor heavy atom, donor atom, acceptor molecule, acceptor atom, score
      L1  H     5    33       P1  8028  2.00
      L1  H    19    25       P1 10171  1.00
      L1  H    21    43       P1  7957  1.00

> <Gold.PLP.Chemscore.Internal.Correction>
0.3503

> <Gold.Rescore>
     Score         DG    S(hbond)    S(metal)    S(lipo)     H(rot)  DE(clash)    DE(int)     intcor
      4.49      -9.28       2.86        0.00      57.17       4.86       0.00       4.80       ----

> <Gold.Chemscore.Fitness>
4.4875

> <Gold.Chemscore.DG>
-9.2828

> <Gold.Chemscore.ZeroCoef>
-5.4800

> <Gold.Chemscore.Hbond>
2.8589

> <Gold.Chemscore.Metal>
0.0000

> <Gold.Chemscore.Lipo>
57.1663

> <Gold.Chemscore.Internal_Hbond>
0.0000

> <Gold.Chemscore.DEClash>
0.0000

> <Gold.Chemscore.DEInternal>
4.7952

> <Gold.Chemscore.Rot>
4.8571

> <Gold.Chemscore.Internal.Correction>
   9.000000E+99

> <Gold.Chemscore.Hbonds>
donor molecule, donor type, donor heavy atom, donor atom, acceptor molecule, acceptor atom, score
      L1  H     5    33       P1  8028  0.64
      L1  H    19    25       P1 10171  0.98
      L1  H    21    43       P1  7957  0.99

> <Gold.Chemscore.Hbond.Weighted>
-9.5486

> <Gold.Chemscore.Metal.Weighted>
-0.0000

> <Gold.Chemscore.Lipo.Weighted>
-6.6885

> <Gold.Chemscore.Internal_Hbond.Weighted>
0.0000

> <Gold.Chemscore.DEClash.Weighted>
0.0000

> <Gold.Chemscore.DEInternal.Weighted>
4.7952

> <Gold.Chemscore.Rot.Weighted>
12.4343

> <Gold.Chemscore.Internal.Correction.Weighted>
   9.000000E+99

> <Gold.Protein.RotatedTorsions>
[ 6907 6896 6895 6894 ] final   28.43 input  -60.11 | X-H torsion
[ 7974 7965 7964 7962 ] final   93.62 input  175.53 | X-H torsion
[ 8008 7997 7996 7995 ] final    1.86 input   59.86 | X-H torsion
[ 10167 10162 10161 10158 ] final  154.16 input  -65.29 | X-H torsion
[ 10718 10713 10712 10709 ] final  -91.07 input   66.30 | X-H torsion
[ 10763 10752 10751 10750 ] final -169.82 input  -60.55 | X-H torsion
[ 11005 11000 10999 10996 ] final   85.29 input  -57.11 | X-H torsion

> <Gold.Protein.ActiveResidues>
 VAL166  LYS551  ARG553  GLY616  TRP617  ASP618  TYR619  PRO620  LYS621  CYS622 
 ASP623  PHE694  ASN695  SER759  ASP760  ASP761  ALA762  ILE779  LEU786  VAL792 
 PHE793  MET794  SER795  GLU796  ALA797  LYS798  CYS799  TRP800  GLU811  SER814 

> <Gold.Protein.RotatedAtoms>
  152.0169  134.9845  160.0569 H   0  0  0  0  0  0  0  0  0  0  0  0  # atno 6907 bound_to 6896
  152.1375  133.4439  159.4759 H   0  0  0  0  0  0  0  0  0  0  0  0  # atno 6908 bound_to 6896
  150.6862  134.2264  159.4460 H   0  0  0  0  0  0  0  0  0  0  0  0  # atno 6909 bound_to 6896
  145.4765  139.2280  143.2906 H   0  0  0  0  0  0  0  0  0  0  0  0  # atno 7974 bound_to 7965
  154.6847  140.2640  155.6873 H   0  0  0  0  0  0  0  0  0  0  0  0  # atno 8008 bound_to 7997
  156.2710  140.2803  156.1326 H   0  0  0  0  0  0  0  0  0  0  0  0  # atno 8009 bound_to 7997
  155.0982  140.0374  157.2679 H   0  0  0  0  0  0  0  0  0  0  0  0  # atno 8010 bound_to 7997
  139.4824  144.5211  151.7875 H   0  0  0  0  0  0  0  0  0  0  0  0  # atno 10167 bound_to 10162
  155.9991  130.4934  150.5419 H   0  0  0  0  0  0  0  0  0  0  0  0  # atno 10718 bound_to 10713
  154.6481  135.2907  155.0020 H   0  0  0  0  0  0  0  0  0  0  0  0  # atno 10763 bound_to 10752
  154.1123  135.6560  153.4891 H   0  0  0  0  0  0  0  0  0  0  0  0  # atno 10764 bound_to 10752
  153.0362  135.5268  154.7378 H   0  0  0  0  0  0  0  0  0  0  0  0  # atno 10765 bound_to 10752
  139.8975  134.8276  156.2562 H   0  0  0  0  0  0  0  0  0  0  0  0  # atno 11005 bound_to 11000
  146.2366  140.5548  142.8952 LP  0  0  0  0  0  0  0  0  0  0  0  0  # atno 17320 bound_to 7965
  144.7914  140.6039  143.6539 LP  0  0  0  0  0  0  0  0  0  0  0  0  # atno 17321 bound_to 7965
  140.4725  144.1567  150.5920 LP  0  0  0  0  0  0  0  0  0  0  0  0  # atno 17342 bound_to 10162
  140.4367  143.2544  151.9526 LP  0  0  0  0  0  0  0  0  0  0  0  0  # atno 17343 bound_to 10162
  157.3354  131.0707  151.1829 LP  0  0  0  0  0  0  0  0  0  0  0  0  # atno 17370 bound_to 10713
  157.2695  130.6697  149.6013 LP  0  0  0  0  0  0  0  0  0  0  0  0  # atno 17371 bound_to 10713
  141.0192  133.7051  156.1239 LP  0  0  0  0  0  0  0  0  0  0  0  0  # atno 17394 bound_to 11000
  140.7258  134.4309  157.5571 LP  0  0  0  0  0  0  0  0  0  0  0  0  # atno 17395 bound_to 11000

$$$$
