AV-unprocessed.smi:3282|AV-procd|sdf|12560|dock7
  -GOLD-   2272018483D 1   1.00000     0.00000
 Structure written by MMmdl.
 34 35  0  0  0  0  0  0  0  0  1 V2000
  146.4950  142.8686  154.0579 C   0  0  0  0  0  0  0  0  0  0  0  0
  147.6083  142.0031  154.6699 C   0  0  0  0  0  0  0  0  0  0  0  0
  147.2337  140.5178  154.8077 C   0  0  0  0  0  0  0  0  0  0  0  0
  147.1895  139.9970  155.9233 O   0  0  0  0  0  0  0  0  0  0  0  0
  146.9606  139.8226  153.6839 N   0  0  0  0  0  0  0  0  0  0  0  0
  147.0006  140.3522  152.3223 C   0  0  0  0  0  0  0  0  0  0  0  0
  146.8200  139.1485  151.3973 C   0  0  0  0  0  0  0  0  0  0  0  0
  146.1087  138.1029  152.2554 C   0  0  1  0  0  0  0  0  0  0  0  0
  146.4505  136.7365  151.8739 N   0  0  0  0  0  0  0  0  0  0  0  0
  145.5590  135.7781  151.5839 C   0  0  0  0  0  0  0  0  0  0  0  0
  144.3405  135.9568  151.5999 O   0  0  0  0  0  0  0  0  0  0  0  0
  146.1679  134.6200  151.2783 N   0  0  0  0  0  0  0  0  0  0  0  0
  145.5560  133.3866  150.9404 C   0  0  0  0  0  0  0  0  0  0  0  0
  146.1608  132.2025  150.8316 N   0  0  0  0  0  0  0  0  0  0  0  0
  145.1469  131.3234  150.4797 C   0  0  0  0  0  0  0  0  0  0  0  0
  143.9760  132.0321  150.3954 C   0  0  0  0  0  0  0  0  0  0  0  0
  144.2214  133.3474  150.6856 O   0  0  0  0  0  0  0  0  0  0  0  0
  146.5693  138.4151  153.6831 C   0  0  0  0  0  0  0  0  0  0  0  0
  146.8160  143.9073  153.9778 H   0  0  0  0  0  0  0  0  0  0  0  0
  145.5929  142.8507  154.6707 H   0  0  0  0  0  0  0  0  0  0  0  0
  146.2304  142.5286  153.0560 H   0  0  0  0  0  0  0  0  0  0  0  0
  148.5020  142.0889  154.0510 H   0  0  0  0  0  0  0  0  0  0  0  0
  147.8639  142.3935  155.6554 H   0  0  0  0  0  0  0  0  0  0  0  0
  146.1789  141.0573  152.1898 H   0  0  0  0  0  0  0  0  0  0  0  0
  147.9350  140.8725  152.1080 H   0  0  0  0  0  0  0  0  0  0  0  0
  146.2670  139.3947  150.4904 H   0  0  0  0  0  0  0  0  0  0  0  0
  147.8023  138.7814  151.0953 H   0  0  0  0  0  0  0  0  0  0  0  0
  145.0296  138.2581  152.1934 H   0  0  0  0  0  0  0  0  0  0  0  0
  147.4324  136.5052  151.8363 H   0  0  0  0  0  0  0  0  0  0  0  0
  147.1771  134.6165  151.2971 H   0  0  0  0  0  0  0  0  0  0  0  0
  145.3357  130.2725  150.3171 H   0  0  0  0  0  0  0  0  0  0  0  0
  142.9561  131.7695  150.1565 H   0  0  0  0  0  0  0  0  0  0  0  0
  147.4390  137.8166  153.9602 H   0  0  0  0  0  0  0  0  0  0  0  0
  145.7770  138.2111  154.4053 H   0  0  0  0  0  0  0  0  0  0  0  0
  1  2  1  0  0  0  0
  1 19  1  0  0  0  0
  1 20  1  0  0  0  0
  1 21  1  0  0  0  0
  2  3  1  0  0  0  0
  2 22  1  0  0  0  0
  2 23  1  0  0  0  0
  3  4  2  0  0  0  0
  3  5  1  0  0  0  0
  5 18  1  0  0  0  0
  5  6  1  0  0  0  0
  6  7  1  0  0  0  0
  6 24  1  0  0  0  0
  6 25  1  0  0  0  0
  7  8  1  0  0  0  0
  7 26  1  0  0  0  0
  7 27  1  0  0  0  0
  8  9  1  0  0  0  0
  8 18  1  0  0  0  0
  8 28  1  0  0  0  0
  9 10  1  0  0  0  0
  9 29  1  0  0  0  0
 10 11  2  0  0  0  0
 10 12  1  0  0  0  0
 12 13  1  0  0  0  0
 12 30  1  0  0  0  0
 13 17  1  0  0  0  0
 13 14  2  0  0  0  0
 14 15  1  0  0  0  0
 15 16  2  0  0  0  0
 15 31  1  0  0  0  0
 16 17  1  0  0  0  0
 16 32  1  0  0  0  0
 18 33  1  0  0  0  0
 18 34  1  0  0  0  0
M  END
> <s_m_source_file>
AV-unprocessed.smi

> <i_m_source_file_index>
3282

> <i_lp_mmshare_version>
43012

> <i_f3d_flags>
0

> <s_epik_input>
W0NIM11bQ0gyXUMoPU8pTjFbQ0gyXVtDSDJdW0NASF0oW0NIMl0xKVtOSF1DKD1PKVtOSF1jMm5bY0hdW2NIXW8y

> <s_epik_cmdline>
J2VwaWtfcHl0aG9uJywgJy1waCcsICc3LjAnLCAnLXRuJywgJzgnLCAnLW1hJywgJzIwMCcsICctbWV0YWxfYmluZGluZycsICctaW1hZScsICc8aW5maWxlLm1hZT4nLCAnLW9tYWUnLCAnPG91dGZpbGUubWFlPic=

> <r_lp_tautomer_probability>
0.785861

> <r_epik_Ionization_Penalty>
4.35681e-05

> <r_epik_Ionization_Penalty_Charging>
0

> <r_epik_Ionization_Penalty_Neutral>
4.35681e-05

> <r_epik_State_Penalty>
0.0212547

> <r_epik_Charging_Adjusted_Penalty>
0.0212547

> <i_epik_Tot_Q>
0

> <i_epik_Tot_abs_Q>
0

> <r_epik_Metal_State_Penalty>
0.00779955

> <b_epik_Metal_Only>
0

> <s_lp_Force_Field>
OPLS_2005

> <r_lp_Energy>
25.4051

> <b_lp_Chiralities_Consistent>
1

> <s_lp_Variant>
AV-unprocessed.smi:3282-1

> <Gold.Version>
5.8.1

> <Gold.Id.Protein>
6NUR|6NUR_protein|mol2

> <Gold.PLP.Fitness>
35.1626

> <Gold.PLP.PLP>
-29.9140

> <Gold.PLP.part.hbond>
-1.3600

> <Gold.PLP.part.metal>
0.0000

> <Gold.PLP.part.buried>
-0.8873

> <Gold.PLP.part.nonpolar>
-28.3870

> <Gold.PLP.part.repulsive>
0.6240

> <Gold.PLP.ligand.clash>
0.0000

> <Gold.PLP.ligand.torsion>
0.0634

> <Gold.PLP.Chemscore.Hbond>
1.0401

> <Gold.PLP.Chemscore.CHOScore>
0.7491

> <Gold.PLP.Chemscore.Metal>
0.0000

> <Gold.Chemscore.Hbonds>
donor molecule, donor type, donor heavy atom, donor atom, acceptor molecule, acceptor atom, score
      L1  H     9    29       P1  7948  0.98
      L1  H    12    30       P1  7948  0.05
      L1  C    16    32       P1 10952  0.75

> <Gold.PLP.Chemscore.Internal.Correction>
0.0078

> <Gold.Rescore>
     Score         DG    S(hbond)    S(metal)    S(lipo)     H(rot)  DE(clash)    DE(int)     intcor
     11.79     -13.89       1.27        0.00      64.52       1.32       0.62       1.48       ----

> <Gold.Chemscore.Fitness>
11.7912

> <Gold.Chemscore.DG>
-13.8866

> <Gold.Chemscore.ZeroCoef>
-5.4800

> <Gold.Chemscore.Hbond>
1.2683

> <Gold.Chemscore.Metal>
0.0000

> <Gold.Chemscore.Lipo>
64.5235

> <Gold.Chemscore.Internal_Hbond>
0.0000

> <Gold.Chemscore.DEClash>
0.6160

> <Gold.Chemscore.DEInternal>
1.4793

> <Gold.Chemscore.Rot>
1.3199

> <Gold.Chemscore.Internal.Correction>
   9.000000E+99

> <Gold.Chemscore.Hbonds>
donor molecule, donor type, donor heavy atom, donor atom, acceptor molecule, acceptor atom, score
      L1  H     9    29       P1  7948  0.91
      L1  H    12    30       P1  7948  0.03

> <Gold.Chemscore.Hbond.Weighted>
-4.2363

> <Gold.Chemscore.Metal.Weighted>
-0.0000

> <Gold.Chemscore.Lipo.Weighted>
-7.5492

> <Gold.Chemscore.Internal_Hbond.Weighted>
0.0000

> <Gold.Chemscore.DEClash.Weighted>
0.6160

> <Gold.Chemscore.DEInternal.Weighted>
1.4793

> <Gold.Chemscore.Rot.Weighted>
3.3789

> <Gold.Chemscore.Internal.Correction.Weighted>
   9.000000E+99

> <Gold.Protein.RotatedTorsions>
[ 6907 6896 6895 6894 ] final -125.43 input  -60.11 | X-H torsion
[ 7974 7965 7964 7962 ] final    2.26 input  175.53 | X-H torsion
[ 8008 7997 7996 7995 ] final  126.60 input   59.86 | X-H torsion
[ 10167 10162 10161 10158 ] final -158.45 input  -65.29 | X-H torsion
[ 10718 10713 10712 10709 ] final    5.00 input   66.30 | X-H torsion
[ 10763 10752 10751 10750 ] final  -97.31 input  -60.55 | X-H torsion
[ 11005 11000 10999 10996 ] final  107.33 input  -57.11 | X-H torsion

> <Gold.Protein.ActiveResidues>
 VAL166  LYS551  ARG553  GLY616  TRP617  ASP618  TYR619  PRO620  LYS621  CYS622 
 ASP623  PHE694  ASN695  SER759  ASP760  ASP761  ALA762  ILE779  LEU786  VAL792 
 PHE793  MET794  SER795  GLU796  ALA797  LYS798  CYS799  TRP800  GLU811  SER814 

> <Gold.Protein.RotatedAtoms>
  150.8866  133.7299  159.2916 H   0  0  0  0  0  0  0  0  0  0  0  0  # atno 6907 bound_to 6896
  151.4863  135.1053  159.9801 H   0  0  0  0  0  0  0  0  0  0  0  0  # atno 6908 bound_to 6896
  152.4794  133.8171  159.7089 H   0  0  0  0  0  0  0  0  0  0  0  0  # atno 6909 bound_to 6896
  146.2443  140.0863  142.8354 H   0  0  0  0  0  0  0  0  0  0  0  0  # atno 7974 bound_to 7965
  156.2868  140.2689  156.2137 H   0  0  0  0  0  0  0  0  0  0  0  0  # atno 8008 bound_to 7997
  155.0238  140.0386  157.2466 H   0  0  0  0  0  0  0  0  0  0  0  0  # atno 8009 bound_to 7997
  154.7413  140.2725  155.6376 H   0  0  0  0  0  0  0  0  0  0  0  0  # atno 8010 bound_to 7997
  139.6691  143.9776  152.2273 H   0  0  0  0  0  0  0  0  0  0  0  0  # atno 10167 bound_to 10162
  156.9010  130.5721  149.5648 H   0  0  0  0  0  0  0  0  0  0  0  0  # atno 10718 bound_to 10713
  154.7316  135.5051  153.8974 H   0  0  0  0  0  0  0  0  0  0  0  0  # atno 10763 bound_to 10752
  153.0955  135.6671  153.9779 H   0  0  0  0  0  0  0  0  0  0  0  0  # atno 10764 bound_to 10752
  153.9579  135.3051  155.3414 H   0  0  0  0  0  0  0  0  0  0  0  0  # atno 10765 bound_to 10752
  139.8826  134.9397  156.5803 H   0  0  0  0  0  0  0  0  0  0  0  0  # atno 11005 bound_to 11000
  145.0689  140.9141  143.4893 LP  0  0  0  0  0  0  0  0  0  0  0  0  # atno 17320 bound_to 7965
  145.0993  139.2834  143.5695 LP  0  0  0  0  0  0  0  0  0  0  0  0  # atno 17321 bound_to 7965
  139.9536  144.6604  150.8148 LP  0  0  0  0  0  0  0  0  0  0  0  0  # atno 17342 bound_to 10162
  140.7611  143.3166  151.2718 LP  0  0  0  0  0  0  0  0  0  0  0  0  # atno 17343 bound_to 10162
  156.0582  130.5639  150.9136 LP  0  0  0  0  0  0  0  0  0  0  0  0  # atno 17370 bound_to 10713
  157.6026  131.0940  150.8934 LP  0  0  0  0  0  0  0  0  0  0  0  0  # atno 17371 bound_to 10713
  140.8032  133.8488  155.8745 LP  0  0  0  0  0  0  0  0  0  0  0  0  # atno 17394 bound_to 11000
  140.9574  134.1700  157.4681 LP  0  0  0  0  0  0  0  0  0  0  0  0  # atno 17395 bound_to 11000

$$$$
