AV-unprocessed.smi:3148|AV-procd|sdf|11995|dock3
  -GOLD-   2272017403D 1   1.00000     0.00000
 Structure written by MMmdl.
 35 37  0  0  0  0  0  0  0  0  2 V2000
  153.6596  140.5654  159.9843 C   0  0  0  0  0  0  0  0  0  0  0  0
  152.5620  140.4162  159.0900 O   0  0  0  0  0  0  0  0  0  0  0  0
  151.9729  141.5558  158.5823 C   0  0  0  0  0  0  0  0  0  0  0  0
  152.4515  142.8169  158.9738 C   0  0  0  0  0  0  0  0  0  0  0  0
  151.8128  143.9439  158.4215 C   0  0  0  0  0  0  0  0  0  0  0  0
  152.2394  145.3565  158.7587 C   0  0  0  0  0  0  0  0  0  0  0  0
  150.7826  143.7845  157.5537 N   0  3  0  0  0  0  0  0  0  0  0  0
  150.3737  142.5517  157.2188 C   0  0  0  0  0  0  0  0  0  0  0  0
  149.3250  142.4459  156.3231 N   0  0  0  0  0  0  0  0  0  0  0  0
  148.7693  141.1796  155.8630 C   0  0  2  0  0  0  0  0  0  0  0  0
  149.8452  140.1295  155.5572 C   0  0  0  0  0  0  0  0  0  0  0  0
  149.5350  139.7753  154.0976 C   0  0  1  0  0  0  0  0  0  0  0  0
  148.2152  139.0051  153.9544 C   0  0  0  0  0  0  0  0  0  0  0  0
  147.1832  140.1037  154.2078 C   0  0  0  0  0  0  0  0  0  0  0  0
  148.0771  141.3174  154.4970 C   0  0  2  0  0  0  0  0  0  0  0  0
  149.1510  141.0487  153.6100 O   0  0  0  0  0  0  0  0  0  0  0  0
  150.9424  141.4428  157.7122 N   0  0  0  0  0  0  0  0  0  0  0  0
  154.0047  139.5808  160.2994 H   0  0  0  0  0  0  0  0  0  0  0  0
  153.3724  141.1173  160.8807 H   0  0  0  0  0  0  0  0  0  0  0  0
  154.4988  141.0723  159.5058 H   0  0  0  0  0  0  0  0  0  0  0  0
  153.2748  142.9125  159.6669 H   0  0  0  0  0  0  0  0  0  0  0  0
  152.9966  145.3626  159.5432 H   0  0  0  0  0  0  0  0  0  0  0  0
  151.3862  145.9403  159.1055 H   0  0  0  0  0  0  0  0  0  0  0  0
  152.6565  145.8454  157.8778 H   0  0  0  0  0  0  0  0  0  0  0  0
  149.0256  143.2894  155.8559 H   0  0  0  0  0  0  0  0  0  0  0  0
  148.0582  140.8161  156.6060 H   0  0  0  0  0  0  0  0  0  0  0  0
  150.8510  140.5453  155.6363 H   0  0  0  0  0  0  0  0  0  0  0  0
  149.7864  139.2637  156.2176 H   0  0  0  0  0  0  0  0  0  0  0  0
  150.3722  139.3240  153.5646 H   0  0  0  0  0  0  0  0  0  0  0  0
  148.1056  138.6027  152.9467 H   0  0  0  0  0  0  0  0  0  0  0  0
  148.1394  138.1796  154.6628 H   0  0  0  0  0  0  0  0  0  0  0  0
  146.5793  140.2728  153.3154 H   0  0  0  0  0  0  0  0  0  0  0  0
  146.5111  139.8722  155.0347 H   0  0  0  0  0  0  0  0  0  0  0  0
  147.5788  142.2737  154.3336 H   0  0  0  0  0  0  0  0  0  0  0  0
  150.3299  144.6090  157.1584 H   0  0  0  0  0  0  0  0  0  0  0  0
  1  2  1  0  0  0  0
  1 18  1  0  0  0  0
  1 19  1  0  0  0  0
  1 20  1  0  0  0  0
  2  3  1  0  0  0  0
  3 17  1  0  0  0  0
  3  4  2  0  0  0  0
  4  5  1  0  0  0  0
  4 21  1  0  0  0  0
  5  6  1  0  0  0  0
  5  7  2  0  0  0  0
  6 22  1  0  0  0  0
  6 23  1  0  0  0  0
  6 24  1  0  0  0  0
  7  8  1  0  0  0  0
  7 35  1  0  0  0  0
  8  9  1  0  0  0  0
  8 17  2  0  0  0  0
  9 10  1  0  0  0  0
  9 25  1  0  0  0  0
 10 15  1  0  0  0  0
 10 11  1  0  0  0  0
 10 26  1  0  0  0  0
 11 12  1  0  0  0  0
 11 27  1  0  0  0  0
 11 28  1  0  0  0  0
 12 16  1  0  0  0  0
 12 13  1  0  0  0  0
 12 29  1  0  0  0  0
 13 14  1  0  0  0  0
 13 30  1  0  0  0  0
 13 31  1  0  0  0  0
 14 15  1  0  0  0  0
 14 32  1  0  0  0  0
 14 33  1  0  0  0  0
 15 16  1  0  0  0  0
 15 34  1  0  0  0  0
M  CHG  1   7   1
M  END
> <s_m_source_file>
AV-unprocessed.smi

> <i_m_source_file_index>
3148

> <i_lp_mmshare_version>
43012

> <i_f3d_flags>
0

> <s_epik_input>
W0NIM11PYzFbY0hdYyhbQ0gzXSluYyhuMSlbTkhdW0NASF0oW0NIMl1bQ0BASF0yMylbQ0BASF0oTzMpW0NIMl1bQ0gyXTI=

> <s_epik_cmdline>
J2VwaWtfcHl0aG9uJywgJy1waCcsICc3LjAnLCAnLXRuJywgJzgnLCAnLW1hJywgJzIwMCcsICctbWV0YWxfYmluZGluZycsICctaW1hZScsICc8aW5maWxlLm1hZT4nLCAnLW9tYWUnLCAnPG91dGZpbGUubWFlPic=

> <r_lp_tautomer_probability>
0.999985

> <r_epik_Ionization_Penalty>
1.09461

> <r_epik_Ionization_Penalty_Charging>
1.0946

> <r_epik_Ionization_Penalty_Neutral>
6.69406e-06

> <r_epik_State_Penalty>
1.15119

> <r_epik_Charging_Adjusted_Penalty>
2.24579

> <i_epik_Tot_Q>
1

> <i_epik_Tot_abs_Q>
1

> <r_epik_Metal_State_Penalty>
1.2392

> <b_epik_Metal_Only>
0

> <s_lp_Force_Field>
OPLS_2005

> <r_lp_Energy>
35.8621

> <b_lp_Chiralities_Consistent>
1

> <s_lp_Variant>
AV-unprocessed.smi:3148-5

> <Gold.Version>
5.8.1

> <Gold.Id.Protein>
6NUR|6NUR_protein|mol2

> <Gold.PLP.Fitness>
42.3252

> <Gold.PLP.PLP>
-30.7733

> <Gold.PLP.part.hbond>
-3.9604

> <Gold.PLP.part.metal>
0.0000

> <Gold.PLP.part.buried>
-2.8198

> <Gold.PLP.part.nonpolar>
-27.6671

> <Gold.PLP.part.repulsive>
3.3606

> <Gold.PLP.ligand.clash>
0.0840

> <Gold.PLP.ligand.torsion>
0.2968

> <Gold.PLP.Chemscore.Hbond>
4.0702

> <Gold.PLP.Chemscore.CHOScore>
0.0000

> <Gold.PLP.Chemscore.Metal>
0.0000

> <Gold.Chemscore.Hbonds>
donor molecule, donor type, donor heavy atom, donor atom, acceptor molecule, acceptor atom, score
      L1  H     7    35       P1  8028  1.17
      L1  H     9    25       P1  8028  1.59
      P1  H  8011  8017       L1    16  1.00

> <Gold.PLP.Chemscore.Internal.Correction>
0.0190

> <Gold.Rescore>
     Score         DG    S(hbond)    S(metal)    S(lipo)     H(rot)  DE(clash)    DE(int)     intcor
     15.91     -20.47       2.56        0.00      82.07       1.24       3.20       1.36       ----

> <Gold.Chemscore.Fitness>
15.9098

> <Gold.Chemscore.DG>
-20.4701

> <Gold.Chemscore.ZeroCoef>
-5.4800

> <Gold.Chemscore.Hbond>
2.5618

> <Gold.Chemscore.Metal>
0.0000

> <Gold.Chemscore.Lipo>
82.0666

> <Gold.Chemscore.Internal_Hbond>
0.0000

> <Gold.Chemscore.DEClash>
3.1997

> <Gold.Chemscore.DEInternal>
1.3606

> <Gold.Chemscore.Rot>
1.2376

> <Gold.Chemscore.Internal.Correction>
   9.000000E+99

> <Gold.Chemscore.Hbonds>
donor molecule, donor type, donor heavy atom, donor atom, acceptor molecule, acceptor atom, score
      L1  H     7    35       P1  8028  0.31
      L1  H     9    25       P1  8028  0.78
      P1  H  8011  8017       L1    16  0.92

> <Gold.Chemscore.Hbond.Weighted>
-8.5565

> <Gold.Chemscore.Metal.Weighted>
-0.0000

> <Gold.Chemscore.Lipo.Weighted>
-9.6018

> <Gold.Chemscore.Internal_Hbond.Weighted>
0.0000

> <Gold.Chemscore.DEClash.Weighted>
3.1997

> <Gold.Chemscore.DEInternal.Weighted>
1.3606

> <Gold.Chemscore.Rot.Weighted>
3.1681

> <Gold.Chemscore.Internal.Correction.Weighted>
   9.000000E+99

> <Gold.Protein.RotatedTorsions>
[ 6907 6896 6895 6894 ] final  -12.55 input  -60.11 | X-H torsion
[ 7974 7965 7964 7962 ] final   -0.15 input  175.53 | X-H torsion
[ 8008 7997 7996 7995 ] final   55.57 input   59.86 | X-H torsion
[ 10167 10162 10161 10158 ] final -158.32 input  -65.29 | X-H torsion
[ 10718 10713 10712 10709 ] final  122.64 input   66.30 | X-H torsion
[ 10763 10752 10751 10750 ] final -143.28 input  -60.55 | X-H torsion
[ 11005 11000 10999 10996 ] final  118.85 input  -57.11 | X-H torsion

> <Gold.Protein.ActiveResidues>
 VAL166  LYS551  ARG553  GLY616  TRP617  ASP618  TYR619  PRO620  LYS621  CYS622 
 ASP623  PHE694  ASN695  SER759  ASP760  ASP761  ALA762  ILE779  LEU786  VAL792 
 PHE793  MET794  SER795  GLU796  ALA797  LYS798  CYS799  TRP800  GLU811  SER814 

> <Gold.Protein.RotatedAtoms>
  151.3688  135.0918  159.9458 H   0  0  0  0  0  0  0  0  0  0  0  0  # atno 6907 bound_to 6896
  152.5141  133.9185  159.7533 H   0  0  0  0  0  0  0  0  0  0  0  0  # atno 6908 bound_to 6896
  150.9594  133.6407  159.2786 H   0  0  0  0  0  0  0  0  0  0  0  0  # atno 6909 bound_to 6896
  146.2430  140.1226  142.8340 H   0  0  0  0  0  0  0  0  0  0  0  0  # atno 7974 bound_to 7965
  155.5032  140.3475  155.4375 H   0  0  0  0  0  0  0  0  0  0  0  0  # atno 8008 bound_to 7997
  156.0899  140.1408  156.9632 H   0  0  0  0  0  0  0  0  0  0  0  0  # atno 8009 bound_to 7997
  154.4629  140.0928  156.6919 H   0  0  0  0  0  0  0  0  0  0  0  0  # atno 8010 bound_to 7997
  139.6701  143.9760  152.2278 H   0  0  0  0  0  0  0  0  0  0  0  0  # atno 10167 bound_to 10162
  157.5726  131.1082  150.8338 H   0  0  0  0  0  0  0  0  0  0  0  0  # atno 10718 bound_to 10713
  154.8476  135.3472  154.6162 H   0  0  0  0  0  0  0  0  0  0  0  0  # atno 10763 bound_to 10752
  153.6771  135.6982  153.5134 H   0  0  0  0  0  0  0  0  0  0  0  0  # atno 10764 bound_to 10752
  153.2697  135.4297  155.0932 H   0  0  0  0  0  0  0  0  0  0  0  0  # atno 10765 bound_to 10752
  139.9125  134.9624  156.7566 H   0  0  0  0  0  0  0  0  0  0  0  0  # atno 11005 bound_to 11000
  145.0394  140.8933  143.5062 LP  0  0  0  0  0  0  0  0  0  0  0  0  # atno 17320 bound_to 7965
  145.1304  139.2636  143.5542 LP  0  0  0  0  0  0  0  0  0  0  0  0  # atno 17321 bound_to 7965
  139.9522  144.6613  150.8161 LP  0  0  0  0  0  0  0  0  0  0  0  0  # atno 17342 bound_to 10162
  140.7615  143.3175  151.2699 LP  0  0  0  0  0  0  0  0  0  0  0  0  # atno 17343 bound_to 10162
  156.8806  130.5178  149.5291 LP  0  0  0  0  0  0  0  0  0  0  0  0  # atno 17370 bound_to 10713
  156.0771  130.5791  150.9494 LP  0  0  0  0  0  0  0  0  0  0  0  0  # atno 17371 bound_to 10713
  140.6731  133.9542  155.7867 LP  0  0  0  0  0  0  0  0  0  0  0  0  # atno 17394 bound_to 11000
  141.0564  134.0411  157.3717 LP  0  0  0  0  0  0  0  0  0  0  0  0  # atno 17395 bound_to 11000

$$$$
