AV-unprocessed.smi:1740|AV-procd|sdf|7006|dock9
  -GOLD-   22720 8213D 1   1.00000     0.00000
 Structure written by MMmdl.
 51 53  0  0  0  0  0  0  0  0  1 V2000
  142.1276  132.1322  147.9911 N   0  0  0  0  0  0  0  0  0  0  0  0
  143.2796  132.6800  148.3848 C   0  0  0  0  0  0  0  0  0  0  0  0
  143.9867  133.3385  147.6251 O   0  0  0  0  0  0  0  0  0  0  0  0
  143.6958  132.4631  149.8450 C   0  0  0  0  0  0  0  0  0  0  0  0
  144.6528  133.4649  150.3679 N   0  0  0  0  0  0  0  0  0  0  0  0
  145.0304  133.1010  151.7378 C   0  0  0  0  0  0  0  0  0  0  0  0
  146.1200  134.0468  152.2722 C   0  0  0  0  0  0  0  0  0  0  0  0
  145.6466  135.5086  152.2383 C   0  0  0  0  0  0  0  0  0  0  0  0
  146.7221  136.4154  152.6271 N   0  0  0  0  0  0  0  0  0  0  0  0
  146.5587  137.5669  153.2930 C   0  0  0  0  0  0  0  0  0  0  0  0
  145.4632  137.9945  153.6573 O   0  0  0  0  0  0  0  0  0  0  0  0
  147.7349  138.1864  153.4860 N   0  0  0  0  0  0  0  0  0  0  0  0
  147.9714  139.4438  154.1099 C   0  0  0  0  0  0  0  0  0  0  0  0
  147.0453  140.5098  154.0005 C   0  0  0  0  0  0  0  0  0  0  0  0
  147.2893  141.7094  154.6910 C   0  0  0  0  0  0  0  0  0  0  0  0
  148.4462  141.7963  155.4827 C   0  0  0  0  0  0  0  0  0  0  0  0
  149.3299  140.7864  155.6093 N   0  0  0  0  0  0  0  0  0  0  0  0
  149.1161  139.6280  154.9374 C   0  0  0  0  0  0  0  0  0  0  0  0
  150.0859  138.6109  155.0909 N   0  0  0  0  0  0  0  0  0  0  0  0
  151.4400  138.8842  154.6175 C   0  0  0  0  0  0  0  0  0  0  0  0
  152.3915  138.2218  155.6195 C   0  0  0  0  0  0  0  0  0  0  0  0
  151.5248  137.1617  156.2916 C   0  0  0  0  0  0  0  0  0  0  0  0
  150.1559  137.8351  156.3249 C   0  0  0  0  0  0  0  0  0  0  0  0
  145.1673  135.8430  150.8195 C   0  0  0  0  0  0  0  0  0  0  0  0
  144.1130  134.8325  150.3338 C   0  0  0  0  0  0  0  0  0  0  0  0
  141.8170  132.2520  147.0379 H   0  0  0  0  0  0  0  0  0  0  0  0
  141.5712  131.6017  148.6454 H   0  0  0  0  0  0  0  0  0  0  0  0
  142.8089  132.4367  150.4811 H   0  0  0  0  0  0  0  0  0  0  0  0
  144.1451  131.4706  149.9012 H   0  0  0  0  0  0  0  0  0  0  0  0
  144.1573  133.1247  152.3925 H   0  0  0  0  0  0  0  0  0  0  0  0
  145.4124  132.0795  151.7566 H   0  0  0  0  0  0  0  0  0  0  0  0
  146.3852  133.7609  153.2906 H   0  0  0  0  0  0  0  0  0  0  0  0
  147.0253  133.9324  151.6734 H   0  0  0  0  0  0  0  0  0  0  0  0
  144.8048  135.6295  152.9232 H   0  0  0  0  0  0  0  0  0  0  0  0
  147.6596  136.1453  152.3675 H   0  0  0  0  0  0  0  0  0  0  0  0
  148.5397  137.7637  153.0468 H   0  0  0  0  0  0  0  0  0  0  0  0
  146.1415  140.4188  153.4174 H   0  0  0  0  0  0  0  0  0  0  0  0
  146.5992  142.5373  154.6250 H   0  0  0  0  0  0  0  0  0  0  0  0
  148.6657  142.6983  156.0345 H   0  0  0  0  0  0  0  0  0  0  0  0
  151.5656  138.4329  153.6329 H   0  0  0  0  0  0  0  0  0  0  0  0
  151.6377  139.9534  154.5277 H   0  0  0  0  0  0  0  0  0  0  0  0
  153.2835  137.8088  155.1476 H   0  0  0  0  0  0  0  0  0  0  0  0
  152.7119  138.9553  156.3608 H   0  0  0  0  0  0  0  0  0  0  0  0
  151.4859  136.2642  155.6727 H   0  0  0  0  0  0  0  0  0  0  0  0
  151.8841  136.8782  157.2812 H   0  0  0  0  0  0  0  0  0  0  0  0
  150.0950  138.4854  157.1986 H   0  0  0  0  0  0  0  0  0  0  0  0
  149.3465  137.1066  156.3814 H   0  0  0  0  0  0  0  0  0  0  0  0
  144.7498  136.8501  150.7947 H   0  0  0  0  0  0  0  0  0  0  0  0
  146.0125  135.8415  150.1291 H   0  0  0  0  0  0  0  0  0  0  0  0
  143.8228  135.1120  149.3210 H   0  0  0  0  0  0  0  0  0  0  0  0
  143.2139  134.8977  150.9490 H   0  0  0  0  0  0  0  0  0  0  0  0
  1  2  1  0  0  0  0
  1 26  1  0  0  0  0
  1 27  1  0  0  0  0
  2  3  2  0  0  0  0
  2  4  1  0  0  0  0
  4  5  1  0  0  0  0
  4 28  1  0  0  0  0
  4 29  1  0  0  0  0
  5 25  1  0  0  0  0
  5  6  1  0  0  0  0
  6  7  1  0  0  0  0
  6 30  1  0  0  0  0
  6 31  1  0  0  0  0
  7  8  1  0  0  0  0
  7 32  1  0  0  0  0
  7 33  1  0  0  0  0
  8  9  1  0  0  0  0
  8 24  1  0  0  0  0
  8 34  1  0  0  0  0
  9 10  1  0  0  0  0
  9 35  1  0  0  0  0
 10 11  2  0  0  0  0
 10 12  1  0  0  0  0
 12 13  1  0  0  0  0
 12 36  1  0  0  0  0
 13 18  1  0  0  0  0
 13 14  2  0  0  0  0
 14 15  1  0  0  0  0
 14 37  1  0  0  0  0
 15 16  2  0  0  0  0
 15 38  1  0  0  0  0
 16 17  1  0  0  0  0
 16 39  1  0  0  0  0
 17 18  2  0  0  0  0
 18 19  1  0  0  0  0
 19 23  1  0  0  0  0
 19 20  1  0  0  0  0
 20 21  1  0  0  0  0
 20 40  1  0  0  0  0
 20 41  1  0  0  0  0
 21 22  1  0  0  0  0
 21 42  1  0  0  0  0
 21 43  1  0  0  0  0
 22 23  1  0  0  0  0
 22 44  1  0  0  0  0
 22 45  1  0  0  0  0
 23 46  1  0  0  0  0
 23 47  1  0  0  0  0
 24 25  1  0  0  0  0
 24 48  1  0  0  0  0
 24 49  1  0  0  0  0
 25 50  1  0  0  0  0
 25 51  1  0  0  0  0
M  END
> <s_m_source_file>
AV-unprocessed.smi

> <i_m_source_file_index>
1740

> <i_lp_mmshare_version>
43012

> <i_f3d_flags>
0

> <s_epik_input>
W05IMl1DKD1PKVtDSDJdTjFbQ0gyXVtDSDJdW0NIXShbQ0gyXVtDSDJdMSlbTkhdQyg9TylbTkhdYzJbY0hdW2NIXVtjSF1uYzJOM1tDSDJdW0NIMl1bQ0gyXVtDSDJdMw==

> <s_epik_cmdline>
J2VwaWtfcHl0aG9uJywgJy1waCcsICc3LjAnLCAnLXRuJywgJzgnLCAnLW1hJywgJzIwMCcsICctbWV0YWxfYmluZGluZycsICctaW1hZScsICc8aW5maWxlLm1hZT4nLCAnLW9tYWUnLCAnPG91dGZpbGUubWFlPic=

> <r_lp_tautomer_probability>
1

> <r_epik_Ionization_Penalty>
0.268698

> <r_epik_Ionization_Penalty_Charging>
0

> <r_epik_Ionization_Penalty_Neutral>
0.268698

> <r_epik_State_Penalty>
0.247497

> <r_epik_Charging_Adjusted_Penalty>
0.247497

> <i_epik_Tot_Q>
0

> <i_epik_Tot_abs_Q>
0

> <r_epik_Metal_State_Penalty>
0.244805

> <b_epik_Metal_Only>
0

> <s_lp_Force_Field>
OPLS_2005

> <r_lp_Energy>
39.8984

> <b_lp_Chiralities_Consistent>
1

> <s_lp_Variant>
AV-unprocessed.smi:1740-1

> <Gold.Version>
5.8.1

> <Gold.Id.Protein>
6NUR|6NUR_protein|mol2

> <Gold.PLP.Fitness>
47.7251

> <Gold.PLP.PLP>
-34.2910

> <Gold.PLP.part.hbond>
-5.4050

> <Gold.PLP.part.metal>
0.0000

> <Gold.PLP.part.buried>
-3.6347

> <Gold.PLP.part.nonpolar>
-32.0890

> <Gold.PLP.part.repulsive>
5.0931

> <Gold.PLP.ligand.clash>
0.0000

> <Gold.PLP.ligand.torsion>
1.1305

> <Gold.PLP.Chemscore.Hbond>
4.1215

> <Gold.PLP.Chemscore.CHOScore>
1.0000

> <Gold.PLP.Chemscore.Metal>
0.0000

> <Gold.Chemscore.Hbonds>
donor molecule, donor type, donor heavy atom, donor atom, acceptor molecule, acceptor atom, score
      L1  H     1    26       P1 10195  1.00
      L1  H     1    27       P1 10952  1.00
      L1  H     9    35       P1  7948  0.62
      L1  H    12    36       P1  7948  0.80
      P1  H  7918  7932       L1     3  0.69
      L1  C    16    39       P1  8028  1.00

> <Gold.PLP.Chemscore.Internal.Correction>
0.3307

> <Gold.Rescore>
     Score         DG    S(hbond)    S(metal)    S(lipo)     H(rot)  DE(clash)    DE(int)     intcor
     19.35     -24.22       4.42        0.00      81.20       2.16       2.60       2.27       ----

> <Gold.Chemscore.Fitness>
19.3547

> <Gold.Chemscore.DG>
-24.2211

> <Gold.Chemscore.ZeroCoef>
-5.4800

> <Gold.Chemscore.Hbond>
4.4249

> <Gold.Chemscore.Metal>
0.0000

> <Gold.Chemscore.Lipo>
81.1993

> <Gold.Chemscore.Internal_Hbond>
0.0000

> <Gold.Chemscore.DEClash>
2.5977

> <Gold.Chemscore.DEInternal>
2.2687

> <Gold.Chemscore.Rot>
2.1635

> <Gold.Chemscore.Internal.Correction>
   9.000000E+99

> <Gold.Chemscore.Hbonds>
donor molecule, donor type, donor heavy atom, donor atom, acceptor molecule, acceptor atom, score
      L1  H     1    26       P1 10195  0.95
      L1  H     1    27       P1 10952  1.00
      L1  H     9    35       P1  7948  0.62
      L1  H    12    36       P1  7948  0.78
      P1  H  7918  7932       L1     3  0.69

> <Gold.Chemscore.Hbond.Weighted>
-14.7793

> <Gold.Chemscore.Metal.Weighted>
-0.0000

> <Gold.Chemscore.Lipo.Weighted>
-9.5003

> <Gold.Chemscore.Internal_Hbond.Weighted>
0.0000

> <Gold.Chemscore.DEClash.Weighted>
2.5977

> <Gold.Chemscore.DEInternal.Weighted>
2.2687

> <Gold.Chemscore.Rot.Weighted>
5.5385

> <Gold.Chemscore.Internal.Correction.Weighted>
   9.000000E+99

> <Gold.Protein.RotatedTorsions>
[ 6907 6896 6895 6894 ] final   -4.36 input  -60.11 | X-H torsion
[ 7974 7965 7964 7962 ] final -165.03 input  175.53 | X-H torsion
[ 8008 7997 7996 7995 ] final  -42.83 input   59.86 | X-H torsion
[ 10167 10162 10161 10158 ] final   -3.76 input  -65.29 | X-H torsion
[ 10718 10713 10712 10709 ] final  117.51 input   66.30 | X-H torsion
[ 10763 10752 10751 10750 ] final  -64.04 input  -60.55 | X-H torsion
[ 11005 11000 10999 10996 ] final -118.09 input  -57.11 | X-H torsion

> <Gold.Protein.ActiveResidues>
 VAL166  LYS551  ARG553  GLY616  TRP617  ASP618  TYR619  PRO620  LYS621  CYS622 
 ASP623  PHE694  ASN695  SER759  ASP760  ASP761  ALA762  ILE779  LEU786  VAL792 
 PHE793  MET794  SER795  GLU796  ALA797  LYS798  CYS799  TRP800  GLU811  SER814 

> <Gold.Protein.RotatedAtoms>
  151.4988  135.1061  159.9823 H   0  0  0  0  0  0  0  0  0  0  0  0  # atno 6907 bound_to 6896
  152.4710  133.8026  159.6971 H   0  0  0  0  0  0  0  0  0  0  0  0  # atno 6908 bound_to 6896
  150.8720  133.7430  159.2984 H   0  0  0  0  0  0  0  0  0  0  0  0  # atno 6909 bound_to 6896
  144.7281  140.2874  143.6226 H   0  0  0  0  0  0  0  0  0  0  0  0  # atno 7974 bound_to 7965
  154.3998  140.1463  156.3419 H   0  0  0  0  0  0  0  0  0  0  0  0  # atno 8008 bound_to 7997
  155.8349  140.3464  155.5574 H   0  0  0  0  0  0  0  0  0  0  0  0  # atno 8009 bound_to 7997
  155.8149  140.0889  157.1873 H   0  0  0  0  0  0  0  0  0  0  0  0  # atno 8010 bound_to 7997
  140.6902  143.6502  150.8357 H   0  0  0  0  0  0  0  0  0  0  0  0  # atno 10167 bound_to 10162
  157.6091  131.1038  150.7625 H   0  0  0  0  0  0  0  0  0  0  0  0  # atno 10718 bound_to 10713
  154.3240  135.6190  153.5521 H   0  0  0  0  0  0  0  0  0  0  0  0  # atno 10763 bound_to 10752
  152.9817  135.5731  154.5037 H   0  0  0  0  0  0  0  0  0  0  0  0  # atno 10764 bound_to 10752
  154.4711  135.2859  155.1619 H   0  0  0  0  0  0  0  0  0  0  0  0  # atno 10765 bound_to 10752
  141.0310  133.9982  157.3143 H   0  0  0  0  0  0  0  0  0  0  0  0  # atno 11005 bound_to 11000
  145.7889  139.1919  143.2114 LP  0  0  0  0  0  0  0  0  0  0  0  0  # atno 17320 bound_to 7965
  146.0772  140.7804  142.9659 LP  0  0  0  0  0  0  0  0  0  0  0  0  # atno 17321 bound_to 7965
  140.0214  143.5539  152.2799 LP  0  0  0  0  0  0  0  0  0  0  0  0  # atno 17342 bound_to 10162
  139.6298  144.7642  151.2560 LP  0  0  0  0  0  0  0  0  0  0  0  0  # atno 17343 bound_to 10162
  156.8007  130.4920  149.5370 LP  0  0  0  0  0  0  0  0  0  0  0  0  # atno 17370 bound_to 10713
  156.1188  130.6094  151.0161 LP  0  0  0  0  0  0  0  0  0  0  0  0  # atno 17371 bound_to 10713
  139.9208  135.0200  156.8055 LP  0  0  0  0  0  0  0  0  0  0  0  0  # atno 17394 bound_to 11000
  140.6407  133.9821  155.7706 LP  0  0  0  0  0  0  0  0  0  0  0  0  # atno 17395 bound_to 11000

$$$$
