AV-unprocessed.smi:2845|AV-procd|sdf|10946|dock9
  -GOLD-   2272015393D 1   1.00000     0.00000
 Structure written by MMmdl.
 42 44  0  0  0  0  0  0  0  0  1 V2000
  152.7508  143.3710  161.6430 C   0  0  0  0  0  0  0  0  0  0  0  0
  152.2532  142.8904  160.2913 C   0  0  0  0  0  0  0  0  0  0  0  0
  152.7632  141.6842  159.7609 C   0  0  0  0  0  0  0  0  0  0  0  0
  152.3279  141.2030  158.5068 C   0  0  0  0  0  0  0  0  0  0  0  0
  152.6924  140.0658  157.8067 N   0  0  0  0  0  0  0  0  0  0  0  0
  151.9463  140.1758  156.7117 C   0  0  0  0  0  0  0  0  0  0  0  0
  151.1372  141.2487  156.6205 N   0  0  0  0  0  0  0  0  0  0  0  0
  150.2438  141.5739  155.5224 C   0  0  0  0  0  0  0  0  0  0  0  0
  149.0569  140.5978  155.4177 C   0  0  1  0  0  0  0  0  0  0  0  0
  147.8616  141.3238  155.1992 O   0  0  0  0  0  0  0  0  0  0  0  0
  149.2561  139.5675  154.2900 C   0  0  0  0  0  0  0  0  0  0  0  0
  150.1707  138.5052  154.6674 N   0  0  0  0  0  0  0  0  0  0  0  0
  151.4456  138.3009  154.3237 C   0  0  0  0  0  0  0  0  0  0  0  0
  151.9849  137.2185  154.8686 N   0  0  0  0  0  0  0  0  0  0  0  0
  150.9077  136.7816  155.5828 C   0  0  0  0  0  0  0  0  0  0  0  0
  150.9959  135.2744  156.6000 S   0  0  2  0  0  0  0  0  0  0  0  0
  149.8959  134.2484  155.5145 C   0  0  0  0  0  0  0  0  0  0  0  0
  150.2103  135.5807  157.8767 O   0  0  0  0  0  0  0  0  0  0  0  0
  149.7936  137.5068  155.5011 N   0  0  0  0  0  0  0  0  0  0  0  0
  151.3584  141.9661  157.7918 C   0  0  0  0  0  0  0  0  0  0  0  0
  150.8422  143.1671  158.3105 C   0  0  0  0  0  0  0  0  0  0  0  0
  151.2897  143.6346  159.5642 C   0  0  0  0  0  0  0  0  0  0  0  0
  150.7278  144.9338  160.1139 C   0  0  0  0  0  0  0  0  0  0  0  0
  153.4935  142.6897  162.0594 H   0  0  0  0  0  0  0  0  0  0  0  0
  151.9251  143.4393  162.3515 H   0  0  0  0  0  0  0  0  0  0  0  0
  153.2130  144.3541  161.5527 H   0  0  0  0  0  0  0  0  0  0  0  0
  153.4967  141.1164  160.3143 H   0  0  0  0  0  0  0  0  0  0  0  0
  151.9882  139.4318  155.9294 H   0  0  0  0  0  0  0  0  0  0  0  0
  149.8862  142.5967  155.6469 H   0  0  0  0  0  0  0  0  0  0  0  0
  150.8252  141.5582  154.5997 H   0  0  0  0  0  0  0  0  0  0  0  0
  148.9536  140.0659  156.3646 H   0  0  0  0  0  0  0  0  0  0  0  0
  147.5728  141.1700  154.3124 H   0  0  0  0  0  0  0  0  0  0  0  0
  148.3017  139.1295  153.9926 H   0  0  0  0  0  0  0  0  0  0  0  0
  149.6633  140.0574  153.4046 H   0  0  0  0  0  0  0  0  0  0  0  0
  151.9909  138.9598  153.6639 H   0  0  0  0  0  0  0  0  0  0  0  0
  149.8695  134.6385  154.4969 H   0  0  0  0  0  0  0  0  0  0  0  0
  148.8800  134.2401  155.9091 H   0  0  0  0  0  0  0  0  0  0  0  0
  150.2613  133.2222  155.4779 H   0  0  0  0  0  0  0  0  0  0  0  0
  150.1071  143.7235  157.7484 H   0  0  0  0  0  0  0  0  0  0  0  0
  149.9839  145.3616  159.4413 H   0  0  0  0  0  0  0  0  0  0  0  0
  151.5228  145.6683  160.2439 H   0  0  0  0  0  0  0  0  0  0  0  0
  150.2487  144.7662  161.0787 H   0  0  0  0  0  0  0  0  0  0  0  0
  1  2  1  0  0  0  0
  1 24  1  0  0  0  0
  1 25  1  0  0  0  0
  1 26  1  0  0  0  0
  2 22  1  0  0  0  0
  2  3  2  0  0  0  0
  3  4  1  0  0  0  0
  3 27  1  0  0  0  0
  4 20  2  0  0  0  0
  4  5  1  0  0  0  0
  5  6  2  0  0  0  0
  6  7  1  0  0  0  0
  6 28  1  0  0  0  0
  7  8  1  0  0  0  0
  7 20  1  0  0  0  0
  8  9  1  0  0  0  0
  8 29  1  0  0  0  0
  8 30  1  0  0  0  0
  9 10  1  0  0  0  0
  9 11  1  0  0  0  0
  9 31  1  0  0  0  0
 10 32  1  0  0  0  0
 11 12  1  0  0  0  0
 11 33  1  0  0  0  0
 11 34  1  0  0  0  0
 12 19  1  0  0  0  0
 12 13  1  0  0  0  0
 13 14  2  0  0  0  0
 13 35  1  0  0  0  0
 14 15  1  0  0  0  0
 15 16  1  0  0  0  0
 15 19  2  0  0  0  0
 16 17  1  0  0  0  0
 16 18  2  0  0  0  0
 17 36  1  0  0  0  0
 17 37  1  0  0  0  0
 17 38  1  0  0  0  0
 20 21  1  0  0  0  0
 21 22  2  0  0  0  0
 21 39  1  0  0  0  0
 22 23  1  0  0  0  0
 23 40  1  0  0  0  0
 23 41  1  0  0  0  0
 23 42  1  0  0  0  0
M  END
> <s_m_source_file>
AV-unprocessed.smi

> <i_m_source_file_index>
2845

> <i_lp_mmshare_version>
43012

> <i_f3d_flags>
0

> <s_epik_input>
W0NIM11jKFtjSF0xKWMoW0NIM10pW2NIXWMoYzEyKW4oW2NIXW4yKVtDSDJdW0NASF0oW09IXSlbQ0gyXW4zW2NIXW5jKG4zKVtTQF0oPU8pW0NIM10=

> <s_epik_cmdline>
J2VwaWtfcHl0aG9uJywgJy1waCcsICc3LjAnLCAnLXRuJywgJzgnLCAnLW1hJywgJzIwMCcsICctbWV0YWxfYmluZGluZycsICctaW1hZScsICc8aW5maWxlLm1hZT4nLCAnLW9tYWUnLCAnPG91dGZpbGUubWFlPic=

> <r_lp_tautomer_probability>
1

> <r_epik_Ionization_Penalty>
0.0968684

> <r_epik_Ionization_Penalty_Charging>
0

> <r_epik_Ionization_Penalty_Neutral>
0.0968684

> <r_epik_State_Penalty>
0.0870047

> <r_epik_Charging_Adjusted_Penalty>
0.0870047

> <i_epik_Tot_Q>
0

> <i_epik_Tot_abs_Q>
0

> <r_epik_Metal_State_Penalty>
0.0746849

> <b_epik_Metal_Only>
0

> <s_lp_Force_Field>
OPLS_2005

> <r_lp_Energy>
9.68664

> <b_lp_Chiralities_Consistent>
1

> <s_lp_Variant>
AV-unprocessed.smi:2845-4

> <Gold.Version>
5.8.1

> <Gold.Id.Protein>
6NUR|6NUR_protein|mol2

> <Gold.PLP.Fitness>
50.6668

> <Gold.PLP.PLP>
-45.4569

> <Gold.PLP.part.hbond>
-3.0000

> <Gold.PLP.part.metal>
0.0000

> <Gold.PLP.part.buried>
-6.7003

> <Gold.PLP.part.nonpolar>
-36.0291

> <Gold.PLP.part.repulsive>
0.1882

> <Gold.PLP.ligand.clash>
0.0000

> <Gold.PLP.ligand.torsion>
2.0269

> <Gold.PLP.Chemscore.Hbond>
2.7440

> <Gold.PLP.Chemscore.CHOScore>
0.0000

> <Gold.PLP.Chemscore.Metal>
0.0000

> <Gold.Chemscore.Hbonds>
donor molecule, donor type, donor heavy atom, donor atom, acceptor molecule, acceptor atom, score
      P1  H  6896  6909       L1    18  0.75
      P1  H  7997  8008       L1     5  0.90
      P1  H 10752 10764       L1    14  0.90

> <Gold.PLP.Chemscore.Internal.Correction>
1.0319

> <Gold.Rescore>
     Score         DG    S(hbond)    S(metal)    S(lipo)     H(rot)  DE(clash)    DE(int)     intcor
     15.59     -17.77       2.31        0.00      98.49       2.71       0.04       2.14       ----

> <Gold.Chemscore.Fitness>
15.5852

> <Gold.Chemscore.DG>
-17.7662

> <Gold.Chemscore.ZeroCoef>
-5.4800

> <Gold.Chemscore.Hbond>
2.3063

> <Gold.Chemscore.Metal>
0.0000

> <Gold.Chemscore.Lipo>
98.4860

> <Gold.Chemscore.Internal_Hbond>
0.0000

> <Gold.Chemscore.DEClash>
0.0444

> <Gold.Chemscore.DEInternal>
2.1366

> <Gold.Chemscore.Rot>
2.7108

> <Gold.Chemscore.Internal.Correction>
   9.000000E+99

> <Gold.Chemscore.Hbonds>
donor molecule, donor type, donor heavy atom, donor atom, acceptor molecule, acceptor atom, score
      P1  H  6896  6909       L1    18  0.70
      P1  H  7997  8008       L1     5  0.15
      P1  H 10752 10764       L1    14  0.49

> <Gold.Chemscore.Hbond.Weighted>
-7.7030

> <Gold.Chemscore.Metal.Weighted>
-0.0000

> <Gold.Chemscore.Lipo.Weighted>
-11.5229

> <Gold.Chemscore.Internal_Hbond.Weighted>
0.0000

> <Gold.Chemscore.DEClash.Weighted>
0.0444

> <Gold.Chemscore.DEInternal.Weighted>
2.1366

> <Gold.Chemscore.Rot.Weighted>
6.9396

> <Gold.Chemscore.Internal.Correction.Weighted>
   9.000000E+99

> <Gold.Protein.RotatedTorsions>
[ 6907 6896 6895 6894 ] final   49.52 input  -60.11 | X-H torsion
[ 7974 7965 7964 7962 ] final   49.89 input  175.53 | X-H torsion
[ 8008 7997 7996 7995 ] final  -78.36 input   59.86 | X-H torsion
[ 10167 10162 10161 10158 ] final  169.84 input  -65.29 | X-H torsion
[ 10718 10713 10712 10709 ] final   23.28 input   66.30 | X-H torsion
[ 10763 10752 10751 10750 ] final  -73.66 input  -60.55 | X-H torsion
[ 11005 11000 10999 10996 ] final   51.73 input  -57.11 | X-H torsion

> <Gold.Protein.ActiveResidues>
 VAL166  LYS551  ARG553  GLY616  TRP617  ASP618  TYR619  PRO620  LYS621  CYS622 
 ASP623  PHE694  ASN695  SER759  ASP760  ASP761  ALA762  ILE779  LEU786  VAL792 
 PHE793  MET794  SER795  GLU796  ALA797  LYS798  CYS799  TRP800  GLU811  SER814 

> <Gold.Protein.RotatedAtoms>
  152.2917  134.7713  160.0376 H   0  0  0  0  0  0  0  0  0  0  0  0  # atno 6907 bound_to 6896
  151.8257  133.3396  159.3606 H   0  0  0  0  0  0  0  0  0  0  0  0  # atno 6908 bound_to 6896
  150.7233  134.5460  159.5815 H   0  0  0  0  0  0  0  0  0  0  0  0  # atno 6909 bound_to 6896
  146.0065  139.4495  142.9983 H   0  0  0  0  0  0  0  0  0  0  0  0  # atno 7974 bound_to 7965
  154.5682  140.0695  156.8924 H   0  0  0  0  0  0  0  0  0  0  0  0  # atno 8008 bound_to 7997
  155.2684  140.3363  155.4249 H   0  0  0  0  0  0  0  0  0  0  0  0  # atno 8009 bound_to 7997
  156.2097  140.1754  156.7707 H   0  0  0  0  0  0  0  0  0  0  0  0  # atno 8010 bound_to 7997
  139.5003  144.3662  151.9773 H   0  0  0  0  0  0  0  0  0  0  0  0  # atno 10167 bound_to 10162
  157.1639  130.6729  149.6054 H   0  0  0  0  0  0  0  0  0  0  0  0  # atno 10718 bound_to 10713
  154.4625  135.5890  153.6265 H   0  0  0  0  0  0  0  0  0  0  0  0  # atno 10763 bound_to 10752
  152.9825  135.6047  154.3469 H   0  0  0  0  0  0  0  0  0  0  0  0  # atno 10764 bound_to 10752
  154.3342  135.2842  155.2435 H   0  0  0  0  0  0  0  0  0  0  0  0  # atno 10765 bound_to 10752
  140.0908  134.5211  155.8853 H   0  0  0  0  0  0  0  0  0  0  0  0  # atno 11005 bound_to 11000
  145.7408  141.0008  143.1302 LP  0  0  0  0  0  0  0  0  0  0  0  0  # atno 17320 bound_to 7965
  144.6937  139.9097  143.7463 LP  0  0  0  0  0  0  0  0  0  0  0  0  # atno 17321 bound_to 7965
  140.3098  144.3551  150.6037 LP  0  0  0  0  0  0  0  0  0  0  0  0  # atno 17342 bound_to 10162
  140.5808  143.2173  151.7432 LP  0  0  0  0  0  0  0  0  0  0  0  0  # atno 17343 bound_to 10162
  155.9749  130.4702  150.6422 LP  0  0  0  0  0  0  0  0  0  0  0  0  # atno 17370 bound_to 10713
  157.4107  131.0823  151.1224 LP  0  0  0  0  0  0  0  0  0  0  0  0  # atno 17371 bound_to 10713
  141.2077  133.6667  156.6324 LP  0  0  0  0  0  0  0  0  0  0  0  0  # atno 17394 bound_to 11000
  140.3354  134.7893  157.4358 LP  0  0  0  0  0  0  0  0  0  0  0  0  # atno 17395 bound_to 11000

$$$$
