AV-unprocessed.smi:2594|AV-procd|sdf|10167|dock10
  -GOLD-   2272014183D 1   1.00000     0.00000
 Structure written by MMmdl.
 29 30  0  0  0  0  0  0  0  0  1 V2000
  153.5851  139.7353  158.7850 O   0  0  0  0  0  0  0  0  0  0  0  0
  152.3781  139.5296  158.9244 C   0  0  0  0  0  0  0  0  0  0  0  0
  151.8698  138.3187  159.7184 C   0  0  0  0  0  0  0  0  0  0  0  0
  152.9141  137.6648  160.5084 N   0  0  0  0  0  0  0  0  0  0  0  0
  153.1253  136.3344  160.3197 N   0  0  0  0  0  0  0  0  0  0  0  0
  154.0572  135.8945  161.0812 C   0  0  0  0  0  0  0  0  0  0  0  0
  154.8176  137.0811  162.1492 S   0  0  0  0  0  0  0  0  0  0  0  0
  153.7170  138.3011  161.4510 C   0  0  0  0  0  0  0  0  0  0  0  0
  153.7150  139.4843  161.7853 O   0  0  0  0  0  0  0  0  0  0  0  0
  151.4335  140.3400  158.4240 N   0  0  0  0  0  0  0  0  0  0  0  0
  151.6895  141.5537  157.6572 C   0  0  0  0  0  0  0  0  0  0  0  0
  151.3184  142.8154  158.4538 C   0  0  1  0  0  0  0  0  0  0  0  0
  152.1773  143.0329  159.6970 C   0  0  0  0  0  0  0  0  0  0  0  0
  152.0112  144.5188  159.9199 C   0  0  0  0  0  0  0  0  0  0  0  0
  151.9937  145.0553  158.4902 C   0  0  0  0  0  0  0  0  0  0  0  0
  151.5262  143.9870  157.6691 O   0  0  0  0  0  0  0  0  0  0  0  0
  151.0570  138.6471  160.3684 H   0  0  0  0  0  0  0  0  0  0  0  0
  151.4375  137.5898  159.0307 H   0  0  0  0  0  0  0  0  0  0  0  0
  154.4183  134.8673  161.1285 H   0  0  0  0  0  0  0  0  0  0  0  0
  150.4664  140.1043  158.5936 H   0  0  0  0  0  0  0  0  0  0  0  0
  152.7391  141.5892  157.3603 H   0  0  0  0  0  0  0  0  0  0  0  0
  151.1088  141.5077  156.7353 H   0  0  0  0  0  0  0  0  0  0  0  0
  150.2687  142.7874  158.7515 H   0  0  0  0  0  0  0  0  0  0  0  0
  151.8533  142.4334  160.5480 H   0  0  0  0  0  0  0  0  0  0  0  0
  153.2233  142.8008  159.4907 H   0  0  0  0  0  0  0  0  0  0  0  0
  151.0556  144.7169  160.4069 H   0  0  0  0  0  0  0  0  0  0  0  0
  152.8025  144.9542  160.5306 H   0  0  0  0  0  0  0  0  0  0  0  0
  151.3612  145.9377  158.3902 H   0  0  0  0  0  0  0  0  0  0  0  0
  153.0007  145.3227  158.1678 H   0  0  0  0  0  0  0  0  0  0  0  0
  1  2  2  0  0  0  0
  2  3  1  0  0  0  0
  2 10  1  0  0  0  0
  3  4  1  0  0  0  0
  3 17  1  0  0  0  0
  3 18  1  0  0  0  0
  4  8  1  0  0  0  0
  4  5  1  0  0  0  0
  5  6  2  0  0  0  0
  6  7  1  0  0  0  0
  6 19  1  0  0  0  0
  7  8  1  0  0  0  0
  8  9  2  0  0  0  0
 10 11  1  0  0  0  0
 10 20  1  0  0  0  0
 11 12  1  0  0  0  0
 11 21  1  0  0  0  0
 11 22  1  0  0  0  0
 12 16  1  0  0  0  0
 12 13  1  0  0  0  0
 12 23  1  0  0  0  0
 13 14  1  0  0  0  0
 13 24  1  0  0  0  0
 13 25  1  0  0  0  0
 14 15  1  0  0  0  0
 14 26  1  0  0  0  0
 14 27  1  0  0  0  0
 15 16  1  0  0  0  0
 15 28  1  0  0  0  0
 15 29  1  0  0  0  0
M  END
> <s_m_source_file>
AV-unprocessed.smi

> <i_m_source_file_index>
2594

> <i_lp_mmshare_version>
43012

> <i_f3d_flags>
0

> <s_epik_input>
TzFbQ0gyXVtDSDJdW0NIMl1bQ0BIXTFbQ0gyXVtOSF1DKD1PKVtDSDJdbjJuW2NIXXNjMj1P

> <s_epik_cmdline>
J2VwaWtfcHl0aG9uJywgJy1waCcsICc3LjAnLCAnLXRuJywgJzgnLCAnLW1hJywgJzIwMCcsICctbWV0YWxfYmluZGluZycsICctaW1hZScsICc8aW5maWxlLm1hZT4nLCAnLW9tYWUnLCAnPG91dGZpbGUubWFlPic=

> <r_lp_tautomer_probability>
1

> <r_epik_Ionization_Penalty>
2.49222e-07

> <r_epik_Ionization_Penalty_Charging>
1.4085e-08

> <r_epik_Ionization_Penalty_Neutral>
2.35137e-07

> <r_epik_State_Penalty>
-0

> <r_epik_Charging_Adjusted_Penalty>
1.4085e-08

> <i_epik_Tot_Q>
0

> <i_epik_Tot_abs_Q>
0

> <r_epik_Metal_State_Penalty>
-0

> <b_epik_Metal_Only>
0

> <s_lp_Force_Field>
OPLS_2005

> <r_lp_Energy>
18.288

> <b_lp_Chiralities_Consistent>
1

> <s_lp_Variant>
AV-unprocessed.smi:2594-2

> <Gold.Version>
5.8.1

> <Gold.Id.Protein>
6NUR|6NUR_protein|mol2

> <Gold.PLP.Fitness>
33.8749

> <Gold.PLP.PLP>
-28.3411

> <Gold.PLP.part.hbond>
-2.0000

> <Gold.PLP.part.metal>
0.0000

> <Gold.PLP.part.buried>
-4.7226

> <Gold.PLP.part.nonpolar>
-21.2772

> <Gold.PLP.part.repulsive>
0.2294

> <Gold.PLP.ligand.clash>
0.0000

> <Gold.PLP.ligand.torsion>
0.2365

> <Gold.PLP.Chemscore.Hbond>
2.0000

> <Gold.PLP.Chemscore.CHOScore>
0.0000

> <Gold.PLP.Chemscore.Metal>
0.0000

> <Gold.Chemscore.Hbonds>
donor molecule, donor type, donor heavy atom, donor atom, acceptor molecule, acceptor atom, score
      P1  H  6896  6907       L1     5  1.00
      P1  H  7997  8008       L1     1  0.83

> <Gold.PLP.Chemscore.Internal.Correction>
0.0068

> <Gold.Rescore>
     Score         DG    S(hbond)    S(metal)    S(lipo)     H(rot)  DE(clash)    DE(int)     intcor
     14.92     -15.31       1.96        0.00      71.69       2.00       0.02       0.37       ----

> <Gold.Chemscore.Fitness>
14.9247

> <Gold.Chemscore.DG>
-15.3070

> <Gold.Chemscore.ZeroCoef>
-5.4800

> <Gold.Chemscore.Hbond>
1.9602

> <Gold.Chemscore.Metal>
0.0000

> <Gold.Chemscore.Lipo>
71.6891

> <Gold.Chemscore.Internal_Hbond>
0.0000

> <Gold.Chemscore.DEClash>
0.0158

> <Gold.Chemscore.DEInternal>
0.3665

> <Gold.Chemscore.Rot>
1.9952

> <Gold.Chemscore.Internal.Correction>
   9.000000E+99

> <Gold.Chemscore.Hbonds>
donor molecule, donor type, donor heavy atom, donor atom, acceptor molecule, acceptor atom, score
      P1  H  6896  6907       L1     5  0.50
      P1  H  7997  8008       L1     1  0.78

> <Gold.Chemscore.Hbond.Weighted>
-6.5471

> <Gold.Chemscore.Metal.Weighted>
-0.0000

> <Gold.Chemscore.Lipo.Weighted>
-8.3876

> <Gold.Chemscore.Internal_Hbond.Weighted>
0.0000

> <Gold.Chemscore.DEClash.Weighted>
0.0158

> <Gold.Chemscore.DEInternal.Weighted>
0.3665

> <Gold.Chemscore.Rot.Weighted>
5.1077

> <Gold.Chemscore.Internal.Correction.Weighted>
   9.000000E+99

> <Gold.Protein.RotatedTorsions>
[ 6907 6896 6895 6894 ] final   32.61 input  -60.11 | X-H torsion
[ 7974 7965 7964 7962 ] final -131.50 input  175.53 | X-H torsion
[ 8008 7997 7996 7995 ] final -116.56 input   59.86 | X-H torsion
[ 10167 10162 10161 10158 ] final   13.03 input  -65.29 | X-H torsion
[ 10718 10713 10712 10709 ] final   10.69 input   66.30 | X-H torsion
[ 10763 10752 10751 10750 ] final  -76.56 input  -60.55 | X-H torsion
[ 11005 11000 10999 10996 ] final   99.65 input  -57.11 | X-H torsion

> <Gold.Protein.ActiveResidues>
 VAL166  LYS551  ARG553  GLY616  TRP617  ASP618  TYR619  PRO620  LYS621  CYS622 
 ASP623  PHE694  ASN695  SER759  ASP760  ASP761  ALA762  ILE779  LEU786  VAL792 
 PHE793  MET794  SER795  GLU796  ALA797  LYS798  CYS799  TRP800  GLU811  SER814 

> <Gold.Protein.RotatedAtoms>
  152.0769  134.9496  160.0573 H   0  0  0  0  0  0  0  0  0  0  0  0  # atno 6907 bound_to 6896
  152.0800  133.4143  159.4505 H   0  0  0  0  0  0  0  0  0  0  0  0  # atno 6908 bound_to 6896
  150.6836  134.2912  159.4711 H   0  0  0  0  0  0  0  0  0  0  0  0  # atno 6909 bound_to 6896
  144.9374  140.7199  143.4868 H   0  0  0  0  0  0  0  0  0  0  0  0  # atno 7974 bound_to 7965
  155.0697  140.0393  157.2604 H   0  0  0  0  0  0  0  0  0  0  0  0  # atno 8008 bound_to 7997
  154.6992  140.2669  155.6711 H   0  0  0  0  0  0  0  0  0  0  0  0  # atno 8009 bound_to 7997
  156.2755  140.2744  156.1597 H   0  0  0  0  0  0  0  0  0  0  0  0  # atno 8010 bound_to 7997
  140.6029  143.8567  150.6984 H   0  0  0  0  0  0  0  0  0  0  0  0  # atno 10167 bound_to 10162
  156.9846  130.6019  149.5680 H   0  0  0  0  0  0  0  0  0  0  0  0  # atno 10718 bound_to 10713
  154.5014  135.5793  153.6534 H   0  0  0  0  0  0  0  0  0  0  0  0  # atno 10763 bound_to 10752
  152.9879  135.6136  154.2997 H   0  0  0  0  0  0  0  0  0  0  0  0  # atno 10764 bound_to 10752
  154.2905  135.2849  155.2636 H   0  0  0  0  0  0  0  0  0  0  0  0  # atno 10765 bound_to 10752
  139.8770  134.9105  156.4638 H   0  0  0  0  0  0  0  0  0  0  0  0  # atno 11005 bound_to 11000
  145.3046  139.1839  143.4671 LP  0  0  0  0  0  0  0  0  0  0  0  0  # atno 17320 bound_to 7965
  146.3272  140.3041  142.8622 LP  0  0  0  0  0  0  0  0  0  0  0  0  # atno 17321 bound_to 7965
  140.2117  143.3878  152.1713 LP  0  0  0  0  0  0  0  0  0  0  0  0  # atno 17342 bound_to 10162
  139.5304  144.7152  151.5076 LP  0  0  0  0  0  0  0  0  0  0  0  0  # atno 17343 bound_to 10162
  156.0231  130.5325  150.8331 LP  0  0  0  0  0  0  0  0  0  0  0  0  # atno 17370 bound_to 10713
  157.5502  131.0943  150.9706 LP  0  0  0  0  0  0  0  0  0  0  0  0  # atno 17371 bound_to 10713
  140.8845  133.7893  155.9503 LP  0  0  0  0  0  0  0  0  0  0  0  0  # atno 17394 bound_to 11000
  140.8819  134.2601  157.5139 LP  0  0  0  0  0  0  0  0  0  0  0  0  # atno 17395 bound_to 11000

$$$$
