AV-unprocessed.smi:235|AV-procd|sdf|1806|dock2
  -GOLD-   2262020383D 1   1.00000     0.00000
 Structure written by MMmdl.
 54 58  0  0  0  0  0  0  0  0  1 V2000
  151.8415  142.4103  161.8136 O   0  0  0  0  0  0  0  0  0  0  0  0
  152.4987  142.6612  160.8022 C   0  0  0  0  0  0  0  0  0  0  0  0
  152.4980  143.8583  160.1982 N   0  0  0  0  0  0  0  0  0  0  0  0
  151.7441  144.9958  160.6141 C   0  0  0  0  0  0  0  0  0  0  0  0
  150.2722  144.7952  160.9021 C   0  0  0  0  0  0  0  0  0  0  0  0
  150.6973  145.5312  159.6615 C   0  0  0  0  0  0  0  0  0  0  0  0
  153.3835  141.5805  160.1603 C   0  0  1  0  0  0  0  0  0  0  0  0
  154.2044  140.8215  161.2155 C   0  0  0  0  0  0  0  0  0  0  0  0
  154.4300  139.4531  160.5811 C   0  0  0  0  0  0  0  0  0  0  0  0
  153.1346  139.2056  159.8093 C   0  0  0  0  0  0  0  0  0  0  0  0
  152.5955  140.5273  159.5135 N   0  0  0  0  0  0  0  0  0  0  0  0
  151.9186  140.7294  158.3508 C   0  0  0  0  0  0  0  0  0  0  0  0
  151.4689  141.9770  158.0481 N   0  0  0  0  0  0  0  0  0  0  0  0
  150.8003  142.2020  156.9139 C   0  0  0  0  0  0  0  0  0  0  0  0
  150.4719  141.3366  155.9540 N   0  0  0  0  0  0  0  0  0  0  0  0
  150.9135  140.0815  156.2512 C   0  0  0  0  0  0  0  0  0  0  0  0
  151.6373  139.6921  157.4144 C   0  0  0  0  0  0  0  0  0  0  0  0
  151.9003  138.3270  157.3665 N   0  0  0  0  0  0  0  0  0  0  0  0
  151.3719  137.9360  156.2393 C   0  0  0  0  0  0  0  0  0  0  0  0
  150.7635  138.9274  155.5041 N   0  0  0  0  0  0  0  0  0  0  0  0
  150.1028  138.7798  154.2204 C   0  0  0  0  0  0  0  0  0  0  0  0
  148.5649  138.7169  154.3345 C   0  0  2  0  0  0  0  0  0  0  0  0
  148.0586  138.4892  153.0347 O   0  0  0  0  0  0  0  0  0  0  0  0
  147.9172  139.9950  154.9121 C   0  0  1  0  0  0  0  0  0  0  0  0
  148.1189  141.2496  154.0603 C   0  0  0  0  0  0  0  0  0  0  0  0
  146.9739  142.1551  154.4835 C   0  0  0  0  0  0  0  0  0  0  0  0
  145.9734  141.2008  155.1402 C   0  0  0  0  0  0  0  0  0  0  0  0
  146.5001  139.9001  154.9193 O   0  0  0  0  0  0  0  0  0  0  0  0
  153.0681  143.9686  159.3721 H   0  0  0  0  0  0  0  0  0  0  0  0
  152.2565  145.7394  161.2230 H   0  0  0  0  0  0  0  0  0  0  0  0
  149.8610  143.7951  160.7778 H   0  0  0  0  0  0  0  0  0  0  0  0
  149.8363  145.3801  161.7095 H   0  0  0  0  0  0  0  0  0  0  0  0
  150.5422  146.6081  159.6399 H   0  0  0  0  0  0  0  0  0  0  0  0
  150.5683  145.0233  158.7075 H   0  0  0  0  0  0  0  0  0  0  0  0
  154.0637  142.0222  159.4295 H   0  0  0  0  0  0  0  0  0  0  0  0
  155.1404  141.3253  161.4583 H   0  0  0  0  0  0  0  0  0  0  0  0
  153.6416  140.6995  162.1432 H   0  0  0  0  0  0  0  0  0  0  0  0
  155.2692  139.5071  159.8861 H   0  0  0  0  0  0  0  0  0  0  0  0
  154.6463  138.6727  161.3111 H   0  0  0  0  0  0  0  0  0  0  0  0
  153.3244  138.6160  158.9110 H   0  0  0  0  0  0  0  0  0  0  0  0
  152.4165  138.6654  160.4276 H   0  0  0  0  0  0  0  0  0  0  0  0
  150.4835  143.2218  156.7528 H   0  0  0  0  0  0  0  0  0  0  0  0
  151.4174  136.9085  155.9086 H   0  0  0  0  0  0  0  0  0  0  0  0
  150.4004  139.6123  153.5809 H   0  0  0  0  0  0  0  0  0  0  0  0
  150.4845  137.8733  153.7488 H   0  0  0  0  0  0  0  0  0  0  0  0
  148.2797  137.8620  154.9487 H   0  0  0  0  0  0  0  0  0  0  0  0
  148.2390  139.2511  152.5056 H   0  0  0  0  0  0  0  0  0  0  0  0
  148.2698  140.1758  155.9296 H   0  0  0  0  0  0  0  0  0  0  0  0
  149.0972  141.7083  154.2074 H   0  0  0  0  0  0  0  0  0  0  0  0
  148.0179  141.0046  153.0020 H   0  0  0  0  0  0  0  0  0  0  0  0
  147.3097  142.9055  155.2001 H   0  0  0  0  0  0  0  0  0  0  0  0
  146.5435  142.6755  153.6274 H   0  0  0  0  0  0  0  0  0  0  0  0
  145.9109  141.3865  156.2131 H   0  0  0  0  0  0  0  0  0  0  0  0
  144.9714  141.2897  154.7199 H   0  0  0  0  0  0  0  0  0  0  0  0
  1  2  2  0  0  0  0
  2  3  1  0  0  0  0
  2  7  1  0  0  0  0
  3  4  1  0  0  0  0
  3 29  1  0  0  0  0
  4  6  1  0  0  0  0
  4  5  1  0  0  0  0
  4 30  1  0  0  0  0
  5  6  1  0  0  0  0
  5 31  1  0  0  0  0
  5 32  1  0  0  0  0
  6 33  1  0  0  0  0
  6 34  1  0  0  0  0
  7 11  1  0  0  0  0
  7  8  1  0  0  0  0
  7 35  1  0  0  0  0
  8  9  1  0  0  0  0
  8 36  1  0  0  0  0
  8 37  1  0  0  0  0
  9 10  1  0  0  0  0
  9 38  1  0  0  0  0
  9 39  1  0  0  0  0
 10 11  1  0  0  0  0
 10 40  1  0  0  0  0
 10 41  1  0  0  0  0
 11 12  1  0  0  0  0
 12 17  1  0  0  0  0
 12 13  2  0  0  0  0
 13 14  1  0  0  0  0
 14 15  2  0  0  0  0
 14 42  1  0  0  0  0
 15 16  1  0  0  0  0
 16 20  1  0  0  0  0
 16 17  2  0  0  0  0
 17 18  1  0  0  0  0
 18 19  2  0  0  0  0
 19 20  1  0  0  0  0
 19 43  1  0  0  0  0
 20 21  1  0  0  0  0
 21 22  1  0  0  0  0
 21 44  1  0  0  0  0
 21 45  1  0  0  0  0
 22 23  1  0  0  0  0
 22 24  1  0  0  0  0
 22 46  1  0  0  0  0
 23 47  1  0  0  0  0
 24 28  1  0  0  0  0
 24 25  1  0  0  0  0
 24 48  1  0  0  0  0
 25 26  1  0  0  0  0
 25 49  1  0  0  0  0
 25 50  1  0  0  0  0
 26 27  1  0  0  0  0
 26 51  1  0  0  0  0
 26 52  1  0  0  0  0
 27 28  1  0  0  0  0
 27 53  1  0  0  0  0
 27 54  1  0  0  0  0
M  END
> <s_m_source_file>
AV-unprocessed.smi

> <i_m_source_file_index>
235

> <i_lp_mmshare_version>
43012

> <i_f3d_flags>
0

> <s_epik_input>
W0NIMl0xW0NIMl1bQ0hdMVtOSF1DKD1PKVtDQEBIXTJbQ0gyXVtDSDJdW0NIMl1OMmMobltjSF1uMyljKGMzNCluW2NIXW40W0NIMl1bQ0BIXShbT0hdKVtDQEBIXTVbQ0gyXVtDSDJdW0NIMl1PNQ==

> <s_epik_cmdline>
J2VwaWtfcHl0aG9uJywgJy1waCcsICc3LjAnLCAnLXRuJywgJzgnLCAnLW1hJywgJzIwMCcsICctbWV0YWxfYmluZGluZycsICctaW1hZScsICc8aW5maWxlLm1hZT4nLCAnLW9tYWUnLCAnPG91dGZpbGUubWFlPic=

> <r_lp_tautomer_probability>
1

> <r_epik_Ionization_Penalty>
0.000526714

> <r_epik_Ionization_Penalty_Charging>
0

> <r_epik_Ionization_Penalty_Neutral>
0.000526714

> <r_epik_State_Penalty>
0.000272704

> <r_epik_Charging_Adjusted_Penalty>
0.000272704

> <i_epik_Tot_Q>
0

> <i_epik_Tot_abs_Q>
0

> <r_epik_Metal_State_Penalty>
-0

> <b_epik_Metal_Only>
0

> <s_lp_Force_Field>
OPLS_2005

> <r_lp_Energy>
59.6109

> <b_lp_Chiralities_Consistent>
1

> <s_lp_Variant>
AV-unprocessed.smi:235-6

> <Gold.Version>
5.8.1

> <Gold.Id.Protein>
6NUR|6NUR_protein|mol2

> <Gold.PLP.Fitness>
58.9414

> <Gold.PLP.PLP>
-52.0103

> <Gold.PLP.part.hbond>
-3.3330

> <Gold.PLP.part.metal>
0.0000

> <Gold.PLP.part.buried>
-5.0912

> <Gold.PLP.part.nonpolar>
-44.3557

> <Gold.PLP.part.repulsive>
0.3093

> <Gold.PLP.ligand.clash>
0.0000

> <Gold.PLP.ligand.torsion>
0.8033

> <Gold.PLP.Chemscore.Hbond>
1.7020

> <Gold.PLP.Chemscore.CHOScore>
1.0000

> <Gold.PLP.Chemscore.Metal>
0.0000

> <Gold.Chemscore.Hbonds>
donor molecule, donor type, donor heavy atom, donor atom, acceptor molecule, acceptor atom, score
      L1  H    23    47       P1  7957  0.79
      P1  H  6933  6945       L1     1  0.80
      L1  C    14    42       P1  8028  1.00

> <Gold.PLP.Chemscore.Internal.Correction>
0.4317

> <Gold.Rescore>
     Score         DG    S(hbond)    S(metal)    S(lipo)     H(rot)  DE(clash)    DE(int)     intcor
      6.41     -12.64       0.72        0.00      99.29       2.68       1.54       4.69       ----

> <Gold.Chemscore.Fitness>
6.4068

> <Gold.Chemscore.DG>
-12.6416

> <Gold.Chemscore.ZeroCoef>
-5.4800

> <Gold.Chemscore.Hbond>
0.7173

> <Gold.Chemscore.Metal>
0.0000

> <Gold.Chemscore.Lipo>
99.2851

> <Gold.Chemscore.Internal_Hbond>
0.0000

> <Gold.Chemscore.DEClash>
1.5436

> <Gold.Chemscore.DEInternal>
4.6912

> <Gold.Chemscore.Rot>
2.6760

> <Gold.Chemscore.Internal.Correction>
   9.000000E+99

> <Gold.Chemscore.Hbonds>
donor molecule, donor type, donor heavy atom, donor atom, acceptor molecule, acceptor atom, score
      L1  H    23    47       P1  7957  0.75
      P1  H  6933  6945       L1     1  0.79

> <Gold.Chemscore.Hbond.Weighted>
-2.3958

> <Gold.Chemscore.Metal.Weighted>
-0.0000

> <Gold.Chemscore.Lipo.Weighted>
-11.6164

> <Gold.Chemscore.Internal_Hbond.Weighted>
0.0000

> <Gold.Chemscore.DEClash.Weighted>
1.5436

> <Gold.Chemscore.DEInternal.Weighted>
4.6912

> <Gold.Chemscore.Rot.Weighted>
6.8506

> <Gold.Chemscore.Internal.Correction.Weighted>
   9.000000E+99

> <Gold.Protein.RotatedTorsions>
[ 6907 6896 6895 6894 ] final  166.25 input  -60.11 | X-H torsion
[ 7974 7965 7964 7962 ] final  -79.81 input  175.53 | X-H torsion
[ 8008 7997 7996 7995 ] final  -18.70 input   59.86 | X-H torsion
[ 10167 10162 10161 10158 ] final   47.66 input  -65.29 | X-H torsion
[ 10718 10713 10712 10709 ] final  159.58 input   66.30 | X-H torsion
[ 10763 10752 10751 10750 ] final    9.75 input  -60.55 | X-H torsion
[ 11005 11000 10999 10996 ] final  -95.13 input  -57.11 | X-H torsion

> <Gold.Protein.ActiveResidues>
 VAL166  LYS551  ARG553  GLY616  TRP617  ASP618  TYR619  PRO620  LYS621  CYS622 
 ASP623  PHE694  ASN695  SER759  ASP760  ASP761  ALA762  ILE779  LEU786  VAL792 
 PHE793  MET794  SER795  GLU796  ALA797  LYS798  CYS799  TRP800  GLU811  SER814 

> <Gold.Protein.RotatedAtoms>
  151.8818  133.3497  159.3768 H   0  0  0  0  0  0  0  0  0  0  0  0  # atno 6907 bound_to 6896
  150.7125  134.5011  159.5571 H   0  0  0  0  0  0  0  0  0  0  0  0  # atno 6908 bound_to 6896
  152.2564  134.8080  160.0488 H   0  0  0  0  0  0  0  0  0  0  0  0  # atno 6909 bound_to 6896
  145.5682  140.9470  143.1410 H   0  0  0  0  0  0  0  0  0  0  0  0  # atno 7974 bound_to 7965
  154.4888  140.2109  155.9595 H   0  0  0  0  0  0  0  0  0  0  0  0  # atno 8008 bound_to 7997
  156.1275  140.3203  155.8267 H   0  0  0  0  0  0  0  0  0  0  0  0  # atno 8009 bound_to 7997
  155.4357  140.0506  157.3005 H   0  0  0  0  0  0  0  0  0  0  0  0  # atno 8010 bound_to 7997
  140.3014  144.2930  150.6218 H   0  0  0  0  0  0  0  0  0  0  0  0  # atno 10167 bound_to 10162
  157.1623  131.0590  151.2226 H   0  0  0  0  0  0  0  0  0  0  0  0  # atno 10718 bound_to 10713
  153.2106  135.6868  153.8118 H   0  0  0  0  0  0  0  0  0  0  0  0  # atno 10763 bound_to 10752
  153.7352  135.3246  155.3294 H   0  0  0  0  0  0  0  0  0  0  0  0  # atno 10764 bound_to 10752
  154.8220  135.4645  154.0912 H   0  0  0  0  0  0  0  0  0  0  0  0  # atno 10765 bound_to 10752
  141.1451  133.8005  157.0393 H   0  0  0  0  0  0  0  0  0  0  0  0  # atno 11005 bound_to 11000
  144.7450  139.7345  143.7296 LP  0  0  0  0  0  0  0  0  0  0  0  0  # atno 17320 bound_to 7965
  146.1803  139.4992  142.9871 LP  0  0  0  0  0  0  0  0  0  0  0  0  # atno 17321 bound_to 7965
  140.5648  143.2187  151.7703 LP  0  0  0  0  0  0  0  0  0  0  0  0  # atno 17342 bound_to 10162
  139.4914  144.4299  151.9884 LP  0  0  0  0  0  0  0  0  0  0  0  0  # atno 17343 bound_to 10162
  157.4121  130.7391  149.6847 LP  0  0  0  0  0  0  0  0  0  0  0  0  # atno 17370 bound_to 10713
  155.9752  130.4092  150.3868 LP  0  0  0  0  0  0  0  0  0  0  0  0  # atno 17371 bound_to 10713
  140.0703  134.9706  157.1455 LP  0  0  0  0  0  0  0  0  0  0  0  0  # atno 17394 bound_to 11000
  140.3721  134.2379  155.7177 LP  0  0  0  0  0  0  0  0  0  0  0  0  # atno 17395 bound_to 11000

$$$$
