AV-unprocessed.smi:2121|AV-procd|sdf|8645|dock2
  -GOLD-   2272011393D 1   1.00000     0.00000
 Structure written by MMmdl.
 49 50  0  0  0  0  0  0  0  0  1 V2000
  153.6276  141.0616  160.3679 C   0  0  0  0  0  0  0  0  0  0  0  0
  153.0128  141.8912  159.2356 C   0  0  1  0  0  0  0  0  0  0  0  0
  151.9319  141.1070  158.4707 C   0  0  0  0  0  0  0  0  0  0  0  0
  151.2863  141.9670  157.4838 N   0  0  0  0  0  0  0  0  0  0  0  0
  150.4890  141.3591  156.4916 C   0  0  0  0  0  0  0  0  0  0  0  0
  149.1205  141.6979  156.3799 C   0  0  0  0  0  0  0  0  0  0  0  0
  148.3391  141.0817  155.3843 C   0  0  0  0  0  0  0  0  0  0  0  0
  148.9418  140.1361  154.5264 C   0  0  0  0  0  0  0  0  0  0  0  0
  148.1738  139.4250  153.4189 C   0  0  0  0  0  0  0  0  0  0  0  0
  147.9110  138.0112  153.6678 N   0  0  0  0  0  0  0  0  0  0  0  0
  147.2333  137.5283  154.7201 C   0  0  0  0  0  0  0  0  0  0  0  0
  146.7930  138.2399  155.6244 O   0  0  0  0  0  0  0  0  0  0  0  0
  147.0222  136.0065  154.7486 C   0  0  1  0  0  0  0  0  0  0  0  0
  146.0426  135.6291  153.6252 C   0  0  0  0  0  0  0  0  0  0  0  0
  148.2854  135.3101  154.5081 N   0  0  0  0  0  0  0  0  0  0  0  0
  148.7565  134.2931  155.2452 C   0  0  0  0  0  0  0  0  0  0  0  0
  149.9415  133.8602  154.8141 N   0  0  0  0  0  0  0  0  0  0  0  0
  148.1756  133.8053  156.2130 O   0  0  0  0  0  0  0  0  0  0  0  0
  150.3137  139.8698  154.7084 C   0  0  0  0  0  0  0  0  0  0  0  0
  151.0688  140.4607  155.6581 N   0  0  0  0  0  0  0  0  0  0  0  0
  150.7423  143.1937  158.0581 C   0  0  0  0  0  0  0  0  0  0  0  0
  151.8142  143.9461  158.8711 C   0  0  2  0  0  0  0  0  0  0  0  0
  152.8425  144.6820  157.9936 C   0  0  0  0  0  0  0  0  0  0  0  0
  152.4363  143.0642  159.8089 O   0  0  0  0  0  0  0  0  0  0  0  0
  154.0930  140.1544  159.9818 H   0  0  0  0  0  0  0  0  0  0  0  0
  152.8717  140.7664  161.0964 H   0  0  0  0  0  0  0  0  0  0  0  0
  154.3946  141.6299  160.8945 H   0  0  0  0  0  0  0  0  0  0  0  0
  153.8136  142.1722  158.5515 H   0  0  0  0  0  0  0  0  0  0  0  0
  152.3880  140.2466  157.9792 H   0  0  0  0  0  0  0  0  0  0  0  0
  151.1792  140.7270  159.1628 H   0  0  0  0  0  0  0  0  0  0  0  0
  148.6686  142.4298  157.0328 H   0  0  0  0  0  0  0  0  0  0  0  0
  147.2956  141.3428  155.2893 H   0  0  0  0  0  0  0  0  0  0  0  0
  147.2154  139.9288  153.2924 H   0  0  0  0  0  0  0  0  0  0  0  0
  148.7083  139.5394  152.4741 H   0  0  0  0  0  0  0  0  0  0  0  0
  148.2414  137.3559  152.9741 H   0  0  0  0  0  0  0  0  0  0  0  0
  146.6092  135.6986  155.7113 H   0  0  0  0  0  0  0  0  0  0  0  0
  145.0791  136.1226  153.7587 H   0  0  0  0  0  0  0  0  0  0  0  0
  145.8567  134.5546  153.6163 H   0  0  0  0  0  0  0  0  0  0  0  0
  146.4246  135.9053  152.6411 H   0  0  0  0  0  0  0  0  0  0  0  0
  148.8461  135.6417  153.7372 H   0  0  0  0  0  0  0  0  0  0  0  0
  150.4040  133.0946  155.2816 H   0  0  0  0  0  0  0  0  0  0  0  0
  150.3713  134.3018  154.0142 H   0  0  0  0  0  0  0  0  0  0  0  0
  150.8234  139.1611  154.0721 H   0  0  0  0  0  0  0  0  0  0  0  0
  150.3334  143.8556  157.2957 H   0  0  0  0  0  0  0  0  0  0  0  0
  149.9124  142.9224  158.7119 H   0  0  0  0  0  0  0  0  0  0  0  0
  151.3054  144.7072  159.4632 H   0  0  0  0  0  0  0  0  0  0  0  0
  152.3539  145.4419  157.3834 H   0  0  0  0  0  0  0  0  0  0  0  0
  153.3642  144.0091  157.3134 H   0  0  0  0  0  0  0  0  0  0  0  0
  153.5902  145.1835  158.6081 H   0  0  0  0  0  0  0  0  0  0  0  0
  1  2  1  0  0  0  0
  1 25  1  0  0  0  0
  1 26  1  0  0  0  0
  1 27  1  0  0  0  0
  2 24  1  0  0  0  0
  2  3  1  0  0  0  0
  2 28  1  0  0  0  0
  3  4  1  0  0  0  0
  3 29  1  0  0  0  0
  3 30  1  0  0  0  0
  4  5  1  0  0  0  0
  4 21  1  0  0  0  0
  5 20  1  0  0  0  0
  5  6  2  0  0  0  0
  6  7  1  0  0  0  0
  6 31  1  0  0  0  0
  7  8  2  0  0  0  0
  7 32  1  0  0  0  0
  8  9  1  0  0  0  0
  8 19  1  0  0  0  0
  9 10  1  0  0  0  0
  9 33  1  0  0  0  0
  9 34  1  0  0  0  0
 10 11  1  0  0  0  0
 10 35  1  0  0  0  0
 11 12  2  0  0  0  0
 11 13  1  0  0  0  0
 13 14  1  0  0  0  0
 13 15  1  0  0  0  0
 13 36  1  0  0  0  0
 14 37  1  0  0  0  0
 14 38  1  0  0  0  0
 14 39  1  0  0  0  0
 15 16  1  0  0  0  0
 15 40  1  0  0  0  0
 16 17  1  0  0  0  0
 16 18  2  0  0  0  0
 17 41  1  0  0  0  0
 17 42  1  0  0  0  0
 19 20  2  0  0  0  0
 19 43  1  0  0  0  0
 21 22  1  0  0  0  0
 21 44  1  0  0  0  0
 21 45  1  0  0  0  0
 22 23  1  0  0  0  0
 22 24  1  0  0  0  0
 22 46  1  0  0  0  0
 23 47  1  0  0  0  0
 23 48  1  0  0  0  0
 23 49  1  0  0  0  0
M  END
> <s_m_source_file>
AV-unprocessed.smi

> <i_m_source_file_index>
2121

> <i_lp_mmshare_version>
43012

> <i_f3d_flags>
0

> <s_epik_input>
W0NIM11bQ0BASF0xW0NIMl1OKFtDSDJdW0NASF0oTzEpW0NIM10pYzJbY0hdW2NIXWMoW2NIXW4yKVtDSDJdW05IXUMoPU8pW0NASF0oW0NIM10pW05IXUMoPU8pW05IMl0=

> <s_epik_cmdline>
J2VwaWtfcHl0aG9uJywgJy1waCcsICc3LjAnLCAnLXRuJywgJzgnLCAnLW1hJywgJzIwMCcsICctbWV0YWxfYmluZGluZycsICctaW1hZScsICc8aW5maWxlLm1hZT4nLCAnLW9tYWUnLCAnPG91dGZpbGUubWFlPic=

> <r_lp_tautomer_probability>
1

> <r_epik_Ionization_Penalty>
0.0063713

> <r_epik_Ionization_Penalty_Charging>
0

> <r_epik_Ionization_Penalty_Neutral>
0.0063713

> <r_epik_State_Penalty>
0.00467069

> <r_epik_Charging_Adjusted_Penalty>
0.00467069

> <i_epik_Tot_Q>
0

> <i_epik_Tot_abs_Q>
0

> <r_epik_Metal_State_Penalty>
-0

> <b_epik_Metal_Only>
0

> <s_lp_Force_Field>
OPLS_2005

> <r_lp_Energy>
11.1976

> <b_lp_Chiralities_Consistent>
1

> <s_lp_Variant>
AV-unprocessed.smi:2121-6

> <Gold.Version>
5.8.1

> <Gold.Id.Protein>
6NUR|6NUR_protein|mol2

> <Gold.PLP.Fitness>
41.0130

> <Gold.PLP.PLP>
-36.0456

> <Gold.PLP.part.hbond>
-2.7220

> <Gold.PLP.part.metal>
0.0000

> <Gold.PLP.part.buried>
-0.6105

> <Gold.PLP.part.nonpolar>
-32.2677

> <Gold.PLP.part.repulsive>
0.1500

> <Gold.PLP.ligand.clash>
0.0000

> <Gold.PLP.ligand.torsion>
0.6808

> <Gold.PLP.Chemscore.Hbond>
1.9760

> <Gold.PLP.Chemscore.CHOScore>
0.0000

> <Gold.PLP.Chemscore.Metal>
0.0000

> <Gold.Chemscore.Hbonds>
donor molecule, donor type, donor heavy atom, donor atom, acceptor molecule, acceptor atom, score
      L1  H    10    35       P1  7948  1.00
      L1  H    15    40       P1  7948  0.99

> <Gold.PLP.Chemscore.Internal.Correction>
0.4010

> <Gold.Rescore>
     Score         DG    S(hbond)    S(metal)    S(lipo)     H(rot)  DE(clash)    DE(int)     intcor
     14.98     -16.58       1.97        0.00      95.16       2.58       0.80       0.81       ----

> <Gold.Chemscore.Fitness>
14.9759

> <Gold.Chemscore.DG>
-16.5812

> <Gold.Chemscore.ZeroCoef>
-5.4800

> <Gold.Chemscore.Hbond>
1.9705

> <Gold.Chemscore.Metal>
0.0000

> <Gold.Chemscore.Lipo>
95.1649

> <Gold.Chemscore.Internal_Hbond>
0.0000

> <Gold.Chemscore.DEClash>
0.7952

> <Gold.Chemscore.DEInternal>
0.8102

> <Gold.Chemscore.Rot>
2.5838

> <Gold.Chemscore.Internal.Correction>
   9.000000E+99

> <Gold.Chemscore.Hbonds>
donor molecule, donor type, donor heavy atom, donor atom, acceptor molecule, acceptor atom, score
      L1  H    10    35       P1  7948  1.00
      L1  H    15    40       P1  7948  0.88

> <Gold.Chemscore.Hbond.Weighted>
-6.5814

> <Gold.Chemscore.Metal.Weighted>
-0.0000

> <Gold.Chemscore.Lipo.Weighted>
-11.1343

> <Gold.Chemscore.Internal_Hbond.Weighted>
0.0000

> <Gold.Chemscore.DEClash.Weighted>
0.7952

> <Gold.Chemscore.DEInternal.Weighted>
0.8102

> <Gold.Chemscore.Rot.Weighted>
6.6145

> <Gold.Chemscore.Internal.Correction.Weighted>
   9.000000E+99

> <Gold.Protein.RotatedTorsions>
[ 6907 6896 6895 6894 ] final   -0.14 input  -60.11 | X-H torsion
[ 7974 7965 7964 7962 ] final   43.73 input  175.53 | X-H torsion
[ 8008 7997 7996 7995 ] final  -15.13 input   59.86 | X-H torsion
[ 10167 10162 10161 10158 ] final   17.10 input  -65.29 | X-H torsion
[ 10718 10713 10712 10709 ] final -106.76 input   66.30 | X-H torsion
[ 10763 10752 10751 10750 ] final  165.65 input  -60.55 | X-H torsion
[ 11005 11000 10999 10996 ] final   -4.64 input  -57.11 | X-H torsion

> <Gold.Protein.ActiveResidues>
 VAL166  LYS551  ARG553  GLY616  TRP617  ASP618  TYR619  PRO620  LYS621  CYS622 
 ASP623  PHE694  ASN695  SER759  ASP760  ASP761  ALA762  ILE779  LEU786  VAL792 
 PHE793  MET794  SER795  GLU796  ALA797  LYS798  CYS799  TRP800  GLU811  SER814 

> <Gold.Protein.RotatedAtoms>
  151.5671  135.1064  159.9986 H   0  0  0  0  0  0  0  0  0  0  0  0  # atno 6907 bound_to 6896
  152.4419  133.7459  159.6678 H   0  0  0  0  0  0  0  0  0  0  0  0  # atno 6908 bound_to 6896
  150.8326  133.7997  159.3116 H   0  0  0  0  0  0  0  0  0  0  0  0  # atno 6909 bound_to 6896
  146.0630  139.5154  142.9646 H   0  0  0  0  0  0  0  0  0  0  0  0  # atno 7974 bound_to 7965
  154.5155  140.2204  155.9075 H   0  0  0  0  0  0  0  0  0  0  0  0  # atno 8008 bound_to 7997
  156.1602  140.3143  155.8760 H   0  0  0  0  0  0  0  0  0  0  0  0  # atno 8009 bound_to 7997
  155.3766  140.0470  157.3035 H   0  0  0  0  0  0  0  0  0  0  0  0  # atno 8010 bound_to 7997
  140.5750  143.9089  150.6743 H   0  0  0  0  0  0  0  0  0  0  0  0  # atno 10167 bound_to 10162
  156.0405  130.5629  150.7726 H   0  0  0  0  0  0  0  0  0  0  0  0  # atno 10718 bound_to 10713
  154.3271  135.2755  155.2490 H   0  0  0  0  0  0  0  0  0  0  0  0  # atno 10763 bound_to 10752
  154.4818  135.5856  153.6398 H   0  0  0  0  0  0  0  0  0  0  0  0  # atno 10764 bound_to 10752
  152.9870  135.6113  154.3461 H   0  0  0  0  0  0  0  0  0  0  0  0  # atno 10765 bound_to 10752
  140.6824  133.9142  155.8564 H   0  0  0  0  0  0  0  0  0  0  0  0  # atno 11005 bound_to 11000
  145.6527  141.0259  143.1752 LP  0  0  0  0  0  0  0  0  0  0  0  0  # atno 17320 bound_to 7965
  144.7186  139.8109  143.7390 LP  0  0  0  0  0  0  0  0  0  0  0  0  # atno 17321 bound_to 7965
  140.2574  143.3549  152.1353 LP  0  0  0  0  0  0  0  0  0  0  0  0  # atno 17342 bound_to 10162
  139.5138  144.6938  151.5687 LP  0  0  0  0  0  0  0  0  0  0  0  0  # atno 17343 bound_to 10162
  157.5215  131.0932  151.0072 LP  0  0  0  0  0  0  0  0  0  0  0  0  # atno 17370 bound_to 10713
  157.0401  130.5745  149.5355 LP  0  0  0  0  0  0  0  0  0  0  0  0  # atno 17371 bound_to 10713
  141.0307  134.0761  157.4018 LP  0  0  0  0  0  0  0  0  0  0  0  0  # atno 17394 bound_to 11000
  139.8947  135.0137  156.6967 LP  0  0  0  0  0  0  0  0  0  0  0  0  # atno 17395 bound_to 11000

$$$$
