AV-unprocessed.smi:91|AV-procd|sdf|840|dock9
  -GOLD-   2262017273D 1   1.00000     0.00000
 Structure written by MMmdl.
 60 63  0  0  0  0  0  0  0  0  1 V2000
  153.3508  131.6407  158.2031 C   0  0  0  0  0  0  0  0  0  0  0  0
  152.4142  132.5945  157.7343 O   0  0  0  0  0  0  0  0  0  0  0  0
  151.3092  131.9951  157.0778 C   0  0  0  0  0  0  0  0  0  0  0  0
  150.3583  133.0919  156.5831 C   0  0  1  0  0  0  0  0  0  0  0  0
  151.0965  134.4059  156.2760 C   0  0  0  0  0  0  0  0  0  0  0  0
  150.1663  135.3675  155.7035 N   0  0  0  0  0  0  0  0  0  0  0  0
  150.6454  136.6216  155.5709 C   0  0  0  0  0  0  0  0  0  0  0  0
  151.3104  136.9059  154.4247 N   0  0  0  0  0  0  0  0  0  0  0  0
  151.8227  138.1258  154.2351 C   0  0  0  0  0  0  0  0  0  0  0  0
  151.7875  139.1829  155.0498 N   0  0  0  0  0  0  0  0  0  0  0  0
  151.1223  138.8959  156.2057 C   0  0  0  0  0  0  0  0  0  0  0  0
  150.5260  137.6499  156.5485 C   0  0  0  0  0  0  0  0  0  0  0  0
  149.9534  137.7309  157.8126 N   0  0  0  0  0  0  0  0  0  0  0  0
  150.1906  138.9573  158.1917 C   0  0  0  0  0  0  0  0  0  0  0  0
  150.8818  139.7280  157.2844 N   0  0  0  0  0  0  0  0  0  0  0  0
  151.2877  141.1126  157.4460 C   0  0  0  0  0  0  0  0  0  0  0  0
  151.8362  141.4327  158.8640 C   0  0  1  0  0  0  0  0  0  0  0  0
  152.8363  140.3701  159.3758 C   0  0  0  0  0  0  0  0  0  0  0  0
  153.5199  139.7326  158.3170 O   0  0  0  0  0  0  0  0  0  0  0  0
  152.4539  142.8519  158.9706 C   0  0  1  0  0  0  0  0  0  0  0  0
  151.5250  144.0131  158.6197 C   0  0  0  0  0  0  0  0  0  0  0  0
  151.9915  145.1175  159.5587 C   0  0  0  0  0  0  0  0  0  0  0  0
  152.3046  144.4033  160.7418 O   0  0  0  0  0  0  0  0  0  0  0  0
  153.0035  143.2262  160.3590 C   0  0  0  0  0  0  0  0  0  0  0  0
  149.5172  134.8700  154.4993 C   0  0  0  0  0  0  0  0  0  0  0  0
  148.8040  133.5262  154.7722 C   0  0  0  0  0  0  0  0  0  0  0  0
  147.5380  133.7115  155.6354 C   0  0  0  0  0  0  0  0  0  0  0  0
  148.4156  132.8663  153.4403 C   0  0  0  0  0  0  0  0  0  0  0  0
  149.7219  132.6184  155.3943 O   0  0  0  0  0  0  0  0  0  0  0  0
  154.1782  132.1519  158.6950 H   0  0  0  0  0  0  0  0  0  0  0  0
  153.7597  131.0524  157.3806 H   0  0  0  0  0  0  0  0  0  0  0  0
  152.8954  130.9635  158.9266 H   0  0  0  0  0  0  0  0  0  0  0  0
  151.6437  131.3748  156.2444 H   0  0  0  0  0  0  0  0  0  0  0  0
  150.7838  131.3445  157.7790 H   0  0  0  0  0  0  0  0  0  0  0  0
  149.6062  133.2597  157.3542 H   0  0  0  0  0  0  0  0  0  0  0  0
  151.5385  134.8139  157.1861 H   0  0  0  0  0  0  0  0  0  0  0  0
  151.9107  134.2128  155.5772 H   0  0  0  0  0  0  0  0  0  0  0  0
  152.3354  138.2763  153.2967 H   0  0  0  0  0  0  0  0  0  0  0  0
  149.8625  139.3366  159.1484 H   0  0  0  0  0  0  0  0  0  0  0  0
  152.0334  141.3383  156.6837 H   0  0  0  0  0  0  0  0  0  0  0  0
  150.4202  141.7281  157.2112 H   0  0  0  0  0  0  0  0  0  0  0  0
  150.9924  141.4361  159.5557 H   0  0  0  0  0  0  0  0  0  0  0  0
  153.5589  140.8139  160.0613 H   0  0  0  0  0  0  0  0  0  0  0  0
  152.3131  139.5904  159.9299 H   0  0  0  0  0  0  0  0  0  0  0  0
  152.8973  139.5304  157.6355 H   0  0  0  0  0  0  0  0  0  0  0  0
  153.3045  142.8957  158.2881 H   0  0  0  0  0  0  0  0  0  0  0  0
  151.5863  144.3015  157.5700 H   0  0  0  0  0  0  0  0  0  0  0  0
  150.4841  143.7806  158.8382 H   0  0  0  0  0  0  0  0  0  0  0  0
  152.8868  145.6087  159.1744 H   0  0  0  0  0  0  0  0  0  0  0  0
  151.2273  145.8750  159.7333 H   0  0  0  0  0  0  0  0  0  0  0  0
  152.8842  142.4422  161.1070 H   0  0  0  0  0  0  0  0  0  0  0  0
  154.0690  143.4526  160.2953 H   0  0  0  0  0  0  0  0  0  0  0  0
  148.8044  135.6066  154.1248 H   0  0  0  0  0  0  0  0  0  0  0  0
  150.2739  134.7389  153.7241 H   0  0  0  0  0  0  0  0  0  0  0  0
  146.7905  134.3046  155.1076 H   0  0  0  0  0  0  0  0  0  0  0  0
  147.7438  134.2271  156.5730 H   0  0  0  0  0  0  0  0  0  0  0  0
  147.0841  132.7505  155.8787 H   0  0  0  0  0  0  0  0  0  0  0  0
  147.7322  133.4961  152.8697 H   0  0  0  0  0  0  0  0  0  0  0  0
  147.9249  131.9062  153.6031 H   0  0  0  0  0  0  0  0  0  0  0  0
  149.2934  132.6841  152.8194 H   0  0  0  0  0  0  0  0  0  0  0  0
  1  2  1  0  0  0  0
  1 30  1  0  0  0  0
  1 31  1  0  0  0  0
  1 32  1  0  0  0  0
  2  3  1  0  0  0  0
  3  4  1  0  0  0  0
  3 33  1  0  0  0  0
  3 34  1  0  0  0  0
  4 29  1  0  0  0  0
  4  5  1  0  0  0  0
  4 35  1  0  0  0  0
  5  6  1  0  0  0  0
  5 36  1  0  0  0  0
  5 37  1  0  0  0  0
  6  7  1  0  0  0  0
  6 25  1  0  0  0  0
  7 12  1  0  0  0  0
  7  8  2  0  0  0  0
  8  9  1  0  0  0  0
  9 10  2  0  0  0  0
  9 38  1  0  0  0  0
 10 11  1  0  0  0  0
 11 15  1  0  0  0  0
 11 12  2  0  0  0  0
 12 13  1  0  0  0  0
 13 14  2  0  0  0  0
 14 15  1  0  0  0  0
 14 39  1  0  0  0  0
 15 16  1  0  0  0  0
 16 17  1  0  0  0  0
 16 40  1  0  0  0  0
 16 41  1  0  0  0  0
 17 18  1  0  0  0  0
 17 20  1  0  0  0  0
 17 42  1  0  0  0  0
 18 19  1  0  0  0  0
 18 43  1  0  0  0  0
 18 44  1  0  0  0  0
 19 45  1  0  0  0  0
 20 24  1  0  0  0  0
 20 21  1  0  0  0  0
 20 46  1  0  0  0  0
 21 22  1  0  0  0  0
 21 47  1  0  0  0  0
 21 48  1  0  0  0  0
 22 23  1  0  0  0  0
 22 49  1  0  0  0  0
 22 50  1  0  0  0  0
 23 24  1  0  0  0  0
 24 51  1  0  0  0  0
 24 52  1  0  0  0  0
 25 26  1  0  0  0  0
 25 53  1  0  0  0  0
 25 54  1  0  0  0  0
 26 27  1  0  0  0  0
 26 28  1  0  0  0  0
 26 29  1  0  0  0  0
 27 55  1  0  0  0  0
 27 56  1  0  0  0  0
 27 57  1  0  0  0  0
 28 58  1  0  0  0  0
 28 59  1  0  0  0  0
 28 60  1  0  0  0  0
M  END
> <s_m_source_file>
AV-unprocessed.smi

> <i_m_source_file_index>
91

> <i_lp_mmshare_version>
43012

> <i_f3d_flags>
0

> <s_epik_input>
W0NIM11PW0NIMl1bQ0BASF0oTzEpW0NIMl1OKFtDSDJdQzEoW0NIM10pW0NIM10pYyhuW2NIXW4yKWMoYzIzKW5bY0hdbjNbQ0gyXVtDQEhdKFtDSDJdW09IXSlbQ0BASF00W0NIMl1bQ0gyXU9bQ0gyXTQ=

> <s_epik_cmdline>
J2VwaWtfcHl0aG9uJywgJy1waCcsICc3LjAnLCAnLXRuJywgJzgnLCAnLW1hJywgJzIwMCcsICctbWV0YWxfYmluZGluZycsICctaW1hZScsICc8aW5maWxlLm1hZT4nLCAnLW9tYWUnLCAnPG91dGZpbGUubWFlPic=

> <r_lp_tautomer_probability>
1

> <r_epik_Ionization_Penalty>
8.63591e-05

> <r_epik_Ionization_Penalty_Charging>
0

> <r_epik_Ionization_Penalty_Neutral>
8.63591e-05

> <r_epik_State_Penalty>
-0

> <r_epik_Charging_Adjusted_Penalty>
0

> <i_epik_Tot_Q>
0

> <i_epik_Tot_abs_Q>
0

> <r_epik_Metal_State_Penalty>
-0

> <b_epik_Metal_Only>
0

> <s_lp_Force_Field>
OPLS_2005

> <r_lp_Energy>
49.4407

> <b_lp_Chiralities_Consistent>
1

> <s_lp_Variant>
AV-unprocessed.smi:91-8

> <Gold.Version>
5.8.1

> <Gold.Id.Protein>
6NUR|6NUR_protein|mol2

> <Gold.PLP.Fitness>
52.1061

> <Gold.PLP.PLP>
-46.5592

> <Gold.PLP.part.hbond>
-3.4356

> <Gold.PLP.part.metal>
0.0000

> <Gold.PLP.part.buried>
-5.7179

> <Gold.PLP.part.nonpolar>
-36.8676

> <Gold.PLP.part.repulsive>
0.7732

> <Gold.PLP.ligand.clash>
0.0000

> <Gold.PLP.ligand.torsion>
1.7936

> <Gold.PLP.Chemscore.Hbond>
2.9306

> <Gold.PLP.Chemscore.CHOScore>
0.0000

> <Gold.PLP.Chemscore.Metal>
0.0000

> <Gold.Chemscore.Hbonds>
donor molecule, donor type, donor heavy atom, donor atom, acceptor molecule, acceptor atom, score
      P1  H  6896  6909       L1     2  0.90
      P1  H  7989  7998       L1    10  0.34
      P1  H  7997  8009       L1    19  0.54
      P1  H 10752 10763       L1     8  0.93

> <Gold.PLP.Chemscore.Internal.Correction>
0.3422

> <Gold.Rescore>
     Score         DG    S(hbond)    S(metal)    S(lipo)     H(rot)  DE(clash)    DE(int)     intcor
     11.75     -14.77       1.34        0.00     107.27       3.03       0.05       2.97       ----

> <Gold.Chemscore.Fitness>
11.7472

> <Gold.Chemscore.DG>
-14.7682

> <Gold.Chemscore.ZeroCoef>
-5.4800

> <Gold.Chemscore.Hbond>
1.3444

> <Gold.Chemscore.Metal>
0.0000

> <Gold.Chemscore.Lipo>
107.2708

> <Gold.Chemscore.Internal_Hbond>
0.0000

> <Gold.Chemscore.DEClash>
0.0544

> <Gold.Chemscore.DEInternal>
2.9666

> <Gold.Chemscore.Rot>
3.0284

> <Gold.Chemscore.Internal.Correction>
   9.000000E+99

> <Gold.Chemscore.Hbonds>
donor molecule, donor type, donor heavy atom, donor atom, acceptor molecule, acceptor atom, score
      P1  H  6896  6909       L1     2  0.15
      P1  H  7989  7998       L1    10  0.08
      P1  H  7997  8009       L1    19  0.21
      P1  H 10752 10763       L1     8  0.22

> <Gold.Chemscore.Hbond.Weighted>
-4.4904

> <Gold.Chemscore.Metal.Weighted>
-0.0000

> <Gold.Chemscore.Lipo.Weighted>
-12.5507

> <Gold.Chemscore.Internal_Hbond.Weighted>
0.0000

> <Gold.Chemscore.DEClash.Weighted>
0.0544

> <Gold.Chemscore.DEInternal.Weighted>
2.9666

> <Gold.Chemscore.Rot.Weighted>
7.7528

> <Gold.Chemscore.Internal.Correction.Weighted>
   9.000000E+99

> <Gold.Protein.RotatedTorsions>
[ 6907 6896 6895 6894 ] final  -78.80 input  -60.11 | X-H torsion
[ 7974 7965 7964 7962 ] final  -12.18 input  175.53 | X-H torsion
[ 8008 7997 7996 7995 ] final  114.22 input   59.86 | X-H torsion
[ 10167 10162 10161 10158 ] final -179.88 input  -65.29 | X-H torsion
[ 10718 10713 10712 10709 ] final   19.78 input   66.30 | X-H torsion
[ 10763 10752 10751 10750 ] final   51.56 input  -60.55 | X-H torsion
[ 11005 11000 10999 10996 ] final  -79.41 input  -57.11 | X-H torsion

> <Gold.Protein.ActiveResidues>
 VAL166  LYS551  ARG553  GLY616  TRP617  ASP618  TYR619  PRO620  LYS621  CYS622 
 ASP623  PHE694  ASN695  SER759  ASP760  ASP761  ALA762  ILE779  LEU786  VAL792 
 PHE793  MET794  SER795  GLU796  ALA797  LYS798  CYS799  TRP800  GLU811  SER814 

> <Gold.Protein.RotatedAtoms>
  150.6964  134.4217  159.5207 H   0  0  0  0  0  0  0  0  0  0  0  0  # atno 6907 bound_to 6896
  152.1959  134.8628  160.0522 H   0  0  0  0  0  0  0  0  0  0  0  0  # atno 6908 bound_to 6896
  151.9566  133.3647  159.4056 H   0  0  0  0  0  0  0  0  0  0  0  0  # atno 6909 bound_to 6896
  146.2161  140.3020  142.8376 H   0  0  0  0  0  0  0  0  0  0  0  0  # atno 7974 bound_to 7965
  156.2307  140.2963  156.0182 H   0  0  0  0  0  0  0  0  0  0  0  0  # atno 8008 bound_to 7997
  155.2232  140.0416  157.2968 H   0  0  0  0  0  0  0  0  0  0  0  0  # atno 8009 bound_to 7997
  154.5991  140.2422  155.7824 H   0  0  0  0  0  0  0  0  0  0  0  0  # atno 8010 bound_to 7997
  139.5366  144.2479  152.0808 H   0  0  0  0  0  0  0  0  0  0  0  0  # atno 10167 bound_to 10162
  157.1152  130.6526  149.5908 H   0  0  0  0  0  0  0  0  0  0  0  0  # atno 10718 bound_to 10713
  152.9785  135.5841  154.4436 H   0  0  0  0  0  0  0  0  0  0  0  0  # atno 10763 bound_to 10752
  154.4034  135.2769  155.2084 H   0  0  0  0  0  0  0  0  0  0  0  0  # atno 10764 bound_to 10752
  154.3905  135.6126  153.5895 H   0  0  0  0  0  0  0  0  0  0  0  0  # atno 10765 bound_to 10752
  141.1667  133.7104  156.8118 H   0  0  0  0  0  0  0  0  0  0  0  0  # atno 11005 bound_to 11000
  144.9050  140.7689  143.5843 LP  0  0  0  0  0  0  0  0  0  0  0  0  # atno 17320 bound_to 7965
  145.2948  139.1871  143.4721 LP  0  0  0  0  0  0  0  0  0  0  0  0  # atno 17321 bound_to 7965
  140.1950  144.4714  150.6459 LP  0  0  0  0  0  0  0  0  0  0  0  0  # atno 17342 bound_to 10162
  140.6576  143.2242  151.5932 LP  0  0  0  0  0  0  0  0  0  0  0  0  # atno 17343 bound_to 10162
  155.9841  130.4864  150.6966 LP  0  0  0  0  0  0  0  0  0  0  0  0  # atno 17370 bound_to 10713
  157.4524  131.0874  151.0831 LP  0  0  0  0  0  0  0  0  0  0  0  0  # atno 17371 bound_to 10713
  140.2182  134.8777  157.3349 LP  0  0  0  0  0  0  0  0  0  0  0  0  # atno 17394 bound_to 11000
  140.2015  134.4249  155.7660 LP  0  0  0  0  0  0  0  0  0  0  0  0  # atno 17395 bound_to 11000

$$$$
