AV-unprocessed.smi:287|AV-procd|sdf|2177|dock2
  -GOLD-   2262021543D 1   1.00000     0.00000
 Structure written by MMmdl.
 55 58  0  0  0  0  0  0  0  0  1 V2000
  151.8598  142.8410  158.1568 C   0  0  0  0  0  0  0  0  0  0  0  0
  151.3157  141.9239  157.1159 C   0  0  0  0  0  0  0  0  0  0  0  0
  150.1200  141.8384  156.4646 C   0  0  0  0  0  0  0  0  0  0  0  0
  150.1968  140.7242  155.5760 C   0  0  0  0  0  0  0  0  0  0  0  0
  149.0969  140.2417  154.6398 C   0  0  1  0  0  0  0  0  0  0  0  0
  147.9116  141.2196  154.6838 C   0  0  0  0  0  0  0  0  0  0  0  0
  149.5082  140.2070  153.2866 O   0  0  0  0  0  0  0  0  0  0  0  0
  148.6164  138.8102  154.9725 C   0  0  0  0  0  0  0  0  0  0  0  0
  147.7740  138.2367  153.9278 N   0  0  0  0  0  0  0  0  0  0  0  0
  147.2850  136.9863  154.0591 C   0  0  0  0  0  0  0  0  0  0  0  0
  147.7079  136.1700  155.0597 N   0  0  0  0  0  0  0  0  0  0  0  0
  147.2084  134.9349  155.1708 C   0  0  0  0  0  0  0  0  0  0  0  0
  146.2959  134.3311  154.4053 N   0  0  0  0  0  0  0  0  0  0  0  0
  145.8695  135.1504  153.4008 C   0  0  0  0  0  0  0  0  0  0  0  0
  146.3111  136.4803  153.1604 C   0  0  0  0  0  0  0  0  0  0  0  0
  145.6549  137.0003  152.0522 N   0  0  0  0  0  0  0  0  0  0  0  0
  144.8677  136.0312  151.6671 C   0  0  0  0  0  0  0  0  0  0  0  0
  144.9312  134.8831  152.4288 N   0  0  0  0  0  0  0  0  0  0  0  0
  144.1745  133.6028  152.2811 C   0  0  2  0  0  0  0  0  0  0  0  0
  145.0867  132.6040  151.9240 O   0  0  0  0  0  0  0  0  0  0  0  0
  144.7776  132.0605  150.6405 C   0  0  2  0  0  0  0  0  0  0  0  0
  146.0715  131.7109  149.8892 C   0  0  0  0  0  0  0  0  0  0  0  0
  147.0726  132.6619  150.1805 O   0  0  0  0  0  0  0  0  0  0  0  0
  143.9625  133.1658  149.9690 C   0  0  1  0  0  0  0  0  0  0  0  0
  143.1372  132.7000  148.9189 O   0  0  0  0  0  0  0  0  0  0  0  0
  143.1677  133.7385  151.1321 C   0  0  1  0  0  0  0  0  0  0  0  0
  141.9821  133.0160  151.4114 O   0  0  0  0  0  0  0  0  0  0  0  0
  151.4665  140.2273  155.7475 C   0  0  0  0  0  0  0  0  0  0  0  0
  152.2308  139.1010  155.1337 C   0  0  0  0  0  0  0  0  0  0  0  0
  152.1484  140.9438  156.6843 O   0  0  0  0  0  0  0  0  0  0  0  0
  143.7319  133.4303  153.2631 H   0  0  0  0  0  0  0  0  0  0  0  0
  144.1489  131.1781  150.7764 H   0  0  0  0  0  0  0  0  0  0  0  0
  144.6336  133.9338  149.5804 H   0  0  0  0  0  0  0  0  0  0  0  0
  142.8945  134.7813  150.9639 H   0  0  0  0  0  0  0  0  0  0  0  0
  151.0846  143.5114  158.5282 H   0  0  0  0  0  0  0  0  0  0  0  0
  152.6676  143.4500  157.7508 H   0  0  0  0  0  0  0  0  0  0  0  0
  152.2513  142.2768  159.0035 H   0  0  0  0  0  0  0  0  0  0  0  0
  149.2779  142.4978  156.6142 H   0  0  0  0  0  0  0  0  0  0  0  0
  147.4983  141.2933  155.6904 H   0  0  0  0  0  0  0  0  0  0  0  0
  147.1053  140.9011  154.0218 H   0  0  0  0  0  0  0  0  0  0  0  0
  148.2131  142.2229  154.3789 H   0  0  0  0  0  0  0  0  0  0  0  0
  149.1850  140.9831  152.8553 H   0  0  0  0  0  0  0  0  0  0  0  0
  149.4896  138.1640  155.0747 H   0  0  0  0  0  0  0  0  0  0  0  0
  148.0983  138.7874  155.9325 H   0  0  0  0  0  0  0  0  0  0  0  0
  147.5991  138.8247  153.1250 H   0  0  0  0  0  0  0  0  0  0  0  0
  147.5935  134.3478  155.9914 H   0  0  0  0  0  0  0  0  0  0  0  0
  144.2150  136.1349  150.8131 H   0  0  0  0  0  0  0  0  0  0  0  0
  146.4419  130.7381  150.2138 H   0  0  0  0  0  0  0  0  0  0  0  0
  145.9056  131.6506  148.8135 H   0  0  0  0  0  0  0  0  0  0  0  0
  147.9127  132.2297  150.1589 H   0  0  0  0  0  0  0  0  0  0  0  0
  142.2801  133.0854  149.0226 H   0  0  0  0  0  0  0  0  0  0  0  0
  141.3341  133.2420  150.7614 H   0  0  0  0  0  0  0  0  0  0  0  0
  152.1571  139.1299  154.0467 H   0  0  0  0  0  0  0  0  0  0  0  0
  151.8441  138.1408  155.4749 H   0  0  0  0  0  0  0  0  0  0  0  0
  153.2875  139.1513  155.3970 H   0  0  0  0  0  0  0  0  0  0  0  0
  1  2  1  0  0  0  0
  1 35  1  0  0  0  0
  1 36  1  0  0  0  0
  1 37  1  0  0  0  0
  2 30  1  0  0  0  0
  2  3  2  0  0  0  0
  3  4  1  0  0  0  0
  3 38  1  0  0  0  0
  4  5  1  0  0  0  0
  4 28  2  0  0  0  0
  5  6  1  0  0  0  0
  5  7  1  0  0  0  0
  5  8  1  0  0  0  0
  6 39  1  0  0  0  0
  6 40  1  0  0  0  0
  6 41  1  0  0  0  0
  7 42  1  0  0  0  0
  8  9  1  0  0  0  0
  8 43  1  0  0  0  0
  8 44  1  0  0  0  0
  9 10  1  0  0  0  0
  9 45  1  0  0  0  0
 10 15  1  0  0  0  0
 10 11  2  0  0  0  0
 11 12  1  0  0  0  0
 12 13  2  0  0  0  0
 12 46  1  0  0  0  0
 13 14  1  0  0  0  0
 14 18  1  0  0  0  0
 14 15  2  0  0  0  0
 15 16  1  0  0  0  0
 16 17  2  0  0  0  0
 17 18  1  0  0  0  0
 17 47  1  0  0  0  0
 18 19  1  0  0  0  0
 19 31  1  0  0  0  0
 19 26  1  0  0  0  0
 19 20  1  0  0  0  0
 20 21  1  0  0  0  0
 21 32  1  0  0  0  0
 21 22  1  0  0  0  0
 21 24  1  0  0  0  0
 22 23  1  0  0  0  0
 22 48  1  0  0  0  0
 22 49  1  0  0  0  0
 23 50  1  0  0  0  0
 24 33  1  0  0  0  0
 24 25  1  0  0  0  0
 24 26  1  0  0  0  0
 25 51  1  0  0  0  0
 26 34  1  0  0  0  0
 26 27  1  0  0  0  0
 27 52  1  0  0  0  0
 28 29  1  0  0  0  0
 28 30  1  0  0  0  0
 29 53  1  0  0  0  0
 29 54  1  0  0  0  0
 29 55  1  0  0  0  0
M  END
> <s_m_source_file>
AV-unprocessed.smi

> <i_m_source_file_index>
287

> <i_lp_mmshare_version>
43012

> <i_f3d_flags>
0

> <s_epik_input>
W0NIM11jMVtjSF1jKGMobzEpW0NIM10pW0NAQF0oW0NIM10pKFtPSF0pW0NIMl1bTkhdYyhuW2NIXW4yKWMoYzIzKW5bY0hdbjNbQ0BASF00T1tDQEhdKFtDSDJdW09IXSlbQ0BASF0oW09IXSlbQ0BIXTRbT0hd

> <s_epik_cmdline>
J2VwaWtfcHl0aG9uJywgJy1waCcsICc3LjAnLCAnLXRuJywgJzgnLCAnLW1hJywgJzIwMCcsICctbWV0YWxfYmluZGluZycsICctaW1hZScsICc8aW5maWxlLm1hZT4nLCAnLW9tYWUnLCAnPG91dGZpbGUubWFlPic=

> <r_lp_tautomer_probability>
1

> <r_epik_Ionization_Penalty>
0.000992612

> <r_epik_Ionization_Penalty_Charging>
0

> <r_epik_Ionization_Penalty_Neutral>
0.000992612

> <r_epik_State_Penalty>
-0

> <r_epik_Charging_Adjusted_Penalty>
0

> <i_epik_Tot_Q>
0

> <i_epik_Tot_abs_Q>
0

> <r_epik_Metal_State_Penalty>
-0

> <b_epik_Metal_Only>
0

> <s_epik_Chemistry_Notes>
This compound contains an acetal/aminal-like group ( X-CH(R)-Y where X, Y are N, S, or O) that may be acid/base labile, releasing an aldehyde.

> <s_lp_Force_Field>
OPLS_2005

> <r_lp_Energy>
40.3349

> <b_lp_Chiralities_Consistent>
1

> <s_lp_Variant>
AV-unprocessed.smi:287-1

> <Gold.Version>
5.8.1

> <Gold.Id.Protein>
6NUR|6NUR_protein|mol2

> <Gold.PLP.Fitness>
47.7728

> <Gold.PLP.PLP>
-34.3490

> <Gold.PLP.part.hbond>
-6.1334

> <Gold.PLP.part.metal>
0.0000

> <Gold.PLP.part.buried>
5.2786

> <Gold.PLP.part.nonpolar>
-32.5201

> <Gold.PLP.part.repulsive>
0.4780

> <Gold.PLP.ligand.clash>
0.0000

> <Gold.PLP.ligand.torsion>
0.4744

> <Gold.PLP.Chemscore.Hbond>
3.9695

> <Gold.PLP.Chemscore.CHOScore>
0.7620

> <Gold.PLP.Chemscore.Metal>
0.0000

> <Gold.Chemscore.Hbonds>
donor molecule, donor type, donor heavy atom, donor atom, acceptor molecule, acceptor atom, score
      L1  H    23    50       P1 10747  1.00
      L1  H    25    51       P1 10186  1.00
      L1  H    27    52       P1 10186  0.85
      P1  H  7989  7998       L1     7  0.21
      P1  H  7997  8008       L1    30  0.14
      L1  C    17    47       P1 10171  0.52

> <Gold.PLP.Chemscore.Internal.Correction>
0.1780

> <Gold.Rescore>
     Score         DG    S(hbond)    S(metal)    S(lipo)     H(rot)  DE(clash)    DE(int)     intcor
      9.53     -12.67       2.90        0.00      93.80       5.27       2.58       0.55       ----

> <Gold.Chemscore.Fitness>
9.5334

> <Gold.Chemscore.DG>
-12.6671

> <Gold.Chemscore.ZeroCoef>
-5.4800

> <Gold.Chemscore.Hbond>
2.9032

> <Gold.Chemscore.Metal>
0.0000

> <Gold.Chemscore.Lipo>
93.7995

> <Gold.Chemscore.Internal_Hbond>
0.0000

> <Gold.Chemscore.DEClash>
2.5796

> <Gold.Chemscore.DEInternal>
0.5542

> <Gold.Chemscore.Rot>
5.2672

> <Gold.Chemscore.Internal.Correction>
   9.000000E+99

> <Gold.Chemscore.Hbonds>
donor molecule, donor type, donor heavy atom, donor atom, acceptor molecule, acceptor atom, score
      L1  H    23    50       P1 10747  0.99
      L1  H    25    51       P1 10186  0.99
      L1  H    27    52       P1 10186  0.58
      P1  H  7989  7998       L1     7  0.01
      P1  H  7997  8008       L1    30  0.07

> <Gold.Chemscore.Hbond.Weighted>
-9.6965

> <Gold.Chemscore.Metal.Weighted>
-0.0000

> <Gold.Chemscore.Lipo.Weighted>
-10.9745

> <Gold.Chemscore.Internal_Hbond.Weighted>
0.0000

> <Gold.Chemscore.DEClash.Weighted>
2.5796

> <Gold.Chemscore.DEInternal.Weighted>
0.5542

> <Gold.Chemscore.Rot.Weighted>
13.4839

> <Gold.Chemscore.Internal.Correction.Weighted>
   9.000000E+99

> <Gold.Protein.RotatedTorsions>
[ 6907 6896 6895 6894 ] final   41.47 input  -60.11 | X-H torsion
[ 7974 7965 7964 7962 ] final   50.01 input  175.53 | X-H torsion
[ 8008 7997 7996 7995 ] final  -54.67 input   59.86 | X-H torsion
[ 10167 10162 10161 10158 ] final -165.36 input  -65.29 | X-H torsion
[ 10718 10713 10712 10709 ] final -120.10 input   66.30 | X-H torsion
[ 10763 10752 10751 10750 ] final  -47.54 input  -60.55 | X-H torsion
[ 11005 11000 10999 10996 ] final  -75.55 input  -57.11 | X-H torsion

> <Gold.Protein.ActiveResidues>
 VAL166  LYS551  ARG553  GLY616  TRP617  ASP618  TYR619  PRO620  LYS621  CYS622 
 ASP623  PHE694  ASN695  SER759  ASP760  ASP761  ALA762  ILE779  LEU786  VAL792 
 PHE793  MET794  SER795  GLU796  ALA797  LYS798  CYS799  TRP800  GLU811  SER814 

> <Gold.Protein.RotatedAtoms>
  152.1957  134.8633  160.0512 H   0  0  0  0  0  0  0  0  0  0  0  0  # atno 6907 bound_to 6896
  151.9505  133.3659  159.4006 H   0  0  0  0  0  0  0  0  0  0  0  0  # atno 6908 bound_to 6896
  150.6944  134.4269  159.5274 H   0  0  0  0  0  0  0  0  0  0  0  0  # atno 6909 bound_to 6896
  146.0054  139.4484  142.9989 H   0  0  0  0  0  0  0  0  0  0  0  0  # atno 7974 bound_to 7965
  154.4170  140.1171  156.5352 H   0  0  0  0  0  0  0  0  0  0  0  0  # atno 8008 bound_to 7997
  155.6564  140.3496  155.4747 H   0  0  0  0  0  0  0  0  0  0  0  0  # atno 8009 bound_to 7997
  155.9750  140.1149  157.0768 H   0  0  0  0  0  0  0  0  0  0  0  0  # atno 8010 bound_to 7997
  139.6187  144.0667  152.1913 H   0  0  0  0  0  0  0  0  0  0  0  0  # atno 10167 bound_to 10162
  156.1232  130.6339  150.9498 H   0  0  0  0  0  0  0  0  0  0  0  0  # atno 10718 bound_to 10713
  154.0632  135.6615  153.4814 H   0  0  0  0  0  0  0  0  0  0  0  0  # atno 10763 bound_to 10752
  153.0419  135.5139  154.7639 H   0  0  0  0  0  0  0  0  0  0  0  0  # atno 10764 bound_to 10752
  154.6682  135.3025  154.9744 H   0  0  0  0  0  0  0  0  0  0  0  0  # atno 10765 bound_to 10752
  141.1646  133.6950  156.7533 H   0  0  0  0  0  0  0  0  0  0  0  0  # atno 11005 bound_to 11000
  145.7424  141.0003  143.1294 LP  0  0  0  0  0  0  0  0  0  0  0  0  # atno 17320 bound_to 7965
  144.6934  139.9115  143.7463 LP  0  0  0  0  0  0  0  0  0  0  0  0  # atno 17321 bound_to 7965
  140.0303  144.6085  150.7493 LP  0  0  0  0  0  0  0  0  0  0  0  0  # atno 17342 bound_to 10162
  140.7368  143.2758  151.3748 LP  0  0  0  0  0  0  0  0  0  0  0  0  # atno 17343 bound_to 10162
  157.6414  131.0909  150.8243 LP  0  0  0  0  0  0  0  0  0  0  0  0  # atno 17370 bound_to 10713
  156.8337  130.5024  149.5329 LP  0  0  0  0  0  0  0  0  0  0  0  0  # atno 17371 bound_to 10713
  140.2588  134.8483  157.3738 LP  0  0  0  0  0  0  0  0  0  0  0  0  # atno 17394 bound_to 11000
  140.1631  134.4703  155.7881 LP  0  0  0  0  0  0  0  0  0  0  0  0  # atno 17395 bound_to 11000

$$$$
