AV-unprocessed.smi:252|AV-procd|sdf|1942|dock9
  -GOLD-   2262021 73D 1   1.00000     0.00000
 Structure written by MMmdl.
 56 59  0  0  0  0  0  0  0  0  1 V2000
  146.6905  141.0371  153.3247 C   0  0  0  0  0  0  0  0  0  0  0  0
  147.1796  139.5807  153.2921 C   0  0  0  0  0  0  0  0  0  0  0  0
  147.7640  139.0967  154.6233 C   0  0  0  0  0  0  0  0  0  0  0  0
  147.7672  139.8236  155.6173 O   0  0  0  0  0  0  0  0  0  0  0  0
  148.2573  137.8493  154.6233 N   0  0  0  0  0  0  0  0  0  0  0  0
  148.8485  137.1728  155.7729 C   0  0  2  0  0  0  0  0  0  0  0  0
  150.1697  137.8515  156.1859 C   0  0  0  0  0  0  0  0  0  0  0  0
  150.8460  137.0652  157.3188 C   0  0  0  0  0  0  0  0  0  0  0  0
  151.0410  135.5921  156.9266 C   0  0  0  0  0  0  0  0  0  0  0  0
  149.7717  134.9948  156.5096 N   0  0  0  0  0  0  0  0  0  0  0  0
  149.7070  133.6418  156.4330 C   0  0  0  0  0  0  0  0  0  0  0  0
  149.9853  132.8842  157.5279 N   0  0  0  0  0  0  0  0  0  0  0  0
  149.9352  131.5509  157.4555 C   0  0  0  0  0  0  0  0  0  0  0  0
  149.6330  130.7828  156.4073 N   0  0  0  0  0  0  0  0  0  0  0  0
  149.3494  131.5362  155.3067 C   0  0  0  0  0  0  0  0  0  0  0  0
  149.3588  132.9580  155.2343 C   0  0  0  0  0  0  0  0  0  0  0  0
  148.9967  133.3689  153.9568 N   0  0  0  0  0  0  0  0  0  0  0  0
  148.7900  132.2544  153.3103 C   0  0  0  0  0  0  0  0  0  0  0  0
  148.9924  131.1050  154.0408 N   0  0  0  0  0  0  0  0  0  0  0  0
  148.8330  129.7367  153.5734 C   0  0  0  0  0  0  0  0  0  0  0  0
  147.3932  129.3888  153.1036 C   0  0  2  0  0  0  0  0  0  0  0  0
  147.0452  130.1979  151.9961 O   0  0  0  0  0  0  0  0  0  0  0  0
  146.3323  129.5493  154.1859 C   0  0  0  0  0  0  0  0  0  0  0  0
  146.4371  128.2339  154.9521 C   0  0  0  0  0  0  0  0  0  0  0  0
  146.8669  127.2660  153.9989 O   0  0  0  0  0  0  0  0  0  0  0  0
  147.1883  127.9001  152.7634 C   0  0  2  0  0  0  0  0  0  0  0  0
  148.3551  127.1814  152.0701 C   0  0  0  0  0  0  0  0  0  0  0  0
  149.0853  135.6924  155.4231 C   0  0  0  0  0  0  0  0  0  0  0  0
  146.3137  141.3378  152.3470 H   0  0  0  0  0  0  0  0  0  0  0  0
  147.4961  141.7220  153.5923 H   0  0  0  0  0  0  0  0  0  0  0  0
  145.8809  141.1691  154.0435 H   0  0  0  0  0  0  0  0  0  0  0  0
  146.3541  138.9237  153.0164 H   0  0  0  0  0  0  0  0  0  0  0  0
  147.9392  139.4728  152.5169 H   0  0  0  0  0  0  0  0  0  0  0  0
  148.2133  137.3247  153.7617 H   0  0  0  0  0  0  0  0  0  0  0  0
  148.1509  137.2137  156.6122 H   0  0  0  0  0  0  0  0  0  0  0  0
  150.8436  137.9052  155.3298 H   0  0  0  0  0  0  0  0  0  0  0  0
  149.9881  138.8781  156.5055 H   0  0  0  0  0  0  0  0  0  0  0  0
  151.8071  137.5160  157.5665 H   0  0  0  0  0  0  0  0  0  0  0  0
  150.2334  137.1247  158.2194 H   0  0  0  0  0  0  0  0  0  0  0  0
  151.7610  135.5165  156.1103 H   0  0  0  0  0  0  0  0  0  0  0  0
  151.4534  135.0430  157.7742 H   0  0  0  0  0  0  0  0  0  0  0  0
  150.1734  131.0236  158.3675 H   0  0  0  0  0  0  0  0  0  0  0  0
  148.4880  132.2396  152.2731 H   0  0  0  0  0  0  0  0  0  0  0  0
  149.5440  129.5782  152.7618 H   0  0  0  0  0  0  0  0  0  0  0  0
  149.1407  129.0696  154.3793 H   0  0  0  0  0  0  0  0  0  0  0  0
  147.8373  130.4473  151.5451 H   0  0  0  0  0  0  0  0  0  0  0  0
  146.4514  130.4271  154.8195 H   0  0  0  0  0  0  0  0  0  0  0  0
  145.3402  129.6131  153.7350 H   0  0  0  0  0  0  0  0  0  0  0  0
  147.1874  128.3065  155.7401 H   0  0  0  0  0  0  0  0  0  0  0  0
  145.4915  127.9462  155.4119 H   0  0  0  0  0  0  0  0  0  0  0  0
  146.3006  127.8028  152.1352 H   0  0  0  0  0  0  0  0  0  0  0  0
  148.6276  127.6834  151.1415 H   0  0  0  0  0  0  0  0  0  0  0  0
  148.0825  126.1548  151.8244 H   0  0  0  0  0  0  0  0  0  0  0  0
  149.2399  127.1396  152.7054 H   0  0  0  0  0  0  0  0  0  0  0  0
  148.1310  135.2201  155.1908 H   0  0  0  0  0  0  0  0  0  0  0  0
  149.6978  135.6145  154.5234 H   0  0  0  0  0  0  0  0  0  0  0  0
  1  2  1  0  0  0  0
  1 29  1  0  0  0  0
  1 30  1  0  0  0  0
  1 31  1  0  0  0  0
  2  3  1  0  0  0  0
  2 32  1  0  0  0  0
  2 33  1  0  0  0  0
  3  4  2  0  0  0  0
  3  5  1  0  0  0  0
  5  6  1  0  0  0  0
  5 34  1  0  0  0  0
  6 28  1  0  0  0  0
  6  7  1  0  0  0  0
  6 35  1  0  0  0  0
  7  8  1  0  0  0  0
  7 36  1  0  0  0  0
  7 37  1  0  0  0  0
  8  9  1  0  0  0  0
  8 38  1  0  0  0  0
  8 39  1  0  0  0  0
  9 10  1  0  0  0  0
  9 40  1  0  0  0  0
  9 41  1  0  0  0  0
 10 11  1  0  0  0  0
 10 28  1  0  0  0  0
 11 16  1  0  0  0  0
 11 12  2  0  0  0  0
 12 13  1  0  0  0  0
 13 14  2  0  0  0  0
 13 42  1  0  0  0  0
 14 15  1  0  0  0  0
 15 19  1  0  0  0  0
 15 16  2  0  0  0  0
 16 17  1  0  0  0  0
 17 18  2  0  0  0  0
 18 19  1  0  0  0  0
 18 43  1  0  0  0  0
 19 20  1  0  0  0  0
 20 21  1  0  0  0  0
 20 44  1  0  0  0  0
 20 45  1  0  0  0  0
 21 26  1  0  0  0  0
 21 22  1  0  0  0  0
 21 23  1  0  0  0  0
 22 46  1  0  0  0  0
 23 24  1  0  0  0  0
 23 47  1  0  0  0  0
 23 48  1  0  0  0  0
 24 25  1  0  0  0  0
 24 49  1  0  0  0  0
 24 50  1  0  0  0  0
 25 26  1  0  0  0  0
 26 27  1  0  0  0  0
 26 51  1  0  0  0  0
 27 52  1  0  0  0  0
 27 53  1  0  0  0  0
 27 54  1  0  0  0  0
 28 55  1  0  0  0  0
 28 56  1  0  0  0  0
M  END
> <s_m_source_file>
AV-unprocessed.smi

> <i_m_source_file_index>
252

> <i_lp_mmshare_version>
43012

> <i_f3d_flags>
0

> <s_epik_input>
W0NIM11bQ0gyXUMoPU8pW05IXVtDQEBIXTFbQ0gyXVtDSDJdW0NIMl1OKFtDSDJdMSljKG5bY0hdbjIpYyhjMjMpbltjSF1uM1tDSDJdW0NAQF00KFtPSF0pW0NIMl1bQ0gyXU9bQ0BIXTRbQ0gzXQ==

> <s_epik_cmdline>
J2VwaWtfcHl0aG9uJywgJy1waCcsICc3LjAnLCAnLXRuJywgJzgnLCAnLW1hJywgJzIwMCcsICctbWV0YWxfYmluZGluZycsICctaW1hZScsICc8aW5maWxlLm1hZT4nLCAnLW9tYWUnLCAnPG91dGZpbGUubWFlPic=

> <r_lp_tautomer_probability>
1

> <r_epik_Ionization_Penalty>
0.00182575

> <r_epik_Ionization_Penalty_Charging>
0

> <r_epik_Ionization_Penalty_Neutral>
0.00182575

> <r_epik_State_Penalty>
0.00104524

> <r_epik_Charging_Adjusted_Penalty>
0.00104524

> <i_epik_Tot_Q>
0

> <i_epik_Tot_abs_Q>
0

> <r_epik_Metal_State_Penalty>
-0

> <b_epik_Metal_Only>
0

> <s_lp_Force_Field>
OPLS_2005

> <r_lp_Energy>
36.2255

> <b_lp_Chiralities_Consistent>
1

> <s_lp_Variant>
AV-unprocessed.smi:252-7

> <Gold.Version>
5.8.1

> <Gold.Id.Protein>
6NUR|6NUR_protein|mol2

> <Gold.PLP.Fitness>
42.2950

> <Gold.PLP.PLP>
-31.1379

> <Gold.PLP.part.hbond>
-2.8186

> <Gold.PLP.part.metal>
0.0000

> <Gold.PLP.part.buried>
-3.3784

> <Gold.PLP.part.nonpolar>
-25.4661

> <Gold.PLP.part.repulsive>
0.2252

> <Gold.PLP.ligand.clash>
0.0371

> <Gold.PLP.ligand.torsion>
0.3237

> <Gold.PLP.Chemscore.Hbond>
2.8125

> <Gold.PLP.Chemscore.CHOScore>
1.0000

> <Gold.PLP.Chemscore.Metal>
0.0000

> <Gold.Chemscore.Hbonds>
donor molecule, donor type, donor heavy atom, donor atom, acceptor molecule, acceptor atom, score
      L1  H     5    34       P1  7948  0.31
      L1  H    22    46       P1 10747  1.00
      P1  H  6896  6908       L1    12  0.86
      L1  C    18    43       P1 10747  1.00

> <Gold.PLP.Chemscore.Internal.Correction>
0.4042

> <Gold.Rescore>
     Score         DG    S(hbond)    S(metal)    S(lipo)     H(rot)  DE(clash)    DE(int)     intcor
     11.70     -15.44       2.52        0.00      72.49       2.70       0.44       3.30       ----

> <Gold.Chemscore.Fitness>
11.7013

> <Gold.Chemscore.DG>
-15.4414

> <Gold.Chemscore.ZeroCoef>
-5.4800

> <Gold.Chemscore.Hbond>
2.5158

> <Gold.Chemscore.Metal>
0.0000

> <Gold.Chemscore.Lipo>
72.4883

> <Gold.Chemscore.Internal_Hbond>
0.0000

> <Gold.Chemscore.DEClash>
0.4373

> <Gold.Chemscore.DEInternal>
3.3028

> <Gold.Chemscore.Rot>
2.7041

> <Gold.Chemscore.Internal.Correction>
   9.000000E+99

> <Gold.Chemscore.Hbonds>
donor molecule, donor type, donor heavy atom, donor atom, acceptor molecule, acceptor atom, score
      L1  H     5    34       P1  7948  0.31
      L1  H    22    46       P1 10747  1.00
      P1  H  6896  6908       L1    12  0.66

> <Gold.Chemscore.Hbond.Weighted>
-8.4028

> <Gold.Chemscore.Metal.Weighted>
-0.0000

> <Gold.Chemscore.Lipo.Weighted>
-8.4811

> <Gold.Chemscore.Internal_Hbond.Weighted>
0.0000

> <Gold.Chemscore.DEClash.Weighted>
0.4373

> <Gold.Chemscore.DEInternal.Weighted>
3.3028

> <Gold.Chemscore.Rot.Weighted>
6.9225

> <Gold.Chemscore.Internal.Correction.Weighted>
   9.000000E+99

> <Gold.Protein.RotatedTorsions>
[ 6907 6896 6895 6894 ] final   97.24 input  -60.11 | X-H torsion
[ 7974 7965 7964 7962 ] final   84.00 input  175.53 | X-H torsion
[ 8008 7997 7996 7995 ] final  -45.98 input   59.86 | X-H torsion
[ 10167 10162 10161 10158 ] final  -75.45 input  -65.29 | X-H torsion
[ 10718 10713 10712 10709 ] final   12.21 input   66.30 | X-H torsion
[ 10763 10752 10751 10750 ] final  -13.91 input  -60.55 | X-H torsion
[ 11005 11000 10999 10996 ] final -147.07 input  -57.11 | X-H torsion

> <Gold.Protein.ActiveResidues>
 VAL166  LYS551  ARG553  GLY616  TRP617  ASP618  TYR619  PRO620  LYS621  CYS622 
 ASP623  PHE694  ASN695  SER759  ASP760  ASP761  ALA762  ILE779  LEU786  VAL792 
 PHE793  MET794  SER795  GLU796  ALA797  LYS798  CYS799  TRP800  GLU811  SER814 

> <Gold.Protein.RotatedAtoms>
  152.5426  134.0763  159.8215 H   0  0  0  0  0  0  0  0  0  0  0  0  # atno 6907 bound_to 6896
  151.0871  133.5337  159.2624 H   0  0  0  0  0  0  0  0  0  0  0  0  # atno 6908 bound_to 6896
  151.2143  135.0502  159.8978 H   0  0  0  0  0  0  0  0  0  0  0  0  # atno 6909 bound_to 6896
  145.6045  139.2358  143.2227 H   0  0  0  0  0  0  0  0  0  0  0  0  # atno 7974 bound_to 7965
  154.4004  140.1383  156.3936 H   0  0  0  0  0  0  0  0  0  0  0  0  # atno 8008 bound_to 7997
  155.7891  140.3479  155.5319 H   0  0  0  0  0  0  0  0  0  0  0  0  # atno 8009 bound_to 7997
  155.8598  140.0954  157.1611 H   0  0  0  0  0  0  0  0  0  0  0  0  # atno 8010 bound_to 7997
  140.4942  143.2374  151.7858 H   0  0  0  0  0  0  0  0  0  0  0  0  # atno 10167 bound_to 10162
  157.0068  130.6101  149.5703 H   0  0  0  0  0  0  0  0  0  0  0  0  # atno 10718 bound_to 10713
  153.5203  135.7016  153.5735 H   0  0  0  0  0  0  0  0  0  0  0  0  # atno 10763 bound_to 10752
  153.3786  135.3926  155.1841 H   0  0  0  0  0  0  0  0  0  0  0  0  # atno 10764 bound_to 10752
  154.8695  135.3829  154.4691 H   0  0  0  0  0  0  0  0  0  0  0  0  # atno 10765 bound_to 10752
  140.7755  134.3140  157.5062 H   0  0  0  0  0  0  0  0  0  0  0  0  # atno 11005 bound_to 11000
  146.1551  140.6869  142.9304 LP  0  0  0  0  0  0  0  0  0  0  0  0  # atno 17320 bound_to 7965
  144.7296  140.4630  143.6948 LP  0  0  0  0  0  0  0  0  0  0  0  0  # atno 17321 bound_to 7965
  139.4857  144.4609  151.9542 LP  0  0  0  0  0  0  0  0  0  0  0  0  # atno 17342 bound_to 10162
  140.3696  144.2871  150.5922 LP  0  0  0  0  0  0  0  0  0  0  0  0  # atno 17343 bound_to 10162
  156.0151  130.5244  150.8108 LP  0  0  0  0  0  0  0  0  0  0  0  0  # atno 17370 bound_to 10713
  157.5350  131.0938  150.9904 LP  0  0  0  0  0  0  0  0  0  0  0  0  # atno 17371 bound_to 10713
  139.8749  134.9287  156.3457 LP  0  0  0  0  0  0  0  0  0  0  0  0  # atno 17394 bound_to 11000
  140.9533  133.7437  156.0301 LP  0  0  0  0  0  0  0  0  0  0  0  0  # atno 17395 bound_to 11000

$$$$
