AV-unprocessed.smi:2510|AV-procd|sdf|9885|dock9
  -GOLD-   2272013523D 1   1.00000     0.00000
 Structure written by MMmdl.
 48 49  0  0  0  0  0  0  0  0  1 V2000
  150.1268  142.9584  158.2727 C   0  0  0  0  0  0  0  0  0  0  0  0
  151.2390  142.5414  157.2958 C   0  0  0  0  0  0  0  0  0  0  0  0
  151.5257  141.0214  157.2334 C   0  0  0  0  0  0  0  0  0  0  0  0
  152.4443  140.6451  158.4267 C   0  0  0  0  0  0  0  0  0  0  0  0
  151.9789  141.1587  159.7984 C   0  0  0  0  0  0  0  0  0  0  0  0
  150.2533  140.1549  156.9841 C   0  0  2  0  0  0  0  0  0  0  0  0
  150.3522  138.7998  157.5243 N   0  0  0  0  0  0  0  0  0  0  0  0
  149.3531  138.1339  158.1215 C   0  0  0  0  0  0  0  0  0  0  0  0
  148.1942  138.5449  158.1717 O   0  0  0  0  0  0  0  0  0  0  0  0
  149.7341  136.8196  158.8026 C   0  0  0  0  0  0  0  0  0  0  0  0
  148.5223  136.1844  159.4070 C   0  0  0  0  0  0  0  0  0  0  0  0
  148.1576  135.9947  160.7108 C   0  0  0  0  0  0  0  0  0  0  0  0
  146.8709  135.3861  160.6317 C   0  0  0  0  0  0  0  0  0  0  0  0
  145.9700  134.9742  161.7582 C   0  0  0  0  0  0  0  0  0  0  0  0
  146.4757  135.1984  159.3814 N   0  0  0  0  0  0  0  0  0  0  0  0
  147.4908  135.6853  158.6442 N   0  0  0  0  0  0  0  0  0  0  0  0
  150.5466  140.1922  155.4743 C   0  0  2  0  0  0  0  0  0  0  0  0
  150.2138  139.0055  154.5719 C   0  0  0  0  0  0  0  0  0  0  0  0
  152.0030  140.5359  155.8372 C   0  0  2  0  0  0  0  0  0  0  0  0
  152.8268  139.3778  155.9276 O   0  0  0  0  0  0  0  0  0  0  0  0
  153.2127  138.8678  154.6631 C   0  0  0  0  0  0  0  0  0  0  0  0
  147.4605  135.6837  157.6344 H   0  0  0  0  0  0  0  0  0  0  0  0
  149.8968  144.0178  158.1586 H   0  0  0  0  0  0  0  0  0  0  0  0
  150.4200  142.8068  159.3111 H   0  0  0  0  0  0  0  0  0  0  0  0
  149.2060  142.4018  158.0978 H   0  0  0  0  0  0  0  0  0  0  0  0
  150.9486  142.9018  156.3090 H   0  0  0  0  0  0  0  0  0  0  0  0
  152.1467  143.0985  157.5252 H   0  0  0  0  0  0  0  0  0  0  0  0
  152.6012  139.5680  158.4740 H   0  0  0  0  0  0  0  0  0  0  0  0
  153.4430  141.0525  158.2780 H   0  0  0  0  0  0  0  0  0  0  0  0
  152.7431  140.9704  160.5525 H   0  0  0  0  0  0  0  0  0  0  0  0
  151.0688  140.6624  160.1335 H   0  0  0  0  0  0  0  0  0  0  0  0
  151.7945  142.2331  159.7795 H   0  0  0  0  0  0  0  0  0  0  0  0
  149.3162  140.6567  157.2298 H   0  0  0  0  0  0  0  0  0  0  0  0
  151.2720  138.3829  157.5338 H   0  0  0  0  0  0  0  0  0  0  0  0
  150.1932  136.1466  158.0772 H   0  0  0  0  0  0  0  0  0  0  0  0
  150.4825  137.0136  159.5716 H   0  0  0  0  0  0  0  0  0  0  0  0
  148.7172  136.2711  161.5921 H   0  0  0  0  0  0  0  0  0  0  0  0
  146.4953  135.0019  162.7127 H   0  0  0  0  0  0  0  0  0  0  0  0
  145.5960  133.9600  161.6150 H   0  0  0  0  0  0  0  0  0  0  0  0
  145.1104  135.6405  161.8332 H   0  0  0  0  0  0  0  0  0  0  0  0
  150.0790  141.0890  155.0648 H   0  0  0  0  0  0  0  0  0  0  0  0
  150.7198  138.0936  154.8897 H   0  0  0  0  0  0  0  0  0  0  0  0
  150.5096  139.2014  153.5413 H   0  0  0  0  0  0  0  0  0  0  0  0
  149.1430  138.8025  154.5714 H   0  0  0  0  0  0  0  0  0  0  0  0
  152.4418  141.3351  155.2366 H   0  0  0  0  0  0  0  0  0  0  0  0
  153.7976  137.9585  154.7997 H   0  0  0  0  0  0  0  0  0  0  0  0
  153.8312  139.5877  154.1256 H   0  0  0  0  0  0  0  0  0  0  0  0
  152.3480  138.6232  154.0462 H   0  0  0  0  0  0  0  0  0  0  0  0
  1  2  1  0  0  0  0
  1 23  1  0  0  0  0
  1 24  1  0  0  0  0
  1 25  1  0  0  0  0
  2  3  1  0  0  0  0
  2 26  1  0  0  0  0
  2 27  1  0  0  0  0
  3 19  1  0  0  0  0
  3  4  1  0  0  0  0
  3  6  1  0  0  0  0
  4  5  1  0  0  0  0
  4 28  1  0  0  0  0
  4 29  1  0  0  0  0
  5 30  1  0  0  0  0
  5 31  1  0  0  0  0
  5 32  1  0  0  0  0
  6  7  1  0  0  0  0
  6 17  1  0  0  0  0
  6 33  1  0  0  0  0
  7  8  1  0  0  0  0
  7 34  1  0  0  0  0
  8  9  2  0  0  0  0
  8 10  1  0  0  0  0
 10 35  1  0  0  0  0
 10 36  1  0  0  0  0
 10 11  1  0  0  0  0
 11 16  1  0  0  0  0
 11 12  2  0  0  0  0
 12 13  1  0  0  0  0
 12 37  1  0  0  0  0
 13 14  1  0  0  0  0
 13 15  2  0  0  0  0
 14 38  1  0  0  0  0
 14 39  1  0  0  0  0
 14 40  1  0  0  0  0
 15 16  1  0  0  0  0
 16 22  1  0  0  0  0
 17 18  1  0  0  0  0
 17 19  1  0  0  0  0
 17 41  1  0  0  0  0
 18 42  1  0  0  0  0
 18 43  1  0  0  0  0
 18 44  1  0  0  0  0
 19 20  1  0  0  0  0
 19 45  1  0  0  0  0
 20 21  1  0  0  0  0
 21 46  1  0  0  0  0
 21 47  1  0  0  0  0
 21 48  1  0  0  0  0
M  END
> <s_m_source_file>
AV-unprocessed.smi

> <i_m_source_file_index>
2510

> <i_lp_mmshare_version>
43012

> <i_f3d_flags>
0

> <s_epik_input>
W0NIM11PW0NAQEhdMVtDQEhdKFtDSDNdKVtDQEBIXShDMShbQ0gyXVtDSDNdKVtDSDJdW0NIM10pW05IXUMoPU8pW0NIMl1jMltjSF1jKFtDSDNdKVtuSF1uMg==

> <s_epik_cmdline>
J2VwaWtfcHl0aG9uJywgJy1waCcsICc3LjAnLCAnLXRuJywgJzgnLCAnLW1hJywgJzIwMCcsICctbWV0YWxfYmluZGluZycsICctaW1hZScsICc8aW5maWxlLm1hZT4nLCAnLW9tYWUnLCAnPG91dGZpbGUubWFlPic=

> <r_lp_tautomer_probability>
0.5

> <r_epik_Ionization_Penalty>
0.000134763

> <r_epik_Ionization_Penalty_Charging>
0

> <r_epik_Ionization_Penalty_Neutral>
0.000134763

> <r_epik_State_Penalty>
0.41068

> <r_epik_Charging_Adjusted_Penalty>
0.41068

> <i_epik_Tot_Q>
0

> <i_epik_Tot_abs_Q>
0

> <r_epik_Metal_State_Penalty>
0.410661

> <b_epik_Metal_Only>
0

> <s_lp_Force_Field>
OPLS_2005

> <r_lp_Energy>
25.7229

> <b_lp_Chiralities_Consistent>
1

> <s_lp_Variant>
AV-unprocessed.smi:2510-16

> <Gold.Version>
5.8.1

> <Gold.Id.Protein>
6NUR|6NUR_protein|mol2

> <Gold.PLP.Fitness>
37.1588

> <Gold.PLP.PLP>
-35.0382

> <Gold.PLP.part.hbond>
-2.0000

> <Gold.PLP.part.metal>
0.0000

> <Gold.PLP.part.buried>
-4.5276

> <Gold.PLP.part.nonpolar>
-28.2346

> <Gold.PLP.part.repulsive>
0.1285

> <Gold.PLP.ligand.clash>
0.0176

> <Gold.PLP.ligand.torsion>
0.7487

> <Gold.PLP.Chemscore.Hbond>
1.0000

> <Gold.PLP.Chemscore.CHOScore>
0.0000

> <Gold.PLP.Chemscore.Metal>
0.0000

> <Gold.Chemscore.Hbonds>
donor molecule, donor type, donor heavy atom, donor atom, acceptor molecule, acceptor atom, score
      P1  H  7997  8009       L1    20  0.95

> <Gold.PLP.Chemscore.Internal.Correction>
0.6357

> <Gold.Rescore>
     Score         DG    S(hbond)    S(metal)    S(lipo)     H(rot)  DE(clash)    DE(int)     intcor
     12.39     -13.34       0.09        0.00     104.23       1.81       0.10       0.85       ----

> <Gold.Chemscore.Fitness>
12.3923

> <Gold.Chemscore.DG>
-13.3384

> <Gold.Chemscore.ZeroCoef>
-5.4800

> <Gold.Chemscore.Hbond>
0.0891

> <Gold.Chemscore.Metal>
0.0000

> <Gold.Chemscore.Lipo>
104.2290

> <Gold.Chemscore.Internal_Hbond>
0.0000

> <Gold.Chemscore.DEClash>
0.1007

> <Gold.Chemscore.DEInternal>
0.8454

> <Gold.Chemscore.Rot>
1.8102

> <Gold.Chemscore.Internal.Correction>
   9.000000E+99

> <Gold.Chemscore.Hbonds>
donor molecule, donor type, donor heavy atom, donor atom, acceptor molecule, acceptor atom, score
      P1  H  7997  8009       L1    20  0.06

> <Gold.Chemscore.Hbond.Weighted>
-0.2976

> <Gold.Chemscore.Metal.Weighted>
-0.0000

> <Gold.Chemscore.Lipo.Weighted>
-12.1948

> <Gold.Chemscore.Internal_Hbond.Weighted>
0.0000

> <Gold.Chemscore.DEClash.Weighted>
0.1007

> <Gold.Chemscore.DEInternal.Weighted>
0.8454

> <Gold.Chemscore.Rot.Weighted>
4.6341

> <Gold.Chemscore.Internal.Correction.Weighted>
   9.000000E+99

> <Gold.Protein.RotatedTorsions>
[ 6907 6896 6895 6894 ] final  127.58 input  -60.11 | X-H torsion
[ 7974 7965 7964 7962 ] final  -26.61 input  175.53 | X-H torsion
[ 8008 7997 7996 7995 ] final -167.38 input   59.86 | X-H torsion
[ 10167 10162 10161 10158 ] final  -52.70 input  -65.29 | X-H torsion
[ 10718 10713 10712 10709 ] final  -32.33 input   66.30 | X-H torsion
[ 10763 10752 10751 10750 ] final -153.58 input  -60.55 | X-H torsion
[ 11005 11000 10999 10996 ] final  -32.14 input  -57.11 | X-H torsion

> <Gold.Protein.ActiveResidues>
 VAL166  LYS551  ARG553  GLY616  TRP617  ASP618  TYR619  PRO620  LYS621  CYS622 
 ASP623  PHE694  ASN695  SER759  ASP760  ASP761  ALA762  ILE779  LEU786  VAL792 
 PHE793  MET794  SER795  GLU796  ALA797  LYS798  CYS799  TRP800  GLU811  SER814 

> <Gold.Protein.RotatedAtoms>
  152.3799  133.6532  159.6152 H   0  0  0  0  0  0  0  0  0  0  0  0  # atno 6907 bound_to 6896
  150.7733  133.9131  159.3384 H   0  0  0  0  0  0  0  0  0  0  0  0  # atno 6908 bound_to 6896
  151.6938  135.0943  160.0290 H   0  0  0  0  0  0  0  0  0  0  0  0  # atno 6909 bound_to 6896
  146.1414  140.5042  142.8650 H   0  0  0  0  0  0  0  0  0  0  0  0  # atno 7974 bound_to 7965
  155.8768  140.1002  157.1512 H   0  0  0  0  0  0  0  0  0  0  0  0  # atno 8008 bound_to 7997
  154.4001  140.1336  156.4210 H   0  0  0  0  0  0  0  0  0  0  0  0  # atno 8009 bound_to 7997
  155.7688  140.3461  155.5238 H   0  0  0  0  0  0  0  0  0  0  0  0  # atno 8010 bound_to 7997
  140.6524  143.2575  151.4685 H   0  0  0  0  0  0  0  0  0  0  0  0  # atno 10167 bound_to 10162
  156.3763  130.4348  149.7505 H   0  0  0  0  0  0  0  0  0  0  0  0  # atno 10718 bound_to 10713
  154.7918  135.3209  154.7759 H   0  0  0  0  0  0  0  0  0  0  0  0  # atno 10763 bound_to 10752
  153.8447  135.6868  153.4803 H   0  0  0  0  0  0  0  0  0  0  0  0  # atno 10764 bound_to 10752
  153.1591  135.4668  154.9688 H   0  0  0  0  0  0  0  0  0  0  0  0  # atno 10765 bound_to 10752
  140.9527  133.7211  156.1245 H   0  0  0  0  0  0  0  0  0  0  0  0  # atno 11005 bound_to 11000
  144.7796  140.5813  143.6614 LP  0  0  0  0  0  0  0  0  0  0  0  0  # atno 17320 bound_to 7965
  145.5038  139.1482  143.3642 LP  0  0  0  0  0  0  0  0  0  0  0  0  # atno 17321 bound_to 7965
  139.5741  144.1860  152.1878 LP  0  0  0  0  0  0  0  0  0  0  0  0  # atno 17342 bound_to 10162
  140.1165  144.5411  150.6890 LP  0  0  0  0  0  0  0  0  0  0  0  0  # atno 17343 bound_to 10162
  156.4613  130.7953  151.2973 LP  0  0  0  0  0  0  0  0  0  0  0  0  # atno 17370 bound_to 10713
  157.7488  131.0065  150.3154 LP  0  0  0  0  0  0  0  0  0  0  0  0  # atno 17371 bound_to 10713
  140.7579  134.3972  157.5530 LP  0  0  0  0  0  0  0  0  0  0  0  0  # atno 17394 bound_to 11000
  139.8852  134.8942  156.2654 LP  0  0  0  0  0  0  0  0  0  0  0  0  # atno 17395 bound_to 11000

$$$$
