AV-unprocessed.smi:565|AV-procd|sdf|2951|dock8
  -GOLD-   2262023453D 1   1.00000     0.00000
 Structure written by MMmdl.
 50 51  0  0  0  0  0  0  0  0  2 V2000
  147.2118  138.4826  158.9913 C   0  0  0  0  0  0  0  0  0  0  0  0
  147.3659  137.2503  159.8365 C   0  0  0  0  0  0  0  0  0  0  0  0
  147.1404  137.3293  161.1370 N   0  0  0  0  0  0  0  0  0  0  0  0
  147.3549  136.0822  161.6008 N   0  0  0  0  0  0  0  0  0  0  0  0
  147.1908  135.8109  163.0157 C   0  0  0  0  0  0  0  0  0  0  0  0
  147.7175  135.2125  160.5909 C   0  0  0  0  0  0  0  0  0  0  0  0
  148.0120  133.7705  160.8538 C   0  0  0  0  0  0  0  0  0  0  0  0
  147.7374  135.9351  159.4273 C   0  0  0  0  0  0  0  0  0  0  0  0
  148.0743  135.4708  158.0322 C   0  0  0  0  0  0  0  0  0  0  0  0
  147.0320  134.4545  157.5654 C   0  0  0  0  0  0  0  0  0  0  0  0
  146.3315  133.8662  158.3886 O   0  0  0  0  0  0  0  0  0  0  0  0
  146.9278  134.2668  156.2407 N   0  0  0  0  0  0  0  0  0  0  0  0
  145.9553  133.3941  155.5958 C   0  0  0  0  0  0  0  0  0  0  0  0
  145.0686  134.1824  154.6122 C   0  0  0  0  0  0  0  0  0  0  0  0
  144.5167  133.3281  153.5307 N   0  3  1  0  0  0  0  0  0  0  0  0
  143.7729  134.1216  152.5180 C   0  0  0  0  0  0  0  0  0  0  0  0
  143.0907  133.2067  151.4887 C   0  0  0  0  0  0  0  0  0  0  0  0
  144.1121  132.2835  150.8131 C   0  0  0  0  0  0  0  0  0  0  0  0
  144.8955  131.4899  151.8721 C   0  0  1  0  0  0  0  0  0  0  0  0
  145.9449  130.5754  151.2244 C   0  0  0  0  0  0  0  0  0  0  0  0
  145.5361  132.4505  152.8943 C   0  0  0  0  0  0  0  0  0  0  0  0
  147.8777  138.4570  158.1289 H   0  0  0  0  0  0  0  0  0  0  0  0
  147.4434  139.3868  159.5554 H   0  0  0  0  0  0  0  0  0  0  0  0
  146.1911  138.5744  158.6201 H   0  0  0  0  0  0  0  0  0  0  0  0
  148.1235  135.4230  163.4257 H   0  0  0  0  0  0  0  0  0  0  0  0
  146.4034  135.0704  163.1576 H   0  0  0  0  0  0  0  0  0  0  0  0
  146.9212  136.7203  163.5546 H   0  0  0  0  0  0  0  0  0  0  0  0
  148.3514  133.2625  159.9515 H   0  0  0  0  0  0  0  0  0  0  0  0
  147.1217  133.2542  161.2133 H   0  0  0  0  0  0  0  0  0  0  0  0
  148.7928  133.6652  161.6072 H   0  0  0  0  0  0  0  0  0  0  0  0
  148.1071  136.3002  157.3250 H   0  0  0  0  0  0  0  0  0  0  0  0
  149.0623  135.0102  157.9979 H   0  0  0  0  0  0  0  0  0  0  0  0
  147.5471  134.7896  155.6383 H   0  0  0  0  0  0  0  0  0  0  0  0
  146.5146  132.6149  155.0800 H   0  0  0  0  0  0  0  0  0  0  0  0
  145.3437  132.8928  156.3479 H   0  0  0  0  0  0  0  0  0  0  0  0
  144.2407  134.6179  155.1736 H   0  0  0  0  0  0  0  0  0  0  0  0
  145.6184  135.0197  154.1795 H   0  0  0  0  0  0  0  0  0  0  0  0
  143.0133  134.7313  153.0090 H   0  0  0  0  0  0  0  0  0  0  0  0
  144.4573  134.8088  152.0176 H   0  0  0  0  0  0  0  0  0  0  0  0
  142.3232  132.6080  151.9812 H   0  0  0  0  0  0  0  0  0  0  0  0
  142.5784  133.8084  150.7372 H   0  0  0  0  0  0  0  0  0  0  0  0
  143.6024  131.6030  150.1300 H   0  0  0  0  0  0  0  0  0  0  0  0
  144.7986  132.8769  150.2073 H   0  0  0  0  0  0  0  0  0  0  0  0
  144.1902  130.8514  152.4064 H   0  0  0  0  0  0  0  0  0  0  0  0
  146.6884  131.1518  150.6727 H   0  0  0  0  0  0  0  0  0  0  0  0
  145.4801  129.8780  150.5266 H   0  0  0  0  0  0  0  0  0  0  0  0
  146.4709  129.9863  151.9761 H   0  0  0  0  0  0  0  0  0  0  0  0
  146.2944  133.0677  152.4092 H   0  0  0  0  0  0  0  0  0  0  0  0
  146.0497  131.8621  153.6536 H   0  0  0  0  0  0  0  0  0  0  0  0
  143.8356  132.7223  153.9662 H   0  0  0  0  0  0  0  0  0  0  0  0
  1  2  1  0  0  0  0
  1 22  1  0  0  0  0
  1 23  1  0  0  0  0
  1 24  1  0  0  0  0
  2  8  1  0  0  0  0
  2  3  2  0  0  0  0
  3  4  1  0  0  0  0
  4  5  1  0  0  0  0
  4  6  1  0  0  0  0
  5 25  1  0  0  0  0
  5 26  1  0  0  0  0
  5 27  1  0  0  0  0
  6  7  1  0  0  0  0
  6  8  2  0  0  0  0
  7 28  1  0  0  0  0
  7 29  1  0  0  0  0
  7 30  1  0  0  0  0
  8  9  1  0  0  0  0
  9 10  1  0  0  0  0
  9 31  1  0  0  0  0
  9 32  1  0  0  0  0
 10 11  2  0  0  0  0
 10 12  1  0  0  0  0
 12 13  1  0  0  0  0
 12 33  1  0  0  0  0
 13 14  1  0  0  0  0
 13 34  1  0  0  0  0
 13 35  1  0  0  0  0
 14 15  1  0  0  0  0
 14 36  1  0  0  0  0
 14 37  1  0  0  0  0
 15 21  1  0  0  0  0
 15 16  1  0  0  0  0
 15 50  1  0  0  0  0
 16 17  1  0  0  0  0
 16 38  1  0  0  0  0
 16 39  1  0  0  0  0
 17 18  1  0  0  0  0
 17 40  1  0  0  0  0
 17 41  1  0  0  0  0
 18 19  1  0  0  0  0
 18 42  1  0  0  0  0
 18 43  1  0  0  0  0
 19 20  1  0  0  0  0
 19 21  1  0  0  0  0
 19 44  1  0  0  0  0
 20 45  1  0  0  0  0
 20 46  1  0  0  0  0
 20 47  1  0  0  0  0
 21 48  1  0  0  0  0
 21 49  1  0  0  0  0
M  CHG  1  15   1
M  END
> <s_m_source_file>
AV-unprocessed.smi

> <i_m_source_file_index>
565

> <i_lp_mmshare_version>
43012

> <i_f3d_flags>
0

> <s_epik_input>
W0NIM11jMW5uKFtDSDNdKWMoW0NIM10pYzFbQ0gyXUMoPU8pW05IXVtDSDJdW0NIMl1OMltDSDJdW0NIMl1bQ0gyXVtDQEBIXShbQ0gzXSlbQ0gyXTI=

> <s_epik_cmdline>
J2VwaWtfcHl0aG9uJywgJy1waCcsICc3LjAnLCAnLXRuJywgJzgnLCAnLW1hJywgJzIwMCcsICctbWV0YWxfYmluZGluZycsICctaW1hZScsICc8aW5maWxlLm1hZT4nLCAnLW9tYWUnLCAnPG91dGZpbGUubWFlPic=

> <r_lp_tautomer_probability>
1

> <r_epik_Ionization_Penalty>
0.00411138

> <r_epik_Ionization_Penalty_Charging>
0.0019503

> <r_epik_Ionization_Penalty_Neutral>
0.00216107

> <r_epik_State_Penalty>
-0

> <r_epik_Charging_Adjusted_Penalty>
0.0019503

> <i_epik_Tot_Q>
1

> <i_epik_Tot_abs_Q>
1

> <r_epik_Metal_State_Penalty>
-0

> <b_epik_Metal_Only>
0

> <s_lp_Force_Field>
OPLS_2005

> <r_lp_Energy>
10.3148

> <b_lp_Chiralities_Consistent>
1

> <s_lp_Variant>
AV-unprocessed.smi:565-1

> <Gold.Version>
5.8.1

> <Gold.Id.Protein>
6NUR|6NUR_protein|mol2

> <Gold.PLP.Fitness>
43.7747

> <Gold.PLP.PLP>
-33.4737

> <Gold.PLP.part.hbond>
-2.9620

> <Gold.PLP.part.metal>
0.0000

> <Gold.PLP.part.buried>
-5.8223

> <Gold.PLP.part.nonpolar>
-26.1390

> <Gold.PLP.part.repulsive>
0.0000

> <Gold.PLP.ligand.clash>
0.0000

> <Gold.PLP.ligand.torsion>
0.5011

> <Gold.PLP.Chemscore.Hbond>
3.7585

> <Gold.PLP.Chemscore.CHOScore>
0.0000

> <Gold.PLP.Chemscore.Metal>
0.0000

> <Gold.Chemscore.Hbonds>
donor molecule, donor type, donor heavy atom, donor atom, acceptor molecule, acceptor atom, score
      L1  H    15    50       P1 10957  2.00
      P1  H  6931  6943       L1     3  0.33
      P1  H  6934  6947       L1     3  0.35

> <Gold.PLP.Chemscore.Internal.Correction>
0.0277

> <Gold.Rescore>
     Score         DG    S(hbond)    S(metal)    S(lipo)     H(rot)  DE(clash)    DE(int)     intcor
     14.87     -18.20       2.33        0.00      77.57       1.61       0.01       3.32       ----

> <Gold.Chemscore.Fitness>
14.8718

> <Gold.Chemscore.DG>
-18.1963

> <Gold.Chemscore.ZeroCoef>
-5.4800

> <Gold.Chemscore.Hbond>
2.3274

> <Gold.Chemscore.Metal>
0.0000

> <Gold.Chemscore.Lipo>
77.5669

> <Gold.Chemscore.Internal_Hbond>
0.0000

> <Gold.Chemscore.DEClash>
0.0089

> <Gold.Chemscore.DEInternal>
3.3156

> <Gold.Chemscore.Rot>
1.6142

> <Gold.Chemscore.Internal.Correction>
   9.000000E+99

> <Gold.Chemscore.Hbonds>
donor molecule, donor type, donor heavy atom, donor atom, acceptor molecule, acceptor atom, score
      L1  H    15    50       P1 10957  0.91
      P1  H  6931  6943       L1     3  0.03
      P1  H  6934  6947       L1     3  0.01

> <Gold.Chemscore.Hbond.Weighted>
-7.7734

> <Gold.Chemscore.Metal.Weighted>
-0.0000

> <Gold.Chemscore.Lipo.Weighted>
-9.0753

> <Gold.Chemscore.Internal_Hbond.Weighted>
0.0000

> <Gold.Chemscore.DEClash.Weighted>
0.0089

> <Gold.Chemscore.DEInternal.Weighted>
3.3156

> <Gold.Chemscore.Rot.Weighted>
4.1324

> <Gold.Chemscore.Internal.Correction.Weighted>
   9.000000E+99

> <Gold.Protein.RotatedTorsions>
[ 6907 6896 6895 6894 ] final -168.26 input  -60.11 | X-H torsion
[ 7974 7965 7964 7962 ] final  -93.57 input  175.53 | X-H torsion
[ 8008 7997 7996 7995 ] final  -69.44 input   59.86 | X-H torsion
[ 10167 10162 10161 10158 ] final   26.72 input  -65.29 | X-H torsion
[ 10718 10713 10712 10709 ] final  125.14 input   66.30 | X-H torsion
[ 10763 10752 10751 10750 ] final  -28.17 input  -60.55 | X-H torsion
[ 11005 11000 10999 10996 ] final   89.04 input  -57.11 | X-H torsion

> <Gold.Protein.ActiveResidues>
 VAL166  LYS551  ARG553  GLY616  TRP617  ASP618  TYR619  PRO620  LYS621  CYS622 
 ASP623  PHE694  ASN695  SER759  ASP760  ASP761  ALA762  ILE779  LEU786  VAL792 
 PHE793  MET794  SER795  GLU796  ALA797  LYS798  CYS799  TRP800  GLU811  SER814 

> <Gold.Protein.RotatedAtoms>
  151.4726  133.3565  159.2825 H   0  0  0  0  0  0  0  0  0  0  0  0  # atno 6907 bound_to 6896
  150.8950  134.8360  159.7331 H   0  0  0  0  0  0  0  0  0  0  0  0  # atno 6908 bound_to 6896
  152.4846  134.4640  159.9666 H   0  0  0  0  0  0  0  0  0  0  0  0  # atno 6909 bound_to 6896
  145.3847  140.9521  143.2374 H   0  0  0  0  0  0  0  0  0  0  0  0  # atno 7974 bound_to 7965
  154.4939  140.0853  156.7654 H   0  0  0  0  0  0  0  0  0  0  0  0  # atno 8008 bound_to 7997
  155.4164  140.3444  155.4249 H   0  0  0  0  0  0  0  0  0  0  0  0  # atno 8009 bound_to 7997
  156.1367  140.1517  156.8971 H   0  0  0  0  0  0  0  0  0  0  0  0  # atno 8010 bound_to 7997
  140.4999  144.0332  150.6328 H   0  0  0  0  0  0  0  0  0  0  0  0  # atno 10167 bound_to 10162
  157.5527  131.1093  150.8674 H   0  0  0  0  0  0  0  0  0  0  0  0  # atno 10718 bound_to 10713
  153.7439  135.6930  153.4960 H   0  0  0  0  0  0  0  0  0  0  0  0  # atno 10763 bound_to 10752
  153.2050  135.4423  155.0310 H   0  0  0  0  0  0  0  0  0  0  0  0  # atno 10764 bound_to 10752
  154.8211  135.3422  154.6963 H   0  0  0  0  0  0  0  0  0  0  0  0  # atno 10765 bound_to 10752
  139.8883  134.8526  156.3086 H   0  0  0  0  0  0  0  0  0  0  0  0  # atno 11005 bound_to 11000
  144.8482  139.5363  143.6868 LP  0  0  0  0  0  0  0  0  0  0  0  0  # atno 17320 bound_to 7965
  146.2826  139.6917  142.9218 LP  0  0  0  0  0  0  0  0  0  0  0  0  # atno 17321 bound_to 7965
  140.3625  143.2900  152.0368 LP  0  0  0  0  0  0  0  0  0  0  0  0  # atno 17342 bound_to 10162
  139.4869  144.6292  151.7104 LP  0  0  0  0  0  0  0  0  0  0  0  0  # atno 17343 bound_to 10162
  156.9194  130.5309  149.5279 LP  0  0  0  0  0  0  0  0  0  0  0  0  # atno 17370 bound_to 10713
  156.0591  130.5647  150.9155 LP  0  0  0  0  0  0  0  0  0  0  0  0  # atno 17371 bound_to 10713
  140.9866  133.7234  156.0750 LP  0  0  0  0  0  0  0  0  0  0  0  0  # atno 17394 bound_to 11000
  140.7680  134.3864  157.5513 LP  0  0  0  0  0  0  0  0  0  0  0  0  # atno 17395 bound_to 11000

$$$$
