AV-unprocessed.smi:2438|AV-procd|sdf|9599|dock2
  -GOLD-   2272013233D 1   1.00000     0.00000
 Structure written by MMmdl.
 44 45  0  0  0  0  0  0  0  0  2 V2000
  150.4658  136.9987  154.8196 C   0  0  0  0  0  0  0  0  0  0  0  0
  151.0241  138.2331  154.2813 N   0  0  0  0  0  0  0  0  0  0  0  0
  152.4754  138.3537  154.3242 C   0  0  0  0  0  0  0  0  0  0  0  0
  150.3417  139.4262  154.5937 C   0  0  0  0  0  0  0  0  0  0  0  0
  151.0045  140.3741  155.2954 N   0  0  0  0  0  0  0  0  0  0  0  0
  150.3970  141.5272  155.5940 C   0  0  0  0  0  0  0  0  0  0  0  0
  149.1359  141.7998  155.2343 N   0  3  0  0  0  0  0  0  0  0  0  0
  148.4267  140.8833  154.5342 C   0  0  0  0  0  0  0  0  0  0  0  0
  149.0083  139.6457  154.1713 C   0  0  0  0  0  0  0  0  0  0  0  0
  148.3021  138.6271  153.4714 N   0  0  0  0  0  0  0  0  0  0  0  0
  146.9791  138.3983  153.4583 C   0  0  0  0  0  0  0  0  0  0  0  0
  146.1465  139.0162  154.1213 O   0  0  0  0  0  0  0  0  0  0  0  0
  146.6670  137.4151  152.6028 N   0  0  0  0  0  0  0  0  0  0  0  0
  145.3134  136.9536  152.2978 C   0  0  2  0  0  0  0  0  0  0  0  0
  144.4975  136.8014  153.5958 C   0  0  0  0  0  0  0  0  0  0  0  0
  144.9764  135.6117  154.4455 C   0  0  0  0  0  0  0  0  0  0  0  0
  144.9827  134.3069  153.6329 C   0  0  0  0  0  0  0  0  0  0  0  0
  145.8338  134.4367  152.3521 C   0  0  1  0  0  0  0  0  0  0  0  0
  145.8675  133.1258  151.5407 C   0  0  0  0  0  0  0  0  0  0  0  0
  146.6234  133.2608  150.4507 F   0  0  0  0  0  0  0  0  0  0  0  0
  146.3610  132.1394  152.2893 F   0  0  0  0  0  0  0  0  0  0  0  0
  144.6324  132.7875  151.1704 F   0  0  0  0  0  0  0  0  0  0  0  0
  145.3330  135.6280  151.5047 C   0  0  0  0  0  0  0  0  0  0  0  0
  149.3864  136.9607  154.6685 H   0  0  0  0  0  0  0  0  0  0  0  0
  150.6717  136.9097  155.8869 H   0  0  0  0  0  0  0  0  0  0  0  0
  150.9043  136.1365  154.3167 H   0  0  0  0  0  0  0  0  0  0  0  0
  152.8239  139.3026  153.9162 H   0  0  0  0  0  0  0  0  0  0  0  0
  152.9359  137.5523  153.7456 H   0  0  0  0  0  0  0  0  0  0  0  0
  152.8313  138.2782  155.3523 H   0  0  0  0  0  0  0  0  0  0  0  0
  150.9190  142.2890  156.1541 H   0  0  0  0  0  0  0  0  0  0  0  0
  147.4127  141.1778  154.3099 H   0  0  0  0  0  0  0  0  0  0  0  0
  148.8546  138.0853  152.8223 H   0  0  0  0  0  0  0  0  0  0  0  0
  147.4196  136.9633  152.1040 H   0  0  0  0  0  0  0  0  0  0  0  0
  144.8291  137.7178  151.6871 H   0  0  0  0  0  0  0  0  0  0  0  0
  144.5403  137.7210  154.1806 H   0  0  0  0  0  0  0  0  0  0  0  0
  143.4471  136.6543  153.3411 H   0  0  0  0  0  0  0  0  0  0  0  0
  145.9786  135.8092  154.8274 H   0  0  0  0  0  0  0  0  0  0  0  0
  144.3333  135.4997  155.3190 H   0  0  0  0  0  0  0  0  0  0  0  0
  145.3623  133.4966  154.2557 H   0  0  0  0  0  0  0  0  0  0  0  0
  143.9586  134.0387  153.3702 H   0  0  0  0  0  0  0  0  0  0  0  0
  146.8598  134.6488  152.6568 H   0  0  0  0  0  0  0  0  0  0  0  0
  144.3238  135.4161  151.1494 H   0  0  0  0  0  0  0  0  0  0  0  0
  145.9450  135.7367  150.6089 H   0  0  0  0  0  0  0  0  0  0  0  0
  148.7012  142.6875  155.4874 H   0  0  0  0  0  0  0  0  0  0  0  0
  1  2  1  0  0  0  0
  1 24  1  0  0  0  0
  1 25  1  0  0  0  0
  1 26  1  0  0  0  0
  2  3  1  0  0  0  0
  2  4  1  0  0  0  0
  3 27  1  0  0  0  0
  3 28  1  0  0  0  0
  3 29  1  0  0  0  0
  4  9  1  0  0  0  0
  4  5  2  0  0  0  0
  5  6  1  0  0  0  0
  6  7  2  0  0  0  0
  6 30  1  0  0  0  0
  7  8  1  0  0  0  0
  7 44  1  0  0  0  0
  8  9  2  0  0  0  0
  8 31  1  0  0  0  0
  9 10  1  0  0  0  0
 10 11  1  0  0  0  0
 10 32  1  0  0  0  0
 11 12  2  0  0  0  0
 11 13  1  0  0  0  0
 13 14  1  0  0  0  0
 13 33  1  0  0  0  0
 14 23  1  0  0  0  0
 14 15  1  0  0  0  0
 14 34  1  0  0  0  0
 15 16  1  0  0  0  0
 15 35  1  0  0  0  0
 15 36  1  0  0  0  0
 16 17  1  0  0  0  0
 16 37  1  0  0  0  0
 16 38  1  0  0  0  0
 17 18  1  0  0  0  0
 17 39  1  0  0  0  0
 17 40  1  0  0  0  0
 18 19  1  0  0  0  0
 18 23  1  0  0  0  0
 18 41  1  0  0  0  0
 19 20  1  0  0  0  0
 19 21  1  0  0  0  0
 19 22  1  0  0  0  0
 23 42  1  0  0  0  0
 23 43  1  0  0  0  0
M  CHG  1   7   1
M  END
> <s_m_source_file>
AV-unprocessed.smi

> <i_m_source_file_index>
2438

> <i_lp_mmshare_version>
43012

> <i_f3d_flags>
0

> <s_epik_input>
W0NIM11OKFtDSDNdKWMxbltjSF1uW2NIXWMxW05IXUMoPU8pW05IXVtDQEBIXTJbQ0gyXVtDSDJdW0NIMl1bQ0BASF0oQyhGKShGKUYpW0NIMl0y

> <s_epik_cmdline>
J2VwaWtfcHl0aG9uJywgJy1waCcsICc3LjAnLCAnLXRuJywgJzgnLCAnLW1hJywgJzIwMCcsICctbWV0YWxfYmluZGluZycsICctaW1hZScsICc8aW5maWxlLm1hZT4nLCAnLW9tYWUnLCAnPG91dGZpbGUubWFlPic=

> <r_lp_tautomer_probability>
0.999336

> <r_epik_Ionization_Penalty>
2.11643

> <r_epik_Ionization_Penalty_Charging>
2.11639

> <r_epik_Ionization_Penalty_Neutral>
4.47523e-05

> <r_epik_State_Penalty>
2.25369

> <r_epik_Charging_Adjusted_Penalty>
4.37008

> <i_epik_Tot_Q>
1

> <i_epik_Tot_abs_Q>
1

> <r_epik_Metal_State_Penalty>
2.27019

> <b_epik_Metal_Only>
0

> <s_lp_Force_Field>
OPLS_2005

> <r_lp_Energy>
15.0376

> <b_lp_Chiralities_Consistent>
1

> <s_lp_Variant>
AV-unprocessed.smi:2438-5

> <Gold.Version>
5.8.1

> <Gold.Id.Protein>
6NUR|6NUR_protein|mol2

> <Gold.PLP.Fitness>
48.6016

> <Gold.PLP.PLP>
-37.5452

> <Gold.PLP.part.hbond>
-5.0000

> <Gold.PLP.part.metal>
0.0000

> <Gold.PLP.part.buried>
-5.8686

> <Gold.PLP.part.nonpolar>
-27.5375

> <Gold.PLP.part.repulsive>
0.6312

> <Gold.PLP.ligand.clash>
0.0000

> <Gold.PLP.ligand.torsion>
0.6406

> <Gold.PLP.Chemscore.Hbond>
3.9796

> <Gold.PLP.Chemscore.CHOScore>
0.0000

> <Gold.PLP.Chemscore.Metal>
0.0000

> <Gold.Chemscore.Hbonds>
donor molecule, donor type, donor heavy atom, donor atom, acceptor molecule, acceptor atom, score
      L1  H     7    44       P1  8028  1.87
      L1  H    10    32       P1  7948  0.82
      L1  H    13    33       P1  7948  1.00
      P1  H  7989  7998       L1     5  0.13

> <Gold.PLP.Chemscore.Internal.Correction>
0.3989

> <Gold.Rescore>
     Score         DG    S(hbond)    S(metal)    S(lipo)     H(rot)  DE(clash)    DE(int)     intcor
     14.12     -17.26       2.70        0.00      52.31       1.31       0.00       3.14       ----

> <Gold.Chemscore.Fitness>
14.1196

> <Gold.Chemscore.DG>
-17.2552

> <Gold.Chemscore.ZeroCoef>
-5.4800

> <Gold.Chemscore.Hbond>
2.6956

> <Gold.Chemscore.Metal>
0.0000

> <Gold.Chemscore.Lipo>
52.3063

> <Gold.Chemscore.Internal_Hbond>
0.0000

> <Gold.Chemscore.DEClash>
0.0004

> <Gold.Chemscore.DEInternal>
3.1351

> <Gold.Chemscore.Rot>
1.3078

> <Gold.Chemscore.Internal.Correction>
   9.000000E+99

> <Gold.Chemscore.Hbonds>
donor molecule, donor type, donor heavy atom, donor atom, acceptor molecule, acceptor atom, score
      L1  H     7    44       P1  8028  0.85
      L1  H    10    32       P1  7948  0.77
      L1  H    13    33       P1  7948  0.99

> <Gold.Chemscore.Hbond.Weighted>
-9.0034

> <Gold.Chemscore.Metal.Weighted>
-0.0000

> <Gold.Chemscore.Lipo.Weighted>
-6.1198

> <Gold.Chemscore.Internal_Hbond.Weighted>
0.0000

> <Gold.Chemscore.DEClash.Weighted>
0.0004

> <Gold.Chemscore.DEInternal.Weighted>
3.1351

> <Gold.Chemscore.Rot.Weighted>
3.3481

> <Gold.Chemscore.Internal.Correction.Weighted>
   9.000000E+99

> <Gold.Protein.RotatedTorsions>
[ 6907 6896 6895 6894 ] final -161.01 input  -60.11 | X-H torsion
[ 7974 7965 7964 7962 ] final   40.49 input  175.53 | X-H torsion
[ 8008 7997 7996 7995 ] final  165.33 input   59.86 | X-H torsion
[ 10167 10162 10161 10158 ] final  164.40 input  -65.29 | X-H torsion
[ 10718 10713 10712 10709 ] final   -0.14 input   66.30 | X-H torsion
[ 10763 10752 10751 10750 ] final  144.29 input  -60.55 | X-H torsion
[ 11005 11000 10999 10996 ] final  152.09 input  -57.11 | X-H torsion

> <Gold.Protein.ActiveResidues>
 VAL166  LYS551  ARG553  GLY616  TRP617  ASP618  TYR619  PRO620  LYS621  CYS622 
 ASP623  PHE694  ASN695  SER759  ASP760  ASP761  ALA762  ILE779  LEU786  VAL792 
 PHE793  MET794  SER795  GLU796  ALA797  LYS798  CYS799  TRP800  GLU811  SER814 

> <Gold.Protein.RotatedAtoms>
  151.3580  133.3900  159.2686 H   0  0  0  0  0  0  0  0  0  0  0  0  # atno 6907 bound_to 6896
  150.9748  134.9115  159.7820 H   0  0  0  0  0  0  0  0  0  0  0  0  # atno 6908 bound_to 6896
  152.5197  134.3543  159.9314 H   0  0  0  0  0  0  0  0  0  0  0  0  # atno 6909 bound_to 6896
  146.0901  139.5527  142.9481 H   0  0  0  0  0  0  0  0  0  0  0  0  # atno 7974 bound_to 7965
  156.1809  140.1673  156.8276 H   0  0  0  0  0  0  0  0  0  0  0  0  # atno 8008 bound_to 7997
  154.5359  140.0747  156.8460 H   0  0  0  0  0  0  0  0  0  0  0  0  # atno 8009 bound_to 7997
  155.3312  140.3379  155.4242 H   0  0  0  0  0  0  0  0  0  0  0  0  # atno 8010 bound_to 7997
  139.4888  144.4239  151.9153 H   0  0  0  0  0  0  0  0  0  0  0  0  # atno 10167 bound_to 10162
  156.8248  130.5468  149.5693 H   0  0  0  0  0  0  0  0  0  0  0  0  # atno 10718 bound_to 10713
  153.9865  135.2936  155.3416 H   0  0  0  0  0  0  0  0  0  0  0  0  # atno 10763 bound_to 10752
  154.7239  135.5097  153.8859 H   0  0  0  0  0  0  0  0  0  0  0  0  # atno 10764 bound_to 10752
  153.0830  135.6685  154.0122 H   0  0  0  0  0  0  0  0  0  0  0  0  # atno 10765 bound_to 10752
  140.1277  134.8822  157.2160 H   0  0  0  0  0  0  0  0  0  0  0  0  # atno 11005 bound_to 11000
  145.6056  141.0348  143.1994 LP  0  0  0  0  0  0  0  0  0  0  0  0  # atno 17320 bound_to 7965
  144.7354  139.7602  143.7331 LP  0  0  0  0  0  0  0  0  0  0  0  0  # atno 17321 bound_to 7965
  140.3684  144.2886  150.5923 LP  0  0  0  0  0  0  0  0  0  0  0  0  # atno 17342 bound_to 10162
  140.5341  143.2237  151.8192 LP  0  0  0  0  0  0  0  0  0  0  0  0  # atno 17343 bound_to 10162
  156.0968  130.5938  150.9827 LP  0  0  0  0  0  0  0  0  0  0  0  0  # atno 17370 bound_to 10713
  157.6438  131.0907  150.8196 LP  0  0  0  0  0  0  0  0  0  0  0  0  # atno 17371 bound_to 10713
  140.2883  134.3270  155.7322 LP  0  0  0  0  0  0  0  0  0  0  0  0  # atno 17394 bound_to 11000
  141.2164  133.7519  156.9465 LP  0  0  0  0  0  0  0  0  0  0  0  0  # atno 17395 bound_to 11000

$$$$
