AV-unprocessed.smi:2519|AV-procd|sdf|9904|dock4
  -GOLD-   2272013543D 1   1.00000     0.00000
 Structure written by MMmdl.
 43 44  0  0  0  0  0  0  0  0  1 V2000
  140.2619  137.1021  154.5433 C   0  0  0  0  0  0  0  0  0  0  0  0
  141.4009  136.6932  153.7366 N   0  0  0  0  0  0  0  0  0  0  0  0
  141.7380  135.4173  153.4867 C   0  0  0  0  0  0  0  0  0  0  0  0
  141.1054  134.4574  153.9298 O   0  0  0  0  0  0  0  0  0  0  0  0
  142.9668  135.2131  152.6390 C   0  0  0  0  0  0  0  0  0  0  0  0
  143.1932  133.9694  152.0084 C   0  0  0  0  0  0  0  0  0  0  0  0
  144.3456  133.8115  151.2184 C   0  0  0  0  0  0  0  0  0  0  0  0
  145.2321  134.8959  151.0837 C   0  0  0  0  0  0  0  0  0  0  0  0
  144.9434  136.1100  151.7427 C   0  0  0  0  0  0  0  0  0  0  0  0
  145.8988  137.1423  151.5526 N   0  0  0  0  0  0  0  0  0  0  0  0
  146.3300  138.0577  152.4435 C   0  0  0  0  0  0  0  0  0  0  0  0
  145.9109  138.1665  153.5948 O   0  0  0  0  0  0  0  0  0  0  0  0
  147.2896  138.8767  151.9740 N   0  0  0  0  0  0  0  0  0  0  0  0
  147.9739  139.9712  152.6663 C   0  0  1  0  0  0  0  0  0  0  0  0
  146.9308  140.8661  153.3592 C   0  0  0  0  0  0  0  0  0  0  0  0
  147.6022  142.0013  154.1461 C   0  0  0  0  0  0  0  0  0  0  0  0
  148.6139  141.4510  155.1637 C   0  0  0  0  0  0  0  0  0  0  0  0
  149.6751  140.5596  154.4850 C   0  0  1  0  0  0  0  0  0  0  0  0
  150.7079  140.0159  155.4935 C   0  0  0  0  0  0  0  0  0  0  0  0
  151.6120  139.2509  154.8813 F   0  0  0  0  0  0  0  0  0  0  0  0
  151.3348  141.0276  156.0941 F   0  0  0  0  0  0  0  0  0  0  0  0
  150.0943  139.2930  156.4304 F   0  0  0  0  0  0  0  0  0  0  0  0
  148.9869  139.4253  153.6961 C   0  0  0  0  0  0  0  0  0  0  0  0
  143.8279  136.2503  152.4991 N   0  0  0  0  0  0  0  0  0  0  0  0
  140.1939  138.1898  154.5658 H   0  0  0  0  0  0  0  0  0  0  0  0
  140.3651  136.7450  155.5687 H   0  0  0  0  0  0  0  0  0  0  0  0
  139.3319  136.7106  154.1290 H   0  0  0  0  0  0  0  0  0  0  0  0
  141.9758  137.4216  153.3364 H   0  0  0  0  0  0  0  0  0  0  0  0
  142.5024  133.1466  152.1232 H   0  0  0  0  0  0  0  0  0  0  0  0
  144.5473  132.8731  150.7234 H   0  0  0  0  0  0  0  0  0  0  0  0
  146.1235  134.7913  150.4822 H   0  0  0  0  0  0  0  0  0  0  0  0
  146.3269  137.1737  150.6393 H   0  0  0  0  0  0  0  0  0  0  0  0
  147.5832  138.7158  151.0211 H   0  0  0  0  0  0  0  0  0  0  0  0
  148.5025  140.5849  151.9345 H   0  0  0  0  0  0  0  0  0  0  0  0
  146.2475  141.2866  152.6202 H   0  0  0  0  0  0  0  0  0  0  0  0
  146.3213  140.2682  154.0386 H   0  0  0  0  0  0  0  0  0  0  0  0
  148.1077  142.6769  153.4550 H   0  0  0  0  0  0  0  0  0  0  0  0
  146.8450  142.5948  154.6591 H   0  0  0  0  0  0  0  0  0  0  0  0
  149.0951  142.2820  155.6801 H   0  0  0  0  0  0  0  0  0  0  0  0
  148.0850  140.8796  155.9276 H   0  0  0  0  0  0  0  0  0  0  0  0
  150.2170  141.1786  153.7681 H   0  0  0  0  0  0  0  0  0  0  0  0
  148.4776  138.7550  154.3899 H   0  0  0  0  0  0  0  0  0  0  0  0
  149.7428  138.8231  153.1915 H   0  0  0  0  0  0  0  0  0  0  0  0
  1  2  1  0  0  0  0
  1 25  1  0  0  0  0
  1 26  1  0  0  0  0
  1 27  1  0  0  0  0
  2  3  1  0  0  0  0
  2 28  1  0  0  0  0
  3  4  2  0  0  0  0
  3  5  1  0  0  0  0
  5 24  1  0  0  0  0
  5  6  2  0  0  0  0
  6  7  1  0  0  0  0
  6 29  1  0  0  0  0
  7  8  2  0  0  0  0
  7 30  1  0  0  0  0
  8  9  1  0  0  0  0
  8 31  1  0  0  0  0
  9 10  1  0  0  0  0
  9 24  2  0  0  0  0
 10 11  1  0  0  0  0
 10 32  1  0  0  0  0
 11 12  2  0  0  0  0
 11 13  1  0  0  0  0
 13 14  1  0  0  0  0
 13 33  1  0  0  0  0
 14 23  1  0  0  0  0
 14 15  1  0  0  0  0
 14 34  1  0  0  0  0
 15 16  1  0  0  0  0
 15 35  1  0  0  0  0
 15 36  1  0  0  0  0
 16 17  1  0  0  0  0
 16 37  1  0  0  0  0
 16 38  1  0  0  0  0
 17 18  1  0  0  0  0
 17 39  1  0  0  0  0
 17 40  1  0  0  0  0
 18 19  1  0  0  0  0
 18 23  1  0  0  0  0
 18 41  1  0  0  0  0
 19 20  1  0  0  0  0
 19 21  1  0  0  0  0
 19 22  1  0  0  0  0
 23 42  1  0  0  0  0
 23 43  1  0  0  0  0
M  END
> <s_m_source_file>
AV-unprocessed.smi

> <i_m_source_file_index>
2519

> <i_lp_mmshare_version>
43012

> <i_f3d_flags>
0

> <s_epik_input>
W0NIM11bTkhdQyg9TyljMVtjSF1bY0hdW2NIXWMobjEpW05IXUMoPU8pW05IXVtDQEBIXTJbQ0gyXVtDSDJdW0NIMl1bQ0BASF0oQyhGKShGKUYpW0NIMl0y

> <s_epik_cmdline>
J2VwaWtfcHl0aG9uJywgJy1waCcsICc3LjAnLCAnLXRuJywgJzgnLCAnLW1hJywgJzIwMCcsICctbWV0YWxfYmluZGluZycsICctaW1hZScsICc8aW5maWxlLm1hZT4nLCAnLW9tYWUnLCAnPG91dGZpbGUubWFlPic=

> <r_lp_tautomer_probability>
1

> <r_epik_Ionization_Penalty>
3.74915e-05

> <r_epik_Ionization_Penalty_Charging>
0

> <r_epik_Ionization_Penalty_Neutral>
3.74915e-05

> <r_epik_State_Penalty>
-0

> <r_epik_Charging_Adjusted_Penalty>
0

> <i_epik_Tot_Q>
0

> <i_epik_Tot_abs_Q>
0

> <r_epik_Metal_State_Penalty>
-0

> <b_epik_Metal_Only>
0

> <s_lp_Force_Field>
OPLS_2005

> <r_lp_Energy>
27.1439

> <b_lp_Chiralities_Consistent>
1

> <s_lp_Variant>
AV-unprocessed.smi:2519-2

> <Gold.Version>
5.8.1

> <Gold.Id.Protein>
6NUR|6NUR_protein|mol2

> <Gold.PLP.Fitness>
45.8702

> <Gold.PLP.PLP>
-44.0089

> <Gold.PLP.part.hbond>
-5.2622

> <Gold.PLP.part.metal>
0.0000

> <Gold.PLP.part.buried>
1.9186

> <Gold.PLP.part.nonpolar>
-42.1143

> <Gold.PLP.part.repulsive>
0.6924

> <Gold.PLP.ligand.clash>
0.0000

> <Gold.PLP.ligand.torsion>
0.5816

> <Gold.PLP.Chemscore.Hbond>
1.0000

> <Gold.PLP.Chemscore.CHOScore>
0.0000

> <Gold.PLP.Chemscore.Metal>
0.0000

> <Gold.Chemscore.Hbonds>
donor molecule, donor type, donor heavy atom, donor atom, acceptor molecule, acceptor atom, score
      P1  H 11000 11005       L1     4  1.00

> <Gold.PLP.Chemscore.Internal.Correction>
0.0244

> <Gold.Rescore>
     Score         DG    S(hbond)    S(metal)    S(lipo)     H(rot)  DE(clash)    DE(int)     intcor
     11.57     -14.86       1.44        0.00      60.81       1.00       0.21       3.08       ----

> <Gold.Chemscore.Fitness>
11.5683

> <Gold.Chemscore.DG>
-14.8614

> <Gold.Chemscore.ZeroCoef>
-5.4800

> <Gold.Chemscore.Hbond>
1.4450

> <Gold.Chemscore.Metal>
0.0000

> <Gold.Chemscore.Lipo>
60.8140

> <Gold.Chemscore.Internal_Hbond>
0.0000

> <Gold.Chemscore.DEClash>
0.2092

> <Gold.Chemscore.DEInternal>
3.0839

> <Gold.Chemscore.Rot>
1.0000

> <Gold.Chemscore.Internal.Correction>
   9.000000E+99

> <Gold.Chemscore.Hbonds>
donor molecule, donor type, donor heavy atom, donor atom, acceptor molecule, acceptor atom, score
      P1  H 11000 11005       L1     4  1.00

> <Gold.Chemscore.Hbond.Weighted>
-4.8262

> <Gold.Chemscore.Metal.Weighted>
-0.0000

> <Gold.Chemscore.Lipo.Weighted>
-7.1152

> <Gold.Chemscore.Internal_Hbond.Weighted>
0.0000

> <Gold.Chemscore.DEClash.Weighted>
0.2092

> <Gold.Chemscore.DEInternal.Weighted>
3.0839

> <Gold.Chemscore.Rot.Weighted>
2.5600

> <Gold.Chemscore.Internal.Correction.Weighted>
   9.000000E+99

> <Gold.Protein.RotatedTorsions>
[ 6907 6896 6895 6894 ] final  151.07 input  -60.11 | X-H torsion
[ 7974 7965 7964 7962 ] final -110.75 input  175.53 | X-H torsion
[ 8008 7997 7996 7995 ] final  -44.42 input   59.86 | X-H torsion
[ 10167 10162 10161 10158 ] final -133.14 input  -65.29 | X-H torsion
[ 10718 10713 10712 10709 ] final -169.53 input   66.30 | X-H torsion
[ 10763 10752 10751 10750 ] final  -12.64 input  -60.55 | X-H torsion
[ 11005 11000 10999 10996 ] final   16.52 input  -57.11 | X-H torsion

> <Gold.Protein.ActiveResidues>
 VAL166  LYS551  ARG553  GLY616  TRP617  ASP618  TYR619  PRO620  LYS621  CYS622 
 ASP623  PHE694  ASN695  SER759  ASP760  ASP761  ALA762  ILE779  LEU786  VAL792 
 PHE793  MET794  SER795  GLU796  ALA797  LYS798  CYS799  TRP800  GLU811  SER814 

> <Gold.Protein.RotatedAtoms>
  152.1057  133.4274  159.4607 H   0  0  0  0  0  0  0  0  0  0  0  0  # atno 6907 bound_to 6896
  150.6865  134.2707  159.4596 H   0  0  0  0  0  0  0  0  0  0  0  0  # atno 6908 bound_to 6896
  152.0571  134.9617  160.0625 H   0  0  0  0  0  0  0  0  0  0  0  0  # atno 6909 bound_to 6896
  145.1644  140.8895  143.3572 H   0  0  0  0  0  0  0  0  0  0  0  0  # atno 7974 bound_to 7965
  154.3997  140.1422  156.3680 H   0  0  0  0  0  0  0  0  0  0  0  0  # atno 8008 bound_to 7997
  155.8119  140.3472  155.5442 H   0  0  0  0  0  0  0  0  0  0  0  0  # atno 8009 bound_to 7997
  155.8378  140.0922  157.1744 H   0  0  0  0  0  0  0  0  0  0  0  0  # atno 8010 bound_to 7997
  139.9013  143.6604  152.2594 H   0  0  0  0  0  0  0  0  0  0  0  0  # atno 10167 bound_to 10162
  156.7129  130.9240  151.3091 H   0  0  0  0  0  0  0  0  0  0  0  0  # atno 10718 bound_to 10713
  153.5014  135.7017  153.5830 H   0  0  0  0  0  0  0  0  0  0  0  0  # atno 10763 bound_to 10752
  153.3959  135.3884  155.1955 H   0  0  0  0  0  0  0  0  0  0  0  0  # atno 10764 bound_to 10752
  154.8710  135.3870  154.4485 H   0  0  0  0  0  0  0  0  0  0  0  0  # atno 10765 bound_to 10752
  140.4462  134.1271  155.7696 H   0  0  0  0  0  0  0  0  0  0  0  0  # atno 11005 bound_to 11000
  145.0297  139.3352  143.6031 LP  0  0  0  0  0  0  0  0  0  0  0  0  # atno 17320 bound_to 7965
  146.3478  139.9630  142.8715 LP  0  0  0  0  0  0  0  0  0  0  0  0  # atno 17321 bound_to 7965
  139.7023  144.7633  151.1252 LP  0  0  0  0  0  0  0  0  0  0  0  0  # atno 17342 bound_to 10162
  140.7706  143.5441  150.9278 LP  0  0  0  0  0  0  0  0  0  0  0  0  # atno 17343 bound_to 10162
  157.6929  130.9251  150.0563 LP  0  0  0  0  0  0  0  0  0  0  0  0  # atno 17370 bound_to 10713
  156.1648  130.3645  149.9248 LP  0  0  0  0  0  0  0  0  0  0  0  0  # atno 17371 bound_to 10713
  141.1684  133.8657  157.1645 LP  0  0  0  0  0  0  0  0  0  0  0  0  # atno 17394 bound_to 11000
  140.0037  135.0017  157.0245 LP  0  0  0  0  0  0  0  0  0  0  0  0  # atno 17395 bound_to 11000

$$$$
