AV-unprocessed.smi:604|AV-procd|sdf|3038|dock9
  -GOLD-   2262023553D 1   1.00000     0.00000
 Structure written by MMmdl.
 49 51  0  0  0  0  0  0  0  0  2 V2000
  150.0412  140.5622  155.9622 O   0  0  0  0  0  0  0  0  0  0  0  0
  149.7686  141.7536  155.8184 C   0  0  0  0  0  0  0  0  0  0  0  0
  150.3122  142.7662  156.5152 N   0  0  0  0  0  0  0  0  0  0  0  0
  151.2998  142.7055  157.5356 C   0  0  0  0  0  0  0  0  0  0  0  0
  151.9470  143.8379  158.0873 C   0  0  0  0  0  0  0  0  0  0  0  0
  152.8982  143.6469  159.1081 C   0  0  0  0  0  0  0  0  0  0  0  0
  153.1629  142.3344  159.5446 C   0  0  0  0  0  0  0  0  0  0  0  0
  152.5436  141.2474  159.0381 N   0  0  0  0  0  0  0  0  0  0  0  0
  151.6316  141.4383  158.0610 C   0  0  0  0  0  0  0  0  0  0  0  0
  148.8546  142.2003  154.9446 N   0  0  0  0  0  0  0  0  0  0  0  0
  148.0643  141.3594  154.0453 C   0  0  2  0  0  0  0  0  0  0  0  0
  147.1025  142.2198  153.2072 C   0  0  0  0  0  0  0  0  0  0  0  0
  145.9401  142.7812  154.0482 C   0  0  0  0  0  0  0  0  0  0  0  0
  145.2074  141.6963  154.7518 N   0  3  2  0  0  0  0  0  0  0  0  0
  143.9943  142.1827  155.4597 C   0  0  0  0  0  0  0  0  0  0  0  0
  144.3047  143.3670  156.3961 C   0  0  0  0  0  0  0  0  0  0  0  0
  143.2666  143.5404  157.5084 C   0  0  0  0  0  0  0  0  0  0  0  0
  143.4556  144.9740  158.0149 C   0  0  0  0  0  0  0  0  0  0  0  0
  144.1144  145.7502  156.8656 C   0  0  0  0  0  0  0  0  0  0  0  0
  144.3126  144.7451  155.7262 C   0  0  0  0  0  0  0  0  0  0  0  0
  146.1143  140.9077  155.6264 C   0  0  0  0  0  0  0  0  0  0  0  0
  147.2644  140.2886  154.8140 C   0  0  0  0  0  0  0  0  0  0  0  0
  149.9298  143.6838  156.3399 H   0  0  0  0  0  0  0  0  0  0  0  0
  151.7255  144.8422  157.7620 H   0  0  0  0  0  0  0  0  0  0  0  0
  153.4105  144.4889  159.5499 H   0  0  0  0  0  0  0  0  0  0  0  0
  153.8866  142.1535  160.3257 H   0  0  0  0  0  0  0  0  0  0  0  0
  151.1546  140.5463  157.6817 H   0  0  0  0  0  0  0  0  0  0  0  0
  148.6989  143.1966  154.8929 H   0  0  0  0  0  0  0  0  0  0  0  0
  148.7547  140.8608  153.3622 H   0  0  0  0  0  0  0  0  0  0  0  0
  147.6451  143.0343  152.7252 H   0  0  0  0  0  0  0  0  0  0  0  0
  146.6929  141.6116  152.3997 H   0  0  0  0  0  0  0  0  0  0  0  0
  146.3107  143.5042  154.7767 H   0  0  0  0  0  0  0  0  0  0  0  0
  145.2554  143.3176  153.3898 H   0  0  0  0  0  0  0  0  0  0  0  0
  143.2053  142.4354  154.7495 H   0  0  0  0  0  0  0  0  0  0  0  0
  143.5866  141.3788  156.0748 H   0  0  0  0  0  0  0  0  0  0  0  0
  145.2751  143.2044  156.8686 H   0  0  0  0  0  0  0  0  0  0  0  0
  142.2615  143.4326  157.0979 H   0  0  0  0  0  0  0  0  0  0  0  0
  143.3774  142.8023  158.3036 H   0  0  0  0  0  0  0  0  0  0  0  0
  142.5068  145.4179  158.3178 H   0  0  0  0  0  0  0  0  0  0  0  0
  144.1112  144.9811  158.8863 H   0  0  0  0  0  0  0  0  0  0  0  0
  143.5072  146.5971  156.5449 H   0  0  0  0  0  0  0  0  0  0  0  0
  145.0772  146.1452  157.1919 H   0  0  0  0  0  0  0  0  0  0  0  0
  145.2307  144.9355  155.1695 H   0  0  0  0  0  0  0  0  0  0  0  0
  143.4775  144.8240  155.0284 H   0  0  0  0  0  0  0  0  0  0  0  0
  146.5123  141.5487  156.4145 H   0  0  0  0  0  0  0  0  0  0  0  0
  145.5628  140.1118  156.1245 H   0  0  0  0  0  0  0  0  0  0  0  0
  146.8510  139.5720  154.1031 H   0  0  0  0  0  0  0  0  0  0  0  0
  147.9188  139.7138  155.4704 H   0  0  0  0  0  0  0  0  0  0  0  0
  144.8783  141.0710  154.0299 H   0  0  0  0  0  0  0  0  0  0  0  0
  1  2  2  0  0  0  0
  2  3  1  0  0  0  0
  2 10  1  0  0  0  0
  3  4  1  0  0  0  0
  3 23  1  0  0  0  0
  4  9  1  0  0  0  0
  4  5  2  0  0  0  0
  5  6  1  0  0  0  0
  5 24  1  0  0  0  0
  6  7  2  0  0  0  0
  6 25  1  0  0  0  0
  7  8  1  0  0  0  0
  7 26  1  0  0  0  0
  8  9  2  0  0  0  0
  9 27  1  0  0  0  0
 10 11  1  0  0  0  0
 10 28  1  0  0  0  0
 11 22  1  0  0  0  0
 11 12  1  0  0  0  0
 11 29  1  0  0  0  0
 12 13  1  0  0  0  0
 12 30  1  0  0  0  0
 12 31  1  0  0  0  0
 13 14  1  0  0  0  0
 13 32  1  0  0  0  0
 13 33  1  0  0  0  0
 14 15  1  0  0  0  0
 14 21  1  0  0  0  0
 14 49  1  0  0  0  0
 15 16  1  0  0  0  0
 15 34  1  0  0  0  0
 15 35  1  0  0  0  0
 16 20  1  0  0  0  0
 16 17  1  0  0  0  0
 16 36  1  0  0  0  0
 17 18  1  0  0  0  0
 17 37  1  0  0  0  0
 17 38  1  0  0  0  0
 18 19  1  0  0  0  0
 18 39  1  0  0  0  0
 18 40  1  0  0  0  0
 19 20  1  0  0  0  0
 19 41  1  0  0  0  0
 19 42  1  0  0  0  0
 20 43  1  0  0  0  0
 20 44  1  0  0  0  0
 21 22  1  0  0  0  0
 21 45  1  0  0  0  0
 21 46  1  0  0  0  0
 22 47  1  0  0  0  0
 22 48  1  0  0  0  0
M  CHG  1  14   1
M  END
> <s_m_source_file>
AV-unprocessed.smi

> <i_m_source_file_index>
604

> <i_lp_mmshare_version>
43012

> <i_f3d_flags>
0

> <s_epik_input>
W2NIXTFuW2NIXVtjSF1bY0hdYzFbTkhdQyg9TylbTkhdW0NIXTJbQ0gyXVtDSDJdTihbQ0gyXVtDSDJdMilbQ0gyXVtDSF0zW0NIMl1bQ0gyXVtDSDJdW0NIMl0z

> <s_epik_cmdline>
J2VwaWtfcHl0aG9uJywgJy1waCcsICc3LjAnLCAnLXRuJywgJzgnLCAnLW1hJywgJzIwMCcsICctbWV0YWxfYmluZGluZycsICctaW1hZScsICc8aW5maWxlLm1hZT4nLCAnLW9tYWUnLCAnPG91dGZpbGUubWFlPic=

> <r_lp_tautomer_probability>
1

> <r_epik_Ionization_Penalty>
0.00608112

> <r_epik_Ionization_Penalty_Charging>
0.00207989

> <r_epik_Ionization_Penalty_Neutral>
0.00400122

> <r_epik_State_Penalty>
-0

> <r_epik_Charging_Adjusted_Penalty>
0.00207989

> <i_epik_Tot_Q>
1

> <i_epik_Tot_abs_Q>
1

> <r_epik_Metal_State_Penalty>
-0

> <b_epik_Metal_Only>
0

> <s_lp_Force_Field>
OPLS_2005

> <r_lp_Energy>
40.9588

> <b_lp_Chiralities_Consistent>
1

> <s_lp_Variant>
AV-unprocessed.smi:604-2

> <Gold.Version>
5.8.1

> <Gold.Id.Protein>
6NUR|6NUR_protein|mol2

> <Gold.PLP.Fitness>
48.0284

> <Gold.PLP.PLP>
-36.7688

> <Gold.PLP.part.hbond>
-3.0000

> <Gold.PLP.part.metal>
0.0000

> <Gold.PLP.part.buried>
-6.5919

> <Gold.PLP.part.nonpolar>
-28.4915

> <Gold.PLP.part.repulsive>
0.3181

> <Gold.PLP.ligand.clash>
0.0000

> <Gold.PLP.ligand.torsion>
0.3461

> <Gold.PLP.Chemscore.Hbond>
3.9760

> <Gold.PLP.Chemscore.CHOScore>
0.0000

> <Gold.PLP.Chemscore.Metal>
0.0000

> <Gold.Chemscore.Hbonds>
donor molecule, donor type, donor heavy atom, donor atom, acceptor molecule, acceptor atom, score
      L1  H     3    23       P1  8028  1.00
      L1  H    10    28       P1  8028  0.98
      L1  H    14    49       P1 10175  1.98

> <Gold.PLP.Chemscore.Internal.Correction>
0.0237

> <Gold.Rescore>
     Score         DG    S(hbond)    S(metal)    S(lipo)     H(rot)  DE(clash)    DE(int)     intcor
     19.61     -22.97       2.71        0.00     101.56       1.35       1.60       1.76       ----

> <Gold.Chemscore.Fitness>
19.6147

> <Gold.Chemscore.DG>
-22.9747

> <Gold.Chemscore.ZeroCoef>
-5.4800

> <Gold.Chemscore.Hbond>
2.7115

> <Gold.Chemscore.Metal>
0.0000

> <Gold.Chemscore.Lipo>
101.5635

> <Gold.Chemscore.Internal_Hbond>
0.0000

> <Gold.Chemscore.DEClash>
1.6025

> <Gold.Chemscore.DEInternal>
1.7575

> <Gold.Chemscore.Rot>
1.3455

> <Gold.Chemscore.Internal.Correction>
   9.000000E+99

> <Gold.Chemscore.Hbonds>
donor molecule, donor type, donor heavy atom, donor atom, acceptor molecule, acceptor atom, score
      L1  H     3    23       P1  8028  0.97
      L1  H    10    28       P1  8028  0.92
      L1  H    14    49       P1 10175  0.74

> <Gold.Chemscore.Hbond.Weighted>
-9.0563

> <Gold.Chemscore.Metal.Weighted>
-0.0000

> <Gold.Chemscore.Lipo.Weighted>
-11.8829

> <Gold.Chemscore.Internal_Hbond.Weighted>
0.0000

> <Gold.Chemscore.DEClash.Weighted>
1.6025

> <Gold.Chemscore.DEInternal.Weighted>
1.7575

> <Gold.Chemscore.Rot.Weighted>
3.4445

> <Gold.Chemscore.Internal.Correction.Weighted>
   9.000000E+99

> <Gold.Protein.RotatedTorsions>
[ 6907 6896 6895 6894 ] final -120.92 input  -60.11 | X-H torsion
[ 7974 7965 7964 7962 ] final  115.04 input  175.53 | X-H torsion
[ 8008 7997 7996 7995 ] final  116.14 input   59.86 | X-H torsion
[ 10167 10162 10161 10158 ] final   65.02 input  -65.29 | X-H torsion
[ 10718 10713 10712 10709 ] final   62.63 input   66.30 | X-H torsion
[ 10763 10752 10751 10750 ] final -149.16 input  -60.55 | X-H torsion
[ 11005 11000 10999 10996 ] final -130.11 input  -57.11 | X-H torsion

> <Gold.Protein.ActiveResidues>
 VAL166  LYS551  ARG553  GLY616  TRP617  ASP618  TYR619  PRO620  LYS621  CYS622 
 ASP623  PHE694  ASN695  SER759  ASP760  ASP761  ALA762  ILE779  LEU786  VAL792 
 PHE793  MET794  SER795  GLU796  ALA797  LYS798  CYS799  TRP800  GLU811  SER814 

> <Gold.Protein.RotatedAtoms>
  150.8436  133.7896  159.3051 H   0  0  0  0  0  0  0  0  0  0  0  0  # atno 6907 bound_to 6896
  151.5590  135.1064  159.9977 H   0  0  0  0  0  0  0  0  0  0  0  0  # atno 6908 bound_to 6896
  152.4495  133.7558  159.6775 H   0  0  0  0  0  0  0  0  0  0  0  0  # atno 6909 bound_to 6896
  145.1970  139.2971  143.4338 H   0  0  0  0  0  0  0  0  0  0  0  0  # atno 7974 bound_to 7965
  156.2422  140.2924  156.0477 H   0  0  0  0  0  0  0  0  0  0  0  0  # atno 8008 bound_to 7997
  155.1916  140.0407  157.2918 H   0  0  0  0  0  0  0  0  0  0  0  0  # atno 8009 bound_to 7997
  154.6190  140.2471  155.7580 H   0  0  0  0  0  0  0  0  0  0  0  0  # atno 8010 bound_to 7997
  140.1159  144.4776  150.6950 H   0  0  0  0  0  0  0  0  0  0  0  0  # atno 10167 bound_to 10162
  157.5914  130.9061  149.9612 H   0  0  0  0  0  0  0  0  0  0  0  0  # atno 10718 bound_to 10713
  154.8193  135.3316  154.7085 H   0  0  0  0  0  0  0  0  0  0  0  0  # atno 10763 bound_to 10752
  153.7721  135.6925  153.4909 H   0  0  0  0  0  0  0  0  0  0  0  0  # atno 10764 bound_to 10752
  153.2037  135.4507  155.0246 H   0  0  0  0  0  0  0  0  0  0  0  0  # atno 10765 bound_to 10752
  140.9374  134.1239  157.4181 H   0  0  0  0  0  0  0  0  0  0  0  0  # atno 11005 bound_to 11000
  146.3425  140.2201  142.8591 LP  0  0  0  0  0  0  0  0  0  0  0  0  # atno 17320 bound_to 7965
  144.9985  140.8611  143.5296 LP  0  0  0  0  0  0  0  0  0  0  0  0  # atno 17321 bound_to 7965
  140.6900  143.2370  151.5158 LP  0  0  0  0  0  0  0  0  0  0  0  0  # atno 17342 bound_to 10162
  139.5594  144.2193  152.1667 LP  0  0  0  0  0  0  0  0  0  0  0  0  # atno 17343 bound_to 10162
  156.0969  130.3658  150.0289 LP  0  0  0  0  0  0  0  0  0  0  0  0  # atno 17370 bound_to 10713
  156.8411  130.9426  151.3632 LP  0  0  0  0  0  0  0  0  0  0  0  0  # atno 17371 bound_to 10713
  139.8811  135.0025  156.6132 LP  0  0  0  0  0  0  0  0  0  0  0  0  # atno 17394 bound_to 11000
  140.7781  133.8683  155.8545 LP  0  0  0  0  0  0  0  0  0  0  0  0  # atno 17395 bound_to 11000

$$$$
