AV-unprocessed.smi:2867|AV-procd|sdf|11026|dock5
  -GOLD-   2272015493D 1   1.00000     0.00000
 Structure written by MMmdl.
 40 42  0  0  0  0  0  0  0  0  3 V2000
  156.9048  139.3885  159.1374 C   0  0  0  0  0  0  0  0  0  0  0  0
  155.8093  140.2109  158.7786 O   0  0  0  0  0  0  0  0  0  0  0  0
  155.5170  141.1925  159.7606 C   0  0  0  0  0  0  0  0  0  0  0  0
  154.8050  140.5300  160.9479 C   0  0  0  0  0  0  0  0  0  0  0  0
  154.1863  141.5213  161.8426 N   0  0  0  0  0  0  0  0  0  0  0  0
  153.2146  142.4520  161.6220 C   0  0  0  0  0  0  0  0  0  0  0  0
  152.4991  142.6952  160.3605 C   0  0  0  0  0  0  0  0  0  0  0  0
  152.0242  143.9888  160.0518 C   0  0  0  0  0  0  0  0  0  0  0  0
  151.3412  144.2359  158.8452 C   0  0  0  0  0  0  0  0  0  0  0  0
  151.1206  143.1864  157.9342 C   0  0  0  0  0  0  0  0  0  0  0  0
  151.5829  141.8915  158.2337 C   0  0  0  0  0  0  0  0  0  0  0  0
  151.3707  140.8779  157.3615 F   0  0  0  0  0  0  0  0  0  0  0  0
  152.2654  141.6493  159.4412 C   0  0  0  0  0  0  0  0  0  0  0  0
  153.0314  143.1685  162.7628 N   0  3  0  0  0  0  0  0  0  0  0  0
  153.8989  142.6857  163.7440 C   0  0  0  0  0  0  0  0  0  0  0  0
  154.0861  143.0847  165.0625 C   0  0  0  0  0  0  0  0  0  0  0  0
  155.0692  142.3873  165.7952 C   0  0  0  0  0  0  0  0  0  0  0  0
  155.3682  142.8521  167.4978 S   0  0  0  0  0  0  0  0  0  0  0  0
  153.9483  142.3661  168.0873 N   0  5  0  0  0  0  0  0  0  0  0  0
  156.4950  142.0303  167.9655 O   0  0  0  0  0  0  0  0  0  0  0  0
  155.5209  144.3153  167.5087 O   0  0  0  0  0  0  0  0  0  0  0  0
  155.8227  141.3412  165.2212 C   0  0  0  0  0  0  0  0  0  0  0  0
  155.6214  140.9461  163.8823 C   0  0  0  0  0  0  0  0  0  0  0  0
  154.6458  141.6354  163.1613 C   0  0  0  0  0  0  0  0  0  0  0  0
  157.0834  138.6553  158.3510 H   0  0  0  0  0  0  0  0  0  0  0  0
  156.7061  138.8476  160.0636 H   0  0  0  0  0  0  0  0  0  0  0  0
  157.8145  139.9772  159.2627 H   0  0  0  0  0  0  0  0  0  0  0  0
  156.4384  141.6678  160.1003 H   0  0  0  0  0  0  0  0  0  0  0  0
  154.8841  141.9724  159.3337 H   0  0  0  0  0  0  0  0  0  0  0  0
  154.0255  139.8617  160.5863 H   0  0  0  0  0  0  0  0  0  0  0  0
  155.4934  139.9086  161.5207 H   0  0  0  0  0  0  0  0  0  0  0  0
  152.1922  144.8028  160.7420 H   0  0  0  0  0  0  0  0  0  0  0  0
  150.9874  145.2308  158.6184 H   0  0  0  0  0  0  0  0  0  0  0  0
  150.5966  143.3738  157.0084 H   0  0  0  0  0  0  0  0  0  0  0  0
  152.6084  140.6493  159.6631 H   0  0  0  0  0  0  0  0  0  0  0  0
  153.5140  143.8841  165.5096 H   0  0  0  0  0  0  0  0  0  0  0  0
  153.8142  142.8235  168.9968 H   0  0  0  0  0  0  0  0  0  0  0  0
  156.5655  140.8298  165.8158 H   0  0  0  0  0  0  0  0  0  0  0  0
  156.2038  140.1459  163.4509 H   0  0  0  0  0  0  0  0  0  0  0  0
  152.3684  143.9265  162.8605 H   0  0  0  0  0  0  0  0  0  0  0  0
  1  2  1  0  0  0  0
  1 25  1  0  0  0  0
  1 26  1  0  0  0  0
  1 27  1  0  0  0  0
  2  3  1  0  0  0  0
  3  4  1  0  0  0  0
  3 28  1  0  0  0  0
  3 29  1  0  0  0  0
  4  5  1  0  0  0  0
  4 30  1  0  0  0  0
  4 31  1  0  0  0  0
  5 24  1  0  0  0  0
  5  6  1  0  0  0  0
  6  7  1  0  0  0  0
  6 14  2  0  0  0  0
  7 13  1  0  0  0  0
  7  8  2  0  0  0  0
  8  9  1  0  0  0  0
  8 32  1  0  0  0  0
  9 10  2  0  0  0  0
  9 33  1  0  0  0  0
 10 11  1  0  0  0  0
 10 34  1  0  0  0  0
 11 12  1  0  0  0  0
 11 13  2  0  0  0  0
 13 35  1  0  0  0  0
 14 15  1  0  0  0  0
 14 40  1  0  0  0  0
 15 24  2  0  0  0  0
 15 16  1  0  0  0  0
 16 17  2  0  0  0  0
 16 36  1  0  0  0  0
 17 18  1  0  0  0  0
 17 22  1  0  0  0  0
 18 19  1  0  0  0  0
 18 20  2  0  0  0  0
 18 21  2  0  0  0  0
 19 37  1  0  0  0  0
 22 23  2  0  0  0  0
 22 38  1  0  0  0  0
 23 24  1  0  0  0  0
 23 39  1  0  0  0  0
M  CHG  1  14   1
M  CHG  1  19  -1
M  END
> <s_m_source_file>
AV-unprocessed.smi

> <i_m_source_file_index>
2867

> <i_lp_mmshare_version>
43012

> <i_f3d_flags>
0

> <s_epik_input>
W05IMl1TKD1PKSg9TyljKFtjSF0xKVtjSF1bY0hdYyhjMTIpbihbQ0gyXVtDSDJdT1tDSDNdKWMobjIpLWMzW2NIXVtjSF1bY0hdYyhGKVtjSF0z

> <s_epik_cmdline>
J2VwaWtfcHl0aG9uJywgJy1waCcsICc3LjAnLCAnLXRuJywgJzgnLCAnLW1hJywgJzIwMCcsICctbWV0YWxfYmluZGluZycsICctaW1hZScsICc8aW5maWxlLm1hZT4nLCAnLW9tYWUnLCAnPG91dGZpbGUubWFlPic=

> <r_epik_Ionization_Penalty>
2.60795

> <r_epik_Ionization_Penalty_Charging>
2.60795

> <r_epik_Ionization_Penalty_Neutral>
2.51e-12

> <r_epik_State_Penalty>
3.58678

> <r_epik_Charging_Adjusted_Penalty>
6.19473

> <i_epik_Tot_Q>
0

> <i_epik_Tot_abs_Q>
2

> <r_epik_Metal_State_Penalty>
1.73828

> <b_epik_Metal_Only>
1

> <s_lp_Force_Field>
OPLS_2005

> <r_lp_Energy>
13.6429

> <b_lp_Chiralities_Consistent>
1

> <s_lp_Variant>
AV-unprocessed.smi:2867-4

> <Gold.Version>
5.8.1

> <Gold.Id.Protein>
6NUR|6NUR_protein|mol2

> <Gold.PLP.Fitness>
52.9730

> <Gold.PLP.PLP>
-50.9367

> <Gold.PLP.part.hbond>
-4.0000

> <Gold.PLP.part.metal>
0.0000

> <Gold.PLP.part.buried>
0.5186

> <Gold.PLP.part.nonpolar>
-46.3993

> <Gold.PLP.part.repulsive>
0.0964

> <Gold.PLP.ligand.clash>
0.0000

> <Gold.PLP.ligand.torsion>
1.5398

> <Gold.PLP.Chemscore.Hbond>
1.0000

> <Gold.PLP.Chemscore.CHOScore>
0.0000

> <Gold.PLP.Chemscore.Metal>
0.0000

> <Gold.Chemscore.Hbonds>
donor molecule, donor type, donor heavy atom, donor atom, acceptor molecule, acceptor atom, score
      P1  H  7997  8008       L1     2  0.75

> <Gold.PLP.Chemscore.Internal.Correction>
2.1160

> <Gold.Rescore>
     Score         DG    S(hbond)    S(metal)    S(lipo)     H(rot)  DE(clash)    DE(int)     intcor
     17.17     -19.22       0.86        0.00     124.56       1.45       0.70       1.35       ----

> <Gold.Chemscore.Fitness>
17.1726

> <Gold.Chemscore.DG>
-19.2213

> <Gold.Chemscore.ZeroCoef>
-5.4800

> <Gold.Chemscore.Hbond>
0.8646

> <Gold.Chemscore.Metal>
0.0000

> <Gold.Chemscore.Lipo>
124.5585

> <Gold.Chemscore.Internal_Hbond>
0.0000

> <Gold.Chemscore.DEClash>
0.6964

> <Gold.Chemscore.DEInternal>
1.3523

> <Gold.Chemscore.Rot>
1.4530

> <Gold.Chemscore.Internal.Correction>
   9.000000E+99

> <Gold.Chemscore.Hbonds>
donor molecule, donor type, donor heavy atom, donor atom, acceptor molecule, acceptor atom, score
      P1  H  7997  8008       L1     2  0.47

> <Gold.Chemscore.Hbond.Weighted>
-2.8876

> <Gold.Chemscore.Metal.Weighted>
-0.0000

> <Gold.Chemscore.Lipo.Weighted>
-14.5733

> <Gold.Chemscore.Internal_Hbond.Weighted>
0.0000

> <Gold.Chemscore.DEClash.Weighted>
0.6964

> <Gold.Chemscore.DEInternal.Weighted>
1.3523

> <Gold.Chemscore.Rot.Weighted>
3.7196

> <Gold.Chemscore.Internal.Correction.Weighted>
   9.000000E+99

> <Gold.Protein.RotatedTorsions>
[ 6907 6896 6895 6894 ] final  172.55 input  -60.11 | X-H torsion
[ 7974 7965 7964 7962 ] final -152.59 input  175.53 | X-H torsion
[ 8008 7997 7996 7995 ] final -148.66 input   59.86 | X-H torsion
[ 10167 10162 10161 10158 ] final   31.61 input  -65.29 | X-H torsion
[ 10718 10713 10712 10709 ] final   42.38 input   66.30 | X-H torsion
[ 10763 10752 10751 10750 ] final -124.14 input  -60.55 | X-H torsion
[ 11005 11000 10999 10996 ] final  110.80 input  -57.11 | X-H torsion

> <Gold.Protein.ActiveResidues>
 VAL166  LYS551  ARG553  GLY616  TRP617  ASP618  TYR619  PRO620  LYS621  CYS622 
 ASP623  PHE694  ASN695  SER759  ASP760  ASP761  ALA762  ILE779  LEU786  VAL792 
 PHE793  MET794  SER795  GLU796  ALA797  LYS798  CYS799  TRP800  GLU811  SER814 

> <Gold.Protein.RotatedAtoms>
  151.7825  133.3351  159.3475 H   0  0  0  0  0  0  0  0  0  0  0  0  # atno 6907 bound_to 6896
  150.7421  134.5918  159.6000 H   0  0  0  0  0  0  0  0  0  0  0  0  # atno 6908 bound_to 6896
  152.3266  134.7314  160.0351 H   0  0  0  0  0  0  0  0  0  0  0  0  # atno 6909 bound_to 6896
  144.7786  140.4641  143.5856 H   0  0  0  0  0  0  0  0  0  0  0  0  # atno 7974 bound_to 7965
  155.5951  140.0656  157.2748 H   0  0  0  0  0  0  0  0  0  0  0  0  # atno 8008 bound_to 7997
  154.4294  140.1828  156.1162 H   0  0  0  0  0  0  0  0  0  0  0  0  # atno 8009 bound_to 7997
  156.0202  140.3317  155.7035 H   0  0  0  0  0  0  0  0  0  0  0  0  # atno 8010 bound_to 7997
  140.4573  144.0958  150.6205 H   0  0  0  0  0  0  0  0  0  0  0  0  # atno 10167 bound_to 10162
  157.4041  130.7877  149.7374 H   0  0  0  0  0  0  0  0  0  0  0  0  # atno 10718 bound_to 10713
  154.8719  135.4074  154.3057 H   0  0  0  0  0  0  0  0  0  0  0  0  # atno 10763 bound_to 10752
  153.3909  135.7015  153.6501 H   0  0  0  0  0  0  0  0  0  0  0  0  # atno 10764 bound_to 10752
  153.5284  135.3672  155.2636 H   0  0  0  0  0  0  0  0  0  0  0  0  # atno 10765 bound_to 10752
  139.8889  134.9493  156.6335 H   0  0  0  0  0  0  0  0  0  0  0  0  # atno 11005 bound_to 11000
  145.6115  139.1514  143.3073 LP  0  0  0  0  0  0  0  0  0  0  0  0  # atno 17320 bound_to 7965
  146.1980  140.6231  142.9115 LP  0  0  0  0  0  0  0  0  0  0  0  0  # atno 17321 bound_to 7965
  140.4135  143.2645  151.9803 LP  0  0  0  0  0  0  0  0  0  0  0  0  # atno 17342 bound_to 10162
  139.4802  144.5894  151.7797 LP  0  0  0  0  0  0  0  0  0  0  0  0  # atno 17343 bound_to 10162
  155.9831  130.4003  150.3379 LP  0  0  0  0  0  0  0  0  0  0  0  0  # atno 17370 bound_to 10713
  157.1509  131.0321  151.2885 LP  0  0  0  0  0  0  0  0  0  0  0  0  # atno 17371 bound_to 10713
  140.7648  133.8787  155.8446 LP  0  0  0  0  0  0  0  0  0  0  0  0  # atno 17394 bound_to 11000
  140.9891  134.1302  157.4424 LP  0  0  0  0  0  0  0  0  0  0  0  0  # atno 17395 bound_to 11000

$$$$
