AV-unprocessed.smi:1662|AV-procd|sdf|6659|dock6
  -GOLD-   22720 7373D 1   1.00000     0.00000
 Structure written by MMmdl.
 47 48  0  0  0  0  0  0  0  0  1 V2000
  145.0459  144.1628  154.0112 C   0  0  0  0  0  0  0  0  0  0  0  0
  145.7701  143.1692  154.8789 C   0  0  0  0  0  0  0  0  0  0  0  0
  146.8425  142.6418  154.3864 N   0  0  0  0  0  0  0  0  0  0  0  0
  147.5794  141.7138  155.0968 N   0  0  0  0  0  0  0  0  0  0  0  0
  148.7595  141.2083  154.3797 C   0  0  0  0  0  0  0  0  0  0  0  0
  150.0144  141.1167  155.2600 C   0  0  0  0  0  0  0  0  0  0  0  0
  150.7987  140.1735  155.1456 O   0  0  0  0  0  0  0  0  0  0  0  0
  150.1959  142.1238  156.1278 N   0  0  0  0  0  0  0  0  0  0  0  0
  151.3175  142.2539  157.0566 C   0  0  2  0  0  0  0  0  0  0  0  0
  151.3062  141.0642  158.0367 C   0  0  0  0  0  0  0  0  0  0  0  0
  152.4357  141.1770  159.0643 C   0  0  0  0  0  0  0  0  0  0  0  0
  152.3380  142.5015  159.8278 C   0  0  0  0  0  0  0  0  0  0  0  0
  152.3723  143.7156  158.8781 C   0  0  2  0  0  0  0  0  0  0  0  0
  152.3048  145.0141  159.7035 C   0  0  0  0  0  0  0  0  0  0  0  0
  151.2554  143.6168  157.7998 C   0  0  1  0  0  0  0  0  0  0  0  0
  151.3112  144.7948  156.8019 C   0  0  0  0  0  0  0  0  0  0  0  0
  147.2712  141.2723  156.3506 C   0  0  0  0  0  0  0  0  0  0  0  0
  147.9586  140.4428  156.9484 O   0  0  0  0  0  0  0  0  0  0  0  0
  146.0567  141.8763  156.9031 C   0  0  0  0  0  0  0  0  0  0  0  0
  145.6956  141.4394  158.2131 C   0  0  0  0  0  0  0  0  0  0  0  0
  145.4234  141.0883  159.2823 N   0  0  0  0  0  0  0  0  0  0  0  0
  145.3249  142.7884  156.2155 C   0  0  0  0  0  0  0  0  0  0  0  0
  144.0566  143.4432  156.7452 C   0  0  0  0  0  0  0  0  0  0  0  0
  145.0822  145.1589  154.4523 H   0  0  0  0  0  0  0  0  0  0  0  0
  143.9991  143.8833  153.8917 H   0  0  0  0  0  0  0  0  0  0  0  0
  145.4832  144.2269  153.0138 H   0  0  0  0  0  0  0  0  0  0  0  0
  148.5590  140.2145  153.9752 H   0  0  0  0  0  0  0  0  0  0  0  0
  148.9663  141.8399  153.5135 H   0  0  0  0  0  0  0  0  0  0  0  0
  149.5034  142.8584  156.1492 H   0  0  0  0  0  0  0  0  0  0  0  0
  152.2506  142.2250  156.4901 H   0  0  0  0  0  0  0  0  0  0  0  0
  150.3471  141.0198  158.5549 H   0  0  0  0  0  0  0  0  0  0  0  0
  151.4059  140.1247  157.4918 H   0  0  0  0  0  0  0  0  0  0  0  0
  152.3887  140.3405  159.7620 H   0  0  0  0  0  0  0  0  0  0  0  0
  153.4014  141.1094  158.5619 H   0  0  0  0  0  0  0  0  0  0  0  0
  151.4177  142.5166  160.4135 H   0  0  0  0  0  0  0  0  0  0  0  0
  153.1584  142.5634  160.5438 H   0  0  0  0  0  0  0  0  0  0  0  0
  153.3361  143.7041  158.3666 H   0  0  0  0  0  0  0  0  0  0  0  0
  151.3288  145.1342  160.1743 H   0  0  0  0  0  0  0  0  0  0  0  0
  152.4961  145.8962  159.0937 H   0  0  0  0  0  0  0  0  0  0  0  0
  153.0548  145.0131  160.4948 H   0  0  0  0  0  0  0  0  0  0  0  0
  150.2940  143.6698  158.3139 H   0  0  0  0  0  0  0  0  0  0  0  0
  152.2738  144.8334  156.2913 H   0  0  0  0  0  0  0  0  0  0  0  0
  151.1560  145.7529  157.2962 H   0  0  0  0  0  0  0  0  0  0  0  0
  150.5371  144.7202  156.0384 H   0  0  0  0  0  0  0  0  0  0  0  0
  143.8629  143.1842  157.7855 H   0  0  0  0  0  0  0  0  0  0  0  0
  143.1931  143.1269  156.1597 H   0  0  0  0  0  0  0  0  0  0  0  0
  144.1304  144.5297  156.6907 H   0  0  0  0  0  0  0  0  0  0  0  0
  1  2  1  0  0  0  0
  1 24  1  0  0  0  0
  1 25  1  0  0  0  0
  1 26  1  0  0  0  0
  2 22  1  0  0  0  0
  2  3  2  0  0  0  0
  3  4  1  0  0  0  0
  4  5  1  0  0  0  0
  4 17  1  0  0  0  0
  5  6  1  0  0  0  0
  5 27  1  0  0  0  0
  5 28  1  0  0  0  0
  6  7  2  0  0  0  0
  6  8  1  0  0  0  0
  8  9  1  0  0  0  0
  8 29  1  0  0  0  0
  9 15  1  0  0  0  0
  9 10  1  0  0  0  0
  9 30  1  0  0  0  0
 10 11  1  0  0  0  0
 10 31  1  0  0  0  0
 10 32  1  0  0  0  0
 11 12  1  0  0  0  0
 11 33  1  0  0  0  0
 11 34  1  0  0  0  0
 12 13  1  0  0  0  0
 12 35  1  0  0  0  0
 12 36  1  0  0  0  0
 13 14  1  0  0  0  0
 13 15  1  0  0  0  0
 13 37  1  0  0  0  0
 14 38  1  0  0  0  0
 14 39  1  0  0  0  0
 14 40  1  0  0  0  0
 15 16  1  0  0  0  0
 15 41  1  0  0  0  0
 16 42  1  0  0  0  0
 16 43  1  0  0  0  0
 16 44  1  0  0  0  0
 17 18  2  0  0  0  0
 17 19  1  0  0  0  0
 19 20  1  0  0  0  0
 19 22  2  0  0  0  0
 20 21  3  0  0  0  0
 22 23  1  0  0  0  0
 23 45  1  0  0  0  0
 23 46  1  0  0  0  0
 23 47  1  0  0  0  0
M  END
> <s_m_source_file>
AV-unprocessed.smi

> <i_m_source_file_index>
1662

> <i_lp_mmshare_version>
43012

> <i_f3d_flags>
0

> <s_epik_input>
TiNDYyhjMVtDSDNdKWMoPU8pbihuYzFbQ0gzXSlbQ0gyXUMoPU8pW05IXVtDQEBIXTJbQ0gyXVtDSDJdW0NIMl1bQ0BASF0oW0NIM10pW0NASF0yW0NIM10=

> <s_epik_cmdline>
J2VwaWtfcHl0aG9uJywgJy1waCcsICc3LjAnLCAnLXRuJywgJzgnLCAnLW1hJywgJzIwMCcsICctbWV0YWxfYmluZGluZycsICctaW1hZScsICc8aW5maWxlLm1hZT4nLCAnLW9tYWUnLCAnPG91dGZpbGUubWFlPic=

> <r_lp_tautomer_probability>
1

> <r_epik_Ionization_Penalty>
1.90709e-08

> <r_epik_Ionization_Penalty_Charging>
2.37982e-11

> <r_epik_Ionization_Penalty_Neutral>
1.90471e-08

> <r_epik_State_Penalty>
-0

> <r_epik_Charging_Adjusted_Penalty>
2.37982e-11

> <i_epik_Tot_Q>
0

> <i_epik_Tot_abs_Q>
0

> <r_epik_Metal_State_Penalty>
-0

> <b_epik_Metal_Only>
0

> <s_lp_Force_Field>
OPLS_2005

> <r_lp_Energy>
27.4579

> <b_lp_Chiralities_Consistent>
1

> <s_lp_Variant>
AV-unprocessed.smi:1662-3

> <Gold.Version>
5.8.1

> <Gold.Id.Protein>
6NUR|6NUR_protein|mol2

> <Gold.PLP.Fitness>
45.4431

> <Gold.PLP.PLP>
-39.3520

> <Gold.PLP.part.hbond>
-3.0000

> <Gold.PLP.part.metal>
0.0000

> <Gold.PLP.part.buried>
-4.0455

> <Gold.PLP.part.nonpolar>
-33.4696

> <Gold.PLP.part.repulsive>
0.3431

> <Gold.PLP.ligand.clash>
0.2048

> <Gold.PLP.ligand.torsion>
0.5336

> <Gold.PLP.Chemscore.Hbond>
2.4520

> <Gold.PLP.Chemscore.CHOScore>
0.0000

> <Gold.PLP.Chemscore.Metal>
0.0000

> <Gold.Chemscore.Hbonds>
donor molecule, donor type, donor heavy atom, donor atom, acceptor molecule, acceptor atom, score
      L1  H     8    29       P1  8028  1.00
      P1  H  6934  6946       L1    21  0.69
      P1  H  7989  7998       L1     7  0.70

> <Gold.PLP.Chemscore.Internal.Correction>
0.0071

> <Gold.Rescore>
     Score         DG    S(hbond)    S(metal)    S(lipo)     H(rot)  DE(clash)    DE(int)     intcor
     14.44     -19.06       1.62        0.00     101.58       1.45       3.12       1.49       ----

> <Gold.Chemscore.Fitness>
14.4433

> <Gold.Chemscore.DG>
-19.0612

> <Gold.Chemscore.ZeroCoef>
-5.4800

> <Gold.Chemscore.Hbond>
1.6197

> <Gold.Chemscore.Metal>
0.0000

> <Gold.Chemscore.Lipo>
101.5750

> <Gold.Chemscore.Internal_Hbond>
0.0000

> <Gold.Chemscore.DEClash>
3.1243

> <Gold.Chemscore.DEInternal>
1.4936

> <Gold.Chemscore.Rot>
1.4504

> <Gold.Chemscore.Internal.Correction>
   9.000000E+99

> <Gold.Chemscore.Hbonds>
donor molecule, donor type, donor heavy atom, donor atom, acceptor molecule, acceptor atom, score
      L1  H     8    29       P1  8028  0.90
      P1  H  6934  6946       L1    21  0.65
      P1  H  7989  7998       L1     7  0.07

> <Gold.Chemscore.Hbond.Weighted>
-5.4099

> <Gold.Chemscore.Metal.Weighted>
-0.0000

> <Gold.Chemscore.Lipo.Weighted>
-11.8843

> <Gold.Chemscore.Internal_Hbond.Weighted>
0.0000

> <Gold.Chemscore.DEClash.Weighted>
3.1243

> <Gold.Chemscore.DEInternal.Weighted>
1.4936

> <Gold.Chemscore.Rot.Weighted>
3.7129

> <Gold.Chemscore.Internal.Correction.Weighted>
   9.000000E+99

> <Gold.Protein.RotatedTorsions>
[ 6907 6896 6895 6894 ] final   76.85 input  -60.11 | X-H torsion
[ 7974 7965 7964 7962 ] final  159.66 input  175.53 | X-H torsion
[ 8008 7997 7996 7995 ] final -130.34 input   59.86 | X-H torsion
[ 10167 10162 10161 10158 ] final  -87.99 input  -65.29 | X-H torsion
[ 10718 10713 10712 10709 ] final   83.36 input   66.30 | X-H torsion
[ 10763 10752 10751 10750 ] final   19.72 input  -60.55 | X-H torsion
[ 11005 11000 10999 10996 ] final  -81.48 input  -57.11 | X-H torsion

> <Gold.Protein.ActiveResidues>
 VAL166  LYS551  ARG553  GLY616  TRP617  ASP618  TYR619  PRO620  LYS621  CYS622 
 ASP623  PHE694  ASN695  SER759  ASP760  ASP761  ALA762  ILE779  LEU786  VAL792 
 PHE793  MET794  SER795  GLU796  ALA797  LYS798  CYS799  TRP800  GLU811  SER814 

> <Gold.Protein.RotatedAtoms>
  152.5092  134.3906  159.9382 H   0  0  0  0  0  0  0  0  0  0  0  0  # atno 6907 bound_to 6896
  151.3866  133.3797  159.2724 H   0  0  0  0  0  0  0  0  0  0  0  0  # atno 6908 bound_to 6896
  150.9464  134.8889  159.7703 H   0  0  0  0  0  0  0  0  0  0  0  0  # atno 6909 bound_to 6896
  144.7778  139.7648  143.6271 H   0  0  0  0  0  0  0  0  0  0  0  0  # atno 7974 bound_to 7965
  155.2941  140.0449  157.3025 H   0  0  0  0  0  0  0  0  0  0  0  0  # atno 8008 bound_to 7997
  154.5524  140.2321  155.8431 H   0  0  0  0  0  0  0  0  0  0  0  0  # atno 8009 bound_to 7997
  156.1978  140.3034  155.9470 H   0  0  0  0  0  0  0  0  0  0  0  0  # atno 8010 bound_to 7997
  140.3790  143.2757  151.9407 H   0  0  0  0  0  0  0  0  0  0  0  0  # atno 10167 bound_to 10162
  157.6877  131.0088  150.2512 H   0  0  0  0  0  0  0  0  0  0  0  0  # atno 10718 bound_to 10713
  153.1138  135.6703  153.9454 H   0  0  0  0  0  0  0  0  0  0  0  0  # atno 10763 bound_to 10752
  153.8989  135.3038  155.3449 H   0  0  0  0  0  0  0  0  0  0  0  0  # atno 10764 bound_to 10752
  154.7556  135.5013  153.9446 H   0  0  0  0  0  0  0  0  0  0  0  0  # atno 10765 bound_to 10752
  141.1666  133.7199  156.8429 H   0  0  0  0  0  0  0  0  0  0  0  0  # atno 11005 bound_to 11000
  146.1969  139.5240  142.9769 LP  0  0  0  0  0  0  0  0  0  0  0  0  # atno 17320 bound_to 7965
  145.6135  141.0335  143.1953 LP  0  0  0  0  0  0  0  0  0  0  0  0  # atno 17321 bound_to 7965
  139.4797  144.5836  151.7891 LP  0  0  0  0  0  0  0  0  0  0  0  0  # atno 17342 bound_to 10162
  140.4956  144.1245  150.5959 LP  0  0  0  0  0  0  0  0  0  0  0  0  # atno 17343 bound_to 10162
  156.3109  130.3771  149.7663 LP  0  0  0  0  0  0  0  0  0  0  0  0  # atno 17370 bound_to 10713
  156.5263  130.8238  151.3221 LP  0  0  0  0  0  0  0  0  0  0  0  0  # atno 17371 bound_to 10713
  140.1970  134.8924  157.3126 LP  0  0  0  0  0  0  0  0  0  0  0  0  # atno 17394 bound_to 11000
  140.2228  134.4003  155.7558 LP  0  0  0  0  0  0  0  0  0  0  0  0  # atno 17395 bound_to 11000

$$$$
