AV-unprocessed.smi:99|AV-procd|sdf|890|dock1
  -GOLD-   2262017373D 1   1.00000     0.00000
 Structure written by MMmdl.
 52 55  0  0  0  0  0  0  0  0  2 V2000
  149.1417  136.0458  158.5161 O   0  0  0  0  0  0  0  0  0  0  0  0
  148.2198  135.2630  158.7536 C   0  0  0  0  0  0  0  0  0  0  0  0
  147.4568  134.6983  157.8017 O   0  0  0  0  0  0  0  0  0  0  0  0
  147.2630  135.3437  156.5532 C   0  0  0  0  0  0  0  0  0  0  0  0
  148.3867  134.9462  155.5862 C   0  0  1  0  0  0  0  0  0  0  0  0
  149.6338  134.9014  156.2598 O   0  0  0  0  0  0  0  0  0  0  0  0
  150.4896  134.0147  155.6049 C   0  0  1  0  0  0  0  0  0  0  0  0
  151.1748  133.1592  156.6505 N   0  0  0  0  0  0  0  0  0  0  0  0
  152.5565  133.1228  156.7267 C   0  0  0  0  0  0  0  0  0  0  0  0
  153.1903  132.3764  157.6538 C   0  0  0  0  0  0  0  0  0  0  0  0
  152.4028  131.5897  158.5989 C   0  0  0  0  0  0  0  0  0  0  0  0
  152.9873  130.9023  159.4340 O   0  0  0  0  0  0  0  0  0  0  0  0
  151.0422  131.6548  158.5133 N   0  5  0  0  0  0  0  0  0  0  0  0
  150.3987  132.4174  157.5817 C   0  0  0  0  0  0  0  0  0  0  0  0
  149.1725  132.5072  157.5155 O   0  0  0  0  0  0  0  0  0  0  0  0
  149.6582  133.1849  154.5969 C   0  0  1  0  0  0  0  0  0  0  0  0
  149.8222  131.7826  154.7044 O   0  0  0  0  0  0  0  0  0  0  0  0
  148.2255  133.5712  154.9368 C   0  0  2  0  0  0  0  0  0  0  0  0
  147.4393  133.6956  153.7586 O   0  0  0  0  0  0  0  0  0  0  0  0
  147.1420  132.6133  153.0085 C   0  0  0  0  0  0  0  0  0  0  0  0
  147.7113  131.5255  153.1164 O   0  0  0  0  0  0  0  0  0  0  0  0
  146.0438  132.8710  152.0328 C   0  0  0  0  0  0  0  0  0  0  0  0
  145.4777  134.1648  151.9525 C   0  0  0  0  0  0  0  0  0  0  0  0
  144.4399  134.4385  151.0406 C   0  0  0  0  0  0  0  0  0  0  0  0
  143.9541  133.4213  150.1986 C   0  0  0  0  0  0  0  0  0  0  0  0
  144.5080  132.1298  150.2694 C   0  0  0  0  0  0  0  0  0  0  0  0
  145.5468  131.8544  151.1800 C   0  0  0  0  0  0  0  0  0  0  0  0
  147.8346  134.8324  160.1286 C   0  0  0  0  0  0  0  0  0  0  0  0
  147.6536  133.4562  160.3993 C   0  0  0  0  0  0  0  0  0  0  0  0
  147.2839  133.0215  161.6870 C   0  0  0  0  0  0  0  0  0  0  0  0
  147.0914  133.9577  162.7198 C   0  0  0  0  0  0  0  0  0  0  0  0
  147.2716  135.3295  162.4641 C   0  0  0  0  0  0  0  0  0  0  0  0
  147.6432  135.7658  161.1777 C   0  0  0  0  0  0  0  0  0  0  0  0
  146.2960  135.0486  156.1440 H   0  0  0  0  0  0  0  0  0  0  0  0
  147.2493  136.4267  156.6820 H   0  0  0  0  0  0  0  0  0  0  0  0
  148.4811  135.7065  154.8088 H   0  0  0  0  0  0  0  0  0  0  0  0
  151.2703  134.6044  155.1234 H   0  0  0  0  0  0  0  0  0  0  0  0
  153.1466  133.7044  156.0362 H   0  0  0  0  0  0  0  0  0  0  0  0
  154.2693  132.3624  157.6987 H   0  0  0  0  0  0  0  0  0  0  0  0
  149.9263  133.5160  153.5925 H   0  0  0  0  0  0  0  0  0  0  0  0
  149.6300  131.3957  153.8633 H   0  0  0  0  0  0  0  0  0  0  0  0
  147.8070  132.8680  155.6584 H   0  0  0  0  0  0  0  0  0  0  0  0
  145.8337  134.9622  152.5889 H   0  0  0  0  0  0  0  0  0  0  0  0
  144.0161  135.4307  150.9877 H   0  0  0  0  0  0  0  0  0  0  0  0
  143.1580  133.6315  149.4997 H   0  0  0  0  0  0  0  0  0  0  0  0
  144.1356  131.3480  149.6238 H   0  0  0  0  0  0  0  0  0  0  0  0
  145.9490  130.8522  151.2086 H   0  0  0  0  0  0  0  0  0  0  0  0
  147.7933  132.7192  159.6216 H   0  0  0  0  0  0  0  0  0  0  0  0
  147.1469  131.9679  161.8817 H   0  0  0  0  0  0  0  0  0  0  0  0
  146.8070  133.6242  163.7068 H   0  0  0  0  0  0  0  0  0  0  0  0
  147.1262  136.0496  163.2557 H   0  0  0  0  0  0  0  0  0  0  0  0
  147.7792  136.8254  161.0190 H   0  0  0  0  0  0  0  0  0  0  0  0
  1  2  2  0  0  0  0
  2  3  1  0  0  0  0
  2 28  1  0  0  0  0
  3  4  1  0  0  0  0
  4  5  1  0  0  0  0
  4 34  1  0  0  0  0
  4 35  1  0  0  0  0
  5 18  1  0  0  0  0
  5  6  1  0  0  0  0
  5 36  1  0  0  0  0
  6  7  1  0  0  0  0
  7  8  1  0  0  0  0
  7 16  1  0  0  0  0
  7 37  1  0  0  0  0
  8 14  1  0  0  0  0
  8  9  1  0  0  0  0
  9 10  2  0  0  0  0
  9 38  1  0  0  0  0
 10 11  1  0  0  0  0
 10 39  1  0  0  0  0
 11 12  2  0  0  0  0
 11 13  1  0  0  0  0
 13 14  1  0  0  0  0
 14 15  2  0  0  0  0
 16 17  1  0  0  0  0
 16 18  1  0  0  0  0
 16 40  1  0  0  0  0
 17 41  1  0  0  0  0
 18 19  1  0  0  0  0
 18 42  1  0  0  0  0
 19 20  1  0  0  0  0
 20 21  2  0  0  0  0
 20 22  1  0  0  0  0
 22 27  1  0  0  0  0
 22 23  2  0  0  0  0
 23 24  1  0  0  0  0
 23 43  1  0  0  0  0
 24 25  2  0  0  0  0
 24 44  1  0  0  0  0
 25 26  1  0  0  0  0
 25 45  1  0  0  0  0
 26 27  2  0  0  0  0
 26 46  1  0  0  0  0
 27 47  1  0  0  0  0
 28 33  1  0  0  0  0
 28 29  2  0  0  0  0
 29 30  1  0  0  0  0
 29 48  1  0  0  0  0
 30 31  2  0  0  0  0
 30 49  1  0  0  0  0
 31 32  1  0  0  0  0
 31 50  1  0  0  0  0
 32 33  2  0  0  0  0
 32 51  1  0  0  0  0
 33 52  1  0  0  0  0
M  CHG  1  13  -1
M  END
> <s_m_source_file>
AV-unprocessed.smi

> <i_m_source_file_index>
99

> <i_lp_mmshare_version>
43012

> <i_f3d_flags>
0

> <s_epik_input>
W2NIXTFbY0hdW2NIXVtjSF1bY0hdYzFDKD1PKU9bQ0gyXVtDQEBIXTJPW0NAQEhdKG4zW2NIXVtjSF1jKD1PKVtuSF1jMz1PKVtDQEBIXShbT0hdKVtDQEhdMk9DKD1PKWM0W2NIXVtjSF1bY0hdW2NIXVtjSF00

> <s_epik_cmdline>
J2VwaWtfcHl0aG9uJywgJy1waCcsICc3LjAnLCAnLXRuJywgJzgnLCAnLW1hJywgJzIwMCcsICctbWV0YWxfYmluZGluZycsICctaW1hZScsICc8aW5maWxlLm1hZT4nLCAnLW9tYWUnLCAnPG91dGZpbGUubWFlPic=

> <r_lp_tautomer_probability>
1

> <r_epik_Ionization_Penalty>
2.89159

> <r_epik_Ionization_Penalty_Charging>
2.1077e-08

> <r_epik_Ionization_Penalty_Neutral>
2.89159

> <r_epik_State_Penalty>
2.88671

> <r_epik_Charging_Adjusted_Penalty>
2.88671

> <i_epik_Tot_Q>
-1

> <i_epik_Tot_abs_Q>
1

> <r_epik_Metal_State_Penalty>
0.0727308

> <b_epik_Metal_Only>
1

> <s_epik_Chemistry_Notes>
This compound has an ester and may undergo hydrolysis at high or low pH. This compound contains an acetal/aminal-like group ( X-CH(R)-Y where X, Y are N, S, or O) that may be acid/base labile, releasing an aldehyde.

> <s_lp_Force_Field>
OPLS_2005

> <r_lp_Energy>
45.1404

> <b_lp_Chiralities_Consistent>
1

> <s_lp_Variant>
AV-unprocessed.smi:99-26

> <Gold.Version>
5.8.1

> <Gold.Id.Protein>
6NUR|6NUR_protein|mol2

> <Gold.PLP.Fitness>
48.0262

> <Gold.PLP.PLP>
-47.9405

> <Gold.PLP.part.hbond>
-1.0000

> <Gold.PLP.part.metal>
0.0000

> <Gold.PLP.part.buried>
-7.5417

> <Gold.PLP.part.nonpolar>
-39.7189

> <Gold.PLP.part.repulsive>
0.2273

> <Gold.PLP.ligand.clash>
0.0000

> <Gold.PLP.ligand.torsion>
1.7730

> <Gold.PLP.Chemscore.Hbond>
1.0000

> <Gold.PLP.Chemscore.CHOScore>
0.0000

> <Gold.PLP.Chemscore.Metal>
0.0000

> <Gold.Chemscore.Hbonds>
donor molecule, donor type, donor heavy atom, donor atom, acceptor molecule, acceptor atom, score
      P1  H  6896  6909       L1     1  0.13

> <Gold.PLP.Chemscore.Internal.Correction>
0.6317

> <Gold.Rescore>
     Score         DG    S(hbond)    S(metal)    S(lipo)     H(rot)  DE(clash)    DE(int)     intcor
      3.53     -11.63       0.98        0.00      93.27       3.13       0.00       8.11       ----

> <Gold.Chemscore.Fitness>
3.5270

> <Gold.Chemscore.DG>
-11.6329

> <Gold.Chemscore.ZeroCoef>
-5.4800

> <Gold.Chemscore.Hbond>
0.9774

> <Gold.Chemscore.Metal>
0.0000

> <Gold.Chemscore.Lipo>
93.2724

> <Gold.Chemscore.Internal_Hbond>
0.0000

> <Gold.Chemscore.DEClash>
0.0000

> <Gold.Chemscore.DEInternal>
8.1059

> <Gold.Chemscore.Rot>
3.1346

> <Gold.Chemscore.Internal.Correction>
   9.000000E+99

> <Gold.Chemscore.Hbonds>
donor molecule, donor type, donor heavy atom, donor atom, acceptor molecule, acceptor atom, score
      P1  H  6896  6909       L1     1  0.02

> <Gold.Chemscore.Hbond.Weighted>
-3.2646

> <Gold.Chemscore.Metal.Weighted>
-0.0000

> <Gold.Chemscore.Lipo.Weighted>
-10.9129

> <Gold.Chemscore.Internal_Hbond.Weighted>
0.0000

> <Gold.Chemscore.DEClash.Weighted>
0.0000

> <Gold.Chemscore.DEInternal.Weighted>
8.1059

> <Gold.Chemscore.Rot.Weighted>
8.0246

> <Gold.Chemscore.Internal.Correction.Weighted>
   9.000000E+99

> <Gold.Protein.RotatedTorsions>
[ 6907 6896 6895 6894 ] final   67.24 input  -60.11 | X-H torsion
[ 7974 7965 7964 7962 ] final   59.77 input  175.53 | X-H torsion
[ 8008 7997 7996 7995 ] final   26.15 input   59.86 | X-H torsion
[ 10167 10162 10161 10158 ] final -162.55 input  -65.29 | X-H torsion
[ 10718 10713 10712 10709 ] final -138.03 input   66.30 | X-H torsion
[ 10763 10752 10751 10750 ] final   44.00 input  -60.55 | X-H torsion
[ 11005 11000 10999 10996 ] final    8.73 input  -57.11 | X-H torsion

> <Gold.Protein.ActiveResidues>
 VAL166  LYS551  ARG553  GLY616  TRP617  ASP618  TYR619  PRO620  LYS621  CYS622 
 ASP623  PHE694  ASN695  SER759  ASP760  ASP761  ALA762  ILE779  LEU786  VAL792 
 PHE793  MET794  SER795  GLU796  ALA797  LYS798  CYS799  TRP800  GLU811  SER814 

> <Gold.Protein.RotatedAtoms>
  152.4538  134.5336  159.9818 H   0  0  0  0  0  0  0  0  0  0  0  0  # atno 6907 bound_to 6896
  151.5402  133.3428  159.2942 H   0  0  0  0  0  0  0  0  0  0  0  0  # atno 6908 bound_to 6896
  150.8475  134.7820  159.7045 H   0  0  0  0  0  0  0  0  0  0  0  0  # atno 6909 bound_to 6896
  145.9034  139.3599  143.0578 H   0  0  0  0  0  0  0  0  0  0  0  0  # atno 7974 bound_to 7965
  155.0227  140.3149  155.4787 H   0  0  0  0  0  0  0  0  0  0  0  0  # atno 8008 bound_to 7997
  156.2889  140.2194  156.5288 H   0  0  0  0  0  0  0  0  0  0  0  0  # atno 8009 bound_to 7997
  154.7438  140.0471  157.0822 H   0  0  0  0  0  0  0  0  0  0  0  0  # atno 8010 bound_to 7997
  139.6384  144.0306  152.2073 H   0  0  0  0  0  0  0  0  0  0  0  0  # atno 10167 bound_to 10162
  156.2948  130.7395  151.1431 H   0  0  0  0  0  0  0  0  0  0  0  0  # atno 10718 bound_to 10713
  152.9849  135.6084  154.3203 H   0  0  0  0  0  0  0  0  0  0  0  0  # atno 10763 bound_to 10752
  154.2913  135.2775  155.2655 H   0  0  0  0  0  0  0  0  0  0  0  0  # atno 10764 bound_to 10752
  154.4949  135.5882  153.6543 H   0  0  0  0  0  0  0  0  0  0  0  0  # atno 10765 bound_to 10752
  140.5337  134.0441  155.7881 H   0  0  0  0  0  0  0  0  0  0  0  0  # atno 11005 bound_to 11000
  145.8762  140.9390  143.0625 LP  0  0  0  0  0  0  0  0  0  0  0  0  # atno 17320 bound_to 7965
  144.6737  140.0719  143.7472 LP  0  0  0  0  0  0  0  0  0  0  0  0  # atno 17321 bound_to 7965
  139.9989  144.6308  150.7747 LP  0  0  0  0  0  0  0  0  0  0  0  0  # atno 17342 bound_to 10162
  140.7478  143.2912  151.3327 LP  0  0  0  0  0  0  0  0  0  0  0  0  # atno 17343 bound_to 10162
  157.7352  131.0574  150.5482 LP  0  0  0  0  0  0  0  0  0  0  0  0  # atno 17370 bound_to 10713
  156.5602  130.4253  149.6066 LP  0  0  0  0  0  0  0  0  0  0  0  0  # atno 17371 bound_to 10713
  141.1267  133.9372  157.2621 LP  0  0  0  0  0  0  0  0  0  0  0  0  # atno 17394 bound_to 11000
  139.9540  135.0169  156.9076 LP  0  0  0  0  0  0  0  0  0  0  0  0  # atno 17395 bound_to 11000

$$$$
