AV-unprocessed.smi:2484|AV-procd|sdf|9787|dock3
  -GOLD-   2272013423D 1   1.00000     0.00000
 Structure written by MMmdl.
 45 46  0  0  0  0  0  0  0  0  1 V2000
  146.5277  142.2955  154.1682 C   0  0  0  0  0  0  0  0  0  0  0  0
  146.9719  140.8554  154.5160 C   0  0  0  0  0  0  0  0  0  0  0  0
  146.2116  139.8938  153.7056 N   0  0  0  0  0  0  0  0  0  0  0  0
  146.3892  138.5651  153.6046 C   0  0  0  0  0  0  0  0  0  0  0  0
  147.2509  137.9373  154.2198 O   0  0  0  0  0  0  0  0  0  0  0  0
  145.5016  138.0243  152.7518 N   0  0  0  0  0  0  0  0  0  0  0  0
  145.4181  136.6752  152.3168 C   0  0  0  0  0  0  0  0  0  0  0  0
  145.0084  136.4940  150.9805 C   0  0  0  0  0  0  0  0  0  0  0  0
  144.9191  135.1847  150.4783 C   0  0  0  0  0  0  0  0  0  0  0  0
  145.2500  134.1220  151.3492 C   0  0  0  0  0  0  0  0  0  0  0  0
  145.2118  132.6424  150.9264 C   0  0  0  0  0  0  0  0  0  0  0  0
  145.5915  131.6882  152.0813 C   0  0  0  0  0  0  0  0  0  0  0  0
  146.2135  132.4007  149.7779 C   0  0  0  0  0  0  0  0  0  0  0  0
  143.7866  132.2711  150.4666 C   0  0  0  0  0  0  0  0  0  0  0  0
  145.6355  134.3599  152.6267 N   0  0  0  0  0  0  0  0  0  0  0  0
  145.7161  135.6073  153.0986 N   0  0  0  0  0  0  0  0  0  0  0  0
  148.4612  140.6452  154.1563 C   0  0  0  0  0  0  0  0  0  0  0  0
  149.4216  141.3322  155.1431 C   0  0  0  0  0  0  0  0  0  0  0  0
  149.1565  140.8899  156.4670 O   0  0  0  0  0  0  0  0  0  0  0  0
  147.8501  141.2377  156.9043 C   0  0  0  0  0  0  0  0  0  0  0  0
  146.7943  140.5454  156.0249 C   0  0  0  0  0  0  0  0  0  0  0  0
  147.1279  143.0442  154.6841 H   0  0  0  0  0  0  0  0  0  0  0  0
  145.4898  142.4790  154.4458 H   0  0  0  0  0  0  0  0  0  0  0  0
  146.6197  142.4886  153.0987 H   0  0  0  0  0  0  0  0  0  0  0  0
  145.4685  140.2922  153.1506 H   0  0  0  0  0  0  0  0  0  0  0  0
  144.8267  138.6544  152.3446 H   0  0  0  0  0  0  0  0  0  0  0  0
  144.7701  137.3377  150.3495 H   0  0  0  0  0  0  0  0  0  0  0  0
  144.6093  135.0295  149.4567 H   0  0  0  0  0  0  0  0  0  0  0  0
  145.5589  130.6466  151.7595 H   0  0  0  0  0  0  0  0  0  0  0  0
  144.9060  131.7815  152.9245 H   0  0  0  0  0  0  0  0  0  0  0  0
  146.6022  131.8777  152.4449 H   0  0  0  0  0  0  0  0  0  0  0  0
  147.2288  132.6633  150.0769 H   0  0  0  0  0  0  0  0  0  0  0  0
  145.9681  132.9911  148.8947 H   0  0  0  0  0  0  0  0  0  0  0  0
  146.2217  131.3543  149.4708 H   0  0  0  0  0  0  0  0  0  0  0  0
  143.7231  131.2222  150.1750 H   0  0  0  0  0  0  0  0  0  0  0  0
  143.4710  132.8626  149.6064 H   0  0  0  0  0  0  0  0  0  0  0  0
  143.0591  132.4359  151.2623 H   0  0  0  0  0  0  0  0  0  0  0  0
  148.6884  139.5776  154.1619 H   0  0  0  0  0  0  0  0  0  0  0  0
  148.6621  140.9899  153.1410 H   0  0  0  0  0  0  0  0  0  0  0  0
  150.4519  141.0789  154.8928 H   0  0  0  0  0  0  0  0  0  0  0  0
  149.3447  142.4184  155.0849 H   0  0  0  0  0  0  0  0  0  0  0  0
  147.7339  140.9201  157.9408 H   0  0  0  0  0  0  0  0  0  0  0  0
  147.7248  142.3212  156.8939 H   0  0  0  0  0  0  0  0  0  0  0  0
  145.7995  140.8305  156.3674 H   0  0  0  0  0  0  0  0  0  0  0  0
  146.8741  139.4691  156.1856 H   0  0  0  0  0  0  0  0  0  0  0  0
  1  2  1  0  0  0  0
  1 22  1  0  0  0  0
  1 23  1  0  0  0  0
  1 24  1  0  0  0  0
  2 21  1  0  0  0  0
  2  3  1  0  0  0  0
  2 17  1  0  0  0  0
  3  4  1  0  0  0  0
  3 25  1  0  0  0  0
  4  5  2  0  0  0  0
  4  6  1  0  0  0  0
  6  7  1  0  0  0  0
  6 26  1  0  0  0  0
  7 16  1  0  0  0  0
  7  8  2  0  0  0  0
  8  9  1  0  0  0  0
  8 27  1  0  0  0  0
  9 10  2  0  0  0  0
  9 28  1  0  0  0  0
 10 11  1  0  0  0  0
 10 15  1  0  0  0  0
 11 12  1  0  0  0  0
 11 13  1  0  0  0  0
 11 14  1  0  0  0  0
 12 29  1  0  0  0  0
 12 30  1  0  0  0  0
 12 31  1  0  0  0  0
 13 32  1  0  0  0  0
 13 33  1  0  0  0  0
 13 34  1  0  0  0  0
 14 35  1  0  0  0  0
 14 36  1  0  0  0  0
 14 37  1  0  0  0  0
 15 16  2  0  0  0  0
 17 18  1  0  0  0  0
 17 38  1  0  0  0  0
 17 39  1  0  0  0  0
 18 19  1  0  0  0  0
 18 40  1  0  0  0  0
 18 41  1  0  0  0  0
 19 20  1  0  0  0  0
 20 21  1  0  0  0  0
 20 42  1  0  0  0  0
 20 43  1  0  0  0  0
 21 44  1  0  0  0  0
 21 45  1  0  0  0  0
M  END
> <s_m_source_file>
AV-unprocessed.smi

> <i_m_source_file_index>
2484

> <i_lp_mmshare_version>
43012

> <i_f3d_flags>
0

> <s_epik_input>
W0NIMl0xW0NIMl1PW0NIMl1bQ0gyXUMxKFtDSDNdKVtOSF1DKD1PKVtOSF1jMltjSF1bY0hdYyhubjIpQyhbQ0gzXSkoW0NIM10pW0NIM10=

> <s_epik_cmdline>
J2VwaWtfcHl0aG9uJywgJy1waCcsICc3LjAnLCAnLXRuJywgJzgnLCAnLW1hJywgJzIwMCcsICctbWV0YWxfYmluZGluZycsICctaW1hZScsICc8aW5maWxlLm1hZT4nLCAnLW9tYWUnLCAnPG91dGZpbGUubWFlPic=

> <r_lp_tautomer_probability>
1

> <r_epik_Ionization_Penalty>
0.0115026

> <r_epik_Ionization_Penalty_Charging>
0

> <r_epik_Ionization_Penalty_Neutral>
0.0115026

> <r_epik_State_Penalty>
0.00473796

> <r_epik_Charging_Adjusted_Penalty>
0.00473796

> <i_epik_Tot_Q>
0

> <i_epik_Tot_abs_Q>
0

> <r_epik_Metal_State_Penalty>
-0

> <b_epik_Metal_Only>
0

> <s_lp_Force_Field>
OPLS_2005

> <r_lp_Energy>
18.8992

> <b_lp_Chiralities_Consistent>
1

> <s_lp_Variant>
AV-unprocessed.smi:2484-1

> <Gold.Version>
5.8.1

> <Gold.Id.Protein>
6NUR|6NUR_protein|mol2

> <Gold.PLP.Fitness>
37.8948

> <Gold.PLP.PLP>
-32.5276

> <Gold.PLP.part.hbond>
-2.0109

> <Gold.PLP.part.metal>
0.0000

> <Gold.PLP.part.buried>
-0.2581

> <Gold.PLP.part.nonpolar>
-30.5716

> <Gold.PLP.part.repulsive>
0.3825

> <Gold.PLP.ligand.clash>
0.0000

> <Gold.PLP.ligand.torsion>
0.3093

> <Gold.PLP.Chemscore.Hbond>
1.9913

> <Gold.PLP.Chemscore.CHOScore>
0.0000

> <Gold.PLP.Chemscore.Metal>
0.0000

> <Gold.Chemscore.Hbonds>
donor molecule, donor type, donor heavy atom, donor atom, acceptor molecule, acceptor atom, score
      L1  H     3    25       P1 10175  1.00
      L1  H     6    26       P1 10175  0.73

> <Gold.PLP.Chemscore.Internal.Correction>
0.0121

> <Gold.Rescore>
     Score         DG    S(hbond)    S(metal)    S(lipo)     H(rot)  DE(clash)    DE(int)     intcor
     14.09     -18.49       1.93        0.00      81.86       1.18       1.44       2.95       ----

> <Gold.Chemscore.Fitness>
14.0929

> <Gold.Chemscore.DG>
-18.4853

> <Gold.Chemscore.ZeroCoef>
-5.4800

> <Gold.Chemscore.Hbond>
1.9271

> <Gold.Chemscore.Metal>
0.0000

> <Gold.Chemscore.Lipo>
81.8604

> <Gold.Chemscore.Internal_Hbond>
0.0000

> <Gold.Chemscore.DEClash>
1.4449

> <Gold.Chemscore.DEInternal>
2.9476

> <Gold.Chemscore.Rot>
1.1753

> <Gold.Chemscore.Internal.Correction>
   9.000000E+99

> <Gold.Chemscore.Hbonds>
donor molecule, donor type, donor heavy atom, donor atom, acceptor molecule, acceptor atom, score
      L1  H     3    25       P1 10175  0.97
      L1  H     6    26       P1 10175  0.69

> <Gold.Chemscore.Hbond.Weighted>
-6.4366

> <Gold.Chemscore.Metal.Weighted>
-0.0000

> <Gold.Chemscore.Lipo.Weighted>
-9.5777

> <Gold.Chemscore.Internal_Hbond.Weighted>
0.0000

> <Gold.Chemscore.DEClash.Weighted>
1.4449

> <Gold.Chemscore.DEInternal.Weighted>
2.9476

> <Gold.Chemscore.Rot.Weighted>
3.0089

> <Gold.Chemscore.Internal.Correction.Weighted>
   9.000000E+99

> <Gold.Protein.RotatedTorsions>
[ 6907 6896 6895 6894 ] final  -82.13 input  -60.11 | X-H torsion
[ 7974 7965 7964 7962 ] final   67.53 input  175.53 | X-H torsion
[ 8008 7997 7996 7995 ] final  -52.41 input   59.86 | X-H torsion
[ 10167 10162 10161 10158 ] final  167.06 input  -65.29 | X-H torsion
[ 10718 10713 10712 10709 ] final  121.02 input   66.30 | X-H torsion
[ 10763 10752 10751 10750 ] final    3.80 input  -60.55 | X-H torsion
[ 11005 11000 10999 10996 ] final  136.08 input  -57.11 | X-H torsion

> <Gold.Protein.ActiveResidues>
 VAL166  LYS551  ARG553  GLY616  TRP617  ASP618  TYR619  PRO620  LYS621  CYS622 
 ASP623  PHE694  ASN695  SER759  ASP760  ASP761  ALA762  ILE779  LEU786  VAL792 
 PHE793  MET794  SER795  GLU796  ALA797  LYS798  CYS799  TRP800  GLU811  SER814 

> <Gold.Protein.RotatedAtoms>
  150.6901  134.3712  159.4992 H   0  0  0  0  0  0  0  0  0  0  0  0  # atno 6907 bound_to 6896
  152.1528  134.8972  160.0556 H   0  0  0  0  0  0  0  0  0  0  0  0  # atno 6908 bound_to 6896
  152.0063  133.3810  159.4239 H   0  0  0  0  0  0  0  0  0  0  0  0  # atno 6909 bound_to 6896
  145.8135  139.3045  143.1085 H   0  0  0  0  0  0  0  0  0  0  0  0  # atno 7974 bound_to 7965
  154.4106  140.1224  156.4987 H   0  0  0  0  0  0  0  0  0  0  0  0  # atno 8008 bound_to 7997
  155.6917  140.3495  155.4877 H   0  0  0  0  0  0  0  0  0  0  0  0  # atno 8009 bound_to 7997
  155.9463  140.1096  157.1004 H   0  0  0  0  0  0  0  0  0  0  0  0  # atno 8010 bound_to 7997
  139.4937  144.3961  151.9462 H   0  0  0  0  0  0  0  0  0  0  0  0  # atno 10167 bound_to 10162
  157.5849  131.1071  150.8115 H   0  0  0  0  0  0  0  0  0  0  0  0  # atno 10718 bound_to 10713
  153.2790  135.6939  153.7405 H   0  0  0  0  0  0  0  0  0  0  0  0  # atno 10763 bound_to 10752
  153.6399  135.3395  155.3069 H   0  0  0  0  0  0  0  0  0  0  0  0  # atno 10764 bound_to 10752
  154.8489  135.4429  154.1837 H   0  0  0  0  0  0  0  0  0  0  0  0  # atno 10765 bound_to 10752
  140.0022  134.9473  157.0098 H   0  0  0  0  0  0  0  0  0  0  0  0  # atno 11005 bound_to 11000
  145.9752  140.8728  143.0142 LP  0  0  0  0  0  0  0  0  0  0  0  0  # atno 17320 bound_to 7965
  144.6755  140.2002  143.7388 LP  0  0  0  0  0  0  0  0  0  0  0  0  # atno 17321 bound_to 7965
  140.3400  144.3215  150.5969 LP  0  0  0  0  0  0  0  0  0  0  0  0  # atno 17342 bound_to 10162
  140.5574  143.2197  151.7824 LP  0  0  0  0  0  0  0  0  0  0  0  0  # atno 17343 bound_to 10162
  156.8552  130.5094  149.5308 LP  0  0  0  0  0  0  0  0  0  0  0  0  # atno 17370 bound_to 10713
  156.0897  130.5886  150.9711 LP  0  0  0  0  0  0  0  0  0  0  0  0  # atno 17371 bound_to 10713
  140.4706  134.1390  155.7202 LP  0  0  0  0  0  0  0  0  0  0  0  0  # atno 17394 bound_to 11000
  141.1651  133.8719  157.1739 LP  0  0  0  0  0  0  0  0  0  0  0  0  # atno 17395 bound_to 11000

$$$$
