AV-unprocessed.smi:1958|AV-procd|sdf|7907|dock1
  -GOLD-   2272010 63D 1   1.00000     0.00000
 Structure written by MMmdl.
 47 48  0  0  0  0  0  0  0  0  1 V2000
  145.6611  143.1044  161.7551 C   0  0  0  0  0  0  0  0  0  0  0  0
  147.0379  142.9675  161.4518 O   0  0  0  0  0  0  0  0  0  0  0  0
  147.7893  144.1187  161.8014 C   0  0  0  0  0  0  0  0  0  0  0  0
  148.1585  144.8948  160.5267 C   0  0  0  0  0  0  0  0  0  0  0  0
  149.3565  144.3458  159.8813 N   0  0  0  0  0  0  0  0  0  0  0  0
  149.1585  143.1130  159.2823 N   0  0  0  0  0  0  0  0  0  0  0  0
  150.1407  142.5097  158.6944 C   0  0  0  0  0  0  0  0  0  0  0  0
  149.9701  141.1802  158.0456 C   0  0  0  0  0  0  0  0  0  0  0  0
  148.9160  140.5478  158.1282 O   0  0  0  0  0  0  0  0  0  0  0  0
  151.0461  140.7271  157.3760 N   0  0  0  0  0  0  0  0  0  0  0  0
  151.1386  139.4575  156.6589 C   0  0  0  0  0  0  0  0  0  0  0  0
  151.3123  139.6402  155.1243 C   0  0  1  0  0  0  0  0  0  0  0  0
  152.0564  138.4079  154.5495 C   0  0  0  0  0  0  0  0  0  0  0  0
  150.0377  139.9172  154.4200 N   0  0  0  0  0  0  0  0  0  0  0  0
  149.3666  141.1226  154.9219 C   0  0  0  0  0  0  0  0  0  0  0  0
  148.0286  141.4023  154.2156 C   0  0  0  0  0  0  0  0  0  0  0  0
  147.1727  140.2761  154.3480 O   0  0  0  0  0  0  0  0  0  0  0  0
  147.7519  139.1005  153.7997 C   0  0  0  0  0  0  0  0  0  0  0  0
  149.0863  138.8026  154.5049 C   0  0  0  0  0  0  0  0  0  0  0  0
  151.4615  143.1139  158.6443 C   0  0  0  0  0  0  0  0  0  0  0  0
  151.6394  144.3173  159.2320 C   0  0  0  0  0  0  0  0  0  0  0  0
  150.5473  145.0168  159.9109 C   0  0  0  0  0  0  0  0  0  0  0  0
  150.6872  146.1079  160.4628 O   0  0  0  0  0  0  0  0  0  0  0  0
  145.1311  142.1968  161.4663 H   0  0  0  0  0  0  0  0  0  0  0  0
  145.2182  143.9404  161.2124 H   0  0  0  0  0  0  0  0  0  0  0  0
  145.5067  143.2588  162.8239 H   0  0  0  0  0  0  0  0  0  0  0  0
  147.1931  144.7560  162.4558 H   0  0  0  0  0  0  0  0  0  0  0  0
  148.6865  143.8370  162.3549 H   0  0  0  0  0  0  0  0  0  0  0  0
  147.3146  144.8833  159.8343 H   0  0  0  0  0  0  0  0  0  0  0  0
  148.3162  145.9469  160.7696 H   0  0  0  0  0  0  0  0  0  0  0  0
  151.8682  141.3139  157.3630 H   0  0  0  0  0  0  0  0  0  0  0  0
  151.9385  138.8291  157.0543 H   0  0  0  0  0  0  0  0  0  0  0  0
  150.2058  138.9483  156.8934 H   0  0  0  0  0  0  0  0  0  0  0  0
  151.9674  140.5009  154.9804 H   0  0  0  0  0  0  0  0  0  0  0  0
  152.9789  138.1918  155.0863 H   0  0  0  0  0  0  0  0  0  0  0  0
  152.3632  138.5520  153.5147 H   0  0  0  0  0  0  0  0  0  0  0  0
  151.4328  137.5145  154.5970 H   0  0  0  0  0  0  0  0  0  0  0  0
  149.1962  141.0312  155.9959 H   0  0  0  0  0  0  0  0  0  0  0  0
  149.9916  142.0012  154.7738 H   0  0  0  0  0  0  0  0  0  0  0  0
  147.5422  142.2720  154.6575 H   0  0  0  0  0  0  0  0  0  0  0  0
  148.1880  141.6272  153.1599 H   0  0  0  0  0  0  0  0  0  0  0  0
  147.0604  138.2684  153.9317 H   0  0  0  0  0  0  0  0  0  0  0  0
  147.9019  139.2249  152.7260 H   0  0  0  0  0  0  0  0  0  0  0  0
  149.4951  137.9093  154.0369 H   0  0  0  0  0  0  0  0  0  0  0  0
  148.8965  138.5566  155.5509 H   0  0  0  0  0  0  0  0  0  0  0  0
  152.2860  142.6198  158.1513 H   0  0  0  0  0  0  0  0  0  0  0  0
  152.6159  144.7780  159.2022 H   0  0  0  0  0  0  0  0  0  0  0  0
  1  2  1  0  0  0  0
  1 24  1  0  0  0  0
  1 25  1  0  0  0  0
  1 26  1  0  0  0  0
  2  3  1  0  0  0  0
  3  4  1  0  0  0  0
  3 27  1  0  0  0  0
  3 28  1  0  0  0  0
  4  5  1  0  0  0  0
  4 29  1  0  0  0  0
  4 30  1  0  0  0  0
  5 22  1  0  0  0  0
  5  6  1  0  0  0  0
  6  7  2  0  0  0  0
  7  8  1  0  0  0  0
  7 20  1  0  0  0  0
  8  9  2  0  0  0  0
  8 10  1  0  0  0  0
 10 11  1  0  0  0  0
 10 31  1  0  0  0  0
 11 12  1  0  0  0  0
 11 32  1  0  0  0  0
 11 33  1  0  0  0  0
 12 13  1  0  0  0  0
 12 14  1  0  0  0  0
 12 34  1  0  0  0  0
 13 35  1  0  0  0  0
 13 36  1  0  0  0  0
 13 37  1  0  0  0  0
 14 19  1  0  0  0  0
 14 15  1  0  0  0  0
 15 16  1  0  0  0  0
 15 38  1  0  0  0  0
 15 39  1  0  0  0  0
 16 17  1  0  0  0  0
 16 40  1  0  0  0  0
 16 41  1  0  0  0  0
 17 18  1  0  0  0  0
 18 19  1  0  0  0  0
 18 42  1  0  0  0  0
 18 43  1  0  0  0  0
 19 44  1  0  0  0  0
 19 45  1  0  0  0  0
 20 21  2  0  0  0  0
 20 46  1  0  0  0  0
 21 22  1  0  0  0  0
 21 47  1  0  0  0  0
 22 23  2  0  0  0  0
M  END
> <s_m_source_file>
AV-unprocessed.smi

> <i_m_source_file_index>
1958

> <i_lp_mmshare_version>
43012

> <i_f3d_flags>
0

> <s_epik_input>
W0NIM11PW0NIMl1bQ0gyXW4xbmMoW2NIXVtjSF1jMT1PKUMoPU8pW05IXVtDSDJdW0NASF0oW0NIM10pTjJbQ0gyXVtDSDJdT1tDSDJdW0NIMl0y

> <s_epik_cmdline>
J2VwaWtfcHl0aG9uJywgJy1waCcsICc3LjAnLCAnLXRuJywgJzgnLCAnLW1hJywgJzIwMCcsICctbWV0YWxfYmluZGluZycsICctaW1hZScsICc8aW5maWxlLm1hZT4nLCAnLW9tYWUnLCAnPG91dGZpbGUubWFlPic=

> <r_lp_tautomer_probability>
1

> <r_epik_Ionization_Penalty>
0.206669

> <r_epik_Ionization_Penalty_Charging>
5.75808e-09

> <r_epik_Ionization_Penalty_Neutral>
0.206669

> <r_epik_State_Penalty>
0.196651

> <r_epik_Charging_Adjusted_Penalty>
0.196651

> <i_epik_Tot_Q>
0

> <i_epik_Tot_abs_Q>
0

> <r_epik_Metal_State_Penalty>
0.198415

> <b_epik_Metal_Only>
0

> <s_lp_Force_Field>
OPLS_2005

> <r_lp_Energy>
50.1951

> <b_lp_Chiralities_Consistent>
1

> <s_lp_Variant>
AV-unprocessed.smi:1958-2

> <Gold.Version>
5.8.1

> <Gold.Id.Protein>
6NUR|6NUR_protein|mol2

> <Gold.PLP.Fitness>
47.0795

> <Gold.PLP.PLP>
-46.0527

> <Gold.PLP.part.hbond>
-4.2833

> <Gold.PLP.part.metal>
0.0000

> <Gold.PLP.part.buried>
-2.9344

> <Gold.PLP.part.nonpolar>
-39.2744

> <Gold.PLP.part.repulsive>
0.8173

> <Gold.PLP.ligand.clash>
0.5597

> <Gold.PLP.ligand.torsion>
0.8589

> <Gold.PLP.Chemscore.Hbond>
1.0000

> <Gold.PLP.Chemscore.CHOScore>
0.0000

> <Gold.PLP.Chemscore.Metal>
0.0000

> <Gold.Chemscore.Hbonds>
donor molecule, donor type, donor heavy atom, donor atom, acceptor molecule, acceptor atom, score
      P1  H  6933  6944       L1     2  0.05
      P1  H  6934  6946       L1     2  0.25

> <Gold.PLP.Chemscore.Internal.Correction>
0.3042

> <Gold.Rescore>
     Score         DG    S(hbond)    S(metal)    S(lipo)     H(rot)  DE(clash)    DE(int)     intcor
      9.10     -11.30       0.00        0.00      94.39       2.04       0.61       1.59       ----

> <Gold.Chemscore.Fitness>
9.0956

> <Gold.Chemscore.DG>
-11.2984

> <Gold.Chemscore.ZeroCoef>
-5.4800

> <Gold.Chemscore.Hbond>
0.0000

> <Gold.Chemscore.Metal>
0.0000

> <Gold.Chemscore.Lipo>
94.3940

> <Gold.Chemscore.Internal_Hbond>
0.0000

> <Gold.Chemscore.DEClash>
0.6144

> <Gold.Chemscore.DEInternal>
1.5884

> <Gold.Chemscore.Rot>
2.0413

> <Gold.Chemscore.Internal.Correction>
   9.000000E+99

> <Gold.Chemscore.Hbonds>
donor molecule, donor type, donor heavy atom, donor atom, acceptor molecule, acceptor atom, score
      P1  H  6934  6946       L1     2  0.04

> <Gold.Chemscore.Hbond.Weighted>
-0.0000

> <Gold.Chemscore.Metal.Weighted>
-0.0000

> <Gold.Chemscore.Lipo.Weighted>
-11.0441

> <Gold.Chemscore.Internal_Hbond.Weighted>
0.0000

> <Gold.Chemscore.DEClash.Weighted>
0.6144

> <Gold.Chemscore.DEInternal.Weighted>
1.5884

> <Gold.Chemscore.Rot.Weighted>
5.2257

> <Gold.Chemscore.Internal.Correction.Weighted>
   9.000000E+99

> <Gold.Protein.RotatedTorsions>
[ 6907 6896 6895 6894 ] final   15.91 input  -60.11 | X-H torsion
[ 7974 7965 7964 7962 ] final  162.79 input  175.53 | X-H torsion
[ 8008 7997 7996 7995 ] final  130.79 input   59.86 | X-H torsion
[ 10167 10162 10161 10158 ] final  -83.78 input  -65.29 | X-H torsion
[ 10718 10713 10712 10709 ] final  -75.10 input   66.30 | X-H torsion
[ 10763 10752 10751 10750 ] final -125.62 input  -60.55 | X-H torsion
[ 11005 11000 10999 10996 ] final  -62.51 input  -57.11 | X-H torsion

> <Gold.Protein.ActiveResidues>
 VAL166  LYS551  ARG553  GLY616  TRP617  ASP618  TYR619  PRO620  LYS621  CYS622 
 ASP623  PHE694  ASN695  SER759  ASP760  ASP761  ALA762  ILE779  LEU786  VAL792 
 PHE793  MET794  SER795  GLU796  ALA797  LYS798  CYS799  TRP800  GLU811  SER814 

> <Gold.Protein.RotatedAtoms>
  151.8255  135.0638  160.0430 H   0  0  0  0  0  0  0  0  0  0  0  0  # atno 6907 bound_to 6896
  152.2919  133.5565  159.5571 H   0  0  0  0  0  0  0  0  0  0  0  0  # atno 6908 bound_to 6896
  150.7234  134.0332  159.3783 H   0  0  0  0  0  0  0  0  0  0  0  0  # atno 6909 bound_to 6896
  144.7620  139.8089  143.6329 H   0  0  0  0  0  0  0  0  0  0  0  0  # atno 7974 bound_to 7965
  156.2960  140.2587  156.2819 H   0  0  0  0  0  0  0  0  0  0  0  0  # atno 8008 bound_to 7997
  154.9594  140.0393  157.2201 H   0  0  0  0  0  0  0  0  0  0  0  0  # atno 8009 bound_to 7997
  154.7961  140.2820  155.5960 H   0  0  0  0  0  0  0  0  0  0  0  0  # atno 8010 bound_to 7997
  140.4194  143.2590  151.8910 H   0  0  0  0  0  0  0  0  0  0  0  0  # atno 10167 bound_to 10162
  156.0219  130.4432  150.2991 H   0  0  0  0  0  0  0  0  0  0  0  0  # atno 10718 bound_to 10713
  154.8738  135.4023  154.3297 H   0  0  0  0  0  0  0  0  0  0  0  0  # atno 10763 bound_to 10752
  153.4113  135.7021  153.6363 H   0  0  0  0  0  0  0  0  0  0  0  0  # atno 10764 bound_to 10752
  153.5064  135.3716  155.2536 H   0  0  0  0  0  0  0  0  0  0  0  0  # atno 10765 bound_to 10752
  141.1362  133.6641  156.5538 H   0  0  0  0  0  0  0  0  0  0  0  0  # atno 11005 bound_to 11000
  146.1692  139.4836  142.9938 LP  0  0  0  0  0  0  0  0  0  0  0  0  # atno 17320 bound_to 7965
  145.6589  141.0245  143.1720 LP  0  0  0  0  0  0  0  0  0  0  0  0  # atno 17321 bound_to 7965
  139.4782  144.5453  151.8467 LP  0  0  0  0  0  0  0  0  0  0  0  0  # atno 17342 bound_to 10162
  140.4550  144.1802  150.5901 LP  0  0  0  0  0  0  0  0  0  0  0  0  # atno 17343 bound_to 10162
  157.1094  131.0217  151.3054 LP  0  0  0  0  0  0  0  0  0  0  0  0  # atno 17370 bound_to 10713
  157.4716  130.7712  149.7329 LP  0  0  0  0  0  0  0  0  0  0  0  0  # atno 17371 bound_to 10713
  140.4042  134.7329  157.4798 LP  0  0  0  0  0  0  0  0  0  0  0  0  # atno 17394 bound_to 11000
  140.0474  134.6180  155.8904 LP  0  0  0  0  0  0  0  0  0  0  0  0  # atno 17395 bound_to 11000

$$$$
