AV-unprocessed.smi:1073|AV-procd|sdf|4690|dock4
  -GOLD-   22720 3213D 1   1.00000     0.00000
 Structure written by MMmdl.
 44 44  0  0  0  0  0  0  0  0  1 V2000
  146.1611  138.1175  152.0032 C   0  0  0  0  0  0  0  0  0  0  0  0
  146.5972  136.8445  152.5556 N   0  0  0  0  0  0  0  0  0  0  0  0
  145.8395  135.7392  152.5957 C   0  0  0  0  0  0  0  0  0  0  0  0
  144.6836  135.7004  152.1709 O   0  0  0  0  0  0  0  0  0  0  0  0
  146.4850  134.4946  153.2293 C   0  0  1  0  0  0  0  0  0  0  0  0
  146.5278  133.3817  152.1549 C   0  0  0  0  0  0  0  0  0  0  0  0
  145.1537  132.8008  151.7471 C   0  0  0  0  0  0  0  0  0  0  0  0
  145.2606  131.2877  151.5039 C   0  0  0  0  0  0  0  0  0  0  0  0
  144.5585  133.5007  150.5140 C   0  0  0  0  0  0  0  0  0  0  0  0
  147.8529  134.7951  153.6524 N   0  0  0  0  0  0  0  0  0  0  0  0
  148.3830  134.4788  154.8440 C   0  0  0  0  0  0  0  0  0  0  0  0
  147.7502  133.9037  155.7307 O   0  0  0  0  0  0  0  0  0  0  0  0
  149.8463  134.8921  155.0569 C   0  0  0  0  0  0  0  0  0  0  0  0
  150.0143  135.9601  156.0569 N   0  0  0  0  0  0  0  0  0  0  0  0
  150.4094  137.2264  155.5823 C   0  0  0  0  0  0  0  0  0  0  0  0
  150.6058  138.2842  156.3927 C   0  0  0  0  0  0  0  0  0  0  0  0
  150.9751  139.6553  155.8480 C   0  0  0  0  0  0  0  0  0  0  0  0
  151.0805  140.5485  156.8321 F   0  0  0  0  0  0  0  0  0  0  0  0
  152.1483  139.5913  155.2198 F   0  0  0  0  0  0  0  0  0  0  0  0
  150.0623  140.0940  154.9802 F   0  0  0  0  0  0  0  0  0  0  0  0
  150.3552  138.0704  157.8044 C   0  0  0  0  0  0  0  0  0  0  0  0
  149.9653  136.8691  158.2736 C   0  0  0  0  0  0  0  0  0  0  0  0
  149.7765  135.7225  157.3818 C   0  0  0  0  0  0  0  0  0  0  0  0
  149.4250  134.6186  157.7990 O   0  0  0  0  0  0  0  0  0  0  0  0
  146.9711  138.8444  152.0603 H   0  0  0  0  0  0  0  0  0  0  0  0
  145.3101  138.5107  152.5606 H   0  0  0  0  0  0  0  0  0  0  0  0
  145.8732  138.0095  150.9567 H   0  0  0  0  0  0  0  0  0  0  0  0
  147.5360  136.7969  152.9245 H   0  0  0  0  0  0  0  0  0  0  0  0
  145.8889  134.1730  154.0850 H   0  0  0  0  0  0  0  0  0  0  0  0
  147.0225  133.7625  151.2595 H   0  0  0  0  0  0  0  0  0  0  0  0
  147.1565  132.5643  152.5136 H   0  0  0  0  0  0  0  0  0  0  0  0
  144.4571  132.9382  152.5746 H   0  0  0  0  0  0  0  0  0  0  0  0
  145.9411  131.0651  150.6813 H   0  0  0  0  0  0  0  0  0  0  0  0
  144.2891  130.8583  151.2571 H   0  0  0  0  0  0  0  0  0  0  0  0
  145.6303  130.7713  152.3903 H   0  0  0  0  0  0  0  0  0  0  0  0
  145.2336  133.4422  149.6597 H   0  0  0  0  0  0  0  0  0  0  0  0
  144.3530  134.5531  150.7087 H   0  0  0  0  0  0  0  0  0  0  0  0
  143.6137  133.0411  150.2223 H   0  0  0  0  0  0  0  0  0  0  0  0
  148.4368  135.2805  152.9869 H   0  0  0  0  0  0  0  0  0  0  0  0
  150.4286  134.0150  155.3454 H   0  0  0  0  0  0  0  0  0  0  0  0
  150.2556  135.2006  154.0940 H   0  0  0  0  0  0  0  0  0  0  0  0
  150.5342  137.2853  154.5108 H   0  0  0  0  0  0  0  0  0  0  0  0
  150.4843  138.8876  158.4988 H   0  0  0  0  0  0  0  0  0  0  0  0
  149.7878  136.7468  159.3320 H   0  0  0  0  0  0  0  0  0  0  0  0
  1  2  1  0  0  0  0
  1 25  1  0  0  0  0
  1 26  1  0  0  0  0
  1 27  1  0  0  0  0
  2  3  1  0  0  0  0
  2 28  1  0  0  0  0
  3  4  2  0  0  0  0
  3  5  1  0  0  0  0
  5  6  1  0  0  0  0
  5 10  1  0  0  0  0
  5 29  1  0  0  0  0
  6  7  1  0  0  0  0
  6 30  1  0  0  0  0
  6 31  1  0  0  0  0
  7  8  1  0  0  0  0
  7  9  1  0  0  0  0
  7 32  1  0  0  0  0
  8 33  1  0  0  0  0
  8 34  1  0  0  0  0
  8 35  1  0  0  0  0
  9 36  1  0  0  0  0
  9 37  1  0  0  0  0
  9 38  1  0  0  0  0
 10 11  1  0  0  0  0
 10 39  1  0  0  0  0
 11 12  2  0  0  0  0
 11 13  1  0  0  0  0
 13 14  1  0  0  0  0
 13 40  1  0  0  0  0
 13 41  1  0  0  0  0
 14 23  1  0  0  0  0
 14 15  1  0  0  0  0
 15 16  2  0  0  0  0
 15 42  1  0  0  0  0
 16 17  1  0  0  0  0
 16 21  1  0  0  0  0
 17 18  1  0  0  0  0
 17 19  1  0  0  0  0
 17 20  1  0  0  0  0
 21 22  2  0  0  0  0
 21 43  1  0  0  0  0
 22 23  1  0  0  0  0
 22 44  1  0  0  0  0
 23 24  2  0  0  0  0
M  END
> <s_m_source_file>
AV-unprocessed.smi

> <i_m_source_file_index>
1073

> <i_lp_mmshare_version>
43012

> <i_f3d_flags>
0

> <s_epik_input>
W0NIM11bTkhdQyg9TylbQ0BIXShbQ0gyXVtDSF0oW0NIM10pW0NIM10pW05IXUMoPU8pW0NIMl1uMVtjSF1jKEMoRikoRilGKVtjSF1bY0hdYzE9Tw==

> <s_epik_cmdline>
J2VwaWtfcHl0aG9uJywgJy1waCcsICc3LjAnLCAnLXRuJywgJzgnLCAnLW1hJywgJzIwMCcsICctbWV0YWxfYmluZGluZycsICctaW1hZScsICc8aW5maWxlLm1hZT4nLCAnLW9tYWUnLCAnPG91dGZpbGUubWFlPic=

> <r_lp_tautomer_probability>
1

> <r_epik_Ionization_Penalty>
7.02352e-08

> <r_epik_Ionization_Penalty_Charging>
1.57869e-08

> <r_epik_Ionization_Penalty_Neutral>
5.44484e-08

> <r_epik_State_Penalty>
-0

> <r_epik_Charging_Adjusted_Penalty>
1.57869e-08

> <i_epik_Tot_Q>
0

> <i_epik_Tot_abs_Q>
0

> <r_epik_Metal_State_Penalty>
-0

> <b_epik_Metal_Only>
0

> <s_lp_Force_Field>
OPLS_2005

> <r_lp_Energy>
17.6469

> <b_lp_Chiralities_Consistent>
1

> <s_lp_Variant>
AV-unprocessed.smi:1073-2

> <Gold.Version>
5.8.1

> <Gold.Id.Protein>
6NUR|6NUR_protein|mol2

> <Gold.PLP.Fitness>
40.2337

> <Gold.PLP.PLP>
-34.3862

> <Gold.PLP.part.hbond>
-2.7786

> <Gold.PLP.part.metal>
0.0000

> <Gold.PLP.part.buried>
-1.8368

> <Gold.PLP.part.nonpolar>
-29.7949

> <Gold.PLP.part.repulsive>
0.1767

> <Gold.PLP.ligand.clash>
0.0000

> <Gold.PLP.ligand.torsion>
0.8154

> <Gold.PLP.Chemscore.Hbond>
2.4320

> <Gold.PLP.Chemscore.CHOScore>
0.0000

> <Gold.PLP.Chemscore.Metal>
0.0000

> <Gold.Chemscore.Hbonds>
donor molecule, donor type, donor heavy atom, donor atom, acceptor molecule, acceptor atom, score
      L1  H     2    28       P1  7948  0.42
      L1  H    10    39       P1  7948  1.00
      P1  H  6896  6907       L1    24  0.98

> <Gold.PLP.Chemscore.Internal.Correction>
0.1822

> <Gold.Rescore>
     Score         DG    S(hbond)    S(metal)    S(lipo)     H(rot)  DE(clash)    DE(int)     intcor
      9.56     -14.08       2.36        0.00      61.20       2.51       0.71       3.81       ----

> <Gold.Chemscore.Fitness>
9.5550

> <Gold.Chemscore.DG>
-14.0836

> <Gold.Chemscore.ZeroCoef>
-5.4800

> <Gold.Chemscore.Hbond>
2.3596

> <Gold.Chemscore.Metal>
0.0000

> <Gold.Chemscore.Lipo>
61.2015

> <Gold.Chemscore.Internal_Hbond>
0.0000

> <Gold.Chemscore.DEClash>
0.7143

> <Gold.Chemscore.DEInternal>
3.8143

> <Gold.Chemscore.Rot>
2.5149

> <Gold.Chemscore.Internal.Correction>
   9.000000E+99

> <Gold.Chemscore.Hbonds>
donor molecule, donor type, donor heavy atom, donor atom, acceptor molecule, acceptor atom, score
      L1  H     2    28       P1  7948  0.40
      L1  H    10    39       P1  7948  0.87
      P1  H  6896  6907       L1    24  0.55

> <Gold.Chemscore.Hbond.Weighted>
-7.8811

> <Gold.Chemscore.Metal.Weighted>
-0.0000

> <Gold.Chemscore.Lipo.Weighted>
-7.1606

> <Gold.Chemscore.Internal_Hbond.Weighted>
0.0000

> <Gold.Chemscore.DEClash.Weighted>
0.7143

> <Gold.Chemscore.DEInternal.Weighted>
3.8143

> <Gold.Chemscore.Rot.Weighted>
6.4381

> <Gold.Chemscore.Internal.Correction.Weighted>
   9.000000E+99

> <Gold.Protein.RotatedTorsions>
[ 6907 6896 6895 6894 ] final  -98.43 input  -60.11 | X-H torsion
[ 7974 7965 7964 7962 ] final   95.67 input  175.53 | X-H torsion
[ 8008 7997 7996 7995 ] final   -4.61 input   59.86 | X-H torsion
[ 10167 10162 10161 10158 ] final -158.83 input  -65.29 | X-H torsion
[ 10718 10713 10712 10709 ] final  -30.98 input   66.30 | X-H torsion
[ 10763 10752 10751 10750 ] final  -90.74 input  -60.55 | X-H torsion
[ 11005 11000 10999 10996 ] final  144.15 input  -57.11 | X-H torsion

> <Gold.Protein.ActiveResidues>
 VAL166  LYS551  ARG553  GLY616  TRP617  ASP618  TYR619  PRO620  LYS621  CYS622 
 ASP623  PHE694  ASN695  SER759  ASP760  ASP761  ALA762  ILE779  LEU786  VAL792 
 PHE793  MET794  SER795  GLU796  ALA797  LYS798  CYS799  TRP800  GLU811  SER814 

> <Gold.Protein.RotatedAtoms>
  150.7046  134.1196  159.4029 H   0  0  0  0  0  0  0  0  0  0  0  0  # atno 6907 bound_to 6896
  151.9182  135.0307  160.0529 H   0  0  0  0  0  0  0  0  0  0  0  0  # atno 6908 bound_to 6896
  152.2278  133.4999  159.5235 H   0  0  0  0  0  0  0  0  0  0  0  0  # atno 6909 bound_to 6896
  145.4491  139.2295  143.3050 H   0  0  0  0  0  0  0  0  0  0  0  0  # atno 7974 bound_to 7965
  154.6125  140.2479  155.7650 H   0  0  0  0  0  0  0  0  0  0  0  0  # atno 8008 bound_to 7997
  156.2379  140.2943  156.0313 H   0  0  0  0  0  0  0  0  0  0  0  0  # atno 8009 bound_to 7997
  155.2028  140.0395  157.2911 H   0  0  0  0  0  0  0  0  0  0  0  0  # atno 8010 bound_to 7997
  139.6662  143.9825  152.2256 H   0  0  0  0  0  0  0  0  0  0  0  0  # atno 10167 bound_to 10162
  156.3930  130.4376  149.7380 H   0  0  0  0  0  0  0  0  0  0  0  0  # atno 10718 bound_to 10713
  154.6689  135.5293  153.8113 H   0  0  0  0  0  0  0  0  0  0  0  0  # atno 10763 bound_to 10752
  153.0489  135.6524  154.0755 H   0  0  0  0  0  0  0  0  0  0  0  0  # atno 10764 bound_to 10752
  154.0656  135.2958  155.3297 H   0  0  0  0  0  0  0  0  0  0  0  0  # atno 10765 bound_to 10752
  140.0610  134.9205  157.1183 H   0  0  0  0  0  0  0  0  0  0  0  0  # atno 11005 bound_to 11000
  146.2514  140.5248  142.8892 LP  0  0  0  0  0  0  0  0  0  0  0  0  # atno 17320 bound_to 7965
  144.8073  140.6322  143.6438 LP  0  0  0  0  0  0  0  0  0  0  0  0  # atno 17321 bound_to 7965
  139.9577  144.6578  150.8109 LP  0  0  0  0  0  0  0  0  0  0  0  0  # atno 17342 bound_to 10162
  140.7600  143.3141  151.2774 LP  0  0  0  0  0  0  0  0  0  0  0  0  # atno 17343 bound_to 10162
  156.4426  130.7868  151.2889 LP  0  0  0  0  0  0  0  0  0  0  0  0  # atno 17370 bound_to 10713
  157.7500  131.0120  150.3368 LP  0  0  0  0  0  0  0  0  0  0  0  0  # atno 17371 bound_to 10713
  140.3771  134.2328  155.7173 LP  0  0  0  0  0  0  0  0  0  0  0  0  # atno 17394 bound_to 11000
  141.1973  133.8063  157.0634 LP  0  0  0  0  0  0  0  0  0  0  0  0  # atno 17395 bound_to 11000

$$$$
