AV-unprocessed.smi:2636|AV-procd|sdf|10260|dock4
  -GOLD-   2272014273D 1   1.00000     0.00000
 Structure written by MMmdl.
 35 36  0  0  0  0  0  0  0  0  2 V2000
  149.8306  141.5965  155.9367 C   0  0  0  0  0  0  0  0  0  0  0  0
  150.4898  140.2318  155.8608 C   0  0  0  0  0  0  0  0  0  0  0  0
  151.5030  139.8647  156.6719 C   0  0  0  0  0  0  0  0  0  0  0  0
  152.1126  138.6016  156.5846 N   0  0  0  0  0  0  0  0  0  0  0  0
  153.1770  138.2668  157.5237 C   0  0  0  0  0  0  0  0  0  0  0  0
  153.6270  139.3942  158.2221 O   0  0  0  0  0  0  0  0  0  0  0  0
  152.8761  139.7885  159.3670 C   0  0  0  0  0  0  0  0  0  0  0  0
  153.7348  140.5188  160.3870 C   0  0  0  0  0  0  0  0  0  0  0  0
  153.7152  141.8272  160.7099 C   0  0  0  0  0  0  0  0  0  0  0  0
  152.8139  142.8875  160.2265 C   0  0  0  0  0  0  0  0  0  0  0  0
  152.4764  143.0401  158.8624 C   0  0  0  0  0  0  0  0  0  0  0  0
  151.6279  144.0847  158.4468 C   0  0  0  0  0  0  0  0  0  0  0  0
  151.1014  144.9840  159.3924 C   0  0  0  0  0  0  0  0  0  0  0  0
  151.4238  144.8354  160.7539 C   0  0  0  0  0  0  0  0  0  0  0  0
  152.2774  143.7940  161.1662 C   0  0  0  0  0  0  0  0  0  0  0  0
  151.6765  137.6883  155.6671 C   0  0  0  0  0  0  0  0  0  0  0  0
  152.2180  136.5834  155.6139 O   0  0  0  0  0  0  0  0  0  0  0  0
  150.6483  138.0386  154.8356 N   0  5  0  0  0  0  0  0  0  0  0  0
  150.0264  139.2534  154.8740 C   0  0  0  0  0  0  0  0  0  0  0  0
  149.1020  139.5441  154.1153 O   0  0  0  0  0  0  0  0  0  0  0  0
  150.2926  142.2132  156.7079 H   0  0  0  0  0  0  0  0  0  0  0  0
  148.7704  141.4956  156.1702 H   0  0  0  0  0  0  0  0  0  0  0  0
  149.9260  142.1188  154.9845 H   0  0  0  0  0  0  0  0  0  0  0  0
  151.9064  140.5148  157.4342 H   0  0  0  0  0  0  0  0  0  0  0  0
  152.7880  137.5410  158.2397 H   0  0  0  0  0  0  0  0  0  0  0  0
  154.0034  137.7894  156.9960 H   0  0  0  0  0  0  0  0  0  0  0  0
  152.0071  140.3650  159.0597 H   0  0  0  0  0  0  0  0  0  0  0  0
  152.4945  138.8840  159.8400 H   0  0  0  0  0  0  0  0  0  0  0  0
  154.4551  139.8915  160.8913 H   0  0  0  0  0  0  0  0  0  0  0  0
  154.4369  142.1532  161.4450 H   0  0  0  0  0  0  0  0  0  0  0  0
  152.8486  142.3474  158.1229 H   0  0  0  0  0  0  0  0  0  0  0  0
  151.3778  144.1924  157.4017 H   0  0  0  0  0  0  0  0  0  0  0  0
  150.4515  145.7854  159.0737 H   0  0  0  0  0  0  0  0  0  0  0  0
  151.0232  145.5248  161.4821 H   0  0  0  0  0  0  0  0  0  0  0  0
  152.5257  143.6969  162.2132 H   0  0  0  0  0  0  0  0  0  0  0  0
  1  2  1  0  0  0  0
  1 21  1  0  0  0  0
  1 22  1  0  0  0  0
  1 23  1  0  0  0  0
  2 19  1  0  0  0  0
  2  3  2  0  0  0  0
  3  4  1  0  0  0  0
  3 24  1  0  0  0  0
  4  5  1  0  0  0  0
  4 16  1  0  0  0  0
  5  6  1  0  0  0  0
  5 25  1  0  0  0  0
  5 26  1  0  0  0  0
  6  7  1  0  0  0  0
  7  8  1  0  0  0  0
  7 27  1  0  0  0  0
  7 28  1  0  0  0  0
  8  9  2  0  0  0  0
  8 29  1  0  0  0  0
  9 10  1  0  0  0  0
  9 30  1  0  0  0  0
 10 15  1  0  0  0  0
 10 11  2  0  0  0  0
 11 12  1  0  0  0  0
 11 31  1  0  0  0  0
 12 13  2  0  0  0  0
 12 32  1  0  0  0  0
 13 14  1  0  0  0  0
 13 33  1  0  0  0  0
 14 15  2  0  0  0  0
 14 34  1  0  0  0  0
 15 35  1  0  0  0  0
 16 17  2  0  0  0  0
 16 18  1  0  0  0  0
 18 19  1  0  0  0  0
 19 20  2  0  0  0  0
M  CHG  1  18  -1
M  END
> <s_m_source_file>
AV-unprocessed.smi

> <i_m_source_file_index>
2636

> <i_lp_mmshare_version>
43012

> <i_f3d_flags>
0

> <s_epik_input>
Tz1jMVtuSF1jKD1PKW4oW2NIXWMxW0NIM10pW0NIMl1PW0NIMl0vW0NIXT1bQ0hdL2MyW2NIXVtjSF1bY0hdW2NIXVtjSF0y

> <s_epik_cmdline>
J2VwaWtfcHl0aG9uJywgJy1waCcsICc3LjAnLCAnLXRuJywgJzgnLCAnLW1hJywgJzIwMCcsICctbWV0YWxfYmluZGluZycsICctaW1hZScsICc8aW5maWxlLm1hZT4nLCAnLW9tYWUnLCAnPG91dGZpbGUubWFlPic=

> <r_lp_tautomer_probability>
0.999537

> <r_epik_Ionization_Penalty>
3.43625

> <r_epik_Ionization_Penalty_Charging>
7.29021e-08

> <r_epik_Ionization_Penalty_Neutral>
3.43625

> <r_epik_State_Penalty>
3.43567

> <r_epik_Charging_Adjusted_Penalty>
3.43567

> <i_epik_Tot_Q>
-1

> <i_epik_Tot_abs_Q>
1

> <r_epik_Metal_State_Penalty>
0.168611

> <b_epik_Metal_Only>
1

> <s_epik_Chemistry_Notes>
This compound contains an acetal/aminal-like group ( X-CH(R)-Y where X, Y are N, S, or O) that may be acid/base labile, releasing an aldehyde.

> <s_lp_Force_Field>
OPLS_2005

> <r_lp_Energy>
10.6813

> <b_lp_Chiralities_Consistent>
1

> <s_lp_Variant>
AV-unprocessed.smi:2636-4

> <Gold.Version>
5.8.1

> <Gold.Id.Protein>
6NUR|6NUR_protein|mol2

> <Gold.PLP.Fitness>
51.0530

> <Gold.PLP.PLP>
-46.6665

> <Gold.PLP.part.hbond>
-1.9375

> <Gold.PLP.part.metal>
0.0000

> <Gold.PLP.part.buried>
-6.7287

> <Gold.PLP.part.nonpolar>
-40.9117

> <Gold.PLP.part.repulsive>
2.8152

> <Gold.PLP.ligand.clash>
0.0000

> <Gold.PLP.ligand.torsion>
0.8245

> <Gold.PLP.Chemscore.Hbond>
2.0000

> <Gold.PLP.Chemscore.CHOScore>
0.0000

> <Gold.PLP.Chemscore.Metal>
0.0000

> <Gold.Chemscore.Hbonds>
donor molecule, donor type, donor heavy atom, donor atom, acceptor molecule, acceptor atom, score
      P1  H  7997  8008       L1     6  0.80
      P1  H 10752 10764       L1    17  0.96

> <Gold.PLP.Chemscore.Internal.Correction>
0.0356

> <Gold.Rescore>
     Score         DG    S(hbond)    S(metal)    S(lipo)     H(rot)  DE(clash)    DE(int)     intcor
     19.94     -20.74       1.95        0.00     115.77       1.88       0.05       0.76       ----

> <Gold.Chemscore.Fitness>
19.9384

> <Gold.Chemscore.DG>
-20.7408

> <Gold.Chemscore.ZeroCoef>
-5.4800

> <Gold.Chemscore.Hbond>
1.9548

> <Gold.Chemscore.Metal>
0.0000

> <Gold.Chemscore.Lipo>
115.7664

> <Gold.Chemscore.Internal_Hbond>
0.0000

> <Gold.Chemscore.DEClash>
0.0462

> <Gold.Chemscore.DEInternal>
0.7562

> <Gold.Chemscore.Rot>
1.8800

> <Gold.Chemscore.Internal.Correction>
   9.000000E+99

> <Gold.Chemscore.Hbonds>
donor molecule, donor type, donor heavy atom, donor atom, acceptor molecule, acceptor atom, score
      P1  H  7997  8008       L1     6  0.12
      P1  H 10752 10764       L1    17  0.88

> <Gold.Chemscore.Hbond.Weighted>
-6.5290

> <Gold.Chemscore.Metal.Weighted>
-0.0000

> <Gold.Chemscore.Lipo.Weighted>
-13.5447

> <Gold.Chemscore.Internal_Hbond.Weighted>
0.0000

> <Gold.Chemscore.DEClash.Weighted>
0.0462

> <Gold.Chemscore.DEInternal.Weighted>
0.7562

> <Gold.Chemscore.Rot.Weighted>
4.8129

> <Gold.Chemscore.Internal.Correction.Weighted>
   9.000000E+99

> <Gold.Protein.RotatedTorsions>
[ 6907 6896 6895 6894 ] final  134.96 input  -60.11 | X-H torsion
[ 7974 7965 7964 7962 ] final  -32.89 input  175.53 | X-H torsion
[ 8008 7997 7996 7995 ] final  -78.53 input   59.86 | X-H torsion
[ 10167 10162 10161 10158 ] final  -26.40 input  -65.29 | X-H torsion
[ 10718 10713 10712 10709 ] final -164.47 input   66.30 | X-H torsion
[ 10763 10752 10751 10750 ] final  -54.68 input  -60.55 | X-H torsion
[ 11005 11000 10999 10996 ] final   91.31 input  -57.11 | X-H torsion

> <Gold.Protein.ActiveResidues>
 VAL166  LYS551  ARG553  GLY616  TRP617  ASP618  TYR619  PRO620  LYS621  CYS622 
 ASP623  PHE694  ASN695  SER759  ASP760  ASP761  ALA762  ILE779  LEU786  VAL792 
 PHE793  MET794  SER795  GLU796  ALA797  LYS798  CYS799  TRP800  GLU811  SER814 

> <Gold.Protein.RotatedAtoms>
  152.3057  133.5700  159.5647 H   0  0  0  0  0  0  0  0  0  0  0  0  # atno 6907 bound_to 6896
  150.7298  134.0227  159.3715 H   0  0  0  0  0  0  0  0  0  0  0  0  # atno 6908 bound_to 6896
  151.8123  135.0677  160.0465 H   0  0  0  0  0  0  0  0  0  0  0  0  # atno 6909 bound_to 6896
  146.0954  140.5848  142.8845 H   0  0  0  0  0  0  0  0  0  0  0  0  # atno 7974 bound_to 7965
  154.5698  140.0693  156.8947 H   0  0  0  0  0  0  0  0  0  0  0  0  # atno 8008 bound_to 7997
  155.2655  140.3361  155.4251 H   0  0  0  0  0  0  0  0  0  0  0  0  # atno 8009 bound_to 7997
  156.2109  140.1759  156.7682 H   0  0  0  0  0  0  0  0  0  0  0  0  # atno 8010 bound_to 7997
  140.7283  143.4182  151.0995 H   0  0  0  0  0  0  0  0  0  0  0  0  # atno 10167 bound_to 10162
  156.6395  130.8963  151.2993 H   0  0  0  0  0  0  0  0  0  0  0  0  # atno 10718 bound_to 10713
  154.1787  135.6447  153.5028 H   0  0  0  0  0  0  0  0  0  0  0  0  # atno 10763 bound_to 10752
  153.0065  135.5401  154.6537 H   0  0  0  0  0  0  0  0  0  0  0  0  # atno 10764 bound_to 10752
  154.5895  135.2933  155.0622 H   0  0  0  0  0  0  0  0  0  0  0  0  # atno 10765 bound_to 10752
  139.8841  134.8667  156.3410 H   0  0  0  0  0  0  0  0  0  0  0  0  # atno 11005 bound_to 11000
  144.7391  140.4893  143.6882 LP  0  0  0  0  0  0  0  0  0  0  0  0  # atno 17320 bound_to 7965
  145.5958  139.1499  143.3157 LP  0  0  0  0  0  0  0  0  0  0  0  0  # atno 17321 bound_to 7965
  139.7824  143.8336  152.3139 LP  0  0  0  0  0  0  0  0  0  0  0  0  # atno 17342 bound_to 10162
  139.8292  144.7261  150.9472 LP  0  0  0  0  0  0  0  0  0  0  0  0  # atno 17343 bound_to 10162
  157.7175  130.9516  150.1311 LP  0  0  0  0  0  0  0  0  0  0  0  0  # atno 17370 bound_to 10713
  156.2170  130.3671  149.8601 LP  0  0  0  0  0  0  0  0  0  0  0  0  # atno 17371 bound_to 10713
  140.9658  133.7359  156.0465 LP  0  0  0  0  0  0  0  0  0  0  0  0  # atno 17394 bound_to 11000
  140.7932  134.3593  157.5459 LP  0  0  0  0  0  0  0  0  0  0  0  0  # atno 17395 bound_to 11000

$$$$
