AV-unprocessed.smi:1222|AV-procd|sdf|5122|dock7
  -GOLD-   22720 4183D 1   1.00000     0.00000
 Structure written by MMmdl.
 36 38  0  0  0  0  0  0  0  0  1 V2000
  146.6259  137.1400  153.1901 O   0  0  0  0  0  0  0  0  0  0  0  0
  145.8305  138.0308  152.8888 C   0  0  0  0  0  0  0  0  0  0  0  0
  145.9914  139.3390  153.1535 N   0  0  0  0  0  0  0  0  0  0  0  0
  147.0752  139.9740  153.8148 C   0  0  0  0  0  0  0  0  0  0  0  0
  147.1618  141.2924  154.0274 N   0  0  0  0  0  0  0  0  0  0  0  0
  148.3354  141.6388  154.7014 C   0  0  0  0  0  0  0  0  0  0  0  0
  149.1371  140.5638  154.9958 C   0  0  0  0  0  0  0  0  0  0  0  0
  148.4453  139.0650  154.4354 S   0  0  0  0  0  0  0  0  0  0  0  0
  144.6777  137.8055  152.2420 N   0  0  0  0  0  0  0  0  0  0  0  0
  144.2014  136.4966  151.8048 C   0  0  0  0  0  0  0  0  0  0  0  0
  143.9675  135.5645  153.0071 C   0  0  0  0  0  0  0  0  0  0  0  0
  143.6140  134.1418  152.5412 C   0  0  0  0  0  0  0  0  0  0  0  0
  144.6851  133.6048  151.7020 N   0  0  0  0  0  0  0  0  0  0  0  0
  144.3451  132.2438  151.3203 C   0  0  0  0  0  0  0  0  0  0  0  0
  145.1473  131.1226  151.9406 C   0  0  0  0  0  0  0  0  0  0  0  0
  145.3493  131.4797  150.4880 C   0  0  0  0  0  0  0  0  0  0  0  0
  144.8219  134.4166  150.4925 C   0  0  0  0  0  0  0  0  0  0  0  0
  145.2301  135.8541  150.8607 C   0  0  0  0  0  0  0  0  0  0  0  0
  145.2525  139.9530  152.8447 H   0  0  0  0  0  0  0  0  0  0  0  0
  148.5209  142.6774  154.9321 H   0  0  0  0  0  0  0  0  0  0  0  0
  150.0886  140.5634  155.5063 H   0  0  0  0  0  0  0  0  0  0  0  0
  144.0852  138.5962  152.0354 H   0  0  0  0  0  0  0  0  0  0  0  0
  143.2633  136.6184  151.2595 H   0  0  0  0  0  0  0  0  0  0  0  0
  144.8610  135.5285  153.6324 H   0  0  0  0  0  0  0  0  0  0  0  0
  143.1655  135.9524  153.6360 H   0  0  0  0  0  0  0  0  0  0  0  0
  143.4764  133.4998  153.4120 H   0  0  0  0  0  0  0  0  0  0  0  0
  142.6699  134.1449  151.9936 H   0  0  0  0  0  0  0  0  0  0  0  0
  143.3011  132.0077  151.1207 H   0  0  0  0  0  0  0  0  0  0  0  0
  145.9402  131.3879  152.6378 H   0  0  0  0  0  0  0  0  0  0  0  0
  144.6226  130.1957  152.1632 H   0  0  0  0  0  0  0  0  0  0  0  0
  144.9610  130.7890  149.7423 H   0  0  0  0  0  0  0  0  0  0  0  0
  146.2774  131.9815  150.2201 H   0  0  0  0  0  0  0  0  0  0  0  0
  145.5811  133.9787  149.8438 H   0  0  0  0  0  0  0  0  0  0  0  0
  143.8854  134.4203  149.9321 H   0  0  0  0  0  0  0  0  0  0  0  0
  145.3302  136.4517  149.9540 H   0  0  0  0  0  0  0  0  0  0  0  0
  146.2142  135.8391  151.3319 H   0  0  0  0  0  0  0  0  0  0  0  0
  1  2  2  0  0  0  0
  2  3  1  0  0  0  0
  2  9  1  0  0  0  0
  3  4  1  0  0  0  0
  3 19  1  0  0  0  0
  4  8  1  0  0  0  0
  4  5  2  0  0  0  0
  5  6  1  0  0  0  0
  6  7  2  0  0  0  0
  6 20  1  0  0  0  0
  7  8  1  0  0  0  0
  7 21  1  0  0  0  0
  9 10  1  0  0  0  0
  9 22  1  0  0  0  0
 10 18  1  0  0  0  0
 10 11  1  0  0  0  0
 10 23  1  0  0  0  0
 11 12  1  0  0  0  0
 11 24  1  0  0  0  0
 11 25  1  0  0  0  0
 12 13  1  0  0  0  0
 12 26  1  0  0  0  0
 12 27  1  0  0  0  0
 13 14  1  0  0  0  0
 13 17  1  0  0  0  0
 14 16  1  0  0  0  0
 14 15  1  0  0  0  0
 14 28  1  0  0  0  0
 15 16  1  0  0  0  0
 15 29  1  0  0  0  0
 15 30  1  0  0  0  0
 16 31  1  0  0  0  0
 16 32  1  0  0  0  0
 17 18  1  0  0  0  0
 17 33  1  0  0  0  0
 17 34  1  0  0  0  0
 18 35  1  0  0  0  0
 18 36  1  0  0  0  0
M  END
> <s_m_source_file>
AV-unprocessed.smi

> <i_m_source_file_index>
1222

> <i_lp_mmshare_version>
43012

> <i_f3d_flags>
0

> <s_epik_input>
czFbY0hdW2NIXW5jMVtOSF1DKD1PKVtOSF1bQ0hdMltDSDJdW0NIMl1OKFtDSDJdW0NIMl0yKVtDSF0zW0NIMl1bQ0gyXTM=

> <s_epik_cmdline>
J2VwaWtfcHl0aG9uJywgJy1waCcsICc3LjAnLCAnLXRuJywgJzgnLCAnLW1hJywgJzIwMCcsICctbWV0YWxfYmluZGluZycsICctaW1hZScsICc8aW5maWxlLm1hZT4nLCAnLW9tYWUnLCAnPG91dGZpbGUubWFlPic=

> <r_lp_tautomer_probability>
0.999

> <r_epik_Ionization_Penalty>
0.985554

> <r_epik_Ionization_Penalty_Charging>
0

> <r_epik_Ionization_Penalty_Neutral>
0.985554

> <r_epik_State_Penalty>
1.03262

> <r_epik_Charging_Adjusted_Penalty>
1.03262

> <i_epik_Tot_Q>
0

> <i_epik_Tot_abs_Q>
0

> <r_epik_Metal_State_Penalty>
1.07929

> <b_epik_Metal_Only>
0

> <s_lp_Force_Field>
OPLS_2005

> <r_lp_Energy>
20.1195

> <b_lp_Chiralities_Consistent>
1

> <s_lp_Variant>
AV-unprocessed.smi:1222-3

> <Gold.Version>
5.8.1

> <Gold.Id.Protein>
6NUR|6NUR_protein|mol2

> <Gold.PLP.Fitness>
38.1988

> <Gold.PLP.PLP>
-29.4524

> <Gold.PLP.part.hbond>
-3.0000

> <Gold.PLP.part.metal>
0.0000

> <Gold.PLP.part.buried>
-2.3014

> <Gold.PLP.part.nonpolar>
-27.0006

> <Gold.PLP.part.repulsive>
3.3462

> <Gold.PLP.ligand.clash>
0.0000

> <Gold.PLP.ligand.torsion>
0.6991

> <Gold.PLP.Chemscore.Hbond>
1.9920

> <Gold.PLP.Chemscore.CHOScore>
1.0000

> <Gold.PLP.Chemscore.Metal>
0.0000

> <Gold.Chemscore.Hbonds>
donor molecule, donor type, donor heavy atom, donor atom, acceptor molecule, acceptor atom, score
      L1  H     3    19       P1 10175  1.00
      L1  H     9    22       P1 10175  0.94
      L1  C     6    20       P1  8028  1.00

> <Gold.PLP.Chemscore.Internal.Correction>
1.1686

> <Gold.Rescore>
     Score         DG    S(hbond)    S(metal)    S(lipo)     H(rot)  DE(clash)    DE(int)     intcor
     13.35     -16.90       1.95        0.00      69.09       1.25       0.49       3.06       ----

> <Gold.Chemscore.Fitness>
13.3502

> <Gold.Chemscore.DG>
-16.8984

> <Gold.Chemscore.ZeroCoef>
-5.4800

> <Gold.Chemscore.Hbond>
1.9529

> <Gold.Chemscore.Metal>
0.0000

> <Gold.Chemscore.Lipo>
69.0873

> <Gold.Chemscore.Internal_Hbond>
0.0000

> <Gold.Chemscore.DEClash>
0.4898

> <Gold.Chemscore.DEInternal>
3.0584

> <Gold.Chemscore.Rot>
1.2451

> <Gold.Chemscore.Internal.Correction>
   9.000000E+99

> <Gold.Chemscore.Hbonds>
donor molecule, donor type, donor heavy atom, donor atom, acceptor molecule, acceptor atom, score
      L1  H     3    19       P1 10175  0.99
      L1  H     9    22       P1 10175  0.90

> <Gold.Chemscore.Hbond.Weighted>
-6.5226

> <Gold.Chemscore.Metal.Weighted>
-0.0000

> <Gold.Chemscore.Lipo.Weighted>
-8.0832

> <Gold.Chemscore.Internal_Hbond.Weighted>
0.0000

> <Gold.Chemscore.DEClash.Weighted>
0.4898

> <Gold.Chemscore.DEInternal.Weighted>
3.0584

> <Gold.Chemscore.Rot.Weighted>
3.1874

> <Gold.Chemscore.Internal.Correction.Weighted>
   9.000000E+99

> <Gold.Protein.RotatedTorsions>
[ 6907 6896 6895 6894 ] final   89.16 input  -60.11 | X-H torsion
[ 7974 7965 7964 7962 ] final   90.36 input  175.53 | X-H torsion
[ 8008 7997 7996 7995 ] final -179.73 input   59.86 | X-H torsion
[ 10167 10162 10161 10158 ] final   82.41 input  -65.29 | X-H torsion
[ 10718 10713 10712 10709 ] final   72.08 input   66.30 | X-H torsion
[ 10763 10752 10751 10750 ] final  -75.52 input  -60.55 | X-H torsion
[ 11005 11000 10999 10996 ] final -145.03 input  -57.11 | X-H torsion

> <Gold.Protein.ActiveResidues>
 VAL166  LYS551  ARG553  GLY616  TRP617  ASP618  TYR619  PRO620  LYS621  CYS622 
 ASP623  PHE694  ASN695  SER759  ASP760  ASP761  ALA762  ILE779  LEU786  VAL792 
 PHE793  MET794  SER795  GLU796  ALA797  LYS798  CYS799  TRP800  GLU811  SER814 

> <Gold.Protein.RotatedAtoms>
  152.5433  134.2009  159.8711 H   0  0  0  0  0  0  0  0  0  0  0  0  # atno 6907 bound_to 6896
  151.1998  133.4610  159.2603 H   0  0  0  0  0  0  0  0  0  0  0  0  # atno 6908 bound_to 6896
  151.1000  134.9979  159.8500 H   0  0  0  0  0  0  0  0  0  0  0  0  # atno 6909 bound_to 6896
  145.5200  139.2279  143.2677 H   0  0  0  0  0  0  0  0  0  0  0  0  # atno 7974 bound_to 7965
  156.0339  140.1288  157.0228 H   0  0  0  0  0  0  0  0  0  0  0  0  # atno 8008 bound_to 7997
  154.4362  140.1044  156.6210 H   0  0  0  0  0  0  0  0  0  0  0  0  # atno 8009 bound_to 7997
  155.5766  140.3467  155.4531 H   0  0  0  0  0  0  0  0  0  0  0  0  # atno 8010 bound_to 7997
  139.9291  144.6164  150.8363 H   0  0  0  0  0  0  0  0  0  0  0  0  # atno 10167 bound_to 10162
  157.6484  130.9561  150.0879 H   0  0  0  0  0  0  0  0  0  0  0  0  # atno 10718 bound_to 10713
  154.4876  135.5828  153.6435 H   0  0  0  0  0  0  0  0  0  0  0  0  # atno 10763 bound_to 10752
  152.9857  135.6105  154.3166 H   0  0  0  0  0  0  0  0  0  0  0  0  # atno 10764 bound_to 10752
  154.3063  135.2846  155.2566 H   0  0  0  0  0  0  0  0  0  0  0  0  # atno 10765 bound_to 10752
  140.7964  134.2908  157.4995 H   0  0  0  0  0  0  0  0  0  0  0  0  # atno 11005 bound_to 11000
  146.2112  140.6012  142.9059 LP  0  0  0  0  0  0  0  0  0  0  0  0  # atno 17320 bound_to 7965
  144.7681  140.5576  143.6689 LP  0  0  0  0  0  0  0  0  0  0  0  0  # atno 17321 bound_to 7965
  140.7642  143.3243  151.2551 LP  0  0  0  0  0  0  0  0  0  0  0  0  # atno 17342 bound_to 10162
  139.6797  143.9875  152.2802 LP  0  0  0  0  0  0  0  0  0  0  0  0  # atno 17343 bound_to 10162
  156.1837  130.3651  149.9002 LP  0  0  0  0  0  0  0  0  0  0  0  0  # atno 17370 bound_to 10713
  156.6947  130.8910  151.3592 LP  0  0  0  0  0  0  0  0  0  0  0  0  # atno 17371 bound_to 10713
  139.8726  134.9404  156.3768 LP  0  0  0  0  0  0  0  0  0  0  0  0  # atno 17394 bound_to 11000
  140.9339  133.7560  156.0059 LP  0  0  0  0  0  0  0  0  0  0  0  0  # atno 17395 bound_to 11000

$$$$
