AV-unprocessed.smi:193|AV-procd|sdf|1516|dock4
  -GOLD-   2262019353D 1   1.00000     0.00000
 Structure written by MMmdl.
 61 65  0  0  0  0  0  0  0  0  1 V2000
  153.1722  138.7012  158.1019 C   0  0  0  0  0  0  0  0  0  0  0  0
  152.0778  139.7023  157.7046 C   0  0  2  0  0  0  0  0  0  0  0  0
  152.0629  139.9124  156.1757 C   0  0  0  0  0  0  0  0  0  0  0  0
  150.7413  140.3359  155.7065 N   0  0  0  0  0  0  0  0  0  0  0  0
  149.7853  139.3820  155.5092 C   0  0  0  0  0  0  0  0  0  0  0  0
  150.0194  138.1446  156.0221 N   0  0  0  0  0  0  0  0  0  0  0  0
  149.1357  137.1564  155.8658 C   0  0  0  0  0  0  0  0  0  0  0  0
  147.9620  137.1822  155.2366 N   0  0  0  0  0  0  0  0  0  0  0  0
  147.7091  138.4158  154.7159 C   0  0  0  0  0  0  0  0  0  0  0  0
  148.5526  139.5632  154.8054 C   0  0  0  0  0  0  0  0  0  0  0  0
  147.9321  140.6343  154.1684 N   0  0  0  0  0  0  0  0  0  0  0  0
  146.8050  140.1505  153.7270 C   0  0  0  0  0  0  0  0  0  0  0  0
  146.5954  138.8198  154.0000 N   0  0  0  0  0  0  0  0  0  0  0  0
  145.4329  138.0270  153.6286 C   0  0  0  0  0  0  0  0  0  0  0  0
  145.7520  136.8194  152.7038 C   0  0  0  0  0  0  0  0  0  0  0  0
  146.7072  137.2483  151.7516 O   0  0  0  0  0  0  0  0  0  0  0  0
  146.3775  135.6522  153.4925 C   0  0  0  0  0  0  0  0  0  0  0  0
  145.3250  134.9119  154.3388 C   0  0  0  0  0  0  0  0  0  0  0  0
  144.2576  134.4626  153.5103 O   0  0  0  0  0  0  0  0  0  0  0  0
  143.5685  135.5229  152.8562 C   0  0  0  0  0  0  0  0  0  0  0  0
  144.5341  136.2771  151.9257 C   0  0  0  0  0  0  0  0  0  0  0  0
  150.3710  141.7206  155.9712 C   0  0  0  0  0  0  0  0  0  0  0  0
  150.2857  142.0342  157.4757 C   0  0  0  0  0  0  0  0  0  0  0  0
  151.6400  142.2238  157.9858 N   0  0  0  0  0  0  0  0  0  0  0  0
  151.6489  143.2477  159.0220 C   0  0  2  0  0  0  0  0  0  0  0  0
  150.7960  144.4771  158.8006 C   0  0  0  0  0  0  0  0  0  0  0  0
  152.3001  144.5868  158.7247 C   0  0  2  0  0  0  0  0  0  0  0  0
  152.9736  144.9016  157.4025 C   0  0  0  0  0  0  0  0  0  0  0  0
  152.2298  141.0006  158.5399 C   0  0  0  0  0  0  0  0  0  0  0  0
  154.1635  139.0720  157.8385 H   0  0  0  0  0  0  0  0  0  0  0  0
  153.0308  137.7438  157.5997 H   0  0  0  0  0  0  0  0  0  0  0  0
  153.1603  138.5120  159.1757 H   0  0  0  0  0  0  0  0  0  0  0  0
  151.1303  139.2389  157.9843 H   0  0  0  0  0  0  0  0  0  0  0  0
  152.8035  140.6628  155.8954 H   0  0  0  0  0  0  0  0  0  0  0  0
  152.3775  139.0020  155.6660 H   0  0  0  0  0  0  0  0  0  0  0  0
  149.4094  136.2091  156.3066 H   0  0  0  0  0  0  0  0  0  0  0  0
  146.0943  140.7539  153.1813 H   0  0  0  0  0  0  0  0  0  0  0  0
  144.9533  137.6797  154.5447 H   0  0  0  0  0  0  0  0  0  0  0  0
  144.7155  138.6976  153.1567 H   0  0  0  0  0  0  0  0  0  0  0  0
  147.3936  136.6010  151.7003 H   0  0  0  0  0  0  0  0  0  0  0  0
  146.8222  134.9364  152.7992 H   0  0  0  0  0  0  0  0  0  0  0  0
  147.1904  136.0079  154.1269 H   0  0  0  0  0  0  0  0  0  0  0  0
  145.7794  134.0462  154.8204 H   0  0  0  0  0  0  0  0  0  0  0  0
  144.9381  135.5452  155.1377 H   0  0  0  0  0  0  0  0  0  0  0  0
  142.7486  135.0991  152.2762 H   0  0  0  0  0  0  0  0  0  0  0  0
  143.1204  136.1919  153.5917 H   0  0  0  0  0  0  0  0  0  0  0  0
  144.0116  137.0717  151.3940 H   0  0  0  0  0  0  0  0  0  0  0  0
  144.8739  135.5816  151.1566 H   0  0  0  0  0  0  0  0  0  0  0  0
  151.1046  142.3741  155.4972 H   0  0  0  0  0  0  0  0  0  0  0  0
  149.4297  141.9574  155.4771 H   0  0  0  0  0  0  0  0  0  0  0  0
  149.7294  142.9669  157.5762 H   0  0  0  0  0  0  0  0  0  0  0  0
  149.7343  141.2831  158.0427 H   0  0  0  0  0  0  0  0  0  0  0  0
  151.7146  142.9232  160.0593 H   0  0  0  0  0  0  0  0  0  0  0  0
  150.2352  144.5451  157.8700 H   0  0  0  0  0  0  0  0  0  0  0  0
  150.3055  144.9104  159.6700 H   0  0  0  0  0  0  0  0  0  0  0  0
  152.7839  145.0657  159.5739 H   0  0  0  0  0  0  0  0  0  0  0  0
  152.4408  144.4430  156.5690 H   0  0  0  0  0  0  0  0  0  0  0  0
  153.9989  144.5321  157.4072 H   0  0  0  0  0  0  0  0  0  0  0  0
  152.9953  145.9797  157.2440 H   0  0  0  0  0  0  0  0  0  0  0  0
  151.8127  140.8135  159.5308 H   0  0  0  0  0  0  0  0  0  0  0  0
  153.2898  141.2040  158.6948 H   0  0  0  0  0  0  0  0  0  0  0  0
  1  2  1  0  0  0  0
  1 30  1  0  0  0  0
  1 31  1  0  0  0  0
  1 32  1  0  0  0  0
  2 29  1  0  0  0  0
  2  3  1  0  0  0  0
  2 33  1  0  0  0  0
  3  4  1  0  0  0  0
  3 34  1  0  0  0  0
  3 35  1  0  0  0  0
  4  5  1  0  0  0  0
  4 22  1  0  0  0  0
  5 10  1  0  0  0  0
  5  6  2  0  0  0  0
  6  7  1  0  0  0  0
  7  8  2  0  0  0  0
  7 36  1  0  0  0  0
  8  9  1  0  0  0  0
  9 13  1  0  0  0  0
  9 10  2  0  0  0  0
 10 11  1  0  0  0  0
 11 12  2  0  0  0  0
 12 13  1  0  0  0  0
 12 37  1  0  0  0  0
 13 14  1  0  0  0  0
 14 15  1  0  0  0  0
 14 38  1  0  0  0  0
 14 39  1  0  0  0  0
 15 21  1  0  0  0  0
 15 16  1  0  0  0  0
 15 17  1  0  0  0  0
 16 40  1  0  0  0  0
 17 18  1  0  0  0  0
 17 41  1  0  0  0  0
 17 42  1  0  0  0  0
 18 19  1  0  0  0  0
 18 43  1  0  0  0  0
 18 44  1  0  0  0  0
 19 20  1  0  0  0  0
 20 21  1  0  0  0  0
 20 45  1  0  0  0  0
 20 46  1  0  0  0  0
 21 47  1  0  0  0  0
 21 48  1  0  0  0  0
 22 23  1  0  0  0  0
 22 49  1  0  0  0  0
 22 50  1  0  0  0  0
 23 24  1  0  0  0  0
 23 51  1  0  0  0  0
 23 52  1  0  0  0  0
 24 25  1  0  0  0  0
 24 29  1  0  0  0  0
 25 27  1  0  0  0  0
 25 26  1  0  0  0  0
 25 53  1  0  0  0  0
 26 27  1  0  0  0  0
 26 54  1  0  0  0  0
 26 55  1  0  0  0  0
 27 28  1  0  0  0  0
 27 56  1  0  0  0  0
 28 57  1  0  0  0  0
 28 58  1  0  0  0  0
 28 59  1  0  0  0  0
 29 60  1  0  0  0  0
 29 61  1  0  0  0  0
M  END
> <s_m_source_file>
AV-unprocessed.smi

> <i_m_source_file_index>
193

> <i_lp_mmshare_version>
43012

> <i_f3d_flags>
0

> <s_epik_input>
W0NIM11bQ0BASF0xW0NIMl1bQ0BIXTFOKFtDSDJdMilbQ0gyXVtDSDJdTihbQ0gyXVtDQEhdMltDSDNdKWMobltjSF1uMyljKGMzNCluW2NIXW40W0NIMl1DNShbT0hdKVtDSDJdW0NIMl1PW0NIMl1bQ0gyXTU=

> <s_epik_cmdline>
J2VwaWtfcHl0aG9uJywgJy1waCcsICc3LjAnLCAnLXRuJywgJzgnLCAnLW1hJywgJzIwMCcsICctbWV0YWxfYmluZGluZycsICctaW1hZScsICc8aW5maWxlLm1hZT4nLCAnLW9tYWUnLCAnPG91dGZpbGUubWFlPic=

> <r_lp_tautomer_probability>
1

> <r_epik_Ionization_Penalty>
1.45227

> <r_epik_Ionization_Penalty_Charging>
0

> <r_epik_Ionization_Penalty_Neutral>
1.45227

> <r_epik_State_Penalty>
2.02377

> <r_epik_Charging_Adjusted_Penalty>
2.02377

> <i_epik_Tot_Q>
0

> <i_epik_Tot_abs_Q>
0

> <r_epik_Metal_State_Penalty>
2.01937

> <b_epik_Metal_Only>
0

> <s_lp_Force_Field>
OPLS_2005

> <r_lp_Energy>
54.596

> <b_lp_Chiralities_Consistent>
1

> <s_lp_Variant>
AV-unprocessed.smi:193-21

> <Gold.Version>
5.8.1

> <Gold.Id.Protein>
6NUR|6NUR_protein|mol2

> <Gold.PLP.Fitness>
42.1699

> <Gold.PLP.PLP>
-37.6975

> <Gold.PLP.part.hbond>
-0.7072

> <Gold.PLP.part.metal>
0.0000

> <Gold.PLP.part.buried>
-4.6674

> <Gold.PLP.part.nonpolar>
-33.0851

> <Gold.PLP.part.repulsive>
0.3304

> <Gold.PLP.ligand.clash>
0.0000

> <Gold.PLP.ligand.torsion>
1.4256

> <Gold.PLP.Chemscore.Hbond>
0.9920

> <Gold.PLP.Chemscore.CHOScore>
1.0000

> <Gold.PLP.Chemscore.Metal>
0.0000

> <Gold.Chemscore.Hbonds>
donor molecule, donor type, donor heavy atom, donor atom, acceptor molecule, acceptor atom, score
      L1  H    16    40       P1  7948  0.99
      L1  C    12    37       P1 10175  1.00

> <Gold.PLP.Chemscore.Internal.Correction>
1.3477

> <Gold.Rescore>
     Score         DG    S(hbond)    S(metal)    S(lipo)     H(rot)  DE(clash)    DE(int)     intcor
     13.53     -16.13       0.96        0.00     105.31       1.91       0.13       2.47       ----

> <Gold.Chemscore.Fitness>
13.5278

> <Gold.Chemscore.DG>
-16.1327

> <Gold.Chemscore.ZeroCoef>
-5.4800

> <Gold.Chemscore.Hbond>
0.9621

> <Gold.Chemscore.Metal>
0.0000

> <Gold.Chemscore.Lipo>
105.3064

> <Gold.Chemscore.Internal_Hbond>
0.0000

> <Gold.Chemscore.DEClash>
0.1341

> <Gold.Chemscore.DEInternal>
2.4708

> <Gold.Chemscore.Rot>
1.9068

> <Gold.Chemscore.Internal.Correction>
   9.000000E+99

> <Gold.Chemscore.Hbonds>
donor molecule, donor type, donor heavy atom, donor atom, acceptor molecule, acceptor atom, score
      L1  H    16    40       P1  7948  0.91

> <Gold.Chemscore.Hbond.Weighted>
-3.2133

> <Gold.Chemscore.Metal.Weighted>
-0.0000

> <Gold.Chemscore.Lipo.Weighted>
-12.3208

> <Gold.Chemscore.Internal_Hbond.Weighted>
0.0000

> <Gold.Chemscore.DEClash.Weighted>
0.1341

> <Gold.Chemscore.DEInternal.Weighted>
2.4708

> <Gold.Chemscore.Rot.Weighted>
4.8814

> <Gold.Chemscore.Internal.Correction.Weighted>
   9.000000E+99

> <Gold.Protein.RotatedTorsions>
[ 6907 6896 6895 6894 ] final  -56.27 input  -60.11 | X-H torsion
[ 7974 7965 7964 7962 ] final    8.84 input  175.53 | X-H torsion
[ 8008 7997 7996 7995 ] final  -29.20 input   59.86 | X-H torsion
[ 10167 10162 10161 10158 ] final -140.37 input  -65.29 | X-H torsion
[ 10718 10713 10712 10709 ] final -102.79 input   66.30 | X-H torsion
[ 10763 10752 10751 10750 ] final  -41.37 input  -60.55 | X-H torsion
[ 11005 11000 10999 10996 ] final    1.41 input  -57.11 | X-H torsion

> <Gold.Protein.ActiveResidues>
 VAL166  LYS551  ARG553  GLY616  TRP617  ASP618  TYR619  PRO620  LYS621  CYS622 
 ASP623  PHE694  ASN695  SER759  ASP760  ASP761  ALA762  ILE779  LEU786  VAL792 
 PHE793  MET794  SER795  GLU796  ALA797  LYS798  CYS799  TRP800  GLU811  SER814 

> <Gold.Protein.RotatedAtoms>
  150.8182  134.7375  159.6748 H   0  0  0  0  0  0  0  0  0  0  0  0  # atno 6907 bound_to 6896
  152.4299  134.5794  159.9953 H   0  0  0  0  0  0  0  0  0  0  0  0  # atno 6908 bound_to 6896
  151.5985  133.3321  159.3078 H   0  0  0  0  0  0  0  0  0  0  0  0  # atno 6909 bound_to 6896
  146.2411  139.9873  142.8429 H   0  0  0  0  0  0  0  0  0  0  0  0  # atno 7974 bound_to 7965
  154.4300  140.1825  156.1209 H   0  0  0  0  0  0  0  0  0  0  0  0  # atno 8008 bound_to 7997
  156.0143  140.3347  155.6948 H   0  0  0  0  0  0  0  0  0  0  0  0  # atno 8009 bound_to 7997
  155.6066  140.0646  157.2709 H   0  0  0  0  0  0  0  0  0  0  0  0  # atno 8010 bound_to 7997
  139.8288  143.7474  152.2666 H   0  0  0  0  0  0  0  0  0  0  0  0  # atno 10167 bound_to 10162
  156.0241  130.5437  150.7160 H   0  0  0  0  0  0  0  0  0  0  0  0  # atno 10718 bound_to 10713
  153.9614  135.6739  153.4745 H   0  0  0  0  0  0  0  0  0  0  0  0  # atno 10763 bound_to 10752
  153.0836  135.4910  154.8549 H   0  0  0  0  0  0  0  0  0  0  0  0  # atno 10764 bound_to 10752
  154.7270  135.3129  154.8914 H   0  0  0  0  0  0  0  0  0  0  0  0  # atno 10765 bound_to 10752
  140.6158  133.9707  155.8199 H   0  0  0  0  0  0  0  0  0  0  0  0  # atno 11005 bound_to 11000
  145.1536  140.9636  143.4418 LP  0  0  0  0  0  0  0  0  0  0  0  0  # atno 17320 bound_to 7965
  145.0182  139.3448  143.6086 LP  0  0  0  0  0  0  0  0  0  0  0  0  # atno 17321 bound_to 7965
  139.7675  144.7487  151.0272 LP  0  0  0  0  0  0  0  0  0  0  0  0  # atno 17342 bound_to 10162
  140.7808  143.4681  151.0184 LP  0  0  0  0  0  0  0  0  0  0  0  0  # atno 17343 bound_to 10162
  157.4787  131.0900  151.0561 LP  0  0  0  0  0  0  0  0  0  0  0  0  # atno 17370 bound_to 10713
  157.1000  130.5978  149.5458 LP  0  0  0  0  0  0  0  0  0  0  0  0  # atno 17371 bound_to 10713
  141.0777  134.0110  157.3433 LP  0  0  0  0  0  0  0  0  0  0  0  0  # atno 17394 bound_to 11000
  139.9173  135.0198  156.7932 LP  0  0  0  0  0  0  0  0  0  0  0  0  # atno 17395 bound_to 11000

$$$$
