AV-unprocessed.smi:242|AV-procd|sdf|1847|dock4
  -GOLD-   2262020463D 1   1.00000     0.00000
 Structure written by MMmdl.
 58 61  0  0  0  0  0  0  0  0  2 V2000
  145.5627  132.0391  149.3253 C   0  0  0  0  0  0  0  0  0  0  0  0
  145.4306  131.4532  150.7448 C   0  0  0  0  0  0  0  0  0  0  0  0
  144.3703  132.2534  151.5265 C   0  0  0  0  0  0  0  0  0  0  0  0
  146.7453  131.4458  151.4471 N   0  3  1  0  0  0  0  0  0  0  0  0
  147.2707  132.7725  151.8456 C   0  0  0  0  0  0  0  0  0  0  0  0
  148.1715  132.5083  153.0483 C   0  0  0  0  0  0  0  0  0  0  0  0
  147.3911  131.4301  153.7944 C   0  0  2  0  0  0  0  0  0  0  0  0
  148.1835  130.6769  154.7718 N   0  0  0  0  0  0  0  0  0  0  0  0
  149.1279  129.6952  154.2521 C   0  0  0  0  0  0  0  0  0  0  0  0
  148.7405  131.3928  155.7776 C   0  0  0  0  0  0  0  0  0  0  0  0
  149.8817  132.1002  155.5637 N   0  0  0  0  0  0  0  0  0  0  0  0
  150.4275  132.8047  156.5600 C   0  0  0  0  0  0  0  0  0  0  0  0
  150.0043  132.9357  157.8192 N   0  0  0  0  0  0  0  0  0  0  0  0
  148.8653  132.2177  158.0379 C   0  0  0  0  0  0  0  0  0  0  0  0
  148.1750  131.4244  157.0797 C   0  0  0  0  0  0  0  0  0  0  0  0
  147.0512  130.8472  157.6563 N   0  0  0  0  0  0  0  0  0  0  0  0
  147.0739  131.2772  158.8886 C   0  0  0  0  0  0  0  0  0  0  0  0
  148.1318  132.1004  159.2055 N   0  0  0  0  0  0  0  0  0  0  0  0
  148.3960  132.7216  160.4945 C   0  0  0  0  0  0  0  0  0  0  0  0
  147.7596  134.1235  160.6653 C   0  0  0  0  0  0  0  0  0  0  0  0
  146.3523  133.9715  160.6029 O   0  0  0  0  0  0  0  0  0  0  0  0
  148.1247  134.7108  162.0435 C   0  0  0  0  0  0  0  0  0  0  0  0
  147.6629  136.1710  162.1949 C   0  0  0  0  0  0  0  0  0  0  0  0
  148.1952  136.9607  161.1386 O   0  0  0  0  0  0  0  0  0  0  0  0
  147.7299  136.5510  159.8586 C   0  0  0  0  0  0  0  0  0  0  0  0
  148.1919  135.1132  159.5616 C   0  0  0  0  0  0  0  0  0  0  0  0
  146.8236  130.5731  152.6467 C   0  0  0  0  0  0  0  0  0  0  0  0
  144.5951  132.0650  148.8232 H   0  0  0  0  0  0  0  0  0  0  0  0
  146.2288  131.4537  148.6925 H   0  0  0  0  0  0  0  0  0  0  0  0
  145.9451  133.0600  149.3535 H   0  0  0  0  0  0  0  0  0  0  0  0
  145.0845  130.4217  150.6628 H   0  0  0  0  0  0  0  0  0  0  0  0
  143.4287  132.2919  150.9776 H   0  0  0  0  0  0  0  0  0  0  0  0
  144.6937  133.2811  151.6960 H   0  0  0  0  0  0  0  0  0  0  0  0
  144.1494  131.8073  152.4960 H   0  0  0  0  0  0  0  0  0  0  0  0
  147.8034  133.2590  151.0277 H   0  0  0  0  0  0  0  0  0  0  0  0
  146.4475  133.4217  152.1494 H   0  0  0  0  0  0  0  0  0  0  0  0
  149.1379  132.1246  152.7167 H   0  0  0  0  0  0  0  0  0  0  0  0
  148.3448  133.4033  153.6467 H   0  0  0  0  0  0  0  0  0  0  0  0
  146.5621  131.9155  154.3126 H   0  0  0  0  0  0  0  0  0  0  0  0
  149.6712  129.1960  155.0560 H   0  0  0  0  0  0  0  0  0  0  0  0
  149.8545  130.1734  153.5940 H   0  0  0  0  0  0  0  0  0  0  0  0
  148.6075  128.9242  153.6842 H   0  0  0  0  0  0  0  0  0  0  0  0
  151.3324  133.3407  156.3137 H   0  0  0  0  0  0  0  0  0  0  0  0
  146.3158  131.0013  159.6072 H   0  0  0  0  0  0  0  0  0  0  0  0
  148.0451  132.0480  161.2778 H   0  0  0  0  0  0  0  0  0  0  0  0
  149.4780  132.7873  160.6162 H   0  0  0  0  0  0  0  0  0  0  0  0
  146.0329  133.7644  161.4678 H   0  0  0  0  0  0  0  0  0  0  0  0
  147.7036  134.1005  162.8435 H   0  0  0  0  0  0  0  0  0  0  0  0
  149.2073  134.6785  162.1736 H   0  0  0  0  0  0  0  0  0  0  0  0
  146.5742  136.2409  162.2047 H   0  0  0  0  0  0  0  0  0  0  0  0
  148.0127  136.5751  163.1449 H   0  0  0  0  0  0  0  0  0  0  0  0
  146.6432  136.6326  159.8112 H   0  0  0  0  0  0  0  0  0  0  0  0
  148.1291  137.2318  159.1068 H   0  0  0  0  0  0  0  0  0  0  0  0
  149.2798  135.1080  159.4817 H   0  0  0  0  0  0  0  0  0  0  0  0
  147.8109  134.8028  158.5879 H   0  0  0  0  0  0  0  0  0  0  0  0
  145.8571  130.1565  152.9315 H   0  0  0  0  0  0  0  0  0  0  0  0
  147.4874  129.7408  152.4085 H   0  0  0  0  0  0  0  0  0  0  0  0
  147.4180  131.0701  150.7938 H   0  0  0  0  0  0  0  0  0  0  0  0
  1  2  1  0  0  0  0
  1 28  1  0  0  0  0
  1 29  1  0  0  0  0
  1 30  1  0  0  0  0
  2  3  1  0  0  0  0
  2  4  1  0  0  0  0
  2 31  1  0  0  0  0
  3 32  1  0  0  0  0
  3 33  1  0  0  0  0
  3 34  1  0  0  0  0
  4 27  1  0  0  0  0
  4  5  1  0  0  0  0
  4 58  1  0  0  0  0
  5  6  1  0  0  0  0
  5 35  1  0  0  0  0
  5 36  1  0  0  0  0
  6  7  1  0  0  0  0
  6 37  1  0  0  0  0
  6 38  1  0  0  0  0
  7  8  1  0  0  0  0
  7 27  1  0  0  0  0
  7 39  1  0  0  0  0
  8  9  1  0  0  0  0
  8 10  1  0  0  0  0
  9 40  1  0  0  0  0
  9 41  1  0  0  0  0
  9 42  1  0  0  0  0
 10 15  1  0  0  0  0
 10 11  2  0  0  0  0
 11 12  1  0  0  0  0
 12 13  2  0  0  0  0
 12 43  1  0  0  0  0
 13 14  1  0  0  0  0
 14 18  1  0  0  0  0
 14 15  2  0  0  0  0
 15 16  1  0  0  0  0
 16 17  2  0  0  0  0
 17 18  1  0  0  0  0
 17 44  1  0  0  0  0
 18 19  1  0  0  0  0
 19 20  1  0  0  0  0
 19 45  1  0  0  0  0
 19 46  1  0  0  0  0
 20 26  1  0  0  0  0
 20 21  1  0  0  0  0
 20 22  1  0  0  0  0
 21 47  1  0  0  0  0
 22 23  1  0  0  0  0
 22 48  1  0  0  0  0
 22 49  1  0  0  0  0
 23 24  1  0  0  0  0
 23 50  1  0  0  0  0
 23 51  1  0  0  0  0
 24 25  1  0  0  0  0
 25 26  1  0  0  0  0
 25 52  1  0  0  0  0
 25 53  1  0  0  0  0
 26 54  1  0  0  0  0
 26 55  1  0  0  0  0
 27 56  1  0  0  0  0
 27 57  1  0  0  0  0
M  CHG  1   4   1
M  END
> <s_m_source_file>
AV-unprocessed.smi

> <i_m_source_file_index>
242

> <i_lp_mmshare_version>
43012

> <i_f3d_flags>
0

> <s_epik_input>
W0NIM11bQ0hdKFtDSDNdKU4xW0NIMl1bQ0gyXVtDQEhdKFtDSDJdMSlOKFtDSDNdKWMobltjSF1uMiljKGMyMyluW2NIXW4zW0NIMl1DNChbT0hdKVtDSDJdW0NIMl1PW0NIMl1bQ0gyXTQ=

> <s_epik_cmdline>
J2VwaWtfcHl0aG9uJywgJy1waCcsICc3LjAnLCAnLXRuJywgJzgnLCAnLW1hJywgJzIwMCcsICctbWV0YWxfYmluZGluZycsICctaW1hZScsICc8aW5maWxlLm1hZT4nLCAnLW9tYWUnLCAnPG91dGZpbGUubWFlPic=

> <r_lp_tautomer_probability>
1

> <r_epik_Ionization_Penalty>
0.000825961

> <r_epik_Ionization_Penalty_Charging>
0.00034898

> <r_epik_Ionization_Penalty_Neutral>
0.000476981

> <r_epik_State_Penalty>
-0

> <r_epik_Charging_Adjusted_Penalty>
0.00034898

> <i_epik_Tot_Q>
1

> <i_epik_Tot_abs_Q>
1

> <r_epik_Metal_State_Penalty>
-0

> <b_epik_Metal_Only>
0

> <s_lp_Force_Field>
OPLS_2005

> <r_lp_Energy>
48.0366

> <b_lp_Chiralities_Consistent>
1

> <s_lp_Variant>
AV-unprocessed.smi:242-4

> <Gold.Version>
5.8.1

> <Gold.Id.Protein>
6NUR|6NUR_protein|mol2

> <Gold.PLP.Fitness>
48.6944

> <Gold.PLP.PLP>
-38.7585

> <Gold.PLP.part.hbond>
-4.0000

> <Gold.PLP.part.metal>
0.0000

> <Gold.PLP.part.buried>
-4.3577

> <Gold.PLP.part.nonpolar>
-29.7475

> <Gold.PLP.part.repulsive>
0.0289

> <Gold.PLP.ligand.clash>
0.0000

> <Gold.PLP.ligand.torsion>
0.9253

> <Gold.PLP.Chemscore.Hbond>
3.7744

> <Gold.PLP.Chemscore.CHOScore>
0.0000

> <Gold.PLP.Chemscore.Metal>
0.0000

> <Gold.Chemscore.Hbonds>
donor molecule, donor type, donor heavy atom, donor atom, acceptor molecule, acceptor atom, score
      L1  H     4    58       P1 10747  1.00
      P1  H  6896  6908       L1    13  1.00
      P1  H  6931  6943       L1    24  1.00
      P1  H  6934  6947       L1    24  0.13

> <Gold.PLP.Chemscore.Internal.Correction>
0.4634

> <Gold.Rescore>
     Score         DG    S(hbond)    S(metal)    S(lipo)     H(rot)  DE(clash)    DE(int)     intcor
     19.10     -20.00       2.90        0.00      95.87       2.50       0.03       0.87       ----

> <Gold.Chemscore.Fitness>
19.0963

> <Gold.Chemscore.DG>
-19.9973

> <Gold.Chemscore.ZeroCoef>
-5.4800

> <Gold.Chemscore.Hbond>
2.9039

> <Gold.Chemscore.Metal>
0.0000

> <Gold.Chemscore.Lipo>
95.8742

> <Gold.Chemscore.Internal_Hbond>
0.0000

> <Gold.Chemscore.DEClash>
0.0285

> <Gold.Chemscore.DEInternal>
0.8725

> <Gold.Chemscore.Rot>
2.4996

> <Gold.Chemscore.Internal.Correction>
   9.000000E+99

> <Gold.Chemscore.Hbonds>
donor molecule, donor type, donor heavy atom, donor atom, acceptor molecule, acceptor atom, score
      L1  H     4    58       P1 10747  0.96
      P1  H  6896  6908       L1    13  0.98
      P1  H  6931  6943       L1    24  0.55
      P1  H  6934  6947       L1    24  0.01

> <Gold.Chemscore.Hbond.Weighted>
-9.6989

> <Gold.Chemscore.Metal.Weighted>
-0.0000

> <Gold.Chemscore.Lipo.Weighted>
-11.2173

> <Gold.Chemscore.Internal_Hbond.Weighted>
0.0000

> <Gold.Chemscore.DEClash.Weighted>
0.0285

> <Gold.Chemscore.DEInternal.Weighted>
0.8725

> <Gold.Chemscore.Rot.Weighted>
6.3990

> <Gold.Chemscore.Internal.Correction.Weighted>
   9.000000E+99

> <Gold.Protein.RotatedTorsions>
[ 6907 6896 6895 6894 ] final   99.68 input  -60.11 | X-H torsion
[ 7974 7965 7964 7962 ] final  -72.82 input  175.53 | X-H torsion
[ 8008 7997 7996 7995 ] final  122.34 input   59.86 | X-H torsion
[ 10167 10162 10161 10158 ] final  -61.67 input  -65.29 | X-H torsion
[ 10718 10713 10712 10709 ] final  146.21 input   66.30 | X-H torsion
[ 10763 10752 10751 10750 ] final  165.76 input  -60.55 | X-H torsion
[ 11005 11000 10999 10996 ] final  162.29 input  -57.11 | X-H torsion

> <Gold.Protein.ActiveResidues>
 VAL166  LYS551  ARG553  GLY616  TRP617  ASP618  TYR619  PRO620  LYS621  CYS622 
 ASP623  PHE694  ASN695  SER759  ASP760  ASP761  ALA762  ILE779  LEU786  VAL792 
 PHE793  MET794  SER795  GLU796  ALA797  LYS798  CYS799  TRP800  GLU811  SER814 

> <Gold.Protein.RotatedAtoms>
  152.5387  134.0391  159.8059 H   0  0  0  0  0  0  0  0  0  0  0  0  # atno 6907 bound_to 6896
  151.0550  133.5584  159.2646 H   0  0  0  0  0  0  0  0  0  0  0  0  # atno 6908 bound_to 6896
  151.2504  135.0628  159.9113 H   0  0  0  0  0  0  0  0  0  0  0  0  # atno 6909 bound_to 6896
  145.6601  140.9255  143.0938 H   0  0  0  0  0  0  0  0  0  0  0  0  # atno 7974 bound_to 7965
  156.2723  140.2788  156.1451 H   0  0  0  0  0  0  0  0  0  0  0  0  # atno 8008 bound_to 7997
  155.0912  140.0388  157.2687 H   0  0  0  0  0  0  0  0  0  0  0  0  # atno 8009 bound_to 7997
  154.6888  140.2624  155.6839 H   0  0  0  0  0  0  0  0  0  0  0  0  # atno 8010 bound_to 7997
  140.5991  143.2357  151.5970 H   0  0  0  0  0  0  0  0  0  0  0  0  # atno 10167 bound_to 10162
  157.3360  131.0928  151.1123 H   0  0  0  0  0  0  0  0  0  0  0  0  # atno 10718 bound_to 10713
  154.3289  135.2755  155.2482 H   0  0  0  0  0  0  0  0  0  0  0  0  # atno 10763 bound_to 10752
  154.4803  135.5860  153.6388 H   0  0  0  0  0  0  0  0  0  0  0  0  # atno 10764 bound_to 10752
  152.9868  135.6109  154.3479 H   0  0  0  0  0  0  0  0  0  0  0  0  # atno 10765 bound_to 10752
  140.2243  134.8173  157.3252 H   0  0  0  0  0  0  0  0  0  0  0  0  # atno 11005 bound_to 11000
  144.7092  139.8438  143.7420 LP  0  0  0  0  0  0  0  0  0  0  0  0  # atno 17320 bound_to 7965
  146.1132  139.4139  143.0275 LP  0  0  0  0  0  0  0  0  0  0  0  0  # atno 17321 bound_to 7965
  139.5278  144.3006  152.1077 LP  0  0  0  0  0  0  0  0  0  0  0  0  # atno 17342 bound_to 10162
  140.2183  144.4492  150.6353 LP  0  0  0  0  0  0  0  0  0  0  0  0  # atno 17343 bound_to 10162
  157.2353  130.6544  149.5867 LP  0  0  0  0  0  0  0  0  0  0  0  0  # atno 17370 bound_to 10713
  155.9701  130.4585  150.6003 LP  0  0  0  0  0  0  0  0  0  0  0  0  # atno 17371 bound_to 10713
  140.1817  134.4481  155.7768 LP  0  0  0  0  0  0  0  0  0  0  0  0  # atno 17394 bound_to 11000
  141.2221  133.6987  156.7880 LP  0  0  0  0  0  0  0  0  0  0  0  0  # atno 17395 bound_to 11000

$$$$
