AV-unprocessed.smi:1141|AV-procd|sdf|4872|dock3
  -GOLD-   22720 3443D 1   1.00000     0.00000
 Structure written by MMmdl.
 45 46  0  0  0  0  0  0  0  0  1 V2000
  148.7766  132.8594  153.8514 C   0  0  0  0  0  0  0  0  0  0  0  0
  148.6963  132.0638  155.0204 O   0  0  0  0  0  0  0  0  0  0  0  0
  149.9222  132.0262  155.7354 C   0  0  0  0  0  0  0  0  0  0  0  0
  149.7305  132.6739  157.1066 C   0  0  0  0  0  0  0  0  0  0  0  0
  150.1418  132.0947  158.1112 O   0  0  0  0  0  0  0  0  0  0  0  0
  149.0715  133.8470  157.1172 N   0  0  0  0  0  0  0  0  0  0  0  0
  148.7181  134.6551  158.2350 C   0  0  0  0  0  0  0  0  0  0  0  0
  148.3422  134.1020  159.4825 C   0  0  0  0  0  0  0  0  0  0  0  0
  148.0523  134.9619  160.5568 C   0  0  0  0  0  0  0  0  0  0  0  0
  148.1563  136.3506  160.3589 C   0  0  0  0  0  0  0  0  0  0  0  0
  147.8720  137.1940  161.4133 O   0  0  0  0  0  0  0  0  0  0  0  0
  147.2850  136.6355  162.5839 C   0  0  0  0  0  0  0  0  0  0  0  0
  148.5296  136.8883  159.1732 N   0  0  0  0  0  0  0  0  0  0  0  0
  148.8093  136.0687  158.1315 C   0  0  0  0  0  0  0  0  0  0  0  0
  149.1789  136.6770  156.9154 N   0  0  0  0  0  0  0  0  0  0  0  0
  148.2601  137.7293  156.4795 C   0  0  0  0  0  0  0  0  0  0  0  0
  148.5815  138.1704  155.0388 C   0  0  0  0  0  0  0  0  0  0  0  0
  149.9965  138.5567  154.9618 N   0  0  0  0  0  0  0  0  0  0  0  0
  150.4006  139.8312  154.7462 C   0  0  0  0  0  0  0  0  0  0  0  0
  149.3519  140.9154  154.4885 C   0  0  0  0  0  0  0  0  0  0  0  0
  151.5865  140.1615  154.7449 O   0  0  0  0  0  0  0  0  0  0  0  0
  150.8756  137.4234  155.2823 C   0  0  0  0  0  0  0  0  0  0  0  0
  150.6009  136.9749  156.7298 C   0  0  0  0  0  0  0  0  0  0  0  0
  147.8135  132.8585  153.3410 H   0  0  0  0  0  0  0  0  0  0  0  0
  149.5247  132.4692  153.1599 H   0  0  0  0  0  0  0  0  0  0  0  0
  149.0289  133.8926  154.0941 H   0  0  0  0  0  0  0  0  0  0  0  0
  150.2527  130.9954  155.8735 H   0  0  0  0  0  0  0  0  0  0  0  0
  150.6998  132.5570  155.1828 H   0  0  0  0  0  0  0  0  0  0  0  0
  148.7074  134.1556  156.2270 H   0  0  0  0  0  0  0  0  0  0  0  0
  148.2902  133.0358  159.6397 H   0  0  0  0  0  0  0  0  0  0  0  0
  147.7631  134.5622  161.5175 H   0  0  0  0  0  0  0  0  0  0  0  0
  147.1242  137.4242  163.3187 H   0  0  0  0  0  0  0  0  0  0  0  0
  147.9372  135.8881  163.0383 H   0  0  0  0  0  0  0  0  0  0  0  0
  146.3166  136.1818  162.3680 H   0  0  0  0  0  0  0  0  0  0  0  0
  147.2259  137.3898  156.5363 H   0  0  0  0  0  0  0  0  0  0  0  0
  148.3496  138.5792  157.1577 H   0  0  0  0  0  0  0  0  0  0  0  0
  148.3954  137.3487  154.3454 H   0  0  0  0  0  0  0  0  0  0  0  0
  147.9048  138.9721  154.7405 H   0  0  0  0  0  0  0  0  0  0  0  0
  148.7594  140.6778  153.6046 H   0  0  0  0  0  0  0  0  0  0  0  0
  149.8308  141.8803  154.3177 H   0  0  0  0  0  0  0  0  0  0  0  0
  148.6864  141.0217  155.3457 H   0  0  0  0  0  0  0  0  0  0  0  0
  150.6633  136.6044  154.5933 H   0  0  0  0  0  0  0  0  0  0  0  0
  151.9356  137.6401  155.1603 H   0  0  0  0  0  0  0  0  0  0  0  0
  150.9056  137.7616  157.4217 H   0  0  0  0  0  0  0  0  0  0  0  0
  151.1939  136.0899  156.9636 H   0  0  0  0  0  0  0  0  0  0  0  0
  1  2  1  0  0  0  0
  1 24  1  0  0  0  0
  1 25  1  0  0  0  0
  1 26  1  0  0  0  0
  2  3  1  0  0  0  0
  3  4  1  0  0  0  0
  3 27  1  0  0  0  0
  3 28  1  0  0  0  0
  4  5  2  0  0  0  0
  4  6  1  0  0  0  0
  6  7  1  0  0  0  0
  6 29  1  0  0  0  0
  7 14  1  0  0  0  0
  7  8  2  0  0  0  0
  8  9  1  0  0  0  0
  8 30  1  0  0  0  0
  9 10  2  0  0  0  0
  9 31  1  0  0  0  0
 10 11  1  0  0  0  0
 10 13  1  0  0  0  0
 11 12  1  0  0  0  0
 12 32  1  0  0  0  0
 12 33  1  0  0  0  0
 12 34  1  0  0  0  0
 13 14  2  0  0  0  0
 14 15  1  0  0  0  0
 15 23  1  0  0  0  0
 15 16  1  0  0  0  0
 16 17  1  0  0  0  0
 16 35  1  0  0  0  0
 16 36  1  0  0  0  0
 17 18  1  0  0  0  0
 17 37  1  0  0  0  0
 17 38  1  0  0  0  0
 18 19  1  0  0  0  0
 18 22  1  0  0  0  0
 19 20  1  0  0  0  0
 19 21  2  0  0  0  0
 20 39  1  0  0  0  0
 20 40  1  0  0  0  0
 20 41  1  0  0  0  0
 22 23  1  0  0  0  0
 22 42  1  0  0  0  0
 22 43  1  0  0  0  0
 23 44  1  0  0  0  0
 23 45  1  0  0  0  0
M  END
> <s_m_source_file>
AV-unprocessed.smi

> <i_m_source_file_index>
1141

> <i_lp_mmshare_version>
43012

> <i_f3d_flags>
0

> <s_epik_input>
W0NIM11PW0NIMl1DKD1PKVtOSF1jMVtjSF1bY0hdYyhPW0NIM10pbmMxTjJbQ0gyXVtDSDJdTihDKD1PKVtDSDNdKVtDSDJdW0NIMl0y

> <s_epik_cmdline>
J2VwaWtfcHl0aG9uJywgJy1waCcsICc3LjAnLCAnLXRuJywgJzgnLCAnLW1hJywgJzIwMCcsICctbWV0YWxfYmluZGluZycsICctaW1hZScsICc8aW5maWxlLm1hZT4nLCAnLW9tYWUnLCAnPG91dGZpbGUubWFlPic=

> <r_lp_tautomer_probability>
1

> <r_epik_Ionization_Penalty>
0.000141552

> <r_epik_Ionization_Penalty_Charging>
0

> <r_epik_Ionization_Penalty_Neutral>
0.000141552

> <r_epik_State_Penalty>
-0

> <r_epik_Charging_Adjusted_Penalty>
0

> <i_epik_Tot_Q>
0

> <i_epik_Tot_abs_Q>
0

> <r_epik_Metal_State_Penalty>
-0

> <b_epik_Metal_Only>
0

> <s_lp_Force_Field>
OPLS_2005

> <r_lp_Energy>
39.8062

> <b_lp_Chiralities_Consistent>
1

> <s_lp_Variant>
AV-unprocessed.smi:1141-1

> <Gold.Version>
5.8.1

> <Gold.Id.Protein>
6NUR|6NUR_protein|mol2

> <Gold.PLP.Fitness>
38.1148

> <Gold.PLP.PLP>
-29.6080

> <Gold.PLP.part.hbond>
-3.6352

> <Gold.PLP.part.metal>
0.0000

> <Gold.PLP.part.buried>
-2.9189

> <Gold.PLP.part.nonpolar>
-23.3772

> <Gold.PLP.part.repulsive>
0.1442

> <Gold.PLP.ligand.clash>
0.4243

> <Gold.PLP.ligand.torsion>
1.3323

> <Gold.PLP.Chemscore.Hbond>
3.7332

> <Gold.PLP.Chemscore.CHOScore>
0.0000

> <Gold.PLP.Chemscore.Metal>
0.0000

> <Gold.Chemscore.Hbonds>
donor molecule, donor type, donor heavy atom, donor atom, acceptor molecule, acceptor atom, score
      P1  H  6896  6908       L1     5  1.00
      P1  H  6931  6943       L1    11  1.00
      P1  H  6934  6947       L1    11  0.72
      P1  H  7989  7998       L1    21  0.75

> <Gold.PLP.Chemscore.Internal.Correction>
0.3964

> <Gold.Rescore>
     Score         DG    S(hbond)    S(metal)    S(lipo)     H(rot)  DE(clash)    DE(int)     intcor
     14.30     -16.88       3.00        0.00      50.17       1.75       0.09       2.50       ----

> <Gold.Chemscore.Fitness>
14.2982

> <Gold.Chemscore.DG>
-16.8848

> <Gold.Chemscore.ZeroCoef>
-5.4800

> <Gold.Chemscore.Hbond>
3.0010

> <Gold.Chemscore.Metal>
0.0000

> <Gold.Chemscore.Lipo>
50.1749

> <Gold.Chemscore.Internal_Hbond>
0.0000

> <Gold.Chemscore.DEClash>
0.0884

> <Gold.Chemscore.DEInternal>
2.4982

> <Gold.Chemscore.Rot>
1.7535

> <Gold.Chemscore.Internal.Correction>
   9.000000E+99

> <Gold.Chemscore.Hbonds>
donor molecule, donor type, donor heavy atom, donor atom, acceptor molecule, acceptor atom, score
      P1  H  6896  6908       L1     5  0.58
      P1  H  6931  6943       L1    11  0.56
      P1  H  6934  6947       L1    11  0.57
      P1  H  7989  7998       L1    21  0.22

> <Gold.Chemscore.Hbond.Weighted>
-10.0233

> <Gold.Chemscore.Metal.Weighted>
-0.0000

> <Gold.Chemscore.Lipo.Weighted>
-5.8705

> <Gold.Chemscore.Internal_Hbond.Weighted>
0.0000

> <Gold.Chemscore.DEClash.Weighted>
0.0884

> <Gold.Chemscore.DEInternal.Weighted>
2.4982

> <Gold.Chemscore.Rot.Weighted>
4.4890

> <Gold.Chemscore.Internal.Correction.Weighted>
   9.000000E+99

> <Gold.Protein.RotatedTorsions>
[ 6907 6896 6895 6894 ] final   95.00 input  -60.11 | X-H torsion
[ 7974 7965 7964 7962 ] final  -64.91 input  175.53 | X-H torsion
[ 8008 7997 7996 7995 ] final  106.25 input   59.86 | X-H torsion
[ 10167 10162 10161 10158 ] final   84.99 input  -65.29 | X-H torsion
[ 10718 10713 10712 10709 ] final   50.61 input   66.30 | X-H torsion
[ 10763 10752 10751 10750 ] final -104.69 input  -60.55 | X-H torsion
[ 11005 11000 10999 10996 ] final -113.89 input  -57.11 | X-H torsion

> <Gold.Protein.ActiveResidues>
 VAL166  LYS551  ARG553  GLY616  TRP617  ASP618  TYR619  PRO620  LYS621  CYS622 
 ASP623  PHE694  ASN695  SER759  ASP760  ASP761  ALA762  ILE779  LEU786  VAL792 
 PHE793  MET794  SER795  GLU796  ALA797  LYS798  CYS799  TRP800  GLU811  SER814 

> <Gold.Protein.RotatedAtoms>
  152.5446  134.1108  159.8357 H   0  0  0  0  0  0  0  0  0  0  0  0  # atno 6907 bound_to 6896
  151.1174  133.5121  159.2610 H   0  0  0  0  0  0  0  0  0  0  0  0  # atno 6908 bound_to 6896
  151.1816  135.0373  159.8849 H   0  0  0  0  0  0  0  0  0  0  0  0  # atno 6909 bound_to 6896
  145.7609  140.8862  143.0430 H   0  0  0  0  0  0  0  0  0  0  0  0  # atno 7974 bound_to 7965
  156.1727  140.3116  155.9003 H   0  0  0  0  0  0  0  0  0  0  0  0  # atno 8008 bound_to 7997
  155.3553  140.0473  157.3063 H   0  0  0  0  0  0  0  0  0  0  0  0  # atno 8009 bound_to 7997
  154.5258  140.2214  155.8904 H   0  0  0  0  0  0  0  0  0  0  0  0  # atno 8010 bound_to 7997
  139.9023  144.6322  150.8623 H   0  0  0  0  0  0  0  0  0  0  0  0  # atno 10167 bound_to 10162
  157.4901  130.8370  149.8193 H   0  0  0  0  0  0  0  0  0  0  0  0  # atno 10718 bound_to 10713
  154.7895  135.4777  154.0021 H   0  0  0  0  0  0  0  0  0  0  0  0  # atno 10763 bound_to 10752
  153.1610  135.6808  153.8750 H   0  0  0  0  0  0  0  0  0  0  0  0  # atno 10764 bound_to 10752
  153.8363  135.3185  155.3401 H   0  0  0  0  0  0  0  0  0  0  0  0  # atno 10765 bound_to 10752
  141.0586  133.9572  157.2708 H   0  0  0  0  0  0  0  0  0  0  0  0  # atno 11005 bound_to 11000
  144.6830  139.9721  143.7482 LP  0  0  0  0  0  0  0  0  0  0  0  0  # atno 17320 bound_to 7965
  146.0265  139.3297  143.0781 LP  0  0  0  0  0  0  0  0  0  0  0  0  # atno 17321 bound_to 7965
  140.7704  143.3427  151.2174 LP  0  0  0  0  0  0  0  0  0  0  0  0  # atno 17342 bound_to 10162
  139.7014  143.9526  152.2907 LP  0  0  0  0  0  0  0  0  0  0  0  0  # atno 17343 bound_to 10162
  156.0169  130.3810  150.2084 LP  0  0  0  0  0  0  0  0  0  0  0  0  # atno 17370 bound_to 10713
  157.0272  130.9997  151.3322 LP  0  0  0  0  0  0  0  0  0  0  0  0  # atno 17371 bound_to 10713
  139.9412  135.0190  156.8715 LP  0  0  0  0  0  0  0  0  0  0  0  0  # atno 17394 bound_to 11000
  140.5914  134.0258  155.7501 LP  0  0  0  0  0  0  0  0  0  0  0  0  # atno 17395 bound_to 11000

$$$$
