AV-unprocessed.smi:2817|AV-procd|sdf|10846|dock5
  -GOLD-   2272015283D 1   1.00000     0.00000
 Structure written by MMmdl.
 42 44  0  0  0  0  0  0  0  0  1 V2000
  154.0378  139.7000  158.5420 O   0  0  0  0  0  0  0  0  0  0  0  0
  153.7798  140.5433  159.4010 C   0  0  0  0  0  0  0  0  0  0  0  0
  152.9506  141.7172  159.1271 C   0  0  0  0  0  0  0  0  0  0  0  0
  152.6838  142.6232  160.0974 C   0  0  0  0  0  0  0  0  0  0  0  0
  151.8307  143.8552  159.8072 C   0  0  0  0  0  0  0  0  0  0  0  0
  150.7985  143.7050  158.6766 C   0  0  0  0  0  0  0  0  0  0  0  0
  151.7293  144.4906  157.7458 C   0  0  0  0  0  0  0  0  0  0  0  0
  152.5332  144.9371  158.9724 C   0  0  0  0  0  0  0  0  0  0  0  0
  153.2115  142.4590  161.3852 N   0  0  0  0  0  0  0  0  0  0  0  0
  153.9513  141.4308  161.6529 C   0  0  0  0  0  0  0  0  0  0  0  0
  154.2447  140.4553  160.6805 N   0  0  0  0  0  0  0  0  0  0  0  0
  155.1027  139.3394  161.1094 C   0  0  0  0  0  0  0  0  0  0  0  0
  154.5417  138.6286  162.3626 C   0  0  2  0  0  0  0  0  0  0  0  0
  155.4808  138.7346  163.4133 O   0  0  0  0  0  0  0  0  0  0  0  0
  154.2983  137.1308  162.1227 C   0  0  0  0  0  0  0  0  0  0  0  0
  154.1048  136.4963  163.3799 O   0  0  0  0  0  0  0  0  0  0  0  0
  154.2298  135.1256  163.4481 C   0  0  0  0  0  0  0  0  0  0  0  0
  153.9001  134.5148  164.6759 C   0  0  0  0  0  0  0  0  0  0  0  0
  153.9989  133.1194  164.8364 C   0  0  0  0  0  0  0  0  0  0  0  0
  154.4309  132.3170  163.7646 C   0  0  0  0  0  0  0  0  0  0  0  0
  154.7633  132.9132  162.5339 C   0  0  0  0  0  0  0  0  0  0  0  0
  154.6643  134.3091  162.3731 C   0  0  0  0  0  0  0  0  0  0  0  0
  152.5487  141.8548  158.1337 H   0  0  0  0  0  0  0  0  0  0  0  0
  151.3846  144.2617  160.7161 H   0  0  0  0  0  0  0  0  0  0  0  0
  150.5976  142.6815  158.3576 H   0  0  0  0  0  0  0  0  0  0  0  0
  149.8719  144.2413  158.8860 H   0  0  0  0  0  0  0  0  0  0  0  0
  152.3011  143.8463  157.0769 H   0  0  0  0  0  0  0  0  0  0  0  0
  151.2446  145.3038  157.2046 H   0  0  0  0  0  0  0  0  0  0  0  0
  152.2764  145.9466  159.2960 H   0  0  0  0  0  0  0  0  0  0  0  0
  153.6123  144.8141  158.8712 H   0  0  0  0  0  0  0  0  0  0  0  0
  154.3932  141.2597  162.6364 H   0  0  0  0  0  0  0  0  0  0  0  0
  155.1808  138.6248  160.2876 H   0  0  0  0  0  0  0  0  0  0  0  0
  156.1332  139.6597  161.2738 H   0  0  0  0  0  0  0  0  0  0  0  0
  153.6069  139.0872  162.6878 H   0  0  0  0  0  0  0  0  0  0  0  0
  155.0320  138.5984  164.2336 H   0  0  0  0  0  0  0  0  0  0  0  0
  153.4300  136.9880  161.4768 H   0  0  0  0  0  0  0  0  0  0  0  0
  155.1665  136.6916  161.6278 H   0  0  0  0  0  0  0  0  0  0  0  0
  153.5676  135.1233  165.5042 H   0  0  0  0  0  0  0  0  0  0  0  0
  153.7432  132.6656  165.7825 H   0  0  0  0  0  0  0  0  0  0  0  0
  154.5077  131.2464  163.8866 H   0  0  0  0  0  0  0  0  0  0  0  0
  155.0958  132.2985  161.7104 H   0  0  0  0  0  0  0  0  0  0  0  0
  154.9291  134.7294  161.4149 H   0  0  0  0  0  0  0  0  0  0  0  0
  1  2  2  0  0  0  0
  2 11  1  0  0  0  0
  2  3  1  0  0  0  0
  3  4  2  0  0  0  0
  3 23  1  0  0  0  0
  4  5  1  0  0  0  0
  4  9  1  0  0  0  0
  5  8  1  0  0  0  0
  5  6  1  0  0  0  0
  5 24  1  0  0  0  0
  6  7  1  0  0  0  0
  6 25  1  0  0  0  0
  6 26  1  0  0  0  0
  7  8  1  0  0  0  0
  7 27  1  0  0  0  0
  7 28  1  0  0  0  0
  8 29  1  0  0  0  0
  8 30  1  0  0  0  0
  9 10  2  0  0  0  0
 10 11  1  0  0  0  0
 10 31  1  0  0  0  0
 11 12  1  0  0  0  0
 12 13  1  0  0  0  0
 12 32  1  0  0  0  0
 12 33  1  0  0  0  0
 13 14  1  0  0  0  0
 13 15  1  0  0  0  0
 13 34  1  0  0  0  0
 14 35  1  0  0  0  0
 15 16  1  0  0  0  0
 15 36  1  0  0  0  0
 15 37  1  0  0  0  0
 16 17  1  0  0  0  0
 17 22  1  0  0  0  0
 17 18  2  0  0  0  0
 18 19  1  0  0  0  0
 18 38  1  0  0  0  0
 19 20  2  0  0  0  0
 19 39  1  0  0  0  0
 20 21  1  0  0  0  0
 20 40  1  0  0  0  0
 21 22  2  0  0  0  0
 21 41  1  0  0  0  0
 22 42  1  0  0  0  0
M  END
> <s_m_source_file>
AV-unprocessed.smi

> <i_m_source_file_index>
2817

> <i_lp_mmshare_version>
43012

> <i_f3d_flags>
0

> <s_epik_input>
W0NIMl0xW0NIMl1bQ0gyXVtDSF0xYyhbY0hdYzI9TyluW2NIXW4yW0NIMl1bQ0BIXShbT0hdKVtDSDJdT2MzW2NIXVtjSF1bY0hdW2NIXVtjSF0z

> <s_epik_cmdline>
J2VwaWtfcHl0aG9uJywgJy1waCcsICc3LjAnLCAnLXRuJywgJzgnLCAnLW1hJywgJzIwMCcsICctbWV0YWxfYmluZGluZycsICctaW1hZScsICc8aW5maWxlLm1hZT4nLCAnLW9tYWUnLCAnPG91dGZpbGUubWFlPic=

> <r_lp_tautomer_probability>
1

> <r_epik_Ionization_Penalty>
2.12778e-05

> <r_epik_Ionization_Penalty_Charging>
7.42033e-08

> <r_epik_Ionization_Penalty_Neutral>
2.12036e-05

> <r_epik_State_Penalty>
-0

> <r_epik_Charging_Adjusted_Penalty>
7.42033e-08

> <i_epik_Tot_Q>
0

> <i_epik_Tot_abs_Q>
0

> <r_epik_Metal_State_Penalty>
-0

> <b_epik_Metal_Only>
0

> <s_lp_Force_Field>
OPLS_2005

> <r_lp_Energy>
32.2435

> <b_lp_Chiralities_Consistent>
1

> <s_lp_Variant>
AV-unprocessed.smi:2817-1

> <Gold.Version>
5.8.1

> <Gold.Id.Protein>
6NUR|6NUR_protein|mol2

> <Gold.PLP.Fitness>
49.7470

> <Gold.PLP.PLP>
-49.3652

> <Gold.PLP.part.hbond>
-1.0000

> <Gold.PLP.part.metal>
0.0000

> <Gold.PLP.part.buried>
-3.1858

> <Gold.PLP.part.nonpolar>
-45.0914

> <Gold.PLP.part.repulsive>
0.0657

> <Gold.PLP.ligand.clash>
0.0000

> <Gold.PLP.ligand.torsion>
1.5257

> <Gold.PLP.Chemscore.Hbond>
1.0000

> <Gold.PLP.Chemscore.CHOScore>
0.0000

> <Gold.PLP.Chemscore.Metal>
0.0000

> <Gold.Chemscore.Hbonds>
donor molecule, donor type, donor heavy atom, donor atom, acceptor molecule, acceptor atom, score
      P1  H  7997  8008       L1     1  1.00

> <Gold.PLP.Chemscore.Internal.Correction>
0.4332

> <Gold.Rescore>
     Score         DG    S(hbond)    S(metal)    S(lipo)     H(rot)  DE(clash)    DE(int)     intcor
     16.49     -18.36       0.99        0.00     134.93       2.42       0.37       1.50       ----

> <Gold.Chemscore.Fitness>
16.4914

> <Gold.Chemscore.DG>
-18.3641

> <Gold.Chemscore.ZeroCoef>
-5.4800

> <Gold.Chemscore.Hbond>
0.9891

> <Gold.Chemscore.Metal>
0.0000

> <Gold.Chemscore.Lipo>
134.9324

> <Gold.Chemscore.Internal_Hbond>
0.0000

> <Gold.Chemscore.DEClash>
0.3710

> <Gold.Chemscore.DEInternal>
1.5017

> <Gold.Chemscore.Rot>
2.4245

> <Gold.Chemscore.Internal.Correction>
   9.000000E+99

> <Gold.Chemscore.Hbonds>
donor molecule, donor type, donor heavy atom, donor atom, acceptor molecule, acceptor atom, score
      P1  H  7997  8008       L1     1  0.96

> <Gold.Chemscore.Hbond.Weighted>
-3.3036

> <Gold.Chemscore.Metal.Weighted>
-0.0000

> <Gold.Chemscore.Lipo.Weighted>
-15.7871

> <Gold.Chemscore.Internal_Hbond.Weighted>
0.0000

> <Gold.Chemscore.DEClash.Weighted>
0.3710

> <Gold.Chemscore.DEInternal.Weighted>
1.5017

> <Gold.Chemscore.Rot.Weighted>
6.2066

> <Gold.Chemscore.Internal.Correction.Weighted>
   9.000000E+99

> <Gold.Protein.RotatedTorsions>
[ 6907 6896 6895 6894 ] final    8.04 input  -60.11 | X-H torsion
[ 7974 7965 7964 7962 ] final  142.21 input  175.53 | X-H torsion
[ 8008 7997 7996 7995 ] final -113.18 input   59.86 | X-H torsion
[ 10167 10162 10161 10158 ] final   34.52 input  -65.29 | X-H torsion
[ 10718 10713 10712 10709 ] final   67.40 input   66.30 | X-H torsion
[ 10763 10752 10751 10750 ] final   76.96 input  -60.55 | X-H torsion
[ 11005 11000 10999 10996 ] final -131.85 input  -57.11 | X-H torsion

> <Gold.Protein.ActiveResidues>
 VAL166  LYS551  ARG553  GLY616  TRP617  ASP618  TYR619  PRO620  LYS621  CYS622 
 ASP623  PHE694  ASN695  SER759  ASP760  ASP761  ALA762  ILE779  LEU786  VAL792 
 PHE793  MET794  SER795  GLU796  ALA797  LYS798  CYS799  TRP800  GLU811  SER814 

> <Gold.Protein.RotatedAtoms>
  151.6997  135.0932  160.0248 H   0  0  0  0  0  0  0  0  0  0  0  0  # atno 6907 bound_to 6896
  152.3728  133.6437  159.6109 H   0  0  0  0  0  0  0  0  0  0  0  0  # atno 6908 bound_to 6896
  150.7686  133.9158  159.3424 H   0  0  0  0  0  0  0  0  0  0  0  0  # atno 6909 bound_to 6896
  144.9028  139.5400  143.5746 H   0  0  0  0  0  0  0  0  0  0  0  0  # atno 7974 bound_to 7965
  155.0167  140.0393  157.2421 H   0  0  0  0  0  0  0  0  0  0  0  0  # atno 8008 bound_to 7997
  154.7413  140.2749  155.6347 H   0  0  0  0  0  0  0  0  0  0  0  0  # atno 8009 bound_to 7997
  156.2865  140.2665  156.2141 H   0  0  0  0  0  0  0  0  0  0  0  0  # atno 8010 bound_to 7997
  140.4307  144.1328  150.6159 H   0  0  0  0  0  0  0  0  0  0  0  0  # atno 10167 bound_to 10162
  157.6228  130.9319  150.0238 H   0  0  0  0  0  0  0  0  0  0  0  0  # atno 10718 bound_to 10713
  153.0763  135.4932  154.8411 H   0  0  0  0  0  0  0  0  0  0  0  0  # atno 10763 bound_to 10752
  154.7092  135.3016  154.9226 H   0  0  0  0  0  0  0  0  0  0  0  0  # atno 10764 bound_to 10752
  153.9925  135.6776  153.4808 H   0  0  0  0  0  0  0  0  0  0  0  0  # atno 10765 bound_to 10752
  140.9222  134.1430  157.4305 H   0  0  0  0  0  0  0  0  0  0  0  0  # atno 11005 bound_to 11000
  146.3117  139.7771  142.9014 LP  0  0  0  0  0  0  0  0  0  0  0  0  # atno 17320 bound_to 7965
  145.3588  141.0322  143.3297 LP  0  0  0  0  0  0  0  0  0  0  0  0  # atno 17321 bound_to 7965
  140.4430  143.2518  151.9448 LP  0  0  0  0  0  0  0  0  0  0  0  0  # atno 17342 bound_to 10162
  139.4785  144.5636  151.8200 LP  0  0  0  0  0  0  0  0  0  0  0  0  # atno 17343 bound_to 10162
  156.1383  130.3642  149.9622 LP  0  0  0  0  0  0  0  0  0  0  0  0  # atno 17370 bound_to 10713
  156.7669  130.9171  151.3643 LP  0  0  0  0  0  0  0  0  0  0  0  0  # atno 17371 bound_to 10713
  139.8778  134.9975  156.5852 LP  0  0  0  0  0  0  0  0  0  0  0  0  # atno 17394 bound_to 11000
  140.7973  133.8534  155.8696 LP  0  0  0  0  0  0  0  0  0  0  0  0  # atno 17395 bound_to 11000

$$$$
