AV-unprocessed.smi:229|AV-procd|sdf|1757|dock1
  -GOLD-   2262020283D 1   1.00000     0.00000
 Structure written by MMmdl.
 58 62  0  0  0  0  0  0  0  0  1 V2000
  154.2712  141.6007  161.8959 C   0  0  0  0  0  0  0  0  0  0  0  0
  154.2699  140.9772  160.4946 C   0  0  0  0  0  0  0  0  0  0  0  0
  153.0183  141.3378  159.6808 C   0  0  2  0  0  0  0  0  0  0  0  0
  152.9652  140.5790  158.3438 C   0  0  0  0  0  0  0  0  0  0  0  0
  151.8161  141.0283  157.5664 N   0  0  0  0  0  0  0  0  0  0  0  0
  151.4203  140.2795  156.5068 C   0  0  0  0  0  0  0  0  0  0  0  0
  150.7748  140.8647  155.4625 N   0  0  0  0  0  0  0  0  0  0  0  0
  150.3756  140.1311  154.4190 C   0  0  0  0  0  0  0  0  0  0  0  0
  150.5195  138.8200  154.2160 N   0  0  0  0  0  0  0  0  0  0  0  0
  151.1743  138.2293  155.2560 C   0  0  0  0  0  0  0  0  0  0  0  0
  151.6541  138.8775  156.4290 C   0  0  0  0  0  0  0  0  0  0  0  0
  152.2794  137.9522  157.2575 N   0  0  0  0  0  0  0  0  0  0  0  0
  152.1683  136.8218  156.6146 C   0  0  0  0  0  0  0  0  0  0  0  0
  151.5203  136.8983  155.4028 N   0  0  0  0  0  0  0  0  0  0  0  0
  151.2648  135.8067  154.4795 C   0  0  0  0  0  0  0  0  0  0  0  0
  149.9365  135.0839  154.7782 C   0  0  1  0  0  0  0  0  0  0  0  0
  148.8609  135.9801  154.5701 O   0  0  0  0  0  0  0  0  0  0  0  0
  149.7303  133.8466  153.8850 C   0  0  2  0  0  0  0  0  0  0  0  0
  148.4136  133.1043  154.1225 C   0  0  0  0  0  0  0  0  0  0  0  0
  148.7157  131.6791  153.6847 C   0  0  0  0  0  0  0  0  0  0  0  0
  150.2424  131.6366  153.5810 C   0  0  0  0  0  0  0  0  0  0  0  0
  150.6867  132.8422  154.1862 O   0  0  0  0  0  0  0  0  0  0  0  0
  151.8069  142.4695  157.3437 C   0  0  0  0  0  0  0  0  0  0  0  0
  151.9156  143.2338  158.6820 C   0  0  2  0  0  0  0  0  0  0  0  0
  150.6300  143.1896  159.5160 C   0  0  0  0  0  0  0  0  0  0  0  0
  150.0084  144.5616  159.2979 C   0  0  0  0  0  0  0  0  0  0  0  0
  151.1464  145.4011  159.2481 O   0  0  0  0  0  0  0  0  0  0  0  0
  152.1158  144.7430  158.4449 C   0  0  0  0  0  0  0  0  0  0  0  0
  153.0391  142.7424  159.4195 O   0  0  0  0  0  0  0  0  0  0  0  0
  155.1650  141.3109  162.4488 H   0  0  0  0  0  0  0  0  0  0  0  0
  153.4039  141.2774  162.4719 H   0  0  0  0  0  0  0  0  0  0  0  0
  154.2522  142.6897  161.8444 H   0  0  0  0  0  0  0  0  0  0  0  0
  155.1641  141.2914  159.9551 H   0  0  0  0  0  0  0  0  0  0  0  0
  154.3360  139.8930  160.5936 H   0  0  0  0  0  0  0  0  0  0  0  0
  152.1364  141.0828  160.2699 H   0  0  0  0  0  0  0  0  0  0  0  0
  153.8789  140.7528  157.7733 H   0  0  0  0  0  0  0  0  0  0  0  0
  152.8962  139.5068  158.5328 H   0  0  0  0  0  0  0  0  0  0  0  0
  149.8678  140.6722  153.6343 H   0  0  0  0  0  0  0  0  0  0  0  0
  152.5648  135.8964  157.0066 H   0  0  0  0  0  0  0  0  0  0  0  0
  151.2659  136.2010  153.4622 H   0  0  0  0  0  0  0  0  0  0  0  0
  152.0996  135.1076  154.5432 H   0  0  0  0  0  0  0  0  0  0  0  0
  149.9212  134.7792  155.8257 H   0  0  0  0  0  0  0  0  0  0  0  0
  148.6959  136.0397  153.6415 H   0  0  0  0  0  0  0  0  0  0  0  0
  149.8225  134.1152  152.8306 H   0  0  0  0  0  0  0  0  0  0  0  0
  148.1614  133.1120  155.1840 H   0  0  0  0  0  0  0  0  0  0  0  0
  147.5791  133.5468  153.5775 H   0  0  0  0  0  0  0  0  0  0  0  0
  148.3418  130.9618  154.4161 H   0  0  0  0  0  0  0  0  0  0  0  0
  148.2573  131.4482  152.7226 H   0  0  0  0  0  0  0  0  0  0  0  0
  150.6730  130.7656  154.0754 H   0  0  0  0  0  0  0  0  0  0  0  0
  150.5549  131.6237  152.5358 H   0  0  0  0  0  0  0  0  0  0  0  0
  152.6568  142.7187  156.7069 H   0  0  0  0  0  0  0  0  0  0  0  0
  150.9138  142.7900  156.8082 H   0  0  0  0  0  0  0  0  0  0  0  0
  149.9570  142.3756  159.2435 H   0  0  0  0  0  0  0  0  0  0  0  0
  150.8708  143.0807  160.5743 H   0  0  0  0  0  0  0  0  0  0  0  0
  149.4710  144.6052  158.3492 H   0  0  0  0  0  0  0  0  0  0  0  0
  149.3271  144.8498  160.0986 H   0  0  0  0  0  0  0  0  0  0  0  0
  153.1211  145.0816  158.6974 H   0  0  0  0  0  0  0  0  0  0  0  0
  151.9332  145.0073  157.4020 H   0  0  0  0  0  0  0  0  0  0  0  0
  1  2  1  0  0  0  0
  1 30  1  0  0  0  0
  1 31  1  0  0  0  0
  1 32  1  0  0  0  0
  2  3  1  0  0  0  0
  2 33  1  0  0  0  0
  2 34  1  0  0  0  0
  3 29  1  0  0  0  0
  3  4  1  0  0  0  0
  3 35  1  0  0  0  0
  4  5  1  0  0  0  0
  4 36  1  0  0  0  0
  4 37  1  0  0  0  0
  5  6  1  0  0  0  0
  5 23  1  0  0  0  0
  6 11  1  0  0  0  0
  6  7  2  0  0  0  0
  7  8  1  0  0  0  0
  8  9  2  0  0  0  0
  8 38  1  0  0  0  0
  9 10  1  0  0  0  0
 10 14  1  0  0  0  0
 10 11  2  0  0  0  0
 11 12  1  0  0  0  0
 12 13  2  0  0  0  0
 13 14  1  0  0  0  0
 13 39  1  0  0  0  0
 14 15  1  0  0  0  0
 15 16  1  0  0  0  0
 15 40  1  0  0  0  0
 15 41  1  0  0  0  0
 16 17  1  0  0  0  0
 16 18  1  0  0  0  0
 16 42  1  0  0  0  0
 17 43  1  0  0  0  0
 18 22  1  0  0  0  0
 18 19  1  0  0  0  0
 18 44  1  0  0  0  0
 19 20  1  0  0  0  0
 19 45  1  0  0  0  0
 19 46  1  0  0  0  0
 20 21  1  0  0  0  0
 20 47  1  0  0  0  0
 20 48  1  0  0  0  0
 21 22  1  0  0  0  0
 21 49  1  0  0  0  0
 21 50  1  0  0  0  0
 23 24  1  0  0  0  0
 23 51  1  0  0  0  0
 23 52  1  0  0  0  0
 24 28  1  0  0  0  0
 24 25  1  0  0  0  0
 24 29  1  0  0  0  0
 25 26  1  0  0  0  0
 25 53  1  0  0  0  0
 25 54  1  0  0  0  0
 26 27  1  0  0  0  0
 26 55  1  0  0  0  0
 26 56  1  0  0  0  0
 27 28  1  0  0  0  0
 28 57  1  0  0  0  0
 28 58  1  0  0  0  0
M  END
> <s_m_source_file>
AV-unprocessed.smi

> <i_m_source_file_index>
229

> <i_lp_mmshare_version>
43012

> <i_f3d_flags>
0

> <s_epik_input>
W0NIMl0xT1tDSDJdW0NIMl1bQ0BdMTJbQ0gyXU4oW0NIMl1bQ0BIXShPMilbQ0gyXVtDSDNdKWMobltjSF1uMyljKGMzNCluW2NIXW40W0NIMl1bQ0BIXShbT0hdKVtDQEBIXTVbQ0gyXVtDSDJdW0NIMl1PNQ==

> <s_epik_cmdline>
J2VwaWtfcHl0aG9uJywgJy1waCcsICc3LjAnLCAnLXRuJywgJzgnLCAnLW1hJywgJzIwMCcsICctbWV0YWxfYmluZGluZycsICctaW1hZScsICc8aW5maWxlLm1hZT4nLCAnLW9tYWUnLCAnPG91dGZpbGUubWFlPic=

> <r_lp_tautomer_probability>
1

> <r_epik_Ionization_Penalty>
0.00318402

> <r_epik_Ionization_Penalty_Charging>
0

> <r_epik_Ionization_Penalty_Neutral>
0.00318402

> <r_epik_State_Penalty>
0.00215642

> <r_epik_Charging_Adjusted_Penalty>
0.00215642

> <i_epik_Tot_Q>
0

> <i_epik_Tot_abs_Q>
0

> <r_epik_Metal_State_Penalty>
-0

> <b_epik_Metal_Only>
0

> <s_lp_Force_Field>
OPLS_2005

> <r_lp_Energy>
53.2063

> <b_lp_Chiralities_Consistent>
1

> <s_lp_Variant>
AV-unprocessed.smi:229-11

> <Gold.Version>
5.8.1

> <Gold.Id.Protein>
6NUR|6NUR_protein|mol2

> <Gold.PLP.Fitness>
47.2001

> <Gold.PLP.PLP>
-42.7586

> <Gold.PLP.part.hbond>
-2.9104

> <Gold.PLP.part.metal>
0.0000

> <Gold.PLP.part.buried>
-0.8852

> <Gold.PLP.part.nonpolar>
-37.8837

> <Gold.PLP.part.repulsive>
0.4524

> <Gold.PLP.ligand.clash>
0.0000

> <Gold.PLP.ligand.torsion>
0.9796

> <Gold.PLP.Chemscore.Hbond>
1.0000

> <Gold.PLP.Chemscore.CHOScore>
1.0000

> <Gold.PLP.Chemscore.Metal>
0.0000

> <Gold.Chemscore.Hbonds>
donor molecule, donor type, donor heavy atom, donor atom, acceptor molecule, acceptor atom, score
      L1  H    17    43       P1  7948  1.00
      L1  C     8    38       P1  7957  0.90

> <Gold.PLP.Chemscore.Internal.Correction>
0.4006

> <Gold.Rescore>
     Score         DG    S(hbond)    S(metal)    S(lipo)     H(rot)  DE(clash)    DE(int)     intcor
     12.10     -16.06       1.00        0.00     115.74       2.46       2.09       1.86       ----

> <Gold.Chemscore.Fitness>
12.1036

> <Gold.Chemscore.DG>
-16.0578

> <Gold.Chemscore.ZeroCoef>
-5.4800

> <Gold.Chemscore.Hbond>
0.9975

> <Gold.Chemscore.Metal>
0.0000

> <Gold.Chemscore.Lipo>
115.7384

> <Gold.Chemscore.Internal_Hbond>
0.0000

> <Gold.Chemscore.DEClash>
2.0930

> <Gold.Chemscore.DEInternal>
1.8612

> <Gold.Chemscore.Rot>
2.4591

> <Gold.Chemscore.Internal.Correction>
   9.000000E+99

> <Gold.Chemscore.Hbonds>
donor molecule, donor type, donor heavy atom, donor atom, acceptor molecule, acceptor atom, score
      L1  H    17    43       P1  7948  1.00

> <Gold.Chemscore.Hbond.Weighted>
-3.3317

> <Gold.Chemscore.Metal.Weighted>
-0.0000

> <Gold.Chemscore.Lipo.Weighted>
-13.5414

> <Gold.Chemscore.Internal_Hbond.Weighted>
0.0000

> <Gold.Chemscore.DEClash.Weighted>
2.0930

> <Gold.Chemscore.DEInternal.Weighted>
1.8612

> <Gold.Chemscore.Rot.Weighted>
6.2953

> <Gold.Chemscore.Internal.Correction.Weighted>
   9.000000E+99

> <Gold.Protein.RotatedTorsions>
[ 6907 6896 6895 6894 ] final  128.41 input  -60.11 | X-H torsion
[ 7974 7965 7964 7962 ] final  166.30 input  175.53 | X-H torsion
[ 8008 7997 7996 7995 ] final   63.50 input   59.86 | X-H torsion
[ 10167 10162 10161 10158 ] final -175.89 input  -65.29 | X-H torsion
[ 10718 10713 10712 10709 ] final  -14.16 input   66.30 | X-H torsion
[ 10763 10752 10751 10750 ] final  -10.50 input  -60.55 | X-H torsion
[ 11005 11000 10999 10996 ] final   -8.64 input  -57.11 | X-H torsion

> <Gold.Protein.ActiveResidues>
 VAL166  LYS551  ARG553  GLY616  TRP617  ASP618  TYR619  PRO620  LYS621  CYS622 
 ASP623  PHE694  ASN695  SER759  ASP760  ASP761  ALA762  ILE779  LEU786  VAL792 
 PHE793  MET794  SER795  GLU796  ALA797  LYS798  CYS799  TRP800  GLU811  SER814 

> <Gold.Protein.RotatedAtoms>
  152.3722  133.6433  159.6095 H   0  0  0  0  0  0  0  0  0  0  0  0  # atno 6907 bound_to 6896
  150.7677  133.9252  159.3419 H   0  0  0  0  0  0  0  0  0  0  0  0  # atno 6908 bound_to 6896
  151.7073  135.0920  160.0312 H   0  0  0  0  0  0  0  0  0  0  0  0  # atno 6909 bound_to 6896
  144.7468  139.8595  143.6379 H   0  0  0  0  0  0  0  0  0  0  0  0  # atno 7974 bound_to 7965
  155.6311  140.3496  155.4683 H   0  0  0  0  0  0  0  0  0  0  0  0  # atno 8008 bound_to 7997
  156.0002  140.1211  157.0578 H   0  0  0  0  0  0  0  0  0  0  0  0  # atno 8009 bound_to 7997
  154.4246  140.1102  156.5672 H   0  0  0  0  0  0  0  0  0  0  0  0  # atno 8010 bound_to 7997
  139.5557  144.1994  152.1156 H   0  0  0  0  0  0  0  0  0  0  0  0  # atno 10167 bound_to 10162
  156.6199  130.4872  149.6168 H   0  0  0  0  0  0  0  0  0  0  0  0  # atno 10718 bound_to 10713
  153.4702  135.7016  153.5998 H   0  0  0  0  0  0  0  0  0  0  0  0  # atno 10763 bound_to 10752
  153.4255  135.3815  155.2138 H   0  0  0  0  0  0  0  0  0  0  0  0  # atno 10764 bound_to 10752
  154.8725  135.3938  154.4138 H   0  0  0  0  0  0  0  0  0  0  0  0  # atno 10765 bound_to 10752
  140.7257  133.8791  155.8854 H   0  0  0  0  0  0  0  0  0  0  0  0  # atno 11005 bound_to 11000
  146.1358  139.4404  143.0140 LP  0  0  0  0  0  0  0  0  0  0  0  0  # atno 17320 bound_to 7965
  145.7093  141.0111  143.1462 LP  0  0  0  0  0  0  0  0  0  0  0  0  # atno 17321 bound_to 7965
  140.1498  144.5125  150.6694 LP  0  0  0  0  0  0  0  0  0  0  0  0  # atno 17342 bound_to 10162
  140.6830  143.2336  151.5335 LP  0  0  0  0  0  0  0  0  0  0  0  0  # atno 17343 bound_to 10162
  156.2320  130.6800  151.1473 LP  0  0  0  0  0  0  0  0  0  0  0  0  # atno 17370 bound_to 10713
  157.7230  131.0669  150.6053 LP  0  0  0  0  0  0  0  0  0  0  0  0  # atno 17371 bound_to 10713
  140.9965  134.1208  157.4359 LP  0  0  0  0  0  0  0  0  0  0  0  0  # atno 17394 bound_to 11000
  139.8838  135.0056  156.6323 LP  0  0  0  0  0  0  0  0  0  0  0  0  # atno 17395 bound_to 11000

$$$$
