AV-unprocessed.smi:901|AV-procd|sdf|4090|dock6
  -GOLD-   22720 1583D 1   1.00000     0.00000
 Structure written by MMmdl.
 43 44  0  0  0  0  0  0  0  0  1 V2000
  152.8433  142.4338  161.1146 C   0  0  0  0  0  0  0  0  0  0  0  0
  152.5470  142.2859  159.6354 C   0  0  0  0  0  0  0  0  0  0  0  0
  152.6698  143.5713  158.8357 C   0  0  0  0  0  0  0  0  0  0  0  0
  152.2032  141.0986  159.1001 C   0  0  0  0  0  0  0  0  0  0  0  0
  151.8728  140.8179  157.6773 C   0  0  2  0  0  0  0  0  0  0  0  0
  150.5977  140.0914  157.2848 C   0  0  1  0  0  0  0  0  0  0  0  0
  149.8588  140.5503  156.0652 C   0  0  0  0  0  0  0  0  0  0  0  0
  150.3378  140.4906  154.9327 O   0  0  0  0  0  0  0  0  0  0  0  0
  148.6386  141.0417  156.3464 N   0  0  0  0  0  0  0  0  0  0  0  0
  147.6652  141.5650  155.4563 C   0  0  0  0  0  0  0  0  0  0  0  0
  147.6624  141.4285  154.0354 C   0  0  0  0  0  0  0  0  0  0  0  0
  146.5348  142.1003  153.6587 C   0  0  0  0  0  0  0  0  0  0  0  0
  145.9369  142.5858  154.8044 N   0  0  0  0  0  0  0  0  0  0  0  0
  144.7141  143.3598  154.9239 C   0  0  0  0  0  0  0  0  0  0  0  0
  143.6354  142.5758  155.6732 C   0  0  0  0  0  0  0  0  0  0  0  0
  142.5363  142.2446  154.9903 N   0  0  0  0  0  0  0  0  0  0  0  0
  143.7917  142.2723  156.8538 O   0  0  0  0  0  0  0  0  0  0  0  0
  146.6359  142.2573  155.9134 N   0  0  0  0  0  0  0  0  0  0  0  0
  151.9501  139.4037  157.1276 C   0  0  0  0  0  0  0  0  0  0  0  0
  152.6154  139.1769  155.7747 C   0  0  0  0  0  0  0  0  0  0  0  0
  152.2444  138.2191  158.0360 C   0  0  0  0  0  0  0  0  0  0  0  0
  153.8632  142.7898  161.2624 H   0  0  0  0  0  0  0  0  0  0  0  0
  152.7352  141.4861  161.6436 H   0  0  0  0  0  0  0  0  0  0  0  0
  152.1598  143.1535  161.5659 H   0  0  0  0  0  0  0  0  0  0  0  0
  151.9180  144.2900  159.1622 H   0  0  0  0  0  0  0  0  0  0  0  0
  152.5460  143.4137  157.7652 H   0  0  0  0  0  0  0  0  0  0  0  0
  153.6540  144.0143  158.9898 H   0  0  0  0  0  0  0  0  0  0  0  0
  152.1590  140.2388  159.7526 H   0  0  0  0  0  0  0  0  0  0  0  0
  152.2412  141.6072  157.0243 H   0  0  0  0  0  0  0  0  0  0  0  0
  149.9714  139.7231  158.0968 H   0  0  0  0  0  0  0  0  0  0  0  0
  148.3713  141.0355  157.3200 H   0  0  0  0  0  0  0  0  0  0  0  0
  148.3607  140.9264  153.3836 H   0  0  0  0  0  0  0  0  0  0  0  0
  146.1105  142.2697  152.6801 H   0  0  0  0  0  0  0  0  0  0  0  0
  144.9237  144.2940  155.4476 H   0  0  0  0  0  0  0  0  0  0  0  0
  144.3664  143.6245  153.9245 H   0  0  0  0  0  0  0  0  0  0  0  0
  141.7955  141.7291  155.4423 H   0  0  0  0  0  0  0  0  0  0  0  0
  142.4502  142.5147  154.0210 H   0  0  0  0  0  0  0  0  0  0  0  0
  152.0994  138.3877  155.2273 H   0  0  0  0  0  0  0  0  0  0  0  0
  153.6561  138.8808  155.9082 H   0  0  0  0  0  0  0  0  0  0  0  0
  152.6118  140.0805  155.1664 H   0  0  0  0  0  0  0  0  0  0  0  0
  151.9018  137.2932  157.5733 H   0  0  0  0  0  0  0  0  0  0  0  0
  151.7380  138.3239  158.9960 H   0  0  0  0  0  0  0  0  0  0  0  0
  153.3157  138.1396  158.2226 H   0  0  0  0  0  0  0  0  0  0  0  0
  1  2  1  0  0  0  0
  1 22  1  0  0  0  0
  1 23  1  0  0  0  0
  1 24  1  0  0  0  0
  2  3  1  0  0  0  0
  2  4  2  0  0  0  0
  3 25  1  0  0  0  0
  3 26  1  0  0  0  0
  3 27  1  0  0  0  0
  4  5  1  0  0  0  0
  4 28  1  0  0  0  0
  5 19  1  0  0  0  0
  5  6  1  0  0  0  0
  5 29  1  0  0  0  0
  6  7  1  0  0  0  0
  6 19  1  0  0  0  0
  6 30  1  0  0  0  0
  7  8  2  0  0  0  0
  7  9  1  0  0  0  0
  9 10  1  0  0  0  0
  9 31  1  0  0  0  0
 10 18  2  0  0  0  0
 10 11  1  0  0  0  0
 11 12  2  0  0  0  0
 11 32  1  0  0  0  0
 12 13  1  0  0  0  0
 12 33  1  0  0  0  0
 13 14  1  0  0  0  0
 13 18  1  0  0  0  0
 14 15  1  0  0  0  0
 14 34  1  0  0  0  0
 14 35  1  0  0  0  0
 15 16  1  0  0  0  0
 15 17  2  0  0  0  0
 16 36  1  0  0  0  0
 16 37  1  0  0  0  0
 19 20  1  0  0  0  0
 19 21  1  0  0  0  0
 20 38  1  0  0  0  0
 20 39  1  0  0  0  0
 20 40  1  0  0  0  0
 21 41  1  0  0  0  0
 21 42  1  0  0  0  0
 21 43  1  0  0  0  0
M  END
> <s_m_source_file>
AV-unprocessed.smi

> <i_m_source_file_index>
901

> <i_lp_mmshare_version>
43012

> <i_f3d_flags>
0

> <s_epik_input>
W0NIM11DKFtDSDNdKT1bQ0hdW0NAQEhdKEMxKFtDSDNdKVtDSDNdKVtDQEhdMUMoPU8pW05IXWMyW2NIXVtjSF1uKG4yKVtDSDJdQyg9TylbTkgyXQ==

> <s_epik_cmdline>
J2VwaWtfcHl0aG9uJywgJy1waCcsICc3LjAnLCAnLXRuJywgJzgnLCAnLW1hJywgJzIwMCcsICctbWV0YWxfYmluZGluZycsICctaW1hZScsICc8aW5maWxlLm1hZT4nLCAnLW9tYWUnLCAnPG91dGZpbGUubWFlPic=

> <r_lp_tautomer_probability>
1

> <r_epik_Ionization_Penalty>
1.01454e-05

> <r_epik_Ionization_Penalty_Charging>
0

> <r_epik_Ionization_Penalty_Neutral>
1.01454e-05

> <r_epik_State_Penalty>
-0

> <r_epik_Charging_Adjusted_Penalty>
0

> <i_epik_Tot_Q>
0

> <i_epik_Tot_abs_Q>
0

> <r_epik_Metal_State_Penalty>
-0

> <b_epik_Metal_Only>
0

> <s_lp_Force_Field>
OPLS_2005

> <r_lp_Energy>
20.5353

> <b_lp_Chiralities_Consistent>
1

> <s_lp_Variant>
AV-unprocessed.smi:901-1

> <Gold.Version>
5.8.1

> <Gold.Id.Protein>
6NUR|6NUR_protein|mol2

> <Gold.PLP.Fitness>
44.0470

> <Gold.PLP.PLP>
-38.5218

> <Gold.PLP.part.hbond>
-2.0097

> <Gold.PLP.part.metal>
0.0000

> <Gold.PLP.part.buried>
-5.1592

> <Gold.PLP.part.nonpolar>
-32.1605

> <Gold.PLP.part.repulsive>
0.5839

> <Gold.PLP.ligand.clash>
0.0000

> <Gold.PLP.ligand.torsion>
0.3153

> <Gold.PLP.Chemscore.Hbond>
1.9920

> <Gold.PLP.Chemscore.CHOScore>
0.0000

> <Gold.PLP.Chemscore.Metal>
0.0000

> <Gold.Chemscore.Hbonds>
donor molecule, donor type, donor heavy atom, donor atom, acceptor molecule, acceptor atom, score
      L1  H    16    37       P1 10174  1.00
      P1  H  7989  7998       L1     8  0.99

> <Gold.PLP.Chemscore.Internal.Correction>
0.1799

> <Gold.Rescore>
     Score         DG    S(hbond)    S(metal)    S(lipo)     H(rot)  DE(clash)    DE(int)     intcor
     13.80     -17.05       1.84        0.00      92.90       2.13       0.38       2.87       ----

> <Gold.Chemscore.Fitness>
13.7974

> <Gold.Chemscore.DG>
-17.0470

> <Gold.Chemscore.ZeroCoef>
-5.4800

> <Gold.Chemscore.Hbond>
1.8422

> <Gold.Chemscore.Metal>
0.0000

> <Gold.Chemscore.Lipo>
92.8976

> <Gold.Chemscore.Internal_Hbond>
0.0000

> <Gold.Chemscore.DEClash>
0.3774

> <Gold.Chemscore.DEInternal>
2.8722

> <Gold.Chemscore.Rot>
2.1309

> <Gold.Chemscore.Internal.Correction>
   9.000000E+99

> <Gold.Chemscore.Hbonds>
donor molecule, donor type, donor heavy atom, donor atom, acceptor molecule, acceptor atom, score
      L1  H    16    37       P1 10174  0.78
      P1  H  7989  7998       L1     8  0.93

> <Gold.Chemscore.Hbond.Weighted>
-6.1531

> <Gold.Chemscore.Metal.Weighted>
-0.0000

> <Gold.Chemscore.Lipo.Weighted>
-10.8690

> <Gold.Chemscore.Internal_Hbond.Weighted>
0.0000

> <Gold.Chemscore.DEClash.Weighted>
0.3774

> <Gold.Chemscore.DEInternal.Weighted>
2.8722

> <Gold.Chemscore.Rot.Weighted>
5.4552

> <Gold.Chemscore.Internal.Correction.Weighted>
   9.000000E+99

> <Gold.Protein.RotatedTorsions>
[ 6907 6896 6895 6894 ] final  103.61 input  -60.11 | X-H torsion
[ 7974 7965 7964 7962 ] final   80.95 input  175.53 | X-H torsion
[ 8008 7997 7996 7995 ] final -135.40 input   59.86 | X-H torsion
[ 10167 10162 10161 10158 ] final -147.07 input  -65.29 | X-H torsion
[ 10718 10713 10712 10709 ] final -103.48 input   66.30 | X-H torsion
[ 10763 10752 10751 10750 ] final  -40.89 input  -60.55 | X-H torsion
[ 11005 11000 10999 10996 ] final  -37.62 input  -57.11 | X-H torsion

> <Gold.Protein.ActiveResidues>
 VAL166  LYS551  ARG553  GLY616  TRP617  ASP618  TYR619  PRO620  LYS621  CYS622 
 ASP623  PHE694  ASN695  SER759  ASP760  ASP761  ALA762  ILE779  LEU786  VAL792 
 PHE793  MET794  SER795  GLU796  ALA797  LYS798  CYS799  TRP800  GLU811  SER814 

> <Gold.Protein.RotatedAtoms>
  152.5290  133.9801  159.7802 H   0  0  0  0  0  0  0  0  0  0  0  0  # atno 6907 bound_to 6896
  151.0056  133.6006  159.2696 H   0  0  0  0  0  0  0  0  0  0  0  0  # atno 6908 bound_to 6896
  151.3099  135.0798  159.9322 H   0  0  0  0  0  0  0  0  0  0  0  0  # atno 6909 bound_to 6896
  145.6446  139.2433  143.2011 H   0  0  0  0  0  0  0  0  0  0  0  0  # atno 7974 bound_to 7965
  155.3781  140.0492  157.3044 H   0  0  0  0  0  0  0  0  0  0  0  0  # atno 8008 bound_to 7997
  154.5096  140.2187  155.9145 H   0  0  0  0  0  0  0  0  0  0  0  0  # atno 8009 bound_to 7997
  156.1567  140.3125  155.8743 H   0  0  0  0  0  0  0  0  0  0  0  0  # atno 8010 bound_to 7997
  139.7656  143.8313  152.2615 H   0  0  0  0  0  0  0  0  0  0  0  0  # atno 10167 bound_to 10162
  156.0267  130.5469  150.7258 H   0  0  0  0  0  0  0  0  0  0  0  0  # atno 10718 bound_to 10713
  153.9534  135.6748  153.4744 H   0  0  0  0  0  0  0  0  0  0  0  0  # atno 10763 bound_to 10752
  153.0873  135.4892  154.8618 H   0  0  0  0  0  0  0  0  0  0  0  0  # atno 10764 bound_to 10752
  154.7312  135.3139  154.8847 H   0  0  0  0  0  0  0  0  0  0  0  0  # atno 10765 bound_to 10752
  140.9966  133.6977  156.1945 H   0  0  0  0  0  0  0  0  0  0  0  0  # atno 11005 bound_to 11000
  146.1253  140.7256  142.9438 LP  0  0  0  0  0  0  0  0  0  0  0  0  # atno 17320 bound_to 7965
  144.7145  140.4159  143.7055 LP  0  0  0  0  0  0  0  0  0  0  0  0  # atno 17321 bound_to 7965
  139.8332  144.7244  150.9424 LP  0  0  0  0  0  0  0  0  0  0  0  0  # atno 17342 bound_to 10162
  140.7810  143.4051  151.1085 LP  0  0  0  0  0  0  0  0  0  0  0  0  # atno 17343 bound_to 10162
  157.4863  131.0907  151.0479 LP  0  0  0  0  0  0  0  0  0  0  0  0  # atno 17370 bound_to 10713
  157.0898  130.5937  149.5437 LP  0  0  0  0  0  0  0  0  0  0  0  0  # atno 17371 bound_to 10713
  140.6957  134.4618  157.5587 LP  0  0  0  0  0  0  0  0  0  0  0  0  # atno 17394 bound_to 11000
  139.9017  134.8540  156.1867 LP  0  0  0  0  0  0  0  0  0  0  0  0  # atno 17395 bound_to 11000

$$$$
