AV-unprocessed.smi:2789|AV-procd|sdf|10765|dock1
  -GOLD-   2272015203D 1   1.00000     0.00000
 Structure written by MMmdl.
 35 36  0  0  0  0  0  0  0  0  1 V2000
  142.5807  137.3541  153.3369 C   0  0  0  0  0  0  0  0  0  0  0  0
  143.5927  136.9743  154.2553 O   0  0  0  0  0  0  0  0  0  0  0  0
  144.5849  136.1271  153.6924 C   0  0  1  0  0  0  0  0  0  0  0  0
  144.0127  134.7667  153.2751 C   0  0  0  0  0  0  0  0  0  0  0  0
  144.8865  134.3350  152.1031 C   0  0  0  0  0  0  0  0  0  0  0  0
  145.1492  135.6341  151.3413 C   0  0  0  0  0  0  0  0  0  0  0  0
  145.1505  136.7546  152.3981 C   0  0  2  0  0  0  0  0  0  0  0  0
  146.5040  137.2669  152.5954 N   0  0  0  0  0  0  0  0  0  0  0  0
  146.8091  138.3680  153.2971 C   0  0  0  0  0  0  0  0  0  0  0  0
  145.9653  139.0755  153.8479 O   0  0  0  0  0  0  0  0  0  0  0  0
  148.1368  138.5778  153.3197 N   0  0  0  0  0  0  0  0  0  0  0  0
  148.8270  139.5793  153.9277 C   0  0  0  0  0  0  0  0  0  0  0  0
  148.4160  140.8504  154.2238 C   0  0  0  0  0  0  0  0  0  0  0  0
  149.5708  141.4119  154.8399 C   0  0  0  0  0  0  0  0  0  0  0  0
  150.5884  140.5625  154.9090 N   0  0  0  0  0  0  0  0  0  0  0  0
  150.1320  139.4245  154.3419 N   0  0  0  0  0  0  0  0  0  0  0  0
  150.9960  138.2642  154.2461 C   0  0  0  0  0  0  0  0  0  0  0  0
  141.8490  137.9844  153.8421 H   0  0  0  0  0  0  0  0  0  0  0  0
  142.0567  136.4811  152.9459 H   0  0  0  0  0  0  0  0  0  0  0  0
  142.9897  137.9216  152.5007 H   0  0  0  0  0  0  0  0  0  0  0  0
  145.3965  135.9670  154.4057 H   0  0  0  0  0  0  0  0  0  0  0  0
  144.0124  134.0413  154.0890 H   0  0  0  0  0  0  0  0  0  0  0  0
  142.9832  134.8851  152.9334 H   0  0  0  0  0  0  0  0  0  0  0  0
  145.8275  133.9279  152.4755 H   0  0  0  0  0  0  0  0  0  0  0  0
  144.4132  133.5728  151.4834 H   0  0  0  0  0  0  0  0  0  0  0  0
  146.0692  135.5869  150.7568 H   0  0  0  0  0  0  0  0  0  0  0  0
  144.3335  135.8065  150.6376 H   0  0  0  0  0  0  0  0  0  0  0  0
  144.5059  137.5632  152.0472 H   0  0  0  0  0  0  0  0  0  0  0  0
  147.2564  136.7415  152.1750 H   0  0  0  0  0  0  0  0  0  0  0  0
  148.7032  137.8957  152.8373 H   0  0  0  0  0  0  0  0  0  0  0  0
  147.4611  141.3192  154.0389 H   0  0  0  0  0  0  0  0  0  0  0  0
  149.7007  142.4082  155.2362 H   0  0  0  0  0  0  0  0  0  0  0  0
  150.5573  137.4351  154.8017 H   0  0  0  0  0  0  0  0  0  0  0  0
  151.9820  138.4830  154.6584 H   0  0  0  0  0  0  0  0  0  0  0  0
  151.1064  137.9754  153.2007 H   0  0  0  0  0  0  0  0  0  0  0  0
  1  2  1  0  0  0  0
  1 18  1  0  0  0  0
  1 19  1  0  0  0  0
  1 20  1  0  0  0  0
  2  3  1  0  0  0  0
  3  7  1  0  0  0  0
  3  4  1  0  0  0  0
  3 21  1  0  0  0  0
  4  5  1  0  0  0  0
  4 22  1  0  0  0  0
  4 23  1  0  0  0  0
  5  6  1  0  0  0  0
  5 24  1  0  0  0  0
  5 25  1  0  0  0  0
  6  7  1  0  0  0  0
  6 26  1  0  0  0  0
  6 27  1  0  0  0  0
  7  8  1  0  0  0  0
  7 28  1  0  0  0  0
  8  9  1  0  0  0  0
  8 29  1  0  0  0  0
  9 10  2  0  0  0  0
  9 11  1  0  0  0  0
 11 12  1  0  0  0  0
 11 30  1  0  0  0  0
 12 16  1  0  0  0  0
 12 13  2  0  0  0  0
 13 14  1  0  0  0  0
 13 31  1  0  0  0  0
 14 15  2  0  0  0  0
 14 32  1  0  0  0  0
 15 16  1  0  0  0  0
 16 17  1  0  0  0  0
 17 33  1  0  0  0  0
 17 34  1  0  0  0  0
 17 35  1  0  0  0  0
M  END
> <s_m_source_file>
AV-unprocessed.smi

> <i_m_source_file_index>
2789

> <i_lp_mmshare_version>
43012

> <i_f3d_flags>
0

> <s_epik_input>
W0NIM11PW0NAQEhdMVtDSDJdW0NIMl1bQ0gyXVtDQEhdMVtOSF1DKD1PKVtOSF1jMltjSF1bY0hdbm4yW0NIM10=

> <s_epik_cmdline>
J2VwaWtfcHl0aG9uJywgJy1waCcsICc3LjAnLCAnLXRuJywgJzgnLCAnLW1hJywgJzIwMCcsICctbWV0YWxfYmluZGluZycsICctaW1hZScsICc8aW5maWxlLm1hZT4nLCAnLW9tYWUnLCAnPG91dGZpbGUubWFlPic=

> <r_lp_tautomer_probability>
1

> <r_epik_Ionization_Penalty>
4.40608e-05

> <r_epik_Ionization_Penalty_Charging>
0

> <r_epik_Ionization_Penalty_Neutral>
4.40608e-05

> <r_epik_State_Penalty>
-0

> <r_epik_Charging_Adjusted_Penalty>
0

> <i_epik_Tot_Q>
0

> <i_epik_Tot_abs_Q>
0

> <r_epik_Metal_State_Penalty>
-0

> <b_epik_Metal_Only>
0

> <s_lp_Force_Field>
OPLS_2005

> <r_lp_Energy>
20.286

> <b_lp_Chiralities_Consistent>
1

> <s_lp_Variant>
AV-unprocessed.smi:2789-4

> <Gold.Version>
5.8.1

> <Gold.Id.Protein>
6NUR|6NUR_protein|mol2

> <Gold.PLP.Fitness>
38.8628

> <Gold.PLP.PLP>
-28.8009

> <Gold.PLP.part.hbond>
-4.0000

> <Gold.PLP.part.metal>
0.0000

> <Gold.PLP.part.buried>
-2.4379

> <Gold.PLP.part.nonpolar>
-24.1691

> <Gold.PLP.part.repulsive>
1.5066

> <Gold.PLP.ligand.clash>
0.0000

> <Gold.PLP.ligand.torsion>
0.2960

> <Gold.PLP.Chemscore.Hbond>
2.5500

> <Gold.PLP.Chemscore.CHOScore>
0.9961

> <Gold.PLP.Chemscore.Metal>
0.0000

> <Gold.Chemscore.Hbonds>
donor molecule, donor type, donor heavy atom, donor atom, acceptor molecule, acceptor atom, score
      L1  H     8    29       P1  7948  1.00
      L1  H    11    30       P1  7948  1.00
      P1  H  7989  7998       L1    15  0.55
      L1  C    14    32       P1  8028  1.00

> <Gold.PLP.Chemscore.Internal.Correction>
0.0155

> <Gold.Rescore>
     Score         DG    S(hbond)    S(metal)    S(lipo)     H(rot)  DE(clash)    DE(int)     intcor
     13.22     -14.39       1.97        0.00      47.66       1.27       0.05       1.12       ----

> <Gold.Chemscore.Fitness>
13.2165

> <Gold.Chemscore.DG>
-14.3930

> <Gold.Chemscore.ZeroCoef>
-5.4800

> <Gold.Chemscore.Hbond>
1.9734

> <Gold.Chemscore.Metal>
0.0000

> <Gold.Chemscore.Lipo>
47.6600

> <Gold.Chemscore.Internal_Hbond>
0.0000

> <Gold.Chemscore.DEClash>
0.0544

> <Gold.Chemscore.DEInternal>
1.1221

> <Gold.Chemscore.Rot>
1.2712

> <Gold.Chemscore.Internal.Correction>
   9.000000E+99

> <Gold.Chemscore.Hbonds>
donor molecule, donor type, donor heavy atom, donor atom, acceptor molecule, acceptor atom, score
      L1  H     8    29       P1  7948  0.99
      L1  H    11    30       P1  7948  0.97
      P1  H  7989  7998       L1    15  0.02

> <Gold.Chemscore.Hbond.Weighted>
-6.5912

> <Gold.Chemscore.Metal.Weighted>
-0.0000

> <Gold.Chemscore.Lipo.Weighted>
-5.5762

> <Gold.Chemscore.Internal_Hbond.Weighted>
0.0000

> <Gold.Chemscore.DEClash.Weighted>
0.0544

> <Gold.Chemscore.DEInternal.Weighted>
1.1221

> <Gold.Chemscore.Rot.Weighted>
3.2544

> <Gold.Chemscore.Internal.Correction.Weighted>
   9.000000E+99

> <Gold.Protein.RotatedTorsions>
[ 6907 6896 6895 6894 ] final   10.17 input  -60.11 | X-H torsion
[ 7974 7965 7964 7962 ] final  123.98 input  175.53 | X-H torsion
[ 8008 7997 7996 7995 ] final  -26.65 input   59.86 | X-H torsion
[ 10167 10162 10161 10158 ] final -154.90 input  -65.29 | X-H torsion
[ 10718 10713 10712 10709 ] final -110.00 input   66.30 | X-H torsion
[ 10763 10752 10751 10750 ] final  -75.18 input  -60.55 | X-H torsion
[ 11005 11000 10999 10996 ] final  -64.70 input  -57.11 | X-H torsion

> <Gold.Protein.ActiveResidues>
 VAL166  LYS551  ARG553  GLY616  TRP617  ASP618  TYR619  PRO620  LYS621  CYS622 
 ASP623  PHE694  ASN695  SER759  ASP760  ASP761  ALA762  ILE779  LEU786  VAL792 
 PHE793  MET794  SER795  GLU796  ALA797  LYS798  CYS799  TRP800  GLU811  SER814 

> <Gold.Protein.RotatedAtoms>
  151.7339  135.0869  160.0304 H   0  0  0  0  0  0  0  0  0  0  0  0  # atno 6907 bound_to 6896
  152.3523  133.6190  159.5962 H   0  0  0  0  0  0  0  0  0  0  0  0  # atno 6908 bound_to 6896
  150.7548  133.9471  159.3516 H   0  0  0  0  0  0  0  0  0  0  0  0  # atno 6909 bound_to 6896
  145.0897  139.3596  143.4867 H   0  0  0  0  0  0  0  0  0  0  0  0  # atno 7974 bound_to 7965
  154.4414  140.1893  156.0809 H   0  0  0  0  0  0  0  0  0  0  0  0  # atno 8008 bound_to 7997
  156.0439  140.3316  155.7248 H   0  0  0  0  0  0  0  0  0  0  0  0  # atno 8009 bound_to 7997
  155.5658  140.0608  157.2809 H   0  0  0  0  0  0  0  0  0  0  0  0  # atno 8010 bound_to 7997
  139.6975  143.9318  152.2414 H   0  0  0  0  0  0  0  0  0  0  0  0  # atno 10167 bound_to 10162
  156.0567  130.5792  150.8177 H   0  0  0  0  0  0  0  0  0  0  0  0  # atno 10718 bound_to 10713
  154.4830  135.5840  153.6403 H   0  0  0  0  0  0  0  0  0  0  0  0  # atno 10763 bound_to 10752
  152.9850  135.6094  154.3222 H   0  0  0  0  0  0  0  0  0  0  0  0  # atno 10764 bound_to 10752
  154.3114  135.2845  155.2543 H   0  0  0  0  0  0  0  0  0  0  0  0  # atno 10765 bound_to 10752
  141.1432  133.6670  156.5873 H   0  0  0  0  0  0  0  0  0  0  0  0  # atno 11005 bound_to 11000
  146.3531  140.0725  142.8622 LP  0  0  0  0  0  0  0  0  0  0  0  0  # atno 17320 bound_to 7965
  145.1081  140.9388  143.4673 LP  0  0  0  0  0  0  0  0  0  0  0  0  # atno 17321 bound_to 7965
  139.9151  144.6833  150.8520 LP  0  0  0  0  0  0  0  0  0  0  0  0  # atno 17342 bound_to 10162
  140.7700  143.3415  151.2198 LP  0  0  0  0  0  0  0  0  0  0  0  0  # atno 17343 bound_to 10162
  157.5542  131.0944  150.9652 LP  0  0  0  0  0  0  0  0  0  0  0  0  # atno 17370 bound_to 10713
  156.9904  130.5561  149.5303 LP  0  0  0  0  0  0  0  0  0  0  0  0  # atno 17371 bound_to 10713
  140.3791  134.7539  157.4649 LP  0  0  0  0  0  0  0  0  0  0  0  0  # atno 17394 bound_to 11000
  140.0652  134.5940  155.8704 LP  0  0  0  0  0  0  0  0  0  0  0  0  # atno 17395 bound_to 11000

$$$$
