AV-unprocessed.smi:1198|AV-procd|sdf|5011|dock4
  -GOLD-   22720 4 23D 1   1.00000     0.00000
 Structure written by MMmdl.
 40 41  0  0  0  0  0  0  0  0  2 V2000
  151.9754  140.9466  158.1243 C   0  0  0  0  0  0  0  0  0  0  0  0
  152.3797  140.2592  156.9451 O   0  0  0  0  0  0  0  0  0  0  0  0
  151.4066  139.6696  156.1648 C   0  0  0  0  0  0  0  0  0  0  0  0
  151.7997  138.9900  154.9956 C   0  0  0  0  0  0  0  0  0  0  0  0
  150.8097  138.3863  154.1980 C   0  0  0  0  0  0  0  0  0  0  0  0
  149.4578  138.4752  154.5876 C   0  0  0  0  0  0  0  0  0  0  0  0
  148.4921  137.8531  153.7478 N   0  0  0  0  0  0  0  0  0  0  0  0
  147.1598  138.0272  153.6998 C   0  0  0  0  0  0  0  0  0  0  0  0
  146.5096  138.7956  154.4070 O   0  0  0  0  0  0  0  0  0  0  0  0
  146.6042  137.2345  152.7718 N   0  0  0  0  0  0  0  0  0  0  0  0
  145.1806  137.1738  152.4526 C   0  0  0  0  0  0  0  0  0  0  0  0
  144.6507  135.7268  152.4310 C   0  0  1  0  0  0  0  0  0  0  0  0
  143.2138  135.5463  152.9220 C   0  0  0  0  0  0  0  0  0  0  0  0
  142.8225  134.1989  152.3233 C   0  0  0  0  0  0  0  0  0  0  0  0
  143.4813  134.1556  151.0009 N   0  3  2  0  0  0  0  0  0  0  0  0
  143.8256  132.7944  150.5396 C   0  0  0  0  0  0  0  0  0  0  0  0
  144.6209  135.1032  151.0273 C   0  0  0  0  0  0  0  0  0  0  0  0
  149.1649  139.1858  155.7784 C   0  0  0  0  0  0  0  0  0  0  0  0
  150.1101  139.7662  156.5482 N   0  0  0  0  0  0  0  0  0  0  0  0
  152.8547  141.3516  158.6249 H   0  0  0  0  0  0  0  0  0  0  0  0
  151.4750  140.2765  158.8251 H   0  0  0  0  0  0  0  0  0  0  0  0
  151.3132  141.7819  157.8921 H   0  0  0  0  0  0  0  0  0  0  0  0
  152.8411  138.9328  154.7156 H   0  0  0  0  0  0  0  0  0  0  0  0
  151.0895  137.8601  153.2968 H   0  0  0  0  0  0  0  0  0  0  0  0
  148.8659  137.1671  153.1083 H   0  0  0  0  0  0  0  0  0  0  0  0
  147.2143  136.6332  152.2374 H   0  0  0  0  0  0  0  0  0  0  0  0
  144.6022  137.7853  153.1475 H   0  0  0  0  0  0  0  0  0  0  0  0
  145.0452  137.6241  151.4690 H   0  0  0  0  0  0  0  0  0  0  0  0
  145.2964  135.1074  153.0562 H   0  0  0  0  0  0  0  0  0  0  0  0
  143.1286  135.5636  154.0091 H   0  0  0  0  0  0  0  0  0  0  0  0
  142.5726  136.3318  152.5191 H   0  0  0  0  0  0  0  0  0  0  0  0
  143.2051  133.3968  152.9571 H   0  0  0  0  0  0  0  0  0  0  0  0
  141.7427  134.0742  152.2385 H   0  0  0  0  0  0  0  0  0  0  0  0
  144.5427  132.3210  151.2116 H   0  0  0  0  0  0  0  0  0  0  0  0
  144.2622  132.8296  149.5411 H   0  0  0  0  0  0  0  0  0  0  0  0
  142.9323  132.1705  150.4953 H   0  0  0  0  0  0  0  0  0  0  0  0
  144.4400  135.8625  150.2655 H   0  0  0  0  0  0  0  0  0  0  0  0
  145.5713  134.6227  150.7897 H   0  0  0  0  0  0  0  0  0  0  0  0
  148.1606  139.3156  156.1464 H   0  0  0  0  0  0  0  0  0  0  0  0
  142.8198  134.5359  150.3388 H   0  0  0  0  0  0  0  0  0  0  0  0
  1  2  1  0  0  0  0
  1 20  1  0  0  0  0
  1 21  1  0  0  0  0
  1 22  1  0  0  0  0
  2  3  1  0  0  0  0
  3 19  1  0  0  0  0
  3  4  2  0  0  0  0
  4  5  1  0  0  0  0
  4 23  1  0  0  0  0
  5  6  2  0  0  0  0
  5 24  1  0  0  0  0
  6  7  1  0  0  0  0
  6 18  1  0  0  0  0
  7  8  1  0  0  0  0
  7 25  1  0  0  0  0
  8  9  2  0  0  0  0
  8 10  1  0  0  0  0
 10 11  1  0  0  0  0
 10 26  1  0  0  0  0
 11 12  1  0  0  0  0
 11 27  1  0  0  0  0
 11 28  1  0  0  0  0
 12 17  1  0  0  0  0
 12 13  1  0  0  0  0
 12 29  1  0  0  0  0
 13 14  1  0  0  0  0
 13 30  1  0  0  0  0
 13 31  1  0  0  0  0
 14 15  1  0  0  0  0
 14 32  1  0  0  0  0
 14 33  1  0  0  0  0
 15 16  1  0  0  0  0
 15 17  1  0  0  0  0
 15 40  1  0  0  0  0
 16 34  1  0  0  0  0
 16 35  1  0  0  0  0
 16 36  1  0  0  0  0
 17 37  1  0  0  0  0
 17 38  1  0  0  0  0
 18 19  2  0  0  0  0
 18 39  1  0  0  0  0
M  CHG  1  15   1
M  END
> <s_m_source_file>
AV-unprocessed.smi

> <i_m_source_file_index>
1198

> <i_lp_mmshare_version>
43012

> <i_f3d_flags>
0

> <s_epik_input>
W0NIM11PYzFbY0hdW2NIXWMoW2NIXW4xKVtOSF1DKD1PKVtOSF1bQ0gyXVtDQEBIXTJbQ0gyXVtDSDJdTihbQ0gzXSlbQ0gyXTI=

> <s_epik_cmdline>
J2VwaWtfcHl0aG9uJywgJy1waCcsICc3LjAnLCAnLXRuJywgJzgnLCAnLW1hJywgJzIwMCcsICctbWV0YWxfYmluZGluZycsICctaW1hZScsICc8aW5maWxlLm1hZT4nLCAnLW9tYWUnLCAnPG91dGZpbGUubWFlPic=

> <r_lp_tautomer_probability>
1

> <r_epik_Ionization_Penalty>
0.00131396

> <r_epik_Ionization_Penalty_Charging>
0.0012301

> <r_epik_Ionization_Penalty_Neutral>
8.38549e-05

> <r_epik_State_Penalty>
0.00081314

> <r_epik_Charging_Adjusted_Penalty>
0.00204324

> <i_epik_Tot_Q>
1

> <i_epik_Tot_abs_Q>
1

> <r_epik_Metal_State_Penalty>
-0

> <b_epik_Metal_Only>
0

> <s_lp_Force_Field>
OPLS_2005

> <r_lp_Energy>
29.7758

> <b_lp_Chiralities_Consistent>
1

> <s_lp_Variant>
AV-unprocessed.smi:1198-2

> <Gold.Version>
5.8.1

> <Gold.Id.Protein>
6NUR|6NUR_protein|mol2

> <Gold.PLP.Fitness>
43.0823

> <Gold.PLP.PLP>
-29.7031

> <Gold.PLP.part.hbond>
-3.9728

> <Gold.PLP.part.metal>
0.0000

> <Gold.PLP.part.buried>
-3.6248

> <Gold.PLP.part.nonpolar>
-22.8881

> <Gold.PLP.part.repulsive>
0.1588

> <Gold.PLP.ligand.clash>
0.0000

> <Gold.PLP.ligand.torsion>
0.5858

> <Gold.PLP.Chemscore.Hbond>
4.8480

> <Gold.PLP.Chemscore.CHOScore>
0.0000

> <Gold.PLP.Chemscore.Metal>
0.0000

> <Gold.Chemscore.Hbonds>
donor molecule, donor type, donor heavy atom, donor atom, acceptor molecule, acceptor atom, score
      L1  H     7    25       P1  7948  1.00
      L1  H    10    26       P1  7948  0.91
      L1  H    15    40       P1 10186  1.89
      P1  H  7997  8010       L1     2  1.00

> <Gold.PLP.Chemscore.Internal.Correction>
0.0068

> <Gold.Rescore>
     Score         DG    S(hbond)    S(metal)    S(lipo)     H(rot)  DE(clash)    DE(int)     intcor
     19.15     -19.92       3.26        0.00      63.52       1.51       0.08       0.69       ----

> <Gold.Chemscore.Fitness>
19.1545

> <Gold.Chemscore.DG>
-19.9154

> <Gold.Chemscore.ZeroCoef>
-5.4800

> <Gold.Chemscore.Hbond>
3.2580

> <Gold.Chemscore.Metal>
0.0000

> <Gold.Chemscore.Lipo>
63.5185

> <Gold.Chemscore.Internal_Hbond>
0.0000

> <Gold.Chemscore.DEClash>
0.0758

> <Gold.Chemscore.DEInternal>
0.6851

> <Gold.Chemscore.Rot>
1.5149

> <Gold.Chemscore.Internal.Correction>
   9.000000E+99

> <Gold.Chemscore.Hbonds>
donor molecule, donor type, donor heavy atom, donor atom, acceptor molecule, acceptor atom, score
      L1  H     7    25       P1  7948  0.94
      L1  H    10    26       P1  7948  0.90
      L1  H    15    40       P1 10186  0.50
      P1  H  7997  8010       L1     2  0.87

> <Gold.Chemscore.Hbond.Weighted>
-10.8819

> <Gold.Chemscore.Metal.Weighted>
-0.0000

> <Gold.Chemscore.Lipo.Weighted>
-7.4317

> <Gold.Chemscore.Internal_Hbond.Weighted>
0.0000

> <Gold.Chemscore.DEClash.Weighted>
0.0758

> <Gold.Chemscore.DEInternal.Weighted>
0.6851

> <Gold.Chemscore.Rot.Weighted>
3.8781

> <Gold.Chemscore.Internal.Correction.Weighted>
   9.000000E+99

> <Gold.Protein.RotatedTorsions>
[ 6907 6896 6895 6894 ] final  -48.50 input  -60.11 | X-H torsion
[ 7974 7965 7964 7962 ] final -115.55 input  175.53 | X-H torsion
[ 8008 7997 7996 7995 ] final   64.58 input   59.86 | X-H torsion
[ 10167 10162 10161 10158 ] final   73.56 input  -65.29 | X-H torsion
[ 10718 10713 10712 10709 ] final -145.01 input   66.30 | X-H torsion
[ 10763 10752 10751 10750 ] final  -41.55 input  -60.55 | X-H torsion
[ 11005 11000 10999 10996 ] final   12.62 input  -57.11 | X-H torsion

> <Gold.Protein.ActiveResidues>
 VAL166  LYS551  ARG553  GLY616  TRP617  ASP618  TYR619  PRO620  LYS621  CYS622 
 ASP623  PHE694  ASN695  SER759  ASP760  ASP761  ALA762  ILE779  LEU786  VAL792 
 PHE793  MET794  SER795  GLU796  ALA797  LYS798  CYS799  TRP800  GLU811  SER814 

> <Gold.Protein.RotatedAtoms>
  150.8899  134.8301  159.7285 H   0  0  0  0  0  0  0  0  0  0  0  0  # atno 6907 bound_to 6896
  152.4830  134.4665  159.9631 H   0  0  0  0  0  0  0  0  0  0  0  0  # atno 6908 bound_to 6896
  151.4729  133.3526  159.2861 H   0  0  0  0  0  0  0  0  0  0  0  0  # atno 6909 bound_to 6896
  145.1071  140.8588  143.3892 H   0  0  0  0  0  0  0  0  0  0  0  0  # atno 7974 bound_to 7965
  155.6483  140.3497  155.4739 H   0  0  0  0  0  0  0  0  0  0  0  0  # atno 8008 bound_to 7997
  155.9869  140.1186  157.0698 H   0  0  0  0  0  0  0  0  0  0  0  0  # atno 8009 bound_to 7997
  154.4207  140.1127  156.5498 H   0  0  0  0  0  0  0  0  0  0  0  0  # atno 8010 bound_to 7997
  140.0232  144.5524  150.7565 H   0  0  0  0  0  0  0  0  0  0  0  0  # atno 10167 bound_to 10162
  156.3772  130.7818  151.2006 H   0  0  0  0  0  0  0  0  0  0  0  0  # atno 10718 bound_to 10713
  153.9643  135.6736  153.4745 H   0  0  0  0  0  0  0  0  0  0  0  0  # atno 10763 bound_to 10752
  153.0823  135.4917  154.8524 H   0  0  0  0  0  0  0  0  0  0  0  0  # atno 10764 bound_to 10752
  154.7255  135.3126  154.8938 H   0  0  0  0  0  0  0  0  0  0  0  0  # atno 10765 bound_to 10752
  140.4900  134.0850  155.7769 H   0  0  0  0  0  0  0  0  0  0  0  0  # atno 11005 bound_to 11000
  145.0890  139.2904  143.5745 LP  0  0  0  0  0  0  0  0  0  0  0  0  # atno 17320 bound_to 7965
  146.3528  140.0420  142.8642 LP  0  0  0  0  0  0  0  0  0  0  0  0  # atno 17321 bound_to 7965
  140.7333  143.2716  151.3870 LP  0  0  0  0  0  0  0  0  0  0  0  0  # atno 17342 bound_to 10162
  139.6126  144.1068  152.2313 LP  0  0  0  0  0  0  0  0  0  0  0  0  # atno 17343 bound_to 10162
  157.7489  131.0355  150.4365 LP  0  0  0  0  0  0  0  0  0  0  0  0  # atno 17370 bound_to 10713
  156.4602  130.4030  149.6581 LP  0  0  0  0  0  0  0  0  0  0  0  0  # atno 17371 bound_to 10713
  141.1489  133.9005  157.2147 LP  0  0  0  0  0  0  0  0  0  0  0  0  # atno 17394 bound_to 11000
  139.9775  135.0109  156.9668 LP  0  0  0  0  0  0  0  0  0  0  0  0  # atno 17395 bound_to 11000

$$$$
