AV-unprocessed.smi:2223|AV-procd|sdf|8990|dock5
  -GOLD-   2272012203D 1   1.00000     0.00000
 Structure written by MMmdl.
 46 47  0  0  0  0  0  0  0  0  1 V2000
  144.1332  132.2261  149.9342 C   0  0  0  0  0  0  0  0  0  0  0  0
  144.1090  133.2295  151.0682 C   0  0  0  0  0  0  0  0  0  0  0  0
  142.8933  133.5988  151.6743 C   0  0  0  0  0  0  0  0  0  0  0  0
  142.9325  134.5332  152.7278 C   0  0  0  0  0  0  0  0  0  0  0  0
  141.6628  134.9743  153.4252 C   0  0  0  0  0  0  0  0  0  0  0  0
  144.0786  135.0836  153.1818 N   0  0  0  0  0  0  0  0  0  0  0  0
  145.2563  134.7335  152.6074 C   0  0  0  0  0  0  0  0  0  0  0  0
  146.5149  135.2542  153.0110 N   0  0  0  0  0  0  0  0  0  0  0  0
  146.9108  135.6036  154.2479 C   0  0  0  0  0  0  0  0  0  0  0  0
  146.2241  135.5208  155.2666 O   0  0  0  0  0  0  0  0  0  0  0  0
  148.1729  136.0568  154.2455 N   0  0  0  0  0  0  0  0  0  0  0  0
  148.9004  136.4984  155.4325 C   0  0  1  0  0  0  0  0  0  0  0  0
  150.0744  135.5779  155.7788 C   0  0  0  0  0  0  0  0  0  0  0  0
  151.2170  136.5404  156.0516 C   0  0  0  0  0  0  0  0  0  0  0  0
  152.2985  136.1478  156.4874 O   0  0  0  0  0  0  0  0  0  0  0  0
  150.8851  137.8121  155.7567 N   0  0  0  0  0  0  0  0  0  0  0  0
  151.7603  139.0096  155.8644 C   0  0  0  0  0  0  0  0  0  0  0  0
  152.3437  139.1121  157.2917 C   0  0  0  0  0  0  0  0  0  0  0  0
  150.9870  140.3191  155.5783 C   0  0  0  0  0  0  0  0  0  0  0  0
  152.9097  138.9105  154.8365 C   0  0  0  0  0  0  0  0  0  0  0  0
  149.5267  137.8847  155.2175 C   0  0  0  0  0  0  0  0  0  0  0  0
  145.3048  133.8061  151.5424 C   0  0  0  0  0  0  0  0  0  0  0  0
  143.1900  132.2343  149.3868 H   0  0  0  0  0  0  0  0  0  0  0  0
  144.2960  131.2216  150.3249 H   0  0  0  0  0  0  0  0  0  0  0  0
  144.9342  132.4561  149.2310 H   0  0  0  0  0  0  0  0  0  0  0  0
  141.9564  133.1760  151.3414 H   0  0  0  0  0  0  0  0  0  0  0  0
  140.7785  134.6489  152.8771 H   0  0  0  0  0  0  0  0  0  0  0  0
  141.6293  136.0611  153.5080 H   0  0  0  0  0  0  0  0  0  0  0  0
  141.6187  134.5513  154.4290 H   0  0  0  0  0  0  0  0  0  0  0  0
  147.1942  135.3666  152.2733 H   0  0  0  0  0  0  0  0  0  0  0  0
  148.6672  136.0930  153.3661 H   0  0  0  0  0  0  0  0  0  0  0  0
  148.2201  136.5481  156.2854 H   0  0  0  0  0  0  0  0  0  0  0  0
  149.8629  134.9564  156.6496 H   0  0  0  0  0  0  0  0  0  0  0  0
  150.3505  134.9271  154.9479 H   0  0  0  0  0  0  0  0  0  0  0  0
  152.9337  140.0215  157.4113 H   0  0  0  0  0  0  0  0  0  0  0  0
  153.0018  138.2783  157.5348 H   0  0  0  0  0  0  0  0  0  0  0  0
  151.5517  139.1366  158.0411 H   0  0  0  0  0  0  0  0  0  0  0  0
  150.1854  140.4845  156.2987 H   0  0  0  0  0  0  0  0  0  0  0  0
  150.5529  140.3280  154.5779 H   0  0  0  0  0  0  0  0  0  0  0  0
  151.6471  141.1850  155.6420 H   0  0  0  0  0  0  0  0  0  0  0  0
  153.5333  139.8049  154.8547 H   0  0  0  0  0  0  0  0  0  0  0  0
  152.5236  138.8026  153.8222 H   0  0  0  0  0  0  0  0  0  0  0  0
  153.5686  138.0644  155.0296 H   0  0  0  0  0  0  0  0  0  0  0  0
  149.5818  138.1390  154.1574 H   0  0  0  0  0  0  0  0  0  0  0  0
  148.9269  138.6446  155.7187 H   0  0  0  0  0  0  0  0  0  0  0  0
  146.2498  133.5351  151.0937 H   0  0  0  0  0  0  0  0  0  0  0  0
  1  2  1  0  0  0  0
  1 23  1  0  0  0  0
  1 24  1  0  0  0  0
  1 25  1  0  0  0  0
  2 22  1  0  0  0  0
  2  3  2  0  0  0  0
  3  4  1  0  0  0  0
  3 26  1  0  0  0  0
  4  5  1  0  0  0  0
  4  6  2  0  0  0  0
  5 27  1  0  0  0  0
  5 28  1  0  0  0  0
  5 29  1  0  0  0  0
  6  7  1  0  0  0  0
  7  8  1  0  0  0  0
  7 22  2  0  0  0  0
  8  9  1  0  0  0  0
  8 30  1  0  0  0  0
  9 10  2  0  0  0  0
  9 11  1  0  0  0  0
 11 12  1  0  0  0  0
 11 31  1  0  0  0  0
 12 21  1  0  0  0  0
 12 13  1  0  0  0  0
 12 32  1  0  0  0  0
 13 14  1  0  0  0  0
 13 33  1  0  0  0  0
 13 34  1  0  0  0  0
 14 15  2  0  0  0  0
 14 16  1  0  0  0  0
 16 17  1  0  0  0  0
 16 21  1  0  0  0  0
 17 18  1  0  0  0  0
 17 19  1  0  0  0  0
 17 20  1  0  0  0  0
 18 35  1  0  0  0  0
 18 36  1  0  0  0  0
 18 37  1  0  0  0  0
 19 38  1  0  0  0  0
 19 39  1  0  0  0  0
 19 40  1  0  0  0  0
 20 41  1  0  0  0  0
 20 42  1  0  0  0  0
 20 43  1  0  0  0  0
 21 44  1  0  0  0  0
 21 45  1  0  0  0  0
 22 46  1  0  0  0  0
M  END
> <s_m_source_file>
AV-unprocessed.smi

> <i_m_source_file_index>
2223

> <i_lp_mmshare_version>
43012

> <i_f3d_flags>
0

> <s_epik_input>
W0NIM11jMVtjSF1jKFtDSDNdKW5jKFtjSF0xKVtOSF1DKD1PKVtOSF1bQ0BASF0yW0NIMl1DKD1PKU4oW0NIMl0yKUMoW0NIM10pKFtDSDNdKVtDSDNd

> <s_epik_cmdline>
J2VwaWtfcHl0aG9uJywgJy1waCcsICc3LjAnLCAnLXRuJywgJzgnLCAnLW1hJywgJzIwMCcsICctbWV0YWxfYmluZGluZycsICctaW1hZScsICc8aW5maWxlLm1hZT4nLCAnLW9tYWUnLCAnPG91dGZpbGUubWFlPic=

> <r_lp_tautomer_probability>
1

> <r_epik_Ionization_Penalty>
0.000228403

> <r_epik_Ionization_Penalty_Charging>
0

> <r_epik_Ionization_Penalty_Neutral>
0.000228403

> <r_epik_State_Penalty>
-0

> <r_epik_Charging_Adjusted_Penalty>
0

> <i_epik_Tot_Q>
0

> <i_epik_Tot_abs_Q>
0

> <r_epik_Metal_State_Penalty>
-0

> <b_epik_Metal_Only>
0

> <s_lp_Force_Field>
OPLS_2005

> <r_lp_Energy>
29.0753

> <b_lp_Chiralities_Consistent>
1

> <s_lp_Variant>
AV-unprocessed.smi:2223-2

> <Gold.Version>
5.8.1

> <Gold.Id.Protein>
6NUR|6NUR_protein|mol2

> <Gold.PLP.Fitness>
40.8339

> <Gold.PLP.PLP>
-33.1549

> <Gold.PLP.part.hbond>
-2.9196

> <Gold.PLP.part.metal>
0.0000

> <Gold.PLP.part.buried>
-2.2668

> <Gold.PLP.part.nonpolar>
-28.5514

> <Gold.PLP.part.repulsive>
0.0954

> <Gold.PLP.ligand.clash>
0.0000

> <Gold.PLP.ligand.torsion>
0.4824

> <Gold.PLP.Chemscore.Hbond>
2.8713

> <Gold.PLP.Chemscore.CHOScore>
0.0000

> <Gold.PLP.Chemscore.Metal>
0.0000

> <Gold.Chemscore.Hbonds>
donor molecule, donor type, donor heavy atom, donor atom, acceptor molecule, acceptor atom, score
      L1  H     8    30       P1  7948  0.88
      L1  H    11    31       P1  7948  0.99
      P1  H 10752 10763       L1    15  1.00

> <Gold.PLP.Chemscore.Internal.Correction>
0.0300

> <Gold.Rescore>
     Score         DG    S(hbond)    S(metal)    S(lipo)     H(rot)  DE(clash)    DE(int)     intcor
     19.54     -20.77       2.76        0.00      78.12       1.21       0.05       1.18       ----

> <Gold.Chemscore.Fitness>
19.5378

> <Gold.Chemscore.DG>
-20.7668

> <Gold.Chemscore.ZeroCoef>
-5.4800

> <Gold.Chemscore.Hbond>
2.7642

> <Gold.Chemscore.Metal>
0.0000

> <Gold.Chemscore.Lipo>
78.1231

> <Gold.Chemscore.Internal_Hbond>
0.0000

> <Gold.Chemscore.DEClash>
0.0462

> <Gold.Chemscore.DEInternal>
1.1828

> <Gold.Chemscore.Rot>
1.2055

> <Gold.Chemscore.Internal.Correction>
   9.000000E+99

> <Gold.Chemscore.Hbonds>
donor molecule, donor type, donor heavy atom, donor atom, acceptor molecule, acceptor atom, score
      L1  H     8    30       P1  7948  0.85
      L1  H    11    31       P1  7948  0.92
      P1  H 10752 10763       L1    15  0.94

> <Gold.Chemscore.Hbond.Weighted>
-9.2325

> <Gold.Chemscore.Metal.Weighted>
-0.0000

> <Gold.Chemscore.Lipo.Weighted>
-9.1404

> <Gold.Chemscore.Internal_Hbond.Weighted>
0.0000

> <Gold.Chemscore.DEClash.Weighted>
0.0462

> <Gold.Chemscore.DEInternal.Weighted>
1.1828

> <Gold.Chemscore.Rot.Weighted>
3.0861

> <Gold.Chemscore.Internal.Correction.Weighted>
   9.000000E+99

> <Gold.Protein.RotatedTorsions>
[ 6907 6896 6895 6894 ] final   30.75 input  -60.11 | X-H torsion
[ 7974 7965 7964 7962 ] final  126.80 input  175.53 | X-H torsion
[ 8008 7997 7996 7995 ] final  158.07 input   59.86 | X-H torsion
[ 10167 10162 10161 10158 ] final  -92.81 input  -65.29 | X-H torsion
[ 10718 10713 10712 10709 ] final   46.48 input   66.30 | X-H torsion
[ 10763 10752 10751 10750 ] final  112.40 input  -60.55 | X-H torsion
[ 11005 11000 10999 10996 ] final  124.73 input  -57.11 | X-H torsion

> <Gold.Protein.ActiveResidues>
 VAL166  LYS551  ARG553  GLY616  TRP617  ASP618  TYR619  PRO620  LYS621  CYS622 
 ASP623  PHE694  ASN695  SER759  ASP760  ASP761  ALA762  ILE779  LEU786  VAL792 
 PHE793  MET794  SER795  GLU796  ALA797  LYS798  CYS799  TRP800  GLU811  SER814 

> <Gold.Protein.RotatedAtoms>
  152.0504  134.9657  160.0574 H   0  0  0  0  0  0  0  0  0  0  0  0  # atno 6907 bound_to 6896
  152.1060  133.4270  159.4617 H   0  0  0  0  0  0  0  0  0  0  0  0  # atno 6908 bound_to 6896
  150.6841  134.2623  159.4597 H   0  0  0  0  0  0  0  0  0  0  0  0  # atno 6909 bound_to 6896
  145.0576  139.3831  143.5022 H   0  0  0  0  0  0  0  0  0  0  0  0  # atno 7974 bound_to 7965
  156.2325  140.1868  156.7205 H   0  0  0  0  0  0  0  0  0  0  0  0  # atno 8008 bound_to 7997
  154.6048  140.0630  156.9444 H   0  0  0  0  0  0  0  0  0  0  0  0  # atno 8009 bound_to 7997
  155.2114  140.3300  155.4331 H   0  0  0  0  0  0  0  0  0  0  0  0  # atno 8010 bound_to 7997
  140.3311  143.2994  151.9941 H   0  0  0  0  0  0  0  0  0  0  0  0  # atno 10167 bound_to 10162
  157.4485  130.8124  149.7765 H   0  0  0  0  0  0  0  0  0  0  0  0  # atno 10718 bound_to 10713
  153.4773  135.3687  155.2423 H   0  0  0  0  0  0  0  0  0  0  0  0  # atno 10763 bound_to 10752
  154.8756  135.3946  154.3741 H   0  0  0  0  0  0  0  0  0  0  0  0  # atno 10764 bound_to 10752
  153.4339  135.7083  153.6278 H   0  0  0  0  0  0  0  0  0  0  0  0  # atno 10765 bound_to 10752
  139.9372  134.9638  156.8453 H   0  0  0  0  0  0  0  0  0  0  0  0  # atno 11005 bound_to 11000
  146.3522  140.0258  142.8654 LP  0  0  0  0  0  0  0  0  0  0  0  0  # atno 17320 bound_to 7965
  145.1448  140.9591  143.4467 LP  0  0  0  0  0  0  0  0  0  0  0  0  # atno 17321 bound_to 7965
  139.4856  144.6234  151.7211 LP  0  0  0  0  0  0  0  0  0  0  0  0  # atno 17342 bound_to 10162
  140.5397  144.0600  150.6083 LP  0  0  0  0  0  0  0  0  0  0  0  0  # atno 17343 bound_to 10162
  155.9977  130.3898  150.2729 LP  0  0  0  0  0  0  0  0  0  0  0  0  # atno 17370 bound_to 10713
  157.0899  131.0166  151.3125 LP  0  0  0  0  0  0  0  0  0  0  0  0  # atno 17371 bound_to 10713
  140.6044  134.0142  155.7550 LP  0  0  0  0  0  0  0  0  0  0  0  0  # atno 17394 bound_to 11000
  141.0992  133.9795  157.3108 LP  0  0  0  0  0  0  0  0  0  0  0  0  # atno 17395 bound_to 11000

$$$$
