AV-unprocessed.smi:2999|AV-procd|sdf|11422|dock6
  -GOLD-   2272016343D 1   1.00000     0.00000
 Structure written by MMmdl.
 38 40  0  0  0  0  0  0  0  0  2 V2000
  144.6745  137.0667  152.3131 O   0  0  0  0  0  0  0  0  0  0  0  0
  145.8615  136.7586  152.2095 C   0  0  0  0  0  0  0  0  0  0  0  0
  146.8679  137.6142  152.4393 N   0  0  0  0  0  0  0  0  0  0  0  0
  146.7163  139.0187  152.8124 C   0  0  0  0  0  0  0  0  0  0  0  0
  147.6699  139.4476  153.9449 C   0  0  1  0  0  0  0  0  0  0  0  0
  149.1386  139.0182  153.7402 C   0  0  0  0  0  0  0  0  0  0  0  0
  149.9712  139.4844  154.8714 N   0  3  1  0  0  0  0  0  0  0  0  0
  151.3826  139.0610  154.7452 C   0  0  0  0  0  0  0  0  0  0  0  0
  151.6477  137.6680  155.2667 C   0  0  0  0  0  0  0  0  0  0  0  0
  152.0815  138.8734  156.0713 C   0  0  0  0  0  0  0  0  0  0  0  0
  149.8335  140.9480  155.0478 C   0  0  0  0  0  0  0  0  0  0  0  0
  148.3524  141.3299  155.2067 C   0  0  0  0  0  0  0  0  0  0  0  0
  147.6116  140.8645  154.0841 O   0  0  0  0  0  0  0  0  0  0  0  0
  146.3224  135.5447  151.8686 N   0  0  0  0  0  0  0  0  0  0  0  0
  145.5682  134.3799  151.5820 C   0  0  0  0  0  0  0  0  0  0  0  0
  144.2457  134.4865  151.4420 N   0  0  0  0  0  0  0  0  0  0  0  0
  143.6470  133.2554  151.1585 C   0  0  0  0  0  0  0  0  0  0  0  0
  144.5371  132.2126  151.0858 C   0  0  0  0  0  0  0  0  0  0  0  0
  146.1751  132.7354  151.3716 S   0  0  0  0  0  0  0  0  0  0  0  0
  147.8127  137.2735  152.3362 H   0  0  0  0  0  0  0  0  0  0  0  0
  146.9151  139.6209  151.9255 H   0  0  0  0  0  0  0  0  0  0  0  0
  145.6840  139.2336  153.0932 H   0  0  0  0  0  0  0  0  0  0  0  0
  147.2991  138.9967  154.8673 H   0  0  0  0  0  0  0  0  0  0  0  0
  149.2014  137.9324  153.6585 H   0  0  0  0  0  0  0  0  0  0  0  0
  149.5406  139.4338  152.8157 H   0  0  0  0  0  0  0  0  0  0  0  0
  151.9264  139.4382  153.8807 H   0  0  0  0  0  0  0  0  0  0  0  0
  150.8066  137.0890  155.6437 H   0  0  0  0  0  0  0  0  0  0  0  0
  152.4279  137.0893  154.7765 H   0  0  0  0  0  0  0  0  0  0  0  0
  153.1476  139.0873  156.1125 H   0  0  0  0  0  0  0  0  0  0  0  0
  151.5283  139.0930  156.9829 H   0  0  0  0  0  0  0  0  0  0  0  0
  150.3962  141.2687  155.9251 H   0  0  0  0  0  0  0  0  0  0  0  0
  150.2614  141.4630  154.1861 H   0  0  0  0  0  0  0  0  0  0  0  0
  147.9397  140.9142  156.1275 H   0  0  0  0  0  0  0  0  0  0  0  0
  148.2486  142.4130  155.2729 H   0  0  0  0  0  0  0  0  0  0  0  0
  147.3246  135.4369  151.8167 H   0  0  0  0  0  0  0  0  0  0  0  0
  142.5766  133.2120  151.0220 H   0  0  0  0  0  0  0  0  0  0  0  0
  144.3292  131.1726  150.8820 H   0  0  0  0  0  0  0  0  0  0  0  0
  149.6057  139.0494  155.7065 H   0  0  0  0  0  0  0  0  0  0  0  0
  1  2  2  0  0  0  0
  2  3  1  0  0  0  0
  2 14  1  0  0  0  0
  3  4  1  0  0  0  0
  3 20  1  0  0  0  0
  4  5  1  0  0  0  0
  4 21  1  0  0  0  0
  4 22  1  0  0  0  0
  5 13  1  0  0  0  0
  5  6  1  0  0  0  0
  5 23  1  0  0  0  0
  6  7  1  0  0  0  0
  6 24  1  0  0  0  0
  6 25  1  0  0  0  0
  7  8  1  0  0  0  0
  7 11  1  0  0  0  0
  7 38  1  0  0  0  0
  8 10  1  0  0  0  0
  8  9  1  0  0  0  0
  8 26  1  0  0  0  0
  9 10  1  0  0  0  0
  9 27  1  0  0  0  0
  9 28  1  0  0  0  0
 10 29  1  0  0  0  0
 10 30  1  0  0  0  0
 11 12  1  0  0  0  0
 11 31  1  0  0  0  0
 11 32  1  0  0  0  0
 12 13  1  0  0  0  0
 12 33  1  0  0  0  0
 12 34  1  0  0  0  0
 14 15  1  0  0  0  0
 14 35  1  0  0  0  0
 15 19  1  0  0  0  0
 15 16  2  0  0  0  0
 16 17  1  0  0  0  0
 17 18  2  0  0  0  0
 17 36  1  0  0  0  0
 18 19  1  0  0  0  0
 18 37  1  0  0  0  0
M  CHG  1   7   1
M  END
> <s_m_source_file>
AV-unprocessed.smi

> <i_m_source_file_index>
2999

> <i_lp_mmshare_version>
43012

> <i_f3d_flags>
0

> <s_epik_input>
czFbY0hdW2NIXW5jMVtOSF1DKD1PKVtOSF1bQ0gyXVtDQEBIXTJbQ0gyXU4oW0NIMl1bQ0gyXU8yKVtDSF0zW0NIMl1bQ0gyXTM=

> <s_epik_cmdline>
J2VwaWtfcHl0aG9uJywgJy1waCcsICc3LjAnLCAnLXRuJywgJzgnLCAnLW1hJywgJzIwMCcsICctbWV0YWxfYmluZGluZycsICctaW1hZScsICc8aW5maWxlLm1hZT4nLCAnLW9tYWUnLCAnPG91dGZpbGUubWFlPic=

> <r_lp_tautomer_probability>
0.999

> <r_epik_Ionization_Penalty>
1.55235

> <r_epik_Ionization_Penalty_Charging>
1.55221

> <r_epik_Ionization_Penalty_Neutral>
0.000139685

> <r_epik_State_Penalty>
1.64652

> <r_epik_Charging_Adjusted_Penalty>
3.19873

> <i_epik_Tot_Q>
1

> <i_epik_Tot_abs_Q>
1

> <r_epik_Metal_State_Penalty>
1.68612

> <b_epik_Metal_Only>
0

> <s_lp_Force_Field>
OPLS_2005

> <r_lp_Energy>
20.9615

> <b_lp_Chiralities_Consistent>
1

> <s_lp_Variant>
AV-unprocessed.smi:2999-6

> <Gold.Version>
5.8.1

> <Gold.Id.Protein>
6NUR|6NUR_protein|mol2

> <Gold.PLP.Fitness>
38.9452

> <Gold.PLP.PLP>
-30.3147

> <Gold.PLP.part.hbond>
-2.0000

> <Gold.PLP.part.metal>
0.0000

> <Gold.PLP.part.buried>
-1.3389

> <Gold.PLP.part.nonpolar>
-28.2605

> <Gold.PLP.part.repulsive>
1.5106

> <Gold.PLP.ligand.clash>
0.0000

> <Gold.PLP.ligand.torsion>
0.8158

> <Gold.PLP.Chemscore.Hbond>
2.0000

> <Gold.PLP.Chemscore.CHOScore>
1.0000

> <Gold.PLP.Chemscore.Metal>
0.0000

> <Gold.Chemscore.Hbonds>
donor molecule, donor type, donor heavy atom, donor atom, acceptor molecule, acceptor atom, score
      L1  H     3    20       P1  7948  1.00
      L1  H    14    35       P1  7948  0.98
      L1  C    17    36       P1 10186  1.00

> <Gold.PLP.Chemscore.Internal.Correction>
1.2620

> <Gold.Rescore>
     Score         DG    S(hbond)    S(metal)    S(lipo)     H(rot)  DE(clash)    DE(int)     intcor
     13.60     -16.04       1.94        0.00      69.50       1.58       0.23       2.21       ----

> <Gold.Chemscore.Fitness>
13.5977

> <Gold.Chemscore.DG>
-16.0373

> <Gold.Chemscore.ZeroCoef>
-5.4800

> <Gold.Chemscore.Hbond>
1.9370

> <Gold.Chemscore.Metal>
0.0000

> <Gold.Chemscore.Lipo>
69.4960

> <Gold.Chemscore.Internal_Hbond>
0.0000

> <Gold.Chemscore.DEClash>
0.2261

> <Gold.Chemscore.DEInternal>
2.2135

> <Gold.Chemscore.Rot>
1.5795

> <Gold.Chemscore.Internal.Correction>
   9.000000E+99

> <Gold.Chemscore.Hbonds>
donor molecule, donor type, donor heavy atom, donor atom, acceptor molecule, acceptor atom, score
      L1  H     3    20       P1  7948  0.97
      L1  H    14    35       P1  7948  0.93

> <Gold.Chemscore.Hbond.Weighted>
-6.4697

> <Gold.Chemscore.Metal.Weighted>
-0.0000

> <Gold.Chemscore.Lipo.Weighted>
-8.1310

> <Gold.Chemscore.Internal_Hbond.Weighted>
0.0000

> <Gold.Chemscore.DEClash.Weighted>
0.2261

> <Gold.Chemscore.DEInternal.Weighted>
2.2135

> <Gold.Chemscore.Rot.Weighted>
4.0434

> <Gold.Chemscore.Internal.Correction.Weighted>
   9.000000E+99

> <Gold.Protein.RotatedTorsions>
[ 6907 6896 6895 6894 ] final   -7.45 input  -60.11 | X-H torsion
[ 7974 7965 7964 7962 ] final -108.00 input  175.53 | X-H torsion
[ 8008 7997 7996 7995 ] final  146.00 input   59.86 | X-H torsion
[ 10167 10162 10161 10158 ] final -110.77 input  -65.29 | X-H torsion
[ 10718 10713 10712 10709 ] final  178.97 input   66.30 | X-H torsion
[ 10763 10752 10751 10750 ] final -158.45 input  -60.55 | X-H torsion
[ 11005 11000 10999 10996 ] final  175.34 input  -57.11 | X-H torsion

> <Gold.Protein.ActiveResidues>
 VAL166  LYS551  ARG553  GLY616  TRP617  ASP618  TYR619  PRO620  LYS621  CYS622 
 ASP623  PHE694  ASN695  SER759  ASP760  ASP761  ALA762  ILE779  LEU786  VAL792 
 PHE793  MET794  SER795  GLU796  ALA797  LYS798  CYS799  TRP800  GLU811  SER814 

> <Gold.Protein.RotatedAtoms>
  151.4494  135.1028  159.9693 H   0  0  0  0  0  0  0  0  0  0  0  0  # atno 6907 bound_to 6896
  152.4893  133.8454  159.7184 H   0  0  0  0  0  0  0  0  0  0  0  0  # atno 6908 bound_to 6896
  150.9032  133.7032  159.2901 H   0  0  0  0  0  0  0  0  0  0  0  0  # atno 6909 bound_to 6896
  145.1983  140.9045  143.3384 H   0  0  0  0  0  0  0  0  0  0  0  0  # atno 7974 bound_to 7965
  156.2868  140.2194  156.5305 H   0  0  0  0  0  0  0  0  0  0  0  0  # atno 8008 bound_to 7997
  154.7452  140.0484  157.0868 H   0  0  0  0  0  0  0  0  0  0  0  0  # atno 8009 bound_to 7997
  155.0179  140.3120  155.4807 H   0  0  0  0  0  0  0  0  0  0  0  0  # atno 8010 bound_to 7997
  140.1408  143.4280  152.1563 H   0  0  0  0  0  0  0  0  0  0  0  0  # atno 10167 bound_to 10162
  156.8827  130.9821  151.3060 H   0  0  0  0  0  0  0  0  0  0  0  0  # atno 10718 bound_to 10713
  154.7555  135.3103  154.8477 H   0  0  0  0  0  0  0  0  0  0  0  0  # atno 10763 bound_to 10752
  153.9252  135.6791  153.4751 H   0  0  0  0  0  0  0  0  0  0  0  0  # atno 10764 bound_to 10752
  153.1153  135.4847  154.9034 H   0  0  0  0  0  0  0  0  0  0  0  0  # atno 10765 bound_to 10752
  140.3611  134.7112  157.4332 H   0  0  0  0  0  0  0  0  0  0  0  0  # atno 11005 bound_to 11000
  144.9972  139.3632  143.6185 LP  0  0  0  0  0  0  0  0  0  0  0  0  # atno 17320 bound_to 7965
  146.3422  139.9180  142.8770 LP  0  0  0  0  0  0  0  0  0  0  0  0  # atno 17321 bound_to 7965
  139.5473  144.7309  151.4545 LP  0  0  0  0  0  0  0  0  0  0  0  0  # atno 17342 bound_to 10162
  140.6761  143.8186  150.7060 LP  0  0  0  0  0  0  0  0  0  0  0  0  # atno 17343 bound_to 10162
  157.6131  130.8597  149.8983 LP  0  0  0  0  0  0  0  0  0  0  0  0  # atno 17370 bound_to 10713
  156.0669  130.3691  150.0859 LP  0  0  0  0  0  0  0  0  0  0  0  0  # atno 17371 bound_to 10713
  140.0626  134.5975  155.8732 LP  0  0  0  0  0  0  0  0  0  0  0  0  # atno 17394 bound_to 11000
  141.1984  133.6601  156.5788 LP  0  0  0  0  0  0  0  0  0  0  0  0  # atno 17395 bound_to 11000

$$$$
