AV-unprocessed.smi:628|AV-procd|sdf|3114|dock9
  -GOLD-   22720 0 33D 1   1.00000     0.00000
 Structure written by MMmdl.
 31 32  0  0  0  0  0  0  0  0  2 V2000
  151.6601  141.5776  158.0137 O   0  0  0  0  0  0  0  0  0  0  0  0
  150.9818  142.2482  157.2336 C   0  0  0  0  0  0  0  0  0  0  0  0
  150.1577  141.5882  156.1208 C   0  0  0  0  0  0  0  0  0  0  0  0
  150.6090  140.2444  155.7990 N   0  0  0  0  0  0  0  0  0  0  0  0
  149.9653  139.0468  156.0491 C   0  0  0  0  0  0  0  0  0  0  0  0
  150.7952  138.0840  155.5597 C   0  0  0  0  0  0  0  0  0  0  0  0
  150.5596  136.6069  155.5802 C   0  0  0  0  0  0  0  0  0  0  0  0
  149.5207  136.1773  156.1280 O   0  0  0  0  0  0  0  0  0  0  0  0
  151.4120  135.8605  155.0499 O   0  5  0  0  0  0  0  0  0  0  0  0
  151.9260  138.7556  155.0272 C   0  0  0  0  0  0  0  0  0  0  0  0
  151.8032  140.0678  155.1741 N   0  0  0  0  0  0  0  0  0  0  0  0
  150.9053  143.5862  157.2958 N   0  0  0  0  0  0  0  0  0  0  0  0
  151.6044  144.4245  158.2664 C   0  0  0  0  0  0  0  0  0  0  0  0
  153.0979  144.0532  158.3682 C   0  0  0  0  0  0  0  0  0  0  0  0
  153.2681  143.3590  159.7193 C   0  0  0  0  0  0  0  0  0  0  0  0
  152.2143  144.0116  160.6079 C   0  0  0  0  0  0  0  0  0  0  0  0
  151.0189  144.2315  159.6788 C   0  0  0  0  0  0  0  0  0  0  0  0
  149.1128  141.5371  156.4294 H   0  0  0  0  0  0  0  0  0  0  0  0
  150.1975  142.2036  155.2206 H   0  0  0  0  0  0  0  0  0  0  0  0
  149.0045  138.9874  156.5384 H   0  0  0  0  0  0  0  0  0  0  0  0
  152.8057  138.3489  154.5504 H   0  0  0  0  0  0  0  0  0  0  0  0
  150.3244  144.0594  156.6188 H   0  0  0  0  0  0  0  0  0  0  0  0
  151.5100  145.4726  157.9749 H   0  0  0  0  0  0  0  0  0  0  0  0
  153.4517  143.4331  157.5435 H   0  0  0  0  0  0  0  0  0  0  0  0
  153.6938  144.9668  158.3572 H   0  0  0  0  0  0  0  0  0  0  0  0
  153.0537  142.2945  159.6159 H   0  0  0  0  0  0  0  0  0  0  0  0
  154.2773  143.4594  160.1194 H   0  0  0  0  0  0  0  0  0  0  0  0
  151.9638  143.4050  161.4785 H   0  0  0  0  0  0  0  0  0  0  0  0
  152.5830  144.9733  160.9671 H   0  0  0  0  0  0  0  0  0  0  0  0
  150.4112  145.0811  159.9918 H   0  0  0  0  0  0  0  0  0  0  0  0
  150.3777  143.3489  159.7135 H   0  0  0  0  0  0  0  0  0  0  0  0
  1  2  2  0  0  0  0
  2  3  1  0  0  0  0
  2 12  1  0  0  0  0
  3  4  1  0  0  0  0
  3 18  1  0  0  0  0
  3 19  1  0  0  0  0
  4 11  1  0  0  0  0
  4  5  1  0  0  0  0
  5  6  2  0  0  0  0
  5 20  1  0  0  0  0
  6  7  1  0  0  0  0
  6 10  1  0  0  0  0
  7  8  2  0  0  0  0
  7  9  1  0  0  0  0
 10 11  2  0  0  0  0
 10 21  1  0  0  0  0
 12 13  1  0  0  0  0
 12 22  1  0  0  0  0
 13 17  1  0  0  0  0
 13 14  1  0  0  0  0
 13 23  1  0  0  0  0
 14 15  1  0  0  0  0
 14 24  1  0  0  0  0
 14 25  1  0  0  0  0
 15 16  1  0  0  0  0
 15 26  1  0  0  0  0
 15 27  1  0  0  0  0
 16 17  1  0  0  0  0
 16 28  1  0  0  0  0
 16 29  1  0  0  0  0
 17 30  1  0  0  0  0
 17 31  1  0  0  0  0
M  CHG  1   9  -1
M  END
> <s_m_source_file>
AV-unprocessed.smi

> <i_m_source_file_index>
628

> <i_lp_mmshare_version>
43012

> <i_f3d_flags>
0

> <s_epik_input>
W0NIMl0xW0NIMl1bQ0gyXVtDSDJdW0NIXTFbTkhdQyg9TylbQ0gyXW4yW2NIXWMoW2NIXW4yKUMoPU8pW09IXQ==

> <s_epik_cmdline>
J2VwaWtfcHl0aG9uJywgJy1waCcsICc3LjAnLCAnLXRuJywgJzgnLCAnLW1hJywgJzIwMCcsICctbWV0YWxfYmluZGluZycsICctaW1hZScsICc8aW5maWxlLm1hZT4nLCAnLW9tYWUnLCAnPG91dGZpbGUubWFlPic=

> <r_epik_Ionization_Penalty>
0.000955839

> <r_epik_Ionization_Penalty_Charging>
0.000925564

> <r_epik_Ionization_Penalty_Neutral>
3.02757e-05

> <r_epik_State_Penalty>
0.000600209

> <r_epik_Charging_Adjusted_Penalty>
0.00152577

> <i_epik_Tot_Q>
-1

> <i_epik_Tot_abs_Q>
1

> <r_epik_Metal_State_Penalty>
-0

> <b_epik_Metal_Only>
0

> <s_lp_Force_Field>
OPLS_2005

> <r_lp_Energy>
22.3574

> <b_lp_Chiralities_Consistent>
1

> <s_lp_Variant>
AV-unprocessed.smi:628-1

> <Gold.Version>
5.8.1

> <Gold.Id.Protein>
6NUR|6NUR_protein|mol2

> <Gold.PLP.Fitness>
48.4466

> <Gold.PLP.PLP>
-37.9059

> <Gold.PLP.part.hbond>
-3.0000

> <Gold.PLP.part.metal>
0.0000

> <Gold.PLP.part.buried>
-5.5779

> <Gold.PLP.part.nonpolar>
-30.0828

> <Gold.PLP.part.repulsive>
0.2862

> <Gold.PLP.ligand.clash>
0.0000

> <Gold.PLP.ligand.torsion>
0.4811

> <Gold.PLP.Chemscore.Hbond>
3.8320

> <Gold.PLP.Chemscore.CHOScore>
0.0000

> <Gold.PLP.Chemscore.Metal>
0.0000

> <Gold.Chemscore.Hbonds>
donor molecule, donor type, donor heavy atom, donor atom, acceptor molecule, acceptor atom, score
      L1  H    12    22       P1  8028  1.00
      P1  H  7989  7998       L1    11  0.91
      P1  H 10752 10764       L1     9  2.00

> <Gold.PLP.Chemscore.Internal.Correction>
0.0070

> <Gold.Rescore>
     Score         DG    S(hbond)    S(metal)    S(lipo)     H(rot)  DE(clash)    DE(int)     intcor
     17.77     -20.81       2.82        0.00      85.85       1.61       0.28       2.76       ----

> <Gold.Chemscore.Fitness>
17.7682

> <Gold.Chemscore.DG>
-20.8077

> <Gold.Chemscore.ZeroCoef>
-5.4800

> <Gold.Chemscore.Hbond>
2.8151

> <Gold.Chemscore.Metal>
0.0000

> <Gold.Chemscore.Lipo>
85.8463

> <Gold.Chemscore.Internal_Hbond>
0.0000

> <Gold.Chemscore.DEClash>
0.2753

> <Gold.Chemscore.DEInternal>
2.7642

> <Gold.Chemscore.Rot>
1.6089

> <Gold.Chemscore.Internal.Correction>
   9.000000E+99

> <Gold.Chemscore.Hbonds>
donor molecule, donor type, donor heavy atom, donor atom, acceptor molecule, acceptor atom, score
      L1  H    12    22       P1  8028  1.00
      P1  H  7989  7998       L1    11  0.40
      P1  H 10752 10764       L1     9  0.99

> <Gold.Chemscore.Hbond.Weighted>
-9.4025

> <Gold.Chemscore.Metal.Weighted>
-0.0000

> <Gold.Chemscore.Lipo.Weighted>
-10.0440

> <Gold.Chemscore.Internal_Hbond.Weighted>
0.0000

> <Gold.Chemscore.DEClash.Weighted>
0.2753

> <Gold.Chemscore.DEInternal.Weighted>
2.7642

> <Gold.Chemscore.Rot.Weighted>
4.1188

> <Gold.Chemscore.Internal.Correction.Weighted>
   9.000000E+99

> <Gold.Protein.RotatedTorsions>
[ 6907 6896 6895 6894 ] final    7.78 input  -60.11 | X-H torsion
[ 7974 7965 7964 7962 ] final -122.48 input  175.53 | X-H torsion
[ 8008 7997 7996 7995 ] final  -70.99 input   59.86 | X-H torsion
[ 10167 10162 10161 10158 ] final   38.09 input  -65.29 | X-H torsion
[ 10718 10713 10712 10709 ] final  -93.20 input   66.30 | X-H torsion
[ 10763 10752 10751 10750 ] final  -51.72 input  -60.55 | X-H torsion
[ 11005 11000 10999 10996 ] final   66.89 input  -57.11 | X-H torsion

> <Gold.Protein.ActiveResidues>
 VAL166  LYS551  ARG553  GLY616  TRP617  ASP618  TYR619  PRO620  LYS621  CYS622 
 ASP623  PHE694  ASN695  SER759  ASP760  ASP761  ALA762  ILE779  LEU786  VAL792 
 PHE793  MET794  SER795  GLU796  ALA797  LYS798  CYS799  TRP800  GLU811  SER814 

> <Gold.Protein.RotatedAtoms>
  151.6954  135.0939  160.0241 H   0  0  0  0  0  0  0  0  0  0  0  0  # atno 6907 bound_to 6896
  152.3753  133.6468  159.6127 H   0  0  0  0  0  0  0  0  0  0  0  0  # atno 6908 bound_to 6896
  150.7704  133.9120  159.3413 H   0  0  0  0  0  0  0  0  0  0  0  0  # atno 6909 bound_to 6896
  145.0290  140.8051  143.4335 H   0  0  0  0  0  0  0  0  0  0  0  0  # atno 7974 bound_to 7965
  154.5053  140.0824  156.7882 H   0  0  0  0  0  0  0  0  0  0  0  0  # atno 8008 bound_to 7997
  155.3908  140.3432  155.4233 H   0  0  0  0  0  0  0  0  0  0  0  0  # atno 8009 bound_to 7997
  156.1508  140.1558  156.8761 H   0  0  0  0  0  0  0  0  0  0  0  0  # atno 8010 bound_to 7997
  140.3970  144.1775  150.6132 H   0  0  0  0  0  0  0  0  0  0  0  0  # atno 10167 bound_to 10162
  156.0010  130.5018  150.5741 H   0  0  0  0  0  0  0  0  0  0  0  0  # atno 10718 bound_to 10713
  154.1312  135.6520  153.4922 H   0  0  0  0  0  0  0  0  0  0  0  0  # atno 10763 bound_to 10752
  153.0194  135.5293  154.6999 H   0  0  0  0  0  0  0  0  0  0  0  0  # atno 10764 bound_to 10752
  154.6234  135.2967  155.0270 H   0  0  0  0  0  0  0  0  0  0  0  0  # atno 10765 bound_to 10752
  139.9804  134.6753  156.0274 H   0  0  0  0  0  0  0  0  0  0  0  0  # atno 11005 bound_to 11000
  145.1796  139.2359  143.5299 LP  0  0  0  0  0  0  0  0  0  0  0  0  # atno 17320 bound_to 7965
  146.3496  140.1566  142.8591 LP  0  0  0  0  0  0  0  0  0  0  0  0  # atno 17321 bound_to 7965
  140.4780  143.2389  151.8996 LP  0  0  0  0  0  0  0  0  0  0  0  0  # atno 17342 bound_to 10162
  139.4786  144.5300  151.8681 LP  0  0  0  0  0  0  0  0  0  0  0  0  # atno 17343 bound_to 10162
  157.3631  131.0753  151.1620 LP  0  0  0  0  0  0  0  0  0  0  0  0  # atno 17370 bound_to 10713
  157.2398  130.6564  149.5885 LP  0  0  0  0  0  0  0  0  0  0  0  0  # atno 17371 bound_to 10713
  141.1476  133.6553  156.3916 LP  0  0  0  0  0  0  0  0  0  0  0  0  # atno 17394 bound_to 11000
  140.5108  134.6396  157.5284 LP  0  0  0  0  0  0  0  0  0  0  0  0  # atno 17395 bound_to 11000

$$$$
