AV-unprocessed.smi:392|AV-procd|sdf|2481|dock7
  -GOLD-   2262022423D 1   1.00000     0.00000
 Structure written by MMmdl.
 32 34  0  0  0  0  0  0  0  0  1 V2000
  150.6317  143.0042  155.5684 O   0  0  0  0  0  0  0  0  0  0  0  0
  150.1714  141.7071  155.8900 C   0  0  1  0  0  0  0  0  0  0  0  0
  149.6867  141.7179  157.3536 C   0  0  0  0  0  0  0  0  0  0  0  0
  150.5871  142.4497  158.2269 N   0  0  0  0  0  0  0  0  0  0  0  0
  150.5684  143.7721  158.4821 C   0  0  0  0  0  0  0  0  0  0  0  0
  151.4948  144.2469  159.3097 N   0  0  0  0  0  0  0  0  0  0  0  0
  152.1994  143.0989  159.6283 C   0  0  0  0  0  0  0  0  0  0  0  0
  153.3227  142.9156  160.4663 C   0  0  0  0  0  0  0  0  0  0  0  0
  153.8843  141.6332  160.6380 C   0  0  0  0  0  0  0  0  0  0  0  0
  153.3318  140.5164  159.9781 C   0  0  0  0  0  0  0  0  0  0  0  0
  152.2107  140.6736  159.1412 C   0  0  0  0  0  0  0  0  0  0  0  0
  151.6547  141.9553  158.9697 C   0  0  0  0  0  0  0  0  0  0  0  0
  149.0921  141.2225  154.9281 C   0  0  0  0  0  0  0  0  0  0  0  0
  147.9503  142.0174  154.6804 C   0  0  0  0  0  0  0  0  0  0  0  0
  146.9359  141.5583  153.8187 C   0  0  0  0  0  0  0  0  0  0  0  0
  147.0551  140.3009  153.1979 C   0  0  0  0  0  0  0  0  0  0  0  0
  148.1897  139.5034  153.4392 C   0  0  0  0  0  0  0  0  0  0  0  0
  149.2053  139.9598  154.3017 C   0  0  0  0  0  0  0  0  0  0  0  0
  150.2823  139.1715  154.5342 F   0  0  0  0  0  0  0  0  0  0  0  0
  149.8819  143.5697  155.4628 H   0  0  0  0  0  0  0  0  0  0  0  0
  151.0406  141.0532  155.8110 H   0  0  0  0  0  0  0  0  0  0  0  0
  148.7047  142.1889  157.4194 H   0  0  0  0  0  0  0  0  0  0  0  0
  149.5698  140.7021  157.7339 H   0  0  0  0  0  0  0  0  0  0  0  0
  149.8342  144.4237  158.0312 H   0  0  0  0  0  0  0  0  0  0  0  0
  153.7549  143.7640  160.9760 H   0  0  0  0  0  0  0  0  0  0  0  0
  154.7440  141.5059  161.2794 H   0  0  0  0  0  0  0  0  0  0  0  0
  153.7695  139.5383  160.1139 H   0  0  0  0  0  0  0  0  0  0  0  0
  151.7878  139.8205  158.6323 H   0  0  0  0  0  0  0  0  0  0  0  0
  147.8426  142.9792  155.1601 H   0  0  0  0  0  0  0  0  0  0  0  0
  146.0641  142.1697  153.6374 H   0  0  0  0  0  0  0  0  0  0  0  0
  146.2757  139.9469  152.5392 H   0  0  0  0  0  0  0  0  0  0  0  0
  148.2791  138.5367  152.9663 H   0  0  0  0  0  0  0  0  0  0  0  0
  1  2  1  0  0  0  0
  1 20  1  0  0  0  0
  2  3  1  0  0  0  0
  2 13  1  0  0  0  0
  2 21  1  0  0  0  0
  3  4  1  0  0  0  0
  3 22  1  0  0  0  0
  3 23  1  0  0  0  0
  4 12  1  0  0  0  0
  4  5  1  0  0  0  0
  5  6  2  0  0  0  0
  5 24  1  0  0  0  0
  6  7  1  0  0  0  0
  7 12  2  0  0  0  0
  7  8  1  0  0  0  0
  8  9  2  0  0  0  0
  8 25  1  0  0  0  0
  9 10  1  0  0  0  0
  9 26  1  0  0  0  0
 10 11  2  0  0  0  0
 10 27  1  0  0  0  0
 11 12  1  0  0  0  0
 11 28  1  0  0  0  0
 13 18  1  0  0  0  0
 13 14  2  0  0  0  0
 14 15  1  0  0  0  0
 14 29  1  0  0  0  0
 15 16  2  0  0  0  0
 15 30  1  0  0  0  0
 16 17  1  0  0  0  0
 16 31  1  0  0  0  0
 17 18  2  0  0  0  0
 17 32  1  0  0  0  0
 18 19  1  0  0  0  0
M  END
> <s_m_source_file>
AV-unprocessed.smi

> <i_m_source_file_index>
392

> <i_lp_mmshare_version>
43012

> <i_f3d_flags>
0

> <s_epik_input>
RmMxW2NIXVtjSF1bY0hdW2NIXWMxW0NASF0oW09IXSlbQ0gyXW4oW2NIXW4yKWMoYzIzKVtjSF1bY0hdW2NIXVtjSF0z

> <s_epik_cmdline>
J2VwaWtfcHl0aG9uJywgJy1waCcsICc3LjAnLCAnLXRuJywgJzgnLCAnLW1hJywgJzIwMCcsICctbWV0YWxfYmluZGluZycsICctaW1hZScsICc8aW5maWxlLm1hZT4nLCAnLW9tYWUnLCAnPG91dGZpbGUubWFlPic=

> <r_epik_Ionization_Penalty>
0.0696512

> <r_epik_Ionization_Penalty_Charging>
0

> <r_epik_Ionization_Penalty_Neutral>
0.0696512

> <r_epik_State_Penalty>
0.0610247

> <r_epik_Charging_Adjusted_Penalty>
0.0610247

> <i_epik_Tot_Q>
0

> <i_epik_Tot_abs_Q>
0

> <r_epik_Metal_State_Penalty>
6.42746e-05

> <b_epik_Metal_Only>
0

> <s_lp_Force_Field>
OPLS_2005

> <r_lp_Energy>
12.4864

> <b_lp_Chiralities_Consistent>
1

> <s_lp_Variant>
AV-unprocessed.smi:392-2

> <Gold.Version>
5.8.1

> <Gold.Id.Protein>
6NUR|6NUR_protein|mol2

> <Gold.PLP.Fitness>
45.2951

> <Gold.PLP.PLP>
-39.9651

> <Gold.PLP.part.hbond>
-0.8062

> <Gold.PLP.part.metal>
0.0000

> <Gold.PLP.part.buried>
1.7808

> <Gold.PLP.part.nonpolar>
-40.5481

> <Gold.PLP.part.repulsive>
0.0711

> <Gold.PLP.ligand.clash>
0.0000

> <Gold.PLP.ligand.torsion>
0.6399

> <Gold.PLP.Chemscore.Hbond>
1.0000

> <Gold.PLP.Chemscore.CHOScore>
1.1983

> <Gold.PLP.Chemscore.Metal>
0.0000

> <Gold.Chemscore.Hbonds>
donor molecule, donor type, donor heavy atom, donor atom, acceptor molecule, acceptor atom, score
      L1  H     1    20       P1  8028  0.99
      L1  C     5    24       P1  8028  0.64
      L1  C     5    24       P1  8029  0.53

> <Gold.PLP.Chemscore.Internal.Correction>
0.0148

> <Gold.Rescore>
     Score         DG    S(hbond)    S(metal)    S(lipo)     H(rot)  DE(clash)    DE(int)     intcor
     14.59     -16.57       0.92        0.00     110.37       1.91       1.33       0.65       ----

> <Gold.Chemscore.Fitness>
14.5870

> <Gold.Chemscore.DG>
-16.5695

> <Gold.Chemscore.ZeroCoef>
-5.4800

> <Gold.Chemscore.Hbond>
0.9192

> <Gold.Chemscore.Metal>
0.0000

> <Gold.Chemscore.Lipo>
110.3690

> <Gold.Chemscore.Internal_Hbond>
0.0000

> <Gold.Chemscore.DEClash>
1.3346

> <Gold.Chemscore.DEInternal>
0.6478

> <Gold.Chemscore.Rot>
1.9116

> <Gold.Chemscore.Internal.Correction>
   9.000000E+99

> <Gold.Chemscore.Hbonds>
donor molecule, donor type, donor heavy atom, donor atom, acceptor molecule, acceptor atom, score
      L1  H     1    20       P1  8028  0.92

> <Gold.Chemscore.Hbond.Weighted>
-3.0700

> <Gold.Chemscore.Metal.Weighted>
-0.0000

> <Gold.Chemscore.Lipo.Weighted>
-12.9132

> <Gold.Chemscore.Internal_Hbond.Weighted>
0.0000

> <Gold.Chemscore.DEClash.Weighted>
1.3346

> <Gold.Chemscore.DEInternal.Weighted>
0.6478

> <Gold.Chemscore.Rot.Weighted>
4.8937

> <Gold.Chemscore.Internal.Correction.Weighted>
   9.000000E+99

> <Gold.Protein.RotatedTorsions>
[ 6907 6896 6895 6894 ] final  -94.11 input  -60.11 | X-H torsion
[ 7974 7965 7964 7962 ] final  -78.88 input  175.53 | X-H torsion
[ 8008 7997 7996 7995 ] final   17.30 input   59.86 | X-H torsion
[ 10167 10162 10161 10158 ] final  -24.58 input  -65.29 | X-H torsion
[ 10718 10713 10712 10709 ] final  106.57 input   66.30 | X-H torsion
[ 10763 10752 10751 10750 ] final  -13.80 input  -60.55 | X-H torsion
[ 11005 11000 10999 10996 ] final  157.81 input  -57.11 | X-H torsion

> <Gold.Protein.ActiveResidues>
 VAL166  LYS551  ARG553  GLY616  TRP617  ASP618  TYR619  PRO620  LYS621  CYS622 
 ASP623  PHE694  ASN695  SER759  ASP760  ASP761  ALA762  ILE779  LEU786  VAL792 
 PHE793  MET794  SER795  GLU796  ALA797  LYS798  CYS799  TRP800  GLU811  SER814 

> <Gold.Protein.RotatedAtoms>
  150.6935  134.1863  159.4267 H   0  0  0  0  0  0  0  0  0  0  0  0  # atno 6907 bound_to 6896
  151.9836  135.0013  160.0568 H   0  0  0  0  0  0  0  0  0  0  0  0  # atno 6908 bound_to 6896
  152.1732  133.4623  159.4957 H   0  0  0  0  0  0  0  0  0  0  0  0  # atno 6909 bound_to 6896
  145.5806  140.9449  143.1346 H   0  0  0  0  0  0  0  0  0  0  0  0  # atno 7974 bound_to 7965
  154.8894  140.2984  155.5379 H   0  0  0  0  0  0  0  0  0  0  0  0  # atno 8008 bound_to 7997
  156.3021  140.2427  156.3842 H   0  0  0  0  0  0  0  0  0  0  0  0  # atno 8009 bound_to 7997
  154.8634  140.0404  157.1668 H   0  0  0  0  0  0  0  0  0  0  0  0  # atno 8010 bound_to 7997
  140.7288  143.4340  151.0758 H   0  0  0  0  0  0  0  0  0  0  0  0  # atno 10167 bound_to 10162
  157.6663  131.0853  150.6026 H   0  0  0  0  0  0  0  0  0  0  0  0  # atno 10718 bound_to 10713
  153.5188  135.7016  153.5742 H   0  0  0  0  0  0  0  0  0  0  0  0  # atno 10763 bound_to 10752
  153.3800  135.3922  155.1850 H   0  0  0  0  0  0  0  0  0  0  0  0  # atno 10764 bound_to 10752
  154.8696  135.3833  154.4675 H   0  0  0  0  0  0  0  0  0  0  0  0  # atno 10765 bound_to 10752
  140.1805  134.8479  157.2797 H   0  0  0  0  0  0  0  0  0  0  0  0  # atno 11005 bound_to 11000
  144.7396  139.7488  143.7316 LP  0  0  0  0  0  0  0  0  0  0  0  0  # atno 17320 bound_to 7965
  146.1719  139.4873  142.9922 LP  0  0  0  0  0  0  0  0  0  0  0  0  # atno 17321 bound_to 7965
  139.8000  143.8097  152.3162 LP  0  0  0  0  0  0  0  0  0  0  0  0  # atno 17342 bound_to 10162
  139.8110  144.7335  150.9697 LP  0  0  0  0  0  0  0  0  0  0  0  0  # atno 17343 bound_to 10162
  156.6327  130.4436  149.5781 LP  0  0  0  0  0  0  0  0  0  0  0  0  # atno 17370 bound_to 10713
  156.2270  130.6771  151.1425 LP  0  0  0  0  0  0  0  0  0  0  0  0  # atno 17371 bound_to 10713
  140.2273  134.3952  155.7538 LP  0  0  0  0  0  0  0  0  0  0  0  0  # atno 17394 bound_to 11000
  141.2223  133.7196  156.8584 LP  0  0  0  0  0  0  0  0  0  0  0  0  # atno 17395 bound_to 11000

$$$$
