AV-unprocessed.smi:13|AV-procd|sdf|70|dock4
  -GOLD-   2262015193D 1   1.00000     0.00000
 Structure written by MMmdl.
 54 58  0  0  0  0  0  0  0  0  1 V2000
  151.9269  144.6519  158.4211 C   0  0  0  0  0  0  0  0  0  0  0  0
  151.0515  143.3977  158.5436 C   0  0  0  0  0  0  0  0  0  0  0  0
  149.6664  143.8703  158.9838 C   0  0  0  0  0  0  0  0  0  0  0  0
  151.0817  142.4482  157.3359 C   0  0  0  0  0  0  0  0  0  0  0  0
  152.0827  141.6772  158.0554 N   0  0  0  0  0  0  0  0  0  0  0  0
  151.9828  140.2673  157.9168 C   0  0  0  0  0  0  0  0  0  0  0  0
  153.1210  139.5589  158.1255 N   0  0  0  0  0  0  0  0  0  0  0  0
  153.1325  138.2263  158.0362 C   0  0  0  0  0  0  0  0  0  0  0  0
  152.1244  137.4023  157.7518 N   0  0  0  0  0  0  0  0  0  0  0  0
  150.9710  138.0962  157.5401 C   0  0  0  0  0  0  0  0  0  0  0  0
  150.8137  139.5109  157.5999 C   0  0  0  0  0  0  0  0  0  0  0  0
  149.4912  139.8440  157.3264 N   0  0  0  0  0  0  0  0  0  0  0  0
  148.9050  138.6977  157.1162 C   0  0  0  0  0  0  0  0  0  0  0  0
  149.7185  137.5944  157.2324 N   0  0  0  0  0  0  0  0  0  0  0  0
  149.3291  136.2034  157.0597 C   0  0  0  0  0  0  0  0  0  0  0  0
  148.7816  135.8934  155.6472 C   0  0  2  0  0  0  0  0  0  0  0  0
  149.6191  136.5113  154.6849 O   0  0  0  0  0  0  0  0  0  0  0  0
  147.3480  136.3629  155.4142 C   0  0  0  0  0  0  0  0  0  0  0  0
  146.8090  135.3303  154.4344 C   0  0  0  0  0  0  0  0  0  0  0  0
  147.3746  134.1237  154.9167 O   0  0  0  0  0  0  0  0  0  0  0  0
  148.7109  134.3852  155.3340 C   0  0  0  0  0  0  0  0  0  0  0  0
  151.6268  142.2044  159.3354 C   0  0  1  0  0  0  0  0  0  0  0  0
  152.7833  142.3725  160.3217 C   0  0  2  0  0  0  0  0  0  0  0  0
  153.5101  141.0721  160.6594 C   0  0  0  0  0  0  0  0  0  0  0  0
  154.1346  141.3676  162.0113 C   0  0  0  0  0  0  0  0  0  0  0  0
  153.2952  142.5256  162.5591 C   0  0  0  0  0  0  0  0  0  0  0  0
  152.2790  142.7553  161.5911 O   0  0  0  0  0  0  0  0  0  0  0  0
  151.5109  145.3613  157.7051 H   0  0  0  0  0  0  0  0  0  0  0  0
  152.9334  144.4094  158.0790 H   0  0  0  0  0  0  0  0  0  0  0  0
  152.0248  145.1675  159.3769 H   0  0  0  0  0  0  0  0  0  0  0  0
  148.9735  143.0341  159.0844 H   0  0  0  0  0  0  0  0  0  0  0  0
  149.2309  144.5645  158.2645 H   0  0  0  0  0  0  0  0  0  0  0  0
  149.7055  144.3744  159.9501 H   0  0  0  0  0  0  0  0  0  0  0  0
  150.1395  141.9254  157.1708 H   0  0  0  0  0  0  0  0  0  0  0  0
  151.4590  142.9006  156.4184 H   0  0  0  0  0  0  0  0  0  0  0  0
  154.0854  137.7534  158.2219 H   0  0  0  0  0  0  0  0  0  0  0  0
  147.8542  138.6241  156.8758 H   0  0  0  0  0  0  0  0  0  0  0  0
  150.1928  135.5743  157.2800 H   0  0  0  0  0  0  0  0  0  0  0  0
  148.5777  135.9636  157.8130 H   0  0  0  0  0  0  0  0  0  0  0  0
  149.2182  136.4156  153.8346 H   0  0  0  0  0  0  0  0  0  0  0  0
  146.7744  136.2967  156.3393 H   0  0  0  0  0  0  0  0  0  0  0  0
  147.2717  137.3879  155.0483 H   0  0  0  0  0  0  0  0  0  0  0  0
  145.7198  135.2881  154.4200 H   0  0  0  0  0  0  0  0  0  0  0  0
  147.1634  135.5259  153.4210 H   0  0  0  0  0  0  0  0  0  0  0  0
  149.4040  134.0962  154.5422 H   0  0  0  0  0  0  0  0  0  0  0  0
  148.9378  133.7692  156.2045 H   0  0  0  0  0  0  0  0  0  0  0  0
  150.8127  141.6107  159.7525 H   0  0  0  0  0  0  0  0  0  0  0  0
  153.4974  143.1263  159.9847 H   0  0  0  0  0  0  0  0  0  0  0  0
  152.7948  140.2538  160.7547 H   0  0  0  0  0  0  0  0  0  0  0  0
  154.2456  140.7901  159.9057 H   0  0  0  0  0  0  0  0  0  0  0  0
  154.1109  140.4939  162.6635 H   0  0  0  0  0  0  0  0  0  0  0  0
  155.1746  141.6759  161.8989 H   0  0  0  0  0  0  0  0  0  0  0  0
  152.8535  142.2961  163.5289 H   0  0  0  0  0  0  0  0  0  0  0  0
  153.9040  143.4245  162.6669 H   0  0  0  0  0  0  0  0  0  0  0  0
  1  2  1  0  0  0  0
  1 28  1  0  0  0  0
  1 29  1  0  0  0  0
  1 30  1  0  0  0  0
  2 22  1  0  0  0  0
  2  3  1  0  0  0  0
  2  4  1  0  0  0  0
  3 31  1  0  0  0  0
  3 32  1  0  0  0  0
  3 33  1  0  0  0  0
  4  5  1  0  0  0  0
  4 34  1  0  0  0  0
  4 35  1  0  0  0  0
  5  6  1  0  0  0  0
  5 22  1  0  0  0  0
  6 11  1  0  0  0  0
  6  7  2  0  0  0  0
  7  8  1  0  0  0  0
  8  9  2  0  0  0  0
  8 36  1  0  0  0  0
  9 10  1  0  0  0  0
 10 14  1  0  0  0  0
 10 11  2  0  0  0  0
 11 12  1  0  0  0  0
 12 13  2  0  0  0  0
 13 14  1  0  0  0  0
 13 37  1  0  0  0  0
 14 15  1  0  0  0  0
 15 16  1  0  0  0  0
 15 38  1  0  0  0  0
 15 39  1  0  0  0  0
 16 21  1  0  0  0  0
 16 17  1  0  0  0  0
 16 18  1  0  0  0  0
 17 40  1  0  0  0  0
 18 19  1  0  0  0  0
 18 41  1  0  0  0  0
 18 42  1  0  0  0  0
 19 20  1  0  0  0  0
 19 43  1  0  0  0  0
 19 44  1  0  0  0  0
 20 21  1  0  0  0  0
 21 45  1  0  0  0  0
 21 46  1  0  0  0  0
 22 23  1  0  0  0  0
 22 47  1  0  0  0  0
 23 27  1  0  0  0  0
 23 24  1  0  0  0  0
 23 48  1  0  0  0  0
 24 25  1  0  0  0  0
 24 49  1  0  0  0  0
 24 50  1  0  0  0  0
 25 26  1  0  0  0  0
 25 51  1  0  0  0  0
 25 52  1  0  0  0  0
 26 27  1  0  0  0  0
 26 53  1  0  0  0  0
 26 54  1  0  0  0  0
M  END
> <s_m_source_file>
AV-unprocessed.smi

> <i_m_source_file_index>
13

> <i_lp_mmshare_version>
43012

> <i_f3d_flags>
0

> <s_epik_input>
TzFbQ0gyXVtDSDJdW0NIMl1bQ0BIXTFbQ0BASF0yTihbQ0gyXUMyKFtDSDNdKVtDSDNdKWMobltjSF1uMyljKGMzNCluW2NIXW40W0NIMl1bQ0BAXTUoW09IXSlbQ0gyXVtDSDJdT1tDSDJdNQ==

> <s_epik_cmdline>
J2VwaWtfcHl0aG9uJywgJy1waCcsICc3LjAnLCAnLXRuJywgJzgnLCAnLW1hJywgJzIwMCcsICctbWV0YWxfYmluZGluZycsICctaW1hZScsICc8aW5maWxlLm1hZT4nLCAnLW9tYWUnLCAnPG91dGZpbGUubWFlPic=

> <r_lp_tautomer_probability>
1

> <r_epik_Ionization_Penalty>
0.00202764

> <r_epik_Ionization_Penalty_Charging>
0

> <r_epik_Ionization_Penalty_Neutral>
0.00202764

> <r_epik_State_Penalty>
0.00134017

> <r_epik_Charging_Adjusted_Penalty>
0.00134017

> <i_epik_Tot_Q>
0

> <i_epik_Tot_abs_Q>
0

> <r_epik_Metal_State_Penalty>
-0

> <b_epik_Metal_Only>
0

> <s_lp_Force_Field>
OPLS_2005

> <r_lp_Energy>
60.4811

> <b_lp_Chiralities_Consistent>
1

> <s_lp_Variant>
AV-unprocessed.smi:13-2

> <Gold.Version>
5.8.1

> <Gold.Id.Protein>
6NUR|6NUR_protein|mol2

> <Gold.PLP.Fitness>
43.6639

> <Gold.PLP.PLP>
-39.3128

> <Gold.PLP.part.hbond>
-2.2040

> <Gold.PLP.part.metal>
0.0000

> <Gold.PLP.part.buried>
-3.8246

> <Gold.PLP.part.nonpolar>
-32.7723

> <Gold.PLP.part.repulsive>
0.1663

> <Gold.PLP.ligand.clash>
0.0000

> <Gold.PLP.ligand.torsion>
1.0570

> <Gold.PLP.Chemscore.Hbond>
2.0000

> <Gold.PLP.Chemscore.CHOScore>
0.0000

> <Gold.PLP.Chemscore.Metal>
0.0000

> <Gold.Chemscore.Hbonds>
donor molecule, donor type, donor heavy atom, donor atom, acceptor molecule, acceptor atom, score
      L1  H    17    40       P1  7948  1.00
      P1  H  7997  8008       L1     7  1.00

> <Gold.PLP.Chemscore.Internal.Correction>
0.4650

> <Gold.Rescore>
     Score         DG    S(hbond)    S(metal)    S(lipo)     H(rot)  DE(clash)    DE(int)     intcor
     15.20     -17.55       1.86        0.00     100.45       2.30       0.18       2.17       ----

> <Gold.Chemscore.Fitness>
15.2009

> <Gold.Chemscore.DG>
-17.5465

> <Gold.Chemscore.ZeroCoef>
-5.4800

> <Gold.Chemscore.Hbond>
1.8564

> <Gold.Chemscore.Metal>
0.0000

> <Gold.Chemscore.Lipo>
100.4531

> <Gold.Chemscore.Internal_Hbond>
0.0000

> <Gold.Chemscore.DEClash>
0.1790

> <Gold.Chemscore.DEInternal>
2.1666

> <Gold.Chemscore.Rot>
2.2996

> <Gold.Chemscore.Internal.Correction>
   9.000000E+99

> <Gold.Chemscore.Hbonds>
donor molecule, donor type, donor heavy atom, donor atom, acceptor molecule, acceptor atom, score
      L1  H    17    40       P1  7948  0.93
      P1  H  7997  8008       L1     7  0.33

> <Gold.Chemscore.Hbond.Weighted>
-6.2004

> <Gold.Chemscore.Metal.Weighted>
-0.0000

> <Gold.Chemscore.Lipo.Weighted>
-11.7530

> <Gold.Chemscore.Internal_Hbond.Weighted>
0.0000

> <Gold.Chemscore.DEClash.Weighted>
0.1790

> <Gold.Chemscore.DEInternal.Weighted>
2.1666

> <Gold.Chemscore.Rot.Weighted>
5.8869

> <Gold.Chemscore.Internal.Correction.Weighted>
   9.000000E+99

> <Gold.Protein.RotatedTorsions>
[ 6907 6896 6895 6894 ] final  167.27 input  -60.11 | X-H torsion
[ 7974 7965 7964 7962 ] final  -91.84 input  175.53 | X-H torsion
[ 8008 7997 7996 7995 ] final  -95.39 input   59.86 | X-H torsion
[ 10167 10162 10161 10158 ] final  142.82 input  -65.29 | X-H torsion
[ 10718 10713 10712 10709 ] final -172.44 input   66.30 | X-H torsion
[ 10763 10752 10751 10750 ] final -177.69 input  -60.55 | X-H torsion
[ 11005 11000 10999 10996 ] final  116.47 input  -57.11 | X-H torsion

> <Gold.Protein.ActiveResidues>
 VAL166  LYS551  ARG553  GLY616  TRP617  ASP618  TYR619  PRO620  LYS621  CYS622 
 ASP623  PHE694  ASN695  SER759  ASP760  ASP761  ALA762  ILE779  LEU786  VAL792 
 PHE793  MET794  SER795  GLU796  ALA797  LYS798  CYS799  TRP800  GLU811  SER814 

> <Gold.Protein.RotatedAtoms>
  151.8659  133.3466  159.3718 H   0  0  0  0  0  0  0  0  0  0  0  0  # atno 6907 bound_to 6896
  150.7166  134.5160  159.5640 H   0  0  0  0  0  0  0  0  0  0  0  0  # atno 6908 bound_to 6896
  152.2683  134.7961  160.0469 H   0  0  0  0  0  0  0  0  0  0  0  0  # atno 6909 bound_to 6896
  145.4077  140.9542  143.2251 H   0  0  0  0  0  0  0  0  0  0  0  0  # atno 7974 bound_to 7965
  154.7608  140.0480  157.0971 H   0  0  0  0  0  0  0  0  0  0  0  0  # atno 8008 bound_to 7997
  154.9940  140.3116  155.4875 H   0  0  0  0  0  0  0  0  0  0  0  0  # atno 8009 bound_to 7997
  156.2903  140.2213  156.5047 H   0  0  0  0  0  0  0  0  0  0  0  0  # atno 8010 bound_to 7997
  139.4984  144.6081  151.6332 H   0  0  0  0  0  0  0  0  0  0  0  0  # atno 10167 bound_to 10162
  156.7556  130.9394  151.3116 H   0  0  0  0  0  0  0  0  0  0  0  0  # atno 10718 bound_to 10713
  154.5570  135.2817  155.0955 H   0  0  0  0  0  0  0  0  0  0  0  0  # atno 10763 bound_to 10752
  154.2378  135.6362  153.5200 H   0  0  0  0  0  0  0  0  0  0  0  0  # atno 10764 bound_to 10752
  153.0018  135.5552  154.6153 H   0  0  0  0  0  0  0  0  0  0  0  0  # atno 10765 bound_to 10752
  139.9042  134.9598  156.7203 H   0  0  0  0  0  0  0  0  0  0  0  0  # atno 11005 bound_to 11000
  144.8330  139.5597  143.6935 LP  0  0  0  0  0  0  0  0  0  0  0  0  # atno 17320 bound_to 7965
  146.2720  139.6659  142.9289 LP  0  0  0  0  0  0  0  0  0  0  0  0  # atno 17321 bound_to 7965
  140.5749  144.0046  150.6236 LP  0  0  0  0  0  0  0  0  0  0  0  0  # atno 17342 bound_to 10162
  140.3176  143.3158  152.0817 LP  0  0  0  0  0  0  0  0  0  0  0  0  # atno 17343 bound_to 10162
  157.6757  130.9092  150.0146 LP  0  0  0  0  0  0  0  0  0  0  0  0  # atno 17370 bound_to 10713
  156.1372  130.3642  149.9638 LP  0  0  0  0  0  0  0  0  0  0  0  0  # atno 17371 bound_to 10713
  140.7006  133.9310  155.8022 LP  0  0  0  0  0  0  0  0  0  0  0  0  # atno 17394 bound_to 11000
  141.0374  134.0670  157.3942 LP  0  0  0  0  0  0  0  0  0  0  0  0  # atno 17395 bound_to 11000

$$$$
