AV-unprocessed.smi:1403|AV-procd|sdf|5698|dock4
  -GOLD-   22720 5323D 1   1.00000     0.00000
 Structure written by MMmdl.
 36 37  0  0  0  0  0  0  0  0  1 V2000
  150.9313  140.6289  158.1131 C   0  0  0  0  0  0  0  0  0  0  0  0
  151.0779  141.9842  157.4061 C   0  0  1  0  0  0  0  0  0  0  0  0
  149.9938  142.1259  156.4356 N   0  0  0  0  0  0  0  0  0  0  0  0
  149.7553  141.3139  155.3937 C   0  0  0  0  0  0  0  0  0  0  0  0
  150.4588  140.3412  155.1180 O   0  0  0  0  0  0  0  0  0  0  0  0
  148.5500  141.6828  154.5171 C   0  0  0  0  0  0  0  0  0  0  0  0
  147.5048  140.6493  154.5112 N   0  0  0  0  0  0  0  0  0  0  0  0
  147.7380  139.4197  153.9114 C   0  0  0  0  0  0  0  0  0  0  0  0
  146.8245  138.4207  153.8791 C   0  0  0  0  0  0  0  0  0  0  0  0
  145.5132  138.5985  154.4937 C   0  0  0  0  0  0  0  0  0  0  0  0
  144.6197  137.7551  154.5152 O   0  0  0  0  0  0  0  0  0  0  0  0
  145.3177  139.8478  155.0888 N   0  0  0  0  0  0  0  0  0  0  0  0
  146.2551  140.8811  155.1269 C   0  0  0  0  0  0  0  0  0  0  0  0
  145.9812  141.9443  155.6825 O   0  0  0  0  0  0  0  0  0  0  0  0
  151.0644  143.1585  158.4069 C   0  0  2  0  0  0  0  0  0  0  0  0
  151.7289  144.4431  157.9084 C   0  0  0  0  0  0  0  0  0  0  0  0
  152.0491  145.1434  159.2087 C   0  0  0  0  0  0  0  0  0  0  0  0
  152.4530  143.9770  160.1066 C   0  0  0  0  0  0  0  0  0  0  0  0
  151.7955  142.8245  159.5839 O   0  0  0  0  0  0  0  0  0  0  0  0
  144.4250  140.0158  155.5297 H   0  0  0  0  0  0  0  0  0  0  0  0
  151.7474  140.4606  158.8162 H   0  0  0  0  0  0  0  0  0  0  0  0
  150.9448  139.8077  157.3955 H   0  0  0  0  0  0  0  0  0  0  0  0
  149.9956  140.5697  158.6700 H   0  0  0  0  0  0  0  0  0  0  0  0
  152.0395  141.9816  156.8899 H   0  0  0  0  0  0  0  0  0  0  0  0
  149.3662  142.9045  156.5745 H   0  0  0  0  0  0  0  0  0  0  0  0
  148.1318  142.6370  154.8444 H   0  0  0  0  0  0  0  0  0  0  0  0
  148.9121  141.8606  153.5035 H   0  0  0  0  0  0  0  0  0  0  0  0
  148.6977  139.2413  153.4474 H   0  0  0  0  0  0  0  0  0  0  0  0
  147.0654  137.4842  153.3972 H   0  0  0  0  0  0  0  0  0  0  0  0
  150.0393  143.3843  158.7062 H   0  0  0  0  0  0  0  0  0  0  0  0
  152.6506  144.2168  157.3702 H   0  0  0  0  0  0  0  0  0  0  0  0
  151.0849  145.0319  157.2547 H   0  0  0  0  0  0  0  0  0  0  0  0
  152.8304  145.8973  159.1109 H   0  0  0  0  0  0  0  0  0  0  0  0
  151.1535  145.6275  159.6008 H   0  0  0  0  0  0  0  0  0  0  0  0
  153.5298  143.8112  160.0598 H   0  0  0  0  0  0  0  0  0  0  0  0
  152.1821  144.1488  161.1486 H   0  0  0  0  0  0  0  0  0  0  0  0
  1  2  1  0  0  0  0
  1 21  1  0  0  0  0
  1 22  1  0  0  0  0
  1 23  1  0  0  0  0
  2  3  1  0  0  0  0
  2 15  1  0  0  0  0
  2 24  1  0  0  0  0
  3  4  1  0  0  0  0
  3 25  1  0  0  0  0
  4  5  2  0  0  0  0
  4  6  1  0  0  0  0
  6  7  1  0  0  0  0
  6 26  1  0  0  0  0
  6 27  1  0  0  0  0
  7 13  1  0  0  0  0
  7  8  1  0  0  0  0
  8  9  2  0  0  0  0
  8 28  1  0  0  0  0
  9 10  1  0  0  0  0
  9 29  1  0  0  0  0
 10 11  2  0  0  0  0
 10 12  1  0  0  0  0
 12 20  1  0  0  0  0
 12 13  1  0  0  0  0
 13 14  2  0  0  0  0
 15 19  1  0  0  0  0
 15 16  1  0  0  0  0
 15 30  1  0  0  0  0
 16 17  1  0  0  0  0
 16 31  1  0  0  0  0
 16 32  1  0  0  0  0
 17 18  1  0  0  0  0
 17 33  1  0  0  0  0
 17 34  1  0  0  0  0
 18 19  1  0  0  0  0
 18 35  1  0  0  0  0
 18 36  1  0  0  0  0
M  END
> <s_m_source_file>
AV-unprocessed.smi

> <i_m_source_file_index>
1403

> <i_lp_mmshare_version>
43012

> <i_f3d_flags>
0

> <s_epik_input>
TzFbQ0gyXVtDSDJdW0NIMl1bQ0BIXTFbQ0BIXShbQ0gzXSlbTkhdQyg9TylbQ0gyXW4yW2NIXVtjSF1jKD1PKVtuSF1jMj1P

> <s_epik_cmdline>
J2VwaWtfcHl0aG9uJywgJy1waCcsICc3LjAnLCAnLXRuJywgJzgnLCAnLW1hJywgJzIwMCcsICctbWV0YWxfYmluZGluZycsICctaW1hZScsICc8aW5maWxlLm1hZT4nLCAnLW9tYWUnLCAnPG91dGZpbGUubWFlPic=

> <r_lp_tautomer_probability>
0.999537

> <r_epik_Ionization_Penalty>
0.00331407

> <r_epik_Ionization_Penalty_Charging>
0.00331405

> <r_epik_Ionization_Penalty_Neutral>
2.30132e-08

> <r_epik_State_Penalty>
0.00234266

> <r_epik_Charging_Adjusted_Penalty>
0.00565671

> <i_epik_Tot_Q>
0

> <i_epik_Tot_abs_Q>
0

> <r_epik_Metal_State_Penalty>
0.365604

> <b_epik_Metal_Only>
0

> <s_lp_Force_Field>
OPLS_2005

> <r_lp_Energy>
17.659

> <b_lp_Chiralities_Consistent>
1

> <s_lp_Variant>
AV-unprocessed.smi:1403-2

> <Gold.Version>
5.8.1

> <Gold.Id.Protein>
6NUR|6NUR_protein|mol2

> <Gold.PLP.Fitness>
42.3830

> <Gold.PLP.PLP>
-34.8263

> <Gold.PLP.part.hbond>
-3.0000

> <Gold.PLP.part.metal>
0.0000

> <Gold.PLP.part.buried>
-3.3772

> <Gold.PLP.part.nonpolar>
-28.1445

> <Gold.PLP.part.repulsive>
0.3933

> <Gold.PLP.ligand.clash>
0.0000

> <Gold.PLP.ligand.torsion>
0.4977

> <Gold.PLP.Chemscore.Hbond>
2.0000

> <Gold.PLP.Chemscore.CHOScore>
0.8464

> <Gold.PLP.Chemscore.Metal>
0.0000

> <Gold.Chemscore.Hbonds>
donor molecule, donor type, donor heavy atom, donor atom, acceptor molecule, acceptor atom, score
      L1  H     3    25       P1  8028  0.68
      P1  H  7989  7998       L1     5  0.91
      L1  C     8    28       P1  7957  0.86

> <Gold.PLP.Chemscore.Internal.Correction>
0.0129

> <Gold.Rescore>
     Score         DG    S(hbond)    S(metal)    S(lipo)     H(rot)  DE(clash)    DE(int)     intcor
     13.59     -15.29       1.65        0.00      81.30       2.04       0.14       1.55       ----

> <Gold.Chemscore.Fitness>
13.5915

> <Gold.Chemscore.DG>
-15.2900

> <Gold.Chemscore.ZeroCoef>
-5.4800

> <Gold.Chemscore.Hbond>
1.6525

> <Gold.Chemscore.Metal>
0.0000

> <Gold.Chemscore.Lipo>
81.2968

> <Gold.Chemscore.Internal_Hbond>
0.0000

> <Gold.Chemscore.DEClash>
0.1438

> <Gold.Chemscore.DEInternal>
1.5547

> <Gold.Chemscore.Rot>
2.0395

> <Gold.Chemscore.Internal.Correction>
   9.000000E+99

> <Gold.Chemscore.Hbonds>
donor molecule, donor type, donor heavy atom, donor atom, acceptor molecule, acceptor atom, score
      L1  H     3    25       P1  8028  0.65
      P1  H  7989  7998       L1     5  0.51

> <Gold.Chemscore.Hbond.Weighted>
-5.5193

> <Gold.Chemscore.Metal.Weighted>
-0.0000

> <Gold.Chemscore.Lipo.Weighted>
-9.5117

> <Gold.Chemscore.Internal_Hbond.Weighted>
0.0000

> <Gold.Chemscore.DEClash.Weighted>
0.1438

> <Gold.Chemscore.DEInternal.Weighted>
1.5547

> <Gold.Chemscore.Rot.Weighted>
5.2211

> <Gold.Chemscore.Internal.Correction.Weighted>
   9.000000E+99

> <Gold.Protein.RotatedTorsions>
[ 6907 6896 6895 6894 ] final -125.72 input  -60.11 | X-H torsion
[ 7974 7965 7964 7962 ] final   49.81 input  175.53 | X-H torsion
[ 8008 7997 7996 7995 ] final  -30.73 input   59.86 | X-H torsion
[ 10167 10162 10161 10158 ] final  -63.49 input  -65.29 | X-H torsion
[ 10718 10713 10712 10709 ] final -142.39 input   66.30 | X-H torsion
[ 10763 10752 10751 10750 ] final  -95.18 input  -60.55 | X-H torsion
[ 11005 11000 10999 10996 ] final  -67.91 input  -57.11 | X-H torsion

> <Gold.Protein.ActiveResidues>
 VAL166  LYS551  ARG553  GLY616  TRP617  ASP618  TYR619  PRO620  LYS621  CYS622 
 ASP623  PHE694  ASN695  SER759  ASP760  ASP761  ALA762  ILE779  LEU786  VAL792 
 PHE793  MET794  SER795  GLU796  ALA797  LYS798  CYS799  TRP800  GLU811  SER814 

> <Gold.Protein.RotatedAtoms>
  150.8896  133.7261  159.2908 H   0  0  0  0  0  0  0  0  0  0  0  0  # atno 6907 bound_to 6896
  151.4815  135.1051  159.9788 H   0  0  0  0  0  0  0  0  0  0  0  0  # atno 6908 bound_to 6896
  152.4812  133.8212  159.7110 H   0  0  0  0  0  0  0  0  0  0  0  0  # atno 6909 bound_to 6896
  146.0073  139.4504  142.9978 H   0  0  0  0  0  0  0  0  0  0  0  0  # atno 7974 bound_to 7965
  154.4239  140.1783  156.1454 H   0  0  0  0  0  0  0  0  0  0  0  0  # atno 8008 bound_to 7997
  155.9958  140.3364  155.6772 H   0  0  0  0  0  0  0  0  0  0  0  0  # atno 8009 bound_to 7997
  155.6310  140.0670  157.2639 H   0  0  0  0  0  0  0  0  0  0  0  0  # atno 8010 bound_to 7997
  140.5867  143.2335  151.6228 H   0  0  0  0  0  0  0  0  0  0  0  0  # atno 10167 bound_to 10162
  156.3453  130.7659  151.1803 H   0  0  0  0  0  0  0  0  0  0  0  0  # atno 10718 bound_to 10713
  154.7124  135.5130  153.8687 H   0  0  0  0  0  0  0  0  0  0  0  0  # atno 10763 bound_to 10752
  153.0792  135.6626  154.0090 H   0  0  0  0  0  0  0  0  0  0  0  0  # atno 10764 bound_to 10752
  153.9929  135.3018  155.3389 H   0  0  0  0  0  0  0  0  0  0  0  0  # atno 10765 bound_to 10752
  141.1519  133.6729  156.6366 H   0  0  0  0  0  0  0  0  0  0  0  0  # atno 11005 bound_to 11000
  145.7396  141.0013  143.1308 LP  0  0  0  0  0  0  0  0  0  0  0  0  # atno 17320 bound_to 7965
  144.6940  139.9083  143.7462 LP  0  0  0  0  0  0  0  0  0  0  0  0  # atno 17321 bound_to 7965
  139.5202  144.3231  152.0893 LP  0  0  0  0  0  0  0  0  0  0  0  0  # atno 17342 bound_to 10162
  140.2389  144.4290  150.6268 LP  0  0  0  0  0  0  0  0  0  0  0  0  # atno 17343 bound_to 10162
  157.7453  131.0443  150.4785 LP  0  0  0  0  0  0  0  0  0  0  0  0  # atno 17370 bound_to 10713
  156.4972  130.4109  149.6373 LP  0  0  0  0  0  0  0  0  0  0  0  0  # atno 17371 bound_to 10713
  140.3426  134.7836  157.4409 LP  0  0  0  0  0  0  0  0  0  0  0  0  # atno 17394 bound_to 11000
  140.0926  134.5581  155.8430 LP  0  0  0  0  0  0  0  0  0  0  0  0  # atno 17395 bound_to 11000

$$$$
