AV-unprocessed.smi:1139|AV-procd|sdf|4869|dock3
  -GOLD-   22720 3443D 1   1.00000     0.00000
 Structure written by MMmdl.
 43 44  0  0  0  0  0  0  0  0  2 V2000
  150.0240  136.7801  154.9799 C   0  0  0  0  0  0  0  0  0  0  0  0
  149.8481  138.2498  154.7256 C   0  0  0  0  0  0  0  0  0  0  0  0
  150.8986  138.9863  154.4051 N   0  0  0  0  0  0  0  0  0  0  0  0
  150.4164  140.2872  154.2315 O   0  0  0  0  0  0  0  0  0  0  0  0
  149.0779  140.2825  154.4571 C   0  0  0  0  0  0  0  0  0  0  0  0
  148.3709  141.5884  154.3189 C   0  0  0  0  0  0  0  0  0  0  0  0
  148.6518  139.0221  154.7753 C   0  0  0  0  0  0  0  0  0  0  0  0
  147.2563  138.5561  155.0995 C   0  0  0  0  0  0  0  0  0  0  0  0
  146.7431  137.6508  153.9793 C   0  0  0  0  0  0  0  0  0  0  0  0
  146.4650  138.1293  152.8799 O   0  0  0  0  0  0  0  0  0  0  0  0
  146.6214  136.3460  154.2702 N   0  0  0  0  0  0  0  0  0  0  0  0
  146.1061  135.3190  153.3681 C   0  0  0  0  0  0  0  0  0  0  0  0
  145.1768  134.2980  154.0748 C   0  0  2  0  0  0  0  0  0  0  0  0
  145.9208  133.5365  155.1953 C   0  0  0  0  0  0  0  0  0  0  0  0
  144.5836  133.3452  153.0894 N   0  3  0  0  0  0  0  0  0  0  0  0
  143.8711  133.9706  151.9536 C   0  0  0  0  0  0  0  0  0  0  0  0
  143.7676  132.8941  150.8713 C   0  0  0  0  0  0  0  0  0  0  0  0
  144.8633  131.8776  151.2000 C   0  0  0  0  0  0  0  0  0  0  0  0
  145.5376  132.3977  152.4720 C   0  0  0  0  0  0  0  0  0  0  0  0
  149.4328  136.4564  155.8363 H   0  0  0  0  0  0  0  0  0  0  0  0
  151.0650  136.5287  155.1869 H   0  0  0  0  0  0  0  0  0  0  0  0
  149.7065  136.1958  154.1163 H   0  0  0  0  0  0  0  0  0  0  0  0
  147.5618  141.6707  155.0448 H   0  0  0  0  0  0  0  0  0  0  0  0
  147.9418  141.6901  153.3222 H   0  0  0  0  0  0  0  0  0  0  0  0
  149.0532  142.4231  154.4809 H   0  0  0  0  0  0  0  0  0  0  0  0
  147.2330  137.9978  156.0360 H   0  0  0  0  0  0  0  0  0  0  0  0
  146.5770  139.3989  155.2353 H   0  0  0  0  0  0  0  0  0  0  0  0
  146.8774  136.0474  155.2005 H   0  0  0  0  0  0  0  0  0  0  0  0
  145.5637  135.8565  152.5909 H   0  0  0  0  0  0  0  0  0  0  0  0
  146.9217  134.7997  152.8616 H   0  0  0  0  0  0  0  0  0  0  0  0
  144.3568  134.8510  154.5363 H   0  0  0  0  0  0  0  0  0  0  0  0
  146.3295  134.2158  155.9427 H   0  0  0  0  0  0  0  0  0  0  0  0
  146.7482  132.9511  154.7928 H   0  0  0  0  0  0  0  0  0  0  0  0
  145.2644  132.8581  155.7392 H   0  0  0  0  0  0  0  0  0  0  0  0
  142.8880  134.3441  152.2418 H   0  0  0  0  0  0  0  0  0  0  0  0
  144.4556  134.8114  151.5758 H   0  0  0  0  0  0  0  0  0  0  0  0
  142.7907  132.4105  150.9120 H   0  0  0  0  0  0  0  0  0  0  0  0
  143.8830  133.3169  149.8726 H   0  0  0  0  0  0  0  0  0  0  0  0
  144.4177  130.8980  151.3786 H   0  0  0  0  0  0  0  0  0  0  0  0
  145.5798  131.7684  150.3851 H   0  0  0  0  0  0  0  0  0  0  0  0
  146.4549  132.9261  152.2068 H   0  0  0  0  0  0  0  0  0  0  0  0
  145.7999  131.5830  153.1475 H   0  0  0  0  0  0  0  0  0  0  0  0
  143.9016  132.7847  153.5808 H   0  0  0  0  0  0  0  0  0  0  0  0
  1  2  1  0  0  0  0
  1 20  1  0  0  0  0
  1 21  1  0  0  0  0
  1 22  1  0  0  0  0
  2  7  1  0  0  0  0
  2  3  2  0  0  0  0
  3  4  1  0  0  0  0
  4  5  1  0  0  0  0
  5  6  1  0  0  0  0
  5  7  2  0  0  0  0
  6 23  1  0  0  0  0
  6 24  1  0  0  0  0
  6 25  1  0  0  0  0
  7  8  1  0  0  0  0
  8  9  1  0  0  0  0
  8 26  1  0  0  0  0
  8 27  1  0  0  0  0
  9 10  2  0  0  0  0
  9 11  1  0  0  0  0
 11 12  1  0  0  0  0
 11 28  1  0  0  0  0
 12 13  1  0  0  0  0
 12 29  1  0  0  0  0
 12 30  1  0  0  0  0
 13 14  1  0  0  0  0
 13 15  1  0  0  0  0
 13 31  1  0  0  0  0
 14 32  1  0  0  0  0
 14 33  1  0  0  0  0
 14 34  1  0  0  0  0
 15 19  1  0  0  0  0
 15 16  1  0  0  0  0
 15 43  1  0  0  0  0
 16 17  1  0  0  0  0
 16 35  1  0  0  0  0
 16 36  1  0  0  0  0
 17 18  1  0  0  0  0
 17 37  1  0  0  0  0
 17 38  1  0  0  0  0
 18 19  1  0  0  0  0
 18 39  1  0  0  0  0
 18 40  1  0  0  0  0
 19 41  1  0  0  0  0
 19 42  1  0  0  0  0
M  CHG  1  15   1
M  END
> <s_m_source_file>
AV-unprocessed.smi

> <i_m_source_file_index>
1139

> <i_lp_mmshare_version>
43012

> <i_f3d_flags>
0

> <s_epik_input>
W0NIM11jMW5vYyhbQ0gzXSljMVtDSDJdQyg9TylbTkhdW0NIMl1bQ0BIXShbQ0gzXSlOMltDSDJdW0NIMl1bQ0gyXVtDSDJdMg==

> <s_epik_cmdline>
J2VwaWtfcHl0aG9uJywgJy1waCcsICc3LjAnLCAnLXRuJywgJzgnLCAnLW1hJywgJzIwMCcsICctbWV0YWxfYmluZGluZycsICctaW1hZScsICc8aW5maWxlLm1hZT4nLCAnLW9tYWUnLCAnPG91dGZpbGUubWFlPic=

> <r_epik_Ionization_Penalty>
0.0050436

> <r_epik_Ionization_Penalty_Charging>
0.0050435

> <r_epik_Ionization_Penalty_Neutral>
9.69799e-08

> <r_epik_State_Penalty>
0.00366867

> <r_epik_Charging_Adjusted_Penalty>
0.00871217

> <i_epik_Tot_Q>
1

> <i_epik_Tot_abs_Q>
1

> <r_epik_Metal_State_Penalty>
-0

> <b_epik_Metal_Only>
0

> <s_lp_Force_Field>
OPLS_2005

> <r_lp_Energy>
25.3713

> <b_lp_Chiralities_Consistent>
1

> <s_lp_Variant>
AV-unprocessed.smi:1139-1

> <Gold.Version>
5.8.1

> <Gold.Id.Protein>
6NUR|6NUR_protein|mol2

> <Gold.PLP.Fitness>
33.3556

> <Gold.PLP.PLP>
-24.9874

> <Gold.PLP.part.hbond>
-2.2016

> <Gold.PLP.part.metal>
0.0000

> <Gold.PLP.part.buried>
-5.8004

> <Gold.PLP.part.nonpolar>
-18.6302

> <Gold.PLP.part.repulsive>
0.5437

> <Gold.PLP.ligand.clash>
0.0000

> <Gold.PLP.ligand.torsion>
0.3398

> <Gold.PLP.Chemscore.Hbond>
2.9913

> <Gold.PLP.Chemscore.CHOScore>
0.0000

> <Gold.PLP.Chemscore.Metal>
0.0000

> <Gold.Chemscore.Hbonds>
donor molecule, donor type, donor heavy atom, donor atom, acceptor molecule, acceptor atom, score
      L1  H    15    43       P1 10957  2.00
      P1  H  7989  7998       L1     4  0.94

> <Gold.PLP.Chemscore.Internal.Correction>
0.0741

> <Gold.Rescore>
     Score         DG    S(hbond)    S(metal)    S(lipo)     H(rot)  DE(clash)    DE(int)     intcor
     13.92     -14.43       1.91        0.00      59.43       1.72       0.01       0.50       ----

> <Gold.Chemscore.Fitness>
13.9196

> <Gold.Chemscore.DG>
-14.4265

> <Gold.Chemscore.ZeroCoef>
-5.4800

> <Gold.Chemscore.Hbond>
1.9145

> <Gold.Chemscore.Metal>
0.0000

> <Gold.Chemscore.Lipo>
59.4343

> <Gold.Chemscore.Internal_Hbond>
0.0000

> <Gold.Chemscore.DEClash>
0.0102

> <Gold.Chemscore.DEInternal>
0.4966

> <Gold.Chemscore.Rot>
1.7195

> <Gold.Chemscore.Internal.Correction>
   9.000000E+99

> <Gold.Chemscore.Hbonds>
donor molecule, donor type, donor heavy atom, donor atom, acceptor molecule, acceptor atom, score
      L1  H    15    43       P1 10957  0.68
      P1  H  7989  7998       L1     4  0.19

> <Gold.Chemscore.Hbond.Weighted>
-6.3945

> <Gold.Chemscore.Metal.Weighted>
-0.0000

> <Gold.Chemscore.Lipo.Weighted>
-6.9538

> <Gold.Chemscore.Internal_Hbond.Weighted>
0.0000

> <Gold.Chemscore.DEClash.Weighted>
0.0102

> <Gold.Chemscore.DEInternal.Weighted>
0.4966

> <Gold.Chemscore.Rot.Weighted>
4.4018

> <Gold.Chemscore.Internal.Correction.Weighted>
   9.000000E+99

> <Gold.Protein.RotatedTorsions>
[ 6907 6896 6895 6894 ] final  157.32 input  -60.11 | X-H torsion
[ 7974 7965 7964 7962 ] final  -84.66 input  175.53 | X-H torsion
[ 8008 7997 7996 7995 ] final  151.17 input   59.86 | X-H torsion
[ 10167 10162 10161 10158 ] final   99.42 input  -65.29 | X-H torsion
[ 10718 10713 10712 10709 ] final  139.21 input   66.30 | X-H torsion
[ 10763 10752 10751 10750 ] final   -4.01 input  -60.55 | X-H torsion
[ 11005 11000 10999 10996 ] final  110.03 input  -57.11 | X-H torsion

> <Gold.Protein.ActiveResidues>
 VAL166  LYS551  ARG553  GLY616  TRP617  ASP618  TYR619  PRO620  LYS621  CYS622 
 ASP623  PHE694  ASN695  SER759  ASP760  ASP761  ALA762  ILE779  LEU786  VAL792 
 PHE793  MET794  SER795  GLU796  ALA797  LYS798  CYS799  TRP800  GLU811  SER814 

> <Gold.Protein.RotatedAtoms>
  152.0168  133.3883  159.4241 H   0  0  0  0  0  0  0  0  0  0  0  0  # atno 6907 bound_to 6896
  150.6894  134.3670  159.4984 H   0  0  0  0  0  0  0  0  0  0  0  0  # atno 6908 bound_to 6896
  152.1438  134.9041  160.0603 H   0  0  0  0  0  0  0  0  0  0  0  0  # atno 6909 bound_to 6896
  145.5037  140.9545  143.1745 H   0  0  0  0  0  0  0  0  0  0  0  0  # atno 7974 bound_to 7965
  156.2685  140.2055  156.6134 H   0  0  0  0  0  0  0  0  0  0  0  0  # atno 8008 bound_to 7997
  154.6813  140.0539  157.0293 H   0  0  0  0  0  0  0  0  0  0  0  0  # atno 8009 bound_to 7997
  155.0996  140.3204  155.4554 H   0  0  0  0  0  0  0  0  0  0  0  0  # atno 8010 bound_to 7997
  139.7619  144.6951  151.0280 H   0  0  0  0  0  0  0  0  0  0  0  0  # atno 10167 bound_to 10162
  157.4168  131.1034  151.0396 H   0  0  0  0  0  0  0  0  0  0  0  0  # atno 10718 bound_to 10713
  153.3790  135.6997  153.6579 H   0  0  0  0  0  0  0  0  0  0  0  0  # atno 10763 bound_to 10752
  153.5198  135.3614  155.2627 H   0  0  0  0  0  0  0  0  0  0  0  0  # atno 10764 bound_to 10752
  154.8690  135.4155  154.3084 H   0  0  0  0  0  0  0  0  0  0  0  0  # atno 10765 bound_to 10752
  139.8873  134.9474  156.6217 H   0  0  0  0  0  0  0  0  0  0  0  0  # atno 11005 bound_to 11000
  144.7766  139.6617  143.7172 LP  0  0  0  0  0  0  0  0  0  0  0  0  # atno 17320 bound_to 7965
  146.2210  139.5635  142.9618 LP  0  0  0  0  0  0  0  0  0  0  0  0  # atno 17321 bound_to 7965
  140.7808  143.4687  151.0176 LP  0  0  0  0  0  0  0  0  0  0  0  0  # atno 17342 bound_to 10162
  139.8373  143.7610  152.3180 LP  0  0  0  0  0  0  0  0  0  0  0  0  # atno 17343 bound_to 10162
  157.1340  130.6114  149.5537 LP  0  0  0  0  0  0  0  0  0  0  0  0  # atno 17370 bound_to 10713
  155.9868  130.4904  150.7095 LP  0  0  0  0  0  0  0  0  0  0  0  0  # atno 17371 bound_to 10713
  140.7734  133.8719  155.8510 LP  0  0  0  0  0  0  0  0  0  0  0  0  # atno 17394 bound_to 11000
  140.9822  134.1390  157.4484 LP  0  0  0  0  0  0  0  0  0  0  0  0  # atno 17395 bound_to 11000

$$$$
