AV-unprocessed.smi:283|AV-procd|sdf|2148|dock2
  -GOLD-   2262021483D 1   1.00000     0.00000
 Structure written by MMmdl.
 48 51  0  0  0  0  0  0  0  0  1 V2000
  151.6461  140.6364  158.9049 C   0  0  0  0  0  0  0  0  0  0  0  0
  152.3505  141.8176  158.2133 C   0  0  1  0  0  0  0  0  0  0  0  0
  151.9479  141.9248  156.8113 N   0  0  0  0  0  0  0  0  0  0  0  0
  151.5975  140.8395  156.0858 C   0  0  0  0  0  0  0  0  0  0  0  0
  152.4883  139.8494  155.8176 N   0  0  0  0  0  0  0  0  0  0  0  0
  152.1115  138.7886  155.0976 C   0  0  0  0  0  0  0  0  0  0  0  0
  150.9201  138.5294  154.5544 N   0  0  0  0  0  0  0  0  0  0  0  0
  150.0251  139.5276  154.8094 C   0  0  0  0  0  0  0  0  0  0  0  0
  150.2832  140.7014  155.5698 C   0  0  0  0  0  0  0  0  0  0  0  0
  149.1332  141.4751  155.6441 N   0  0  0  0  0  0  0  0  0  0  0  0
  148.2482  140.7893  154.9721 C   0  0  0  0  0  0  0  0  0  0  0  0
  148.7104  139.6220  154.3997 N   0  0  0  0  0  0  0  0  0  0  0  0
  147.9556  138.6033  153.5967 C   0  0  1  0  0  0  0  0  0  0  0  0
  147.9497  137.3972  154.3061 O   0  0  0  0  0  0  0  0  0  0  0  0
  146.6948  137.1945  154.9495 C   0  0  1  0  0  0  0  0  0  0  0  0
  146.7214  137.8064  156.3686 C   0  0  0  0  0  0  0  0  0  0  0  0
  147.8099  137.3014  157.1139 O   0  0  0  0  0  0  0  0  0  0  0  0
  145.7128  137.8271  153.9543 C   0  0  1  0  0  0  0  0  0  0  0  0
  144.4969  138.2291  154.5542 O   0  0  0  0  0  0  0  0  0  0  0  0
  146.4826  139.0191  153.3968 C   0  0  2  0  0  0  0  0  0  0  0  0
  146.1695  139.1922  152.0289 O   0  0  0  0  0  0  0  0  0  0  0  0
  152.1024  143.1057  158.9972 C   0  0  0  0  0  0  0  0  0  0  0  0
  151.4470  144.1966  158.3783 C   0  0  0  0  0  0  0  0  0  0  0  0
  151.2063  145.3876  159.0890 C   0  0  0  0  0  0  0  0  0  0  0  0
  151.6119  145.4998  160.4307 C   0  0  0  0  0  0  0  0  0  0  0  0
  152.2526  144.4176  161.0610 C   0  0  0  0  0  0  0  0  0  0  0  0
  152.4965  143.2226  160.3548 C   0  0  0  0  0  0  0  0  0  0  0  0
  153.2717  141.9206  161.1885 Cl  0  0  0  0  0  0  0  0  0  0  0  0
  148.5309  138.5111  152.6744 H   0  0  0  0  0  0  0  0  0  0  0  0
  146.5245  136.1200  155.0298 H   0  0  0  0  0  0  0  0  0  0  0  0
  145.5042  137.1033  153.1643 H   0  0  0  0  0  0  0  0  0  0  0  0
  146.2623  139.9256  153.9628 H   0  0  0  0  0  0  0  0  0  0  0  0
  151.9854  140.5293  159.9356 H   0  0  0  0  0  0  0  0  0  0  0  0
  151.8462  139.6914  158.4000 H   0  0  0  0  0  0  0  0  0  0  0  0
  150.5651  140.7780  158.9250 H   0  0  0  0  0  0  0  0  0  0  0  0
  153.4242  141.6348  158.2203 H   0  0  0  0  0  0  0  0  0  0  0  0
  151.8860  142.8646  156.4473 H   0  0  0  0  0  0  0  0  0  0  0  0
  152.8738  138.0418  154.9310 H   0  0  0  0  0  0  0  0  0  0  0  0
  147.2269  141.1268  154.8766 H   0  0  0  0  0  0  0  0  0  0  0  0
  146.8567  138.8857  156.3045 H   0  0  0  0  0  0  0  0  0  0  0  0
  145.7887  137.6290  156.9046 H   0  0  0  0  0  0  0  0  0  0  0  0
  147.4780  136.6899  157.7535 H   0  0  0  0  0  0  0  0  0  0  0  0
  144.2004  139.0204  154.1309 H   0  0  0  0  0  0  0  0  0  0  0  0
  145.2526  139.4071  151.9554 H   0  0  0  0  0  0  0  0  0  0  0  0
  151.1178  144.1285  157.3519 H   0  0  0  0  0  0  0  0  0  0  0  0
  150.7075  146.2141  158.6050 H   0  0  0  0  0  0  0  0  0  0  0  0
  151.4274  146.4125  160.9778 H   0  0  0  0  0  0  0  0  0  0  0  0
  152.5555  144.5044  162.0942 H   0  0  0  0  0  0  0  0  0  0  0  0
  1  2  1  0  0  0  0
  1 33  1  0  0  0  0
  1 34  1  0  0  0  0
  1 35  1  0  0  0  0
  2  3  1  0  0  0  0
  2 22  1  0  0  0  0
  2 36  1  0  0  0  0
  3  4  1  0  0  0  0
  3 37  1  0  0  0  0
  4  9  1  0  0  0  0
  4  5  2  0  0  0  0
  5  6  1  0  0  0  0
  6  7  2  0  0  0  0
  6 38  1  0  0  0  0
  7  8  1  0  0  0  0
  8 12  1  0  0  0  0
  8  9  2  0  0  0  0
  9 10  1  0  0  0  0
 10 11  2  0  0  0  0
 11 12  1  0  0  0  0
 11 39  1  0  0  0  0
 12 13  1  0  0  0  0
 13 29  1  0  0  0  0
 13 20  1  0  0  0  0
 13 14  1  0  0  0  0
 14 15  1  0  0  0  0
 15 30  1  0  0  0  0
 15 16  1  0  0  0  0
 15 18  1  0  0  0  0
 16 17  1  0  0  0  0
 16 40  1  0  0  0  0
 16 41  1  0  0  0  0
 17 42  1  0  0  0  0
 18 31  1  0  0  0  0
 18 19  1  0  0  0  0
 18 20  1  0  0  0  0
 19 43  1  0  0  0  0
 20 32  1  0  0  0  0
 20 21  1  0  0  0  0
 21 44  1  0  0  0  0
 22 27  1  0  0  0  0
 22 23  2  0  0  0  0
 23 24  1  0  0  0  0
 23 45  1  0  0  0  0
 24 25  2  0  0  0  0
 24 46  1  0  0  0  0
 25 26  1  0  0  0  0
 25 47  1  0  0  0  0
 26 27  2  0  0  0  0
 26 48  1  0  0  0  0
 27 28  1  0  0  0  0
M  END
> <s_m_source_file>
AV-unprocessed.smi

> <i_m_source_file_index>
283

> <i_lp_mmshare_version>
43012

> <i_f3d_flags>
0

> <s_epik_input>
Q2xjMVtjSF1bY0hdW2NIXVtjSF1jMVtDQEhdKFtDSDNdKVtOSF1jKG5bY0hdbjIpYyhjMjMpbltjSF1uM1tDQEBIXTRPW0NASF0oW0NIMl1bT0hdKVtDQEBIXShbT0hdKVtDQEhdNFtPSF0=

> <s_epik_cmdline>
J2VwaWtfcHl0aG9uJywgJy1waCcsICc3LjAnLCAnLXRuJywgJzgnLCAnLW1hJywgJzIwMCcsICctbWV0YWxfYmluZGluZycsICctaW1hZScsICc8aW5maWxlLm1hZT4nLCAnLW9tYWUnLCAnPG91dGZpbGUubWFlPic=

> <r_lp_tautomer_probability>
1

> <r_epik_Ionization_Penalty>
0.000266407

> <r_epik_Ionization_Penalty_Charging>
0

> <r_epik_Ionization_Penalty_Neutral>
0.000266407

> <r_epik_State_Penalty>
-0

> <r_epik_Charging_Adjusted_Penalty>
0

> <i_epik_Tot_Q>
0

> <i_epik_Tot_abs_Q>
0

> <r_epik_Metal_State_Penalty>
-0

> <b_epik_Metal_Only>
0

> <s_epik_Chemistry_Notes>
This compound contains an acetal/aminal-like group ( X-CH(R)-Y where X, Y are N, S, or O) that may be acid/base labile, releasing an aldehyde.

> <s_lp_Force_Field>
OPLS_2005

> <r_lp_Energy>
43.8521

> <b_lp_Chiralities_Consistent>
1

> <s_lp_Variant>
AV-unprocessed.smi:283-24

> <Gold.Version>
5.8.1

> <Gold.Id.Protein>
6NUR|6NUR_protein|mol2

> <Gold.PLP.Fitness>
51.7842

> <Gold.PLP.PLP>
-44.7491

> <Gold.PLP.part.hbond>
-3.2943

> <Gold.PLP.part.metal>
0.0000

> <Gold.PLP.part.buried>
-1.1359

> <Gold.PLP.part.nonpolar>
-41.9409

> <Gold.PLP.part.repulsive>
1.8255

> <Gold.PLP.ligand.clash>
0.0000

> <Gold.PLP.ligand.torsion>
1.0366

> <Gold.PLP.Chemscore.Hbond>
2.9913

> <Gold.PLP.Chemscore.CHOScore>
0.0000

> <Gold.PLP.Chemscore.Metal>
0.0000

> <Gold.Chemscore.Hbonds>
donor molecule, donor type, donor heavy atom, donor atom, acceptor molecule, acceptor atom, score
      L1  H    19    43       P1 10175  0.46
      L1  H    21    44       P1 10175  1.00
      P1  H  7997  8008       L1     5  0.93

> <Gold.PLP.Chemscore.Internal.Correction>
0.1344

> <Gold.Rescore>
     Score         DG    S(hbond)    S(metal)    S(lipo)     H(rot)  DE(clash)    DE(int)     intcor
     13.91     -16.90       2.62        0.00     112.38       4.10       1.90       1.09       ----

> <Gold.Chemscore.Fitness>
13.9141

> <Gold.Chemscore.DG>
-16.8988

> <Gold.Chemscore.ZeroCoef>
-5.4800

> <Gold.Chemscore.Hbond>
2.6223

> <Gold.Chemscore.Metal>
0.0000

> <Gold.Chemscore.Lipo>
112.3781

> <Gold.Chemscore.Internal_Hbond>
0.0000

> <Gold.Chemscore.DEClash>
1.8952

> <Gold.Chemscore.DEInternal>
1.0896

> <Gold.Chemscore.Rot>
4.0968

> <Gold.Chemscore.Internal.Correction>
   9.000000E+99

> <Gold.Chemscore.Hbonds>
donor molecule, donor type, donor heavy atom, donor atom, acceptor molecule, acceptor atom, score
      L1  H    19    43       P1 10175  0.45
      L1  H    21    44       P1 10175  0.91
      P1  H  7997  8008       L1     5  0.78

> <Gold.Chemscore.Hbond.Weighted>
-8.7585

> <Gold.Chemscore.Metal.Weighted>
-0.0000

> <Gold.Chemscore.Lipo.Weighted>
-13.1482

> <Gold.Chemscore.Internal_Hbond.Weighted>
0.0000

> <Gold.Chemscore.DEClash.Weighted>
1.8952

> <Gold.Chemscore.DEInternal.Weighted>
1.0896

> <Gold.Chemscore.Rot.Weighted>
10.4879

> <Gold.Chemscore.Internal.Correction.Weighted>
   9.000000E+99

> <Gold.Protein.RotatedTorsions>
[ 6907 6896 6895 6894 ] final  162.11 input  -60.11 | X-H torsion
[ 7974 7965 7964 7962 ] final  -98.76 input  175.53 | X-H torsion
[ 8008 7997 7996 7995 ] final  -56.63 input   59.86 | X-H torsion
[ 10167 10162 10161 10158 ] final  -26.27 input  -65.29 | X-H torsion
[ 10718 10713 10712 10709 ] final   45.10 input   66.30 | X-H torsion
[ 10763 10752 10751 10750 ] final -154.76 input  -60.55 | X-H torsion
[ 11005 11000 10999 10996 ] final   43.32 input  -57.11 | X-H torsion

> <Gold.Protein.ActiveResidues>
 VAL166  LYS551  ARG553  GLY616  TRP617  ASP618  TYR619  PRO620  LYS621  CYS622 
 ASP623  PHE694  ASN695  SER759  ASP760  ASP761  ALA762  ILE779  LEU786  VAL792 
 PHE793  MET794  SER795  GLU796  ALA797  LYS798  CYS799  TRP800  GLU811  SER814 

> <Gold.Protein.RotatedAtoms>
  151.9454  133.3650  159.3980 H   0  0  0  0  0  0  0  0  0  0  0  0  # atno 6907 bound_to 6896
  150.6990  134.4396  159.5295 H   0  0  0  0  0  0  0  0  0  0  0  0  # atno 6908 bound_to 6896
  152.2060  134.8545  160.0553 H   0  0  0  0  0  0  0  0  0  0  0  0  # atno 6909 bound_to 6896
  145.3164  140.9412  143.2740 H   0  0  0  0  0  0  0  0  0  0  0  0  # atno 7974 bound_to 7965
  154.4237  140.1125  156.5668 H   0  0  0  0  0  0  0  0  0  0  0  0  # atno 8008 bound_to 7997
  155.6254  140.3495  155.4646 H   0  0  0  0  0  0  0  0  0  0  0  0  # atno 8009 bound_to 7997
  155.9991  140.1195  157.0555 H   0  0  0  0  0  0  0  0  0  0  0  0  # atno 8010 bound_to 7997
  140.7283  143.4192  151.0978 H   0  0  0  0  0  0  0  0  0  0  0  0  # atno 10167 bound_to 10162
  157.4339  130.8041  149.7630 H   0  0  0  0  0  0  0  0  0  0  0  0  # atno 10718 bound_to 10713
  154.7835  135.3182  154.7937 H   0  0  0  0  0  0  0  0  0  0  0  0  # atno 10763 bound_to 10752
  153.8642  135.6850  153.4784 H   0  0  0  0  0  0  0  0  0  0  0  0  # atno 10764 bound_to 10752
  153.1479  135.4711  154.9532 H   0  0  0  0  0  0  0  0  0  0  0  0  # atno 10765 bound_to 10752
  140.1656  134.4286  155.8289 H   0  0  0  0  0  0  0  0  0  0  0  0  # atno 11005 bound_to 11000
  144.8974  139.4694  143.6649 LP  0  0  0  0  0  0  0  0  0  0  0  0  # atno 17320 bound_to 7965
  146.3099  139.7708  142.9028 LP  0  0  0  0  0  0  0  0  0  0  0  0  # atno 17321 bound_to 7965
  139.7836  143.8320  152.3141 LP  0  0  0  0  0  0  0  0  0  0  0  0  # atno 17342 bound_to 10162
  139.8279  144.7267  150.9488 LP  0  0  0  0  0  0  0  0  0  0  0  0  # atno 17343 bound_to 10162
  155.9923  130.3931  150.2946 LP  0  0  0  0  0  0  0  0  0  0  0  0  # atno 17370 bound_to 10713
  157.1105  131.0220  151.3050 LP  0  0  0  0  0  0  0  0  0  0  0  0  # atno 17371 bound_to 10713
  141.2213  133.6933  156.7672 LP  0  0  0  0  0  0  0  0  0  0  0  0  # atno 17394 bound_to 11000
  140.2438  134.8593  157.3599 LP  0  0  0  0  0  0  0  0  0  0  0  0  # atno 17395 bound_to 11000

$$$$
