AV-unprocessed.smi:260|AV-procd|sdf|1981|dock1
  -GOLD-   2262021153D 1   1.00000     0.00000
 Structure written by MMmdl.
 53 56  0  0  0  0  0  0  0  0  1 V2000
  144.2739  137.1366  162.8763 C   0  0  0  0  0  0  0  0  0  0  0  0
  144.9224  136.3139  161.8677 N   0  0  0  0  0  0  0  0  0  0  0  0
  146.1286  136.5691  161.3353 C   0  0  0  0  0  0  0  0  0  0  0  0
  146.7910  137.5555  161.6606 O   0  0  0  0  0  0  0  0  0  0  0  0
  146.6957  135.5809  160.2816 C   0  0  1  0  0  0  0  0  0  0  0  0
  146.9449  134.2158  160.9520 C   0  0  0  0  0  0  0  0  0  0  0  0
  145.7243  135.4706  159.0933 C   0  0  0  0  0  0  0  0  0  0  0  0
  146.0753  136.6750  158.2126 C   0  0  0  0  0  0  0  0  0  0  0  0
  147.4813  136.9580  158.4739 N   0  0  0  0  0  0  0  0  0  0  0  0
  147.9793  138.2068  158.2605 C   0  0  0  0  0  0  0  0  0  0  0  0
  147.1415  139.1855  157.8252 N   0  0  0  0  0  0  0  0  0  0  0  0
  147.5939  140.4208  157.5942 C   0  0  0  0  0  0  0  0  0  0  0  0
  148.8316  140.8948  157.7365 N   0  0  0  0  0  0  0  0  0  0  0  0
  149.6790  139.9272  158.1876 C   0  0  0  0  0  0  0  0  0  0  0  0
  149.3427  138.5723  158.4748 C   0  0  0  0  0  0  0  0  0  0  0  0
  150.4759  137.8996  158.9227 N   0  0  0  0  0  0  0  0  0  0  0  0
  151.4214  138.7981  158.8945 C   0  0  0  0  0  0  0  0  0  0  0  0
  151.0287  140.0442  158.4658 N   0  0  0  0  0  0  0  0  0  0  0  0
  151.8620  141.2266  158.3393 C   0  0  0  0  0  0  0  0  0  0  0  0
  152.6453  141.5314  159.6307 C   0  0  1  0  0  0  0  0  0  0  0  0
  154.0177  141.2289  159.4651 O   0  0  0  0  0  0  0  0  0  0  0  0
  152.4664  142.9860  160.1088 C   0  0  1  0  0  0  0  0  0  0  0  0
  152.9219  144.0820  159.1416 C   0  0  0  0  0  0  0  0  0  0  0  0
  152.0997  145.2573  159.6207 C   0  0  0  0  0  0  0  0  0  0  0  0
  150.7747  144.5863  159.9747 C   0  0  0  0  0  0  0  0  0  0  0  0
  151.1085  143.2783  160.4316 O   0  0  0  0  0  0  0  0  0  0  0  0
  147.9585  136.0963  159.5563 C   0  0  0  0  0  0  0  0  0  0  0  0
  143.3161  136.6961  163.1531 H   0  0  0  0  0  0  0  0  0  0  0  0
  144.0909  138.1429  162.4978 H   0  0  0  0  0  0  0  0  0  0  0  0
  144.8893  137.2070  163.7741 H   0  0  0  0  0  0  0  0  0  0  0  0
  144.4311  135.4856  161.5630 H   0  0  0  0  0  0  0  0  0  0  0  0
  147.3406  133.4902  160.2407 H   0  0  0  0  0  0  0  0  0  0  0  0
  146.0264  133.7954  161.3638 H   0  0  0  0  0  0  0  0  0  0  0  0
  147.6665  134.3003  161.7655 H   0  0  0  0  0  0  0  0  0  0  0  0
  145.9148  134.5499  158.5397 H   0  0  0  0  0  0  0  0  0  0  0  0
  144.6710  135.4616  159.3776 H   0  0  0  0  0  0  0  0  0  0  0  0
  145.9005  136.4617  157.1578 H   0  0  0  0  0  0  0  0  0  0  0  0
  145.4658  137.5342  158.4962 H   0  0  0  0  0  0  0  0  0  0  0  0
  146.8584  141.1304  157.2449 H   0  0  0  0  0  0  0  0  0  0  0  0
  152.4358  138.5761  159.1924 H   0  0  0  0  0  0  0  0  0  0  0  0
  152.5434  141.0839  157.4996 H   0  0  0  0  0  0  0  0  0  0  0  0
  151.2195  142.0689  158.0805 H   0  0  0  0  0  0  0  0  0  0  0  0
  152.2767  140.8753  160.4203 H   0  0  0  0  0  0  0  0  0  0  0  0
  154.2323  140.5037  160.0318 H   0  0  0  0  0  0  0  0  0  0  0  0
  153.0255  143.1116  161.0375 H   0  0  0  0  0  0  0  0  0  0  0  0
  153.9959  144.2652  159.1827 H   0  0  0  0  0  0  0  0  0  0  0  0
  152.6555  143.8473  158.1106 H   0  0  0  0  0  0  0  0  0  0  0  0
  152.5516  145.6929  160.5129 H   0  0  0  0  0  0  0  0  0  0  0  0
  151.9939  146.0424  158.8714 H   0  0  0  0  0  0  0  0  0  0  0  0
  150.2131  145.1414  160.7263 H   0  0  0  0  0  0  0  0  0  0  0  0
  150.1494  144.4917  159.0858 H   0  0  0  0  0  0  0  0  0  0  0  0
  148.6597  136.5673  160.2447 H   0  0  0  0  0  0  0  0  0  0  0  0
  148.4966  135.2656  159.0985 H   0  0  0  0  0  0  0  0  0  0  0  0
  1  2  1  0  0  0  0
  1 28  1  0  0  0  0
  1 29  1  0  0  0  0
  1 30  1  0  0  0  0
  2  3  1  0  0  0  0
  2 31  1  0  0  0  0
  3  4  2  0  0  0  0
  3  5  1  0  0  0  0
  5 27  1  0  0  0  0
  5  6  1  0  0  0  0
  5  7  1  0  0  0  0
  6 32  1  0  0  0  0
  6 33  1  0  0  0  0
  6 34  1  0  0  0  0
  7  8  1  0  0  0  0
  7 35  1  0  0  0  0
  7 36  1  0  0  0  0
  8  9  1  0  0  0  0
  8 37  1  0  0  0  0
  8 38  1  0  0  0  0
  9 10  1  0  0  0  0
  9 27  1  0  0  0  0
 10 15  1  0  0  0  0
 10 11  2  0  0  0  0
 11 12  1  0  0  0  0
 12 13  2  0  0  0  0
 12 39  1  0  0  0  0
 13 14  1  0  0  0  0
 14 18  1  0  0  0  0
 14 15  2  0  0  0  0
 15 16  1  0  0  0  0
 16 17  2  0  0  0  0
 17 18  1  0  0  0  0
 17 40  1  0  0  0  0
 18 19  1  0  0  0  0
 19 20  1  0  0  0  0
 19 41  1  0  0  0  0
 19 42  1  0  0  0  0
 20 21  1  0  0  0  0
 20 22  1  0  0  0  0
 20 43  1  0  0  0  0
 21 44  1  0  0  0  0
 22 26  1  0  0  0  0
 22 23  1  0  0  0  0
 22 45  1  0  0  0  0
 23 24  1  0  0  0  0
 23 46  1  0  0  0  0
 23 47  1  0  0  0  0
 24 25  1  0  0  0  0
 24 48  1  0  0  0  0
 24 49  1  0  0  0  0
 25 26  1  0  0  0  0
 25 50  1  0  0  0  0
 25 51  1  0  0  0  0
 27 52  1  0  0  0  0
 27 53  1  0  0  0  0
M  END
> <s_m_source_file>
AV-unprocessed.smi

> <i_m_source_file_index>
260

> <i_lp_mmshare_version>
43012

> <i_f3d_flags>
0

> <s_epik_input>
W0NIM11bTkhdQyg9TylbQ0BAXTEoW0NIM10pW0NIMl1bQ0gyXU4oW0NIMl0xKWMobltjSF1uMiljKGMyMyluW2NIXW4zW0NIMl1bQ0BIXShbT0hdKVtDQEBIXTRbQ0gyXVtDSDJdW0NIMl1PNA==

> <s_epik_cmdline>
J2VwaWtfcHl0aG9uJywgJy1waCcsICc3LjAnLCAnLXRuJywgJzgnLCAnLW1hJywgJzIwMCcsICctbWV0YWxfYmluZGluZycsICctaW1hZScsICc8aW5maWxlLm1hZT4nLCAnLW9tYWUnLCAnPG91dGZpbGUubWFlPic=

> <r_lp_tautomer_probability>
1

> <r_epik_Ionization_Penalty>
0.00115068

> <r_epik_Ionization_Penalty_Charging>
0

> <r_epik_Ionization_Penalty_Neutral>
0.00115068

> <r_epik_State_Penalty>
0.000668876

> <r_epik_Charging_Adjusted_Penalty>
0.000668876

> <i_epik_Tot_Q>
0

> <i_epik_Tot_abs_Q>
0

> <r_epik_Metal_State_Penalty>
-0

> <b_epik_Metal_Only>
0

> <s_lp_Force_Field>
OPLS_2005

> <r_lp_Energy>
50.9621

> <b_lp_Chiralities_Consistent>
1

> <s_lp_Variant>
AV-unprocessed.smi:260-7

> <Gold.Version>
5.8.1

> <Gold.Id.Protein>
6NUR|6NUR_protein|mol2

> <Gold.PLP.Fitness>
46.1441

> <Gold.PLP.PLP>
-43.7072

> <Gold.PLP.part.hbond>
-2.6273

> <Gold.PLP.part.metal>
0.0000

> <Gold.PLP.part.buried>
-7.5402

> <Gold.PLP.part.nonpolar>
-33.7001

> <Gold.PLP.part.repulsive>
0.0596

> <Gold.PLP.ligand.clash>
0.0000

> <Gold.PLP.ligand.torsion>
1.1480

> <Gold.PLP.Chemscore.Hbond>
1.4131

> <Gold.PLP.Chemscore.CHOScore>
0.0000

> <Gold.PLP.Chemscore.Metal>
0.0000

> <Gold.Chemscore.Hbonds>
donor molecule, donor type, donor heavy atom, donor atom, acceptor molecule, acceptor atom, score
      P1  H  6931  6943       L1     4  0.13
      P1  H  6934  6947       L1     4  0.94

> <Gold.PLP.Chemscore.Internal.Correction>
0.4936

> <Gold.Rescore>
     Score         DG    S(hbond)    S(metal)    S(lipo)     H(rot)  DE(clash)    DE(int)     intcor
     15.03     -16.17       1.55        0.00     102.45       2.53       0.07       1.07       ----

> <Gold.Chemscore.Fitness>
15.0330

> <Gold.Chemscore.DG>
-16.1679

> <Gold.Chemscore.ZeroCoef>
-5.4800

> <Gold.Chemscore.Hbond>
1.5471

> <Gold.Chemscore.Metal>
0.0000

> <Gold.Chemscore.Lipo>
102.4516

> <Gold.Chemscore.Internal_Hbond>
0.0000

> <Gold.Chemscore.DEClash>
0.0668

> <Gold.Chemscore.DEInternal>
1.0681

> <Gold.Chemscore.Rot>
2.5259

> <Gold.Chemscore.Internal.Correction>
   9.000000E+99

> <Gold.Chemscore.Hbonds>
donor molecule, donor type, donor heavy atom, donor atom, acceptor molecule, acceptor atom, score
      P1  H  6931  6943       L1     4  0.13
      P1  H  6934  6947       L1     4  0.91

> <Gold.Chemscore.Hbond.Weighted>
-5.1674

> <Gold.Chemscore.Metal.Weighted>
-0.0000

> <Gold.Chemscore.Lipo.Weighted>
-11.9868

> <Gold.Chemscore.Internal_Hbond.Weighted>
0.0000

> <Gold.Chemscore.DEClash.Weighted>
0.0668

> <Gold.Chemscore.DEInternal.Weighted>
1.0681

> <Gold.Chemscore.Rot.Weighted>
6.4663

> <Gold.Chemscore.Internal.Correction.Weighted>
   9.000000E+99

> <Gold.Protein.RotatedTorsions>
[ 6907 6896 6895 6894 ] final  -96.33 input  -60.11 | X-H torsion
[ 7974 7965 7964 7962 ] final -132.97 input  175.53 | X-H torsion
[ 8008 7997 7996 7995 ] final   26.24 input   59.86 | X-H torsion
[ 10167 10162 10161 10158 ] final  -64.96 input  -65.29 | X-H torsion
[ 10718 10713 10712 10709 ] final -103.34 input   66.30 | X-H torsion
[ 10763 10752 10751 10750 ] final  -82.35 input  -60.55 | X-H torsion
[ 11005 11000 10999 10996 ] final  -36.23 input  -57.11 | X-H torsion

> <Gold.Protein.ActiveResidues>
 VAL166  LYS551  ARG553  GLY616  TRP617  ASP618  TYR619  PRO620  LYS621  CYS622 
 ASP623  PHE694  ASN695  SER759  ASP760  ASP761  ALA762  ILE779  LEU786  VAL792 
 PHE793  MET794  SER795  GLU796  ALA797  LYS798  CYS799  TRP800  GLU811  SER814 

> <Gold.Protein.RotatedAtoms>
  150.6986  134.1520  159.4143 H   0  0  0  0  0  0  0  0  0  0  0  0  # atno 6907 bound_to 6896
  151.9502  135.0170  160.0551 H   0  0  0  0  0  0  0  0  0  0  0  0  # atno 6908 bound_to 6896
  152.2017  133.4811  159.5099 H   0  0  0  0  0  0  0  0  0  0  0  0  # atno 6909 bound_to 6896
  144.9236  140.7044  143.4950 H   0  0  0  0  0  0  0  0  0  0  0  0  # atno 7974 bound_to 7965
  155.0242  140.3151  155.4782 H   0  0  0  0  0  0  0  0  0  0  0  0  # atno 8008 bound_to 7997
  156.2886  140.2192  156.5303 H   0  0  0  0  0  0  0  0  0  0  0  0  # atno 8009 bound_to 7997
  154.7426  140.0472  157.0812 H   0  0  0  0  0  0  0  0  0  0  0  0  # atno 8010 bound_to 7997
  140.5764  143.2322  151.6434 H   0  0  0  0  0  0  0  0  0  0  0  0  # atno 10167 bound_to 10162
  156.0262  130.5462  150.7238 H   0  0  0  0  0  0  0  0  0  0  0  0  # atno 10718 bound_to 10713
  154.5747  135.5594  153.7128 H   0  0  0  0  0  0  0  0  0  0  0  0  # atno 10763 bound_to 10752
  153.0060  135.6305  154.2065 H   0  0  0  0  0  0  0  0  0  0  0  0  # atno 10764 bound_to 10752
  154.2005  135.2878  155.2972 H   0  0  0  0  0  0  0  0  0  0  0  0  # atno 10765 bound_to 10752
  140.9858  133.7031  156.1763 H   0  0  0  0  0  0  0  0  0  0  0  0  # atno 11005 bound_to 11000
  145.3256  139.1775  143.4564 LP  0  0  0  0  0  0  0  0  0  0  0  0  # atno 17320 bound_to 7965
  146.3216  140.3278  142.8638 LP  0  0  0  0  0  0  0  0  0  0  0  0  # atno 17321 bound_to 7965
  139.5145  144.3409  152.0741 LP  0  0  0  0  0  0  0  0  0  0  0  0  # atno 17342 bound_to 10162
  140.2553  144.4125  150.6206 LP  0  0  0  0  0  0  0  0  0  0  0  0  # atno 17343 bound_to 10162
  157.4847  131.0905  151.0495 LP  0  0  0  0  0  0  0  0  0  0  0  0  # atno 17370 bound_to 10713
  157.0919  130.5946  149.5441 LP  0  0  0  0  0  0  0  0  0  0  0  0  # atno 17371 bound_to 10713
  140.7116  134.4455  157.5581 LP  0  0  0  0  0  0  0  0  0  0  0  0  # atno 17394 bound_to 11000
  139.8970  134.8647  156.2063 LP  0  0  0  0  0  0  0  0  0  0  0  0  # atno 17395 bound_to 11000

$$$$
