AV-unprocessed.smi:339|AV-procd|sdf|2379|dock10
  -GOLD-   2262022303D 1   1.00000     0.00000
 Structure written by MMmdl.
 45 46  0  0  0  0  0  0  0  0  1 V2000
  151.6240  144.1802  157.7806 C   0  0  0  0  0  0  0  0  0  0  0  0
  152.1454  143.6719  159.1118 C   0  0  0  0  0  0  0  0  0  0  0  0
  152.0427  144.4899  160.2559 C   0  0  0  0  0  0  0  0  0  0  0  0
  152.5296  144.0381  161.4964 C   0  0  0  0  0  0  0  0  0  0  0  0
  153.1287  142.7689  161.5974 C   0  0  0  0  0  0  0  0  0  0  0  0
  153.2373  141.9425  160.4600 C   0  0  0  0  0  0  0  0  0  0  0  0
  153.8978  140.5817  160.5835 C   0  0  0  0  0  0  0  0  0  0  0  0
  152.7307  142.3879  159.2161 C   0  0  0  0  0  0  0  0  0  0  0  0
  152.8282  141.5847  158.1095 O   0  0  0  0  0  0  0  0  0  0  0  0
  152.0669  140.3899  158.2076 C   0  0  0  0  0  0  0  0  0  0  0  0
  150.7067  140.6067  157.5258 C   0  0  1  0  0  0  0  0  0  0  0  0
  150.1577  139.3273  157.2760 O   0  0  0  0  0  0  0  0  0  0  0  0
  149.7243  141.3761  158.4369 C   0  0  0  0  0  0  0  0  0  0  0  0
  148.4475  141.6471  157.7654 N   0  0  0  0  0  0  0  0  0  0  0  0
  148.4693  141.4104  156.4055 N   0  0  0  0  0  0  0  0  0  0  0  0
  147.4266  141.6152  155.6697 C   0  0  0  0  0  0  0  0  0  0  0  0
  147.5690  141.3218  154.2007 C   0  0  0  0  0  0  0  0  0  0  0  0
  146.1955  142.1065  156.2808 C   0  0  0  0  0  0  0  0  0  0  0  0
  144.9984  142.3297  155.3668 C   0  0  0  0  0  0  0  0  0  0  0  0
  146.1843  142.3259  157.6196 C   0  0  0  0  0  0  0  0  0  0  0  0
  145.0237  142.7936  158.3062 C   0  0  0  0  0  0  0  0  0  0  0  0
  144.0732  143.1546  158.8597 N   0  0  0  0  0  0  0  0  0  0  0  0
  147.3633  142.0989  158.4583 C   0  0  0  0  0  0  0  0  0  0  0  0
  147.3892  142.2973  159.6739 O   0  0  0  0  0  0  0  0  0  0  0  0
  151.5529  145.2681  157.7767 H   0  0  0  0  0  0  0  0  0  0  0  0
  150.6325  143.7735  157.5829 H   0  0  0  0  0  0  0  0  0  0  0  0
  152.2862  143.8870  156.9657 H   0  0  0  0  0  0  0  0  0  0  0  0
  151.5906  145.4685  160.1858 H   0  0  0  0  0  0  0  0  0  0  0  0
  152.4484  144.6677  162.3701 H   0  0  0  0  0  0  0  0  0  0  0  0
  153.5066  142.4329  162.5517 H   0  0  0  0  0  0  0  0  0  0  0  0
  154.5383  140.3817  159.7238 H   0  0  0  0  0  0  0  0  0  0  0  0
  153.1427  139.7977  160.6400 H   0  0  0  0  0  0  0  0  0  0  0  0
  154.5156  140.5248  161.4800 H   0  0  0  0  0  0  0  0  0  0  0  0
  152.5894  139.5310  157.7819 H   0  0  0  0  0  0  0  0  0  0  0  0
  151.9193  140.1762  159.2667 H   0  0  0  0  0  0  0  0  0  0  0  0
  150.8535  141.1394  156.5853 H   0  0  0  0  0  0  0  0  0  0  0  0
  149.4822  139.1601  157.9152 H   0  0  0  0  0  0  0  0  0  0  0  0
  149.5675  140.8374  159.3737 H   0  0  0  0  0  0  0  0  0  0  0  0
  150.1638  142.3292  158.7371 H   0  0  0  0  0  0  0  0  0  0  0  0
  146.7832  140.6466  153.8616 H   0  0  0  0  0  0  0  0  0  0  0  0
  148.5264  140.8519  153.9708 H   0  0  0  0  0  0  0  0  0  0  0  0
  147.5030  142.2398  153.6162 H   0  0  0  0  0  0  0  0  0  0  0  0
  144.1824  142.8415  155.8759 H   0  0  0  0  0  0  0  0  0  0  0  0
  144.6164  141.3754  155.0035 H   0  0  0  0  0  0  0  0  0  0  0  0
  145.2741  142.9408  154.5066 H   0  0  0  0  0  0  0  0  0  0  0  0
  1  2  1  0  0  0  0
  1 25  1  0  0  0  0
  1 26  1  0  0  0  0
  1 27  1  0  0  0  0
  2  8  1  0  0  0  0
  2  3  2  0  0  0  0
  3  4  1  0  0  0  0
  3 28  1  0  0  0  0
  4  5  2  0  0  0  0
  4 29  1  0  0  0  0
  5  6  1  0  0  0  0
  5 30  1  0  0  0  0
  6  7  1  0  0  0  0
  6  8  2  0  0  0  0
  7 31  1  0  0  0  0
  7 32  1  0  0  0  0
  7 33  1  0  0  0  0
  8  9  1  0  0  0  0
  9 10  1  0  0  0  0
 10 11  1  0  0  0  0
 10 34  1  0  0  0  0
 10 35  1  0  0  0  0
 11 12  1  0  0  0  0
 11 13  1  0  0  0  0
 11 36  1  0  0  0  0
 12 37  1  0  0  0  0
 13 14  1  0  0  0  0
 13 38  1  0  0  0  0
 13 39  1  0  0  0  0
 14 23  1  0  0  0  0
 14 15  1  0  0  0  0
 15 16  2  0  0  0  0
 16 17  1  0  0  0  0
 16 18  1  0  0  0  0
 17 40  1  0  0  0  0
 17 41  1  0  0  0  0
 17 42  1  0  0  0  0
 18 19  1  0  0  0  0
 18 20  2  0  0  0  0
 19 43  1  0  0  0  0
 19 44  1  0  0  0  0
 19 45  1  0  0  0  0
 20 21  1  0  0  0  0
 20 23  1  0  0  0  0
 21 22  3  0  0  0  0
 23 24  2  0  0  0  0
M  END
> <s_m_source_file>
AV-unprocessed.smi

> <i_m_source_file_index>
339

> <i_lp_mmshare_version>
43012

> <i_f3d_flags>
0

> <s_epik_input>
W0NIM11jMVtjSF1bY0hdW2NIXWMoW0NIM10pYzFPW0NIMl1bQ0BIXShbT0hdKVtDSDJdbjJuYyhbQ0gzXSljKFtDSDNdKWMoQyNOKWMyPU8=

> <s_epik_cmdline>
J2VwaWtfcHl0aG9uJywgJy1waCcsICc3LjAnLCAnLXRuJywgJzgnLCAnLW1hJywgJzIwMCcsICctbWV0YWxfYmluZGluZycsICctaW1hZScsICc8aW5maWxlLm1hZT4nLCAnLW9tYWUnLCAnPG91dGZpbGUubWFlPic=

> <r_lp_tautomer_probability>
1

> <r_epik_Ionization_Penalty>
1.17331e-07

> <r_epik_Ionization_Penalty_Charging>
1.57223e-10

> <r_epik_Ionization_Penalty_Neutral>
1.17174e-07

> <r_epik_State_Penalty>
-0

> <r_epik_Charging_Adjusted_Penalty>
1.57223e-10

> <i_epik_Tot_Q>
0

> <i_epik_Tot_abs_Q>
0

> <r_epik_Metal_State_Penalty>
-0

> <b_epik_Metal_Only>
0

> <s_lp_Force_Field>
OPLS_2005

> <r_lp_Energy>
35.8185

> <b_lp_Chiralities_Consistent>
1

> <s_lp_Variant>
AV-unprocessed.smi:339-2

> <Gold.Version>
5.8.1

> <Gold.Id.Protein>
6NUR|6NUR_protein|mol2

> <Gold.PLP.Fitness>
47.2324

> <Gold.PLP.PLP>
-46.4748

> <Gold.PLP.part.hbond>
-1.6430

> <Gold.PLP.part.metal>
0.0000

> <Gold.PLP.part.buried>
-1.9049

> <Gold.PLP.part.nonpolar>
-43.3093

> <Gold.PLP.part.repulsive>
0.4355

> <Gold.PLP.ligand.clash>
0.0000

> <Gold.PLP.ligand.torsion>
0.5681

> <Gold.PLP.Chemscore.Hbond>
0.6022

> <Gold.PLP.Chemscore.CHOScore>
0.0000

> <Gold.PLP.Chemscore.Metal>
0.0000

> <Gold.Chemscore.Hbonds>
donor molecule, donor type, donor heavy atom, donor atom, acceptor molecule, acceptor atom, score
      P1  H  6933  6944       L1    24  0.44
      P1  H  6934  6946       L1    24  0.61

> <Gold.PLP.Chemscore.Internal.Correction>
0.0874

> <Gold.Rescore>
     Score         DG    S(hbond)    S(metal)    S(lipo)     H(rot)  DE(clash)    DE(int)     intcor
     14.37     -16.65       1.24        0.00     110.18       2.29       0.17       2.11       ----

> <Gold.Chemscore.Fitness>
14.3696

> <Gold.Chemscore.DG>
-16.6453

> <Gold.Chemscore.ZeroCoef>
-5.4800

> <Gold.Chemscore.Hbond>
1.2390

> <Gold.Chemscore.Metal>
0.0000

> <Gold.Chemscore.Lipo>
110.1780

> <Gold.Chemscore.Internal_Hbond>
0.0000

> <Gold.Chemscore.DEClash>
0.1652

> <Gold.Chemscore.DEInternal>
2.1106

> <Gold.Chemscore.Rot>
2.2905

> <Gold.Chemscore.Internal.Correction>
   9.000000E+99

> <Gold.Chemscore.Hbonds>
donor molecule, donor type, donor heavy atom, donor atom, acceptor molecule, acceptor atom, score
      P1  H  6933  6944       L1    24  0.42
      P1  H  6934  6946       L1    24  0.54

> <Gold.Chemscore.Hbond.Weighted>
-4.1381

> <Gold.Chemscore.Metal.Weighted>
-0.0000

> <Gold.Chemscore.Lipo.Weighted>
-12.8908

> <Gold.Chemscore.Internal_Hbond.Weighted>
0.0000

> <Gold.Chemscore.DEClash.Weighted>
0.1652

> <Gold.Chemscore.DEInternal.Weighted>
2.1106

> <Gold.Chemscore.Rot.Weighted>
5.8636

> <Gold.Chemscore.Internal.Correction.Weighted>
   9.000000E+99

> <Gold.Protein.RotatedTorsions>
[ 6907 6896 6895 6894 ] final   63.40 input  -60.11 | X-H torsion
[ 7974 7965 7964 7962 ] final   62.23 input  175.53 | X-H torsion
[ 8008 7997 7996 7995 ] final  -39.00 input   59.86 | X-H torsion
[ 10167 10162 10161 10158 ] final  132.45 input  -65.29 | X-H torsion
[ 10718 10713 10712 10709 ] final   92.09 input   66.30 | X-H torsion
[ 10763 10752 10751 10750 ] final -141.96 input  -60.55 | X-H torsion
[ 11005 11000 10999 10996 ] final   60.70 input  -57.11 | X-H torsion

> <Gold.Protein.ActiveResidues>
 VAL166  LYS551  ARG553  GLY616  TRP617  ASP618  TYR619  PRO620  LYS621  CYS622 
 ASP623  PHE694  ASN695  SER759  ASP760  ASP761  ALA762  ILE779  LEU786  VAL792 
 PHE793  MET794  SER795  GLU796  ALA797  LYS798  CYS799  TRP800  GLU811  SER814 

> <Gold.Protein.RotatedAtoms>
  152.4250  134.5886  159.9967 H   0  0  0  0  0  0  0  0  0  0  0  0  # atno 6907 bound_to 6896
  151.6025  133.3349  159.3058 H   0  0  0  0  0  0  0  0  0  0  0  0  # atno 6908 bound_to 6896
  150.8139  134.7346  159.6778 H   0  0  0  0  0  0  0  0  0  0  0  0  # atno 6909 bound_to 6896
  145.8757  139.3408  143.0736 H   0  0  0  0  0  0  0  0  0  0  0  0  # atno 7974 bound_to 7965
  154.4029  140.1563  156.2792 H   0  0  0  0  0  0  0  0  0  0  0  0  # atno 8008 bound_to 7997
  155.8885  140.3440  155.5916 H   0  0  0  0  0  0  0  0  0  0  0  0  # atno 8009 bound_to 7997
  155.7586  140.0814  157.2157 H   0  0  0  0  0  0  0  0  0  0  0  0  # atno 8010 bound_to 7997
  139.5339  144.6661  151.4853 H   0  0  0  0  0  0  0  0  0  0  0  0  # atno 10167 bound_to 10162
  157.6959  131.0431  150.3829 H   0  0  0  0  0  0  0  0  0  0  0  0  # atno 10718 bound_to 10713
  154.8526  135.3509  154.5951 H   0  0  0  0  0  0  0  0  0  0  0  0  # atno 10763 bound_to 10752
  153.6561  135.6992  153.5197 H   0  0  0  0  0  0  0  0  0  0  0  0  # atno 10764 bound_to 10752
  153.2855  135.4250  155.1076 H   0  0  0  0  0  0  0  0  0  0  0  0  # atno 10765 bound_to 10752
  140.0213  134.6149  155.9636 H   0  0  0  0  0  0  0  0  0  0  0  0  # atno 11005 bound_to 11000
  145.9084  140.9197  143.0467 LP  0  0  0  0  0  0  0  0  0  0  0  0  # atno 17320 bound_to 7965
  144.6726  140.1126  143.7454 LP  0  0  0  0  0  0  0  0  0  0  0  0  # atno 17321 bound_to 7965
  140.6534  143.8649  150.6809 LP  0  0  0  0  0  0  0  0  0  0  0  0  # atno 17342 bound_to 10162
  140.2021  143.3951  152.1783 LP  0  0  0  0  0  0  0  0  0  0  0  0  # atno 17343 bound_to 10162
  156.4241  130.3959  149.6805 LP  0  0  0  0  0  0  0  0  0  0  0  0  # atno 17370 bound_to 10713
  156.4045  130.7691  151.2701 LP  0  0  0  0  0  0  0  0  0  0  0  0  # atno 17371 bound_to 10713
  141.1775  133.6542  156.4887 LP  0  0  0  0  0  0  0  0  0  0  0  0  # atno 17394 bound_to 11000
  140.4383  134.7039  157.4978 LP  0  0  0  0  0  0  0  0  0  0  0  0  # atno 17395 bound_to 11000

$$$$
