AV-unprocessed.smi:91|AV-procd|sdf|835|dock10
  -GOLD-   2262017263D 1   1.00000     0.00000
 Structure written by MMmdl.
 60 63  0  0  0  0  0  0  0  0  1 V2000
  147.5482  133.3222  151.9491 C   0  0  0  0  0  0  0  0  0  0  0  0
  148.4601  133.3342  153.0331 O   0  0  0  0  0  0  0  0  0  0  0  0
  147.8246  133.5882  154.2761 C   0  0  0  0  0  0  0  0  0  0  0  0
  148.8571  133.5609  155.4118 C   0  0  2  0  0  0  0  0  0  0  0  0
  149.6827  134.8562  155.5018 C   0  0  0  0  0  0  0  0  0  0  0  0
  150.7129  134.7213  156.5238 N   0  0  0  0  0  0  0  0  0  0  0  0
  151.2968  135.8875  156.9000 C   0  0  0  0  0  0  0  0  0  0  0  0
  152.6486  136.0256  156.8316 N   0  0  0  0  0  0  0  0  0  0  0  0
  153.2304  137.1749  157.1870 C   0  0  0  0  0  0  0  0  0  0  0  0
  152.6603  138.2952  157.6341 N   0  0  0  0  0  0  0  0  0  0  0  0
  151.3060  138.1601  157.7152 C   0  0  0  0  0  0  0  0  0  0  0  0
  150.5499  137.0033  157.3739 C   0  0  0  0  0  0  0  0  0  0  0  0
  149.1986  137.2388  157.6027 N   0  0  0  0  0  0  0  0  0  0  0  0
  149.1580  138.4664  158.0443 C   0  0  0  0  0  0  0  0  0  0  0  0
  150.3784  139.0958  158.1354 N   0  0  0  0  0  0  0  0  0  0  0  0
  150.6295  140.4531  158.5854 C   0  0  0  0  0  0  0  0  0  0  0  0
  151.2331  141.3571  157.4822 C   0  0  1  0  0  0  0  0  0  0  0  0
  150.4660  141.2545  156.1414 C   0  0  0  0  0  0  0  0  0  0  0  0
  149.2402  141.9557  156.1917 O   0  0  0  0  0  0  0  0  0  0  0  0
  151.3838  142.8205  157.9684 C   0  0  2  0  0  0  0  0  0  0  0  0
  151.9831  143.7768  156.9523 C   0  0  0  0  0  0  0  0  0  0  0  0
  152.4336  144.9398  157.8291 C   0  0  0  0  0  0  0  0  0  0  0  0
  152.7957  144.3626  159.0784 O   0  0  0  0  0  0  0  0  0  0  0  0
  152.3643  143.0065  159.1314 C   0  0  0  0  0  0  0  0  0  0  0  0
  151.5734  133.5609  156.3075 C   0  0  0  0  0  0  0  0  0  0  0  0
  150.7436  132.2617  156.1984 C   0  0  0  0  0  0  0  0  0  0  0  0
  151.6302  131.1265  155.6633 C   0  0  0  0  0  0  0  0  0  0  0  0
  150.1489  131.8409  157.5594 C   0  0  0  0  0  0  0  0  0  0  0  0
  149.7138  132.4348  155.2187 O   0  0  0  0  0  0  0  0  0  0  0  0
  148.0842  133.1220  151.0215 H   0  0  0  0  0  0  0  0  0  0  0  0
  147.0454  134.2847  151.8461 H   0  0  0  0  0  0  0  0  0  0  0  0
  146.7938  132.5447  152.0767 H   0  0  0  0  0  0  0  0  0  0  0  0
  147.3406  134.5658  154.2453 H   0  0  0  0  0  0  0  0  0  0  0  0
  147.0465  132.8463  154.4626 H   0  0  0  0  0  0  0  0  0  0  0  0
  148.3054  133.4276  156.3422 H   0  0  0  0  0  0  0  0  0  0  0  0
  150.1686  135.0648  154.5477 H   0  0  0  0  0  0  0  0  0  0  0  0
  149.0191  135.6954  155.7076 H   0  0  0  0  0  0  0  0  0  0  0  0
  154.3066  137.2007  157.0993 H   0  0  0  0  0  0  0  0  0  0  0  0
  148.2305  138.9528  158.3103 H   0  0  0  0  0  0  0  0  0  0  0  0
  149.6928  140.8751  158.9515 H   0  0  0  0  0  0  0  0  0  0  0  0
  151.2971  140.3965  159.4454 H   0  0  0  0  0  0  0  0  0  0  0  0
  152.2387  140.9828  157.2840 H   0  0  0  0  0  0  0  0  0  0  0  0
  151.0624  141.6512  155.3202 H   0  0  0  0  0  0  0  0  0  0  0  0
  150.2644  140.2145  155.8852 H   0  0  0  0  0  0  0  0  0  0  0  0
  149.4093  142.8688  156.0162 H   0  0  0  0  0  0  0  0  0  0  0  0
  150.4099  143.2071  158.2734 H   0  0  0  0  0  0  0  0  0  0  0  0
  152.8452  143.3222  156.4620 H   0  0  0  0  0  0  0  0  0  0  0  0
  151.2765  144.0884  156.1826 H   0  0  0  0  0  0  0  0  0  0  0  0
  153.2618  145.4963  157.3898 H   0  0  0  0  0  0  0  0  0  0  0  0
  151.6084  145.6336  157.9936 H   0  0  0  0  0  0  0  0  0  0  0  0
  151.9147  142.7774  160.0979 H   0  0  0  0  0  0  0  0  0  0  0  0
  153.2390  142.3660  159.0071 H   0  0  0  0  0  0  0  0  0  0  0  0
  152.1401  133.7167  155.3881 H   0  0  0  0  0  0  0  0  0  0  0  0
  152.2975  133.4696  157.1187 H   0  0  0  0  0  0  0  0  0  0  0  0
  152.4686  130.9284  156.3320 H   0  0  0  0  0  0  0  0  0  0  0  0
  152.0405  131.3747  154.6838 H   0  0  0  0  0  0  0  0  0  0  0  0
  151.0648  130.2003  155.5561 H   0  0  0  0  0  0  0  0  0  0  0  0
  150.9381  131.5911  158.2688 H   0  0  0  0  0  0  0  0  0  0  0  0
  149.5113  130.9626  157.4544 H   0  0  0  0  0  0  0  0  0  0  0  0
  149.5526  132.6298  158.0167 H   0  0  0  0  0  0  0  0  0  0  0  0
  1  2  1  0  0  0  0
  1 30  1  0  0  0  0
  1 31  1  0  0  0  0
  1 32  1  0  0  0  0
  2  3  1  0  0  0  0
  3  4  1  0  0  0  0
  3 33  1  0  0  0  0
  3 34  1  0  0  0  0
  4 29  1  0  0  0  0
  4  5  1  0  0  0  0
  4 35  1  0  0  0  0
  5  6  1  0  0  0  0
  5 36  1  0  0  0  0
  5 37  1  0  0  0  0
  6  7  1  0  0  0  0
  6 25  1  0  0  0  0
  7 12  1  0  0  0  0
  7  8  2  0  0  0  0
  8  9  1  0  0  0  0
  9 10  2  0  0  0  0
  9 38  1  0  0  0  0
 10 11  1  0  0  0  0
 11 15  1  0  0  0  0
 11 12  2  0  0  0  0
 12 13  1  0  0  0  0
 13 14  2  0  0  0  0
 14 15  1  0  0  0  0
 14 39  1  0  0  0  0
 15 16  1  0  0  0  0
 16 17  1  0  0  0  0
 16 40  1  0  0  0  0
 16 41  1  0  0  0  0
 17 18  1  0  0  0  0
 17 20  1  0  0  0  0
 17 42  1  0  0  0  0
 18 19  1  0  0  0  0
 18 43  1  0  0  0  0
 18 44  1  0  0  0  0
 19 45  1  0  0  0  0
 20 24  1  0  0  0  0
 20 21  1  0  0  0  0
 20 46  1  0  0  0  0
 21 22  1  0  0  0  0
 21 47  1  0  0  0  0
 21 48  1  0  0  0  0
 22 23  1  0  0  0  0
 22 49  1  0  0  0  0
 22 50  1  0  0  0  0
 23 24  1  0  0  0  0
 24 51  1  0  0  0  0
 24 52  1  0  0  0  0
 25 26  1  0  0  0  0
 25 53  1  0  0  0  0
 25 54  1  0  0  0  0
 26 27  1  0  0  0  0
 26 28  1  0  0  0  0
 26 29  1  0  0  0  0
 27 55  1  0  0  0  0
 27 56  1  0  0  0  0
 27 57  1  0  0  0  0
 28 58  1  0  0  0  0
 28 59  1  0  0  0  0
 28 60  1  0  0  0  0
M  END
> <s_m_source_file>
AV-unprocessed.smi

> <i_m_source_file_index>
91

> <i_lp_mmshare_version>
43012

> <i_f3d_flags>
0

> <s_epik_input>
W0NIM11PW0NIMl1bQ0BASF0oTzEpW0NIMl1OKFtDSDJdQzEoW0NIM10pW0NIM10pYyhuW2NIXW4yKWMoYzIzKW5bY0hdbjNbQ0gyXVtDQEhdKFtDSDJdW09IXSlbQ0BASF00W0NIMl1bQ0gyXU9bQ0gyXTQ=

> <s_epik_cmdline>
J2VwaWtfcHl0aG9uJywgJy1waCcsICc3LjAnLCAnLXRuJywgJzgnLCAnLW1hJywgJzIwMCcsICctbWV0YWxfYmluZGluZycsICctaW1hZScsICc8aW5maWxlLm1hZT4nLCAnLW9tYWUnLCAnPG91dGZpbGUubWFlPic=

> <r_lp_tautomer_probability>
1

> <r_epik_Ionization_Penalty>
8.63591e-05

> <r_epik_Ionization_Penalty_Charging>
0

> <r_epik_Ionization_Penalty_Neutral>
8.63591e-05

> <r_epik_State_Penalty>
-0

> <r_epik_Charging_Adjusted_Penalty>
0

> <i_epik_Tot_Q>
0

> <i_epik_Tot_abs_Q>
0

> <r_epik_Metal_State_Penalty>
-0

> <b_epik_Metal_Only>
0

> <s_lp_Force_Field>
OPLS_2005

> <r_lp_Energy>
46.4326

> <b_lp_Chiralities_Consistent>
1

> <s_lp_Variant>
AV-unprocessed.smi:91-3

> <Gold.Version>
5.8.1

> <Gold.Id.Protein>
6NUR|6NUR_protein|mol2

> <Gold.PLP.Fitness>
40.9483

> <Gold.PLP.PLP>
-35.4853

> <Gold.PLP.part.hbond>
-2.0000

> <Gold.PLP.part.metal>
0.0000

> <Gold.PLP.part.buried>
-7.2178

> <Gold.PLP.part.nonpolar>
-26.1485

> <Gold.PLP.part.repulsive>
0.2096

> <Gold.PLP.ligand.clash>
0.0000

> <Gold.PLP.ligand.torsion>
0.4732

> <Gold.PLP.Chemscore.Hbond>
2.0000

> <Gold.PLP.Chemscore.CHOScore>
0.0000

> <Gold.PLP.Chemscore.Metal>
0.0000

> <Gold.Chemscore.Hbonds>
donor molecule, donor type, donor heavy atom, donor atom, acceptor molecule, acceptor atom, score
      L1  H    19    45       P1  8028  1.00
      P1  H 10752 10765       L1     8  1.00

> <Gold.PLP.Chemscore.Internal.Correction>
0.4094

> <Gold.Rescore>
     Score         DG    S(hbond)    S(metal)    S(lipo)     H(rot)  DE(clash)    DE(int)     intcor
     13.59     -15.91       1.74        0.00     105.85       3.03       1.81       0.51       ----

> <Gold.Chemscore.Fitness>
13.5903

> <Gold.Chemscore.DG>
-15.9084

> <Gold.Chemscore.ZeroCoef>
-5.4800

> <Gold.Chemscore.Hbond>
1.7356

> <Gold.Chemscore.Metal>
0.0000

> <Gold.Chemscore.Lipo>
105.8475

> <Gold.Chemscore.Internal_Hbond>
0.0000

> <Gold.Chemscore.DEClash>
1.8084

> <Gold.Chemscore.DEInternal>
0.5097

> <Gold.Chemscore.Rot>
3.0284

> <Gold.Chemscore.Internal.Correction>
   9.000000E+99

> <Gold.Chemscore.Hbonds>
donor molecule, donor type, donor heavy atom, donor atom, acceptor molecule, acceptor atom, score
      L1  H    19    45       P1  8028  0.96
      P1  H 10752 10765       L1     8  0.59

> <Gold.Chemscore.Hbond.Weighted>
-5.7970

> <Gold.Chemscore.Metal.Weighted>
-0.0000

> <Gold.Chemscore.Lipo.Weighted>
-12.3842

> <Gold.Chemscore.Internal_Hbond.Weighted>
0.0000

> <Gold.Chemscore.DEClash.Weighted>
1.8084

> <Gold.Chemscore.DEInternal.Weighted>
0.5097

> <Gold.Chemscore.Rot.Weighted>
7.7528

> <Gold.Chemscore.Internal.Correction.Weighted>
   9.000000E+99

> <Gold.Protein.RotatedTorsions>
[ 6907 6896 6895 6894 ] final  -86.35 input  -60.11 | X-H torsion
[ 7974 7965 7964 7962 ] final   46.92 input  175.53 | X-H torsion
[ 8008 7997 7996 7995 ] final -128.42 input   59.86 | X-H torsion
[ 10167 10162 10161 10158 ] final   58.52 input  -65.29 | X-H torsion
[ 10718 10713 10712 10709 ] final -115.41 input   66.30 | X-H torsion
[ 10763 10752 10751 10750 ] final -119.42 input  -60.55 | X-H torsion
[ 11005 11000 10999 10996 ] final -100.76 input  -57.11 | X-H torsion

> <Gold.Protein.ActiveResidues>
 VAL166  LYS551  ARG553  GLY616  TRP617  ASP618  TYR619  PRO620  LYS621  CYS622 
 ASP623  PHE694  ASN695  SER759  ASP760  ASP761  ALA762  ILE779  LEU786  VAL792 
 PHE793  MET794  SER795  GLU796  ALA797  LYS798  CYS799  TRP800  GLU811  SER814 

> <Gold.Protein.RotatedAtoms>
  150.6867  134.3063  159.4727 H   0  0  0  0  0  0  0  0  0  0  0  0  # atno 6907 bound_to 6896
  152.0954  134.9376  160.0580 H   0  0  0  0  0  0  0  0  0  0  0  0  # atno 6908 bound_to 6896
  152.0676  133.4056  159.4482 H   0  0  0  0  0  0  0  0  0  0  0  0  # atno 6909 bound_to 6896
  146.0345  139.4804  142.9817 H   0  0  0  0  0  0  0  0  0  0  0  0  # atno 7974 bound_to 7965
  155.2623  140.0436  157.2998 H   0  0  0  0  0  0  0  0  0  0  0  0  # atno 8008 bound_to 7997
  154.5703  140.2372  155.8171 H   0  0  0  0  0  0  0  0  0  0  0  0  # atno 8009 bound_to 7997
  156.2117  140.2997  155.9756 H   0  0  0  0  0  0  0  0  0  0  0  0  # atno 8010 bound_to 7997
  140.1863  144.4131  150.6591 H   0  0  0  0  0  0  0  0  0  0  0  0  # atno 10167 bound_to 10162
  156.0894  130.6079  150.8902 H   0  0  0  0  0  0  0  0  0  0  0  0  # atno 10718 bound_to 10713
  154.8616  135.4239  154.2295 H   0  0  0  0  0  0  0  0  0  0  0  0  # atno 10763 bound_to 10752
  153.3283  135.6986  153.6975 H   0  0  0  0  0  0  0  0  0  0  0  0  # atno 10764 bound_to 10752
  153.6002  135.3538  155.2916 H   0  0  0  0  0  0  0  0  0  0  0  0  # atno 10765 bound_to 10752
  141.1258  133.8424  157.1144 H   0  0  0  0  0  0  0  0  0  0  0  0  # atno 11005 bound_to 11000
  145.6986  141.0143  143.1517 LP  0  0  0  0  0  0  0  0  0  0  0  0  # atno 17320 bound_to 7965
  144.7045  139.8617  143.7434 LP  0  0  0  0  0  0  0  0  0  0  0  0  # atno 17321 bound_to 7965
  140.6486  143.2219  151.6129 LP  0  0  0  0  0  0  0  0  0  0  0  0  # atno 17342 bound_to 10162
  139.5275  144.3016  152.1068 LP  0  0  0  0  0  0  0  0  0  0  0  0  # atno 17343 bound_to 10162
  157.6038  131.0940  150.8914 LP  0  0  0  0  0  0  0  0  0  0  0  0  # atno 17370 bound_to 10713
  156.9067  130.5266  149.5281 LP  0  0  0  0  0  0  0  0  0  0  0  0  # atno 17371 bound_to 10713
  140.0255  134.9926  157.0678 LP  0  0  0  0  0  0  0  0  0  0  0  0  # atno 17394 bound_to 11000
  140.4369  134.1721  155.7171 LP  0  0  0  0  0  0  0  0  0  0  0  0  # atno 17395 bound_to 11000

$$$$
