AV-unprocessed.smi:1165|AV-procd|sdf|4932|dock9
  -GOLD-   22720 3513D 1   1.00000     0.00000
 Structure written by MMmdl.
 40 41  0  0  0  0  0  0  0  0  2 V2000
  147.6230  136.7265  154.5669 C   0  0  0  0  0  0  0  0  0  0  0  0
  148.4132  137.9159  155.1233 C   0  0  1  0  0  0  0  0  0  0  0  0
  149.9332  137.7162  154.9827 C   0  0  0  0  0  0  0  0  0  0  0  0
  150.6752  138.9159  155.4045 N   0  0  0  0  0  0  0  0  0  0  0  0
  152.4008  138.7567  155.5205 S   0  0  0  0  0  0  0  0  0  0  0  0
  152.6763  137.3292  155.7511 O   0  0  0  0  0  0  0  0  0  0  0  0
  152.9386  139.3664  154.2930 O   0  0  0  0  0  0  0  0  0  0  0  0
  152.6071  139.6511  156.8589 N   0  5  0  0  0  0  0  0  0  0  0  0
  151.4413  140.1445  157.5752 C   0  0  0  0  0  0  0  0  0  0  0  0
  151.1682  141.6249  157.2217 C   0  0  0  0  0  0  0  0  0  0  0  0
  151.5179  142.6296  158.3146 C   0  0  0  0  0  0  0  0  0  0  0  0
  152.1121  142.2186  159.5280 C   0  0  0  0  0  0  0  0  0  0  0  0
  152.4187  143.1907  160.4991 C   0  0  0  0  0  0  0  0  0  0  0  0
  152.1152  144.5375  160.2180 C   0  0  0  0  0  0  0  0  0  0  0  0
  151.5366  144.9444  159.0681 N   0  0  0  0  0  0  0  0  0  0  0  0
  151.2460  144.0053  158.1426 C   0  0  0  0  0  0  0  0  0  0  0  0
  150.1501  140.1581  154.8035 C   0  0  0  0  0  0  0  0  0  0  0  0
  148.6206  140.2522  154.9422 C   0  0  1  0  0  0  0  0  0  0  0  0
  148.0520  141.4623  154.1928 C   0  0  0  0  0  0  0  0  0  0  0  0
  148.0191  139.0801  154.4122 O   0  0  0  0  0  0  0  0  0  0  0  0
  147.8779  135.8058  155.0927 H   0  0  0  0  0  0  0  0  0  0  0  0
  147.8307  136.5754  153.5074 H   0  0  0  0  0  0  0  0  0  0  0  0
  146.5504  136.8861  154.6770 H   0  0  0  0  0  0  0  0  0  0  0  0
  148.1569  138.0344  156.1777 H   0  0  0  0  0  0  0  0  0  0  0  0
  150.2439  136.8619  155.5840 H   0  0  0  0  0  0  0  0  0  0  0  0
  150.1938  137.4914  153.9476 H   0  0  0  0  0  0  0  0  0  0  0  0
  150.5562  139.5625  157.3183 H   0  0  0  0  0  0  0  0  0  0  0  0
  151.5462  140.0476  158.6565 H   0  0  0  0  0  0  0  0  0  0  0  0
  151.7092  141.8897  156.3121 H   0  0  0  0  0  0  0  0  0  0  0  0
  150.1113  141.7430  156.9812 H   0  0  0  0  0  0  0  0  0  0  0  0
  152.3362  141.1775  159.7079 H   0  0  0  0  0  0  0  0  0  0  0  0
  152.8790  142.9110  161.4349 H   0  0  0  0  0  0  0  0  0  0  0  0
  152.3389  145.3094  160.9395 H   0  0  0  0  0  0  0  0  0  0  0  0
  150.7849  144.3633  157.2342 H   0  0  0  0  0  0  0  0  0  0  0  0
  150.6050  141.0270  155.2766 H   0  0  0  0  0  0  0  0  0  0  0  0
  150.4366  140.1848  153.7513 H   0  0  0  0  0  0  0  0  0  0  0  0
  148.3563  140.3465  155.9969 H   0  0  0  0  0  0  0  0  0  0  0  0
  148.4760  142.3924  154.5718 H   0  0  0  0  0  0  0  0  0  0  0  0
  146.9694  141.5190  154.3073 H   0  0  0  0  0  0  0  0  0  0  0  0
  148.2723  141.4046  153.1264 H   0  0  0  0  0  0  0  0  0  0  0  0
  1  2  1  0  0  0  0
  1 21  1  0  0  0  0
  1 22  1  0  0  0  0
  1 23  1  0  0  0  0
  2 20  1  0  0  0  0
  2  3  1  0  0  0  0
  2 24  1  0  0  0  0
  3  4  1  0  0  0  0
  3 25  1  0  0  0  0
  3 26  1  0  0  0  0
  4  5  1  0  0  0  0
  4 17  1  0  0  0  0
  5  6  2  0  0  0  0
  5  7  2  0  0  0  0
  5  8  1  0  0  0  0
  8  9  1  0  0  0  0
  9 10  1  0  0  0  0
  9 27  1  0  0  0  0
  9 28  1  0  0  0  0
 10 11  1  0  0  0  0
 10 29  1  0  0  0  0
 10 30  1  0  0  0  0
 11 16  1  0  0  0  0
 11 12  2  0  0  0  0
 12 13  1  0  0  0  0
 12 31  1  0  0  0  0
 13 14  2  0  0  0  0
 13 32  1  0  0  0  0
 14 15  1  0  0  0  0
 14 33  1  0  0  0  0
 15 16  2  0  0  0  0
 16 34  1  0  0  0  0
 17 18  1  0  0  0  0
 17 35  1  0  0  0  0
 17 36  1  0  0  0  0
 18 19  1  0  0  0  0
 18 20  1  0  0  0  0
 18 37  1  0  0  0  0
 19 38  1  0  0  0  0
 19 39  1  0  0  0  0
 19 40  1  0  0  0  0
M  CHG  1   8  -1
M  END
> <s_m_source_file>
AV-unprocessed.smi

> <i_m_source_file_index>
1165

> <i_lp_mmshare_version>
43012

> <i_f3d_flags>
0

> <s_epik_input>
W0NIM11bQ0BASF0xW0NIMl1OKFtDSDJdW0NASF0oTzEpW0NIM10pUyg9TykoPU8pW05IXVtDSDJdW0NIMl1jMltjSF1bY0hdW2NIXW5bY0hdMg==

> <s_epik_cmdline>
J2VwaWtfcHl0aG9uJywgJy1waCcsICc3LjAnLCAnLXRuJywgJzgnLCAnLW1hJywgJzIwMCcsICctbWV0YWxfYmluZGluZycsICctaW1hZScsICc8aW5maWxlLm1hZT4nLCAnLW9tYWUnLCAnPG91dGZpbGUubWFlPic=

> <r_epik_Ionization_Penalty>
1.23471

> <r_epik_Ionization_Penalty_Charging>
1.20871

> <r_epik_Ionization_Penalty_Neutral>
0.025996

> <r_epik_State_Penalty>
1.46261

> <r_epik_Charging_Adjusted_Penalty>
2.67132

> <i_epik_Tot_Q>
-1

> <i_epik_Tot_abs_Q>
1

> <r_epik_Metal_State_Penalty>
0.521406

> <b_epik_Metal_Only>
0

> <s_lp_Force_Field>
OPLS_2005

> <r_lp_Energy>
1.53282

> <b_lp_Chiralities_Consistent>
1

> <s_lp_Variant>
AV-unprocessed.smi:1165-5

> <Gold.Version>
5.8.1

> <Gold.Id.Protein>
6NUR|6NUR_protein|mol2

> <Gold.PLP.Fitness>
43.6191

> <Gold.PLP.PLP>
-34.3770

> <Gold.PLP.part.hbond>
-3.0000

> <Gold.PLP.part.metal>
0.0000

> <Gold.PLP.part.buried>
-2.9395

> <Gold.PLP.part.nonpolar>
-29.1532

> <Gold.PLP.part.repulsive>
0.3027

> <Gold.PLP.ligand.clash>
0.0000

> <Gold.PLP.ligand.torsion>
2.0078

> <Gold.PLP.Chemscore.Hbond>
2.9329

> <Gold.PLP.Chemscore.CHOScore>
1.0000

> <Gold.PLP.Chemscore.Metal>
0.0000

> <Gold.Chemscore.Hbonds>
donor molecule, donor type, donor heavy atom, donor atom, acceptor molecule, acceptor atom, score
      P1  H  7989  7998       L1     7  0.30
      P1  H  7997  8009       L1     8  2.00
      P1  H 10752 10765       L1     6  0.64
      L1  C    16    34       P1  8028  1.00

> <Gold.PLP.Chemscore.Internal.Correction>
1.4590

> <Gold.Rescore>
     Score         DG    S(hbond)    S(metal)    S(lipo)     H(rot)  DE(clash)    DE(int)     intcor
     16.11     -19.49       2.29        0.00      86.47       1.47       1.39       1.99       ----

> <Gold.Chemscore.Fitness>
16.1054

> <Gold.Chemscore.DG>
-19.4889

> <Gold.Chemscore.ZeroCoef>
-5.4800

> <Gold.Chemscore.Hbond>
2.2944

> <Gold.Chemscore.Metal>
0.0000

> <Gold.Chemscore.Lipo>
86.4676

> <Gold.Chemscore.Internal_Hbond>
0.0000

> <Gold.Chemscore.DEClash>
1.3934

> <Gold.Chemscore.DEInternal>
1.9902

> <Gold.Chemscore.Rot>
1.4731

> <Gold.Chemscore.Internal.Correction>
   9.000000E+99

> <Gold.Chemscore.Hbonds>
donor molecule, donor type, donor heavy atom, donor atom, acceptor molecule, acceptor atom, score
      P1  H  7989  7998       L1     7  0.26
      P1  H  7997  8009       L1     8  0.26
      P1  H 10752 10765       L1     6  0.61

> <Gold.Chemscore.Hbond.Weighted>
-7.6634

> <Gold.Chemscore.Metal.Weighted>
-0.0000

> <Gold.Chemscore.Lipo.Weighted>
-10.1167

> <Gold.Chemscore.Internal_Hbond.Weighted>
0.0000

> <Gold.Chemscore.DEClash.Weighted>
1.3934

> <Gold.Chemscore.DEInternal.Weighted>
1.9902

> <Gold.Chemscore.Rot.Weighted>
3.7712

> <Gold.Chemscore.Internal.Correction.Weighted>
   9.000000E+99

> <Gold.Protein.RotatedTorsions>
[ 6907 6896 6895 6894 ] final   62.53 input  -60.11 | X-H torsion
[ 7974 7965 7964 7962 ] final   66.91 input  175.53 | X-H torsion
[ 8008 7997 7996 7995 ] final  176.88 input   59.86 | X-H torsion
[ 10167 10162 10161 10158 ] final  -87.73 input  -65.29 | X-H torsion
[ 10718 10713 10712 10709 ] final -104.14 input   66.30 | X-H torsion
[ 10763 10752 10751 10750 ] final -156.34 input  -60.55 | X-H torsion
[ 11005 11000 10999 10996 ] final  -96.79 input  -57.11 | X-H torsion

> <Gold.Protein.ActiveResidues>
 VAL166  LYS551  ARG553  GLY616  TRP617  ASP618  TYR619  PRO620  LYS621  CYS622 
 ASP623  PHE694  ASN695  SER759  ASP760  ASP761  ALA762  ILE779  LEU786  VAL792 
 PHE793  MET794  SER795  GLU796  ALA797  LYS798  CYS799  TRP800  GLU811  SER814 

> <Gold.Protein.RotatedAtoms>
  152.4180  134.6007  159.9999 H   0  0  0  0  0  0  0  0  0  0  0  0  # atno 6907 bound_to 6896
  151.6165  133.3337  159.3087 H   0  0  0  0  0  0  0  0  0  0  0  0  # atno 6908 bound_to 6896
  150.8068  134.7237  159.6717 H   0  0  0  0  0  0  0  0  0  0  0  0  # atno 6909 bound_to 6896
  145.8210  139.3085  143.1043 H   0  0  0  0  0  0  0  0  0  0  0  0  # atno 7974 bound_to 7965
  156.0717  140.1372  156.9820 H   0  0  0  0  0  0  0  0  0  0  0  0  # atno 8008 bound_to 7997
  154.4535  140.0970  156.6741 H   0  0  0  0  0  0  0  0  0  0  0  0  # atno 8009 bound_to 7997
  155.5217  140.3456  155.4410 H   0  0  0  0  0  0  0  0  0  0  0  0  # atno 8010 bound_to 7997
  140.3816  143.2746  151.9377 H   0  0  0  0  0  0  0  0  0  0  0  0  # atno 10167 bound_to 10162
  156.0292  130.5501  150.7354 H   0  0  0  0  0  0  0  0  0  0  0  0  # atno 10718 bound_to 10713
  154.7720  135.3148  154.8169 H   0  0  0  0  0  0  0  0  0  0  0  0  # atno 10763 bound_to 10752
  153.8902  135.6826  153.4765 H   0  0  0  0  0  0  0  0  0  0  0  0  # atno 10764 bound_to 10752
  153.1336  135.4769  154.9322 H   0  0  0  0  0  0  0  0  0  0  0  0  # atno 10765 bound_to 10752
  141.1400  133.8123  157.0619 H   0  0  0  0  0  0  0  0  0  0  0  0  # atno 11005 bound_to 11000
  145.9675  140.8787  143.0179 LP  0  0  0  0  0  0  0  0  0  0  0  0  # atno 17320 bound_to 7965
  144.6748  140.1899  143.7397 LP  0  0  0  0  0  0  0  0  0  0  0  0  # atno 17321 bound_to 7965
  139.4795  144.5813  151.7928 LP  0  0  0  0  0  0  0  0  0  0  0  0  # atno 17342 bound_to 10162
  140.4932  144.1280  150.5954 LP  0  0  0  0  0  0  0  0  0  0  0  0  # atno 17343 bound_to 10162
  157.4936  131.0913  151.0398 LP  0  0  0  0  0  0  0  0  0  0  0  0  # atno 17370 bound_to 10713
  157.0798  130.5898  149.5418 LP  0  0  0  0  0  0  0  0  0  0  0  0  # atno 17371 bound_to 10713
  140.0566  134.9777  157.1231 LP  0  0  0  0  0  0  0  0  0  0  0  0  # atno 17394 bound_to 11000
  140.3910  134.2184  155.7166 LP  0  0  0  0  0  0  0  0  0  0  0  0  # atno 17395 bound_to 11000

$$$$
