AV-unprocessed.smi:766|AV-procd|sdf|3651|dock6
  -GOLD-   22720 1 53D 1   1.00000     0.00000
 Structure written by MMmdl.
 47 49  0  0  0  0  0  0  0  0  2 V2000
  153.8627  142.7656  163.6034 C   0  0  0  0  0  0  0  0  0  0  0  0
  153.2319  142.7163  162.2229 C   0  0  0  0  0  0  0  0  0  0  0  0
  152.4135  143.7891  161.8023 C   0  0  0  0  0  0  0  0  0  0  0  0
  151.8115  143.7831  160.5250 C   0  0  0  0  0  0  0  0  0  0  0  0
  150.9879  144.7130  159.9142 N   0  0  0  0  0  0  0  0  0  0  0  0
  150.7626  144.1393  158.7360 C   0  0  0  0  0  0  0  0  0  0  0  0
  151.3454  142.9461  158.5100 N   0  0  0  0  0  0  0  0  0  0  0  0
  151.2518  142.1344  157.3101 C   0  0  0  0  0  0  0  0  0  0  0  0
  149.7995  141.9783  156.8199 C   0  0  2  0  0  0  0  0  0  0  0  0
  149.0985  141.1152  157.6954 O   0  0  0  0  0  0  0  0  0  0  0  0
  149.7286  141.4068  155.3949 C   0  0  0  0  0  0  0  0  0  0  0  0
  148.5667  141.9482  154.6635 N   0  3  0  0  0  0  0  0  0  0  0  0
  147.2581  141.5635  155.2291 C   0  0  0  0  0  0  0  0  0  0  0  0
  146.0933  142.1328  154.4026 C   0  0  0  0  0  0  0  0  0  0  0  0
  145.2777  143.0634  155.1627 N   0  0  0  0  0  0  0  0  0  0  0  0
  144.2236  143.8360  154.7219 C   0  0  0  0  0  0  0  0  0  0  0  0
  143.7685  144.5508  155.7926 C   0  0  0  0  0  0  0  0  0  0  0  0
  144.6168  144.1412  156.8587 C   0  0  0  0  0  0  0  0  0  0  0  0
  145.5205  143.2521  156.4782 N   0  0  0  0  0  0  0  0  0  0  0  0
  152.0520  142.6652  159.6739 C   0  0  0  0  0  0  0  0  0  0  0  0
  152.8613  141.5906  160.0817 C   0  0  0  0  0  0  0  0  0  0  0  0
  153.4551  141.6125  161.3609 C   0  0  0  0  0  0  0  0  0  0  0  0
  154.3282  140.4474  161.7915 C   0  0  0  0  0  0  0  0  0  0  0  0
  153.6515  143.7110  164.1040 H   0  0  0  0  0  0  0  0  0  0  0  0
  154.9456  142.6601  163.5351 H   0  0  0  0  0  0  0  0  0  0  0  0
  153.4745  141.9609  164.2282 H   0  0  0  0  0  0  0  0  0  0  0  0
  152.2414  144.6291  162.4592 H   0  0  0  0  0  0  0  0  0  0  0  0
  150.1408  144.6161  157.9922 H   0  0  0  0  0  0  0  0  0  0  0  0
  151.8622  142.6035  156.5377 H   0  0  0  0  0  0  0  0  0  0  0  0
  151.6971  141.1586  157.5103 H   0  0  0  0  0  0  0  0  0  0  0  0
  149.3113  142.9539  156.8394 H   0  0  0  0  0  0  0  0  0  0  0  0
  148.1983  141.3993  157.7471 H   0  0  0  0  0  0  0  0  0  0  0  0
  150.6328  141.6750  154.8465 H   0  0  0  0  0  0  0  0  0  0  0  0
  149.6801  140.3169  155.4188 H   0  0  0  0  0  0  0  0  0  0  0  0
  148.6337  142.9563  154.6581 H   0  0  0  0  0  0  0  0  0  0  0  0
  147.1846  140.4764  155.2821 H   0  0  0  0  0  0  0  0  0  0  0  0
  147.1966  141.9376  156.2517 H   0  0  0  0  0  0  0  0  0  0  0  0
  146.4848  142.6596  153.5314 H   0  0  0  0  0  0  0  0  0  0  0  0
  145.4591  141.3309  154.0214 H   0  0  0  0  0  0  0  0  0  0  0  0
  143.8879  143.8134  153.6955 H   0  0  0  0  0  0  0  0  0  0  0  0
  142.9517  145.2571  155.8121 H   0  0  0  0  0  0  0  0  0  0  0  0
  144.6035  144.4616  157.8900 H   0  0  0  0  0  0  0  0  0  0  0  0
  153.0244  140.7570  159.4148 H   0  0  0  0  0  0  0  0  0  0  0  0
  154.3417  139.6604  161.0370 H   0  0  0  0  0  0  0  0  0  0  0  0
  153.9575  140.0125  162.7199 H   0  0  0  0  0  0  0  0  0  0  0  0
  155.3547  140.7790  161.9486 H   0  0  0  0  0  0  0  0  0  0  0  0
  148.6077  141.6224  153.7079 H   0  0  0  0  0  0  0  0  0  0  0  0
  1  2  1  0  0  0  0
  1 24  1  0  0  0  0
  1 25  1  0  0  0  0
  1 26  1  0  0  0  0
  2 22  1  0  0  0  0
  2  3  2  0  0  0  0
  3  4  1  0  0  0  0
  3 27  1  0  0  0  0
  4 20  2  0  0  0  0
  4  5  1  0  0  0  0
  5  6  2  0  0  0  0
  6  7  1  0  0  0  0
  6 28  1  0  0  0  0
  7  8  1  0  0  0  0
  7 20  1  0  0  0  0
  8  9  1  0  0  0  0
  8 29  1  0  0  0  0
  8 30  1  0  0  0  0
  9 10  1  0  0  0  0
  9 11  1  0  0  0  0
  9 31  1  0  0  0  0
 10 32  1  0  0  0  0
 11 12  1  0  0  0  0
 11 33  1  0  0  0  0
 11 34  1  0  0  0  0
 12 13  1  0  0  0  0
 12 35  1  0  0  0  0
 12 47  1  0  0  0  0
 13 14  1  0  0  0  0
 13 36  1  0  0  0  0
 13 37  1  0  0  0  0
 14 15  1  0  0  0  0
 14 38  1  0  0  0  0
 14 39  1  0  0  0  0
 15 19  1  0  0  0  0
 15 16  1  0  0  0  0
 16 17  2  0  0  0  0
 16 40  1  0  0  0  0
 17 18  1  0  0  0  0
 17 41  1  0  0  0  0
 18 19  2  0  0  0  0
 18 42  1  0  0  0  0
 20 21  1  0  0  0  0
 21 22  2  0  0  0  0
 21 43  1  0  0  0  0
 22 23  1  0  0  0  0
 23 44  1  0  0  0  0
 23 45  1  0  0  0  0
 23 46  1  0  0  0  0
M  CHG  1  12   1
M  END
> <s_m_source_file>
AV-unprocessed.smi

> <i_m_source_file_index>
766

> <i_lp_mmshare_version>
43012

> <i_f3d_flags>
0

> <s_epik_input>
W0NIM11jKFtjSF0xKWMoW0NIM10pW2NIXWMoYzEyKW4oW2NIXW4yKVtDSDJdW0NASF0oW09IXSlbQ0gyXVtOSF1bQ0gyXVtDSDJdbjNbY0hdW2NIXVtjSF1uMw==

> <s_epik_cmdline>
J2VwaWtfcHl0aG9uJywgJy1waCcsICc3LjAnLCAnLXRuJywgJzgnLCAnLW1hJywgJzIwMCcsICctbWV0YWxfYmluZGluZycsICctaW1hZScsICc8aW5maWxlLm1hZT4nLCAnLW9tYWUnLCAnPG91dGZpbGUubWFlPic=

> <r_lp_tautomer_probability>
1

> <r_epik_Ionization_Penalty>
0.127222

> <r_epik_Ionization_Penalty_Charging>
0.043815

> <r_epik_Ionization_Penalty_Neutral>
0.0834074

> <r_epik_State_Penalty>
0.115563

> <r_epik_Charging_Adjusted_Penalty>
0.159378

> <i_epik_Tot_Q>
1

> <i_epik_Tot_abs_Q>
1

> <r_epik_Metal_State_Penalty>
0.102594

> <b_epik_Metal_Only>
0

> <s_lp_Force_Field>
OPLS_2005

> <r_lp_Energy>
9.49244

> <b_lp_Chiralities_Consistent>
1

> <s_lp_Variant>
AV-unprocessed.smi:766-1

> <Gold.Version>
5.8.1

> <Gold.Id.Protein>
6NUR|6NUR_protein|mol2

> <Gold.PLP.Fitness>
62.3019

> <Gold.PLP.PLP>
-52.7601

> <Gold.PLP.part.hbond>
-1.0000

> <Gold.PLP.part.metal>
0.0000

> <Gold.PLP.part.buried>
-6.2026

> <Gold.PLP.part.nonpolar>
-46.6506

> <Gold.PLP.part.repulsive>
1.0109

> <Gold.PLP.ligand.clash>
0.0000

> <Gold.PLP.ligand.torsion>
1.0387

> <Gold.PLP.Chemscore.Hbond>
1.8560

> <Gold.PLP.Chemscore.CHOScore>
1.9510

> <Gold.PLP.Chemscore.Metal>
0.0000

> <Gold.Chemscore.Hbonds>
donor molecule, donor type, donor heavy atom, donor atom, acceptor molecule, acceptor atom, score
      L1  H    12    35       P1  8028  2.00
      L1  C     6    28       P1  8028  0.58
      L1  C     6    28       P1  8029  0.33
      L1  C    16    40       P1 10174  1.00

> <Gold.PLP.Chemscore.Internal.Correction>
0.1983

> <Gold.Rescore>
     Score         DG    S(hbond)    S(metal)    S(lipo)     H(rot)  DE(clash)    DE(int)     intcor
     14.73     -16.92       0.99        0.00     133.81       2.93       1.27       0.92       ----

> <Gold.Chemscore.Fitness>
14.7283

> <Gold.Chemscore.DG>
-16.9172

> <Gold.Chemscore.ZeroCoef>
-5.4800

> <Gold.Chemscore.Hbond>
0.9852

> <Gold.Chemscore.Metal>
0.0000

> <Gold.Chemscore.Lipo>
133.8149

> <Gold.Chemscore.Internal_Hbond>
0.0000

> <Gold.Chemscore.DEClash>
1.2687

> <Gold.Chemscore.DEInternal>
0.9202

> <Gold.Chemscore.Rot>
2.9335

> <Gold.Chemscore.Internal.Correction>
   9.000000E+99

> <Gold.Chemscore.Hbonds>
donor molecule, donor type, donor heavy atom, donor atom, acceptor molecule, acceptor atom, score
      L1  H    12    35       P1  8028  0.90

> <Gold.Chemscore.Hbond.Weighted>
-3.2906

> <Gold.Chemscore.Metal.Weighted>
-0.0000

> <Gold.Chemscore.Lipo.Weighted>
-15.6563

> <Gold.Chemscore.Internal_Hbond.Weighted>
0.0000

> <Gold.Chemscore.DEClash.Weighted>
1.2687

> <Gold.Chemscore.DEInternal.Weighted>
0.9202

> <Gold.Chemscore.Rot.Weighted>
7.5097

> <Gold.Chemscore.Internal.Correction.Weighted>
   9.000000E+99

> <Gold.Protein.RotatedTorsions>
[ 6907 6896 6895 6894 ] final -174.27 input  -60.11 | X-H torsion
[ 7974 7965 7964 7962 ] final  173.20 input  175.53 | X-H torsion
[ 8008 7997 7996 7995 ] final  -40.98 input   59.86 | X-H torsion
[ 10167 10162 10161 10158 ] final  -10.57 input  -65.29 | X-H torsion
[ 10718 10713 10712 10709 ] final    3.47 input   66.30 | X-H torsion
[ 10763 10752 10751 10750 ] final   91.16 input  -60.55 | X-H torsion
[ 11005 11000 10999 10996 ] final   11.34 input  -57.11 | X-H torsion

> <Gold.Protein.ActiveResidues>
 VAL166  LYS551  ARG553  GLY616  TRP617  ASP618  TYR619  PRO620  LYS621  CYS622 
 ASP623  PHE694  ASN695  SER759  ASP760  ASP761  ALA762  ILE779  LEU786  VAL792 
 PHE793  MET794  SER795  GLU796  ALA797  LYS798  CYS799  TRP800  GLU811  SER814 

> <Gold.Protein.RotatedAtoms>
  151.5696  133.3392  159.2986 H   0  0  0  0  0  0  0  0  0  0  0  0  # atno 6907 bound_to 6896
  150.8375  134.7657  159.6916 H   0  0  0  0  0  0  0  0  0  0  0  0  # atno 6908 bound_to 6896
  152.4449  134.5522  159.9921 H   0  0  0  0  0  0  0  0  0  0  0  0  # atno 6909 bound_to 6896
  144.7249  139.9612  143.6435 H   0  0  0  0  0  0  0  0  0  0  0  0  # atno 7974 bound_to 7965
  154.4007  140.1511  156.3115 H   0  0  0  0  0  0  0  0  0  0  0  0  # atno 8008 bound_to 7997
  155.8611  140.3453  155.5735 H   0  0  0  0  0  0  0  0  0  0  0  0  # atno 8009 bound_to 7997
  155.7879  140.0852  157.2015 H   0  0  0  0  0  0  0  0  0  0  0  0  # atno 8010 bound_to 7997
  140.7117  143.5733  150.9069 H   0  0  0  0  0  0  0  0  0  0  0  0  # atno 10167 bound_to 10162
  156.8784  130.5645  149.5654 H   0  0  0  0  0  0  0  0  0  0  0  0  # atno 10718 bound_to 10713
  153.2053  135.4407  155.0315 H   0  0  0  0  0  0  0  0  0  0  0  0  # atno 10763 bound_to 10752
  154.8170  135.3319  154.7151 H   0  0  0  0  0  0  0  0  0  0  0  0  # atno 10764 bound_to 10752
  153.7593  135.6992  153.4984 H   0  0  0  0  0  0  0  0  0  0  0  0  # atno 10765 bound_to 10752
  140.5043  134.0715  155.7801 H   0  0  0  0  0  0  0  0  0  0  0  0  # atno 11005 bound_to 11000
  146.0635  139.3627  143.0566 LP  0  0  0  0  0  0  0  0  0  0  0  0  # atno 17320 bound_to 7965
  145.8061  140.9748  143.0973 LP  0  0  0  0  0  0  0  0  0  0  0  0  # atno 17321 bound_to 7965
  139.9459  143.6328  152.3042 LP  0  0  0  0  0  0  0  0  0  0  0  0  # atno 17342 bound_to 10162
  139.6829  144.7654  151.1576 LP  0  0  0  0  0  0  0  0  0  0  0  0  # atno 17343 bound_to 10162
  156.0690  130.5727  150.9346 LP  0  0  0  0  0  0  0  0  0  0  0  0  # atno 17370 bound_to 10713
  157.6155  131.0933  150.8718 LP  0  0  0  0  0  0  0  0  0  0  0  0  # atno 17371 bound_to 10713
  141.1419  133.9123  157.2306 LP  0  0  0  0  0  0  0  0  0  0  0  0  # atno 17394 bound_to 11000
  139.9695  135.0132  156.9475 LP  0  0  0  0  0  0  0  0  0  0  0  0  # atno 17395 bound_to 11000

$$$$
