AV-unprocessed.smi:2439|AV-procd|sdf|9611|dock1
  -GOLD-   2272013243D 1   1.00000     0.00000
 Structure written by MMmdl.
 40 42  0  0  0  0  0  0  0  0  1 V2000
  147.2796  141.4904  158.6849 N   0  0  0  0  0  0  0  0  0  0  0  0
  147.3565  141.4761  157.5305 C   0  0  0  0  0  0  0  0  0  0  0  0
  147.4528  141.4587  156.0758 C   0  0  0  0  0  0  0  0  0  0  0  0
  146.5782  142.2714  155.3242 C   0  0  0  0  0  0  0  0  0  0  0  0
  146.6671  142.2595  153.9203 C   0  0  0  0  0  0  0  0  0  0  0  0
  147.6307  141.4282  153.3215 C   0  0  0  0  0  0  0  0  0  0  0  0
  148.4714  140.6445  154.0283 N   0  0  0  0  0  0  0  0  0  0  0  0
  148.3960  140.6533  155.3821 C   0  0  0  0  0  0  0  0  0  0  0  0
  149.2852  139.8262  156.0937 N   0  0  0  0  0  0  0  0  0  0  0  0
  150.7137  139.7998  155.8028 C   0  0  0  0  0  0  0  0  0  0  0  0
  151.4927  140.8704  156.5843 C   0  0  2  0  0  0  0  0  0  0  0  0
  151.8703  140.3805  157.9941 C   0  0  0  0  0  0  0  0  0  0  0  0
  152.5440  141.4162  158.7669 N   0  0  0  0  0  0  0  0  0  0  0  0
  152.8920  140.9401  160.1045 C   0  0  0  0  0  0  0  0  0  0  0  0
  153.6353  142.0026  160.9292 C   0  0  0  0  0  0  0  0  0  0  0  0
  152.7988  143.2869  161.0220 C   0  0  0  0  0  0  0  0  0  0  0  0
  152.3897  143.7526  159.6160 C   0  0  0  0  0  0  0  0  0  0  0  0
  151.7010  142.6137  158.8359 C   0  0  1  0  0  0  0  0  0  0  0  0
  151.2991  143.0855  157.4235 C   0  0  0  0  0  0  0  0  0  0  0  0
  150.6648  142.0230  156.7191 O   0  0  0  0  0  0  0  0  0  0  0  0
  145.8463  142.8985  155.8128 H   0  0  0  0  0  0  0  0  0  0  0  0
  146.0128  142.8718  153.3178 H   0  0  0  0  0  0  0  0  0  0  0  0
  147.7291  141.3903  152.2467 H   0  0  0  0  0  0  0  0  0  0  0  0
  148.9687  139.3889  156.9474 H   0  0  0  0  0  0  0  0  0  0  0  0
  151.0983  138.8100  156.0500 H   0  0  0  0  0  0  0  0  0  0  0  0
  150.8686  139.9234  154.7304 H   0  0  0  0  0  0  0  0  0  0  0  0
  152.4027  141.1377  156.0441 H   0  0  0  0  0  0  0  0  0  0  0  0
  150.9701  140.0550  158.5183 H   0  0  0  0  0  0  0  0  0  0  0  0
  152.5164  139.5055  157.9124 H   0  0  0  0  0  0  0  0  0  0  0  0
  151.9885  140.6360  160.6355 H   0  0  0  0  0  0  0  0  0  0  0  0
  153.5172  140.0501  160.0251 H   0  0  0  0  0  0  0  0  0  0  0  0
  153.8518  141.6215  161.9274 H   0  0  0  0  0  0  0  0  0  0  0  0
  154.5966  142.2217  160.4627 H   0  0  0  0  0  0  0  0  0  0  0  0
  151.9056  143.0989  161.6189 H   0  0  0  0  0  0  0  0  0  0  0  0
  153.3595  144.0696  161.5334 H   0  0  0  0  0  0  0  0  0  0  0  0
  151.7256  144.6143  159.6918 H   0  0  0  0  0  0  0  0  0  0  0  0
  153.2741  144.0887  159.0731 H   0  0  0  0  0  0  0  0  0  0  0  0
  150.7823  142.3577  159.3667 H   0  0  0  0  0  0  0  0  0  0  0  0
  150.6072  143.9258  157.4853 H   0  0  0  0  0  0  0  0  0  0  0  0
  152.1702  143.4293  156.8632 H   0  0  0  0  0  0  0  0  0  0  0  0
  1  2  3  0  0  0  0
  2  3  1  0  0  0  0
  3  8  1  0  0  0  0
  3  4  2  0  0  0  0
  4  5  1  0  0  0  0
  4 21  1  0  0  0  0
  5  6  2  0  0  0  0
  5 22  1  0  0  0  0
  6  7  1  0  0  0  0
  6 23  1  0  0  0  0
  7  8  2  0  0  0  0
  8  9  1  0  0  0  0
  9 10  1  0  0  0  0
  9 24  1  0  0  0  0
 10 11  1  0  0  0  0
 10 25  1  0  0  0  0
 10 26  1  0  0  0  0
 11 20  1  0  0  0  0
 11 12  1  0  0  0  0
 11 27  1  0  0  0  0
 12 13  1  0  0  0  0
 12 28  1  0  0  0  0
 12 29  1  0  0  0  0
 13 18  1  0  0  0  0
 13 14  1  0  0  0  0
 14 15  1  0  0  0  0
 14 30  1  0  0  0  0
 14 31  1  0  0  0  0
 15 16  1  0  0  0  0
 15 32  1  0  0  0  0
 15 33  1  0  0  0  0
 16 17  1  0  0  0  0
 16 34  1  0  0  0  0
 16 35  1  0  0  0  0
 17 18  1  0  0  0  0
 17 36  1  0  0  0  0
 17 37  1  0  0  0  0
 18 19  1  0  0  0  0
 18 38  1  0  0  0  0
 19 20  1  0  0  0  0
 19 39  1  0  0  0  0
 19 40  1  0  0  0  0
M  END
> <s_m_source_file>
AV-unprocessed.smi

> <i_m_source_file_index>
2439

> <i_lp_mmshare_version>
43012

> <i_f3d_flags>
0

> <s_epik_input>
TiNDYzFbY0hdW2NIXVtjSF1uYzFbTkhdW0NIMl1bQ0BIXShbQ0gyXTIpT1tDSDJdW0NAQEhdKE4yMylbQ0gyXVtDSDJdW0NIMl1bQ0gyXTM=

> <s_epik_cmdline>
J2VwaWtfcHl0aG9uJywgJy1waCcsICc3LjAnLCAnLXRuJywgJzgnLCAnLW1hJywgJzIwMCcsICctbWV0YWxfYmluZGluZycsICctaW1hZScsICc8aW5maWxlLm1hZT4nLCAnLW9tYWUnLCAnPG91dGZpbGUubWFlPic=

> <r_epik_Ionization_Penalty>
1.22355

> <r_epik_Ionization_Penalty_Charging>
0

> <r_epik_Ionization_Penalty_Neutral>
1.22355

> <r_epik_State_Penalty>
1.29103

> <r_epik_Charging_Adjusted_Penalty>
1.29103

> <i_epik_Tot_Q>
0

> <i_epik_Tot_abs_Q>
0

> <r_epik_Metal_State_Penalty>
1.29103

> <b_epik_Metal_Only>
0

> <s_lp_Force_Field>
OPLS_2005

> <r_lp_Energy>
37.4104

> <b_lp_Chiralities_Consistent>
1

> <s_lp_Variant>
AV-unprocessed.smi:2439-9

> <Gold.Version>
5.8.1

> <Gold.Id.Protein>
6NUR|6NUR_protein|mol2

> <Gold.PLP.Fitness>
37.9060

> <Gold.PLP.PLP>
-36.3898

> <Gold.PLP.part.hbond>
-1.0000

> <Gold.PLP.part.metal>
0.0000

> <Gold.PLP.part.buried>
-6.3271

> <Gold.PLP.part.nonpolar>
-29.5564

> <Gold.PLP.part.repulsive>
0.2686

> <Gold.PLP.ligand.clash>
0.0000

> <Gold.PLP.ligand.torsion>
0.8837

> <Gold.PLP.Chemscore.Hbond>
0.2566

> <Gold.PLP.Chemscore.CHOScore>
0.8364

> <Gold.PLP.Chemscore.Metal>
0.0000

> <Gold.Chemscore.Hbonds>
donor molecule, donor type, donor heavy atom, donor atom, acceptor molecule, acceptor atom, score
      P1  H  6934  6946       L1     1  0.26
      L1  C     6    23       P1  7957  0.84

> <Gold.PLP.Chemscore.Internal.Correction>
0.0044

> <Gold.Rescore>
     Score         DG    S(hbond)    S(metal)    S(lipo)     H(rot)  DE(clash)    DE(int)     intcor
     13.61     -15.69       0.33        0.00     105.13       1.25       0.06       2.01       ----

> <Gold.Chemscore.Fitness>
13.6142

> <Gold.Chemscore.DG>
-15.6905

> <Gold.Chemscore.ZeroCoef>
-5.4800

> <Gold.Chemscore.Hbond>
0.3311

> <Gold.Chemscore.Metal>
0.0000

> <Gold.Chemscore.Lipo>
105.1342

> <Gold.Chemscore.Internal_Hbond>
0.0000

> <Gold.Chemscore.DEClash>
0.0639

> <Gold.Chemscore.DEInternal>
2.0123

> <Gold.Chemscore.Rot>
1.2485

> <Gold.Chemscore.Internal.Correction>
   9.000000E+99

> <Gold.Chemscore.Hbonds>
donor molecule, donor type, donor heavy atom, donor atom, acceptor molecule, acceptor atom, score
      P1  H  6934  6946       L1     1  0.25

> <Gold.Chemscore.Hbond.Weighted>
-1.1059

> <Gold.Chemscore.Metal.Weighted>
-0.0000

> <Gold.Chemscore.Lipo.Weighted>
-12.3007

> <Gold.Chemscore.Internal_Hbond.Weighted>
0.0000

> <Gold.Chemscore.DEClash.Weighted>
0.0639

> <Gold.Chemscore.DEInternal.Weighted>
2.0123

> <Gold.Chemscore.Rot.Weighted>
3.1961

> <Gold.Chemscore.Internal.Correction.Weighted>
   9.000000E+99

> <Gold.Protein.RotatedTorsions>
[ 6907 6896 6895 6894 ] final  -37.18 input  -60.11 | X-H torsion
[ 7974 7965 7964 7962 ] final  157.13 input  175.53 | X-H torsion
[ 8008 7997 7996 7995 ] final  -79.83 input   59.86 | X-H torsion
[ 10167 10162 10161 10158 ] final   97.89 input  -65.29 | X-H torsion
[ 10718 10713 10712 10709 ] final  139.42 input   66.30 | X-H torsion
[ 10763 10752 10751 10750 ] final -117.99 input  -60.55 | X-H torsion
[ 11005 11000 10999 10996 ] final    9.30 input  -57.11 | X-H torsion

> <Gold.Protein.ActiveResidues>
 VAL166  LYS551  ARG553  GLY616  TRP617  ASP618  TYR619  PRO620  LYS621  CYS622 
 ASP623  PHE694  ASN695  SER759  ASP760  ASP761  ALA762  ILE779  LEU786  VAL792 
 PHE793  MET794  SER795  GLU796  ALA797  LYS798  CYS799  TRP800  GLU811  SER814 

> <Gold.Protein.RotatedAtoms>
  151.0179  134.9447  159.8042 H   0  0  0  0  0  0  0  0  0  0  0  0  # atno 6907 bound_to 6896
  152.5318  134.2942  159.9064 H   0  0  0  0  0  0  0  0  0  0  0  0  # atno 6908 bound_to 6896
  151.2949  133.4106  159.2670 H   0  0  0  0  0  0  0  0  0  0  0  0  # atno 6909 bound_to 6896
  144.7922  139.7298  143.6217 H   0  0  0  0  0  0  0  0  0  0  0  0  # atno 7974 bound_to 7965
  154.5823  140.0672  156.9121 H   0  0  0  0  0  0  0  0  0  0  0  0  # atno 8008 bound_to 7997
  155.2441  140.3347  155.4271 H   0  0  0  0  0  0  0  0  0  0  0  0  # atno 8009 bound_to 7997
  156.2198  140.1794  156.7489 H   0  0  0  0  0  0  0  0  0  0  0  0  # atno 8010 bound_to 7997
  139.7759  144.6906  151.0090 H   0  0  0  0  0  0  0  0  0  0  0  0  # atno 10167 bound_to 10162
  157.4146  131.1032  151.0419 H   0  0  0  0  0  0  0  0  0  0  0  0  # atno 10718 bound_to 10713
  154.8573  135.4290  154.2068 H   0  0  0  0  0  0  0  0  0  0  0  0  # atno 10763 bound_to 10752
  153.3102  135.6975  153.7128 H   0  0  0  0  0  0  0  0  0  0  0  0  # atno 10764 bound_to 10752
  153.6224  135.3499  155.2989 H   0  0  0  0  0  0  0  0  0  0  0  0  # atno 10765 bound_to 10752
  140.5273  134.0501  155.7862 H   0  0  0  0  0  0  0  0  0  0  0  0  # atno 11005 bound_to 11000
  146.2178  139.5580  142.9639 LP  0  0  0  0  0  0  0  0  0  0  0  0  # atno 17320 bound_to 7965
  145.5766  141.0388  143.2145 LP  0  0  0  0  0  0  0  0  0  0  0  0  # atno 17321 bound_to 7965
  140.7816  143.4536  151.0377 LP  0  0  0  0  0  0  0  0  0  0  0  0  # atno 17342 bound_to 10162
  139.8218  143.7809  152.3177 LP  0  0  0  0  0  0  0  0  0  0  0  0  # atno 17343 bound_to 10162
  157.1371  130.6127  149.5545 LP  0  0  0  0  0  0  0  0  0  0  0  0  # atno 17370 bound_to 10713
  155.9861  130.4894  150.7063 LP  0  0  0  0  0  0  0  0  0  0  0  0  # atno 17371 bound_to 10713
  141.1301  133.9316  157.2553 LP  0  0  0  0  0  0  0  0  0  0  0  0  # atno 17394 bound_to 11000
  139.9573  135.0162  156.9164 LP  0  0  0  0  0  0  0  0  0  0  0  0  # atno 17395 bound_to 11000

$$$$
