AV-unprocessed.smi:2395|AV-procd|sdf|9491|dock3
  -GOLD-   2272013123D 1   1.00000     0.00000
 Structure written by MMmdl.
 39 40  0  0  0  0  0  0  0  0  1 V2000
  146.0634  142.4372  154.2504 C   0  0  0  0  0  0  0  0  0  0  0  0
  147.2544  141.5375  154.4163 C   0  0  0  0  0  0  0  0  0  0  0  0
  148.3298  141.9957  155.0343 N   0  0  0  0  0  0  0  0  0  0  0  0
  149.1990  140.9638  155.0284 N   0  0  0  0  0  0  0  0  0  0  0  0
  150.5060  141.1349  155.6477 C   0  0  0  0  0  0  0  0  0  0  0  0
  150.4141  141.4964  157.1352 C   0  0  0  0  0  0  0  0  0  0  0  0
  150.1004  140.6521  157.9759 O   0  0  0  0  0  0  0  0  0  0  0  0
  150.6983  142.7699  157.4458 N   0  0  0  0  0  0  0  0  0  0  0  0
  150.6990  143.3215  158.7942 C   0  0  0  0  0  0  0  0  0  0  0  0
  152.0486  143.8136  159.2811 C   0  0  0  0  0  0  0  0  0  0  0  0
  153.1448  144.1387  158.2941 C   0  0  0  0  0  0  0  0  0  0  0  0
  153.2747  142.9352  159.1973 C   0  0  0  0  0  0  0  0  0  0  0  0
  148.6700  139.8521  154.3965 C   0  0  0  0  0  0  0  0  0  0  0  0
  149.4292  138.5709  154.2596 C   0  0  0  0  0  0  0  0  0  0  0  0
  147.4094  140.1890  153.9818 C   0  0  0  0  0  0  0  0  0  0  0  0
  146.4030  139.3445  153.2462 C   0  0  0  0  0  0  0  0  0  0  0  0
  146.3102  139.7440  151.7679 C   0  0  0  0  0  0  0  0  0  0  0  0
  146.1544  138.5927  150.9669 O   0  0  0  0  0  0  0  0  0  0  0  0
  145.1332  141.8823  154.3747 H   0  0  0  0  0  0  0  0  0  0  0  0
  146.0515  142.8873  153.2578 H   0  0  0  0  0  0  0  0  0  0  0  0
  146.0640  143.2449  154.9832 H   0  0  0  0  0  0  0  0  0  0  0  0
  151.0719  140.2109  155.5219 H   0  0  0  0  0  0  0  0  0  0  0  0
  151.0562  141.9184  155.1243 H   0  0  0  0  0  0  0  0  0  0  0  0
  150.9423  143.3994  156.6949 H   0  0  0  0  0  0  0  0  0  0  0  0
  149.9858  144.1458  158.8223 H   0  0  0  0  0  0  0  0  0  0  0  0
  150.3263  142.5733  159.4956 H   0  0  0  0  0  0  0  0  0  0  0  0
  151.9903  144.4735  160.1450 H   0  0  0  0  0  0  0  0  0  0  0  0
  152.9498  143.9545  157.2395 H   0  0  0  0  0  0  0  0  0  0  0  0
  153.7744  144.9998  158.5086 H   0  0  0  0  0  0  0  0  0  0  0  0
  153.9907  142.9939  160.0145 H   0  0  0  0  0  0  0  0  0  0  0  0
  153.1645  141.9521  158.7437 H   0  0  0  0  0  0  0  0  0  0  0  0
  148.8387  137.8134  153.7447 H   0  0  0  0  0  0  0  0  0  0  0  0
  149.6969  138.1723  155.2382 H   0  0  0  0  0  0  0  0  0  0  0  0
  150.3474  138.7217  153.6920 H   0  0  0  0  0  0  0  0  0  0  0  0
  146.6656  138.2882  153.3171 H   0  0  0  0  0  0  0  0  0  0  0  0
  145.4183  139.4310  153.7073 H   0  0  0  0  0  0  0  0  0  0  0  0
  145.4631  140.4102  151.6009 H   0  0  0  0  0  0  0  0  0  0  0  0
  147.2104  140.2744  151.4557 H   0  0  0  0  0  0  0  0  0  0  0  0
  146.7705  137.9384  151.2592 H   0  0  0  0  0  0  0  0  0  0  0  0
  1  2  1  0  0  0  0
  1 19  1  0  0  0  0
  1 20  1  0  0  0  0
  1 21  1  0  0  0  0
  2 15  1  0  0  0  0
  2  3  2  0  0  0  0
  3  4  1  0  0  0  0
  4  5  1  0  0  0  0
  4 13  1  0  0  0  0
  5  6  1  0  0  0  0
  5 22  1  0  0  0  0
  5 23  1  0  0  0  0
  6  7  2  0  0  0  0
  6  8  1  0  0  0  0
  8  9  1  0  0  0  0
  8 24  1  0  0  0  0
  9 10  1  0  0  0  0
  9 25  1  0  0  0  0
  9 26  1  0  0  0  0
 10 12  1  0  0  0  0
 10 11  1  0  0  0  0
 10 27  1  0  0  0  0
 11 12  1  0  0  0  0
 11 28  1  0  0  0  0
 11 29  1  0  0  0  0
 12 30  1  0  0  0  0
 12 31  1  0  0  0  0
 13 14  1  0  0  0  0
 13 15  2  0  0  0  0
 14 32  1  0  0  0  0
 14 33  1  0  0  0  0
 14 34  1  0  0  0  0
 15 16  1  0  0  0  0
 16 17  1  0  0  0  0
 16 35  1  0  0  0  0
 16 36  1  0  0  0  0
 17 18  1  0  0  0  0
 17 37  1  0  0  0  0
 17 38  1  0  0  0  0
 18 39  1  0  0  0  0
M  END
> <s_m_source_file>
AV-unprocessed.smi

> <i_m_source_file_index>
2395

> <i_lp_mmshare_version>
43012

> <i_f3d_flags>
0

> <s_epik_input>
W09IXVtDSDJdW0NIMl1jMWMoW0NIM10pbihuYzFbQ0gzXSlbQ0gyXUMoPU8pW05IXVtDSDJdW0NIXTJbQ0gyXVtDSDJdMg==

> <s_epik_cmdline>
J2VwaWtfcHl0aG9uJywgJy1waCcsICc3LjAnLCAnLXRuJywgJzgnLCAnLW1hJywgJzIwMCcsICctbWV0YWxfYmluZGluZycsICctaW1hZScsICc8aW5maWxlLm1hZT4nLCAnLW9tYWUnLCAnPG91dGZpbGUubWFlPic=

> <r_lp_tautomer_probability>
1

> <r_epik_Ionization_Penalty>
0.000725848

> <r_epik_Ionization_Penalty_Charging>
0

> <r_epik_Ionization_Penalty_Neutral>
0.000725848

> <r_epik_State_Penalty>
-0

> <r_epik_Charging_Adjusted_Penalty>
0

> <i_epik_Tot_Q>
0

> <i_epik_Tot_abs_Q>
0

> <r_epik_Metal_State_Penalty>
-0

> <b_epik_Metal_Only>
0

> <s_lp_Force_Field>
OPLS_2005

> <r_lp_Energy>
10.6696

> <b_lp_Chiralities_Consistent>
1

> <s_lp_Variant>
AV-unprocessed.smi:2395-1

> <Gold.Version>
5.8.1

> <Gold.Id.Protein>
6NUR|6NUR_protein|mol2

> <Gold.PLP.Fitness>
46.2543

> <Gold.PLP.PLP>
-44.3786

> <Gold.PLP.part.hbond>
-3.6591

> <Gold.PLP.part.metal>
0.0000

> <Gold.PLP.part.buried>
-3.1433

> <Gold.PLP.part.nonpolar>
-39.2302

> <Gold.PLP.part.repulsive>
1.3999

> <Gold.PLP.ligand.clash>
0.0000

> <Gold.PLP.ligand.torsion>
0.9425

> <Gold.PLP.Chemscore.Hbond>
1.0604

> <Gold.PLP.Chemscore.CHOScore>
0.0000

> <Gold.PLP.Chemscore.Metal>
0.0000

> <Gold.PLP.Chemscore.Internal.Correction>
0.5795

> <Gold.Rescore>
     Score         DG    S(hbond)    S(metal)    S(lipo)     H(rot)  DE(clash)    DE(int)     intcor
     14.04     -16.00       1.57        0.00     100.56       2.53       1.22       0.74       ----

> <Gold.Chemscore.Fitness>
14.0394

> <Gold.Chemscore.DG>
-15.9972

> <Gold.Chemscore.ZeroCoef>
-5.4800

> <Gold.Chemscore.Hbond>
1.5660

> <Gold.Chemscore.Metal>
0.0000

> <Gold.Chemscore.Lipo>
100.5613

> <Gold.Chemscore.Internal_Hbond>
0.0000

> <Gold.Chemscore.DEClash>
1.2184

> <Gold.Chemscore.DEInternal>
0.7394

> <Gold.Chemscore.Rot>
2.5309

> <Gold.Chemscore.Internal.Correction>
   9.000000E+99

> <Gold.Chemscore.Hbond.Weighted>
-5.2306

> <Gold.Chemscore.Metal.Weighted>
-0.0000

> <Gold.Chemscore.Lipo.Weighted>
-11.7657

> <Gold.Chemscore.Internal_Hbond.Weighted>
0.0000

> <Gold.Chemscore.DEClash.Weighted>
1.2184

> <Gold.Chemscore.DEInternal.Weighted>
0.7394

> <Gold.Chemscore.Rot.Weighted>
6.4790

> <Gold.Chemscore.Internal.Correction.Weighted>
   9.000000E+99

> <Gold.Protein.RotatedTorsions>
[ 6907 6896 6895 6894 ] final  -53.01 input  -60.11 | X-H torsion
[ 7974 7965 7964 7962 ] final   14.33 input  175.53 | X-H torsion
[ 8008 7997 7996 7995 ] final   82.50 input   59.86 | X-H torsion
[ 10167 10162 10161 10158 ] final -147.11 input  -65.29 | X-H torsion
[ 10718 10713 10712 10709 ] final  -30.87 input   66.30 | X-H torsion
[ 10763 10752 10751 10750 ] final  150.10 input  -60.55 | X-H torsion
[ 11005 11000 10999 10996 ] final  114.17 input  -57.11 | X-H torsion

> <Gold.Protein.ActiveResidues>
 VAL166  LYS551  ARG553  GLY616  TRP617  ASP618  TYR619  PRO620  LYS621  CYS622 
 ASP623  PHE694  ASN695  SER759  ASP760  ASP761  ALA762  ILE779  LEU786  VAL792 
 PHE793  MET794  SER795  GLU796  ALA797  LYS798  CYS799  TRP800  GLU811  SER814 

> <Gold.Protein.RotatedAtoms>
  150.8465  134.7776  159.6974 H   0  0  0  0  0  0  0  0  0  0  0  0  # atno 6907 bound_to 6896
  152.4541  134.5327  159.9825 H   0  0  0  0  0  0  0  0  0  0  0  0  # atno 6908 bound_to 6896
  151.5457  133.3387  159.2979 H   0  0  0  0  0  0  0  0  0  0  0  0  # atno 6909 bound_to 6896
  146.2308  139.9057  142.8532 H   0  0  0  0  0  0  0  0  0  0  0  0  # atno 7974 bound_to 7965
  155.9115  140.3427  155.6102 H   0  0  0  0  0  0  0  0  0  0  0  0  # atno 8008 bound_to 7997
  155.7382  140.0804  157.2277 H   0  0  0  0  0  0  0  0  0  0  0  0  # atno 8009 bound_to 7997
  154.4056  140.1575  156.2573 H   0  0  0  0  0  0  0  0  0  0  0  0  # atno 8010 bound_to 7997
  139.7652  143.8319  152.2614 H   0  0  0  0  0  0  0  0  0  0  0  0  # atno 10167 bound_to 10162
  156.3944  130.4379  149.7370 H   0  0  0  0  0  0  0  0  0  0  0  0  # atno 10718 bound_to 10713
  154.0819  135.2859  155.3288 H   0  0  0  0  0  0  0  0  0  0  0  0  # atno 10763 bound_to 10752
  154.6678  135.5311  153.8102 H   0  0  0  0  0  0  0  0  0  0  0  0  # atno 10764 bound_to 10752
  153.0445  135.6550  154.0994 H   0  0  0  0  0  0  0  0  0  0  0  0  # atno 10765 bound_to 10752
  139.8973  134.9563  156.6851 H   0  0  0  0  0  0  0  0  0  0  0  0  # atno 11005 bound_to 11000
  145.2279  140.9961  143.4008 LP  0  0  0  0  0  0  0  0  0  0  0  0  # atno 17320 bound_to 7965
  144.9555  139.4036  143.6381 LP  0  0  0  0  0  0  0  0  0  0  0  0  # atno 17321 bound_to 7965
  139.8336  144.7242  150.9419 LP  0  0  0  0  0  0  0  0  0  0  0  0  # atno 17342 bound_to 10162
  140.7810  143.4047  151.1091 LP  0  0  0  0  0  0  0  0  0  0  0  0  # atno 17343 bound_to 10162
  156.4411  130.7861  151.2882 LP  0  0  0  0  0  0  0  0  0  0  0  0  # atno 17370 bound_to 10713
  157.7501  131.0124  150.3385 LP  0  0  0  0  0  0  0  0  0  0  0  0  # atno 17371 bound_to 10713
  140.7268  133.9093  155.8184 LP  0  0  0  0  0  0  0  0  0  0  0  0  # atno 17394 bound_to 11000
  141.0184  134.0923  157.4147 LP  0  0  0  0  0  0  0  0  0  0  0  0  # atno 17395 bound_to 11000

$$$$
