AV-unprocessed.smi:249|AV-procd|sdf|1928|dock3
  -GOLD-   2262021 43D 1   1.00000     0.00000
 Structure written by MMmdl.
 64 67  0  0  0  0  0  0  0  0  2 V2000
  144.3739  136.5319  154.4743 C   0  0  0  0  0  0  0  0  0  0  0  0
  145.1005  137.5257  153.5546 C   0  0  0  0  0  0  0  0  0  0  0  0
  146.4545  137.0587  153.1336 N   0  3  2  0  0  0  0  0  0  0  0  0
  147.4031  136.8408  154.2622 C   0  0  0  0  0  0  0  0  0  0  0  0
  147.8883  138.1701  154.8708 C   0  0  0  0  0  0  0  0  0  0  0  0
  148.5272  139.0657  153.7910 C   0  0  2  0  0  0  0  0  0  0  0  0
  149.0021  140.3442  154.3317 N   0  0  0  0  0  0  0  0  0  0  0  0
  148.0395  141.3743  154.7215 C   0  0  0  0  0  0  0  0  0  0  0  0
  150.1352  140.2664  155.0756 C   0  0  0  0  0  0  0  0  0  0  0  0
  151.2423  139.6727  154.5555 N   0  0  0  0  0  0  0  0  0  0  0  0
  152.3713  139.6126  155.2670 C   0  0  0  0  0  0  0  0  0  0  0  0
  152.6051  140.0686  156.4986 N   0  0  0  0  0  0  0  0  0  0  0  0
  151.4941  140.6495  157.0353 C   0  0  0  0  0  0  0  0  0  0  0  0
  150.2325  140.7985  156.3923 C   0  0  0  0  0  0  0  0  0  0  0  0
  149.3450  141.4547  157.2362 N   0  0  0  0  0  0  0  0  0  0  0  0
  150.0439  141.6866  158.3132 C   0  0  0  0  0  0  0  0  0  0  0  0
  151.3350  141.2066  158.2946 N   0  0  0  0  0  0  0  0  0  0  0  0
  152.3190  141.3405  159.3603 C   0  0  0  0  0  0  0  0  0  0  0  0
  152.0133  142.4500  160.4086 C   0  0  1  0  0  0  0  0  0  0  0  0
  152.6523  142.0470  161.7597 C   0  0  0  0  0  0  0  0  0  0  0  0
  153.9525  141.5259  161.5734 O   0  0  0  0  0  0  0  0  0  0  0  0
  152.4874  143.8809  160.0026 C   0  0  1  0  0  0  0  0  0  0  0  0
  152.3235  144.2777  158.5417 C   0  0  0  0  0  0  0  0  0  0  0  0
  150.8505  144.6608  158.4465 C   0  0  0  0  0  0  0  0  0  0  0  0
  150.5118  145.1550  159.7374 O   0  0  0  0  0  0  0  0  0  0  0  0
  151.6151  144.9851  160.6221 C   0  0  0  0  0  0  0  0  0  0  0  0
  147.5648  139.2447  152.6000 C   0  0  0  0  0  0  0  0  0  0  0  0
  147.1019  137.8748  152.0605 C   0  0  2  0  0  0  0  0  0  0  0  0
  146.2517  138.0006  150.7835 C   0  0  0  0  0  0  0  0  0  0  0  0
  143.3388  136.8392  154.6237 H   0  0  0  0  0  0  0  0  0  0  0  0
  144.8306  136.4745  155.4619 H   0  0  0  0  0  0  0  0  0  0  0  0
  144.3606  135.5300  154.0443 H   0  0  0  0  0  0  0  0  0  0  0  0
  144.4683  137.6503  152.6776 H   0  0  0  0  0  0  0  0  0  0  0  0
  145.1547  138.5037  154.0322 H   0  0  0  0  0  0  0  0  0  0  0  0
  146.9695  136.2036  155.0309 H   0  0  0  0  0  0  0  0  0  0  0  0
  148.2631  136.2867  153.8836 H   0  0  0  0  0  0  0  0  0  0  0  0
  147.0560  138.6820  155.3533 H   0  0  0  0  0  0  0  0  0  0  0  0
  148.6142  137.9634  155.6581 H   0  0  0  0  0  0  0  0  0  0  0  0
  149.3860  138.5166  153.4051 H   0  0  0  0  0  0  0  0  0  0  0  0
  148.5493  142.3119  154.9474 H   0  0  0  0  0  0  0  0  0  0  0  0
  147.4758  141.0722  155.6046 H   0  0  0  0  0  0  0  0  0  0  0  0
  147.3326  141.5803  153.9194 H   0  0  0  0  0  0  0  0  0  0  0  0
  153.2066  139.1299  154.7815 H   0  0  0  0  0  0  0  0  0  0  0  0
  149.6262  142.2017  159.1663 H   0  0  0  0  0  0  0  0  0  0  0  0
  152.3694  140.3637  159.8416 H   0  0  0  0  0  0  0  0  0  0  0  0
  153.3033  141.5041  158.9201 H   0  0  0  0  0  0  0  0  0  0  0  0
  150.9377  142.4983  160.5726 H   0  0  0  0  0  0  0  0  0  0  0  0
  152.6998  142.9032  162.4335 H   0  0  0  0  0  0  0  0  0  0  0  0
  152.0746  141.2808  162.2731 H   0  0  0  0  0  0  0  0  0  0  0  0
  154.0164  140.7040  162.0354 H   0  0  0  0  0  0  0  0  0  0  0  0
  153.5302  143.9997  160.3000 H   0  0  0  0  0  0  0  0  0  0  0  0
  152.9307  145.1628  158.3457 H   0  0  0  0  0  0  0  0  0  0  0  0
  152.6349  143.5360  157.8141 H   0  0  0  0  0  0  0  0  0  0  0  0
  150.6660  145.4066  157.6731 H   0  0  0  0  0  0  0  0  0  0  0  0
  150.2346  143.7872  158.2309 H   0  0  0  0  0  0  0  0  0  0  0  0
  151.2679  144.7802  161.6332 H   0  0  0  0  0  0  0  0  0  0  0  0
  152.1710  145.9234  160.6566 H   0  0  0  0  0  0  0  0  0  0  0  0
  146.6951  139.8371  152.8829 H   0  0  0  0  0  0  0  0  0  0  0  0
  148.0696  139.8007  151.8087 H   0  0  0  0  0  0  0  0  0  0  0  0
  147.9962  137.3238  151.7640 H   0  0  0  0  0  0  0  0  0  0  0  0
  146.8445  138.4183  149.9691 H   0  0  0  0  0  0  0  0  0  0  0  0
  145.3951  138.6607  150.9206 H   0  0  0  0  0  0  0  0  0  0  0  0
  145.8851  137.0280  150.4537 H   0  0  0  0  0  0  0  0  0  0  0  0
  146.3014  136.1480  152.7243 H   0  0  0  0  0  0  0  0  0  0  0  0
  1  2  1  0  0  0  0
  1 30  1  0  0  0  0
  1 31  1  0  0  0  0
  1 32  1  0  0  0  0
  2  3  1  0  0  0  0
  2 33  1  0  0  0  0
  2 34  1  0  0  0  0
  3 28  1  0  0  0  0
  3  4  1  0  0  0  0
  3 64  1  0  0  0  0
  4  5  1  0  0  0  0
  4 35  1  0  0  0  0
  4 36  1  0  0  0  0
  5  6  1  0  0  0  0
  5 37  1  0  0  0  0
  5 38  1  0  0  0  0
  6  7  1  0  0  0  0
  6 27  1  0  0  0  0
  6 39  1  0  0  0  0
  7  8  1  0  0  0  0
  7  9  1  0  0  0  0
  8 40  1  0  0  0  0
  8 41  1  0  0  0  0
  8 42  1  0  0  0  0
  9 14  1  0  0  0  0
  9 10  2  0  0  0  0
 10 11  1  0  0  0  0
 11 12  2  0  0  0  0
 11 43  1  0  0  0  0
 12 13  1  0  0  0  0
 13 17  1  0  0  0  0
 13 14  2  0  0  0  0
 14 15  1  0  0  0  0
 15 16  2  0  0  0  0
 16 17  1  0  0  0  0
 16 44  1  0  0  0  0
 17 18  1  0  0  0  0
 18 19  1  0  0  0  0
 18 45  1  0  0  0  0
 18 46  1  0  0  0  0
 19 20  1  0  0  0  0
 19 22  1  0  0  0  0
 19 47  1  0  0  0  0
 20 21  1  0  0  0  0
 20 48  1  0  0  0  0
 20 49  1  0  0  0  0
 21 50  1  0  0  0  0
 22 26  1  0  0  0  0
 22 23  1  0  0  0  0
 22 51  1  0  0  0  0
 23 24  1  0  0  0  0
 23 52  1  0  0  0  0
 23 53  1  0  0  0  0
 24 25  1  0  0  0  0
 24 54  1  0  0  0  0
 24 55  1  0  0  0  0
 25 26  1  0  0  0  0
 26 56  1  0  0  0  0
 26 57  1  0  0  0  0
 27 28  1  0  0  0  0
 27 58  1  0  0  0  0
 27 59  1  0  0  0  0
 28 29  1  0  0  0  0
 28 60  1  0  0  0  0
 29 61  1  0  0  0  0
 29 62  1  0  0  0  0
 29 63  1  0  0  0  0
M  CHG  1   3   1
M  END
> <s_m_source_file>
AV-unprocessed.smi

> <i_m_source_file_index>
249

> <i_lp_mmshare_version>
43012

> <i_f3d_flags>
0

> <s_epik_input>
W0NIM11bQ0gyXU4xW0NIMl1bQ0gyXVtDQEhdKFtDSDJdW0NASF0xW0NIM10pTihbQ0gzXSljKG5bY0hdbjIpYyhjMjMpbltjSF1uM1tDSDJdW0NASF0oW0NIMl1bT0hdKVtDQEBIXTRbQ0gyXVtDSDJdT1tDSDJdNA==

> <s_epik_cmdline>
J2VwaWtfcHl0aG9uJywgJy1waCcsICc3LjAnLCAnLXRuJywgJzgnLCAnLW1hJywgJzIwMCcsICctbWV0YWxfYmluZGluZycsICctaW1hZScsICc8aW5maWxlLm1hZT4nLCAnLW9tYWUnLCAnPG91dGZpbGUubWFlPic=

> <r_lp_tautomer_probability>
1

> <r_epik_Ionization_Penalty>
0.00294688

> <r_epik_Ionization_Penalty_Charging>
0.00169971

> <r_epik_Ionization_Penalty_Neutral>
0.00124717

> <r_epik_State_Penalty>
-0

> <r_epik_Charging_Adjusted_Penalty>
0.00169971

> <i_epik_Tot_Q>
1

> <i_epik_Tot_abs_Q>
1

> <r_epik_Metal_State_Penalty>
-0

> <b_epik_Metal_Only>
0

> <s_lp_Force_Field>
OPLS_2005

> <r_lp_Energy>
58.8032

> <b_lp_Chiralities_Consistent>
1

> <s_lp_Variant>
AV-unprocessed.smi:249-31

> <Gold.Version>
5.8.1

> <Gold.Id.Protein>
6NUR|6NUR_protein|mol2

> <Gold.PLP.Fitness>
53.3762

> <Gold.PLP.PLP>
-51.6408

> <Gold.PLP.part.hbond>
-3.0281

> <Gold.PLP.part.metal>
0.0000

> <Gold.PLP.part.buried>
3.5651

> <Gold.PLP.part.nonpolar>
-53.0292

> <Gold.PLP.part.repulsive>
0.3764

> <Gold.PLP.ligand.clash>
0.0000

> <Gold.PLP.ligand.torsion>
2.2095

> <Gold.PLP.Chemscore.Hbond>
1.6800

> <Gold.PLP.Chemscore.CHOScore>
0.0000

> <Gold.PLP.Chemscore.Metal>
0.0000

> <Gold.Chemscore.Hbonds>
donor molecule, donor type, donor heavy atom, donor atom, acceptor molecule, acceptor atom, score
      P1  H  7989  7998       L1    10  0.90
      P1  H  7997  8009       L1    12  0.80

> <Gold.PLP.Chemscore.Internal.Correction>
1.1144

> <Gold.Rescore>
     Score         DG    S(hbond)    S(metal)    S(lipo)     H(rot)  DE(clash)    DE(int)     intcor
      8.14     -15.88       0.55        0.00     131.08       2.65       4.72       3.01       ----

> <Gold.Chemscore.Fitness>
8.1443

> <Gold.Chemscore.DG>
-15.8771

> <Gold.Chemscore.ZeroCoef>
-5.4800

> <Gold.Chemscore.Hbond>
0.5536

> <Gold.Chemscore.Metal>
0.0000

> <Gold.Chemscore.Lipo>
131.0763

> <Gold.Chemscore.Internal_Hbond>
0.0000

> <Gold.Chemscore.DEClash>
4.7244

> <Gold.Chemscore.DEInternal>
3.0084

> <Gold.Chemscore.Rot>
2.6515

> <Gold.Chemscore.Internal.Correction>
   9.000000E+99

> <Gold.Chemscore.Hbonds>
donor molecule, donor type, donor heavy atom, donor atom, acceptor molecule, acceptor atom, score
      P1  H  7989  7998       L1    10  0.05
      P1  H  7997  8009       L1    12  0.12

> <Gold.Chemscore.Hbond.Weighted>
-1.8491

> <Gold.Chemscore.Metal.Weighted>
-0.0000

> <Gold.Chemscore.Lipo.Weighted>
-15.3359

> <Gold.Chemscore.Internal_Hbond.Weighted>
0.0000

> <Gold.Chemscore.DEClash.Weighted>
4.7244

> <Gold.Chemscore.DEInternal.Weighted>
3.0084

> <Gold.Chemscore.Rot.Weighted>
6.7880

> <Gold.Chemscore.Internal.Correction.Weighted>
   9.000000E+99

> <Gold.Protein.RotatedTorsions>
[ 6907 6896 6895 6894 ] final  116.94 input  -60.11 | X-H torsion
[ 7974 7965 7964 7962 ] final   89.57 input  175.53 | X-H torsion
[ 8008 7997 7996 7995 ] final -162.15 input   59.86 | X-H torsion
[ 10167 10162 10161 10158 ] final -118.92 input  -65.29 | X-H torsion
[ 10718 10713 10712 10709 ] final    8.63 input   66.30 | X-H torsion
[ 10763 10752 10751 10750 ] final -167.84 input  -60.55 | X-H torsion
[ 11005 11000 10999 10996 ] final  -20.37 input  -57.11 | X-H torsion

> <Gold.Protein.ActiveResidues>
 VAL166  LYS551  ARG553  GLY616  TRP617  ASP618  TYR619  PRO620  LYS621  CYS622 
 ASP623  PHE694  ASN695  SER759  ASP760  ASP761  ALA762  ILE779  LEU786  VAL792 
 PHE793  MET794  SER795  GLU796  ALA797  LYS798  CYS799  TRP800  GLU811  SER814 

> <Gold.Protein.RotatedAtoms>
  152.4645  133.7893  159.6892 H   0  0  0  0  0  0  0  0  0  0  0  0  # atno 6907 bound_to 6896
  150.8603  133.7644  159.3001 H   0  0  0  0  0  0  0  0  0  0  0  0  # atno 6908 bound_to 6896
  151.5211  135.1070  159.9930 H   0  0  0  0  0  0  0  0  0  0  0  0  # atno 6909 bound_to 6896
  145.5306  139.2283  143.2621 H   0  0  0  0  0  0  0  0  0  0  0  0  # atno 7974 bound_to 7965
  155.8026  140.0894  157.1948 H   0  0  0  0  0  0  0  0  0  0  0  0  # atno 8008 bound_to 7997
  154.3981  140.1469  156.3352 H   0  0  0  0  0  0  0  0  0  0  0  0  # atno 8009 bound_to 7997
  155.8447  140.3437  155.5657 H   0  0  0  0  0  0  0  0  0  0  0  0  # atno 8010 bound_to 7997
  140.0523  143.5048  152.2075 H   0  0  0  0  0  0  0  0  0  0  0  0  # atno 10167 bound_to 10162
  156.9545  130.5909  149.5658 H   0  0  0  0  0  0  0  0  0  0  0  0  # atno 10718 bound_to 10713
  154.6691  135.2936  154.9766 H   0  0  0  0  0  0  0  0  0  0  0  0  # atno 10763 bound_to 10752
  154.0799  135.6606  153.4840 H   0  0  0  0  0  0  0  0  0  0  0  0  # atno 10764 bound_to 10752
  153.0475  135.5195  154.7678 H   0  0  0  0  0  0  0  0  0  0  0  0  # atno 10765 bound_to 10752
  140.8457  133.7893  155.9910 H   0  0  0  0  0  0  0  0  0  0  0  0  # atno 11005 bound_to 11000
  146.2046  140.6122  142.9087 LP  0  0  0  0  0  0  0  0  0  0  0  0  # atno 17320 bound_to 7965
  144.7628  140.5461  143.6724 LP  0  0  0  0  0  0  0  0  0  0  0  0  # atno 17321 bound_to 7965
  139.5945  144.7562  151.3319 LP  0  0  0  0  0  0  0  0  0  0  0  0  # atno 17342 bound_to 10162
  140.7211  143.7133  150.7752 LP  0  0  0  0  0  0  0  0  0  0  0  0  # atno 17343 bound_to 10162
  156.0348  130.5437  150.8627 LP  0  0  0  0  0  0  0  0  0  0  0  0  # atno 17370 bound_to 10713
  157.5699  131.0946  150.9433 LP  0  0  0  0  0  0  0  0  0  0  0  0  # atno 17371 bound_to 10713
  140.8846  134.2570  157.5127 LP  0  0  0  0  0  0  0  0  0  0  0  0  # atno 17394 bound_to 11000
  139.8703  134.9631  156.4453 LP  0  0  0  0  0  0  0  0  0  0  0  0  # atno 17395 bound_to 11000

$$$$
