AV-unprocessed.smi:1828|AV-procd|sdf|7424|dock2
  -GOLD-   22720 9103D 1   1.00000     0.00000
 Structure written by MMmdl.
 39 41  0  0  0  0  0  0  0  0  1 V2000
  153.3842  140.9292  154.1120 O   0  0  0  0  0  0  0  0  0  0  0  0
  152.9430  139.7468  154.7440 C   0  0  0  0  0  0  0  0  0  0  0  0
  151.4972  139.8043  155.1320 C   0  0  0  0  0  0  0  0  0  0  0  0
  150.5300  139.9477  154.2250 N   0  0  0  0  0  0  0  0  0  0  0  0
  149.3853  139.9429  154.9978 C   0  0  0  0  0  0  0  0  0  0  0  0
  148.0262  140.0580  154.6278 C   0  0  0  0  0  0  0  0  0  0  0  0
  147.0137  140.0232  155.6090 C   0  0  0  0  0  0  0  0  0  0  0  0
  147.3447  139.8732  156.9714 C   0  0  0  0  0  0  0  0  0  0  0  0
  148.6928  139.7583  157.3618 C   0  0  0  0  0  0  0  0  0  0  0  0
  149.6993  139.7939  156.3782 C   0  0  0  0  0  0  0  0  0  0  0  0
  151.0870  139.7108  156.4224 N   0  0  0  0  0  0  0  0  0  0  0  0
  151.8949  139.5516  157.6244 C   0  0  0  0  0  0  0  0  0  0  0  0
  153.0906  140.5238  157.6676 C   0  0  2  0  0  0  0  0  0  0  0  0
  154.3066  139.8025  157.6187 O   0  0  0  0  0  0  0  0  0  0  0  0
  153.0138  141.4382  158.8800 C   0  0  0  0  0  0  0  0  0  0  0  0
  154.0074  141.3887  159.8814 C   0  0  0  0  0  0  0  0  0  0  0  0
  153.9263  142.2370  161.0015 C   0  0  0  0  0  0  0  0  0  0  0  0
  152.8494  143.1347  161.1307 C   0  0  0  0  0  0  0  0  0  0  0  0
  151.8427  143.1854  160.1420 C   0  0  0  0  0  0  0  0  0  0  0  0
  150.6768  144.1549  160.2691 C   0  0  0  0  0  0  0  0  0  0  0  0
  149.5338  143.4886  160.4352 F   0  0  0  0  0  0  0  0  0  0  0  0
  150.8367  144.9746  161.3088 F   0  0  0  0  0  0  0  0  0  0  0  0
  150.5906  144.8843  159.1576 F   0  0  0  0  0  0  0  0  0  0  0  0
  151.9346  142.3370  159.0173 C   0  0  0  0  0  0  0  0  0  0  0  0
  154.0450  140.7001  153.4768 H   0  0  0  0  0  0  0  0  0  0  0  0
  153.1171  138.8954  154.0865 H   0  0  0  0  0  0  0  0  0  0  0  0
  153.5491  139.5825  155.6353 H   0  0  0  0  0  0  0  0  0  0  0  0
  147.7627  140.1724  153.5867 H   0  0  0  0  0  0  0  0  0  0  0  0
  145.9780  140.1109  155.3151 H   0  0  0  0  0  0  0  0  0  0  0  0
  146.5630  139.8463  157.7166 H   0  0  0  0  0  0  0  0  0  0  0  0
  148.9501  139.6432  158.4043 H   0  0  0  0  0  0  0  0  0  0  0  0
  151.2483  139.7239  158.4856 H   0  0  0  0  0  0  0  0  0  0  0  0
  152.2350  138.5196  157.7064 H   0  0  0  0  0  0  0  0  0  0  0  0
  153.0670  141.1458  156.7719 H   0  0  0  0  0  0  0  0  0  0  0  0
  154.8011  139.9973  158.4002 H   0  0  0  0  0  0  0  0  0  0  0  0
  154.8349  140.6998  159.7935 H   0  0  0  0  0  0  0  0  0  0  0  0
  154.6915  142.1992  161.7629 H   0  0  0  0  0  0  0  0  0  0  0  0
  152.8026  143.7832  161.9931 H   0  0  0  0  0  0  0  0  0  0  0  0
  151.1704  142.3773  158.2547 H   0  0  0  0  0  0  0  0  0  0  0  0
  1  2  1  0  0  0  0
  1 25  1  0  0  0  0
  2  3  1  0  0  0  0
  2 26  1  0  0  0  0
  2 27  1  0  0  0  0
  3 11  1  0  0  0  0
  3  4  2  0  0  0  0
  4  5  1  0  0  0  0
  5 10  2  0  0  0  0
  5  6  1  0  0  0  0
  6  7  2  0  0  0  0
  6 28  1  0  0  0  0
  7  8  1  0  0  0  0
  7 29  1  0  0  0  0
  8  9  2  0  0  0  0
  8 30  1  0  0  0  0
  9 10  1  0  0  0  0
  9 31  1  0  0  0  0
 10 11  1  0  0  0  0
 11 12  1  0  0  0  0
 12 13  1  0  0  0  0
 12 32  1  0  0  0  0
 12 33  1  0  0  0  0
 13 14  1  0  0  0  0
 13 15  1  0  0  0  0
 13 34  1  0  0  0  0
 14 35  1  0  0  0  0
 15 24  1  0  0  0  0
 15 16  2  0  0  0  0
 16 17  1  0  0  0  0
 16 36  1  0  0  0  0
 17 18  2  0  0  0  0
 17 37  1  0  0  0  0
 18 19  1  0  0  0  0
 18 38  1  0  0  0  0
 19 20  1  0  0  0  0
 19 24  2  0  0  0  0
 20 21  1  0  0  0  0
 20 22  1  0  0  0  0
 20 23  1  0  0  0  0
 24 39  1  0  0  0  0
M  END
> <s_m_source_file>
AV-unprocessed.smi

> <i_m_source_file_index>
1828

> <i_lp_mmshare_version>
43012

> <i_f3d_flags>
0

> <s_epik_input>
W2NIXTFbY0hdW2NIXVtjSF1jKGMxMiluKGMobjIpW0NIMl1bT0hdKVtDSDJdW0NASF0oW09IXSljM1tjSF1bY0hdW2NIXWMoQyhGKShGKUYpW2NIXTM=

> <s_epik_cmdline>
J2VwaWtfcHl0aG9uJywgJy1waCcsICc3LjAnLCAnLXRuJywgJzgnLCAnLW1hJywgJzIwMCcsICctbWV0YWxfYmluZGluZycsICctaW1hZScsICc8aW5maWxlLm1hZT4nLCAnLW9tYWUnLCAnPG91dGZpbGUubWFlPic=

> <r_epik_Ionization_Penalty>
0.0634719

> <r_epik_Ionization_Penalty_Charging>
0

> <r_epik_Ionization_Penalty_Neutral>
0.0634719

> <r_epik_State_Penalty>
0.0551572

> <r_epik_Charging_Adjusted_Penalty>
0.0551572

> <i_epik_Tot_Q>
0

> <i_epik_Tot_abs_Q>
0

> <r_epik_Metal_State_Penalty>
5.78034e-05

> <b_epik_Metal_Only>
0

> <s_lp_Force_Field>
OPLS_2005

> <r_lp_Energy>
12.8621

> <b_lp_Chiralities_Consistent>
1

> <s_lp_Variant>
AV-unprocessed.smi:1828-1

> <Gold.Version>
5.8.1

> <Gold.Id.Protein>
6NUR|6NUR_protein|mol2

> <Gold.PLP.Fitness>
60.2999

> <Gold.PLP.PLP>
-56.1863

> <Gold.PLP.part.hbond>
-2.7290

> <Gold.PLP.part.metal>
0.0000

> <Gold.PLP.part.buried>
-5.3519

> <Gold.PLP.part.nonpolar>
-48.1785

> <Gold.PLP.part.repulsive>
0.1496

> <Gold.PLP.ligand.clash>
0.6238

> <Gold.PLP.ligand.torsion>
1.0841

> <Gold.PLP.Chemscore.Hbond>
2.0000

> <Gold.PLP.Chemscore.CHOScore>
0.0000

> <Gold.PLP.Chemscore.Metal>
0.0000

> <Gold.Chemscore.Hbonds>
donor molecule, donor type, donor heavy atom, donor atom, acceptor molecule, acceptor atom, score
      P1  H  7989  7998       L1     4  0.15

> <Gold.PLP.Chemscore.Internal.Correction>
0.9056

> <Gold.Rescore>
     Score         DG    S(hbond)    S(metal)    S(lipo)     H(rot)  DE(clash)    DE(int)     intcor
     13.35     -15.41       0.81        0.00     125.44       2.91       0.30       1.77       ----

> <Gold.Chemscore.Fitness>
13.3460

> <Gold.Chemscore.DG>
-15.4098

> <Gold.Chemscore.ZeroCoef>
-5.4800

> <Gold.Chemscore.Hbond>
0.8125

> <Gold.Chemscore.Metal>
0.0000

> <Gold.Chemscore.Lipo>
125.4371

> <Gold.Chemscore.Internal_Hbond>
0.0000

> <Gold.Chemscore.DEClash>
0.2979

> <Gold.Chemscore.DEInternal>
1.7659

> <Gold.Chemscore.Rot>
2.9141

> <Gold.Chemscore.Internal.Correction>
   9.000000E+99

> <Gold.Chemscore.Hbond.Weighted>
-2.7137

> <Gold.Chemscore.Metal.Weighted>
-0.0000

> <Gold.Chemscore.Lipo.Weighted>
-14.6761

> <Gold.Chemscore.Internal_Hbond.Weighted>
0.0000

> <Gold.Chemscore.DEClash.Weighted>
0.2979

> <Gold.Chemscore.DEInternal.Weighted>
1.7659

> <Gold.Chemscore.Rot.Weighted>
7.4600

> <Gold.Chemscore.Internal.Correction.Weighted>
   9.000000E+99

> <Gold.Protein.RotatedTorsions>
[ 6907 6896 6895 6894 ] final -100.85 input  -60.11 | X-H torsion
[ 7974 7965 7964 7962 ] final   10.76 input  175.53 | X-H torsion
[ 8008 7997 7996 7995 ] final -118.54 input   59.86 | X-H torsion
[ 10167 10162 10161 10158 ] final  102.98 input  -65.29 | X-H torsion
[ 10718 10713 10712 10709 ] final  -18.94 input   66.30 | X-H torsion
[ 10763 10752 10751 10750 ] final  -55.24 input  -60.55 | X-H torsion
[ 11005 11000 10999 10996 ] final   37.26 input  -57.11 | X-H torsion

> <Gold.Protein.ActiveResidues>
 VAL166  LYS551  ARG553  GLY616  TRP617  ASP618  TYR619  PRO620  LYS621  CYS622 
 ASP623  PHE694  ASN695  SER759  ASP760  ASP761  ALA762  ILE779  LEU786  VAL792 
 PHE793  MET794  SER795  GLU796  ALA797  LYS798  CYS799  TRP800  GLU811  SER814 

> <Gold.Protein.RotatedAtoms>
  150.7132  134.0824  159.3902 H   0  0  0  0  0  0  0  0  0  0  0  0  # atno 6907 bound_to 6896
  151.8808  135.0452  160.0498 H   0  0  0  0  0  0  0  0  0  0  0  0  # atno 6908 bound_to 6896
  152.2569  133.5228  159.5395 H   0  0  0  0  0  0  0  0  0  0  0  0  # atno 6909 bound_to 6896
  146.2383  139.9586  142.8461 H   0  0  0  0  0  0  0  0  0  0  0  0  # atno 7974 bound_to 7965
  155.1013  140.0396  157.2697 H   0  0  0  0  0  0  0  0  0  0  0  0  # atno 8008 bound_to 7997
  154.6756  140.2622  155.6936 H   0  0  0  0  0  0  0  0  0  0  0  0  # atno 8009 bound_to 7997
  156.2675  140.2789  156.1281 H   0  0  0  0  0  0  0  0  0  0  0  0  # atno 8010 bound_to 7997
  139.7302  144.7038  151.0734 H   0  0  0  0  0  0  0  0  0  0  0  0  # atno 10167 bound_to 10162
  156.5526  130.4705  149.6445 H   0  0  0  0  0  0  0  0  0  0  0  0  # atno 10718 bound_to 10713
  154.1876  135.6433  153.5051 H   0  0  0  0  0  0  0  0  0  0  0  0  # atno 10763 bound_to 10752
  153.0043  135.5421  154.6449 H   0  0  0  0  0  0  0  0  0  0  0  0  # atno 10764 bound_to 10752
  154.5829  135.2927  155.0687 H   0  0  0  0  0  0  0  0  0  0  0  0  # atno 10765 bound_to 10752
  140.2244  134.3603  155.7991 H   0  0  0  0  0  0  0  0  0  0  0  0  # atno 11005 bound_to 11000
  145.1793  140.9759  143.4276 LP  0  0  0  0  0  0  0  0  0  0  0  0  # atno 17320 bound_to 7965
  144.9957  139.3646  143.6192 LP  0  0  0  0  0  0  0  0  0  0  0  0  # atno 17321 bound_to 7965
  140.7770  143.5053  150.9720 LP  0  0  0  0  0  0  0  0  0  0  0  0  # atno 17342 bound_to 10162
  139.8741  143.7155  152.3163 LP  0  0  0  0  0  0  0  0  0  0  0  0  # atno 17343 bound_to 10162
  156.2871  130.7103  151.1943 LP  0  0  0  0  0  0  0  0  0  0  0  0  # atno 17370 bound_to 10713
  157.7384  131.0540  150.5294 LP  0  0  0  0  0  0  0  0  0  0  0  0  # atno 17371 bound_to 10713
  141.2221  133.7211  156.8628 LP  0  0  0  0  0  0  0  0  0  0  0  0  # atno 17394 bound_to 11000
  140.1816  134.9029  157.2955 LP  0  0  0  0  0  0  0  0  0  0  0  0  # atno 17395 bound_to 11000

$$$$
