AV-unprocessed.smi:2061|AV-procd|sdf|8390|dock3
  -GOLD-   2272011 73D 1   1.00000     0.00000
 Structure written by MMmdl.
 45 46  0  0  0  0  0  0  0  0  3 V2000
  152.9297  142.7937  161.0046 C   0  0  0  0  0  0  0  0  0  0  0  0
  152.5025  142.0907  159.7623 C   0  0  0  0  0  0  0  0  0  0  0  0
  151.7018  142.4541  158.7165 C   0  0  0  0  0  0  0  0  0  0  0  0
  151.7249  141.3064  157.8799 C   0  0  0  0  0  0  0  0  0  0  0  0
  151.0010  141.2870  156.6587 N   0  0  0  0  0  0  0  0  0  0  0  0
  150.9714  140.3317  155.7116 C   0  0  0  0  0  0  0  0  0  0  0  0
  151.6104  139.2836  155.8619 O   0  0  0  0  0  0  0  0  0  0  0  0
  150.1874  140.6798  154.6548 N   0  5  0  0  0  0  0  0  0  0  0  0
  149.0498  141.5964  154.7283 C   0  0  0  0  0  0  0  0  0  0  0  0
  147.7142  140.8172  154.5987 C   0  0  2  0  0  0  0  0  0  0  0  0
  147.5371  140.0743  153.2503 C   0  0  0  0  0  0  0  0  0  0  0  0
  146.5579  141.7067  154.9288 N   0  3  1  0  0  0  0  0  0  0  0  0
  146.4336  142.1420  156.3475 C   0  0  0  0  0  0  0  0  0  0  0  0
  145.1000  142.8780  156.5728 C   0  0  2  0  0  0  0  0  0  0  0  0
  143.8751  141.9464  156.5582 C   0  0  0  0  0  0  0  0  0  0  0  0
  144.9757  143.9564  155.6445 O   0  0  0  0  0  0  0  0  0  0  0  0
  145.0820  143.5849  154.2717 C   0  0  1  0  0  0  0  0  0  0  0  0
  144.9410  144.8558  153.4267 C   0  0  0  0  0  0  0  0  0  0  0  0
  146.4260  142.8754  154.0263 C   0  0  0  0  0  0  0  0  0  0  0  0
  152.4749  140.3311  158.3716 N   0  0  0  0  0  0  0  0  0  0  0  0
  152.9771  140.8287  159.5799 O   0  0  0  0  0  0  0  0  0  0  0  0
  152.3653  143.7159  161.1436 H   0  0  0  0  0  0  0  0  0  0  0  0
  153.9887  143.0484  160.9592 H   0  0  0  0  0  0  0  0  0  0  0  0
  152.7688  142.1644  161.8802 H   0  0  0  0  0  0  0  0  0  0  0  0
  151.1832  143.3904  158.5741 H   0  0  0  0  0  0  0  0  0  0  0  0
  150.4387  142.1039  156.4730 H   0  0  0  0  0  0  0  0  0  0  0  0
  149.0344  142.1407  155.6742 H   0  0  0  0  0  0  0  0  0  0  0  0
  149.0963  142.3614  153.9529 H   0  0  0  0  0  0  0  0  0  0  0  0
  147.7469  140.0512  155.3754 H   0  0  0  0  0  0  0  0  0  0  0  0
  148.3110  139.3198  153.0982 H   0  0  0  0  0  0  0  0  0  0  0  0
  147.5673  140.7456  152.3904 H   0  0  0  0  0  0  0  0  0  0  0  0
  146.5830  139.5477  153.2207 H   0  0  0  0  0  0  0  0  0  0  0  0
  146.5043  141.2916  157.0264 H   0  0  0  0  0  0  0  0  0  0  0  0
  147.2549  142.8149  156.5976 H   0  0  0  0  0  0  0  0  0  0  0  0
  145.1365  143.3352  157.5620 H   0  0  0  0  0  0  0  0  0  0  0  0
  143.9399  141.2124  157.3619 H   0  0  0  0  0  0  0  0  0  0  0  0
  143.7851  141.3927  155.6239 H   0  0  0  0  0  0  0  0  0  0  0  0
  142.9546  142.5121  156.7027 H   0  0  0  0  0  0  0  0  0  0  0  0
  144.2632  142.9143  154.0099 H   0  0  0  0  0  0  0  0  0  0  0  0
  145.0062  144.6292  152.3622 H   0  0  0  0  0  0  0  0  0  0  0  0
  145.7234  145.5772  153.6641 H   0  0  0  0  0  0  0  0  0  0  0  0
  143.9792  145.3371  153.6047 H   0  0  0  0  0  0  0  0  0  0  0  0
  147.2588  143.5612  154.1890 H   0  0  0  0  0  0  0  0  0  0  0  0
  146.4736  142.5528  152.9853 H   0  0  0  0  0  0  0  0  0  0  0  0
  145.7453  141.1368  154.7404 H   0  0  0  0  0  0  0  0  0  0  0  0
  1  2  1  0  0  0  0
  1 22  1  0  0  0  0
  1 23  1  0  0  0  0
  1 24  1  0  0  0  0
  2 21  1  0  0  0  0
  2  3  2  0  0  0  0
  3  4  1  0  0  0  0
  3 25  1  0  0  0  0
  4  5  1  0  0  0  0
  4 20  2  0  0  0  0
  5  6  1  0  0  0  0
  5 26  1  0  0  0  0
  6  7  2  0  0  0  0
  6  8  1  0  0  0  0
  8  9  1  0  0  0  0
  9 10  1  0  0  0  0
  9 27  1  0  0  0  0
  9 28  1  0  0  0  0
 10 11  1  0  0  0  0
 10 12  1  0  0  0  0
 10 29  1  0  0  0  0
 11 30  1  0  0  0  0
 11 31  1  0  0  0  0
 11 32  1  0  0  0  0
 12 19  1  0  0  0  0
 12 13  1  0  0  0  0
 12 45  1  0  0  0  0
 13 14  1  0  0  0  0
 13 33  1  0  0  0  0
 13 34  1  0  0  0  0
 14 15  1  0  0  0  0
 14 16  1  0  0  0  0
 14 35  1  0  0  0  0
 15 36  1  0  0  0  0
 15 37  1  0  0  0  0
 15 38  1  0  0  0  0
 16 17  1  0  0  0  0
 17 18  1  0  0  0  0
 17 19  1  0  0  0  0
 17 39  1  0  0  0  0
 18 40  1  0  0  0  0
 18 41  1  0  0  0  0
 18 42  1  0  0  0  0
 19 43  1  0  0  0  0
 19 44  1  0  0  0  0
 20 21  1  0  0  0  0
M  CHG  1   8  -1
M  CHG  1  12   1
M  END
> <s_m_source_file>
AV-unprocessed.smi

> <i_m_source_file_index>
2061

> <i_lp_mmshare_version>
43012

> <i_f3d_flags>
0

> <s_epik_input>
W0NIM11jMVtjSF1jKG5vMSlbTkhdQyg9TylbTkhdW0NIMl1bQ0BIXShbQ0gzXSlOMltDSDJdW0NAQEhdKFtDSDNdKU9bQ0BASF0oW0NIM10pW0NIMl0y

> <s_epik_cmdline>
J2VwaWtfcHl0aG9uJywgJy1waCcsICc3LjAnLCAnLXRuJywgJzgnLCAnLW1hJywgJzIwMCcsICctbWV0YWxfYmluZGluZycsICctaW1hZScsICc8aW5maWxlLm1hZT4nLCAnLW9tYWUnLCAnPG91dGZpbGUubWFlPic=

> <r_epik_Ionization_Penalty>
6.8073

> <r_epik_Ionization_Penalty_Charging>
6.80729

> <r_epik_Ionization_Penalty_Neutral>
5.65391e-06

> <r_epik_State_Penalty>
7.47323

> <r_epik_Charging_Adjusted_Penalty>
14.2805

> <i_epik_Tot_Q>
0

> <i_epik_Tot_abs_Q>
2

> <r_epik_Metal_State_Penalty>
3.40035

> <b_epik_Metal_Only>
1

> <s_lp_Force_Field>
OPLS_2005

> <r_lp_Energy>
19.801

> <b_lp_Chiralities_Consistent>
1

> <s_lp_Variant>
AV-unprocessed.smi:2061-31

> <Gold.Version>
5.8.1

> <Gold.Id.Protein>
6NUR|6NUR_protein|mol2

> <Gold.PLP.Fitness>
38.0742

> <Gold.PLP.PLP>
-36.5663

> <Gold.PLP.part.hbond>
-1.0000

> <Gold.PLP.part.metal>
0.0000

> <Gold.PLP.part.buried>
-3.8471

> <Gold.PLP.part.nonpolar>
-31.1032

> <Gold.PLP.part.repulsive>
0.3862

> <Gold.PLP.ligand.clash>
0.0000

> <Gold.PLP.ligand.torsion>
0.3653

> <Gold.PLP.Chemscore.Hbond>
0.6936

> <Gold.PLP.Chemscore.CHOScore>
0.0000

> <Gold.PLP.Chemscore.Metal>
0.0000

> <Gold.Chemscore.Hbonds>
donor molecule, donor type, donor heavy atom, donor atom, acceptor molecule, acceptor atom, score
      P1  H  7989  7998       L1     8  0.59

> <Gold.PLP.Chemscore.Internal.Correction>
0.1578

> <Gold.Rescore>
     Score         DG    S(hbond)    S(metal)    S(lipo)     H(rot)  DE(clash)    DE(int)     intcor
      9.89     -11.61       0.16        0.00      81.73       1.56       0.08       1.63       ----

> <Gold.Chemscore.Fitness>
9.8948

> <Gold.Chemscore.DG>
-11.6059

> <Gold.Chemscore.ZeroCoef>
-5.4800

> <Gold.Chemscore.Hbond>
0.1631

> <Gold.Chemscore.Metal>
0.0000

> <Gold.Chemscore.Lipo>
81.7274

> <Gold.Chemscore.Internal_Hbond>
0.0000

> <Gold.Chemscore.DEClash>
0.0767

> <Gold.Chemscore.DEInternal>
1.6344

> <Gold.Chemscore.Rot>
1.5550

> <Gold.Chemscore.Internal.Correction>
   9.000000E+99

> <Gold.Chemscore.Hbonds>
donor molecule, donor type, donor heavy atom, donor atom, acceptor molecule, acceptor atom, score
      P1  H  7989  7998       L1     8  0.06

> <Gold.Chemscore.Hbond.Weighted>
-0.5447

> <Gold.Chemscore.Metal.Weighted>
-0.0000

> <Gold.Chemscore.Lipo.Weighted>
-9.5621

> <Gold.Chemscore.Internal_Hbond.Weighted>
0.0000

> <Gold.Chemscore.DEClash.Weighted>
0.0767

> <Gold.Chemscore.DEInternal.Weighted>
1.6344

> <Gold.Chemscore.Rot.Weighted>
3.9809

> <Gold.Chemscore.Internal.Correction.Weighted>
   9.000000E+99

> <Gold.Protein.RotatedTorsions>
[ 6907 6896 6895 6894 ] final   86.59 input  -60.11 | X-H torsion
[ 7974 7965 7964 7962 ] final    8.70 input  175.53 | X-H torsion
[ 8008 7997 7996 7995 ] final   54.10 input   59.86 | X-H torsion
[ 10167 10162 10161 10158 ] final  118.70 input  -65.29 | X-H torsion
[ 10718 10713 10712 10709 ] final  152.51 input   66.30 | X-H torsion
[ 10763 10752 10751 10750 ] final   31.26 input  -60.55 | X-H torsion
[ 11005 11000 10999 10996 ] final  119.05 input  -57.11 | X-H torsion

> <Gold.Protein.ActiveResidues>
 VAL166  LYS551  ARG553  GLY616  TRP617  ASP618  TYR619  PRO620  LYS621  CYS622 
 ASP623  PHE694  ASN695  SER759  ASP760  ASP761  ALA762  ILE779  LEU786  VAL792 
 PHE793  MET794  SER795  GLU796  ALA797  LYS798  CYS799  TRP800  GLU811  SER814 

> <Gold.Protein.RotatedAtoms>
  152.5397  134.2407  159.8860 H   0  0  0  0  0  0  0  0  0  0  0  0  # atno 6907 bound_to 6896
  151.2375  133.4410  159.2613 H   0  0  0  0  0  0  0  0  0  0  0  0  # atno 6908 bound_to 6896
  151.0658  134.9780  159.8339 H   0  0  0  0  0  0  0  0  0  0  0  0  # atno 6909 bound_to 6896
  146.2413  139.9894  142.8427 H   0  0  0  0  0  0  0  0  0  0  0  0  # atno 7974 bound_to 7965
  155.4791  140.3468  155.4337 H   0  0  0  0  0  0  0  0  0  0  0  0  # atno 8008 bound_to 7997
  156.1051  140.1446  156.9444 H   0  0  0  0  0  0  0  0  0  0  0  0  # atno 8009 bound_to 7997
  154.4719  140.0898  156.7143 H   0  0  0  0  0  0  0  0  0  0  0  0  # atno 8010 bound_to 7997
  139.6094  144.7078  151.2878 H   0  0  0  0  0  0  0  0  0  0  0  0  # atno 10167 bound_to 10162
  157.2568  131.0790  151.1692 H   0  0  0  0  0  0  0  0  0  0  0  0  # atno 10718 bound_to 10713
  153.0326  135.6443  154.1171 H   0  0  0  0  0  0  0  0  0  0  0  0  # atno 10763 bound_to 10752
  154.0891  135.2867  155.3277 H   0  0  0  0  0  0  0  0  0  0  0  0  # atno 10764 bound_to 10752
  154.6477  135.5437  153.7928 H   0  0  0  0  0  0  0  0  0  0  0  0  # atno 10765 bound_to 10752
  139.9132  134.9625  156.7596 H   0  0  0  0  0  0  0  0  0  0  0  0  # atno 11005 bound_to 11000
  145.1517  140.9626  143.4429 LP  0  0  0  0  0  0  0  0  0  0  0  0  # atno 17320 bound_to 7965
  145.0199  139.3434  143.6077 LP  0  0  0  0  0  0  0  0  0  0  0  0  # atno 17321 bound_to 7965
  140.7308  143.6869  150.7954 LP  0  0  0  0  0  0  0  0  0  0  0  0  # atno 17342 bound_to 10162
  140.0461  143.5297  152.2695 LP  0  0  0  0  0  0  0  0  0  0  0  0  # atno 17343 bound_to 10162
  157.3218  130.6941  149.6273 LP  0  0  0  0  0  0  0  0  0  0  0  0  # atno 17370 bound_to 10713
  155.9665  130.4333  150.5001 LP  0  0  0  0  0  0  0  0  0  0  0  0  # atno 17371 bound_to 10713
  140.6708  133.9561  155.7855 LP  0  0  0  0  0  0  0  0  0  0  0  0  # atno 17394 bound_to 11000
  141.0579  134.0389  157.3698 LP  0  0  0  0  0  0  0  0  0  0  0  0  # atno 17395 bound_to 11000

$$$$
