AV-unprocessed.smi:1550|AV-procd|sdf|6227|dock6
  -GOLD-   22720 6403D 1   1.00000     0.00000
 Structure written by MMmdl.
 43 44  0  0  0  0  0  0  0  0  1 V2000
  150.9711  139.0020  155.2612 C   0  0  0  0  0  0  0  0  0  0  0  0
  151.0736  138.9048  156.7905 C   0  0  1  0  0  0  0  0  0  0  0  0
  151.2080  140.2306  157.2948 O   0  0  0  0  0  0  0  0  0  0  0  0
  151.4267  140.3322  158.6973 C   0  0  0  0  0  0  0  0  0  0  0  0
  152.1643  141.6458  158.9846 C   0  0  1  0  0  0  0  0  0  0  0  0
  151.3950  142.8670  158.4442 C   0  0  0  0  0  0  0  0  0  0  0  0
  152.1176  144.1664  158.8179 C   0  0  0  0  0  0  0  0  0  0  0  0
  152.3704  144.2026  160.3288 C   0  0  0  0  0  0  0  0  0  0  0  0
  153.0732  142.9138  160.7840 C   0  0  0  0  0  0  0  0  0  0  0  0
  152.3034  141.7794  160.3977 O   0  0  0  0  0  0  0  0  0  0  0  0
  149.8293  138.2326  157.3929 C   0  0  0  0  0  0  0  0  0  0  0  0
  148.7257  138.7579  157.2453 O   0  0  0  0  0  0  0  0  0  0  0  0
  150.0546  137.0822  158.0577 N   0  0  0  0  0  0  0  0  0  0  0  0
  149.1464  136.2820  158.7701 C   0  0  0  0  0  0  0  0  0  0  0  0
  149.1426  136.1363  160.1210 C   0  0  0  0  0  0  0  0  0  0  0  0
  148.1868  135.2758  160.7998 C   0  0  0  0  0  0  0  0  0  0  0  0
  148.1666  135.1093  162.3112 C   0  0  0  0  0  0  0  0  0  0  0  0
  146.9730  135.4507  162.7955 F   0  0  0  0  0  0  0  0  0  0  0  0
  148.3931  133.8368  162.6367 F   0  0  0  0  0  0  0  0  0  0  0  0
  149.0917  135.8646  162.9039 F   0  0  0  0  0  0  0  0  0  0  0  0
  147.3100  134.6194  160.0191 C   0  0  0  0  0  0  0  0  0  0  0  0
  147.3148  134.7555  158.6290 N   0  0  0  0  0  0  0  0  0  0  0  0
  148.1779  135.5405  157.9458 C   0  0  0  0  0  0  0  0  0  0  0  0
  148.1222  135.6035  156.7181 O   0  0  0  0  0  0  0  0  0  0  0  0
  146.6259  134.2266  158.1134 H   0  0  0  0  0  0  0  0  0  0  0  0
  150.8559  138.0165  154.8086 H   0  0  0  0  0  0  0  0  0  0  0  0
  151.8711  139.4531  154.8425 H   0  0  0  0  0  0  0  0  0  0  0  0
  150.1233  139.6149  154.9525 H   0  0  0  0  0  0  0  0  0  0  0  0
  151.9683  138.3297  157.0383 H   0  0  0  0  0  0  0  0  0  0  0  0
  150.4732  140.3335  159.2268 H   0  0  0  0  0  0  0  0  0  0  0  0
  152.0025  139.4804  159.0626 H   0  0  0  0  0  0  0  0  0  0  0  0
  153.1510  141.6053  158.5191 H   0  0  0  0  0  0  0  0  0  0  0  0
  151.2883  142.7997  157.3610 H   0  0  0  0  0  0  0  0  0  0  0  0
  150.3857  142.8788  158.8578 H   0  0  0  0  0  0  0  0  0  0  0  0
  153.0676  144.2232  158.2851 H   0  0  0  0  0  0  0  0  0  0  0  0
  151.5312  145.0318  158.5084 H   0  0  0  0  0  0  0  0  0  0  0  0
  152.9716  145.0737  160.5904 H   0  0  0  0  0  0  0  0  0  0  0  0
  151.4219  144.3058  160.8572 H   0  0  0  0  0  0  0  0  0  0  0  0
  154.0767  142.8466  160.3610 H   0  0  0  0  0  0  0  0  0  0  0  0
  153.1848  142.9110  161.8684 H   0  0  0  0  0  0  0  0  0  0  0  0
  150.9963  136.7191  158.0180 H   0  0  0  0  0  0  0  0  0  0  0  0
  149.8736  136.6448  160.7282 H   0  0  0  0  0  0  0  0  0  0  0  0
  146.5504  133.9493  160.3944 H   0  0  0  0  0  0  0  0  0  0  0  0
  1  2  1  0  0  0  0
  1 26  1  0  0  0  0
  1 27  1  0  0  0  0
  1 28  1  0  0  0  0
  2  3  1  0  0  0  0
  2 11  1  0  0  0  0
  2 29  1  0  0  0  0
  3  4  1  0  0  0  0
  4  5  1  0  0  0  0
  4 30  1  0  0  0  0
  4 31  1  0  0  0  0
  5 10  1  0  0  0  0
  5  6  1  0  0  0  0
  5 32  1  0  0  0  0
  6  7  1  0  0  0  0
  6 33  1  0  0  0  0
  6 34  1  0  0  0  0
  7  8  1  0  0  0  0
  7 35  1  0  0  0  0
  7 36  1  0  0  0  0
  8  9  1  0  0  0  0
  8 37  1  0  0  0  0
  8 38  1  0  0  0  0
  9 10  1  0  0  0  0
  9 39  1  0  0  0  0
  9 40  1  0  0  0  0
 11 12  2  0  0  0  0
 11 13  1  0  0  0  0
 13 14  1  0  0  0  0
 13 41  1  0  0  0  0
 14 23  1  0  0  0  0
 14 15  2  0  0  0  0
 15 16  1  0  0  0  0
 15 42  1  0  0  0  0
 16 17  1  0  0  0  0
 16 21  2  0  0  0  0
 17 18  1  0  0  0  0
 17 19  1  0  0  0  0
 17 20  1  0  0  0  0
 21 22  1  0  0  0  0
 21 43  1  0  0  0  0
 22 25  1  0  0  0  0
 22 23  1  0  0  0  0
 23 24  2  0  0  0  0
M  END
> <s_m_source_file>
AV-unprocessed.smi

> <i_m_source_file_index>
1550

> <i_lp_mmshare_version>
43012

> <i_f3d_flags>
0

> <s_epik_input>
TzFbQ0gyXVtDSDJdW0NIMl1bQ0gyXVtDQEhdMVtDSDJdT1tDQEBIXShbQ0gzXSlDKD1PKVtOSF1jMltjSF1jKEMoRikoRilGKVtjSF1bbkhdYzI9Tw==

> <s_epik_cmdline>
J2VwaWtfcHl0aG9uJywgJy1waCcsICc3LjAnLCAnLXRuJywgJzgnLCAnLW1hJywgJzIwMCcsICctbWV0YWxfYmluZGluZycsICctaW1hZScsICc8aW5maWxlLm1hZT4nLCAnLW9tYWUnLCAnPG91dGZpbGUubWFlPic=

> <r_lp_tautomer_probability>
0.999

> <r_epik_Ionization_Penalty>
0.00891333

> <r_epik_Ionization_Penalty_Charging>
0.00891323

> <r_epik_Ionization_Penalty_Neutral>
1.00146e-07

> <r_epik_State_Penalty>
0.00674197

> <r_epik_Charging_Adjusted_Penalty>
0.0156552

> <i_epik_Tot_Q>
0

> <i_epik_Tot_abs_Q>
0

> <r_epik_Metal_State_Penalty>
0.321024

> <b_epik_Metal_Only>
0

> <s_lp_Force_Field>
OPLS_2005

> <r_lp_Energy>
24.886

> <b_lp_Chiralities_Consistent>
1

> <s_lp_Variant>
AV-unprocessed.smi:1550-4

> <Gold.Version>
5.8.1

> <Gold.Id.Protein>
6NUR|6NUR_protein|mol2

> <Gold.PLP.Fitness>
42.7248

> <Gold.PLP.PLP>
-44.3316

> <Gold.PLP.part.hbond>
-0.6087

> <Gold.PLP.part.metal>
0.0000

> <Gold.PLP.part.buried>
-5.3089

> <Gold.PLP.part.nonpolar>
-38.8362

> <Gold.PLP.part.repulsive>
0.1629

> <Gold.PLP.ligand.clash>
0.0000

> <Gold.PLP.ligand.torsion>
0.8431

> <Gold.PLP.Chemscore.Hbond>
0.0000

> <Gold.PLP.Chemscore.CHOScore>
0.0000

> <Gold.PLP.Chemscore.Metal>
0.0000

> <Gold.PLP.Chemscore.Internal.Correction>
0.0795

> <Gold.Rescore>
     Score         DG    S(hbond)    S(metal)    S(lipo)     H(rot)  DE(clash)    DE(int)     intcor
     11.81     -12.71       0.00        0.00     102.47       1.86       0.02       0.89       ----

> <Gold.Chemscore.Fitness>
11.8061

> <Gold.Chemscore.DG>
-12.7149

> <Gold.Chemscore.ZeroCoef>
-5.4800

> <Gold.Chemscore.Hbond>
0.0000

> <Gold.Chemscore.Metal>
0.0000

> <Gold.Chemscore.Lipo>
102.4701

> <Gold.Chemscore.Internal_Hbond>
0.0000

> <Gold.Chemscore.DEClash>
0.0185

> <Gold.Chemscore.DEInternal>
0.8904

> <Gold.Chemscore.Rot>
1.8571

> <Gold.Chemscore.Internal.Correction>
   9.000000E+99

> <Gold.Chemscore.Hbond.Weighted>
-0.0000

> <Gold.Chemscore.Metal.Weighted>
-0.0000

> <Gold.Chemscore.Lipo.Weighted>
-11.9890

> <Gold.Chemscore.Internal_Hbond.Weighted>
0.0000

> <Gold.Chemscore.DEClash.Weighted>
0.0185

> <Gold.Chemscore.DEInternal.Weighted>
0.8904

> <Gold.Chemscore.Rot.Weighted>
4.7541

> <Gold.Chemscore.Internal.Correction.Weighted>
   9.000000E+99

> <Gold.Protein.RotatedTorsions>
[ 6907 6896 6895 6894 ] final  137.28 input  -60.11 | X-H torsion
[ 7974 7965 7964 7962 ] final  -60.99 input  175.53 | X-H torsion
[ 8008 7997 7996 7995 ] final   39.65 input   59.86 | X-H torsion
[ 10167 10162 10161 10158 ] final  169.24 input  -65.29 | X-H torsion
[ 10718 10713 10712 10709 ] final  134.47 input   66.30 | X-H torsion
[ 10763 10752 10751 10750 ] final  -72.09 input  -60.55 | X-H torsion
[ 11005 11000 10999 10996 ] final  143.84 input  -57.11 | X-H torsion

> <Gold.Protein.ActiveResidues>
 VAL166  LYS551  ARG553  GLY616  TRP617  ASP618  TYR619  PRO620  LYS621  CYS622 
 ASP623  PHE694  ASN695  SER759  ASP760  ASP761  ALA762  ILE779  LEU786  VAL792 
 PHE793  MET794  SER795  GLU796  ALA797  LYS798  CYS799  TRP800  GLU811  SER814 

> <Gold.Protein.RotatedAtoms>
  152.2798  133.5460  159.5490 H   0  0  0  0  0  0  0  0  0  0  0  0  # atno 6907 bound_to 6896
  150.7191  134.0580  159.3830 H   0  0  0  0  0  0  0  0  0  0  0  0  # atno 6908 bound_to 6896
  151.8491  135.0564  160.0507 H   0  0  0  0  0  0  0  0  0  0  0  0  # atno 6909 bound_to 6896
  145.8089  140.8611  143.0192 H   0  0  0  0  0  0  0  0  0  0  0  0  # atno 7974 bound_to 7965
  155.2401  140.3345  155.4293 H   0  0  0  0  0  0  0  0  0  0  0  0  # atno 8008 bound_to 7997
  156.2259  140.1829  156.7409 H   0  0  0  0  0  0  0  0  0  0  0  0  # atno 8009 bound_to 7997
  154.5898  140.0640  156.9208 H   0  0  0  0  0  0  0  0  0  0  0  0  # atno 8010 bound_to 7997
  139.4987  144.3728  151.9707 H   0  0  0  0  0  0  0  0  0  0  0  0  # atno 10167 bound_to 10162
  157.4669  131.1077  150.9851 H   0  0  0  0  0  0  0  0  0  0  0  0  # atno 10718 bound_to 10713
  154.4408  135.5941  153.6128 H   0  0  0  0  0  0  0  0  0  0  0  0  # atno 10763 bound_to 10752
  152.9805  135.5997  154.3724 H   0  0  0  0  0  0  0  0  0  0  0  0  # atno 10764 bound_to 10752
  154.3574  135.2841  155.2317 H   0  0  0  0  0  0  0  0  0  0  0  0  # atno 10765 bound_to 10752
  140.0585  134.9217  157.1143 H   0  0  0  0  0  0  0  0  0  0  0  0  # atno 11005 bound_to 11000
  144.6760  140.0366  143.7481 LP  0  0  0  0  0  0  0  0  0  0  0  0  # atno 17320 bound_to 7965
  145.9799  139.2933  143.1048 LP  0  0  0  0  0  0  0  0  0  0  0  0  # atno 17321 bound_to 7965
  140.3164  144.3479  150.6020 LP  0  0  0  0  0  0  0  0  0  0  0  0  # atno 17342 bound_to 10162
  140.5758  143.2176  151.7518 LP  0  0  0  0  0  0  0  0  0  0  0  0  # atno 17343 bound_to 10162
  157.0629  130.5833  149.5389 LP  0  0  0  0  0  0  0  0  0  0  0  0  # atno 17370 bound_to 10713
  156.0055  130.5140  150.7813 LP  0  0  0  0  0  0  0  0  0  0  0  0  # atno 17371 bound_to 10713
  140.3807  134.2291  155.7171 LP  0  0  0  0  0  0  0  0  0  0  0  0  # atno 17394 bound_to 11000
  141.1963  133.8086  157.0679 LP  0  0  0  0  0  0  0  0  0  0  0  0  # atno 17395 bound_to 11000

$$$$
