AV-unprocessed.smi:1686|AV-procd|sdf|6761|dock6
  -GOLD-   22720 7523D 1   1.00000     0.00000
 Structure written by MMmdl.
 41 43  0  0  0  0  0  0  0  0  1 V2000
  149.3107  138.3284  157.6861 C   0  0  0  0  0  0  0  0  0  0  0  0
  150.5698  137.8124  158.3212 C   0  0  0  0  0  0  0  0  0  0  0  0
  150.5070  137.2684  159.5295 N   0  0  0  0  0  0  0  0  0  0  0  0
  151.8110  136.8769  159.8538 O   0  0  0  0  0  0  0  0  0  0  0  0
  152.5979  137.2150  158.8068 C   0  0  0  0  0  0  0  0  0  0  0  0
  154.2884  136.9034  158.7890 Cl  0  0  0  0  0  0  0  0  0  0  0  0
  151.8969  137.8128  157.7993 C   0  0  0  0  0  0  0  0  0  0  0  0
  152.3867  138.3358  156.4701 C   0  0  0  0  0  0  0  0  0  0  0  0
  151.7297  139.6734  156.1081 C   0  0  0  0  0  0  0  0  0  0  0  0
  151.3699  139.9183  154.9554 O   0  0  0  0  0  0  0  0  0  0  0  0
  151.5832  140.5394  157.1226 N   0  0  0  0  0  0  0  0  0  0  0  0
  151.0106  141.8812  157.0238 C   0  0  1  0  0  0  0  0  0  0  0  0
  149.5647  141.7704  156.5055 C   0  0  0  0  0  0  0  0  0  0  0  0
  151.1027  142.5840  158.4015 C   0  0  1  0  0  0  0  0  0  0  0  0
  152.4142  142.2793  159.1698 C   0  0  0  0  0  0  0  0  0  0  0  0
  152.9639  143.6761  159.5059 C   0  0  2  0  0  0  0  0  0  0  0  0
  152.0602  144.3483  160.5549 C   0  0  0  0  0  0  0  0  0  0  0  0
  150.7988  144.6927  159.7414 C   0  0  0  0  0  0  0  0  0  0  0  0
  151.1306  144.1331  158.3442 C   0  0  1  0  0  0  0  0  0  0  0  0
  152.6195  144.4493  158.2407 C   0  0  0  0  0  0  0  0  0  0  0  0
  149.4807  138.6365  156.6548 H   0  0  0  0  0  0  0  0  0  0  0  0
  148.9226  139.1897  158.2300 H   0  0  0  0  0  0  0  0  0  0  0  0
  148.5347  137.5628  157.6752 H   0  0  0  0  0  0  0  0  0  0  0  0
  153.4690  138.4700  156.4814 H   0  0  0  0  0  0  0  0  0  0  0  0
  152.1805  137.6265  155.6680 H   0  0  0  0  0  0  0  0  0  0  0  0
  151.9089  140.2540  158.0348 H   0  0  0  0  0  0  0  0  0  0  0  0
  151.5906  142.4608  156.3037 H   0  0  0  0  0  0  0  0  0  0  0  0
  149.1146  142.7488  156.3443 H   0  0  0  0  0  0  0  0  0  0  0  0
  148.9327  141.2247  157.2068 H   0  0  0  0  0  0  0  0  0  0  0  0
  149.5288  141.2448  155.5506 H   0  0  0  0  0  0  0  0  0  0  0  0
  150.2498  142.2591  158.9998 H   0  0  0  0  0  0  0  0  0  0  0  0
  152.2418  141.6743  160.0607 H   0  0  0  0  0  0  0  0  0  0  0  0
  153.1318  141.7463  158.5445 H   0  0  0  0  0  0  0  0  0  0  0  0
  154.0209  143.6766  159.7734 H   0  0  0  0  0  0  0  0  0  0  0  0
  151.8459  143.6893  161.3970 H   0  0  0  0  0  0  0  0  0  0  0  0
  152.5235  145.2545  160.9470 H   0  0  0  0  0  0  0  0  0  0  0  0
  149.8950  144.2544  160.1659 H   0  0  0  0  0  0  0  0  0  0  0  0
  150.6557  145.7732  159.7000 H   0  0  0  0  0  0  0  0  0  0  0  0
  150.5179  144.5746  157.5593 H   0  0  0  0  0  0  0  0  0  0  0  0
  152.8423  145.5155  158.3117 H   0  0  0  0  0  0  0  0  0  0  0  0
  153.0918  144.0459  157.3437 H   0  0  0  0  0  0  0  0  0  0  0  0
  1  2  1  0  0  0  0
  1 21  1  0  0  0  0
  1 22  1  0  0  0  0
  1 23  1  0  0  0  0
  2  7  1  0  0  0  0
  2  3  2  0  0  0  0
  3  4  1  0  0  0  0
  4  5  1  0  0  0  0
  5  6  1  0  0  0  0
  5  7  2  0  0  0  0
  7  8  1  0  0  0  0
  8  9  1  0  0  0  0
  8 24  1  0  0  0  0
  8 25  1  0  0  0  0
  9 10  2  0  0  0  0
  9 11  1  0  0  0  0
 11 12  1  0  0  0  0
 11 26  1  0  0  0  0
 12 13  1  0  0  0  0
 12 14  1  0  0  0  0
 12 27  1  0  0  0  0
 13 28  1  0  0  0  0
 13 29  1  0  0  0  0
 13 30  1  0  0  0  0
 14 19  1  0  0  0  0
 14 15  1  0  0  0  0
 14 31  1  0  0  0  0
 15 16  1  0  0  0  0
 15 32  1  0  0  0  0
 15 33  1  0  0  0  0
 16 20  1  0  0  0  0
 16 17  1  0  0  0  0
 16 34  1  0  0  0  0
 17 18  1  0  0  0  0
 17 35  1  0  0  0  0
 17 36  1  0  0  0  0
 18 19  1  0  0  0  0
 18 37  1  0  0  0  0
 18 38  1  0  0  0  0
 19 20  1  0  0  0  0
 19 39  1  0  0  0  0
 20 40  1  0  0  0  0
 20 41  1  0  0  0  0
M  END
> <s_m_source_file>
AV-unprocessed.smi

> <i_m_source_file_index>
1686

> <i_lp_mmshare_version>
43012

> <i_f3d_flags>
0

> <s_epik_input>
W0NIM11jMW5vYyhDbCljMVtDSDJdQyg9TylbTkhdW0NASF0oW0NIM10pW0NASF0oW0NIMl1bQ0BIXTIzKVtDQEhdKFtDSDJdMylbQ0gyXVtDSDJdMg==

> <s_epik_cmdline>
J2VwaWtfcHl0aG9uJywgJy1waCcsICc3LjAnLCAnLXRuJywgJzgnLCAnLW1hJywgJzIwMCcsICctbWV0YWxfYmluZGluZycsICctaW1hZScsICc8aW5maWxlLm1hZT4nLCAnLW9tYWUnLCAnPG91dGZpbGUubWFlPic=

> <r_lp_tautomer_probability>
1

> <r_epik_Ionization_Penalty>
2.01576e-08

> <r_epik_Ionization_Penalty_Charging>
0

> <r_epik_Ionization_Penalty_Neutral>
2.01576e-08

> <r_epik_State_Penalty>
-0

> <r_epik_Charging_Adjusted_Penalty>
0

> <i_epik_Tot_Q>
0

> <i_epik_Tot_abs_Q>
0

> <r_epik_Metal_State_Penalty>
-0

> <b_epik_Metal_Only>
0

> <s_lp_Force_Field>
OPLS_2005

> <r_lp_Energy>
46.9137

> <b_lp_Chiralities_Consistent>
1

> <s_lp_Variant>
AV-unprocessed.smi:1686-4

> <Gold.Version>
5.8.1

> <Gold.Id.Protein>
6NUR|6NUR_protein|mol2

> <Gold.PLP.Fitness>
44.2761

> <Gold.PLP.PLP>
-40.2767

> <Gold.PLP.part.hbond>
-2.4045

> <Gold.PLP.part.metal>
0.0000

> <Gold.PLP.part.buried>
-7.0635

> <Gold.PLP.part.nonpolar>
-31.5454

> <Gold.PLP.part.repulsive>
0.1524

> <Gold.PLP.ligand.clash>
0.0000

> <Gold.PLP.ligand.torsion>
1.0183

> <Gold.PLP.Chemscore.Hbond>
2.0000

> <Gold.PLP.Chemscore.CHOScore>
0.0000

> <Gold.PLP.Chemscore.Metal>
0.0000

> <Gold.Chemscore.Hbonds>
donor molecule, donor type, donor heavy atom, donor atom, acceptor molecule, acceptor atom, score
      P1  H  6896  6907       L1     4  0.77
      P1  H  7989  7998       L1    10  1.00

> <Gold.PLP.Chemscore.Internal.Correction>
0.0360

> <Gold.Rescore>
     Score         DG    S(hbond)    S(metal)    S(lipo)     H(rot)  DE(clash)    DE(int)     intcor
     19.95     -21.08       1.76        0.00     115.13       1.46       0.02       1.11       ----

> <Gold.Chemscore.Fitness>
19.9495

> <Gold.Chemscore.DG>
-21.0825

> <Gold.Chemscore.ZeroCoef>
-5.4800

> <Gold.Chemscore.Hbond>
1.7611

> <Gold.Chemscore.Metal>
0.0000

> <Gold.Chemscore.Lipo>
115.1330

> <Gold.Chemscore.Internal_Hbond>
0.0000

> <Gold.Chemscore.DEClash>
0.0234

> <Gold.Chemscore.DEInternal>
1.1096

> <Gold.Chemscore.Rot>
1.4648

> <Gold.Chemscore.Internal.Correction>
   9.000000E+99

> <Gold.Chemscore.Hbonds>
donor molecule, donor type, donor heavy atom, donor atom, acceptor molecule, acceptor atom, score
      P1  H  6896  6907       L1     4  0.32
      P1  H  7989  7998       L1    10  1.00

> <Gold.Chemscore.Hbond.Weighted>
-5.8819

> <Gold.Chemscore.Metal.Weighted>
-0.0000

> <Gold.Chemscore.Lipo.Weighted>
-13.4706

> <Gold.Chemscore.Internal_Hbond.Weighted>
0.0000

> <Gold.Chemscore.DEClash.Weighted>
0.0234

> <Gold.Chemscore.DEInternal.Weighted>
1.1096

> <Gold.Chemscore.Rot.Weighted>
3.7500

> <Gold.Chemscore.Internal.Correction.Weighted>
   9.000000E+99

> <Gold.Protein.RotatedTorsions>
[ 6907 6896 6895 6894 ] final   32.54 input  -60.11 | X-H torsion
[ 7974 7965 7964 7962 ] final  109.51 input  175.53 | X-H torsion
[ 8008 7997 7996 7995 ] final  137.81 input   59.86 | X-H torsion
[ 10167 10162 10161 10158 ] final   30.80 input  -65.29 | X-H torsion
[ 10718 10713 10712 10709 ] final  128.98 input   66.30 | X-H torsion
[ 10763 10752 10751 10750 ] final  -99.48 input  -60.55 | X-H torsion
[ 11005 11000 10999 10996 ] final -160.52 input  -57.11 | X-H torsion

> <Gold.Protein.ActiveResidues>
 VAL166  LYS551  ARG553  GLY616  TRP617  ASP618  TYR619  PRO620  LYS621  CYS622 
 ASP623  PHE694  ASN695  SER759  ASP760  ASP761  ALA762  ILE779  LEU786  VAL792 
 PHE793  MET794  SER795  GLU796  ALA797  LYS798  CYS799  TRP800  GLU811  SER814 

> <Gold.Protein.RotatedAtoms>
  152.0759  134.9503  160.0573 H   0  0  0  0  0  0  0  0  0  0  0  0  # atno 6907 bound_to 6896
  152.0810  133.4148  159.4509 H   0  0  0  0  0  0  0  0  0  0  0  0  # atno 6908 bound_to 6896
  150.6836  134.2901  159.4707 H   0  0  0  0  0  0  0  0  0  0  0  0  # atno 6909 bound_to 6896
  145.2668  139.2681  143.3987 H   0  0  0  0  0  0  0  0  0  0  0  0  # atno 7974 bound_to 7965
  156.3000  140.2409  156.3971 H   0  0  0  0  0  0  0  0  0  0  0  0  # atno 8008 bound_to 7997
  154.8561  140.0422  157.1655 H   0  0  0  0  0  0  0  0  0  0  0  0  # atno 8009 bound_to 7997
  154.8947  140.2968  155.5355 H   0  0  0  0  0  0  0  0  0  0  0  0  # atno 8010 bound_to 7997
  140.4645  144.0856  150.6221 H   0  0  0  0  0  0  0  0  0  0  0  0  # atno 10167 bound_to 10162
  157.5195  131.1098  150.9174 H   0  0  0  0  0  0  0  0  0  0  0  0  # atno 10718 bound_to 10713
  154.7501  135.4971  153.9274 H   0  0  0  0  0  0  0  0  0  0  0  0  # atno 10763 bound_to 10752
  153.1134  135.6715  153.9468 H   0  0  0  0  0  0  0  0  0  0  0  0  # atno 10764 bound_to 10752
  153.9221  135.3087  155.3426 H   0  0  0  0  0  0  0  0  0  0  0  0  # atno 10765 bound_to 10752
  140.6305  134.4656  157.5229 H   0  0  0  0  0  0  0  0  0  0  0  0  # atno 11005 bound_to 11000
  146.3258  140.3100  142.8626 LP  0  0  0  0  0  0  0  0  0  0  0  0  # atno 17320 bound_to 7965
  144.9370  140.8037  143.5654 LP  0  0  0  0  0  0  0  0  0  0  0  0  # atno 17321 bound_to 7965
  140.4052  143.2684  151.9899 LP  0  0  0  0  0  0  0  0  0  0  0  0  # atno 17342 bound_to 10162
  139.4810  144.5963  151.7685 LP  0  0  0  0  0  0  0  0  0  0  0  0  # atno 17343 bound_to 10162
  156.9789  130.5519  149.5295 LP  0  0  0  0  0  0  0  0  0  0  0  0  # atno 17370 bound_to 10713
  156.0344  130.5432  150.8615 LP  0  0  0  0  0  0  0  0  0  0  0  0  # atno 17371 bound_to 10713
  139.9118  134.8329  156.1503 LP  0  0  0  0  0  0  0  0  0  0  0  0  # atno 17394 bound_to 11000
  141.0678  133.6811  156.2080 LP  0  0  0  0  0  0  0  0  0  0  0  0  # atno 17395 bound_to 11000

$$$$
