AV-unprocessed.smi:1554|AV-procd|sdf|6251|dock9
  -GOLD-   22720 6433D 1   1.00000     0.00000
 Structure written by MMmdl.
 48 50  0  0  0  0  0  0  0  0  2 V2000
  153.5346  142.2382  162.0882 C   0  0  0  0  0  0  0  0  0  0  0  0
  152.9957  141.9009  160.7092 C   0  0  0  0  0  0  0  0  0  0  0  0
  153.3929  140.6930  160.0925 C   0  0  0  0  0  0  0  0  0  0  0  0
  152.9164  140.3436  158.8100 C   0  0  0  0  0  0  0  0  0  0  0  0
  153.1693  139.2288  158.0290 N   0  0  0  0  0  0  0  0  0  0  0  0
  152.4398  139.4877  156.9476 C   0  0  0  0  0  0  0  0  0  0  0  0
  151.7451  140.6418  156.9346 N   0  0  0  0  0  0  0  0  0  0  0  0
  150.8910  141.1448  155.8738 C   0  0  0  0  0  0  0  0  0  0  0  0
  149.4165  141.2424  156.3097 C   0  0  1  0  0  0  0  0  0  0  0  0
  149.2016  142.4846  156.9527 O   0  0  0  0  0  0  0  0  0  0  0  0
  148.4505  141.1255  155.1144 C   0  0  0  0  0  0  0  0  0  0  0  0
  147.3827  142.1581  155.1427 N   0  3  2  0  0  0  0  0  0  0  0  0
  146.1647  141.7378  155.8790 C   0  0  0  0  0  0  0  0  0  0  0  0
  145.1342  142.8783  155.9029 C   0  0  0  0  0  0  0  0  0  0  0  0
  144.8275  143.2735  154.5716 O   0  0  0  0  0  0  0  0  0  0  0  0
  145.9688  143.7630  153.8759 C   0  0  2  0  0  0  0  0  0  0  0  0
  145.5162  144.2414  152.4918 C   0  0  0  0  0  0  0  0  0  0  0  0
  147.0243  142.6432  153.7886 C   0  0  0  0  0  0  0  0  0  0  0  0
  152.0262  141.2442  158.1557 C   0  0  0  0  0  0  0  0  0  0  0  0
  151.6217  142.4480  158.7595 C   0  0  0  0  0  0  0  0  0  0  0  0
  152.1057  142.7807  160.0419 C   0  0  0  0  0  0  0  0  0  0  0  0
  151.6619  144.0822  160.6863 C   0  0  0  0  0  0  0  0  0  0  0  0
  154.1787  141.4450  162.4694 H   0  0  0  0  0  0  0  0  0  0  0  0
  152.7174  142.3733  162.7968 H   0  0  0  0  0  0  0  0  0  0  0  0
  154.1195  143.1578  162.0543 H   0  0  0  0  0  0  0  0  0  0  0  0
  154.0696  140.0222  160.6014 H   0  0  0  0  0  0  0  0  0  0  0  0
  152.4124  138.8007  156.1142 H   0  0  0  0  0  0  0  0  0  0  0  0
  151.2639  142.1183  155.5522 H   0  0  0  0  0  0  0  0  0  0  0  0
  150.9876  140.4748  155.0184 H   0  0  0  0  0  0  0  0  0  0  0  0
  149.2183  140.4500  157.0303 H   0  0  0  0  0  0  0  0  0  0  0  0
  148.8106  143.0830  156.3340 H   0  0  0  0  0  0  0  0  0  0  0  0
  149.0270  141.2163  154.1922 H   0  0  0  0  0  0  0  0  0  0  0  0
  147.9905  140.1365  155.0884 H   0  0  0  0  0  0  0  0  0  0  0  0
  145.7327  140.8569  155.4012 H   0  0  0  0  0  0  0  0  0  0  0  0
  146.4091  141.4566  156.9026 H   0  0  0  0  0  0  0  0  0  0  0  0
  144.2183  142.5450  156.3911 H   0  0  0  0  0  0  0  0  0  0  0  0
  145.5078  143.7304  156.4733 H   0  0  0  0  0  0  0  0  0  0  0  0
  146.3816  144.6153  154.4192 H   0  0  0  0  0  0  0  0  0  0  0  0
  146.3557  144.6335  151.9173 H   0  0  0  0  0  0  0  0  0  0  0  0
  144.7738  145.0352  152.5777 H   0  0  0  0  0  0  0  0  0  0  0  0
  145.0685  143.4289  151.9188 H   0  0  0  0  0  0  0  0  0  0  0  0
  147.9159  143.0201  153.2856 H   0  0  0  0  0  0  0  0  0  0  0  0
  146.6464  141.8108  153.1922 H   0  0  0  0  0  0  0  0  0  0  0  0
  150.9444  143.1092  158.2396 H   0  0  0  0  0  0  0  0  0  0  0  0
  150.9566  144.6200  160.0521 H   0  0  0  0  0  0  0  0  0  0  0  0
  152.5186  144.7328  160.8622 H   0  0  0  0  0  0  0  0  0  0  0  0
  151.1711  143.8893  161.6405 H   0  0  0  0  0  0  0  0  0  0  0  0
  147.7682  142.9523  155.6347 H   0  0  0  0  0  0  0  0  0  0  0  0
  1  2  1  0  0  0  0
  1 23  1  0  0  0  0
  1 24  1  0  0  0  0
  1 25  1  0  0  0  0
  2 21  1  0  0  0  0
  2  3  2  0  0  0  0
  3  4  1  0  0  0  0
  3 26  1  0  0  0  0
  4 19  2  0  0  0  0
  4  5  1  0  0  0  0
  5  6  2  0  0  0  0
  6  7  1  0  0  0  0
  6 27  1  0  0  0  0
  7  8  1  0  0  0  0
  7 19  1  0  0  0  0
  8  9  1  0  0  0  0
  8 28  1  0  0  0  0
  8 29  1  0  0  0  0
  9 10  1  0  0  0  0
  9 11  1  0  0  0  0
  9 30  1  0  0  0  0
 10 31  1  0  0  0  0
 11 12  1  0  0  0  0
 11 32  1  0  0  0  0
 11 33  1  0  0  0  0
 12 18  1  0  0  0  0
 12 13  1  0  0  0  0
 12 48  1  0  0  0  0
 13 14  1  0  0  0  0
 13 34  1  0  0  0  0
 13 35  1  0  0  0  0
 14 15  1  0  0  0  0
 14 36  1  0  0  0  0
 14 37  1  0  0  0  0
 15 16  1  0  0  0  0
 16 17  1  0  0  0  0
 16 18  1  0  0  0  0
 16 38  1  0  0  0  0
 17 39  1  0  0  0  0
 17 40  1  0  0  0  0
 17 41  1  0  0  0  0
 18 42  1  0  0  0  0
 18 43  1  0  0  0  0
 19 20  1  0  0  0  0
 20 21  2  0  0  0  0
 20 44  1  0  0  0  0
 21 22  1  0  0  0  0
 22 45  1  0  0  0  0
 22 46  1  0  0  0  0
 22 47  1  0  0  0  0
M  CHG  1  12   1
M  END
> <s_m_source_file>
AV-unprocessed.smi

> <i_m_source_file_index>
1554

> <i_lp_mmshare_version>
43012

> <i_f3d_flags>
0

> <s_epik_input>
W0NIM11jKFtjSF0xKWMoW0NIM10pW2NIXWMoYzEyKW4oW2NIXW4yKVtDSDJdW0NASF0oW09IXSlbQ0gyXU4zW0NIMl1bQ0gyXU9bQ0BASF0oW0NIM10pW0NIMl0z

> <s_epik_cmdline>
J2VwaWtfcHl0aG9uJywgJy1waCcsICc3LjAnLCAnLXRuJywgJzgnLCAnLW1hJywgJzIwMCcsICctbWV0YWxfYmluZGluZycsICctaW1hZScsICc8aW5maWxlLm1hZT4nLCAnLW9tYWUnLCAnPG91dGZpbGUubWFlPic=

> <r_epik_Ionization_Penalty>
0.695251

> <r_epik_Ionization_Penalty_Charging>
0.608065

> <r_epik_Ionization_Penalty_Neutral>
0.0871863

> <r_epik_State_Penalty>
0.731955

> <r_epik_Charging_Adjusted_Penalty>
1.34002

> <i_epik_Tot_Q>
1

> <i_epik_Tot_abs_Q>
1

> <r_epik_Metal_State_Penalty>
0.652186

> <b_epik_Metal_Only>
0

> <s_lp_Force_Field>
OPLS_2005

> <r_lp_Energy>
20.6032

> <b_lp_Chiralities_Consistent>
1

> <s_lp_Variant>
AV-unprocessed.smi:1554-12

> <Gold.Version>
5.8.1

> <Gold.Id.Protein>
6NUR|6NUR_protein|mol2

> <Gold.PLP.Fitness>
52.4423

> <Gold.PLP.PLP>
-45.0729

> <Gold.PLP.part.hbond>
-2.6898

> <Gold.PLP.part.metal>
0.0000

> <Gold.PLP.part.buried>
-3.7527

> <Gold.PLP.part.nonpolar>
-36.1981

> <Gold.PLP.part.repulsive>
0.2718

> <Gold.PLP.ligand.clash>
0.0000

> <Gold.PLP.ligand.torsion>
1.4186

> <Gold.PLP.Chemscore.Hbond>
3.3920

> <Gold.PLP.Chemscore.CHOScore>
0.0000

> <Gold.PLP.Chemscore.Metal>
0.0000

> <Gold.Chemscore.Hbonds>
donor molecule, donor type, donor heavy atom, donor atom, acceptor molecule, acceptor atom, score
      L1  H    10    31       P1  8028  0.90
      L1  H    12    48       P1  8028  1.82
      P1  H  7997  8010       L1     5  0.30

> <Gold.PLP.Chemscore.Internal.Correction>
0.0307

> <Gold.Rescore>
     Score         DG    S(hbond)    S(metal)    S(lipo)     H(rot)  DE(clash)    DE(int)     intcor
     16.17     -18.82       1.23        0.00     123.88       2.05       0.64       2.01       ----

> <Gold.Chemscore.Fitness>
16.1708

> <Gold.Chemscore.DG>
-18.8224

> <Gold.Chemscore.ZeroCoef>
-5.4800

> <Gold.Chemscore.Hbond>
1.2299

> <Gold.Chemscore.Metal>
0.0000

> <Gold.Chemscore.Lipo>
123.8823

> <Gold.Chemscore.Internal_Hbond>
0.0000

> <Gold.Chemscore.DEClash>
0.6395

> <Gold.Chemscore.DEInternal>
2.0121

> <Gold.Chemscore.Rot>
2.0546

> <Gold.Chemscore.Internal.Correction>
   9.000000E+99

> <Gold.Chemscore.Hbonds>
donor molecule, donor type, donor heavy atom, donor atom, acceptor molecule, acceptor atom, score
      L1  H    10    31       P1  8028  0.87
      L1  H    12    48       P1  8028  0.47

> <Gold.Chemscore.Hbond.Weighted>
-4.1079

> <Gold.Chemscore.Metal.Weighted>
-0.0000

> <Gold.Chemscore.Lipo.Weighted>
-14.4942

> <Gold.Chemscore.Internal_Hbond.Weighted>
0.0000

> <Gold.Chemscore.DEClash.Weighted>
0.6395

> <Gold.Chemscore.DEInternal.Weighted>
2.0121

> <Gold.Chemscore.Rot.Weighted>
5.2597

> <Gold.Chemscore.Internal.Correction.Weighted>
   9.000000E+99

> <Gold.Protein.RotatedTorsions>
[ 6907 6896 6895 6894 ] final  102.14 input  -60.11 | X-H torsion
[ 7974 7965 7964 7962 ] final  106.63 input  175.53 | X-H torsion
[ 8008 7997 7996 7995 ] final   25.68 input   59.86 | X-H torsion
[ 10167 10162 10161 10158 ] final   67.47 input  -65.29 | X-H torsion
[ 10718 10713 10712 10709 ] final   99.04 input   66.30 | X-H torsion
[ 10763 10752 10751 10750 ] final  172.84 input  -60.55 | X-H torsion
[ 11005 11000 10999 10996 ] final  -33.88 input  -57.11 | X-H torsion

> <Gold.Protein.ActiveResidues>
 VAL166  LYS551  ARG553  GLY616  TRP617  ASP618  TYR619  PRO620  LYS621  CYS622 
 ASP623  PHE694  ASN695  SER759  ASP760  ASP761  ALA762  ILE779  LEU786  VAL792 
 PHE793  MET794  SER795  GLU796  ALA797  LYS798  CYS799  TRP800  GLU811  SER814 

> <Gold.Protein.RotatedAtoms>
  152.5331  134.0020  159.7898 H   0  0  0  0  0  0  0  0  0  0  0  0  # atno 6907 bound_to 6896
  151.0237  133.5845  159.2675 H   0  0  0  0  0  0  0  0  0  0  0  0  # atno 6908 bound_to 6896
  151.2875  135.0739  159.9245 H   0  0  0  0  0  0  0  0  0  0  0  0  # atno 6909 bound_to 6896
  145.3041  139.2560  143.3798 H   0  0  0  0  0  0  0  0  0  0  0  0  # atno 7974 bound_to 7965
  155.0155  140.3141  155.4813 H   0  0  0  0  0  0  0  0  0  0  0  0  # atno 8008 bound_to 7997
  156.2901  140.2207  156.5212 H   0  0  0  0  0  0  0  0  0  0  0  0  # atno 8009 bound_to 7997
  154.7498  140.0467  157.0871 H   0  0  0  0  0  0  0  0  0  0  0  0  # atno 8010 bound_to 7997
  140.0892  144.5003  150.7110 H   0  0  0  0  0  0  0  0  0  0  0  0  # atno 10167 bound_to 10162
  157.6884  131.0658  150.4887 H   0  0  0  0  0  0  0  0  0  0  0  0  # atno 10718 bound_to 10713
  154.4317  135.2760  155.1908 H   0  0  0  0  0  0  0  0  0  0  0  0  # atno 10763 bound_to 10752
  154.3811  135.6087  153.5795 H   0  0  0  0  0  0  0  0  0  0  0  0  # atno 10764 bound_to 10752
  152.9836  135.5880  154.4630 H   0  0  0  0  0  0  0  0  0  0  0  0  # atno 10765 bound_to 10752
  140.9671  133.7131  156.1463 H   0  0  0  0  0  0  0  0  0  0  0  0  # atno 11005 bound_to 11000
  146.3141  140.3562  142.8660 LP  0  0  0  0  0  0  0  0  0  0  0  0  # atno 17320 bound_to 7965
  144.9069  140.7711  143.5832 LP  0  0  0  0  0  0  0  0  0  0  0  0  # atno 17321 bound_to 7965
  140.7037  143.2453  151.4788 LP  0  0  0  0  0  0  0  0  0  0  0  0  # atno 17342 bound_to 10162
  139.5735  144.1874  152.1870 LP  0  0  0  0  0  0  0  0  0  0  0  0  # atno 17343 bound_to 10162
  156.5215  130.4163  149.6248 LP  0  0  0  0  0  0  0  0  0  0  0  0  # atno 17370 bound_to 10713
  156.3150  130.7249  151.2150 LP  0  0  0  0  0  0  0  0  0  0  0  0  # atno 17371 bound_to 10713
  140.7383  134.4178  157.5558 LP  0  0  0  0  0  0  0  0  0  0  0  0  # atno 17394 bound_to 11000
  139.8898  134.8820  156.2400 LP  0  0  0  0  0  0  0  0  0  0  0  0  # atno 17395 bound_to 11000

$$$$
