AV-unprocessed.smi:2572|AV-procd|sdf|10110|dock10
  -GOLD-   2272014133D 1   1.00000     0.00000
 Structure written by MMmdl.
 38 39  0  0  0  0  0  0  0  0  1 V2000
  149.4384  135.0608  157.0103 C   0  0  0  0  0  0  0  0  0  0  0  0
  150.7430  135.3951  157.4798 O   0  0  0  0  0  0  0  0  0  0  0  0
  151.4254  136.3780  156.7842 C   0  0  0  0  0  0  0  0  0  0  0  0
  152.8157  136.6133  157.1114 C   0  0  0  0  0  0  0  0  0  0  0  0
  153.4947  137.5674  156.4386 C   0  0  0  0  0  0  0  0  0  0  0  0
  152.8643  138.3663  155.3882 C   0  0  0  0  0  0  0  0  0  0  0  0
  153.4618  139.2362  154.7549 O   0  0  0  0  0  0  0  0  0  0  0  0
  151.5509  138.0568  155.1738 N   0  0  0  0  0  0  0  0  0  0  0  0
  150.7626  138.7506  154.1484 C   0  0  0  0  0  0  0  0  0  0  0  0
  150.0999  140.0325  154.6982 C   0  0  2  0  0  0  0  0  0  0  0  0
  149.7882  140.8859  153.6139 O   0  0  0  0  0  0  0  0  0  0  0  0
  151.0407  140.7980  155.6474 C   0  0  0  0  0  0  0  0  0  0  0  0
  150.3237  141.8635  156.4936 C   0  0  0  0  0  0  0  0  0  0  0  0
  151.2339  142.4579  157.5514 C   0  0  0  0  0  0  0  0  0  0  0  0
  151.5093  143.8417  157.5534 C   0  0  0  0  0  0  0  0  0  0  0  0
  152.3479  144.3945  158.5412 C   0  0  0  0  0  0  0  0  0  0  0  0
  152.9127  143.5661  159.5303 C   0  0  0  0  0  0  0  0  0  0  0  0
  152.6402  142.1844  159.5308 C   0  0  0  0  0  0  0  0  0  0  0  0
  151.8024  141.6308  158.5429 C   0  0  0  0  0  0  0  0  0  0  0  0
  150.8485  137.0799  155.8601 N   0  0  0  0  0  0  0  0  0  0  0  0
  149.0227  134.2778  157.6443 H   0  0  0  0  0  0  0  0  0  0  0  0
  149.4602  134.6754  155.9894 H   0  0  0  0  0  0  0  0  0  0  0  0
  148.7584  135.9133  157.0576 H   0  0  0  0  0  0  0  0  0  0  0  0
  153.2924  136.0286  157.8842 H   0  0  0  0  0  0  0  0  0  0  0  0
  154.5319  137.7464  156.6808 H   0  0  0  0  0  0  0  0  0  0  0  0
  151.4439  139.0175  153.3384 H   0  0  0  0  0  0  0  0  0  0  0  0
  150.0234  138.0966  153.6817 H   0  0  0  0  0  0  0  0  0  0  0  0
  149.1819  139.7829  155.2320 H   0  0  0  0  0  0  0  0  0  0  0  0
  149.6946  140.3613  152.8334 H   0  0  0  0  0  0  0  0  0  0  0  0
  151.5132  140.0858  156.3254 H   0  0  0  0  0  0  0  0  0  0  0  0
  151.8506  141.2573  155.0786 H   0  0  0  0  0  0  0  0  0  0  0  0
  149.9499  142.6668  155.8578 H   0  0  0  0  0  0  0  0  0  0  0  0
  149.4505  141.4279  156.9808 H   0  0  0  0  0  0  0  0  0  0  0  0
  151.0761  144.4828  156.7997 H   0  0  0  0  0  0  0  0  0  0  0  0
  152.5559  145.4544  158.5409 H   0  0  0  0  0  0  0  0  0  0  0  0
  153.5542  143.9904  160.2888 H   0  0  0  0  0  0  0  0  0  0  0  0
  153.0727  141.5488  160.2893 H   0  0  0  0  0  0  0  0  0  0  0  0
  151.5954  140.5704  158.5499 H   0  0  0  0  0  0  0  0  0  0  0  0
  1  2  1  0  0  0  0
  1 21  1  0  0  0  0
  1 22  1  0  0  0  0
  1 23  1  0  0  0  0
  2  3  1  0  0  0  0
  3 20  2  0  0  0  0
  3  4  1  0  0  0  0
  4  5  2  0  0  0  0
  4 24  1  0  0  0  0
  5  6  1  0  0  0  0
  5 25  1  0  0  0  0
  6  7  2  0  0  0  0
  6  8  1  0  0  0  0
  8  9  1  0  0  0  0
  8 20  1  0  0  0  0
  9 10  1  0  0  0  0
  9 26  1  0  0  0  0
  9 27  1  0  0  0  0
 10 11  1  0  0  0  0
 10 12  1  0  0  0  0
 10 28  1  0  0  0  0
 11 29  1  0  0  0  0
 12 13  1  0  0  0  0
 12 30  1  0  0  0  0
 12 31  1  0  0  0  0
 13 14  1  0  0  0  0
 13 32  1  0  0  0  0
 13 33  1  0  0  0  0
 14 19  1  0  0  0  0
 14 15  2  0  0  0  0
 15 16  1  0  0  0  0
 15 34  1  0  0  0  0
 16 17  2  0  0  0  0
 16 35  1  0  0  0  0
 17 18  1  0  0  0  0
 17 36  1  0  0  0  0
 18 19  2  0  0  0  0
 18 37  1  0  0  0  0
 19 38  1  0  0  0  0
M  END
> <s_m_source_file>
AV-unprocessed.smi

> <i_m_source_file_index>
2572

> <i_lp_mmshare_version>
43012

> <i_f3d_flags>
0

> <s_epik_input>
W0NIM11PYzFbY0hdW2NIXWMoPU8pbihuMSlbQ0gyXVtDQEhdKFtPSF0pW0NIMl1bQ0gyXWMyW2NIXVtjSF1bY0hdW2NIXVtjSF0y

> <s_epik_cmdline>
J2VwaWtfcHl0aG9uJywgJy1waCcsICc3LjAnLCAnLXRuJywgJzgnLCAnLW1hJywgJzIwMCcsICctbWV0YWxfYmluZGluZycsICctaW1hZScsICc8aW5maWxlLm1hZT4nLCAnLW9tYWUnLCAnPG91dGZpbGUubWFlPic=

> <r_lp_tautomer_probability>
1

> <r_epik_Ionization_Penalty>
8.48543e-06

> <r_epik_Ionization_Penalty_Charging>
6.90219e-06

> <r_epik_Ionization_Penalty_Neutral>
1.58323e-06

> <r_epik_State_Penalty>
-0

> <r_epik_Charging_Adjusted_Penalty>
6.90219e-06

> <i_epik_Tot_Q>
0

> <i_epik_Tot_abs_Q>
0

> <r_epik_Metal_State_Penalty>
-0

> <b_epik_Metal_Only>
0

> <s_lp_Force_Field>
OPLS_2005

> <r_lp_Energy>
29.9707

> <b_lp_Chiralities_Consistent>
1

> <s_lp_Variant>
AV-unprocessed.smi:2572-1

> <Gold.Version>
5.8.1

> <Gold.Id.Protein>
6NUR|6NUR_protein|mol2

> <Gold.PLP.Fitness>
51.3045

> <Gold.PLP.PLP>
-43.2936

> <Gold.PLP.part.hbond>
-4.8059

> <Gold.PLP.part.metal>
0.0000

> <Gold.PLP.part.buried>
-1.7474

> <Gold.PLP.part.nonpolar>
-35.6986

> <Gold.PLP.part.repulsive>
0.0271

> <Gold.PLP.ligand.clash>
0.0000

> <Gold.PLP.ligand.torsion>
0.7652

> <Gold.PLP.Chemscore.Hbond>
3.1652

> <Gold.PLP.Chemscore.CHOScore>
0.0000

> <Gold.PLP.Chemscore.Metal>
0.0000

> <Gold.Chemscore.Hbonds>
donor molecule, donor type, donor heavy atom, donor atom, acceptor molecule, acceptor atom, score
      L1  H    11    29       P1  7957  1.00
      P1  H  6896  6909       L1     2  0.23
      P1  H  7989  7998       L1    11  0.02
      P1  H  7997  8009       L1     7  1.00
      P1  H  8011  8017       L1    11  0.20

> <Gold.PLP.Chemscore.Internal.Correction>
0.0456

> <Gold.Rescore>
     Score         DG    S(hbond)    S(metal)    S(lipo)     H(rot)  DE(clash)    DE(int)     intcor
     20.14     -21.00       2.74        0.00     109.42       2.52       0.03       0.83       ----

> <Gold.Chemscore.Fitness>
20.1356

> <Gold.Chemscore.DG>
-20.9952

> <Gold.Chemscore.ZeroCoef>
-5.4800

> <Gold.Chemscore.Hbond>
2.7446

> <Gold.Chemscore.Metal>
0.0000

> <Gold.Chemscore.Lipo>
109.4224

> <Gold.Chemscore.Internal_Hbond>
0.0000

> <Gold.Chemscore.DEClash>
0.0318

> <Gold.Chemscore.DEInternal>
0.8277

> <Gold.Chemscore.Rot>
2.5212

> <Gold.Chemscore.Internal.Correction>
   9.000000E+99

> <Gold.Chemscore.Hbonds>
donor molecule, donor type, donor heavy atom, donor atom, acceptor molecule, acceptor atom, score
      L1  H    11    29       P1  7957  0.98
      P1  H  6896  6909       L1     2  0.09
      P1  H  7997  8009       L1     7  0.59

> <Gold.Chemscore.Hbond.Weighted>
-9.1670

> <Gold.Chemscore.Metal.Weighted>
-0.0000

> <Gold.Chemscore.Lipo.Weighted>
-12.8024

> <Gold.Chemscore.Internal_Hbond.Weighted>
0.0000

> <Gold.Chemscore.DEClash.Weighted>
0.0318

> <Gold.Chemscore.DEInternal.Weighted>
0.8277

> <Gold.Chemscore.Rot.Weighted>
6.4543

> <Gold.Chemscore.Internal.Correction.Weighted>
   9.000000E+99

> <Gold.Protein.RotatedTorsions>
[ 6907 6896 6895 6894 ] final   54.14 input  -60.11 | X-H torsion
[ 7974 7965 7964 7962 ] final  -72.55 input  175.53 | X-H torsion
[ 8008 7997 7996 7995 ] final -140.94 input   59.86 | X-H torsion
[ 10167 10162 10161 10158 ] final  -43.50 input  -65.29 | X-H torsion
[ 10718 10713 10712 10709 ] final   19.22 input   66.30 | X-H torsion
[ 10763 10752 10751 10750 ] final  -43.74 input  -60.55 | X-H torsion
[ 11005 11000 10999 10996 ] final  -32.78 input  -57.11 | X-H torsion

> <Gold.Protein.ActiveResidues>
 VAL166  LYS551  ARG553  GLY616  TRP617  ASP618  TYR619  PRO620  LYS621  CYS622 
 ASP623  PHE694  ASN695  SER759  ASP760  ASP761  ALA762  ILE779  LEU786  VAL792 
 PHE793  MET794  SER795  GLU796  ALA797  LYS798  CYS799  TRP800  GLU811  SER814 

> <Gold.Protein.RotatedAtoms>
  152.3408  134.7136  160.0263 H   0  0  0  0  0  0  0  0  0  0  0  0  # atno 6907 bound_to 6896
  151.7522  133.3322  159.3402 H   0  0  0  0  0  0  0  0  0  0  0  0  # atno 6908 bound_to 6896
  150.7479  134.6114  159.6133 H   0  0  0  0  0  0  0  0  0  0  0  0  # atno 6909 bound_to 6896
  145.6637  140.9244  143.0920 H   0  0  0  0  0  0  0  0  0  0  0  0  # atno 7974 bound_to 7965
  155.4695  140.0552  157.2981 H   0  0  0  0  0  0  0  0  0  0  0  0  # atno 8008 bound_to 7997
  154.4704  140.2037  155.9963 H   0  0  0  0  0  0  0  0  0  0  0  0  # atno 8009 bound_to 7997
  156.1046  140.3214  155.7993 H   0  0  0  0  0  0  0  0  0  0  0  0  # atno 8010 bound_to 7997
  140.6932  143.2980  151.3361 H   0  0  0  0  0  0  0  0  0  0  0  0  # atno 10167 bound_to 10162
  157.1074  130.6494  149.5888 H   0  0  0  0  0  0  0  0  0  0  0  0  # atno 10718 bound_to 10713
  154.0006  135.6694  153.4759 H   0  0  0  0  0  0  0  0  0  0  0  0  # atno 10763 bound_to 10752
  153.0664  135.4998  154.8205 H   0  0  0  0  0  0  0  0  0  0  0  0  # atno 10764 bound_to 10752
  154.7055  135.3087  154.9240 H   0  0  0  0  0  0  0  0  0  0  0  0  # atno 10765 bound_to 10752
  140.9581  133.7181  156.1325 H   0  0  0  0  0  0  0  0  0  0  0  0  # atno 11005 bound_to 11000
  144.7080  139.8482  143.7424 LP  0  0  0  0  0  0  0  0  0  0  0  0  # atno 17320 bound_to 7965
  146.1103  139.4108  143.0291 LP  0  0  0  0  0  0  0  0  0  0  0  0  # atno 17321 bound_to 7965
  139.6356  144.0636  152.2513 LP  0  0  0  0  0  0  0  0  0  0  0  0  # atno 17342 bound_to 10162
  140.0125  144.6213  150.7635 LP  0  0  0  0  0  0  0  0  0  0  0  0  # atno 17343 bound_to 10162
  155.9858  130.4890  150.7052 LP  0  0  0  0  0  0  0  0  0  0  0  0  # atno 17370 bound_to 10713
  157.4588  131.0881  151.0767 LP  0  0  0  0  0  0  0  0  0  0  0  0  # atno 17371 bound_to 10713
  140.7507  134.4048  157.5541 LP  0  0  0  0  0  0  0  0  0  0  0  0  # atno 17394 bound_to 11000
  139.8869  134.8898  156.2560 LP  0  0  0  0  0  0  0  0  0  0  0  0  # atno 17395 bound_to 11000

$$$$
