AV-unprocessed.smi:3181|AV-procd|sdf|12143|dock1
  -GOLD-   2272017583D 1   1.00000     0.00000
 Structure written by MMmdl.
 42 43  0  0  0  0  0  0  0  0  2 V2000
  151.4524  140.2496  156.0635 C   0  0  0  0  0  0  0  0  0  0  0  0
  150.3220  141.2881  155.9712 C   0  0  2  0  0  0  0  0  0  0  0  0
  149.7629  141.4203  154.5357 C   0  0  0  0  0  0  0  0  0  0  0  0
  148.3179  141.2998  154.4793 N   0  0  0  0  0  0  0  0  0  0  0  0
  147.3602  142.0278  155.0565 C   0  0  0  0  0  0  0  0  0  0  0  0
  146.1327  141.6114  154.7799 N   0  0  0  0  0  0  0  0  0  0  0  0
  146.4276  140.5441  153.9794 C   0  0  0  0  0  0  0  0  0  0  0  0
  147.7236  140.3123  153.7695 N   0  0  0  0  0  0  0  0  0  0  0  0
  150.8180  142.5932  156.4669 N   0  3  0  0  0  0  0  0  0  0  0  0
  150.9231  142.7422  157.9372 C   0  0  2  0  0  0  0  0  0  0  0  0
  151.0525  144.2301  158.2971 C   0  0  0  0  0  0  0  0  0  0  0  0
  151.1850  144.4243  159.8136 C   0  0  0  0  0  0  0  0  0  0  0  0
  152.3840  143.6467  160.3928 C   0  0  1  0  0  0  0  0  0  0  0  0
  152.4776  143.8866  161.9101 C   0  0  0  0  0  0  0  0  0  0  0  0
  152.2897  142.1431  160.0212 C   0  0  2  0  0  0  0  0  0  0  0  0
  153.4963  141.3269  160.5184 C   0  0  0  0  0  0  0  0  0  0  0  0
  152.1314  141.9645  158.4963 C   0  0  0  0  0  0  0  0  0  0  0  0
  151.1054  139.2524  155.7914 H   0  0  0  0  0  0  0  0  0  0  0  0
  151.8441  140.1863  157.0793 H   0  0  0  0  0  0  0  0  0  0  0  0
  152.2819  140.5050  155.4028 H   0  0  0  0  0  0  0  0  0  0  0  0
  149.5228  140.9473  156.6292 H   0  0  0  0  0  0  0  0  0  0  0  0
  150.0313  142.3805  154.0953 H   0  0  0  0  0  0  0  0  0  0  0  0
  150.1953  140.6529  153.8920 H   0  0  0  0  0  0  0  0  0  0  0  0
  147.5636  142.8806  155.6877 H   0  0  0  0  0  0  0  0  0  0  0  0
  145.6647  139.9194  153.5387 H   0  0  0  0  0  0  0  0  0  0  0  0
  151.7375  142.7540  156.0808 H   0  0  0  0  0  0  0  0  0  0  0  0
  150.0119  142.3638  158.4007 H   0  0  0  0  0  0  0  0  0  0  0  0
  151.9215  144.6624  157.7984 H   0  0  0  0  0  0  0  0  0  0  0  0
  150.1825  144.7794  157.9346 H   0  0  0  0  0  0  0  0  0  0  0  0
  151.2899  145.4875  160.0326 H   0  0  0  0  0  0  0  0  0  0  0  0
  150.2647  144.1006  160.3021 H   0  0  0  0  0  0  0  0  0  0  0  0
  153.2907  144.0517  159.9406 H   0  0  0  0  0  0  0  0  0  0  0  0
  151.6317  143.4424  162.4355 H   0  0  0  0  0  0  0  0  0  0  0  0
  152.4847  144.9531  162.1368 H   0  0  0  0  0  0  0  0  0  0  0  0
  153.3917  143.4696  162.3318 H   0  0  0  0  0  0  0  0  0  0  0  0
  151.3979  141.7312  160.4964 H   0  0  0  0  0  0  0  0  0  0  0  0
  154.4340  141.7334  160.1383 H   0  0  0  0  0  0  0  0  0  0  0  0
  153.4286  140.2892  160.1907 H   0  0  0  0  0  0  0  0  0  0  0  0
  153.5539  141.3098  161.6064 H   0  0  0  0  0  0  0  0  0  0  0  0
  152.0308  140.9023  158.2732 H   0  0  0  0  0  0  0  0  0  0  0  0
  153.0425  142.2957  157.9952 H   0  0  0  0  0  0  0  0  0  0  0  0
  150.1983  143.3089  156.1149 H   0  0  0  0  0  0  0  0  0  0  0  0
  1  2  1  0  0  0  0
  1 18  1  0  0  0  0
  1 19  1  0  0  0  0
  1 20  1  0  0  0  0
  2  3  1  0  0  0  0
  2  9  1  0  0  0  0
  2 21  1  0  0  0  0
  3  4  1  0  0  0  0
  3 22  1  0  0  0  0
  3 23  1  0  0  0  0
  4  8  1  0  0  0  0
  4  5  1  0  0  0  0
  5  6  2  0  0  0  0
  5 24  1  0  0  0  0
  6  7  1  0  0  0  0
  7  8  2  0  0  0  0
  7 25  1  0  0  0  0
  9 10  1  0  0  0  0
  9 26  1  0  0  0  0
  9 42  1  0  0  0  0
 10 17  1  0  0  0  0
 10 11  1  0  0  0  0
 10 27  1  0  0  0  0
 11 12  1  0  0  0  0
 11 28  1  0  0  0  0
 11 29  1  0  0  0  0
 12 13  1  0  0  0  0
 12 30  1  0  0  0  0
 12 31  1  0  0  0  0
 13 14  1  0  0  0  0
 13 15  1  0  0  0  0
 13 32  1  0  0  0  0
 14 33  1  0  0  0  0
 14 34  1  0  0  0  0
 14 35  1  0  0  0  0
 15 16  1  0  0  0  0
 15 17  1  0  0  0  0
 15 36  1  0  0  0  0
 16 37  1  0  0  0  0
 16 38  1  0  0  0  0
 16 39  1  0  0  0  0
 17 40  1  0  0  0  0
 17 41  1  0  0  0  0
M  CHG  1   9   1
M  END
> <s_m_source_file>
AV-unprocessed.smi

> <i_m_source_file_index>
3181

> <i_lp_mmshare_version>
43012

> <i_f3d_flags>
0

> <s_epik_input>
bjFbY0hdbltjSF1uMVtDSDJdW0NAQEhdKFtDSDNdKVtOSF1bQ0BASF0yW0NIMl1bQ0gyXVtDQEBIXShbQ0gzXSlbQ0BASF0oW0NIM10pW0NIMl0y

> <s_epik_cmdline>
J2VwaWtfcHl0aG9uJywgJy1waCcsICc3LjAnLCAnLXRuJywgJzgnLCAnLW1hJywgJzIwMCcsICctbWV0YWxfYmluZGluZycsICctaW1hZScsICc8aW5maWxlLm1hZT4nLCAnLW9tYWUnLCAnPG91dGZpbGUubWFlPic=

> <r_lp_tautomer_probability>
1

> <r_epik_Ionization_Penalty>
0.000617007

> <r_epik_Ionization_Penalty_Charging>
0.000616215

> <r_epik_Ionization_Penalty_Neutral>
7.92544e-07

> <r_epik_State_Penalty>
0.000388807

> <r_epik_Charging_Adjusted_Penalty>
0.00100502

> <i_epik_Tot_Q>
1

> <i_epik_Tot_abs_Q>
1

> <r_epik_Metal_State_Penalty>
-0

> <b_epik_Metal_Only>
0

> <s_lp_Force_Field>
OPLS_2005

> <r_lp_Energy>
18.1842

> <b_lp_Chiralities_Consistent>
1

> <s_lp_Variant>
AV-unprocessed.smi:3181-9

> <Gold.Version>
5.8.1

> <Gold.Id.Protein>
6NUR|6NUR_protein|mol2

> <Gold.PLP.Fitness>
47.2657

> <Gold.PLP.PLP>
-37.2569

> <Gold.PLP.part.hbond>
-1.0000

> <Gold.PLP.part.metal>
0.0000

> <Gold.PLP.part.buried>
-1.3173

> <Gold.PLP.part.nonpolar>
-35.1877

> <Gold.PLP.part.repulsive>
0.3634

> <Gold.PLP.ligand.clash>
0.0000

> <Gold.PLP.ligand.torsion>
0.9911

> <Gold.PLP.Chemscore.Hbond>
2.0000

> <Gold.PLP.Chemscore.CHOScore>
1.9891

> <Gold.PLP.Chemscore.Metal>
0.0000

> <Gold.Chemscore.Hbonds>
donor molecule, donor type, donor heavy atom, donor atom, acceptor molecule, acceptor atom, score
      L1  H     9    42       P1  8028  2.00
      L1  C     5    24       P1  8028  1.00
      L1  C     7    25       P1 10175  1.00

> <Gold.PLP.Chemscore.Internal.Correction>
0.0238

> <Gold.Rescore>
     Score         DG    S(hbond)    S(metal)    S(lipo)     H(rot)  DE(clash)    DE(int)     intcor
     14.45     -15.50       1.00        0.00     103.31       2.11       0.00       1.05       ----

> <Gold.Chemscore.Fitness>
14.4471

> <Gold.Chemscore.DG>
-15.4988

> <Gold.Chemscore.ZeroCoef>
-5.4800

> <Gold.Chemscore.Hbond>
0.9975

> <Gold.Chemscore.Metal>
0.0000

> <Gold.Chemscore.Lipo>
103.3104

> <Gold.Chemscore.Internal_Hbond>
0.0000

> <Gold.Chemscore.DEClash>
0.0038

> <Gold.Chemscore.DEInternal>
1.0479

> <Gold.Chemscore.Rot>
2.1095

> <Gold.Chemscore.Internal.Correction>
   9.000000E+99

> <Gold.Chemscore.Hbonds>
donor molecule, donor type, donor heavy atom, donor atom, acceptor molecule, acceptor atom, score
      L1  H     9    42       P1  8028  0.98

> <Gold.Chemscore.Hbond.Weighted>
-3.3318

> <Gold.Chemscore.Metal.Weighted>
-0.0000

> <Gold.Chemscore.Lipo.Weighted>
-12.0873

> <Gold.Chemscore.Internal_Hbond.Weighted>
0.0000

> <Gold.Chemscore.DEClash.Weighted>
0.0038

> <Gold.Chemscore.DEInternal.Weighted>
1.0479

> <Gold.Chemscore.Rot.Weighted>
5.4003

> <Gold.Chemscore.Internal.Correction.Weighted>
   9.000000E+99

> <Gold.Protein.RotatedTorsions>
[ 6907 6896 6895 6894 ] final  -88.34 input  -60.11 | X-H torsion
[ 7974 7965 7964 7962 ] final  -27.78 input  175.53 | X-H torsion
[ 8008 7997 7996 7995 ] final -108.33 input   59.86 | X-H torsion
[ 10167 10162 10161 10158 ] final -111.00 input  -65.29 | X-H torsion
[ 10718 10713 10712 10709 ] final    2.88 input   66.30 | X-H torsion
[ 10763 10752 10751 10750 ] final -162.00 input  -60.55 | X-H torsion
[ 11005 11000 10999 10996 ] final -102.34 input  -57.11 | X-H torsion

> <Gold.Protein.ActiveResidues>
 VAL166  LYS551  ARG553  GLY616  TRP617  ASP618  TYR619  PRO620  LYS621  CYS622 
 ASP623  PHE694  ASN695  SER759  ASP760  ASP761  ALA762  ILE779  LEU786  VAL792 
 PHE793  MET794  SER795  GLU796  ALA797  LYS798  CYS799  TRP800  GLU811  SER814 

> <Gold.Protein.RotatedAtoms>
  150.6868  134.2757  159.4606 H   0  0  0  0  0  0  0  0  0  0  0  0  # atno 6907 bound_to 6896
  152.0675  134.9552  160.0584 H   0  0  0  0  0  0  0  0  0  0  0  0  # atno 6908 bound_to 6896
  152.0955  133.4187  159.4600 H   0  0  0  0  0  0  0  0  0  0  0  0  # atno 6909 bound_to 6896
  146.1334  140.5196  142.8683 H   0  0  0  0  0  0  0  0  0  0  0  0  # atno 7974 bound_to 7965
  154.9427  140.0402  157.2105 H   0  0  0  0  0  0  0  0  0  0  0  0  # atno 8008 bound_to 7997
  154.8053  140.2859  155.5870 H   0  0  0  0  0  0  0  0  0  0  0  0  # atno 8009 bound_to 7997
  156.2966  140.2547  156.2930 H   0  0  0  0  0  0  0  0  0  0  0  0  # atno 8010 bound_to 7997
  140.1384  143.4300  152.1579 H   0  0  0  0  0  0  0  0  0  0  0  0  # atno 10167 bound_to 10162
  156.8696  130.5615  149.5658 H   0  0  0  0  0  0  0  0  0  0  0  0  # atno 10718 bound_to 10713
  154.7253  135.3034  154.8980 H   0  0  0  0  0  0  0  0  0  0  0  0  # atno 10763 bound_to 10752
  153.9839  135.6727  153.4755 H   0  0  0  0  0  0  0  0  0  0  0  0  # atno 10764 bound_to 10752
  153.0870  135.4979  154.8535 H   0  0  0  0  0  0  0  0  0  0  0  0  # atno 10765 bound_to 10752
  141.1193  133.8550  157.1347 H   0  0  0  0  0  0  0  0  0  0  0  0  # atno 11005 bound_to 11000
  144.7714  140.5646  143.6667 LP  0  0  0  0  0  0  0  0  0  0  0  0  # atno 17320 bound_to 7965
  145.5209  139.1476  143.3552 LP  0  0  0  0  0  0  0  0  0  0  0  0  # atno 17321 bound_to 7965
  139.5484  144.7318  151.4510 LP  0  0  0  0  0  0  0  0  0  0  0  0  # atno 17342 bound_to 10162
  140.6775  143.8156  150.7078 LP  0  0  0  0  0  0  0  0  0  0  0  0  # atno 17343 bound_to 10162
  156.0733  130.5761  150.9426 LP  0  0  0  0  0  0  0  0  0  0  0  0  # atno 17370 bound_to 10713
  157.6203  131.0930  150.8634 LP  0  0  0  0  0  0  0  0  0  0  0  0  # atno 17371 bound_to 10713
  140.0138  134.9976  157.0451 LP  0  0  0  0  0  0  0  0  0  0  0  0  # atno 17394 bound_to 11000
  140.4554  134.1539  155.7185 LP  0  0  0  0  0  0  0  0  0  0  0  0  # atno 17395 bound_to 11000

$$$$
