AV-unprocessed.smi:3020|AV-procd|sdf|11497|dock5
  -GOLD-   2272016433D 1   1.00000     0.00000
 Structure written by MMmdl.
 28 29  0  0  0  0  0  0  0  0  1 V2000
  151.4495  140.6715  155.5199 O   0  0  0  0  0  0  0  0  0  0  0  0
  150.8382  141.6683  155.9044 C   0  0  0  0  0  0  0  0  0  0  0  0
  151.5412  142.6698  156.8208 C   0  0  0  0  0  0  0  0  0  0  0  0
  150.8335  142.7623  158.0480 O   0  0  0  0  0  0  0  0  0  0  0  0
  151.4268  143.6781  158.9515 C   0  0  0  0  0  0  0  0  0  0  0  0
  152.7788  143.1448  159.3741 C   0  0  0  0  0  0  0  0  0  0  0  0
  152.9442  141.6976  159.7794 C   0  0  0  0  0  0  0  0  0  0  0  0
  153.0420  142.7854  160.8188 C   0  0  0  0  0  0  0  0  0  0  0  0
  149.5714  141.9690  155.5614 N   0  0  0  0  0  0  0  0  0  0  0  0
  148.6880  141.2305  154.7317 C   0  0  0  0  0  0  0  0  0  0  0  0
  147.5306  141.9204  154.2993 C   0  0  0  0  0  0  0  0  0  0  0  0
  146.5965  141.3521  153.5050 N   0  0  0  0  0  0  0  0  0  0  0  0
  146.8176  140.0732  153.1331 C   0  0  0  0  0  0  0  0  0  0  0  0
  147.9645  139.3705  153.5533 C   0  0  0  0  0  0  0  0  0  0  0  0
  148.8942  139.9448  154.3475 N   0  0  0  0  0  0  0  0  0  0  0  0
  152.5682  142.3470  157.0000 H   0  0  0  0  0  0  0  0  0  0  0  0
  151.5762  143.6410  156.3247 H   0  0  0  0  0  0  0  0  0  0  0  0
  151.5619  144.6502  158.4750 H   0  0  0  0  0  0  0  0  0  0  0  0
  150.7923  143.8176  159.8286 H   0  0  0  0  0  0  0  0  0  0  0  0
  153.6142  143.5922  158.8386 H   0  0  0  0  0  0  0  0  0  0  0  0
  152.0558  141.0693  159.7915 H   0  0  0  0  0  0  0  0  0  0  0  0
  153.8649  141.1971  159.4860 H   0  0  0  0  0  0  0  0  0  0  0  0
  154.0281  143.0092  161.2205 H   0  0  0  0  0  0  0  0  0  0  0  0
  152.2187  142.8797  161.5244 H   0  0  0  0  0  0  0  0  0  0  0  0
  149.1961  142.8221  155.9500 H   0  0  0  0  0  0  0  0  0  0  0  0
  147.3492  142.9440  154.5938 H   0  0  0  0  0  0  0  0  0  0  0  0
  146.0778  139.6086  152.4981 H   0  0  0  0  0  0  0  0  0  0  0  0
  148.1367  138.3477  153.2528 H   0  0  0  0  0  0  0  0  0  0  0  0
  1  2  2  0  0  0  0
  2  3  1  0  0  0  0
  2  9  1  0  0  0  0
  3  4  1  0  0  0  0
  3 16  1  0  0  0  0
  3 17  1  0  0  0  0
  4  5  1  0  0  0  0
  5  6  1  0  0  0  0
  5 18  1  0  0  0  0
  5 19  1  0  0  0  0
  6  8  1  0  0  0  0
  6  7  1  0  0  0  0
  6 20  1  0  0  0  0
  7  8  1  0  0  0  0
  7 21  1  0  0  0  0
  7 22  1  0  0  0  0
  8 23  1  0  0  0  0
  8 24  1  0  0  0  0
  9 10  1  0  0  0  0
  9 25  1  0  0  0  0
 10 15  1  0  0  0  0
 10 11  2  0  0  0  0
 11 12  1  0  0  0  0
 11 26  1  0  0  0  0
 12 13  2  0  0  0  0
 13 14  1  0  0  0  0
 13 27  1  0  0  0  0
 14 15  2  0  0  0  0
 14 28  1  0  0  0  0
M  END
> <s_m_source_file>
AV-unprocessed.smi

> <i_m_source_file_index>
3020

> <i_lp_mmshare_version>
43012

> <i_f3d_flags>
0

> <s_epik_input>
W0NIMl0xW0NIMl1bQ0hdMVtDSDJdT1tDSDJdQyg9TylbTkhdYzJbY0hdbltjSF1bY0hdbjI=

> <s_epik_cmdline>
J2VwaWtfcHl0aG9uJywgJy1waCcsICc3LjAnLCAnLXRuJywgJzgnLCAnLW1hJywgJzIwMCcsICctbWV0YWxfYmluZGluZycsICctaW1hZScsICc8aW5maWxlLm1hZT4nLCAnLW9tYWUnLCAnPG91dGZpbGUubWFlPic=

> <r_lp_tautomer_probability>
1

> <r_epik_Ionization_Penalty>
2.93955e-06

> <r_epik_Ionization_Penalty_Charging>
0

> <r_epik_Ionization_Penalty_Neutral>
2.93955e-06

> <r_epik_State_Penalty>
-0

> <r_epik_Charging_Adjusted_Penalty>
0

> <i_epik_Tot_Q>
0

> <i_epik_Tot_abs_Q>
0

> <r_epik_Metal_State_Penalty>
-0

> <b_epik_Metal_Only>
0

> <s_lp_Force_Field>
OPLS_2005

> <r_lp_Energy>
21.027

> <b_lp_Chiralities_Consistent>
1

> <s_lp_Variant>
AV-unprocessed.smi:3020-1

> <Gold.Version>
5.8.1

> <Gold.Id.Protein>
6NUR|6NUR_protein|mol2

> <Gold.PLP.Fitness>
41.1494

> <Gold.PLP.PLP>
-28.9496

> <Gold.PLP.part.hbond>
-2.0000

> <Gold.PLP.part.metal>
0.0000

> <Gold.PLP.part.buried>
-3.1869

> <Gold.PLP.part.nonpolar>
-23.8524

> <Gold.PLP.part.repulsive>
0.5988

> <Gold.PLP.ligand.clash>
0.0000

> <Gold.PLP.ligand.torsion>
0.4737

> <Gold.PLP.Chemscore.Hbond>
1.7053

> <Gold.PLP.Chemscore.CHOScore>
2.4928

> <Gold.PLP.Chemscore.Metal>
0.0000

> <Gold.Chemscore.Hbonds>
donor molecule, donor type, donor heavy atom, donor atom, acceptor molecule, acceptor atom, score
      L1  H     9    25       P1  8028  0.91
      P1  H  7989  7998       L1     1  0.75
      L1  C    11    26       P1  8028  0.99
      L1  C    13    27       P1 10175  0.79
      L1  C    14    28       P1  7948  0.71

> <Gold.PLP.Chemscore.Internal.Correction>
0.5531

> <Gold.Rescore>
     Score         DG    S(hbond)    S(metal)    S(lipo)     H(rot)  DE(clash)    DE(int)     intcor
     11.23     -14.38       1.32        0.00      76.74       1.75       1.43       1.72       ----

> <Gold.Chemscore.Fitness>
11.2283

> <Gold.Chemscore.DG>
-14.3760

> <Gold.Chemscore.ZeroCoef>
-5.4800

> <Gold.Chemscore.Hbond>
1.3156

> <Gold.Chemscore.Metal>
0.0000

> <Gold.Chemscore.Lipo>
76.7395

> <Gold.Chemscore.Internal_Hbond>
0.0000

> <Gold.Chemscore.DEClash>
1.4250

> <Gold.Chemscore.DEInternal>
1.7226

> <Gold.Chemscore.Rot>
1.7487

> <Gold.Chemscore.Internal.Correction>
   9.000000E+99

> <Gold.Chemscore.Hbonds>
donor molecule, donor type, donor heavy atom, donor atom, acceptor molecule, acceptor atom, score
      L1  H     9    25       P1  8028  0.89
      P1  H  7989  7998       L1     1  0.39

> <Gold.Chemscore.Hbond.Weighted>
-4.3942

> <Gold.Chemscore.Metal.Weighted>
-0.0000

> <Gold.Chemscore.Lipo.Weighted>
-8.9785

> <Gold.Chemscore.Internal_Hbond.Weighted>
0.0000

> <Gold.Chemscore.DEClash.Weighted>
1.4250

> <Gold.Chemscore.DEInternal.Weighted>
1.7226

> <Gold.Chemscore.Rot.Weighted>
4.4767

> <Gold.Chemscore.Internal.Correction.Weighted>
   9.000000E+99

> <Gold.Protein.RotatedTorsions>
[ 6907 6896 6895 6894 ] final  164.94 input  -60.11 | X-H torsion
[ 7974 7965 7964 7962 ] final   87.28 input  175.53 | X-H torsion
[ 8008 7997 7996 7995 ] final -167.43 input   59.86 | X-H torsion
[ 10167 10162 10161 10158 ] final   44.20 input  -65.29 | X-H torsion
[ 10718 10713 10712 10709 ] final  170.91 input   66.30 | X-H torsion
[ 10763 10752 10751 10750 ] final  -94.01 input  -60.55 | X-H torsion
[ 11005 11000 10999 10996 ] final  -52.49 input  -57.11 | X-H torsion

> <Gold.Protein.ActiveResidues>
 VAL166  LYS551  ARG553  GLY616  TRP617  ASP618  TYR619  PRO620  LYS621  CYS622 
 ASP623  PHE694  ASN695  SER759  ASP760  ASP761  ALA762  ILE779  LEU786  VAL792 
 PHE793  MET794  SER795  GLU796  ALA797  LYS798  CYS799  TRP800  GLU811  SER814 

> <Gold.Protein.RotatedAtoms>
  151.9021  133.3540  159.3834 H   0  0  0  0  0  0  0  0  0  0  0  0  # atno 6907 bound_to 6896
  150.7077  134.4817  159.5483 H   0  0  0  0  0  0  0  0  0  0  0  0  # atno 6908 bound_to 6896
  152.2408  134.8231  160.0511 H   0  0  0  0  0  0  0  0  0  0  0  0  # atno 6909 bound_to 6896
  145.5611  139.2304  143.2459 H   0  0  0  0  0  0  0  0  0  0  0  0  # atno 7974 bound_to 7965
  155.8776  140.1003  157.1507 H   0  0  0  0  0  0  0  0  0  0  0  0  # atno 8008 bound_to 7997
  154.4002  140.1335  156.4219 H   0  0  0  0  0  0  0  0  0  0  0  0  # atno 8009 bound_to 7997
  155.7679  140.3461  155.5234 H   0  0  0  0  0  0  0  0  0  0  0  0  # atno 8010 bound_to 7997
  140.3367  144.2521  150.6161 H   0  0  0  0  0  0  0  0  0  0  0  0  # atno 10167 bound_to 10162
  157.0012  131.0176  151.2830 H   0  0  0  0  0  0  0  0  0  0  0  0  # atno 10718 bound_to 10713
  154.7014  135.5173  153.8532 H   0  0  0  0  0  0  0  0  0  0  0  0  # atno 10763 bound_to 10752
  153.0707  135.6600  154.0263 H   0  0  0  0  0  0  0  0  0  0  0  0  # atno 10764 bound_to 10752
  154.0122  135.3001  155.3370 H   0  0  0  0  0  0  0  0  0  0  0  0  # atno 10765 bound_to 10752
  141.0927  133.6630  156.4032 H   0  0  0  0  0  0  0  0  0  0  0  0  # atno 11005 bound_to 11000
  146.1850  140.6436  142.9171 LP  0  0  0  0  0  0  0  0  0  0  0  0  # atno 17320 bound_to 7965
  144.7482  140.5124  143.6820 LP  0  0  0  0  0  0  0  0  0  0  0  0  # atno 17321 bound_to 7965
  140.5347  143.2236  151.8182 LP  0  0  0  0  0  0  0  0  0  0  0  0  # atno 17342 bound_to 10162
  139.4847  144.4676  151.9465 LP  0  0  0  0  0  0  0  0  0  0  0  0  # atno 17343 bound_to 10162
  157.5389  130.8107  149.8005 LP  0  0  0  0  0  0  0  0  0  0  0  0  # atno 17370 bound_to 10713
  156.0170  130.3810  150.2079 LP  0  0  0  0  0  0  0  0  0  0  0  0  # atno 17371 bound_to 10713
  140.5214  134.6300  157.5319 LP  0  0  0  0  0  0  0  0  0  0  0  0  # atno 17394 bound_to 11000
  139.9756  134.7221  155.9956 LP  0  0  0  0  0  0  0  0  0  0  0  0  # atno 17395 bound_to 11000

$$$$
