AV-unprocessed.smi:952|AV-procd|sdf|4255|dock4
  -GOLD-   22720 2163D 1   1.00000     0.00000
 Structure written by MMmdl.
 35 35  0  0  0  0  0  0  0  0  1 V2000
  146.1838  142.3744  154.2124 C   0  0  0  0  0  0  0  0  0  0  0  0
  147.6797  142.0798  154.0610 C   0  0  0  0  0  0  0  0  0  0  0  0
  147.9939  140.5772  154.1475 C   0  0  0  0  0  0  0  0  0  0  0  0
  147.7540  139.9040  152.8763 N   0  0  0  0  0  0  0  0  0  0  0  0
  146.7348  139.0678  152.6285 C   0  0  0  0  0  0  0  0  0  0  0  0
  145.8911  138.7632  153.4732 O   0  0  0  0  0  0  0  0  0  0  0  0
  146.6770  138.4714  151.2170 C   0  0  0  0  0  0  0  0  0  0  0  0
  145.5694  137.5329  151.0636 N   0  0  0  0  0  0  0  0  0  0  0  0
  145.4001  136.4125  151.7841 C   0  0  0  0  0  0  0  0  0  0  0  0
  146.1377  136.0955  152.7183 O   0  0  0  0  0  0  0  0  0  0  0  0
  144.2301  135.5098  151.3659 C   0  0  2  0  0  0  0  0  0  0  0  0
  143.2349  135.2546  152.5167 C   0  0  0  0  0  0  0  0  0  0  0  0
  144.7455  134.2746  150.7853 N   0  0  0  0  0  0  0  0  0  0  0  0
  144.0252  133.2356  150.2308 C   0  0  0  0  0  0  0  0  0  0  0  0
  144.9203  132.3180  149.7608 C   0  0  0  0  0  0  0  0  0  0  0  0
  146.1846  132.8959  150.0617 C   0  0  0  0  0  0  0  0  0  0  0  0
  146.0780  134.0680  150.6651 N   0  0  0  0  0  0  0  0  0  0  0  0
  145.9906  143.4454  154.1479 H   0  0  0  0  0  0  0  0  0  0  0  0
  145.8088  142.0255  155.1749 H   0  0  0  0  0  0  0  0  0  0  0  0
  145.6053  141.8843  153.4288 H   0  0  0  0  0  0  0  0  0  0  0  0
  148.0245  142.4775  153.1056 H   0  0  0  0  0  0  0  0  0  0  0  0
  148.2318  142.6151  154.8345 H   0  0  0  0  0  0  0  0  0  0  0  0
  149.0412  140.4323  154.4139 H   0  0  0  0  0  0  0  0  0  0  0  0
  147.4050  140.1074  154.9373 H   0  0  0  0  0  0  0  0  0  0  0  0
  148.4044  140.0955  152.1279 H   0  0  0  0  0  0  0  0  0  0  0  0
  146.6115  139.2654  150.4707 H   0  0  0  0  0  0  0  0  0  0  0  0
  147.6087  137.9384  151.0275 H   0  0  0  0  0  0  0  0  0  0  0  0
  144.9202  137.7163  150.3124 H   0  0  0  0  0  0  0  0  0  0  0  0
  143.6808  136.0272  150.5774 H   0  0  0  0  0  0  0  0  0  0  0  0
  142.8174  136.1910  152.8881 H   0  0  0  0  0  0  0  0  0  0  0  0
  143.7013  134.7448  153.3607 H   0  0  0  0  0  0  0  0  0  0  0  0
  142.4016  134.6379  152.1786 H   0  0  0  0  0  0  0  0  0  0  0  0
  142.9452  133.2371  150.2139 H   0  0  0  0  0  0  0  0  0  0  0  0
  144.7048  131.3810  149.2692 H   0  0  0  0  0  0  0  0  0  0  0  0
  147.1698  132.5041  149.8555 H   0  0  0  0  0  0  0  0  0  0  0  0
  1  2  1  0  0  0  0
  1 18  1  0  0  0  0
  1 19  1  0  0  0  0
  1 20  1  0  0  0  0
  2  3  1  0  0  0  0
  2 21  1  0  0  0  0
  2 22  1  0  0  0  0
  3  4  1  0  0  0  0
  3 23  1  0  0  0  0
  3 24  1  0  0  0  0
  4  5  1  0  0  0  0
  4 25  1  0  0  0  0
  5  6  2  0  0  0  0
  5  7  1  0  0  0  0
  7  8  1  0  0  0  0
  7 26  1  0  0  0  0
  7 27  1  0  0  0  0
  8  9  1  0  0  0  0
  8 28  1  0  0  0  0
  9 10  2  0  0  0  0
  9 11  1  0  0  0  0
 11 12  1  0  0  0  0
 11 13  1  0  0  0  0
 11 29  1  0  0  0  0
 12 30  1  0  0  0  0
 12 31  1  0  0  0  0
 12 32  1  0  0  0  0
 13 17  1  0  0  0  0
 13 14  1  0  0  0  0
 14 15  2  0  0  0  0
 14 33  1  0  0  0  0
 15 16  1  0  0  0  0
 15 34  1  0  0  0  0
 16 17  2  0  0  0  0
 16 35  1  0  0  0  0
M  END
> <s_m_source_file>
AV-unprocessed.smi

> <i_m_source_file_index>
952

> <i_lp_mmshare_version>
43012

> <i_f3d_flags>
0

> <s_epik_input>
W0NIM11bQ0gyXVtDSDJdW05IXUMoPU8pW0NIMl1bTkhdQyg9TylbQ0BIXShbQ0gzXSluMVtjSF1bY0hdW2NIXW4x

> <s_epik_cmdline>
J2VwaWtfcHl0aG9uJywgJy1waCcsICc3LjAnLCAnLXRuJywgJzgnLCAnLW1hJywgJzIwMCcsICctbWV0YWxfYmluZGluZycsICctaW1hZScsICc8aW5maWxlLm1hZT4nLCAnLW9tYWUnLCAnPG91dGZpbGUubWFlPic=

> <r_lp_tautomer_probability>
1

> <r_epik_Ionization_Penalty>
2.62173e-05

> <r_epik_Ionization_Penalty_Charging>
0

> <r_epik_Ionization_Penalty_Neutral>
2.62173e-05

> <r_epik_State_Penalty>
-0

> <r_epik_Charging_Adjusted_Penalty>
0

> <i_epik_Tot_Q>
0

> <i_epik_Tot_abs_Q>
0

> <r_epik_Metal_State_Penalty>
-0

> <b_epik_Metal_Only>
0

> <s_lp_Force_Field>
OPLS_2005

> <r_lp_Energy>
2.54984

> <b_lp_Chiralities_Consistent>
1

> <s_lp_Variant>
AV-unprocessed.smi:952-1

> <Gold.Version>
5.8.1

> <Gold.Id.Protein>
6NUR|6NUR_protein|mol2

> <Gold.PLP.Fitness>
46.0472

> <Gold.PLP.PLP>
-34.5979

> <Gold.PLP.part.hbond>
-1.9691

> <Gold.PLP.part.metal>
0.0000

> <Gold.PLP.part.buried>
-4.1755

> <Gold.PLP.part.nonpolar>
-30.3543

> <Gold.PLP.part.repulsive>
1.9352

> <Gold.PLP.ligand.clash>
0.0000

> <Gold.PLP.ligand.torsion>
0.2959

> <Gold.PLP.Chemscore.Hbond>
1.9673

> <Gold.PLP.Chemscore.CHOScore>
2.0000

> <Gold.PLP.Chemscore.Metal>
0.0000

> <Gold.Chemscore.Hbonds>
donor molecule, donor type, donor heavy atom, donor atom, acceptor molecule, acceptor atom, score
      L1  H     4    25       P1  7957  1.00
      L1  H     8    28       P1 10171  0.75
      L1  C    14    33       P1 10186  1.00
      L1  C    16    35       P1 10747  1.00

> <Gold.PLP.Chemscore.Internal.Correction>
0.1393

> <Gold.Rescore>
     Score         DG    S(hbond)    S(metal)    S(lipo)     H(rot)  DE(clash)    DE(int)     intcor
     10.76     -13.85       2.00        0.00      63.37       2.24       0.86       2.23       ----

> <Gold.Chemscore.Fitness>
10.7574

> <Gold.Chemscore.DG>
-13.8472

> <Gold.Chemscore.ZeroCoef>
-5.4800

> <Gold.Chemscore.Hbond>
1.9994

> <Gold.Chemscore.Metal>
0.0000

> <Gold.Chemscore.Lipo>
63.3695

> <Gold.Chemscore.Internal_Hbond>
0.0000

> <Gold.Chemscore.DEClash>
0.8594

> <Gold.Chemscore.DEInternal>
2.2304

> <Gold.Chemscore.Rot>
2.2364

> <Gold.Chemscore.Internal.Correction>
   9.000000E+99

> <Gold.Chemscore.Hbonds>
donor molecule, donor type, donor heavy atom, donor atom, acceptor molecule, acceptor atom, score
      L1  H     4    25       P1  7957  0.93
      L1  H     8    28       P1 10171  0.71

> <Gold.Chemscore.Hbond.Weighted>
-6.6781

> <Gold.Chemscore.Metal.Weighted>
-0.0000

> <Gold.Chemscore.Lipo.Weighted>
-7.4142

> <Gold.Chemscore.Internal_Hbond.Weighted>
0.0000

> <Gold.Chemscore.DEClash.Weighted>
0.8594

> <Gold.Chemscore.DEInternal.Weighted>
2.2304

> <Gold.Chemscore.Rot.Weighted>
5.7251

> <Gold.Chemscore.Internal.Correction.Weighted>
   9.000000E+99

> <Gold.Protein.RotatedTorsions>
[ 6907 6896 6895 6894 ] final -107.61 input  -60.11 | X-H torsion
[ 7974 7965 7964 7962 ] final  -55.16 input  175.53 | X-H torsion
[ 8008 7997 7996 7995 ] final   60.91 input   59.86 | X-H torsion
[ 10167 10162 10161 10158 ] final   86.52 input  -65.29 | X-H torsion
[ 10718 10713 10712 10709 ] final -111.92 input   66.30 | X-H torsion
[ 10763 10752 10751 10750 ] final  177.95 input  -60.55 | X-H torsion
[ 11005 11000 10999 10996 ] final  169.60 input  -57.11 | X-H torsion

> <Gold.Protein.ActiveResidues>
 VAL166  LYS551  ARG553  GLY616  TRP617  ASP618  TYR619  PRO620  LYS621  CYS622 
 ASP623  PHE694  ASN695  SER759  ASP760  ASP761  ALA762  ILE779  LEU786  VAL792 
 PHE793  MET794  SER795  GLU796  ALA797  LYS798  CYS799  TRP800  GLU811  SER814 

> <Gold.Protein.RotatedAtoms>
  150.7454  133.9801  159.3573 H   0  0  0  0  0  0  0  0  0  0  0  0  # atno 6907 bound_to 6896
  151.7741  135.0776  160.0373 H   0  0  0  0  0  0  0  0  0  0  0  0  # atno 6908 bound_to 6896
  152.3319  133.5931  159.5851 H   0  0  0  0  0  0  0  0  0  0  0  0  # atno 6909 bound_to 6896
  145.8774  140.8170  142.9857 H   0  0  0  0  0  0  0  0  0  0  0  0  # atno 7974 bound_to 7965
  155.5900  140.3492  155.4564 H   0  0  0  0  0  0  0  0  0  0  0  0  # atno 8008 bound_to 7997
  156.0309  140.1274  157.0284 H   0  0  0  0  0  0  0  0  0  0  0  0  # atno 8009 bound_to 7997
  154.4352  140.1043  156.6083 H   0  0  0  0  0  0  0  0  0  0  0  0  # atno 8010 bound_to 7997
  139.8867  144.6409  150.8783 H   0  0  0  0  0  0  0  0  0  0  0  0  # atno 10167 bound_to 10162
  156.0675  130.5893  150.8439 H   0  0  0  0  0  0  0  0  0  0  0  0  # atno 10718 bound_to 10713
  154.5013  135.2783  155.1418 H   0  0  0  0  0  0  0  0  0  0  0  0  # atno 10763 bound_to 10752
  154.3051  135.6240  153.5445 H   0  0  0  0  0  0  0  0  0  0  0  0  # atno 10764 bound_to 10752
  152.9903  135.5706  154.5456 H   0  0  0  0  0  0  0  0  0  0  0  0  # atno 10765 bound_to 10752
  140.2995  134.7607  157.3904 H   0  0  0  0  0  0  0  0  0  0  0  0  # atno 11005 bound_to 11000
  144.6726  140.1331  143.7442 LP  0  0  0  0  0  0  0  0  0  0  0  0  # atno 17320 bound_to 7965
  145.9065  139.2461  143.1463 LP  0  0  0  0  0  0  0  0  0  0  0  0  # atno 17321 bound_to 7965
  140.7734  143.3542  151.1954 LP  0  0  0  0  0  0  0  0  0  0  0  0  # atno 17342 bound_to 10162
  139.7146  143.9321  152.2961 LP  0  0  0  0  0  0  0  0  0  0  0  0  # atno 17343 bound_to 10162
  157.5726  131.0946  150.9394 LP  0  0  0  0  0  0  0  0  0  0  0  0  # atno 17370 bound_to 10713
  156.9607  130.5454  149.5286 LP  0  0  0  0  0  0  0  0  0  0  0  0  # atno 17371 bound_to 10713
  140.1122  134.5330  155.8256 LP  0  0  0  0  0  0  0  0  0  0  0  0  # atno 17394 bound_to 11000
  141.2131  133.6728  156.6711 LP  0  0  0  0  0  0  0  0  0  0  0  0  # atno 17395 bound_to 11000

$$$$
