AV-unprocessed.smi:2294|AV-procd|sdf|9216|dock2
  -GOLD-   2272012433D 1   1.00000     0.00000
 Structure written by MMmdl.
 34 35  0  0  0  0  0  0  0  0  1 V2000
  147.1556  141.1175  153.1651 C   0  0  0  0  0  0  0  0  0  0  0  0
  148.0540  141.2805  154.3783 C   0  0  0  0  0  0  0  0  0  0  0  0
  149.4257  141.3176  154.1126 N   0  0  0  0  0  0  0  0  0  0  0  0
  150.2668  141.4540  155.0849 C   0  0  0  0  0  0  0  0  0  0  0  0
  149.8417  141.5707  156.4191 N   0  0  0  0  0  0  0  0  0  0  0  0
  150.9017  141.7182  157.4316 C   0  0  0  0  0  0  0  0  0  0  0  0
  150.8138  143.0654  158.1832 C   0  0  2  0  0  0  0  0  0  0  0  0
  151.2536  144.1003  157.3251 O   0  0  0  0  0  0  0  0  0  0  0  0
  151.6296  143.0198  159.4694 C   0  0  0  0  0  0  0  0  0  0  0  0
  152.3756  141.8673  159.8056 C   0  0  0  0  0  0  0  0  0  0  0  0
  153.1206  141.8238  160.9998 C   0  0  0  0  0  0  0  0  0  0  0  0
  153.1220  142.9304  161.8697 C   0  0  0  0  0  0  0  0  0  0  0  0
  152.3746  144.0785  161.5460 C   0  0  0  0  0  0  0  0  0  0  0  0
  151.6284  144.1242  160.3520 C   0  0  0  0  0  0  0  0  0  0  0  0
  150.9068  145.2338  160.0625 F   0  0  0  0  0  0  0  0  0  0  0  0
  148.5224  141.5405  156.7660 C   0  0  0  0  0  0  0  0  0  0  0  0
  148.1574  141.6399  157.9388 O   0  0  0  0  0  0  0  0  0  0  0  0
  147.5766  141.3838  155.6487 C   0  0  0  0  0  0  0  0  0  0  0  0
  146.0936  141.3477  155.9975 C   0  0  0  0  0  0  0  0  0  0  0  0
  146.5691  140.2018  153.2443 H   0  0  0  0  0  0  0  0  0  0  0  0
  147.7375  141.0636  152.2444 H   0  0  0  0  0  0  0  0  0  0  0  0
  146.4730  141.9631  153.0782 H   0  0  0  0  0  0  0  0  0  0  0  0
  151.3475  141.4824  154.9331 H   0  0  0  0  0  0  0  0  0  0  0  0
  150.8008  140.9028  158.1513 H   0  0  0  0  0  0  0  0  0  0  0  0
  151.8987  141.5769  157.0099 H   0  0  0  0  0  0  0  0  0  0  0  0
  149.7769  143.2844  158.4403 H   0  0  0  0  0  0  0  0  0  0  0  0
  150.5348  144.3523  156.7658 H   0  0  0  0  0  0  0  0  0  0  0  0
  152.3777  141.0087  159.1499 H   0  0  0  0  0  0  0  0  0  0  0  0
  153.6895  140.9401  161.2490 H   0  0  0  0  0  0  0  0  0  0  0  0
  153.6931  142.8971  162.7859 H   0  0  0  0  0  0  0  0  0  0  0  0
  152.3716  144.9257  162.2157 H   0  0  0  0  0  0  0  0  0  0  0  0
  145.8025  142.2712  156.4986 H   0  0  0  0  0  0  0  0  0  0  0  0
  145.8855  140.5165  156.6722 H   0  0  0  0  0  0  0  0  0  0  0  0
  145.4499  141.2312  155.1273 H   0  0  0  0  0  0  0  0  0  0  0  0
  1  2  1  0  0  0  0
  1 20  1  0  0  0  0
  1 21  1  0  0  0  0
  1 22  1  0  0  0  0
  2 18  2  0  0  0  0
  2  3  1  0  0  0  0
  3  4  2  0  0  0  0
  4  5  1  0  0  0  0
  4 23  1  0  0  0  0
  5  6  1  0  0  0  0
  5 16  1  0  0  0  0
  6  7  1  0  0  0  0
  6 24  1  0  0  0  0
  6 25  1  0  0  0  0
  7  8  1  0  0  0  0
  7  9  1  0  0  0  0
  7 26  1  0  0  0  0
  8 27  1  0  0  0  0
  9 14  1  0  0  0  0
  9 10  2  0  0  0  0
 10 11  1  0  0  0  0
 10 28  1  0  0  0  0
 11 12  2  0  0  0  0
 11 29  1  0  0  0  0
 12 13  1  0  0  0  0
 12 30  1  0  0  0  0
 13 14  2  0  0  0  0
 13 31  1  0  0  0  0
 14 15  1  0  0  0  0
 16 17  2  0  0  0  0
 16 18  1  0  0  0  0
 18 19  1  0  0  0  0
 19 32  1  0  0  0  0
 19 33  1  0  0  0  0
 19 34  1  0  0  0  0
M  END
> <s_m_source_file>
AV-unprocessed.smi

> <i_m_source_file_index>
2294

> <i_lp_mmshare_version>
43012

> <i_f3d_flags>
0

> <s_epik_input>
W0NIM11jMW5bY0hdbihjKD1PKWMxW0NIM10pW0NIMl1bQ0BIXShbT0hdKWMyW2NIXVtjSF1bY0hdW2NIXWMyRg==

> <s_epik_cmdline>
J2VwaWtfcHl0aG9uJywgJy1waCcsICc3LjAnLCAnLXRuJywgJzgnLCAnLW1hJywgJzIwMCcsICctbWV0YWxfYmluZGluZycsICctaW1hZScsICc8aW5maWxlLm1hZT4nLCAnLW9tYWUnLCAnPG91dGZpbGUubWFlPic=

> <r_lp_tautomer_probability>
1

> <r_epik_Ionization_Penalty>
5.07259e-05

> <r_epik_Ionization_Penalty_Charging>
7.56727e-08

> <r_epik_Ionization_Penalty_Neutral>
5.06502e-05

> <r_epik_State_Penalty>
-0

> <r_epik_Charging_Adjusted_Penalty>
7.56727e-08

> <i_epik_Tot_Q>
0

> <i_epik_Tot_abs_Q>
0

> <r_epik_Metal_State_Penalty>
-0

> <b_epik_Metal_Only>
0

> <s_lp_Force_Field>
OPLS_2005

> <r_lp_Energy>
20.4384

> <b_lp_Chiralities_Consistent>
1

> <s_lp_Variant>
AV-unprocessed.smi:2294-1

> <Gold.Version>
5.8.1

> <Gold.Id.Protein>
6NUR|6NUR_protein|mol2

> <Gold.PLP.Fitness>
45.9177

> <Gold.PLP.PLP>
-41.3200

> <Gold.PLP.part.hbond>
-3.0000

> <Gold.PLP.part.metal>
0.0000

> <Gold.PLP.part.buried>
-5.0049

> <Gold.PLP.part.nonpolar>
-31.9003

> <Gold.PLP.part.repulsive>
0.2800

> <Gold.PLP.ligand.clash>
0.0000

> <Gold.PLP.ligand.torsion>
0.1347

> <Gold.PLP.Chemscore.Hbond>
1.6178

> <Gold.PLP.Chemscore.CHOScore>
0.0000

> <Gold.PLP.Chemscore.Metal>
0.0000

> <Gold.Chemscore.Hbonds>
donor molecule, donor type, donor heavy atom, donor atom, acceptor molecule, acceptor atom, score
      L1  H     8    27       P1  8028  1.00
      P1  H  8011  8017       L1     3  0.57

> <Gold.PLP.Chemscore.Internal.Correction>
0.0138

> <Gold.Rescore>
     Score         DG    S(hbond)    S(metal)    S(lipo)     H(rot)  DE(clash)    DE(int)     intcor
     15.69     -16.20       1.37        0.00      96.77       2.02       0.15       0.35       ----

> <Gold.Chemscore.Fitness>
15.6894

> <Gold.Chemscore.DG>
-16.1968

> <Gold.Chemscore.ZeroCoef>
-5.4800

> <Gold.Chemscore.Hbond>
1.3657

> <Gold.Chemscore.Metal>
0.0000

> <Gold.Chemscore.Lipo>
96.7655

> <Gold.Chemscore.Internal_Hbond>
0.0000

> <Gold.Chemscore.DEClash>
0.1547

> <Gold.Chemscore.DEInternal>
0.3527

> <Gold.Chemscore.Rot>
2.0181

> <Gold.Chemscore.Internal.Correction>
   9.000000E+99

> <Gold.Chemscore.Hbonds>
donor molecule, donor type, donor heavy atom, donor atom, acceptor molecule, acceptor atom, score
      L1  H     8    27       P1  8028  0.95
      P1  H  8011  8017       L1     3  0.40

> <Gold.Chemscore.Hbond.Weighted>
-4.5616

> <Gold.Chemscore.Metal.Weighted>
-0.0000

> <Gold.Chemscore.Lipo.Weighted>
-11.3216

> <Gold.Chemscore.Internal_Hbond.Weighted>
0.0000

> <Gold.Chemscore.DEClash.Weighted>
0.1547

> <Gold.Chemscore.DEInternal.Weighted>
0.3527

> <Gold.Chemscore.Rot.Weighted>
5.1663

> <Gold.Chemscore.Internal.Correction.Weighted>
   9.000000E+99

> <Gold.Protein.RotatedTorsions>
[ 6907 6896 6895 6894 ] final -152.13 input  -60.11 | X-H torsion
[ 7974 7965 7964 7962 ] final -178.94 input  175.53 | X-H torsion
[ 8008 7997 7996 7995 ] final   87.62 input   59.86 | X-H torsion
[ 10167 10162 10161 10158 ] final  154.93 input  -65.29 | X-H torsion
[ 10718 10713 10712 10709 ] final -176.71 input   66.30 | X-H torsion
[ 10763 10752 10751 10750 ] final  127.93 input  -60.55 | X-H torsion
[ 11005 11000 10999 10996 ] final  -90.70 input  -57.11 | X-H torsion

> <Gold.Protein.ActiveResidues>
 VAL166  LYS551  ARG553  GLY616  TRP617  ASP618  TYR619  PRO620  LYS621  CYS622 
 ASP623  PHE694  ASN695  SER759  ASP760  ASP761  ALA762  ILE779  LEU786  VAL792 
 PHE793  MET794  SER795  GLU796  ALA797  LYS798  CYS799  TRP800  GLU811  SER814 

> <Gold.Protein.RotatedAtoms>
  151.2232  133.4491  159.2601 H   0  0  0  0  0  0  0  0  0  0  0  0  # atno 6907 bound_to 6896
  151.0865  134.9890  159.8392 H   0  0  0  0  0  0  0  0  0  0  0  0  # atno 6908 bound_to 6896
  152.5430  134.2168  159.8825 H   0  0  0  0  0  0  0  0  0  0  0  0  # atno 6909 bound_to 6896
  144.7133  140.0793  143.6426 H   0  0  0  0  0  0  0  0  0  0  0  0  # atno 7974 bound_to 7965
  155.9776  140.3380  155.6633 H   0  0  0  0  0  0  0  0  0  0  0  0  # atno 8008 bound_to 7997
  155.6592  140.0714  157.2578 H   0  0  0  0  0  0  0  0  0  0  0  0  # atno 8009 bound_to 7997
  154.4183  140.1711  156.1745 H   0  0  0  0  0  0  0  0  0  0  0  0  # atno 8010 bound_to 7997
  139.4822  144.5143  151.7975 H   0  0  0  0  0  0  0  0  0  0  0  0  # atno 10167 bound_to 10162
  156.8187  130.9612  151.3113 H   0  0  0  0  0  0  0  0  0  0  0  0  # atno 10718 bound_to 10713
  153.7173  135.3259  155.3259 H   0  0  0  0  0  0  0  0  0  0  0  0  # atno 10763 bound_to 10752
  154.8367  135.4491  154.1253 H   0  0  0  0  0  0  0  0  0  0  0  0  # atno 10764 bound_to 10752
  153.2363  135.6966  153.7912 H   0  0  0  0  0  0  0  0  0  0  0  0  # atno 10765 bound_to 10752
  141.1560  133.7708  156.9774 H   0  0  0  0  0  0  0  0  0  0  0  0  # atno 11005 bound_to 11000
  145.9716  139.2874  143.1095 LP  0  0  0  0  0  0  0  0  0  0  0  0  # atno 17320 bound_to 7965
  145.9110  140.9180  143.0454 LP  0  0  0  0  0  0  0  0  0  0  0  0  # atno 17321 bound_to 7965
  140.4650  144.1668  150.5910 LP  0  0  0  0  0  0  0  0  0  0  0  0  # atno 17342 bound_to 10162
  140.4444  143.2513  151.9431 LP  0  0  0  0  0  0  0  0  0  0  0  0  # atno 17343 bound_to 10162
  157.6468  130.8851  149.9554 LP  0  0  0  0  0  0  0  0  0  0  0  0  # atno 17370 bound_to 10713
  156.1002  130.3656  150.0233 LP  0  0  0  0  0  0  0  0  0  0  0  0  # atno 17371 bound_to 10713
  140.1088  134.9489  157.2035 LP  0  0  0  0  0  0  0  0  0  0  0  0  # atno 17394 bound_to 11000
  140.3220  134.2905  155.7244 LP  0  0  0  0  0  0  0  0  0  0  0  0  # atno 17395 bound_to 11000

$$$$
