AV-unprocessed.smi:1279|AV-procd|sdf|5356|dock5
  -GOLD-   22720 4493D 1   1.00000     0.00000
 Structure written by MMmdl.
 46 47  0  0  0  0  0  0  0  0  2 V2000
  150.9102  142.0863  156.4354 C   0  0  0  0  0  0  0  0  0  0  0  0
  150.5807  140.8660  155.6275 C   0  0  0  0  0  0  0  0  0  0  0  0
  149.3484  140.5434  154.9881 C   0  0  0  0  0  0  0  0  0  0  0  0
  149.6178  139.3340  154.4081 C   0  0  0  0  0  0  0  0  0  0  0  0
  148.8045  138.5467  153.6550 N   0  0  0  0  0  0  0  0  0  0  0  0
  147.4821  138.6655  153.4431 C   0  0  0  0  0  0  0  0  0  0  0  0
  146.7569  139.5419  153.9141 O   0  0  0  0  0  0  0  0  0  0  0  0
  147.0287  137.6886  152.6444 N   0  0  0  0  0  0  0  0  0  0  0  0
  145.6411  137.5305  152.2236 C   0  0  0  0  0  0  0  0  0  0  0  0
  145.0707  136.1655  152.6557 C   0  0  0  0  0  0  0  0  0  0  0  0
  145.2204  135.1278  151.6043 N   0  3  2  0  0  0  0  0  0  0  0  0
  143.9747  134.3394  151.4167 C   0  0  0  0  0  0  0  0  0  0  0  0
  144.1032  133.3578  150.2379 C   0  0  0  0  0  0  0  0  0  0  0  0
  145.3156  132.4218  150.3889 C   0  0  2  0  0  0  0  0  0  0  0  0
  145.0977  131.3330  151.4545 C   0  0  0  0  0  0  0  0  0  0  0  0
  146.5793  133.2629  150.6445 C   0  0  0  0  0  0  0  0  0  0  0  0
  146.3993  134.2459  151.8154 C   0  0  0  0  0  0  0  0  0  0  0  0
  150.9191  138.9839  154.6927 N   0  0  0  0  0  0  0  0  0  0  0  0
  151.6628  137.8029  154.2994 C   0  0  0  0  0  0  0  0  0  0  0  0
  151.5108  139.9347  155.4477 N   0  0  0  0  0  0  0  0  0  0  0  0
  150.0558  142.7604  156.4976 H   0  0  0  0  0  0  0  0  0  0  0  0
  151.7373  142.6401  155.9905 H   0  0  0  0  0  0  0  0  0  0  0  0
  151.1952  141.8184  157.4530 H   0  0  0  0  0  0  0  0  0  0  0  0
  148.4351  141.1184  154.9696 H   0  0  0  0  0  0  0  0  0  0  0  0
  149.2597  137.7644  153.2083 H   0  0  0  0  0  0  0  0  0  0  0  0
  147.6913  137.0096  152.2987 H   0  0  0  0  0  0  0  0  0  0  0  0
  145.0351  138.3435  152.6275 H   0  0  0  0  0  0  0  0  0  0  0  0
  145.6204  137.6369  151.1398 H   0  0  0  0  0  0  0  0  0  0  0  0
  145.5370  135.8248  153.5816 H   0  0  0  0  0  0  0  0  0  0  0  0
  144.0101  136.2927  152.8764 H   0  0  0  0  0  0  0  0  0  0  0  0
  143.7362  133.8053  152.3374 H   0  0  0  0  0  0  0  0  0  0  0  0
  143.1402  135.0143  151.2218 H   0  0  0  0  0  0  0  0  0  0  0  0
  143.1867  132.7759  150.1334 H   0  0  0  0  0  0  0  0  0  0  0  0
  144.2050  133.9276  149.3131 H   0  0  0  0  0  0  0  0  0  0  0  0
  145.4515  131.9017  149.4398 H   0  0  0  0  0  0  0  0  0  0  0  0
  144.9492  131.7523  152.4491 H   0  0  0  0  0  0  0  0  0  0  0  0
  145.9539  130.6598  151.5058 H   0  0  0  0  0  0  0  0  0  0  0  0
  144.2217  130.7275  151.2193 H   0  0  0  0  0  0  0  0  0  0  0  0
  147.4351  132.6126  150.8293 H   0  0  0  0  0  0  0  0  0  0  0  0
  146.8198  133.8287  149.7433 H   0  0  0  0  0  0  0  0  0  0  0  0
  147.3056  134.8429  151.9085 H   0  0  0  0  0  0  0  0  0  0  0  0
  146.2879  133.7028  152.7546 H   0  0  0  0  0  0  0  0  0  0  0  0
  151.0864  136.9088  154.5381 H   0  0  0  0  0  0  0  0  0  0  0  0
  152.6172  137.7569  154.8261 H   0  0  0  0  0  0  0  0  0  0  0  0
  151.8506  137.8309  153.2258 H   0  0  0  0  0  0  0  0  0  0  0  0
  145.3715  135.6207  150.7356 H   0  0  0  0  0  0  0  0  0  0  0  0
  1  2  1  0  0  0  0
  1 21  1  0  0  0  0
  1 22  1  0  0  0  0
  1 23  1  0  0  0  0
  2 20  2  0  0  0  0
  2  3  1  0  0  0  0
  3  4  2  0  0  0  0
  3 24  1  0  0  0  0
  4  5  1  0  0  0  0
  4 18  1  0  0  0  0
  5  6  1  0  0  0  0
  5 25  1  0  0  0  0
  6  7  2  0  0  0  0
  6  8  1  0  0  0  0
  8  9  1  0  0  0  0
  8 26  1  0  0  0  0
  9 10  1  0  0  0  0
  9 27  1  0  0  0  0
  9 28  1  0  0  0  0
 10 11  1  0  0  0  0
 10 29  1  0  0  0  0
 10 30  1  0  0  0  0
 11 17  1  0  0  0  0
 11 12  1  0  0  0  0
 11 46  1  0  0  0  0
 12 13  1  0  0  0  0
 12 31  1  0  0  0  0
 12 32  1  0  0  0  0
 13 14  1  0  0  0  0
 13 33  1  0  0  0  0
 13 34  1  0  0  0  0
 14 15  1  0  0  0  0
 14 16  1  0  0  0  0
 14 35  1  0  0  0  0
 15 36  1  0  0  0  0
 15 37  1  0  0  0  0
 15 38  1  0  0  0  0
 16 17  1  0  0  0  0
 16 39  1  0  0  0  0
 16 40  1  0  0  0  0
 17 41  1  0  0  0  0
 17 42  1  0  0  0  0
 18 19  1  0  0  0  0
 18 20  1  0  0  0  0
 19 43  1  0  0  0  0
 19 44  1  0  0  0  0
 19 45  1  0  0  0  0
M  CHG  1  11   1
M  END
> <s_m_source_file>
AV-unprocessed.smi

> <i_m_source_file_index>
1279

> <i_lp_mmshare_version>
43012

> <i_f3d_flags>
0

> <s_epik_input>
W0NIM11jMVtjSF1jKG4objEpW0NIM10pW05IXUMoPU8pW05IXVtDSDJdW0NIMl1OMltDSDJdW0NIMl1bQ0hdKFtDSDNdKVtDSDJdW0NIMl0y

> <s_epik_cmdline>
J2VwaWtfcHl0aG9uJywgJy1waCcsICc3LjAnLCAnLXRuJywgJzgnLCAnLW1hJywgJzIwMCcsICctbWV0YWxfYmluZGluZycsICctaW1hZScsICc8aW5maWxlLm1hZT4nLCAnLW9tYWUnLCAnPG91dGZpbGUubWFlPic=

> <r_lp_tautomer_probability>
1

> <r_epik_Ionization_Penalty>
0.00166091

> <r_epik_Ionization_Penalty_Charging>
0.0015841

> <r_epik_Ionization_Penalty_Neutral>
7.68112e-05

> <r_epik_State_Penalty>
0.00106518

> <r_epik_Charging_Adjusted_Penalty>
0.00264928

> <i_epik_Tot_Q>
1

> <i_epik_Tot_abs_Q>
1

> <r_epik_Metal_State_Penalty>
-0

> <b_epik_Metal_Only>
0

> <s_lp_Force_Field>
OPLS_2005

> <r_lp_Energy>
19.8524

> <b_lp_Chiralities_Consistent>
1

> <s_lp_Variant>
AV-unprocessed.smi:1279-2

> <Gold.Version>
5.8.1

> <Gold.Id.Protein>
6NUR|6NUR_protein|mol2

> <Gold.PLP.Fitness>
43.3205

> <Gold.PLP.PLP>
-39.2914

> <Gold.PLP.part.hbond>
-3.8766

> <Gold.PLP.part.metal>
0.0000

> <Gold.PLP.part.buried>
-5.2774

> <Gold.PLP.part.nonpolar>
-32.0756

> <Gold.PLP.part.repulsive>
0.2785

> <Gold.PLP.ligand.clash>
0.0000

> <Gold.PLP.ligand.torsion>
0.8263

> <Gold.PLP.Chemscore.Hbond>
1.8837

> <Gold.PLP.Chemscore.CHOScore>
0.0000

> <Gold.PLP.Chemscore.Metal>
0.0000

> <Gold.Chemscore.Hbonds>
donor molecule, donor type, donor heavy atom, donor atom, acceptor molecule, acceptor atom, score
      L1  H     5    25       P1  7948  0.87
      L1  H     8    26       P1  7948  1.00

> <Gold.PLP.Chemscore.Internal.Correction>
0.0305

> <Gold.Rescore>
     Score         DG    S(hbond)    S(metal)    S(lipo)     H(rot)  DE(clash)    DE(int)     intcor
     15.97     -18.00       1.92        0.00      84.79       1.48       0.14       1.89       ----

> <Gold.Chemscore.Fitness>
15.9695

> <Gold.Chemscore.DG>
-17.9986

> <Gold.Chemscore.ZeroCoef>
-5.4800

> <Gold.Chemscore.Hbond>
1.9152

> <Gold.Chemscore.Metal>
0.0000

> <Gold.Chemscore.Lipo>
84.7877

> <Gold.Chemscore.Internal_Hbond>
0.0000

> <Gold.Chemscore.DEClash>
0.1417

> <Gold.Chemscore.DEInternal>
1.8874

> <Gold.Chemscore.Rot>
1.4838

> <Gold.Chemscore.Internal.Correction>
   9.000000E+99

> <Gold.Chemscore.Hbonds>
donor molecule, donor type, donor heavy atom, donor atom, acceptor molecule, acceptor atom, score
      L1  H     5    25       P1  7948  0.79
      L1  H     8    26       P1  7948  0.93

> <Gold.Chemscore.Hbond.Weighted>
-6.3969

> <Gold.Chemscore.Metal.Weighted>
-0.0000

> <Gold.Chemscore.Lipo.Weighted>
-9.9202

> <Gold.Chemscore.Internal_Hbond.Weighted>
0.0000

> <Gold.Chemscore.DEClash.Weighted>
0.1417

> <Gold.Chemscore.DEInternal.Weighted>
1.8874

> <Gold.Chemscore.Rot.Weighted>
3.7985

> <Gold.Chemscore.Internal.Correction.Weighted>
   9.000000E+99

> <Gold.Protein.RotatedTorsions>
[ 6907 6896 6895 6894 ] final  -12.99 input  -60.11 | X-H torsion
[ 7974 7965 7964 7962 ] final   27.56 input  175.53 | X-H torsion
[ 8008 7997 7996 7995 ] final  123.76 input   59.86 | X-H torsion
[ 10167 10162 10161 10158 ] final  117.64 input  -65.29 | X-H torsion
[ 10718 10713 10712 10709 ] final   21.29 input   66.30 | X-H torsion
[ 10763 10752 10751 10750 ] final   84.17 input  -60.55 | X-H torsion
[ 11005 11000 10999 10996 ] final   77.23 input  -57.11 | X-H torsion

> <Gold.Protein.ActiveResidues>
 VAL166  LYS551  ARG553  GLY616  TRP617  ASP618  TYR619  PRO620  LYS621  CYS622 
 ASP623  PHE694  ASN695  SER759  ASP760  ASP761  ALA762  ILE779  LEU786  VAL792 
 PHE793  MET794  SER795  GLU796  ALA797  LYS798  CYS799  TRP800  GLU811  SER814 

> <Gold.Protein.RotatedAtoms>
  151.3618  135.0905  159.9436 H   0  0  0  0  0  0  0  0  0  0  0  0  # atno 6907 bound_to 6896
  152.5160  133.9250  159.7563 H   0  0  0  0  0  0  0  0  0  0  0  0  # atno 6908 bound_to 6896
  150.9646  133.6354  159.2777 H   0  0  0  0  0  0  0  0  0  0  0  0  # atno 6909 bound_to 6896
  146.1777  139.7175  142.8922 H   0  0  0  0  0  0  0  0  0  0  0  0  # atno 7974 bound_to 7965
  156.2777  140.2755  156.1679 H   0  0  0  0  0  0  0  0  0  0  0  0  # atno 8008 bound_to 7997
  155.0685  140.0387  157.2618 H   0  0  0  0  0  0  0  0  0  0  0  0  # atno 8009 bound_to 7997
  154.7059  140.2658  155.6681 H   0  0  0  0  0  0  0  0  0  0  0  0  # atno 8010 bound_to 7997
  139.6165  144.7093  151.2729 H   0  0  0  0  0  0  0  0  0  0  0  0  # atno 10167 bound_to 10162
  157.1364  130.6613  149.5967 H   0  0  0  0  0  0  0  0  0  0  0  0  # atno 10718 bound_to 10713
  153.1357  135.4664  154.9419 H   0  0  0  0  0  0  0  0  0  0  0  0  # atno 10763 bound_to 10752
  154.7704  135.3157  154.8204 H   0  0  0  0  0  0  0  0  0  0  0  0  # atno 10764 bound_to 10752
  153.8737  135.6901  153.4826 H   0  0  0  0  0  0  0  0  0  0  0  0  # atno 10765 bound_to 10752
  139.9263  134.7666  156.1496 H   0  0  0  0  0  0  0  0  0  0  0  0  # atno 11005 bound_to 11000
  145.4164  141.0402  143.2988 LP  0  0  0  0  0  0  0  0  0  0  0  0  # atno 17320 bound_to 7965
  144.8264  139.5703  143.6964 LP  0  0  0  0  0  0  0  0  0  0  0  0  # atno 17321 bound_to 7965
  140.7354  143.6738  150.8059 LP  0  0  0  0  0  0  0  0  0  0  0  0  # atno 17342 bound_to 10162
  140.0341  143.5413  152.2747 LP  0  0  0  0  0  0  0  0  0  0  0  0  # atno 17343 bound_to 10162
  155.9797  130.4793  150.6732 LP  0  0  0  0  0  0  0  0  0  0  0  0  # atno 17370 bound_to 10713
  157.4347  131.0853  151.1004 LP  0  0  0  0  0  0  0  0  0  0  0  0  # atno 17371 bound_to 10713
  141.0823  133.6749  156.2362 LP  0  0  0  0  0  0  0  0  0  0  0  0  # atno 17394 bound_to 11000
  140.6326  134.5248  157.5561 LP  0  0  0  0  0  0  0  0  0  0  0  0  # atno 17395 bound_to 11000

$$$$
