AV-unprocessed.smi:1582|AV-procd|sdf|6361|dock1
  -GOLD-   22720 6583D 1   1.00000     0.00000
 Structure written by MMmdl.
 41 42  0  0  0  0  0  0  0  0  2 V2000
  143.8279  135.6384  152.0819 O   0  0  0  0  0  0  0  0  0  0  0  0
  145.0137  135.5681  151.7586 C   0  0  0  0  0  0  0  0  0  0  0  0
  145.8970  136.5541  151.9684 N   0  0  0  0  0  0  0  0  0  0  0  0
  145.5850  137.8465  152.5701 C   0  0  0  0  0  0  0  0  0  0  0  0
  146.8427  138.7212  152.7556 C   0  0  2  0  0  0  0  0  0  0  0  0
  147.5028  138.8243  151.5090 O   0  0  0  0  0  0  0  0  0  0  0  0
  147.8389  138.0751  153.7411 C   0  0  0  0  0  0  0  0  0  0  0  0
  149.0332  138.9234  153.9907 N   0  3  0  0  0  0  0  0  0  0  0  0
  150.1746  138.1412  154.5336 C   0  0  0  0  0  0  0  0  0  0  0  0
  151.4402  139.0072  154.6487 C   0  0  0  0  0  0  0  0  0  0  0  0
  151.1779  140.2522  155.5051 C   0  0  0  0  0  0  0  0  0  0  0  0
  149.9792  141.0277  154.9442 C   0  0  0  0  0  0  0  0  0  0  0  0
  148.7429  140.1207  154.8251 C   0  0  0  0  0  0  0  0  0  0  0  0
  145.5906  134.5131  151.1605 N   0  0  0  0  0  0  0  0  0  0  0  0
  144.9681  133.3027  150.7628 C   0  0  0  0  0  0  0  0  0  0  0  0
  145.6618  132.1410  150.3273 C   0  0  0  0  0  0  0  0  0  0  0  0
  144.8218  131.1641  150.0162 N   0  0  0  0  0  0  0  0  0  0  0  0
  143.5986  131.6909  150.2502 N   0  0  0  0  0  0  0  0  0  0  0  0
  143.6388  132.9900  150.7061 C   0  0  0  0  0  0  0  0  0  0  0  0
  142.7548  131.1574  150.0950 H   0  0  0  0  0  0  0  0  0  0  0  0
  146.8506  136.4086  151.6702 H   0  0  0  0  0  0  0  0  0  0  0  0
  144.9017  138.3370  151.8763 H   0  0  0  0  0  0  0  0  0  0  0  0
  145.0309  137.7303  153.5036 H   0  0  0  0  0  0  0  0  0  0  0  0
  146.5524  139.7143  153.0981 H   0  0  0  0  0  0  0  0  0  0  0  0
  148.2845  139.3447  151.6254 H   0  0  0  0  0  0  0  0  0  0  0  0
  147.3523  137.8555  154.6927 H   0  0  0  0  0  0  0  0  0  0  0  0
  148.1495  137.1119  153.3324 H   0  0  0  0  0  0  0  0  0  0  0  0
  149.9059  137.7330  155.5093 H   0  0  0  0  0  0  0  0  0  0  0  0
  150.3837  137.2927  153.8810 H   0  0  0  0  0  0  0  0  0  0  0  0
  152.2540  138.4229  155.0793 H   0  0  0  0  0  0  0  0  0  0  0  0
  151.7693  139.3093  153.6533 H   0  0  0  0  0  0  0  0  0  0  0  0
  150.9779  139.9564  156.5358 H   0  0  0  0  0  0  0  0  0  0  0  0
  152.0630  140.8887  155.5278 H   0  0  0  0  0  0  0  0  0  0  0  0
  149.7557  141.8815  155.5849 H   0  0  0  0  0  0  0  0  0  0  0  0
  150.2311  141.4340  153.9636 H   0  0  0  0  0  0  0  0  0  0  0  0
  147.9254  140.6967  154.3936 H   0  0  0  0  0  0  0  0  0  0  0  0
  148.4158  139.8038  155.8167 H   0  0  0  0  0  0  0  0  0  0  0  0
  146.5757  134.5884  150.9530 H   0  0  0  0  0  0  0  0  0  0  0  0
  146.7249  131.9776  150.2273 H   0  0  0  0  0  0  0  0  0  0  0  0
  142.7444  133.5489  150.9382 H   0  0  0  0  0  0  0  0  0  0  0  0
  149.3304  139.2584  153.0850 H   0  0  0  0  0  0  0  0  0  0  0  0
  1  2  2  0  0  0  0
  2  3  1  0  0  0  0
  2 14  1  0  0  0  0
  3  4  1  0  0  0  0
  3 21  1  0  0  0  0
  4  5  1  0  0  0  0
  4 22  1  0  0  0  0
  4 23  1  0  0  0  0
  5  6  1  0  0  0  0
  5  7  1  0  0  0  0
  5 24  1  0  0  0  0
  6 25  1  0  0  0  0
  7  8  1  0  0  0  0
  7 26  1  0  0  0  0
  7 27  1  0  0  0  0
  8 13  1  0  0  0  0
  8  9  1  0  0  0  0
  8 41  1  0  0  0  0
  9 10  1  0  0  0  0
  9 28  1  0  0  0  0
  9 29  1  0  0  0  0
 10 11  1  0  0  0  0
 10 30  1  0  0  0  0
 10 31  1  0  0  0  0
 11 12  1  0  0  0  0
 11 32  1  0  0  0  0
 11 33  1  0  0  0  0
 12 13  1  0  0  0  0
 12 34  1  0  0  0  0
 12 35  1  0  0  0  0
 13 36  1  0  0  0  0
 13 37  1  0  0  0  0
 14 15  1  0  0  0  0
 14 38  1  0  0  0  0
 15 19  2  0  0  0  0
 15 16  1  0  0  0  0
 16 17  2  0  0  0  0
 16 39  1  0  0  0  0
 17 18  1  0  0  0  0
 18 20  1  0  0  0  0
 18 19  1  0  0  0  0
 19 40  1  0  0  0  0
M  CHG  1   8   1
M  END
> <s_m_source_file>
AV-unprocessed.smi

> <i_m_source_file_index>
1582

> <i_lp_mmshare_version>
43012

> <i_f3d_flags>
0

> <s_epik_input>
W2NIXTFbbkhdbltjSF1jMVtOSF1DKD1PKVtOSF1bQ0gyXVtDQEhdKFtPSF0pW0NIMl1OMltDSDJdW0NIMl1bQ0gyXVtDSDJdW0NIMl0y

> <s_epik_cmdline>
J2VwaWtfcHl0aG9uJywgJy1waCcsICc3LjAnLCAnLXRuJywgJzgnLCAnLW1hJywgJzIwMCcsICctbWV0YWxfYmluZGluZycsICctaW1hZScsICc8aW5maWxlLm1hZT4nLCAnLW9tYWUnLCAnPG91dGZpbGUubWFlPic=

> <r_lp_tautomer_probability>
0.5

> <r_epik_Ionization_Penalty>
0.00519658

> <r_epik_Ionization_Penalty_Charging>
0.00515354

> <r_epik_Ionization_Penalty_Neutral>
4.30332e-05

> <r_epik_State_Penalty>
0.00375424

> <r_epik_Charging_Adjusted_Penalty>
0.00890779

> <i_epik_Tot_Q>
1

> <i_epik_Tot_abs_Q>
1

> <r_epik_Metal_State_Penalty>
-0

> <b_epik_Metal_Only>
0

> <s_lp_Force_Field>
OPLS_2005

> <r_lp_Energy>
21.997

> <b_lp_Chiralities_Consistent>
1

> <s_lp_Variant>
AV-unprocessed.smi:1582-1

> <Gold.Version>
5.8.1

> <Gold.Id.Protein>
6NUR|6NUR_protein|mol2

> <Gold.PLP.Fitness>
46.7062

> <Gold.PLP.PLP>
-29.0008

> <Gold.PLP.part.hbond>
-5.7738

> <Gold.PLP.part.metal>
0.0000

> <Gold.PLP.part.buried>
3.3726

> <Gold.PLP.part.nonpolar>
-26.4324

> <Gold.PLP.part.repulsive>
0.8806

> <Gold.PLP.ligand.clash>
0.0000

> <Gold.PLP.ligand.torsion>
0.1794

> <Gold.PLP.Chemscore.Hbond>
3.9958

> <Gold.PLP.Chemscore.CHOScore>
2.0000

> <Gold.PLP.Chemscore.Metal>
0.0000

> <Gold.Chemscore.Hbonds>
donor molecule, donor type, donor heavy atom, donor atom, acceptor molecule, acceptor atom, score
      L1  H     3    21       P1  7948  0.86
      L1  H     6    25       P1  7957  1.00
      L1  H     8    41       P1  7957  0.84
      L1  H    18    20       P1 10952  0.67
      P1  H  7954  7966       L1     6  0.63
      L1  C    16    39       P1 10747  1.00
      L1  C    19    40       P1 10186  1.00

> <Gold.PLP.Chemscore.Internal.Correction>
0.0770

> <Gold.Rescore>
     Score         DG    S(hbond)    S(metal)    S(lipo)     H(rot)  DE(clash)    DE(int)     intcor
     15.11     -18.09       3.05        0.00      77.46       2.59       1.69       1.30       ----

> <Gold.Chemscore.Fitness>
15.1053

> <Gold.Chemscore.DG>
-18.0909

> <Gold.Chemscore.ZeroCoef>
-5.4800

> <Gold.Chemscore.Hbond>
3.0455

> <Gold.Chemscore.Metal>
0.0000

> <Gold.Chemscore.Lipo>
77.4639

> <Gold.Chemscore.Internal_Hbond>
0.0000

> <Gold.Chemscore.DEClash>
1.6905

> <Gold.Chemscore.DEInternal>
1.2951

> <Gold.Chemscore.Rot>
2.5876

> <Gold.Chemscore.Internal.Correction>
   9.000000E+99

> <Gold.Chemscore.Hbonds>
donor molecule, donor type, donor heavy atom, donor atom, acceptor molecule, acceptor atom, score
      L1  H     3    21       P1  7948  0.83
      L1  H     6    25       P1  7957  0.89
      L1  H     8    41       P1  7957  0.82
      L1  H    18    20       P1 10952  0.57
      P1  H  7954  7966       L1     6  0.06

> <Gold.Chemscore.Hbond.Weighted>
-10.1718

> <Gold.Chemscore.Metal.Weighted>
-0.0000

> <Gold.Chemscore.Lipo.Weighted>
-9.0633

> <Gold.Chemscore.Internal_Hbond.Weighted>
0.0000

> <Gold.Chemscore.DEClash.Weighted>
1.6905

> <Gold.Chemscore.DEInternal.Weighted>
1.2951

> <Gold.Chemscore.Rot.Weighted>
6.6242

> <Gold.Chemscore.Internal.Correction.Weighted>
   9.000000E+99

> <Gold.Protein.RotatedTorsions>
[ 6907 6896 6895 6894 ] final -129.03 input  -60.11 | X-H torsion
[ 7974 7965 7964 7962 ] final   82.89 input  175.53 | X-H torsion
[ 8008 7997 7996 7995 ] final -127.31 input   59.86 | X-H torsion
[ 10167 10162 10161 10158 ] final   -4.92 input  -65.29 | X-H torsion
[ 10718 10713 10712 10709 ] final -156.53 input   66.30 | X-H torsion
[ 10763 10752 10751 10750 ] final   47.08 input  -60.55 | X-H torsion
[ 11005 11000 10999 10996 ] final  -71.95 input  -57.11 | X-H torsion

> <Gold.Protein.ActiveResidues>
 VAL166  LYS551  ARG553  GLY616  TRP617  ASP618  TYR619  PRO620  LYS621  CYS622 
 ASP623  PHE694  ASN695  SER759  ASP760  ASP761  ALA762  ILE779  LEU786  VAL792 
 PHE793  MET794  SER795  GLU796  ALA797  LYS798  CYS799  TRP800  GLU811  SER814 

> <Gold.Protein.RotatedAtoms>
  150.9242  133.6843  159.2824 H   0  0  0  0  0  0  0  0  0  0  0  0  # atno 6907 bound_to 6896
  151.4287  135.1005  159.9645 H   0  0  0  0  0  0  0  0  0  0  0  0  # atno 6908 bound_to 6896
  152.4995  133.8678  159.7338 H   0  0  0  0  0  0  0  0  0  0  0  0  # atno 6909 bound_to 6896
  145.6191  139.2382  143.2149 H   0  0  0  0  0  0  0  0  0  0  0  0  # atno 7974 bound_to 7965
  155.2441  140.0430  157.2978 H   0  0  0  0  0  0  0  0  0  0  0  0  # atno 8008 bound_to 7997
  154.5810  140.2400  155.8024 H   0  0  0  0  0  0  0  0  0  0  0  0  # atno 8009 bound_to 7997
  156.2193  140.2975  155.9922 H   0  0  0  0  0  0  0  0  0  0  0  0  # atno 8010 bound_to 7997
  140.6945  143.6367  150.8472 H   0  0  0  0  0  0  0  0  0  0  0  0  # atno 10167 bound_to 10162
  156.5279  130.8507  151.2705 H   0  0  0  0  0  0  0  0  0  0  0  0  # atno 10718 bound_to 10713
  152.9803  135.5988  154.3704 H   0  0  0  0  0  0  0  0  0  0  0  0  # atno 10763 bound_to 10752
  154.3378  135.2768  155.2440 H   0  0  0  0  0  0  0  0  0  0  0  0  # atno 10764 bound_to 10752
  154.4536  135.5983  153.6263 H   0  0  0  0  0  0  0  0  0  0  0  0  # atno 10765 bound_to 10752
  141.1601  133.6832  156.6984 H   0  0  0  0  0  0  0  0  0  0  0  0  # atno 11005 bound_to 11000
  146.1445  140.7011  142.9351 LP  0  0  0  0  0  0  0  0  0  0  0  0  # atno 17320 bound_to 7965
  144.7238  140.4461  143.6988 LP  0  0  0  0  0  0  0  0  0  0  0  0  # atno 17321 bound_to 7965
  140.0084  143.5669  152.2848 LP  0  0  0  0  0  0  0  0  0  0  0  0  # atno 17342 bound_to 10162
  139.6384  144.7652  151.2390 LP  0  0  0  0  0  0  0  0  0  0  0  0  # atno 17343 bound_to 10162
  157.7426  130.9895  150.2532 LP  0  0  0  0  0  0  0  0  0  0  0  0  # atno 17370 bound_to 10713
  156.3088  130.3769  149.7681 LP  0  0  0  0  0  0  0  0  0  0  0  0  # atno 17371 bound_to 10713
  140.2977  134.8189  157.4071 LP  0  0  0  0  0  0  0  0  0  0  0  0  # atno 17394 bound_to 11000
  140.1290  134.5120  155.8121 LP  0  0  0  0  0  0  0  0  0  0  0  0  # atno 17395 bound_to 11000

$$$$
