AV-unprocessed.smi:3031|AV-procd|sdf|11556|dock6
  -GOLD-   2272016523D 1   1.00000     0.00000
 Structure written by MMmdl.
 46 47  0  0  0  0  0  0  0  0  1 V2000
  145.2957  132.3230  150.8200 C   0  0  0  0  0  0  0  0  0  0  0  0
  144.9076  133.5910  151.5241 C   0  0  0  0  0  0  0  0  0  0  0  0
  144.2433  133.7271  152.7758 C   0  0  0  0  0  0  0  0  0  0  0  0
  144.0358  134.9892  153.1130 N   0  0  0  0  0  0  0  0  0  0  0  0
  144.5752  135.7037  152.1021 N   0  0  0  0  0  0  0  0  0  0  0  0
  144.5024  137.1555  152.1240 C   0  0  0  0  0  0  0  0  0  0  0  0
  145.8842  137.8504  152.1983 C   0  0  1  0  0  0  0  0  0  0  0  0
  146.5783  137.8130  150.8295 C   0  0  0  0  0  0  0  0  0  0  0  0
  145.8026  139.2473  152.6379 N   0  0  0  0  0  0  0  0  0  0  0  0
  147.0549  140.0018  152.6411 C   0  0  0  0  0  0  0  0  0  0  0  0
  147.8878  139.7025  153.9017 C   0  0  1  0  0  0  0  0  0  0  0  0
  148.4080  138.3980  153.7566 O   0  0  0  0  0  0  0  0  0  0  0  0
  149.0976  140.6460  154.0928 C   0  0  0  0  0  0  0  0  0  0  0  0
  150.0053  140.3094  155.1908 N   0  0  0  0  0  0  0  0  0  0  0  0
  150.6262  141.5047  155.7495 C   0  0  0  0  0  0  0  0  0  0  0  0
  151.5658  141.1671  156.9201 C   0  0  0  0  0  0  0  0  0  0  0  0
  152.5547  140.2394  156.4853 O   0  0  0  0  0  0  0  0  0  0  0  0
  151.9918  139.0380  155.9682 C   0  0  0  0  0  0  0  0  0  0  0  0
  151.0523  139.3698  154.7956 C   0  0  0  0  0  0  0  0  0  0  0  0
  145.0929  134.8831  151.1214 C   0  0  0  0  0  0  0  0  0  0  0  0
  145.4865  131.5123  151.5234 H   0  0  0  0  0  0  0  0  0  0  0  0
  146.2005  132.4508  150.2257 H   0  0  0  0  0  0  0  0  0  0  0  0
  144.5108  131.9838  150.1439 H   0  0  0  0  0  0  0  0  0  0  0  0
  143.9020  132.9494  153.4428 H   0  0  0  0  0  0  0  0  0  0  0  0
  143.9892  137.4519  151.2082 H   0  0  0  0  0  0  0  0  0  0  0  0
  143.8644  137.4814  152.9475 H   0  0  0  0  0  0  0  0  0  0  0  0
  146.5253  137.2981  152.8860 H   0  0  0  0  0  0  0  0  0  0  0  0
  146.7217  136.7871  150.4889 H   0  0  0  0  0  0  0  0  0  0  0  0
  147.5623  138.2815  150.8739 H   0  0  0  0  0  0  0  0  0  0  0  0
  145.9936  138.3369  150.0723 H   0  0  0  0  0  0  0  0  0  0  0  0
  145.1233  139.7396  152.0651 H   0  0  0  0  0  0  0  0  0  0  0  0
  147.6416  139.7350  151.7638 H   0  0  0  0  0  0  0  0  0  0  0  0
  146.8561  141.0723  152.5758 H   0  0  0  0  0  0  0  0  0  0  0  0
  147.2493  139.6896  154.7851 H   0  0  0  0  0  0  0  0  0  0  0  0
  148.3633  138.1586  152.8434 H   0  0  0  0  0  0  0  0  0  0  0  0
  149.6673  140.6890  153.1628 H   0  0  0  0  0  0  0  0  0  0  0  0
  148.7130  141.6551  154.2490 H   0  0  0  0  0  0  0  0  0  0  0  0
  151.1889  142.0268  154.9740 H   0  0  0  0  0  0  0  0  0  0  0  0
  149.8558  142.1954  156.0946 H   0  0  0  0  0  0  0  0  0  0  0  0
  152.0578  142.0688  157.2847 H   0  0  0  0  0  0  0  0  0  0  0  0
  151.0050  140.7461  157.7563 H   0  0  0  0  0  0  0  0  0  0  0  0
  152.7954  138.3801  155.6374 H   0  0  0  0  0  0  0  0  0  0  0  0
  151.4514  138.5125  156.7575 H   0  0  0  0  0  0  0  0  0  0  0  0
  150.6136  138.4418  154.4313 H   0  0  0  0  0  0  0  0  0  0  0  0
  151.6337  139.7867  153.9718 H   0  0  0  0  0  0  0  0  0  0  0  0
  145.5470  135.2820  150.2261 H   0  0  0  0  0  0  0  0  0  0  0  0
  1  2  1  0  0  0  0
  1 21  1  0  0  0  0
  1 22  1  0  0  0  0
  1 23  1  0  0  0  0
  2 20  2  0  0  0  0
  2  3  1  0  0  0  0
  3  4  2  0  0  0  0
  3 24  1  0  0  0  0
  4  5  1  0  0  0  0
  5  6  1  0  0  0  0
  5 20  1  0  0  0  0
  6  7  1  0  0  0  0
  6 25  1  0  0  0  0
  6 26  1  0  0  0  0
  7  8  1  0  0  0  0
  7  9  1  0  0  0  0
  7 27  1  0  0  0  0
  8 28  1  0  0  0  0
  8 29  1  0  0  0  0
  8 30  1  0  0  0  0
  9 10  1  0  0  0  0
  9 31  1  0  0  0  0
 10 11  1  0  0  0  0
 10 32  1  0  0  0  0
 10 33  1  0  0  0  0
 11 12  1  0  0  0  0
 11 13  1  0  0  0  0
 11 34  1  0  0  0  0
 12 35  1  0  0  0  0
 13 14  1  0  0  0  0
 13 36  1  0  0  0  0
 13 37  1  0  0  0  0
 14 19  1  0  0  0  0
 14 15  1  0  0  0  0
 15 16  1  0  0  0  0
 15 38  1  0  0  0  0
 15 39  1  0  0  0  0
 16 17  1  0  0  0  0
 16 40  1  0  0  0  0
 16 41  1  0  0  0  0
 17 18  1  0  0  0  0
 18 19  1  0  0  0  0
 18 42  1  0  0  0  0
 18 43  1  0  0  0  0
 19 44  1  0  0  0  0
 19 45  1  0  0  0  0
 20 46  1  0  0  0  0
M  END
> <s_m_source_file>
AV-unprocessed.smi

> <i_m_source_file_index>
3031

> <i_lp_mmshare_version>
43012

> <i_f3d_flags>
0

> <s_epik_input>
W0NIM11jMVtjSF1ubihbY0hdMSlbQ0gyXVtDQEhdKFtDSDNdKVtOSF1bQ0gyXVtDQEhdKFtPSF0pW0NIMl1OMltDSDJdW0NIMl1PW0NIMl1bQ0gyXTI=

> <s_epik_cmdline>
J2VwaWtfcHl0aG9uJywgJy1waCcsICc3LjAnLCAnLXRuJywgJzgnLCAnLW1hJywgJzIwMCcsICctbWV0YWxfYmluZGluZycsICctaW1hZScsICc8aW5maWxlLm1hZT4nLCAnLW9tYWUnLCAnPG91dGZpbGUubWFlPic=

> <r_lp_tautomer_probability>
1

> <r_epik_Ionization_Penalty>
2.8101

> <r_epik_Ionization_Penalty_Charging>
0

> <r_epik_Ionization_Penalty_Neutral>
2.8101

> <r_epik_State_Penalty>
2.12351

> <r_epik_Charging_Adjusted_Penalty>
2.12351

> <i_epik_Tot_Q>
0

> <i_epik_Tot_abs_Q>
0

> <r_epik_Metal_State_Penalty>
2.12345

> <b_epik_Metal_Only>
0

> <s_lp_Force_Field>
OPLS_2005

> <r_lp_Energy>
29.6213

> <b_lp_Chiralities_Consistent>
1

> <s_lp_Variant>
AV-unprocessed.smi:3031-16

> <Gold.Version>
5.8.1

> <Gold.Id.Protein>
6NUR|6NUR_protein|mol2

> <Gold.PLP.Fitness>
45.9388

> <Gold.PLP.PLP>
-34.5141

> <Gold.PLP.part.hbond>
-3.0000

> <Gold.PLP.part.metal>
0.0000

> <Gold.PLP.part.buried>
4.1701

> <Gold.PLP.part.nonpolar>
-35.3316

> <Gold.PLP.part.repulsive>
0.1228

> <Gold.PLP.ligand.clash>
0.0000

> <Gold.PLP.ligand.torsion>
0.7229

> <Gold.PLP.Chemscore.Hbond>
2.3445

> <Gold.PLP.Chemscore.CHOScore>
1.9044

> <Gold.PLP.Chemscore.Metal>
0.0000

> <Gold.Chemscore.Hbonds>
donor molecule, donor type, donor heavy atom, donor atom, acceptor molecule, acceptor atom, score
      L1  H     9    31       P1 10175  0.64
      L1  H    12    35       P1  7948  0.31
      P1  H  7997  8010       L1    17  0.94
      L1  C     3    24       P1 10957  1.00
      L1  C    20    46       P1  7921  0.60

> <Gold.PLP.Chemscore.Internal.Correction>
0.1236

> <Gold.Rescore>
     Score         DG    S(hbond)    S(metal)    S(lipo)     H(rot)  DE(clash)    DE(int)     intcor
     14.80     -17.99       2.64        0.00      86.98       2.53       1.32       1.88       ----

> <Gold.Chemscore.Fitness>
14.7967

> <Gold.Chemscore.DG>
-17.9912

> <Gold.Chemscore.ZeroCoef>
-5.4800

> <Gold.Chemscore.Hbond>
2.6405

> <Gold.Chemscore.Metal>
0.0000

> <Gold.Chemscore.Lipo>
86.9826

> <Gold.Chemscore.Internal_Hbond>
0.0000

> <Gold.Chemscore.DEClash>
1.3158

> <Gold.Chemscore.DEInternal>
1.8787

> <Gold.Chemscore.Rot>
2.5333

> <Gold.Chemscore.Internal.Correction>
   9.000000E+99

> <Gold.Chemscore.Hbonds>
donor molecule, donor type, donor heavy atom, donor atom, acceptor molecule, acceptor atom, score
      L1  H     9    31       P1 10175  0.58
      L1  H    12    35       P1  7948  0.31
      P1  H  7997  8010       L1    17  0.55

> <Gold.Chemscore.Hbond.Weighted>
-8.8193

> <Gold.Chemscore.Metal.Weighted>
-0.0000

> <Gold.Chemscore.Lipo.Weighted>
-10.1770

> <Gold.Chemscore.Internal_Hbond.Weighted>
0.0000

> <Gold.Chemscore.DEClash.Weighted>
1.3158

> <Gold.Chemscore.DEInternal.Weighted>
1.8787

> <Gold.Chemscore.Rot.Weighted>
6.4852

> <Gold.Chemscore.Internal.Correction.Weighted>
   9.000000E+99

> <Gold.Protein.RotatedTorsions>
[ 6907 6896 6895 6894 ] final  108.84 input  -60.11 | X-H torsion
[ 7974 7965 7964 7962 ] final -107.52 input  175.53 | X-H torsion
[ 8008 7997 7996 7995 ] final   87.59 input   59.86 | X-H torsion
[ 10167 10162 10161 10158 ] final  -13.07 input  -65.29 | X-H torsion
[ 10718 10713 10712 10709 ] final -165.20 input   66.30 | X-H torsion
[ 10763 10752 10751 10750 ] final  178.60 input  -60.55 | X-H torsion
[ 11005 11000 10999 10996 ] final  -35.14 input  -57.11 | X-H torsion

> <Gold.Protein.ActiveResidues>
 VAL166  LYS551  ARG553  GLY616  TRP617  ASP618  TYR619  PRO620  LYS621  CYS622 
 ASP623  PHE694  ASN695  SER759  ASP760  ASP761  ALA762  ILE779  LEU786  VAL792 
 PHE793  MET794  SER795  GLU796  ALA797  LYS798  CYS799  TRP800  GLU811  SER814 

> <Gold.Protein.RotatedAtoms>
  152.5094  133.9031  159.7450 H   0  0  0  0  0  0  0  0  0  0  0  0  # atno 6907 bound_to 6896
  150.9442  133.6614  159.2791 H   0  0  0  0  0  0  0  0  0  0  0  0  # atno 6908 bound_to 6896
  151.3915  135.0961  159.9580 H   0  0  0  0  0  0  0  0  0  0  0  0  # atno 6909 bound_to 6896
  145.2043  140.9069  143.3351 H   0  0  0  0  0  0  0  0  0  0  0  0  # atno 7974 bound_to 7965
  155.9773  140.3380  155.6630 H   0  0  0  0  0  0  0  0  0  0  0  0  # atno 8008 bound_to 7997
  155.6595  140.0714  157.2577 H   0  0  0  0  0  0  0  0  0  0  0  0  # atno 8009 bound_to 7997
  154.4182  140.1711  156.1749 H   0  0  0  0  0  0  0  0  0  0  0  0  # atno 8010 bound_to 7997
  140.7175  143.5465  150.9350 H   0  0  0  0  0  0  0  0  0  0  0  0  # atno 10167 bound_to 10162
  156.6500  130.9003  151.3011 H   0  0  0  0  0  0  0  0  0  0  0  0  # atno 10718 bound_to 10713
  154.5098  135.2788  155.1352 H   0  0  0  0  0  0  0  0  0  0  0  0  # atno 10763 bound_to 10752
  154.2952  135.6259  153.5405 H   0  0  0  0  0  0  0  0  0  0  0  0  # atno 10764 bound_to 10752
  152.9916  135.5683  154.5561 H   0  0  0  0  0  0  0  0  0  0  0  0  # atno 10765 bound_to 10752
  140.9772  133.7076  156.1622 H   0  0  0  0  0  0  0  0  0  0  0  0  # atno 11005 bound_to 11000
  144.9917  139.3683  143.6211 LP  0  0  0  0  0  0  0  0  0  0  0  0  # atno 17320 bound_to 7965
  146.3411  139.9103  142.8781 LP  0  0  0  0  0  0  0  0  0  0  0  0  # atno 17321 bound_to 7965
  139.9188  143.6631  152.3101 LP  0  0  0  0  0  0  0  0  0  0  0  0  # atno 17342 bound_to 10162
  139.7040  144.7631  151.1224 LP  0  0  0  0  0  0  0  0  0  0  0  0  # atno 17343 bound_to 10162
  157.7144  130.9479  150.1202 LP  0  0  0  0  0  0  0  0  0  0  0  0  # atno 17370 bound_to 10713
  156.2092  130.3665  149.8691 LP  0  0  0  0  0  0  0  0  0  0  0  0  # atno 17371 bound_to 10713
  140.7241  134.4326  157.5572 LP  0  0  0  0  0  0  0  0  0  0  0  0  # atno 17394 bound_to 11000
  139.8935  134.8728  156.2219 LP  0  0  0  0  0  0  0  0  0  0  0  0  # atno 17395 bound_to 11000

$$$$
