AV-unprocessed.smi:2154|AV-procd|sdf|8770|dock1
  -GOLD-   2272011553D 1   1.00000     0.00000
 Structure written by MMmdl.
 32 33  0  0  0  0  0  0  0  0  1 V2000
  152.5648  142.8041  161.1928 C   0  0  0  0  0  0  0  0  0  0  0  0
  152.6822  143.8287  160.0852 C   0  0  2  0  0  0  0  0  0  0  0  0
  152.0171  145.1798  160.2136 C   0  0  0  0  0  0  0  0  0  0  0  0
  151.4901  144.1712  159.2197 C   0  0  1  0  0  0  0  0  0  0  0  0
  151.6614  144.3828  157.7272 C   0  0  0  0  0  0  0  0  0  0  0  0
  150.8585  143.5058  156.8846 N   0  0  0  0  0  0  0  0  0  0  0  0
  151.0279  142.1798  156.7719 C   0  0  0  0  0  0  0  0  0  0  0  0
  151.8920  141.5567  157.3910 O   0  0  0  0  0  0  0  0  0  0  0  0
  150.0562  141.4545  155.8293 C   0  0  0  0  0  0  0  0  0  0  0  0
  150.3908  140.0363  155.6313 N   0  0  0  0  0  0  0  0  0  0  0  0
  150.5201  139.5198  154.3496 C   0  0  0  0  0  0  0  0  0  0  0  0
  150.8139  138.2229  154.0943 C   0  0  0  0  0  0  0  0  0  0  0  0
  151.0133  137.2809  155.1905 C   0  0  0  0  0  0  0  0  0  0  0  0
  151.2836  136.0890  155.0611 O   0  0  0  0  0  0  0  0  0  0  0  0
  150.8724  137.8375  156.4647 N   0  0  0  0  0  0  0  0  0  0  0  0
  150.5683  139.1729  156.7347 C   0  0  0  0  0  0  0  0  0  0  0  0
  150.4625  139.5598  157.8979 O   0  0  0  0  0  0  0  0  0  0  0  0
  150.9979  137.2224  157.2554 H   0  0  0  0  0  0  0  0  0  0  0  0
  151.5817  142.8513  161.6626 H   0  0  0  0  0  0  0  0  0  0  0  0
  153.3230  142.9877  161.9541 H   0  0  0  0  0  0  0  0  0  0  0  0
  152.7103  141.8014  160.7907 H   0  0  0  0  0  0  0  0  0  0  0  0
  153.6507  143.8226  159.5882 H   0  0  0  0  0  0  0  0  0  0  0  0
  151.4152  145.3688  161.1004 H   0  0  0  0  0  0  0  0  0  0  0  0
  152.5560  146.0420  159.8259 H   0  0  0  0  0  0  0  0  0  0  0  0
  150.5594  143.6743  159.4878 H   0  0  0  0  0  0  0  0  0  0  0  0
  151.4081  145.4142  157.4800 H   0  0  0  0  0  0  0  0  0  0  0  0
  152.7164  144.2611  157.4769 H   0  0  0  0  0  0  0  0  0  0  0  0
  150.1220  143.9386  156.3460 H   0  0  0  0  0  0  0  0  0  0  0  0
  149.0502  141.5504  156.2403 H   0  0  0  0  0  0  0  0  0  0  0  0
  150.0242  141.9707  154.8676 H   0  0  0  0  0  0  0  0  0  0  0  0
  150.3764  140.1801  153.5062 H   0  0  0  0  0  0  0  0  0  0  0  0
  150.9007  137.8800  153.0733 H   0  0  0  0  0  0  0  0  0  0  0  0
  1  2  1  0  0  0  0
  1 19  1  0  0  0  0
  1 20  1  0  0  0  0
  1 21  1  0  0  0  0
  2  4  1  0  0  0  0
  2  3  1  0  0  0  0
  2 22  1  0  0  0  0
  3  4  1  0  0  0  0
  3 23  1  0  0  0  0
  3 24  1  0  0  0  0
  4  5  1  0  0  0  0
  4 25  1  0  0  0  0
  5  6  1  0  0  0  0
  5 26  1  0  0  0  0
  5 27  1  0  0  0  0
  6  7  1  0  0  0  0
  6 28  1  0  0  0  0
  7  8  2  0  0  0  0
  7  9  1  0  0  0  0
  9 10  1  0  0  0  0
  9 29  1  0  0  0  0
  9 30  1  0  0  0  0
 10 16  1  0  0  0  0
 10 11  1  0  0  0  0
 11 12  2  0  0  0  0
 11 31  1  0  0  0  0
 12 13  1  0  0  0  0
 12 32  1  0  0  0  0
 13 14  2  0  0  0  0
 13 15  1  0  0  0  0
 15 18  1  0  0  0  0
 15 16  1  0  0  0  0
 16 17  2  0  0  0  0
M  END
> <s_m_source_file>
AV-unprocessed.smi

> <i_m_source_file_index>
2154

> <i_lp_mmshare_version>
43012

> <i_f3d_flags>
0

> <s_epik_input>
W0NIM11bQ0BASF0xW0NIMl1bQ0BIXTFbQ0gyXVtOSF1DKD1PKVtDSDJdbjJbY0hdW2NIXWMoPU8pW25IXWMyPU8=

> <s_epik_cmdline>
J2VwaWtfcHl0aG9uJywgJy1waCcsICc3LjAnLCAnLXRuJywgJzgnLCAnLW1hJywgJzIwMCcsICctbWV0YWxfYmluZGluZycsICctaW1hZScsICc8aW5maWxlLm1hZT4nLCAnLW9tYWUnLCAnPG91dGZpbGUubWFlPic=

> <r_lp_tautomer_probability>
0.999537

> <r_epik_Ionization_Penalty>
0.00305319

> <r_epik_Ionization_Penalty_Charging>
0.00305317

> <r_epik_Ionization_Penalty_Neutral>
2.06703e-08

> <r_epik_State_Penalty>
0.00214626

> <r_epik_Charging_Adjusted_Penalty>
0.00519944

> <i_epik_Tot_Q>
0

> <i_epik_Tot_abs_Q>
0

> <r_epik_Metal_State_Penalty>
0.361976

> <b_epik_Metal_Only>
0

> <s_lp_Force_Field>
OPLS_2005

> <r_lp_Energy>
14.8424

> <b_lp_Chiralities_Consistent>
1

> <s_lp_Variant>
AV-unprocessed.smi:2154-1

> <Gold.Version>
5.8.1

> <Gold.Id.Protein>
6NUR|6NUR_protein|mol2

> <Gold.PLP.Fitness>
44.9148

> <Gold.PLP.PLP>
-36.4490

> <Gold.PLP.part.hbond>
-2.0000

> <Gold.PLP.part.metal>
0.0000

> <Gold.PLP.part.buried>
-2.3120

> <Gold.PLP.part.nonpolar>
-31.9316

> <Gold.PLP.part.repulsive>
0.1769

> <Gold.PLP.ligand.clash>
0.0000

> <Gold.PLP.ligand.torsion>
0.5469

> <Gold.PLP.Chemscore.Hbond>
2.0000

> <Gold.PLP.Chemscore.CHOScore>
1.0000

> <Gold.PLP.Chemscore.Metal>
0.0000

> <Gold.Chemscore.Hbonds>
donor molecule, donor type, donor heavy atom, donor atom, acceptor molecule, acceptor atom, score
      L1  H     6    28       P1  8028  1.00
      P1  H 10752 10763       L1    14  1.00
      L1  C    11    31       P1  7957  1.00

> <Gold.PLP.Chemscore.Internal.Correction>
0.5596

> <Gold.Rescore>
     Score         DG    S(hbond)    S(metal)    S(lipo)     H(rot)  DE(clash)    DE(int)     intcor
     14.90     -16.81       1.98        0.00      84.32       2.01       1.37       0.54       ----

> <Gold.Chemscore.Fitness>
14.9007

> <Gold.Chemscore.DG>
-16.8092

> <Gold.Chemscore.ZeroCoef>
-5.4800

> <Gold.Chemscore.Hbond>
1.9763

> <Gold.Chemscore.Metal>
0.0000

> <Gold.Chemscore.Lipo>
84.3157

> <Gold.Chemscore.Internal_Hbond>
0.0000

> <Gold.Chemscore.DEClash>
1.3704

> <Gold.Chemscore.DEInternal>
0.5382

> <Gold.Chemscore.Rot>
2.0065

> <Gold.Chemscore.Internal.Correction>
   9.000000E+99

> <Gold.Chemscore.Hbonds>
donor molecule, donor type, donor heavy atom, donor atom, acceptor molecule, acceptor atom, score
      L1  H     6    28       P1  8028  0.99
      P1  H 10752 10763       L1    14  0.96

> <Gold.Chemscore.Hbond.Weighted>
-6.6009

> <Gold.Chemscore.Metal.Weighted>
-0.0000

> <Gold.Chemscore.Lipo.Weighted>
-9.8649

> <Gold.Chemscore.Internal_Hbond.Weighted>
0.0000

> <Gold.Chemscore.DEClash.Weighted>
1.3704

> <Gold.Chemscore.DEInternal.Weighted>
0.5382

> <Gold.Chemscore.Rot.Weighted>
5.1366

> <Gold.Chemscore.Internal.Correction.Weighted>
   9.000000E+99

> <Gold.Protein.RotatedTorsions>
[ 6907 6896 6895 6894 ] final  141.98 input  -60.11 | X-H torsion
[ 7974 7965 7964 7962 ] final   45.92 input  175.53 | X-H torsion
[ 8008 7997 7996 7995 ] final   36.65 input   59.86 | X-H torsion
[ 10167 10162 10161 10158 ] final   39.75 input  -65.29 | X-H torsion
[ 10718 10713 10712 10709 ] final  144.09 input   66.30 | X-H torsion
[ 10763 10752 10751 10750 ] final   46.94 input  -60.55 | X-H torsion
[ 11005 11000 10999 10996 ] final  -52.04 input  -57.11 | X-H torsion

> <Gold.Protein.ActiveResidues>
 VAL166  LYS551  ARG553  GLY616  TRP617  ASP618  TYR619  PRO620  LYS621  CYS622 
 ASP623  PHE694  ASN695  SER759  ASP760  ASP761  ALA762  ILE779  LEU786  VAL792 
 PHE793  MET794  SER795  GLU796  ALA797  LYS798  CYS799  TRP800  GLU811  SER814 

> <Gold.Protein.RotatedAtoms>
  152.2244  133.5008  159.5179 H   0  0  0  0  0  0  0  0  0  0  0  0  # atno 6907 bound_to 6896
  150.7021  134.1300  159.4075 H   0  0  0  0  0  0  0  0  0  0  0  0  # atno 6908 bound_to 6896
  151.9221  135.0293  160.0573 H   0  0  0  0  0  0  0  0  0  0  0  0  # atno 6909 bound_to 6896
  146.0437  139.4912  142.9762 H   0  0  0  0  0  0  0  0  0  0  0  0  # atno 7974 bound_to 7965
  155.1908  140.3308  155.4359 H   0  0  0  0  0  0  0  0  0  0  0  0  # atno 8008 bound_to 7997
  156.2443  140.1910  156.6951 H   0  0  0  0  0  0  0  0  0  0  0  0  # atno 8009 bound_to 7997
  154.6207  140.0596  156.9597 H   0  0  0  0  0  0  0  0  0  0  0  0  # atno 8010 bound_to 7997
  140.3809  144.1981  150.6131 H   0  0  0  0  0  0  0  0  0  0  0  0  # atno 10167 bound_to 10162
  157.3613  131.0965  151.0913 H   0  0  0  0  0  0  0  0  0  0  0  0  # atno 10718 bound_to 10713
  152.9805  135.5992  154.3681 H   0  0  0  0  0  0  0  0  0  0  0  0  # atno 10763 bound_to 10752
  154.3357  135.2768  155.2451 H   0  0  0  0  0  0  0  0  0  0  0  0  # atno 10764 bound_to 10752
  154.4555  135.5979  153.6275 H   0  0  0  0  0  0  0  0  0  0  0  0  # atno 10765 bound_to 10752
  141.0903  133.6634  156.3966 H   0  0  0  0  0  0  0  0  0  0  0  0  # atno 11005 bound_to 11000
  145.6842  141.0182  143.1590 LP  0  0  0  0  0  0  0  0  0  0  0  0  # atno 17320 bound_to 7965
  144.7087  139.8457  143.7421 LP  0  0  0  0  0  0  0  0  0  0  0  0  # atno 17321 bound_to 7965
  140.4939  143.2339  151.8779 LP  0  0  0  0  0  0  0  0  0  0  0  0  # atno 17342 bound_to 10162
  139.4795  144.5136  151.8899 LP  0  0  0  0  0  0  0  0  0  0  0  0  # atno 17343 bound_to 10162
  157.2052  130.6412  149.5753 LP  0  0  0  0  0  0  0  0  0  0  0  0  # atno 17370 bound_to 10713
  155.9738  130.4678  150.6337 LP  0  0  0  0  0  0  0  0  0  0  0  0  # atno 17371 bound_to 10713
  140.5267  134.6252  157.5336 LP  0  0  0  0  0  0  0  0  0  0  0  0  # atno 17394 bound_to 11000
  139.9728  134.7265  156.0008 LP  0  0  0  0  0  0  0  0  0  0  0  0  # atno 17395 bound_to 11000

$$$$
