AV-unprocessed.smi:1919|AV-procd|sdf|7773|dock1
  -GOLD-   22720 9513D 1   1.00000     0.00000
 Structure written by MMmdl.
 36 38  0  0  0  0  0  0  0  0  1 V2000
  151.9682  137.0917  153.8750 O   0  0  0  0  0  0  0  0  0  0  0  0
  151.8735  138.1516  154.8016 C   0  0  0  0  0  0  0  0  0  0  0  0
  150.6553  139.0013  154.5995 C   0  0  0  0  0  0  0  0  0  0  0  0
  149.6679  138.6241  153.7860 N   0  0  0  0  0  0  0  0  0  0  0  0
  148.7575  139.6544  153.9125 C   0  0  0  0  0  0  0  0  0  0  0  0
  147.4952  139.8444  153.3059 C   0  0  0  0  0  0  0  0  0  0  0  0
  146.7263  140.9893  153.6009 C   0  0  0  0  0  0  0  0  0  0  0  0
  147.2072  141.9584  154.5051 C   0  0  0  0  0  0  0  0  0  0  0  0
  148.4631  141.7893  155.1187 C   0  0  0  0  0  0  0  0  0  0  0  0
  149.2286  140.6462  154.8181 C   0  0  0  0  0  0  0  0  0  0  0  0
  150.4764  140.1899  155.2323 N   0  0  0  0  0  0  0  0  0  0  0  0
  151.3638  140.8709  156.1676 C   0  0  0  0  0  0  0  0  0  0  0  0
  150.9779  140.6298  157.6417 C   0  0  2  0  0  0  0  0  0  0  0  0
  149.5763  140.7283  157.8010 O   0  0  0  0  0  0  0  0  0  0  0  0
  151.7343  141.5697  158.5671 C   0  0  0  0  0  0  0  0  0  0  0  0
  152.5493  141.0625  159.6034 C   0  0  0  0  0  0  0  0  0  0  0  0
  153.2354  141.9434  160.4622 C   0  0  0  0  0  0  0  0  0  0  0  0
  153.1084  143.3353  160.2919 C   0  0  0  0  0  0  0  0  0  0  0  0
  152.2931  143.8463  159.2639 C   0  0  0  0  0  0  0  0  0  0  0  0
  152.1665  145.1844  159.1023 F   0  0  0  0  0  0  0  0  0  0  0  0
  151.6074  142.9659  158.4047 C   0  0  0  0  0  0  0  0  0  0  0  0
  151.1955  137.0982  153.3315 H   0  0  0  0  0  0  0  0  0  0  0  0
  151.8535  137.7279  155.8064 H   0  0  0  0  0  0  0  0  0  0  0  0
  152.7683  138.7713  154.7458 H   0  0  0  0  0  0  0  0  0  0  0  0
  147.1170  139.1067  152.6138 H   0  0  0  0  0  0  0  0  0  0  0  0
  145.7621  141.1232  153.1329 H   0  0  0  0  0  0  0  0  0  0  0  0
  146.6113  142.8313  154.7274 H   0  0  0  0  0  0  0  0  0  0  0  0
  148.8329  142.5291  155.8127 H   0  0  0  0  0  0  0  0  0  0  0  0
  152.3761  140.5070  155.9870 H   0  0  0  0  0  0  0  0  0  0  0  0
  151.3839  141.9388  155.9540 H   0  0  0  0  0  0  0  0  0  0  0  0
  151.2420  139.6081  157.9161 H   0  0  0  0  0  0  0  0  0  0  0  0
  149.2163  141.1537  157.0379 H   0  0  0  0  0  0  0  0  0  0  0  0
  152.6483  139.9961  159.7453 H   0  0  0  0  0  0  0  0  0  0  0  0
  153.8576  141.5510  161.2531 H   0  0  0  0  0  0  0  0  0  0  0  0
  153.6344  144.0105  160.9506 H   0  0  0  0  0  0  0  0  0  0  0  0
  150.9808  143.3673  157.6217 H   0  0  0  0  0  0  0  0  0  0  0  0
  1  2  1  0  0  0  0
  1 22  1  0  0  0  0
  2  3  1  0  0  0  0
  2 23  1  0  0  0  0
  2 24  1  0  0  0  0
  3 11  1  0  0  0  0
  3  4  2  0  0  0  0
  4  5  1  0  0  0  0
  5 10  2  0  0  0  0
  5  6  1  0  0  0  0
  6  7  2  0  0  0  0
  6 25  1  0  0  0  0
  7  8  1  0  0  0  0
  7 26  1  0  0  0  0
  8  9  2  0  0  0  0
  8 27  1  0  0  0  0
  9 10  1  0  0  0  0
  9 28  1  0  0  0  0
 10 11  1  0  0  0  0
 11 12  1  0  0  0  0
 12 13  1  0  0  0  0
 12 29  1  0  0  0  0
 12 30  1  0  0  0  0
 13 14  1  0  0  0  0
 13 15  1  0  0  0  0
 13 31  1  0  0  0  0
 14 32  1  0  0  0  0
 15 21  1  0  0  0  0
 15 16  2  0  0  0  0
 16 17  1  0  0  0  0
 16 33  1  0  0  0  0
 17 18  2  0  0  0  0
 17 34  1  0  0  0  0
 18 19  1  0  0  0  0
 18 35  1  0  0  0  0
 19 20  1  0  0  0  0
 19 21  2  0  0  0  0
 21 36  1  0  0  0  0
M  END
> <s_m_source_file>
AV-unprocessed.smi

> <i_m_source_file_index>
1919

> <i_lp_mmshare_version>
43012

> <i_f3d_flags>
0

> <s_epik_input>
W2NIXTFbY0hdW2NIXVtjSF1jKGMxMiluKGMobjIpW0NIMl1bT0hdKVtDSDJdW0NASF0oW09IXSljM1tjSF1bY0hdW2NIXWMoRilbY0hdMw==

> <s_epik_cmdline>
J2VwaWtfcHl0aG9uJywgJy1waCcsICc3LjAnLCAnLXRuJywgJzgnLCAnLW1hJywgJzIwMCcsICctbWV0YWxfYmluZGluZycsICctaW1hZScsICc8aW5maWxlLm1hZT4nLCAnLW9tYWUnLCAnPG91dGZpbGUubWFlPic=

> <r_epik_Ionization_Penalty>
0.0634732

> <r_epik_Ionization_Penalty_Charging>
0

> <r_epik_Ionization_Penalty_Neutral>
0.0634732

> <r_epik_State_Penalty>
0.0551572

> <r_epik_Charging_Adjusted_Penalty>
0.0551572

> <i_epik_Tot_Q>
0

> <i_epik_Tot_abs_Q>
0

> <r_epik_Metal_State_Penalty>
5.78034e-05

> <b_epik_Metal_Only>
0

> <s_lp_Force_Field>
OPLS_2005

> <r_lp_Energy>
10.9146

> <b_lp_Chiralities_Consistent>
1

> <s_lp_Variant>
AV-unprocessed.smi:1919-1

> <Gold.Version>
5.8.1

> <Gold.Id.Protein>
6NUR|6NUR_protein|mol2

> <Gold.PLP.Fitness>
52.1448

> <Gold.PLP.PLP>
-49.3844

> <Gold.PLP.part.hbond>
-2.0000

> <Gold.PLP.part.metal>
0.0000

> <Gold.PLP.part.buried>
-0.9509

> <Gold.PLP.part.nonpolar>
-47.1364

> <Gold.PLP.part.repulsive>
1.1855

> <Gold.PLP.ligand.clash>
0.0000

> <Gold.PLP.ligand.torsion>
0.5617

> <Gold.PLP.Chemscore.Hbond>
1.2636

> <Gold.PLP.Chemscore.CHOScore>
0.0000

> <Gold.PLP.Chemscore.Metal>
0.0000

> <Gold.Chemscore.Hbonds>
donor molecule, donor type, donor heavy atom, donor atom, acceptor molecule, acceptor atom, score
      L1  H     1    22       P1  7949  0.28
      P1  H 10752 10763       L1     1  1.00

> <Gold.PLP.Chemscore.Internal.Correction>
0.0929

> <Gold.Rescore>
     Score         DG    S(hbond)    S(metal)    S(lipo)     H(rot)  DE(clash)    DE(int)     intcor
     15.05     -16.21       1.09        0.00     120.72       2.75       0.49       0.67       ----

> <Gold.Chemscore.Fitness>
15.0505

> <Gold.Chemscore.DG>
-16.2106

> <Gold.Chemscore.ZeroCoef>
-5.4800

> <Gold.Chemscore.Hbond>
1.0919

> <Gold.Chemscore.Metal>
0.0000

> <Gold.Chemscore.Lipo>
120.7153

> <Gold.Chemscore.Internal_Hbond>
0.0000

> <Gold.Chemscore.DEClash>
0.4911

> <Gold.Chemscore.DEInternal>
0.6691

> <Gold.Chemscore.Rot>
2.7500

> <Gold.Chemscore.Internal.Correction>
   9.000000E+99

> <Gold.Chemscore.Hbonds>
donor molecule, donor type, donor heavy atom, donor atom, acceptor molecule, acceptor atom, score
      L1  H     1    22       P1  7949  0.16
      P1  H 10752 10763       L1     1  0.95

> <Gold.Chemscore.Hbond.Weighted>
-3.6469

> <Gold.Chemscore.Metal.Weighted>
-0.0000

> <Gold.Chemscore.Lipo.Weighted>
-14.1237

> <Gold.Chemscore.Internal_Hbond.Weighted>
0.0000

> <Gold.Chemscore.DEClash.Weighted>
0.4911

> <Gold.Chemscore.DEInternal.Weighted>
0.6691

> <Gold.Chemscore.Rot.Weighted>
7.0399

> <Gold.Chemscore.Internal.Correction.Weighted>
   9.000000E+99

> <Gold.Protein.RotatedTorsions>
[ 6907 6896 6895 6894 ] final   97.80 input  -60.11 | X-H torsion
[ 7974 7965 7964 7962 ] final   20.56 input  175.53 | X-H torsion
[ 8008 7997 7996 7995 ] final -169.83 input   59.86 | X-H torsion
[ 10167 10162 10161 10158 ] final  -99.72 input  -65.29 | X-H torsion
[ 10718 10713 10712 10709 ] final  -88.84 input   66.30 | X-H torsion
[ 10763 10752 10751 10750 ] final   17.73 input  -60.55 | X-H torsion
[ 11005 11000 10999 10996 ] final  -95.95 input  -57.11 | X-H torsion

> <Gold.Protein.ActiveResidues>
 VAL166  LYS551  ARG553  GLY616  TRP617  ASP618  TYR619  PRO620  LYS621  CYS622 
 ASP623  PHE694  ASN695  SER759  ASP760  ASP761  ALA762  ILE779  LEU786  VAL792 
 PHE793  MET794  SER795  GLU796  ALA797  LYS798  CYS799  TRP800  GLU811  SER814 

> <Gold.Protein.RotatedAtoms>
  152.5418  134.0677  159.8180 H   0  0  0  0  0  0  0  0  0  0  0  0  # atno 6907 bound_to 6896
  151.0796  133.5393  159.2629 H   0  0  0  0  0  0  0  0  0  0  0  0  # atno 6908 bound_to 6896
  151.2225  135.0532  159.9009 H   0  0  0  0  0  0  0  0  0  0  0  0  # atno 6909 bound_to 6896
  146.2106  139.8151  142.8691 H   0  0  0  0  0  0  0  0  0  0  0  0  # atno 7974 bound_to 7965
  155.9103  140.1056  157.1284 H   0  0  0  0  0  0  0  0  0  0  0  0  # atno 8008 bound_to 7997
  154.4038  140.1275  156.4613 H   0  0  0  0  0  0  0  0  0  0  0  0  # atno 8009 bound_to 7997
  155.7318  140.3468  155.5065 H   0  0  0  0  0  0  0  0  0  0  0  0  # atno 8010 bound_to 7997
  140.2595  143.3417  152.0639 H   0  0  0  0  0  0  0  0  0  0  0  0  # atno 10167 bound_to 10162
  155.9984  130.4850  150.5081 H   0  0  0  0  0  0  0  0  0  0  0  0  # atno 10718 bound_to 10713
  153.1312  135.6740  153.9175 H   0  0  0  0  0  0  0  0  0  0  0  0  # atno 10763 bound_to 10752
  153.8660  135.3075  155.3441 H   0  0  0  0  0  0  0  0  0  0  0  0  # atno 10764 bound_to 10752
  154.7709  135.4940  153.9729 H   0  0  0  0  0  0  0  0  0  0  0  0  # atno 10765 bound_to 10752
  141.1426  133.8063  157.0505 H   0  0  0  0  0  0  0  0  0  0  0  0  # atno 11005 bound_to 11000
  145.3154  141.0230  143.3530 LP  0  0  0  0  0  0  0  0  0  0  0  0  # atno 17320 bound_to 7965
  144.8905  139.4781  143.6680 LP  0  0  0  0  0  0  0  0  0  0  0  0  # atno 17321 bound_to 7965
  139.5021  144.6728  151.6202 LP  0  0  0  0  0  0  0  0  0  0  0  0  # atno 17342 bound_to 10162
  140.5977  143.9666  150.6365 LP  0  0  0  0  0  0  0  0  0  0  0  0  # atno 17343 bound_to 10162
  157.3057  131.0654  151.2036 LP  0  0  0  0  0  0  0  0  0  0  0  0  # atno 17370 bound_to 10713
  157.3000  130.6838  149.6159 LP  0  0  0  0  0  0  0  0  0  0  0  0  # atno 17371 bound_to 10713
  140.0635  134.9742  157.1345 LP  0  0  0  0  0  0  0  0  0  0  0  0  # atno 17394 bound_to 11000
  140.3814  134.2283  155.7171 LP  0  0  0  0  0  0  0  0  0  0  0  0  # atno 17395 bound_to 11000

$$$$
