AV-unprocessed.smi:109|AV-procd|sdf|1052|dock10
  -GOLD-   2262018113D 1   1.00000     0.00000
 Structure written by MMmdl.
 58 61  0  0  0  0  0  0  0  0  1 V2000
  150.3359  139.8222  154.0659 O   0  0  0  0  0  0  0  0  0  0  0  0
  149.7143  140.4539  155.1641 C   0  0  0  0  0  0  0  0  0  0  0  0
  150.7175  141.3775  155.8733 C   0  0  0  0  0  0  0  0  0  0  0  0
  151.0707  140.8988  157.2990 C   0  0  1  0  0  0  0  0  0  0  0  0
  151.7659  139.6133  157.2329 N   0  0  0  0  0  0  0  0  0  0  0  0
  151.1803  138.4660  157.6424 C   0  0  0  0  0  0  0  0  0  0  0  0
  150.7128  138.3227  158.9099 N   0  0  0  0  0  0  0  0  0  0  0  0
  150.1270  137.1808  159.2807 C   0  0  0  0  0  0  0  0  0  0  0  0
  149.9088  136.0818  158.5557 N   0  0  0  0  0  0  0  0  0  0  0  0
  150.3780  136.2171  157.2816 C   0  0  0  0  0  0  0  0  0  0  0  0
  151.0245  137.3702  156.7544 C   0  0  0  0  0  0  0  0  0  0  0  0
  151.3702  137.1515  155.4276 N   0  0  0  0  0  0  0  0  0  0  0  0
  150.9492  135.9388  155.1882 C   0  0  0  0  0  0  0  0  0  0  0  0
  150.3378  135.3028  156.2460 N   0  0  0  0  0  0  0  0  0  0  0  0
  149.7508  133.9227  156.2524 C   0  0  2  0  0  0  0  0  0  0  0  0
  149.8832  133.3563  154.9823 O   0  0  0  0  0  0  0  0  0  0  0  0
  148.6051  133.0076  154.4567 C   0  0  1  0  0  0  0  0  0  0  0  0
  148.7144  131.8075  153.4999 C   0  0  0  0  0  0  0  0  0  0  0  0
  147.5103  131.6381  152.7825 O   0  0  0  0  0  0  0  0  0  0  0  0
  147.7064  132.8388  155.6905 C   0  0  1  0  0  0  0  0  0  0  0  0
  147.8342  131.5458  156.2529 O   0  0  0  0  0  0  0  0  0  0  0  0
  148.2584  133.8879  156.6426 C   0  0  2  0  0  0  0  0  0  0  0  0
  147.5871  135.1233  156.4695 O   0  0  0  0  0  0  0  0  0  0  0  0
  151.8906  141.9238  158.1296 C   0  0  0  0  0  0  0  0  0  0  0  0
  152.3756  141.3486  159.4779 C   0  0  0  0  0  0  0  0  0  0  0  0
  153.2710  142.3500  160.2259 C   0  0  0  0  0  0  0  0  0  0  0  0
  152.5509  143.6911  160.4368 C   0  0  0  0  0  0  0  0  0  0  0  0
  152.0570  144.2724  159.1028 C   0  0  0  0  0  0  0  0  0  0  0  0
  151.1635  143.2696  158.3541 C   0  0  0  0  0  0  0  0  0  0  0  0
  150.3764  133.3616  156.9477 H   0  0  0  0  0  0  0  0  0  0  0  0
  148.2467  133.8696  153.8930 H   0  0  0  0  0  0  0  0  0  0  0  0
  146.6539  133.0005  155.4535 H   0  0  0  0  0  0  0  0  0  0  0  0
  148.1597  133.5972  157.6894 H   0  0  0  0  0  0  0  0  0  0  0  0
  150.8574  139.1035  154.3893 H   0  0  0  0  0  0  0  0  0  0  0  0
  148.8551  141.0218  154.8061 H   0  0  0  0  0  0  0  0  0  0  0  0
  149.3395  139.6876  155.8432 H   0  0  0  0  0  0  0  0  0  0  0  0
  151.6225  141.4623  155.2702 H   0  0  0  0  0  0  0  0  0  0  0  0
  150.2837  142.3760  155.9131 H   0  0  0  0  0  0  0  0  0  0  0  0
  150.1204  140.7503  157.8127 H   0  0  0  0  0  0  0  0  0  0  0  0
  152.7226  139.6519  156.9115 H   0  0  0  0  0  0  0  0  0  0  0  0
  149.7809  137.1419  160.3029 H   0  0  0  0  0  0  0  0  0  0  0  0
  151.0720  135.4710  154.2222 H   0  0  0  0  0  0  0  0  0  0  0  0
  149.5176  131.9796  152.7828 H   0  0  0  0  0  0  0  0  0  0  0  0
  148.9581  130.8885  154.0331 H   0  0  0  0  0  0  0  0  0  0  0  0
  147.7181  131.3154  151.9188 H   0  0  0  0  0  0  0  0  0  0  0  0
  147.9479  130.9258  155.5485 H   0  0  0  0  0  0  0  0  0  0  0  0
  147.4475  135.2604  155.5450 H   0  0  0  0  0  0  0  0  0  0  0  0
  152.7933  142.1435  157.5572 H   0  0  0  0  0  0  0  0  0  0  0  0
  151.5279  141.0933  160.1134 H   0  0  0  0  0  0  0  0  0  0  0  0
  152.9269  140.4228  159.3109 H   0  0  0  0  0  0  0  0  0  0  0  0
  153.5700  141.9336  161.1884 H   0  0  0  0  0  0  0  0  0  0  0  0
  154.1896  142.5126  159.6606 H   0  0  0  0  0  0  0  0  0  0  0  0
  151.7038  143.5485  161.1089 H   0  0  0  0  0  0  0  0  0  0  0  0
  153.2194  144.3996  160.9269 H   0  0  0  0  0  0  0  0  0  0  0  0
  151.5076  145.1973  159.2819 H   0  0  0  0  0  0  0  0  0  0  0  0
  152.9121  144.5370  158.4795 H   0  0  0  0  0  0  0  0  0  0  0  0
  150.8594  143.7003  157.3997 H   0  0  0  0  0  0  0  0  0  0  0  0
  150.2500  143.1135  158.9283 H   0  0  0  0  0  0  0  0  0  0  0  0
  1  2  1  0  0  0  0
  1 34  1  0  0  0  0
  2  3  1  0  0  0  0
  2 35  1  0  0  0  0
  2 36  1  0  0  0  0
  3  4  1  0  0  0  0
  3 37  1  0  0  0  0
  3 38  1  0  0  0  0
  4  5  1  0  0  0  0
  4 24  1  0  0  0  0
  4 39  1  0  0  0  0
  5  6  1  0  0  0  0
  5 40  1  0  0  0  0
  6 11  1  0  0  0  0
  6  7  2  0  0  0  0
  7  8  1  0  0  0  0
  8  9  2  0  0  0  0
  8 41  1  0  0  0  0
  9 10  1  0  0  0  0
 10 14  1  0  0  0  0
 10 11  2  0  0  0  0
 11 12  1  0  0  0  0
 12 13  2  0  0  0  0
 13 14  1  0  0  0  0
 13 42  1  0  0  0  0
 14 15  1  0  0  0  0
 15 30  1  0  0  0  0
 15 22  1  0  0  0  0
 15 16  1  0  0  0  0
 16 17  1  0  0  0  0
 17 31  1  0  0  0  0
 17 18  1  0  0  0  0
 17 20  1  0  0  0  0
 18 19  1  0  0  0  0
 18 43  1  0  0  0  0
 18 44  1  0  0  0  0
 19 45  1  0  0  0  0
 20 32  1  0  0  0  0
 20 21  1  0  0  0  0
 20 22  1  0  0  0  0
 21 46  1  0  0  0  0
 22 33  1  0  0  0  0
 22 23  1  0  0  0  0
 23 47  1  0  0  0  0
 24 29  1  0  0  0  0
 24 25  1  0  0  0  0
 24 48  1  0  0  0  0
 25 26  1  0  0  0  0
 25 49  1  0  0  0  0
 25 50  1  0  0  0  0
 26 27  1  0  0  0  0
 26 51  1  0  0  0  0
 26 52  1  0  0  0  0
 27 28  1  0  0  0  0
 27 53  1  0  0  0  0
 27 54  1  0  0  0  0
 28 29  1  0  0  0  0
 28 55  1  0  0  0  0
 28 56  1  0  0  0  0
 29 57  1  0  0  0  0
 29 58  1  0  0  0  0
M  END
> <s_m_source_file>
AV-unprocessed.smi

> <i_m_source_file_index>
109

> <i_lp_mmshare_version>
43012

> <i_f3d_flags>
0

> <s_epik_input>
W0NIMl0xW0NIMl1bQ0gyXVtDSDJdW0NIMl1bQ0hdMVtDQEhdKFtDSDJdW0NIMl1bT0hdKVtOSF1jKG5bY0hdbjIpYyhjMjMpbltjSF1uM1tDQEBIXTRPW0NASF0oW0NIMl1bT0hdKVtDQEBIXShbT0hdKVtDQEhdNFtPSF0=

> <s_epik_cmdline>
J2VwaWtfcHl0aG9uJywgJy1waCcsICc3LjAnLCAnLXRuJywgJzgnLCAnLW1hJywgJzIwMCcsICctbWV0YWxfYmluZGluZycsICctaW1hZScsICc8aW5maWxlLm1hZT4nLCAnLW9tYWUnLCAnPG91dGZpbGUubWFlPic=

> <r_lp_tautomer_probability>
1

> <r_epik_Ionization_Penalty>
0.000793976

> <r_epik_Ionization_Penalty_Charging>
0

> <r_epik_Ionization_Penalty_Neutral>
0.000793976

> <r_epik_State_Penalty>
-0

> <r_epik_Charging_Adjusted_Penalty>
0

> <i_epik_Tot_Q>
0

> <i_epik_Tot_abs_Q>
0

> <r_epik_Metal_State_Penalty>
-0

> <b_epik_Metal_Only>
0

> <s_epik_Chemistry_Notes>
This compound contains an acetal/aminal-like group ( X-CH(R)-Y where X, Y are N, S, or O) that may be acid/base labile, releasing an aldehyde.

> <s_lp_Force_Field>
OPLS_2005

> <r_lp_Energy>
55.7279

> <b_lp_Chiralities_Consistent>
1

> <s_lp_Variant>
AV-unprocessed.smi:109-22

> <Gold.Version>
5.8.1

> <Gold.Id.Protein>
6NUR|6NUR_protein|mol2

> <Gold.PLP.Fitness>
51.7998

> <Gold.PLP.PLP>
-42.7101

> <Gold.PLP.part.hbond>
-4.0790

> <Gold.PLP.part.metal>
0.0000

> <Gold.PLP.part.buried>
-4.8508

> <Gold.PLP.part.nonpolar>
-33.5727

> <Gold.PLP.part.repulsive>
0.2399

> <Gold.PLP.ligand.clash>
0.0000

> <Gold.PLP.ligand.torsion>
1.1241

> <Gold.PLP.Chemscore.Hbond>
2.9048

> <Gold.PLP.Chemscore.CHOScore>
0.7521

> <Gold.PLP.Chemscore.Metal>
0.0000

> <Gold.Chemscore.Hbonds>
donor molecule, donor type, donor heavy atom, donor atom, acceptor molecule, acceptor atom, score
      L1  H    19    45       P1 10747  0.78
      P1  H  6896  6908       L1     9  0.90
      P1  H  7989  7998       L1     1  1.00
      L1  C    13    42       P1  7949  0.39

> <Gold.PLP.Chemscore.Internal.Correction>
0.3671

> <Gold.Rescore>
     Score         DG    S(hbond)    S(metal)    S(lipo)     H(rot)  DE(clash)    DE(int)     intcor
      9.37     -10.60       2.17        0.00     101.32       5.47       0.12       1.11       ----

> <Gold.Chemscore.Fitness>
9.3748

> <Gold.Chemscore.DG>
-10.5972

> <Gold.Chemscore.ZeroCoef>
-5.4800

> <Gold.Chemscore.Hbond>
2.1725

> <Gold.Chemscore.Metal>
0.0000

> <Gold.Chemscore.Lipo>
101.3219

> <Gold.Chemscore.Internal_Hbond>
0.0000

> <Gold.Chemscore.DEClash>
0.1171

> <Gold.Chemscore.DEInternal>
1.1053

> <Gold.Chemscore.Rot>
5.4662

> <Gold.Chemscore.Internal.Correction>
   9.000000E+99

> <Gold.Chemscore.Hbonds>
donor molecule, donor type, donor heavy atom, donor atom, acceptor molecule, acceptor atom, score
      L1  H    19    45       P1 10747  0.75
      P1  H  6896  6908       L1     9  0.51
      P1  H  7989  7998       L1     1  0.18

> <Gold.Chemscore.Hbond.Weighted>
-7.2560

> <Gold.Chemscore.Metal.Weighted>
-0.0000

> <Gold.Chemscore.Lipo.Weighted>
-11.8547

> <Gold.Chemscore.Internal_Hbond.Weighted>
0.0000

> <Gold.Chemscore.DEClash.Weighted>
0.1171

> <Gold.Chemscore.DEInternal.Weighted>
1.1053

> <Gold.Chemscore.Rot.Weighted>
13.9935

> <Gold.Chemscore.Internal.Correction.Weighted>
   9.000000E+99

> <Gold.Protein.RotatedTorsions>
[ 6907 6896 6895 6894 ] final  164.71 input  -60.11 | X-H torsion
[ 7974 7965 7964 7962 ] final  141.77 input  175.53 | X-H torsion
[ 8008 7997 7996 7995 ] final -147.00 input   59.86 | X-H torsion
[ 10167 10162 10161 10158 ] final -120.27 input  -65.29 | X-H torsion
[ 10718 10713 10712 10709 ] final -134.98 input   66.30 | X-H torsion
[ 10763 10752 10751 10750 ] final  179.54 input  -60.55 | X-H torsion
[ 11005 11000 10999 10996 ] final   97.63 input  -57.11 | X-H torsion

> <Gold.Protein.ActiveResidues>
 VAL166  LYS551  ARG553  GLY616  TRP617  ASP618  TYR619  PRO620  LYS621  CYS622 
 ASP623  PHE694  ASN695  SER759  ASP760  ASP761  ALA762  ILE779  LEU786  VAL792 
 PHE793  MET794  SER795  GLU796  ALA797  LYS798  CYS799  TRP800  GLU811  SER814 

> <Gold.Protein.RotatedAtoms>
  151.9056  133.3548  159.3845 H   0  0  0  0  0  0  0  0  0  0  0  0  # atno 6907 bound_to 6896
  150.7070  134.4784  159.5468 H   0  0  0  0  0  0  0  0  0  0  0  0  # atno 6908 bound_to 6896
  152.2381  134.8256  160.0515 H   0  0  0  0  0  0  0  0  0  0  0  0  # atno 6909 bound_to 6896
  144.9067  139.5348  143.5728 H   0  0  0  0  0  0  0  0  0  0  0  0  # atno 7974 bound_to 7965
  155.5685  140.0632  157.2812 H   0  0  0  0  0  0  0  0  0  0  0  0  # atno 8008 bound_to 7997
  154.4368  140.1873  156.0901 H   0  0  0  0  0  0  0  0  0  0  0  0  # atno 8009 bound_to 7997
  156.0394  140.3297  155.7230 H   0  0  0  0  0  0  0  0  0  0  0  0  # atno 8010 bound_to 7997
  140.0376  143.5185  152.2146 H   0  0  0  0  0  0  0  0  0  0  0  0  # atno 10167 bound_to 10162
  156.2612  130.7211  151.1146 H   0  0  0  0  0  0  0  0  0  0  0  0  # atno 10718 bound_to 10713
  154.5220  135.2794  155.1254 H   0  0  0  0  0  0  0  0  0  0  0  0  # atno 10763 bound_to 10752
  154.2807  135.6286  153.5350 H   0  0  0  0  0  0  0  0  0  0  0  0  # atno 10764 bound_to 10752
  152.9939  135.5650  154.5712 H   0  0  0  0  0  0  0  0  0  0  0  0  # atno 10765 bound_to 10752
  139.8775  134.9010  156.4336 H   0  0  0  0  0  0  0  0  0  0  0  0  # atno 11005 bound_to 11000
  146.3137  139.7840  142.9000 LP  0  0  0  0  0  0  0  0  0  0  0  0  # atno 17320 bound_to 7965
  145.3524  141.0310  143.3331 LP  0  0  0  0  0  0  0  0  0  0  0  0  # atno 17321 bound_to 7965
  139.6035  144.7589  151.3117 LP  0  0  0  0  0  0  0  0  0  0  0  0  # atno 17342 bound_to 10162
  140.7274  143.6963  150.7881 LP  0  0  0  0  0  0  0  0  0  0  0  0  # atno 17343 bound_to 10162
  157.7251  131.0655  150.5966 LP  0  0  0  0  0  0  0  0  0  0  0  0  # atno 17370 bound_to 10713
  156.6054  130.4365  149.5880 LP  0  0  0  0  0  0  0  0  0  0  0  0  # atno 17371 bound_to 10713
  140.9049  133.7753  155.9724 LP  0  0  0  0  0  0  0  0  0  0  0  0  # atno 17394 bound_to 11000
  140.8610  134.2841  157.5234 LP  0  0  0  0  0  0  0  0  0  0  0  0  # atno 17395 bound_to 11000

$$$$
