AV-unprocessed.smi:2570|AV-procd|sdf|10107|dock3
  -GOLD-   2272014123D 1   1.00000     0.00000
 Structure written by MMmdl.
 32 33  0  0  0  0  0  0  0  0  1 V2000
  147.6545  139.2196  153.5031 C   0  0  0  0  0  0  0  0  0  0  0  0
  148.3639  140.4108  153.8385 O   0  0  0  0  0  0  0  0  0  0  0  0
  149.4447  140.2739  154.6920 C   0  0  0  0  0  0  0  0  0  0  0  0
  150.5099  139.3673  154.3186 C   0  0  0  0  0  0  0  0  0  0  0  0
  151.5630  139.2155  155.1507 C   0  0  0  0  0  0  0  0  0  0  0  0
  151.6538  139.9395  156.4183 C   0  0  0  0  0  0  0  0  0  0  0  0
  152.5904  139.8073  157.2055 O   0  0  0  0  0  0  0  0  0  0  0  0
  150.5952  140.7690  156.6560 N   0  0  0  0  0  0  0  0  0  0  0  0
  150.5049  141.5436  157.9012 C   0  0  0  0  0  0  0  0  0  0  0  0
  151.6692  142.5490  158.0642 C   0  0  1  0  0  0  0  0  0  0  0  0
  151.3204  143.7573  157.4203 O   0  0  0  0  0  0  0  0  0  0  0  0
  152.0789  142.7619  159.5183 C   0  0  0  0  0  0  0  0  0  0  0  0
  151.7720  143.9836  160.1563 C   0  0  0  0  0  0  0  0  0  0  0  0
  152.1715  144.2132  161.4868 C   0  0  0  0  0  0  0  0  0  0  0  0
  152.8814  143.2218  162.1896 C   0  0  0  0  0  0  0  0  0  0  0  0
  153.2684  143.4433  163.4682 F   0  0  0  0  0  0  0  0  0  0  0  0
  153.1910  142.0011  161.5613 C   0  0  0  0  0  0  0  0  0  0  0  0
  152.7935  141.7694  160.2300 C   0  0  0  0  0  0  0  0  0  0  0  0
  153.1147  140.5940  159.6383 F   0  0  0  0  0  0  0  0  0  0  0  0
  149.5173  140.9360  155.8029 N   0  0  0  0  0  0  0  0  0  0  0  0
  146.8446  139.4682  152.8176 H   0  0  0  0  0  0  0  0  0  0  0  0
  147.2058  138.7525  154.3815 H   0  0  0  0  0  0  0  0  0  0  0  0
  148.2958  138.4937  152.9996 H   0  0  0  0  0  0  0  0  0  0  0  0
  150.4522  138.8249  153.3864 H   0  0  0  0  0  0  0  0  0  0  0  0
  152.3592  138.5395  154.8758 H   0  0  0  0  0  0  0  0  0  0  0  0
  149.5476  142.0656  157.9516 H   0  0  0  0  0  0  0  0  0  0  0  0
  150.4974  140.8552  158.7488 H   0  0  0  0  0  0  0  0  0  0  0  0
  152.5333  142.1605  157.5240 H   0  0  0  0  0  0  0  0  0  0  0  0
  151.9176  144.4322  157.7048 H   0  0  0  0  0  0  0  0  0  0  0  0
  151.2360  144.7557  159.6237 H   0  0  0  0  0  0  0  0  0  0  0  0
  151.9358  145.1516  161.9666 H   0  0  0  0  0  0  0  0  0  0  0  0
  153.7390  141.2418  162.0995 H   0  0  0  0  0  0  0  0  0  0  0  0
  1  2  1  0  0  0  0
  1 21  1  0  0  0  0
  1 22  1  0  0  0  0
  1 23  1  0  0  0  0
  2  3  1  0  0  0  0
  3 20  2  0  0  0  0
  3  4  1  0  0  0  0
  4  5  2  0  0  0  0
  4 24  1  0  0  0  0
  5  6  1  0  0  0  0
  5 25  1  0  0  0  0
  6  7  2  0  0  0  0
  6  8  1  0  0  0  0
  8  9  1  0  0  0  0
  8 20  1  0  0  0  0
  9 10  1  0  0  0  0
  9 26  1  0  0  0  0
  9 27  1  0  0  0  0
 10 11  1  0  0  0  0
 10 12  1  0  0  0  0
 10 28  1  0  0  0  0
 11 29  1  0  0  0  0
 12 18  1  0  0  0  0
 12 13  2  0  0  0  0
 13 14  1  0  0  0  0
 13 30  1  0  0  0  0
 14 15  2  0  0  0  0
 14 31  1  0  0  0  0
 15 16  1  0  0  0  0
 15 17  1  0  0  0  0
 17 18  2  0  0  0  0
 17 32  1  0  0  0  0
 18 19  1  0  0  0  0
M  END
> <s_m_source_file>
AV-unprocessed.smi

> <i_m_source_file_index>
2570

> <i_lp_mmshare_version>
43012

> <i_f3d_flags>
0

> <s_epik_input>
W0NIM11PYzFbY0hdW2NIXWMoPU8pbihuMSlbQ0gyXVtDQEhdKFtPSF0pYzJbY0hdW2NIXWMoRilbY0hdYzJG

> <s_epik_cmdline>
J2VwaWtfcHl0aG9uJywgJy1waCcsICc3LjAnLCAnLXRuJywgJzgnLCAnLW1hJywgJzIwMCcsICctbWV0YWxfYmluZGluZycsICctaW1hZScsICc8aW5maWxlLm1hZT4nLCAnLW9tYWUnLCAnPG91dGZpbGUubWFlPic=

> <r_lp_tautomer_probability>
1

> <r_epik_Ionization_Penalty>
6.40224e-06

> <r_epik_Ionization_Penalty_Charging>
4.38647e-06

> <r_epik_Ionization_Penalty_Neutral>
2.01577e-06

> <r_epik_State_Penalty>
-0

> <r_epik_Charging_Adjusted_Penalty>
4.38647e-06

> <i_epik_Tot_Q>
0

> <i_epik_Tot_abs_Q>
0

> <r_epik_Metal_State_Penalty>
-0

> <b_epik_Metal_Only>
0

> <s_lp_Force_Field>
OPLS_2005

> <r_lp_Energy>
26.7666

> <b_lp_Chiralities_Consistent>
1

> <s_lp_Variant>
AV-unprocessed.smi:2570-2

> <Gold.Version>
5.8.1

> <Gold.Id.Protein>
6NUR|6NUR_protein|mol2

> <Gold.PLP.Fitness>
50.0039

> <Gold.PLP.PLP>
-48.4435

> <Gold.PLP.part.hbond>
-1.6858

> <Gold.PLP.part.metal>
0.0000

> <Gold.PLP.part.buried>
-4.3417

> <Gold.PLP.part.nonpolar>
-41.4701

> <Gold.PLP.part.repulsive>
0.8884

> <Gold.PLP.ligand.clash>
0.0000

> <Gold.PLP.ligand.torsion>
0.7337

> <Gold.PLP.Chemscore.Hbond>
1.0000

> <Gold.PLP.Chemscore.CHOScore>
0.0000

> <Gold.PLP.Chemscore.Metal>
0.0000

> <Gold.Chemscore.Hbonds>
donor molecule, donor type, donor heavy atom, donor atom, acceptor molecule, acceptor atom, score
      P1  H  7997  8008       L1     7  1.00

> <Gold.PLP.Chemscore.Internal.Correction>
0.0278

> <Gold.Rescore>
     Score         DG    S(hbond)    S(metal)    S(lipo)     H(rot)  DE(clash)    DE(int)     intcor
     11.90     -14.68       0.99        0.00     104.18       2.45       0.40       2.38       ----

> <Gold.Chemscore.Fitness>
11.9031

> <Gold.Chemscore.DG>
-14.6844

> <Gold.Chemscore.ZeroCoef>
-5.4800

> <Gold.Chemscore.Hbond>
0.9867

> <Gold.Chemscore.Metal>
0.0000

> <Gold.Chemscore.Lipo>
104.1800

> <Gold.Chemscore.Internal_Hbond>
0.0000

> <Gold.Chemscore.DEClash>
0.4022

> <Gold.Chemscore.DEInternal>
2.3790

> <Gold.Chemscore.Rot>
2.4533

> <Gold.Chemscore.Internal.Correction>
   9.000000E+99

> <Gold.Chemscore.Hbonds>
donor molecule, donor type, donor heavy atom, donor atom, acceptor molecule, acceptor atom, score
      P1  H  7997  8008       L1     7  0.99

> <Gold.Chemscore.Hbond.Weighted>
-3.2957

> <Gold.Chemscore.Metal.Weighted>
-0.0000

> <Gold.Chemscore.Lipo.Weighted>
-12.1891

> <Gold.Chemscore.Internal_Hbond.Weighted>
0.0000

> <Gold.Chemscore.DEClash.Weighted>
0.4022

> <Gold.Chemscore.DEInternal.Weighted>
2.3790

> <Gold.Chemscore.Rot.Weighted>
6.2804

> <Gold.Chemscore.Internal.Correction.Weighted>
   9.000000E+99

> <Gold.Protein.RotatedTorsions>
[ 6907 6896 6895 6894 ] final   62.90 input  -60.11 | X-H torsion
[ 7974 7965 7964 7962 ] final -101.09 input  175.53 | X-H torsion
[ 8008 7997 7996 7995 ] final  -69.35 input   59.86 | X-H torsion
[ 10167 10162 10161 10158 ] final -110.53 input  -65.29 | X-H torsion
[ 10718 10713 10712 10709 ] final  177.29 input   66.30 | X-H torsion
[ 10763 10752 10751 10750 ] final  107.97 input  -60.55 | X-H torsion
[ 11005 11000 10999 10996 ] final   36.73 input  -57.11 | X-H torsion

> <Gold.Protein.ActiveResidues>
 VAL166  LYS551  ARG553  GLY616  TRP617  ASP618  TYR619  PRO620  LYS621  CYS622 
 ASP623  PHE694  ASN695  SER759  ASP760  ASP761  ALA762  ILE779  LEU786  VAL792 
 PHE793  MET794  SER795  GLU796  ALA797  LYS798  CYS799  TRP800  GLU811  SER814 

> <Gold.Protein.RotatedAtoms>
  152.4210  134.5956  159.9985 H   0  0  0  0  0  0  0  0  0  0  0  0  # atno 6907 bound_to 6896
  151.6106  133.3342  159.3074 H   0  0  0  0  0  0  0  0  0  0  0  0  # atno 6908 bound_to 6896
  150.8098  134.7283  159.6743 H   0  0  0  0  0  0  0  0  0  0  0  0  # atno 6909 bound_to 6896
  145.2862  140.9340  143.2904 H   0  0  0  0  0  0  0  0  0  0  0  0  # atno 7974 bound_to 7965
  154.4932  140.0855  156.7641 H   0  0  0  0  0  0  0  0  0  0  0  0  # atno 8008 bound_to 7997
  155.4179  140.3444  155.4250 H   0  0  0  0  0  0  0  0  0  0  0  0  # atno 8009 bound_to 7997
  156.1359  140.1515  156.8983 H   0  0  0  0  0  0  0  0  0  0  0  0  # atno 8010 bound_to 7997
  140.1435  143.4259  152.1545 H   0  0  0  0  0  0  0  0  0  0  0  0  # atno 10167 bound_to 10162
  156.9075  130.9899  151.3026 H   0  0  0  0  0  0  0  0  0  0  0  0  # atno 10718 bound_to 10713
  153.4141  135.3827  155.2069 H   0  0  0  0  0  0  0  0  0  0  0  0  # atno 10763 bound_to 10752
  154.8740  135.3801  154.4464 H   0  0  0  0  0  0  0  0  0  0  0  0  # atno 10764 bound_to 10752
  153.4976  135.7088  153.5911 H   0  0  0  0  0  0  0  0  0  0  0  0  # atno 10765 bound_to 10752
  140.2297  134.3542  155.7969 H   0  0  0  0  0  0  0  0  0  0  0  0  # atno 11005 bound_to 11000
  144.9211  139.4410  143.6540 LP  0  0  0  0  0  0  0  0  0  0  0  0  # atno 17320 bound_to 7965
  146.3200  139.8072  142.8953 LP  0  0  0  0  0  0  0  0  0  0  0  0  # atno 17321 bound_to 7965
  139.5460  144.7299  151.4581 LP  0  0  0  0  0  0  0  0  0  0  0  0  # atno 17342 bound_to 10162
  140.6746  143.8218  150.7042 LP  0  0  0  0  0  0  0  0  0  0  0  0  # atno 17343 bound_to 10162
  157.5988  130.8497  149.8770 LP  0  0  0  0  0  0  0  0  0  0  0  0  # atno 17370 bound_to 10713
  156.0552  130.3710  150.1108 LP  0  0  0  0  0  0  0  0  0  0  0  0  # atno 17371 bound_to 10713
  141.2218  133.7238  156.8711 LP  0  0  0  0  0  0  0  0  0  0  0  0  # atno 17394 bound_to 11000
  140.1764  134.9064  157.2895 LP  0  0  0  0  0  0  0  0  0  0  0  0  # atno 17395 bound_to 11000

$$$$
