AV-unprocessed.smi:761|AV-procd|sdf|3632|dock3
  -GOLD-   22720 1 23D 1   1.00000     0.00000
 Structure written by MMmdl.
 34 35  0  0  0  0  0  0  0  0  4 V2000
  153.6951  140.9912  159.2982 O   0  0  0  0  0  0  0  0  0  0  0  0
  153.8759  141.5098  160.4058 C   0  0  0  0  0  0  0  0  0  0  0  0
  154.7163  141.0925  161.3907 N   0  5  0  0  0  0  0  0  0  0  0  0
  155.4134  139.8072  161.4101 C   0  0  0  0  0  0  0  0  0  0  0  0
  155.8682  139.4896  162.8483 C   0  0  0  0  0  0  0  0  0  0  0  0
  155.6204  138.0745  163.2285 N   0  3  0  0  0  0  0  0  0  0  0  0
  154.6461  137.3297  162.3721 C   0  0  0  0  0  0  0  0  0  0  0  0
  153.9003  136.4761  163.3578 C   0  0  0  0  0  0  0  0  0  0  0  0
  154.2245  136.7828  164.6085 C   0  0  0  0  0  0  0  0  0  0  0  0
  155.2374  137.8914  164.6578 C   0  0  0  0  0  0  0  0  0  0  0  0
  153.2196  142.6347  160.7424 N   0  0  0  0  0  0  0  0  0  0  0  0
  152.2211  143.3389  160.0167 C   0  0  0  0  0  0  0  0  0  0  0  0
  151.7524  144.5568  160.5567 C   0  0  0  0  0  0  0  0  0  0  0  0
  150.7438  145.2734  159.8814 C   0  0  0  0  0  0  0  0  0  0  0  0
  150.2259  144.7860  158.7335 N   0  3  0  0  0  0  0  0  0  0  0  0
  150.6300  143.6186  158.1878 C   0  0  0  0  0  0  0  0  0  0  0  0
  151.6355  142.8580  158.8182 C   0  0  0  0  0  0  0  0  0  0  0  0
  154.7912  138.9856  161.0529 H   0  0  0  0  0  0  0  0  0  0  0  0
  156.2868  139.8197  160.7576 H   0  0  0  0  0  0  0  0  0  0  0  0
  156.9408  139.6819  162.9123 H   0  0  0  0  0  0  0  0  0  0  0  0
  155.3927  140.1558  163.5699 H   0  0  0  0  0  0  0  0  0  0  0  0
  153.9453  137.9936  161.8639 H   0  0  0  0  0  0  0  0  0  0  0  0
  155.1638  136.7209  161.6304 H   0  0  0  0  0  0  0  0  0  0  0  0
  153.1803  135.7293  163.0568 H   0  0  0  0  0  0  0  0  0  0  0  0
  153.8115  136.3284  165.4971 H   0  0  0  0  0  0  0  0  0  0  0  0
  156.1033  137.6188  165.2615 H   0  0  0  0  0  0  0  0  0  0  0  0
  154.7729  138.7849  165.0783 H   0  0  0  0  0  0  0  0  0  0  0  0
  153.5109  143.0611  161.6099 H   0  0  0  0  0  0  0  0  0  0  0  0
  152.1657  144.9433  161.4773 H   0  0  0  0  0  0  0  0  0  0  0  0
  150.3369  146.2134  160.2243 H   0  0  0  0  0  0  0  0  0  0  0  0
  150.1354  143.3251  157.2735 H   0  0  0  0  0  0  0  0  0  0  0  0
  151.9308  141.9157  158.3820 H   0  0  0  0  0  0  0  0  0  0  0  0
  156.5034  137.5946  163.1279 H   0  0  0  0  0  0  0  0  0  0  0  0
  149.4949  145.3187  158.2616 H   0  0  0  0  0  0  0  0  0  0  0  0
  1  2  2  0  0  0  0
  2  3  1  0  0  0  0
  2 11  1  0  0  0  0
  3  4  1  0  0  0  0
  4  5  1  0  0  0  0
  4 18  1  0  0  0  0
  4 19  1  0  0  0  0
  5  6  1  0  0  0  0
  5 20  1  0  0  0  0
  5 21  1  0  0  0  0
  6 10  1  0  0  0  0
  6  7  1  0  0  0  0
  6 33  1  0  0  0  0
  7  8  1  0  0  0  0
  7 22  1  0  0  0  0
  7 23  1  0  0  0  0
  8  9  2  0  0  0  0
  8 24  1  0  0  0  0
  9 10  1  0  0  0  0
  9 25  1  0  0  0  0
 10 26  1  0  0  0  0
 10 27  1  0  0  0  0
 11 12  1  0  0  0  0
 11 28  1  0  0  0  0
 12 17  1  0  0  0  0
 12 13  2  0  0  0  0
 13 14  1  0  0  0  0
 13 29  1  0  0  0  0
 14 15  2  0  0  0  0
 14 30  1  0  0  0  0
 15 16  1  0  0  0  0
 15 34  1  0  0  0  0
 16 17  2  0  0  0  0
 16 31  1  0  0  0  0
 17 32  1  0  0  0  0
M  CHG  1   3  -1
M  CHG  1   6   1
M  CHG  1  15   1
M  END
> <s_m_source_file>
AV-unprocessed.smi

> <i_m_source_file_index>
761

> <i_lp_mmshare_version>
43012

> <i_f3d_flags>
0

> <s_epik_input>
W2NIXTFbY0hdbltjSF1bY0hdYzFbTkhdQyg9TylbTkhdW0NIMl1bQ0gyXU4yW0NIMl1bQ0hdPVtDSF1bQ0gyXTI=

> <s_epik_cmdline>
J2VwaWtfcHl0aG9uJywgJy1waCcsICc3LjAnLCAnLXRuJywgJzgnLCAnLW1hJywgJzIwMCcsICctbWV0YWxfYmluZGluZycsICctaW1hZScsICc8aW5maWxlLm1hZT4nLCAnLW9tYWUnLCAnPG91dGZpbGUubWFlPic=

> <r_epik_Ionization_Penalty>
8.30346

> <r_epik_Ionization_Penalty_Charging>
8.30346

> <r_epik_Ionization_Penalty_Neutral>
3.3887e-06

> <r_epik_State_Penalty>
7.87421

> <r_epik_Charging_Adjusted_Penalty>
16.1777

> <i_epik_Tot_Q>
1

> <i_epik_Tot_abs_Q>
3

> <r_epik_Metal_State_Penalty>
3.87237

> <b_epik_Metal_Only>
1

> <s_lp_Force_Field>
OPLS_2005

> <r_lp_Energy>
27.0573

> <b_lp_Chiralities_Consistent>
1

> <s_lp_Variant>
AV-unprocessed.smi:761-3

> <Gold.Version>
5.8.1

> <Gold.Id.Protein>
6NUR|6NUR_protein|mol2

> <Gold.PLP.Fitness>
41.9274

> <Gold.PLP.PLP>
-37.8630

> <Gold.PLP.part.hbond>
-2.2612

> <Gold.PLP.part.metal>
0.0000

> <Gold.PLP.part.buried>
-4.0914

> <Gold.PLP.part.nonpolar>
-32.5988

> <Gold.PLP.part.repulsive>
0.2149

> <Gold.PLP.ligand.clash>
0.0000

> <Gold.PLP.ligand.torsion>
1.0134

> <Gold.PLP.Chemscore.Hbond>
2.0000

> <Gold.PLP.Chemscore.CHOScore>
0.0000

> <Gold.PLP.Chemscore.Metal>
0.0000

> <Gold.Chemscore.Hbonds>
donor molecule, donor type, donor heavy atom, donor atom, acceptor molecule, acceptor atom, score
      L1  H    15    34       P1  8029  2.00

> <Gold.PLP.Chemscore.Internal.Correction>
0.0913

> <Gold.Rescore>
     Score         DG    S(hbond)    S(metal)    S(lipo)     H(rot)  DE(clash)    DE(int)     intcor
     13.45     -15.88       0.94        0.00      95.24       1.51       0.06       2.37       ----

> <Gold.Chemscore.Fitness>
13.4546

> <Gold.Chemscore.DG>
-15.8850

> <Gold.Chemscore.ZeroCoef>
-5.4800

> <Gold.Chemscore.Hbond>
0.9377

> <Gold.Chemscore.Metal>
0.0000

> <Gold.Chemscore.Lipo>
95.2399

> <Gold.Chemscore.Internal_Hbond>
0.0000

> <Gold.Chemscore.DEClash>
0.0580

> <Gold.Chemscore.DEInternal>
2.3723

> <Gold.Chemscore.Rot>
1.5117

> <Gold.Chemscore.Internal.Correction>
   9.000000E+99

> <Gold.Chemscore.Hbonds>
donor molecule, donor type, donor heavy atom, donor atom, acceptor molecule, acceptor atom, score
      L1  H    15    34       P1  8029  0.54

> <Gold.Chemscore.Hbond.Weighted>
-3.1319

> <Gold.Chemscore.Metal.Weighted>
-0.0000

> <Gold.Chemscore.Lipo.Weighted>
-11.1431

> <Gold.Chemscore.Internal_Hbond.Weighted>
0.0000

> <Gold.Chemscore.DEClash.Weighted>
0.0580

> <Gold.Chemscore.DEInternal.Weighted>
2.3723

> <Gold.Chemscore.Rot.Weighted>
3.8700

> <Gold.Chemscore.Internal.Correction.Weighted>
   9.000000E+99

> <Gold.Protein.RotatedTorsions>
[ 6907 6896 6895 6894 ] final  -75.78 input  -60.11 | X-H torsion
[ 7974 7965 7964 7962 ] final -111.91 input  175.53 | X-H torsion
[ 8008 7997 7996 7995 ] final  -24.74 input   59.86 | X-H torsion
[ 10167 10162 10161 10158 ] final   58.03 input  -65.29 | X-H torsion
[ 10718 10713 10712 10709 ] final  129.04 input   66.30 | X-H torsion
[ 10763 10752 10751 10750 ] final  130.19 input  -60.55 | X-H torsion
[ 11005 11000 10999 10996 ] final -117.12 input  -57.11 | X-H torsion

> <Gold.Protein.ActiveResidues>
 VAL166  LYS551  ARG553  GLY616  TRP617  ASP618  TYR619  PRO620  LYS621  CYS622 
 ASP623  PHE694  ASN695  SER759  ASP760  ASP761  ALA762  ILE779  LEU786  VAL792 
 PHE793  MET794  SER795  GLU796  ALA797  LYS798  CYS799  TRP800  GLU811  SER814 

> <Gold.Protein.RotatedAtoms>
  150.7048  134.4670  159.5407 H   0  0  0  0  0  0  0  0  0  0  0  0  # atno 6907 bound_to 6896
  152.2333  134.8297  160.0479 H   0  0  0  0  0  0  0  0  0  0  0  0  # atno 6908 bound_to 6896
  151.9105  133.3525  159.3899 H   0  0  0  0  0  0  0  0  0  0  0  0  # atno 6909 bound_to 6896
  145.1504  140.8826  143.3649 H   0  0  0  0  0  0  0  0  0  0  0  0  # atno 7974 bound_to 7965
  154.4513  140.1945  156.0511 H   0  0  0  0  0  0  0  0  0  0  0  0  # atno 8008 bound_to 7997
  156.0653  140.3291  155.7483 H   0  0  0  0  0  0  0  0  0  0  0  0  # atno 8009 bound_to 7997
  155.5348  140.0581  157.2872 H   0  0  0  0  0  0  0  0  0  0  0  0  # atno 8010 bound_to 7997
  140.1916  144.4080  150.6569 H   0  0  0  0  0  0  0  0  0  0  0  0  # atno 10167 bound_to 10162
  157.5190  131.1098  150.9182 H   0  0  0  0  0  0  0  0  0  0  0  0  # atno 10718 bound_to 10713
  153.7540  135.3206  155.3326 H   0  0  0  0  0  0  0  0  0  0  0  0  # atno 10763 bound_to 10752
  154.8253  135.4574  154.0904 H   0  0  0  0  0  0  0  0  0  0  0  0  # atno 10764 bound_to 10752
  153.2115  135.6936  153.8191 H   0  0  0  0  0  0  0  0  0  0  0  0  # atno 10765 bound_to 10752
  141.0376  133.9885  157.3046 H   0  0  0  0  0  0  0  0  0  0  0  0  # atno 11005 bound_to 11000
  145.0437  139.3239  143.5964 LP  0  0  0  0  0  0  0  0  0  0  0  0  # atno 17320 bound_to 7965
  146.3495  139.9819  142.8695 LP  0  0  0  0  0  0  0  0  0  0  0  0  # atno 17321 bound_to 7965
  140.6452  143.2212  151.6202 LP  0  0  0  0  0  0  0  0  0  0  0  0  # atno 17342 bound_to 10162
  139.5254  144.3077  152.1020 LP  0  0  0  0  0  0  0  0  0  0  0  0  # atno 17343 bound_to 10162
  156.9798  130.5523  149.5295 LP  0  0  0  0  0  0  0  0  0  0  0  0  # atno 17370 bound_to 10713
  156.0340  130.5429  150.8607 LP  0  0  0  0  0  0  0  0  0  0  0  0  # atno 17371 bound_to 10713
  139.9252  135.0201  156.8208 LP  0  0  0  0  0  0  0  0  0  0  0  0  # atno 17394 bound_to 11000
  140.6294  133.9920  155.7655 LP  0  0  0  0  0  0  0  0  0  0  0  0  # atno 17395 bound_to 11000

$$$$
