AV-unprocessed.smi:2198|AV-procd|sdf|8916|dock5
  -GOLD-   2272012133D 1   1.00000     0.00000
 Structure written by MMmdl.
 43 44  0  0  0  0  0  0  0  0  1 V2000
  144.1882  143.5858  157.8774 C   0  0  0  0  0  0  0  0  0  0  0  0
  145.3895  142.8919  157.2732 C   0  0  0  0  0  0  0  0  0  0  0  0
  145.5123  143.0797  155.9063 N   0  0  0  0  0  0  0  0  0  0  0  0
  146.5790  142.4771  155.2634 C   0  0  0  0  0  0  0  0  0  0  0  0
  146.6382  142.7292  153.7670 C   0  0  0  0  0  0  0  0  0  0  0  0
  147.4823  141.7315  155.9492 C   0  0  0  0  0  0  0  0  0  0  0  0
  148.6764  141.0530  155.2784 C   0  0  0  0  0  0  0  0  0  0  0  0
  150.0588  141.4080  155.8329 C   0  0  0  0  0  0  0  0  0  0  0  0
  151.0570  140.7754  155.4869 O   0  0  0  0  0  0  0  0  0  0  0  0
  150.0969  142.4261  156.7055 N   0  0  0  0  0  0  0  0  0  0  0  0
  151.2964  142.9183  157.3765 C   0  0  1  0  0  0  0  0  0  0  0  0
  151.0138  144.3011  157.9911 C   0  0  0  0  0  0  0  0  0  0  0  0
  152.2318  144.8298  158.7643 C   0  0  0  0  0  0  0  0  0  0  0  0
  152.6854  143.8320  159.8413 C   0  0  0  0  0  0  0  0  0  0  0  0
  152.9817  142.4459  159.2375 C   0  0  1  0  0  0  0  0  0  0  0  0
  153.4296  141.4470  160.3142 C   0  0  0  0  0  0  0  0  0  0  0  0
  151.7578  141.9224  158.4611 C   0  0  0  0  0  0  0  0  0  0  0  0
  147.3052  141.5773  157.4125 C   0  0  0  0  0  0  0  0  0  0  0  0
  148.0994  140.9287  158.0925 O   0  0  0  0  0  0  0  0  0  0  0  0
  146.2000  142.1999  158.0149 N   0  0  0  0  0  0  0  0  0  0  0  0
  144.8666  143.6297  155.3585 H   0  0  0  0  0  0  0  0  0  0  0  0
  144.0394  143.2756  158.9125 H   0  0  0  0  0  0  0  0  0  0  0  0
  143.2844  143.3443  157.3174 H   0  0  0  0  0  0  0  0  0  0  0  0
  144.3286  144.6670  157.8610 H   0  0  0  0  0  0  0  0  0  0  0  0
  146.5443  141.7915  153.2192 H   0  0  0  0  0  0  0  0  0  0  0  0
  147.5861  143.1942  153.4954 H   0  0  0  0  0  0  0  0  0  0  0  0
  145.8357  143.3905  153.4384 H   0  0  0  0  0  0  0  0  0  0  0  0
  148.6674  141.3107  154.2191 H   0  0  0  0  0  0  0  0  0  0  0  0
  148.5617  139.9687  155.3008 H   0  0  0  0  0  0  0  0  0  0  0  0
  149.2284  142.8898  156.9291 H   0  0  0  0  0  0  0  0  0  0  0  0
  152.0936  143.0320  156.6391 H   0  0  0  0  0  0  0  0  0  0  0  0
  150.7403  145.0096  157.2083 H   0  0  0  0  0  0  0  0  0  0  0  0
  150.1584  144.2392  158.6657 H   0  0  0  0  0  0  0  0  0  0  0  0
  153.0524  145.0172  158.0706 H   0  0  0  0  0  0  0  0  0  0  0  0
  151.9912  145.7886  159.2240 H   0  0  0  0  0  0  0  0  0  0  0  0
  153.5724  144.2176  160.3451 H   0  0  0  0  0  0  0  0  0  0  0  0
  151.9107  143.7446  160.6044 H   0  0  0  0  0  0  0  0  0  0  0  0
  153.8048  142.5564  158.5301 H   0  0  0  0  0  0  0  0  0  0  0  0
  152.6482  141.2895  161.0584 H   0  0  0  0  0  0  0  0  0  0  0  0
  154.3192  141.8023  160.8348 H   0  0  0  0  0  0  0  0  0  0  0  0
  153.6707  140.4790  159.8745 H   0  0  0  0  0  0  0  0  0  0  0  0
  150.9388  141.7327  159.1569 H   0  0  0  0  0  0  0  0  0  0  0  0
  151.9998  140.9622  158.0036 H   0  0  0  0  0  0  0  0  0  0  0  0
  1 22  1  0  0  0  0
  1 23  1  0  0  0  0
  1 24  1  0  0  0  0
  1  2  1  0  0  0  0
  2  3  1  0  0  0  0
  2 20  2  0  0  0  0
  3  4  1  0  0  0  0
  3 21  1  0  0  0  0
  4  6  2  0  0  0  0
  4  5  1  0  0  0  0
  5 25  1  0  0  0  0
  5 26  1  0  0  0  0
  5 27  1  0  0  0  0
  6 18  1  0  0  0  0
  6  7  1  0  0  0  0
  7  8  1  0  0  0  0
  7 28  1  0  0  0  0
  7 29  1  0  0  0  0
  8  9  2  0  0  0  0
  8 10  1  0  0  0  0
 10 11  1  0  0  0  0
 10 30  1  0  0  0  0
 11 17  1  0  0  0  0
 11 12  1  0  0  0  0
 11 31  1  0  0  0  0
 12 13  1  0  0  0  0
 12 32  1  0  0  0  0
 12 33  1  0  0  0  0
 13 14  1  0  0  0  0
 13 34  1  0  0  0  0
 13 35  1  0  0  0  0
 14 15  1  0  0  0  0
 14 36  1  0  0  0  0
 14 37  1  0  0  0  0
 15 16  1  0  0  0  0
 15 17  1  0  0  0  0
 15 38  1  0  0  0  0
 16 39  1  0  0  0  0
 16 40  1  0  0  0  0
 16 41  1  0  0  0  0
 17 42  1  0  0  0  0
 17 43  1  0  0  0  0
 18 19  2  0  0  0  0
 18 20  1  0  0  0  0
M  END
> <s_m_source_file>
AV-unprocessed.smi

> <i_m_source_file_index>
2198

> <i_lp_mmshare_version>
43012

> <i_f3d_flags>
0

> <s_epik_input>
W0NIM11jMW5jKFtDSDNdKWMoYyg9TylbbkhdMSlbQ0gyXUMoPU8pW05IXVtDQEBIXTJbQ0gyXVtDSDJdW0NIMl1bQ0BASF0oW0NIM10pW0NIMl0y

> <s_epik_cmdline>
J2VwaWtfcHl0aG9uJywgJy1waCcsICc3LjAnLCAnLXRuJywgJzgnLCAnLW1hJywgJzIwMCcsICctbWV0YWxfYmluZGluZycsICctaW1hZScsICc8aW5maWxlLm1hZT4nLCAnLW9tYWUnLCAnPG91dGZpbGUubWFlPic=

> <r_lp_tautomer_probability>
0.156392

> <r_epik_Ionization_Penalty>
0.0136514

> <r_epik_Ionization_Penalty_Charging>
0.0135207

> <r_epik_Ionization_Penalty_Neutral>
0.000130657

> <r_epik_State_Penalty>
1.15342

> <r_epik_Charging_Adjusted_Penalty>
1.16694

> <i_epik_Tot_Q>
0

> <i_epik_Tot_abs_Q>
0

> <r_epik_Metal_State_Penalty>
1.31404

> <b_epik_Metal_Only>
0

> <s_lp_Force_Field>
OPLS_2005

> <r_lp_Energy>
13.5708

> <b_lp_Chiralities_Consistent>
1

> <s_lp_Variant>
AV-unprocessed.smi:2198-6

> <Gold.Version>
5.8.1

> <Gold.Id.Protein>
6NUR|6NUR_protein|mol2

> <Gold.PLP.Fitness>
41.9994

> <Gold.PLP.PLP>
-39.9443

> <Gold.PLP.part.hbond>
-2.8159

> <Gold.PLP.part.metal>
0.0000

> <Gold.PLP.part.buried>
-4.4745

> <Gold.PLP.part.nonpolar>
-32.6616

> <Gold.PLP.part.repulsive>
0.1786

> <Gold.PLP.ligand.clash>
0.0000

> <Gold.PLP.ligand.torsion>
0.2756

> <Gold.PLP.Chemscore.Hbond>
0.8677

> <Gold.PLP.Chemscore.CHOScore>
0.0000

> <Gold.PLP.Chemscore.Metal>
0.0000

> <Gold.Chemscore.Hbonds>
donor molecule, donor type, donor heavy atom, donor atom, acceptor molecule, acceptor atom, score
      L1  H    10    30       P1  8028  0.12
      P1  H  7989  7998       L1     9  0.73

> <Gold.PLP.Chemscore.Internal.Correction>
0.0032

> <Gold.Rescore>
     Score         DG    S(hbond)    S(metal)    S(lipo)     H(rot)  DE(clash)    DE(int)     intcor
     16.09     -16.93       0.98        0.00     102.10       1.48       0.45       0.38       ----

> <Gold.Chemscore.Fitness>
16.0943

> <Gold.Chemscore.DG>
-16.9257

> <Gold.Chemscore.ZeroCoef>
-5.4800

> <Gold.Chemscore.Hbond>
0.9846

> <Gold.Chemscore.Metal>
0.0000

> <Gold.Chemscore.Lipo>
102.1044

> <Gold.Chemscore.Internal_Hbond>
0.0000

> <Gold.Chemscore.DEClash>
0.4528

> <Gold.Chemscore.DEInternal>
0.3786

> <Gold.Chemscore.Rot>
1.4801

> <Gold.Chemscore.Internal.Correction>
   9.000000E+99

> <Gold.Chemscore.Hbonds>
donor molecule, donor type, donor heavy atom, donor atom, acceptor molecule, acceptor atom, score
      L1  H    10    30       P1  8028  0.12
      P1  H  7989  7998       L1     9  0.67

> <Gold.Chemscore.Hbond.Weighted>
-3.2886

> <Gold.Chemscore.Metal.Weighted>
-0.0000

> <Gold.Chemscore.Lipo.Weighted>
-11.9462

> <Gold.Chemscore.Internal_Hbond.Weighted>
0.0000

> <Gold.Chemscore.DEClash.Weighted>
0.4528

> <Gold.Chemscore.DEInternal.Weighted>
0.3786

> <Gold.Chemscore.Rot.Weighted>
3.7891

> <Gold.Chemscore.Internal.Correction.Weighted>
   9.000000E+99

> <Gold.Protein.RotatedTorsions>
[ 6907 6896 6895 6894 ] final   35.78 input  -60.11 | X-H torsion
[ 7974 7965 7964 7962 ] final  158.02 input  175.53 | X-H torsion
[ 8008 7997 7996 7995 ] final   -9.53 input   59.86 | X-H torsion
[ 10167 10162 10161 10158 ] final  -95.54 input  -65.29 | X-H torsion
[ 10718 10713 10712 10709 ] final   53.98 input   66.30 | X-H torsion
[ 10763 10752 10751 10750 ] final  115.87 input  -60.55 | X-H torsion
[ 11005 11000 10999 10996 ] final   54.88 input  -57.11 | X-H torsion

> <Gold.Protein.ActiveResidues>
 VAL166  LYS551  ARG553  GLY616  TRP617  ASP618  TYR619  PRO620  LYS621  CYS622 
 ASP623  PHE694  ASN695  SER759  ASP760  ASP761  ALA762  ILE779  LEU786  VAL792 
 PHE793  MET794  SER795  GLU796  ALA797  LYS798  CYS799  TRP800  GLU811  SER814 

> <Gold.Protein.RotatedAtoms>
  152.1208  134.9207  160.0562 H   0  0  0  0  0  0  0  0  0  0  0  0  # atno 6907 bound_to 6896
  152.0349  133.3948  159.4321 H   0  0  0  0  0  0  0  0  0  0  0  0  # atno 6908 bound_to 6896
  150.6849  134.3401  159.4908 H   0  0  0  0  0  0  0  0  0  0  0  0  # atno 6909 bound_to 6896
  144.7869  139.7421  143.6237 H   0  0  0  0  0  0  0  0  0  0  0  0  # atno 7974 bound_to 7965
  154.5638  140.2352  155.8294 H   0  0  0  0  0  0  0  0  0  0  0  0  # atno 8008 bound_to 7997
  156.2051  140.3042  155.9569 H   0  0  0  0  0  0  0  0  0  0  0  0  # atno 8009 bound_to 7997
  155.2839  140.0423  157.3008 H   0  0  0  0  0  0  0  0  0  0  0  0  # atno 8010 bound_to 7997
  140.3031  143.3150  152.0227 H   0  0  0  0  0  0  0  0  0  0  0  0  # atno 10167 bound_to 10162
  157.5216  130.8568  149.8565 H   0  0  0  0  0  0  0  0  0  0  0  0  # atno 10718 bound_to 10713
  153.5287  135.3582  155.2666 H   0  0  0  0  0  0  0  0  0  0  0  0  # atno 10763 bound_to 10752
  154.8729  135.4063  154.3176 H   0  0  0  0  0  0  0  0  0  0  0  0  # atno 10764 bound_to 10752
  153.3860  135.7070  153.6597 H   0  0  0  0  0  0  0  0  0  0  0  0  # atno 10765 bound_to 10752
  140.0651  134.5548  155.9108 H   0  0  0  0  0  0  0  0  0  0  0  0  # atno 11005 bound_to 11000
  146.2105  139.5459  142.9684 LP  0  0  0  0  0  0  0  0  0  0  0  0  # atno 17320 bound_to 7965
  145.5896  141.0371  143.2077 LP  0  0  0  0  0  0  0  0  0  0  0  0  # atno 17321 bound_to 7965
  139.4910  144.6441  151.6815 LP  0  0  0  0  0  0  0  0  0  0  0  0  # atno 17342 bound_to 10162
  140.5634  144.0231  150.6180 LP  0  0  0  0  0  0  0  0  0  0  0  0  # atno 17343 bound_to 10162
  156.0357  130.3752  150.1567 LP  0  0  0  0  0  0  0  0  0  0  0  0  # atno 17370 bound_to 10713
  156.9755  130.9848  151.3449 LP  0  0  0  0  0  0  0  0  0  0  0  0  # atno 17371 bound_to 10713
  141.1989  133.6604  156.5818 LP  0  0  0  0  0  0  0  0  0  0  0  0  # atno 17394 bound_to 11000
  140.3711  134.7605  157.4599 LP  0  0  0  0  0  0  0  0  0  0  0  0  # atno 17395 bound_to 11000

$$$$
