AV-unprocessed.smi:3028|AV-procd|sdf|11523|dock6
  -GOLD-   2272016463D 1   1.00000     0.00000
 Structure written by MMmdl.
 47 48  0  0  0  0  0  0  0  0  1 V2000
  143.8403  132.5738  148.5239 C   0  0  0  0  0  0  0  0  0  0  0  0
  144.4820  132.7338  149.8720 C   0  0  0  0  0  0  0  0  0  0  0  0
  143.9923  133.4637  150.9914 C   0  0  0  0  0  0  0  0  0  0  0  0
  144.8021  133.4064  152.0349 N   0  0  0  0  0  0  0  0  0  0  0  0
  145.8349  132.6339  151.6272 N   0  0  0  0  0  0  0  0  0  0  0  0
  146.9584  132.3588  152.5201 C   0  0  2  0  0  0  0  0  0  0  0  0
  147.0612  130.8623  152.8711 C   0  0  0  0  0  0  0  0  0  0  0  0
  147.0141  133.3070  153.7531 C   0  0  1  0  0  0  0  0  0  0  0  0
  148.0785  132.8719  154.7749 C   0  0  0  0  0  0  0  0  0  0  0  0
  147.3328  134.6815  153.3762 N   0  0  0  0  0  0  0  0  0  0  0  0
  146.6555  135.6876  154.2050 C   0  0  0  0  0  0  0  0  0  0  0  0
  147.6350  136.5184  155.0489 C   0  0  0  0  0  0  0  0  0  0  0  0
  147.4234  136.7013  156.2472 O   0  0  0  0  0  0  0  0  0  0  0  0
  148.7274  137.0365  154.4629 N   0  0  0  0  0  0  0  0  0  0  0  0
  149.7749  137.8483  155.0786 C   0  0  0  0  0  0  0  0  0  0  0  0
  149.4044  139.3348  154.9690 C   0  0  0  0  0  0  0  0  0  0  0  0
  150.5581  140.2212  155.4654 C   0  0  0  0  0  0  0  0  0  0  0  0
  151.7443  139.9304  154.7338 O   0  0  0  0  0  0  0  0  0  0  0  0
  152.1878  138.5886  154.9065 C   0  0  0  0  0  0  0  0  0  0  0  0
  151.1249  137.6096  154.3819 C   0  0  0  0  0  0  0  0  0  0  0  0
  145.6666  132.2223  150.3208 C   0  0  0  0  0  0  0  0  0  0  0  0
  143.1552  133.3924  148.3026 H   0  0  0  0  0  0  0  0  0  0  0  0
  143.2674  131.6487  148.4598 H   0  0  0  0  0  0  0  0  0  0  0  0
  144.5807  132.5507  147.7241 H   0  0  0  0  0  0  0  0  0  0  0  0
  143.0777  134.0322  151.0754 H   0  0  0  0  0  0  0  0  0  0  0  0
  147.8564  132.5739  151.9391 H   0  0  0  0  0  0  0  0  0  0  0  0
  147.9284  130.6662  153.5020 H   0  0  0  0  0  0  0  0  0  0  0  0
  147.1700  130.2600  151.9688 H   0  0  0  0  0  0  0  0  0  0  0  0
  146.1774  130.5011  153.3965 H   0  0  0  0  0  0  0  0  0  0  0  0
  146.0518  133.2742  154.2669 H   0  0  0  0  0  0  0  0  0  0  0  0
  147.9128  131.8448  155.1003 H   0  0  0  0  0  0  0  0  0  0  0  0
  148.0491  133.5033  155.6638 H   0  0  0  0  0  0  0  0  0  0  0  0
  149.0873  132.9312  154.3648 H   0  0  0  0  0  0  0  0  0  0  0  0
  147.1343  134.8085  152.3930 H   0  0  0  0  0  0  0  0  0  0  0  0
  146.0840  136.3623  153.5701 H   0  0  0  0  0  0  0  0  0  0  0  0
  145.9508  135.1867  154.8697 H   0  0  0  0  0  0  0  0  0  0  0  0
  148.8454  136.8408  153.4792 H   0  0  0  0  0  0  0  0  0  0  0  0
  149.8738  137.6103  156.1381 H   0  0  0  0  0  0  0  0  0  0  0  0
  149.1810  139.5871  153.9312 H   0  0  0  0  0  0  0  0  0  0  0  0
  148.5002  139.5425  155.5423 H   0  0  0  0  0  0  0  0  0  0  0  0
  150.3079  141.2729  155.3263 H   0  0  0  0  0  0  0  0  0  0  0  0
  150.7309  140.0738  156.5327 H   0  0  0  0  0  0  0  0  0  0  0  0
  153.1216  138.4543  154.3602 H   0  0  0  0  0  0  0  0  0  0  0  0
  152.4051  138.3988  155.9587 H   0  0  0  0  0  0  0  0  0  0  0  0
  151.4588  136.5828  154.5328 H   0  0  0  0  0  0  0  0  0  0  0  0
  151.0152  137.7461  153.3049 H   0  0  0  0  0  0  0  0  0  0  0  0
  146.3990  131.6050  149.8216 H   0  0  0  0  0  0  0  0  0  0  0  0
  1  2  1  0  0  0  0
  1 22  1  0  0  0  0
  1 23  1  0  0  0  0
  1 24  1  0  0  0  0
  2 21  2  0  0  0  0
  2  3  1  0  0  0  0
  3  4  2  0  0  0  0
  3 25  1  0  0  0  0
  4  5  1  0  0  0  0
  5  6  1  0  0  0  0
  5 21  1  0  0  0  0
  6  7  1  0  0  0  0
  6  8  1  0  0  0  0
  6 26  1  0  0  0  0
  7 27  1  0  0  0  0
  7 28  1  0  0  0  0
  7 29  1  0  0  0  0
  8  9  1  0  0  0  0
  8 10  1  0  0  0  0
  8 30  1  0  0  0  0
  9 31  1  0  0  0  0
  9 32  1  0  0  0  0
  9 33  1  0  0  0  0
 10 11  1  0  0  0  0
 10 34  1  0  0  0  0
 11 12  1  0  0  0  0
 11 35  1  0  0  0  0
 11 36  1  0  0  0  0
 12 13  2  0  0  0  0
 12 14  1  0  0  0  0
 14 15  1  0  0  0  0
 14 37  1  0  0  0  0
 15 20  1  0  0  0  0
 15 16  1  0  0  0  0
 15 38  1  0  0  0  0
 16 17  1  0  0  0  0
 16 39  1  0  0  0  0
 16 40  1  0  0  0  0
 17 18  1  0  0  0  0
 17 41  1  0  0  0  0
 17 42  1  0  0  0  0
 18 19  1  0  0  0  0
 19 20  1  0  0  0  0
 19 43  1  0  0  0  0
 19 44  1  0  0  0  0
 20 45  1  0  0  0  0
 20 46  1  0  0  0  0
 21 47  1  0  0  0  0
M  END
> <s_m_source_file>
AV-unprocessed.smi

> <i_m_source_file_index>
3028

> <i_lp_mmshare_version>
43012

> <i_f3d_flags>
0

> <s_epik_input>
W0NIM11jMVtjSF1ubihbY0hdMSlbQ0BIXShbQ0gzXSlbQ0BIXShbQ0gzXSlbTkhdW0NIMl1DKD1PKVtOSF1bQ0hdMltDSDJdW0NIMl1PW0NIMl1bQ0gyXTI=

> <s_epik_cmdline>
J2VwaWtfcHl0aG9uJywgJy1waCcsICc3LjAnLCAnLXRuJywgJzgnLCAnLW1hJywgJzIwMCcsICctbWV0YWxfYmluZGluZycsICctaW1hZScsICc8aW5maWxlLm1hZT4nLCAnLW9tYWUnLCAnPG91dGZpbGUubWFlPic=

> <r_lp_tautomer_probability>
1

> <r_epik_Ionization_Penalty>
0.88617

> <r_epik_Ionization_Penalty_Charging>
0

> <r_epik_Ionization_Penalty_Neutral>
0.88617

> <r_epik_State_Penalty>
0.921066

> <r_epik_Charging_Adjusted_Penalty>
0.921066

> <i_epik_Tot_Q>
0

> <i_epik_Tot_abs_Q>
0

> <r_epik_Metal_State_Penalty>
0.917309

> <b_epik_Metal_Only>
0

> <s_lp_Force_Field>
OPLS_2005

> <r_lp_Energy>
19.7658

> <b_lp_Chiralities_Consistent>
1

> <s_lp_Variant>
AV-unprocessed.smi:3028-7

> <Gold.Version>
5.8.1

> <Gold.Id.Protein>
6NUR|6NUR_protein|mol2

> <Gold.PLP.Fitness>
43.8628

> <Gold.PLP.PLP>
-35.7216

> <Gold.PLP.part.hbond>
-2.8110

> <Gold.PLP.part.metal>
0.0000

> <Gold.PLP.part.buried>
-2.5739

> <Gold.PLP.part.nonpolar>
-29.7742

> <Gold.PLP.part.repulsive>
0.1712

> <Gold.PLP.ligand.clash>
0.0000

> <Gold.PLP.ligand.torsion>
1.7375

> <Gold.PLP.Chemscore.Hbond>
2.0000

> <Gold.PLP.Chemscore.CHOScore>
1.7794

> <Gold.PLP.Chemscore.Metal>
0.0000

> <Gold.Chemscore.Hbonds>
donor molecule, donor type, donor heavy atom, donor atom, acceptor molecule, acceptor atom, score
      L1  H    14    37       P1  7948  1.00
      P1  H  7989  7998       L1    18  1.00
      L1  C     3    25       P1 10186  0.84
      L1  C    21    47       P1 10747  0.56

> <Gold.PLP.Chemscore.Internal.Correction>
0.2779

> <Gold.Rescore>
     Score         DG    S(hbond)    S(metal)    S(lipo)     H(rot)  DE(clash)    DE(int)     intcor
     16.41     -18.04       1.90        0.00      95.30       1.92       0.01       1.62       ----

> <Gold.Chemscore.Fitness>
16.4095

> <Gold.Chemscore.DG>
-18.0376

> <Gold.Chemscore.ZeroCoef>
-5.4800

> <Gold.Chemscore.Hbond>
1.8956

> <Gold.Chemscore.Metal>
0.0000

> <Gold.Chemscore.Lipo>
95.2987

> <Gold.Chemscore.Internal_Hbond>
0.0000

> <Gold.Chemscore.DEClash>
0.0120

> <Gold.Chemscore.DEInternal>
1.6162

> <Gold.Chemscore.Rot>
1.9233

> <Gold.Chemscore.Internal.Correction>
   9.000000E+99

> <Gold.Chemscore.Hbonds>
donor molecule, donor type, donor heavy atom, donor atom, acceptor molecule, acceptor atom, score
      L1  H    10    34       P1  7948  0.01
      L1  H    14    37       P1  7948  1.00
      P1  H  7989  7998       L1    18  0.41

> <Gold.Chemscore.Hbond.Weighted>
-6.3312

> <Gold.Chemscore.Metal.Weighted>
-0.0000

> <Gold.Chemscore.Lipo.Weighted>
-11.1499

> <Gold.Chemscore.Internal_Hbond.Weighted>
0.0000

> <Gold.Chemscore.DEClash.Weighted>
0.0120

> <Gold.Chemscore.DEInternal.Weighted>
1.6162

> <Gold.Chemscore.Rot.Weighted>
4.9235

> <Gold.Chemscore.Internal.Correction.Weighted>
   9.000000E+99

> <Gold.Protein.RotatedTorsions>
[ 6907 6896 6895 6894 ] final -148.46 input  -60.11 | X-H torsion
[ 7974 7965 7964 7962 ] final -146.26 input  175.53 | X-H torsion
[ 8008 7997 7996 7995 ] final -117.56 input   59.86 | X-H torsion
[ 10167 10162 10161 10158 ] final   94.94 input  -65.29 | X-H torsion
[ 10718 10713 10712 10709 ] final   32.51 input   66.30 | X-H torsion
[ 10763 10752 10751 10750 ] final  110.55 input  -60.55 | X-H torsion
[ 11005 11000 10999 10996 ] final  104.70 input  -57.11 | X-H torsion

> <Gold.Protein.ActiveResidues>
 VAL166  LYS551  ARG553  GLY616  TRP617  ASP618  TYR619  PRO620  LYS621  CYS622 
 ASP623  PHE694  ASN695  SER759  ASP760  ASP761  ALA762  ILE779  LEU786  VAL792 
 PHE793  MET794  SER795  GLU796  ALA797  LYS798  CYS799  TRP800  GLU811  SER814 

> <Gold.Protein.RotatedAtoms>
  151.1702  133.4789  159.2593 H   0  0  0  0  0  0  0  0  0  0  0  0  # atno 6907 bound_to 6896
  151.1364  135.0157  159.8616 H   0  0  0  0  0  0  0  0  0  0  0  0  # atno 6908 bound_to 6896
  152.5461  134.1600  159.8607 H   0  0  0  0  0  0  0  0  0  0  0  0  # atno 6909 bound_to 6896
  144.8171  140.5478  143.5603 H   0  0  0  0  0  0  0  0  0  0  0  0  # atno 7974 bound_to 7965
  155.0857  140.0394  157.2653 H   0  0  0  0  0  0  0  0  0  0  0  0  # atno 8008 bound_to 7997
  154.6871  140.2645  155.6825 H   0  0  0  0  0  0  0  0  0  0  0  0  # atno 8009 bound_to 7997
  156.2716  140.2767  156.1436 H   0  0  0  0  0  0  0  0  0  0  0  0  # atno 8010 bound_to 7997
  139.8036  144.6803  150.9732 H   0  0  0  0  0  0  0  0  0  0  0  0  # atno 10167 bound_to 10162
  157.2862  130.7280  149.6584 H   0  0  0  0  0  0  0  0  0  0  0  0  # atno 10718 bound_to 10713
  153.4506  135.3745  155.2281 H   0  0  0  0  0  0  0  0  0  0  0  0  # atno 10763 bound_to 10752
  154.8756  135.3885  154.4043 H   0  0  0  0  0  0  0  0  0  0  0  0  # atno 10764 bound_to 10752
  153.4602  135.7086  153.6119 H   0  0  0  0  0  0  0  0  0  0  0  0  # atno 10765 bound_to 10752
  139.8794  134.9310  156.5401 H   0  0  0  0  0  0  0  0  0  0  0  0  # atno 11005 bound_to 11000
  145.5189  139.1477  143.3563 LP  0  0  0  0  0  0  0  0  0  0  0  0  # atno 17320 bound_to 7965
  146.2475  140.5330  142.8907 LP  0  0  0  0  0  0  0  0  0  0  0  0  # atno 17321 bound_to 7965
  140.7820  143.4256  151.0773 LP  0  0  0  0  0  0  0  0  0  0  0  0  # atno 17342 bound_to 10162
  139.7927  143.8196  152.3153 LP  0  0  0  0  0  0  0  0  0  0  0  0  # atno 17343 bound_to 10162
  155.9665  130.4323  150.4956 LP  0  0  0  0  0  0  0  0  0  0  0  0  # atno 17370 bound_to 10713
  157.2910  131.0626  151.2134 LP  0  0  0  0  0  0  0  0  0  0  0  0  # atno 17371 bound_to 10713
  140.8317  133.8274  155.8990 LP  0  0  0  0  0  0  0  0  0  0  0  0  # atno 17394 bound_to 11000
  140.9323  134.2007  157.4855 LP  0  0  0  0  0  0  0  0  0  0  0  0  # atno 17395 bound_to 11000

$$$$
