AV-unprocessed.smi:3132|AV-procd|sdf|11932|dock7
  -GOLD-   2272017323D 1   1.00000     0.00000
 Structure written by MMmdl.
 34 35  0  0  0  0  0  0  0  0  2 V2000
  148.1784  141.4195  156.9678 C   0  0  0  0  0  0  0  0  0  0  0  0
  149.4416  141.6475  156.1268 C   0  0  1  0  0  0  0  0  0  0  0  0
  149.0867  142.0259  154.6721 C   0  0  0  0  0  0  0  0  0  0  0  0
  148.0672  141.1505  154.0839 N   0  0  0  0  0  0  0  0  0  0  0  0
  148.1985  139.8261  153.7515 C   0  0  0  0  0  0  0  0  0  0  0  0
  146.9847  139.4255  153.2558 C   0  0  0  0  0  0  0  0  0  0  0  0
  146.1666  140.5226  153.3004 N   0  3  0  0  0  0  0  0  0  0  0  0
  146.8275  141.5712  153.8015 C   0  0  0  0  0  0  0  0  0  0  0  0
  150.2496  142.6922  156.7550 N   0  0  0  0  0  0  0  0  0  0  0  0
  151.4154  142.5030  157.3939 C   0  0  0  0  0  0  0  0  0  0  0  0
  151.9314  141.3946  157.5446 O   0  0  0  0  0  0  0  0  0  0  0  0
  152.1206  143.7670  157.8966 C   0  0  1  0  0  0  0  0  0  0  0  0
  151.2675  145.0470  157.8158 C   0  0  0  0  0  0  0  0  0  0  0  0
  150.8956  145.3159  159.2601 C   0  0  0  0  0  0  0  0  0  0  0  0
  152.1090  144.7653  159.9958 C   0  0  0  0  0  0  0  0  0  0  0  0
  152.4146  143.5776  159.2805 O   0  0  0  0  0  0  0  0  0  0  0  0
  147.5638  140.6241  156.5452 H   0  0  0  0  0  0  0  0  0  0  0  0
  147.5659  142.3205  157.0194 H   0  0  0  0  0  0  0  0  0  0  0  0
  148.4324  141.1300  157.9882 H   0  0  0  0  0  0  0  0  0  0  0  0
  149.9958  140.7072  156.1205 H   0  0  0  0  0  0  0  0  0  0  0  0
  148.7062  143.0474  154.6256 H   0  0  0  0  0  0  0  0  0  0  0  0
  149.9722  141.9898  154.0356 H   0  0  0  0  0  0  0  0  0  0  0  0
  149.1185  139.2790  153.8984 H   0  0  0  0  0  0  0  0  0  0  0  0
  146.6503  138.4671  152.8862 H   0  0  0  0  0  0  0  0  0  0  0  0
  146.4335  142.5595  153.9585 H   0  0  0  0  0  0  0  0  0  0  0  0
  149.9078  143.6394  156.6763 H   0  0  0  0  0  0  0  0  0  0  0  0
  153.0522  143.9134  157.3472 H   0  0  0  0  0  0  0  0  0  0  0  0
  151.8750  145.8675  157.4309 H   0  0  0  0  0  0  0  0  0  0  0  0
  150.3910  144.9646  157.1714 H   0  0  0  0  0  0  0  0  0  0  0  0
  150.7113  146.3705  159.4672 H   0  0  0  0  0  0  0  0  0  0  0  0
  150.0030  144.7503  159.5315 H   0  0  0  0  0  0  0  0  0  0  0  0
  152.9504  145.4570  159.9293 H   0  0  0  0  0  0  0  0  0  0  0  0
  151.9102  144.5615  161.0482 H   0  0  0  0  0  0  0  0  0  0  0  0
  145.1995  140.5394  153.0017 H   0  0  0  0  0  0  0  0  0  0  0  0
  1  2  1  0  0  0  0
  1 17  1  0  0  0  0
  1 18  1  0  0  0  0
  1 19  1  0  0  0  0
  2  3  1  0  0  0  0
  2  9  1  0  0  0  0
  2 20  1  0  0  0  0
  3  4  1  0  0  0  0
  3 21  1  0  0  0  0
  3 22  1  0  0  0  0
  4  8  1  0  0  0  0
  4  5  1  0  0  0  0
  5  6  2  0  0  0  0
  5 23  1  0  0  0  0
  6  7  1  0  0  0  0
  6 24  1  0  0  0  0
  7  8  2  0  0  0  0
  7 34  1  0  0  0  0
  8 25  1  0  0  0  0
  9 10  1  0  0  0  0
  9 26  1  0  0  0  0
 10 11  2  0  0  0  0
 10 12  1  0  0  0  0
 12 16  1  0  0  0  0
 12 13  1  0  0  0  0
 12 27  1  0  0  0  0
 13 14  1  0  0  0  0
 13 28  1  0  0  0  0
 13 29  1  0  0  0  0
 14 15  1  0  0  0  0
 14 30  1  0  0  0  0
 14 31  1  0  0  0  0
 15 16  1  0  0  0  0
 15 32  1  0  0  0  0
 15 33  1  0  0  0  0
M  CHG  1   7   1
M  END
> <s_m_source_file>
AV-unprocessed.smi

> <i_m_source_file_index>
3132

> <i_lp_mmshare_version>
43012

> <i_f3d_flags>
0

> <s_epik_input>
W2NIXTFuW2NIXVtjSF1uMVtDSDJdW0NAQEhdKFtDSDNdKVtOSF1DKD1PKVtDQEBIXTJbQ0gyXVtDSDJdW0NIMl1PMg==

> <s_epik_cmdline>
J2VwaWtfcHl0aG9uJywgJy1waCcsICc3LjAnLCAnLXRuJywgJzgnLCAnLW1hJywgJzIwMCcsICctbWV0YWxfYmluZGluZycsICctaW1hZScsICc8aW5maWxlLm1hZT4nLCAnLW9tYWUnLCAnPG91dGZpbGUubWFlPic=

> <r_lp_tautomer_probability>
1

> <r_epik_Ionization_Penalty>
0.250802

> <r_epik_Ionization_Penalty_Charging>
0

> <r_epik_Ionization_Penalty_Neutral>
0.250802

> <r_epik_State_Penalty>
0.242139

> <r_epik_Charging_Adjusted_Penalty>
0.242139

> <i_epik_Tot_Q>
1

> <i_epik_Tot_abs_Q>
1

> <r_epik_Metal_State_Penalty>
0.533361

> <b_epik_Metal_Only>
0

> <s_lp_Force_Field>
OPLS_2005

> <r_lp_Energy>
20.1872

> <b_lp_Chiralities_Consistent>
1

> <s_lp_Variant>
AV-unprocessed.smi:3132-4

> <Gold.Version>
5.8.1

> <Gold.Id.Protein>
6NUR|6NUR_protein|mol2

> <Gold.PLP.Fitness>
42.7101

> <Gold.PLP.PLP>
-35.1990

> <Gold.PLP.part.hbond>
-2.0000

> <Gold.PLP.part.metal>
0.0000

> <Gold.PLP.part.buried>
-4.6424

> <Gold.PLP.part.nonpolar>
-27.7545

> <Gold.PLP.part.repulsive>
0.0413

> <Gold.PLP.ligand.clash>
0.0000

> <Gold.PLP.ligand.torsion>
0.3704

> <Gold.PLP.Chemscore.Hbond>
2.7436

> <Gold.PLP.Chemscore.CHOScore>
0.0000

> <Gold.PLP.Chemscore.Metal>
0.0000

> <Gold.Chemscore.Hbonds>
donor molecule, donor type, donor heavy atom, donor atom, acceptor molecule, acceptor atom, score
      L1  H     7    34       P1 10175  2.00
      L1  H     9    26       P1  8028  0.88
      L1  C     5    23       P1  7957  0.01

> <Gold.PLP.Chemscore.Internal.Correction>
0.0210

> <Gold.Rescore>
     Score         DG    S(hbond)    S(metal)    S(lipo)     H(rot)  DE(clash)    DE(int)     intcor
     14.74     -15.23       1.76        0.00      75.23       1.93       0.08       0.41       ----

> <Gold.Chemscore.Fitness>
14.7409

> <Gold.Chemscore.DG>
-15.2293

> <Gold.Chemscore.ZeroCoef>
-5.4800

> <Gold.Chemscore.Hbond>
1.7636

> <Gold.Chemscore.Metal>
0.0000

> <Gold.Chemscore.Lipo>
75.2280

> <Gold.Chemscore.Internal_Hbond>
0.0000

> <Gold.Chemscore.DEClash>
0.0779

> <Gold.Chemscore.DEInternal>
0.4105

> <Gold.Chemscore.Rot>
1.9308

> <Gold.Chemscore.Internal.Correction>
   9.000000E+99

> <Gold.Chemscore.Hbonds>
donor molecule, donor type, donor heavy atom, donor atom, acceptor molecule, acceptor atom, score
      L1  H     7    34       P1 10175  0.87
      L1  H     9    26       P1  8028  0.86

> <Gold.Chemscore.Hbond.Weighted>
-5.8905

> <Gold.Chemscore.Metal.Weighted>
-0.0000

> <Gold.Chemscore.Lipo.Weighted>
-8.8017

> <Gold.Chemscore.Internal_Hbond.Weighted>
0.0000

> <Gold.Chemscore.DEClash.Weighted>
0.0779

> <Gold.Chemscore.DEInternal.Weighted>
0.4105

> <Gold.Chemscore.Rot.Weighted>
4.9429

> <Gold.Chemscore.Internal.Correction.Weighted>
   9.000000E+99

> <Gold.Protein.RotatedTorsions>
[ 6907 6896 6895 6894 ] final  -14.75 input  -60.11 | X-H torsion
[ 7974 7965 7964 7962 ] final  -29.65 input  175.53 | X-H torsion
[ 8008 7997 7996 7995 ] final  -59.14 input   59.86 | X-H torsion
[ 10167 10162 10161 10158 ] final -119.62 input  -65.29 | X-H torsion
[ 10718 10713 10712 10709 ] final  107.55 input   66.30 | X-H torsion
[ 10763 10752 10751 10750 ] final   94.25 input  -60.55 | X-H torsion
[ 11005 11000 10999 10996 ] final   38.43 input  -57.11 | X-H torsion

> <Gold.Protein.ActiveResidues>
 VAL166  LYS551  ARG553  GLY616  TRP617  ASP618  TYR619  PRO620  LYS621  CYS622 
 ASP623  PHE694  ASN695  SER759  ASP760  ASP761  ALA762  ILE779  LEU786  VAL792 
 PHE793  MET794  SER795  GLU796  ALA797  LYS798  CYS799  TRP800  GLU811  SER814 

> <Gold.Protein.RotatedAtoms>
  151.3345  135.0849  159.9349 H   0  0  0  0  0  0  0  0  0  0  0  0  # atno 6907 bound_to 6896
  152.5226  133.9509  159.7682 H   0  0  0  0  0  0  0  0  0  0  0  0  # atno 6908 bound_to 6896
  150.9854  133.6150  159.2746 H   0  0  0  0  0  0  0  0  0  0  0  0  # atno 6909 bound_to 6896
  146.1201  140.5440  142.8739 H   0  0  0  0  0  0  0  0  0  0  0  0  # atno 7974 bound_to 7965
  154.4339  140.1068  156.6068 H   0  0  0  0  0  0  0  0  0  0  0  0  # atno 8008 bound_to 7997
  155.5852  140.3491  155.4532 H   0  0  0  0  0  0  0  0  0  0  0  0  # atno 8009 bound_to 7997
  156.0288  140.1256  157.0269 H   0  0  0  0  0  0  0  0  0  0  0  0  # atno 8010 bound_to 7997
  140.0446  143.5119  152.2113 H   0  0  0  0  0  0  0  0  0  0  0  0  # atno 10167 bound_to 10162
  157.6624  131.0875  150.6172 H   0  0  0  0  0  0  0  0  0  0  0  0  # atno 10718 bound_to 10713
  153.2395  135.4296  155.0682 H   0  0  0  0  0  0  0  0  0  0  0  0  # atno 10763 bound_to 10752
  154.8334  135.3399  154.6670 H   0  0  0  0  0  0  0  0  0  0  0  0  # atno 10764 bound_to 10752
  153.7095  135.7023  153.5098 H   0  0  0  0  0  0  0  0  0  0  0  0  # atno 10765 bound_to 10752
  140.2127  134.3735  155.8041 H   0  0  0  0  0  0  0  0  0  0  0  0  # atno 11005 bound_to 11000
  144.7589  140.5374  143.6749 LP  0  0  0  0  0  0  0  0  0  0  0  0  # atno 17320 bound_to 7965
  145.5484  139.1476  143.3408 LP  0  0  0  0  0  0  0  0  0  0  0  0  # atno 17321 bound_to 7965
  139.5992  144.7577  151.3213 LP  0  0  0  0  0  0  0  0  0  0  0  0  # atno 17342 bound_to 10162
  140.7244  143.7044  150.7819 LP  0  0  0  0  0  0  0  0  0  0  0  0  # atno 17343 bound_to 10162
  156.6475  130.4475  149.5731 LP  0  0  0  0  0  0  0  0  0  0  0  0  # atno 17370 bound_to 10713
  156.2163  130.6710  151.1322 LP  0  0  0  0  0  0  0  0  0  0  0  0  # atno 17371 bound_to 10713
  141.2226  133.7151  156.8445 LP  0  0  0  0  0  0  0  0  0  0  0  0  # atno 17394 bound_to 11000
  140.1933  134.8950  157.3086 LP  0  0  0  0  0  0  0  0  0  0  0  0  # atno 17395 bound_to 11000

$$$$
