AV-unprocessed.smi:2083|AV-procd|sdf|8490|dock4
  -GOLD-   2272011193D 1   1.00000     0.00000
 Structure written by MMmdl.
 45 46  0  0  0  0  0  0  0  0  2 V2000
  151.0424  141.3839  156.3546 C   0  0  0  0  0  0  0  0  0  0  0  0
  151.3160  140.0699  155.7070 C   0  0  0  0  0  0  0  0  0  0  0  0
  150.5191  139.0073  155.3859 C   0  0  0  0  0  0  0  0  0  0  0  0
  151.4303  138.0906  154.7980 C   0  0  0  0  0  0  0  0  0  0  0  0
  150.9882  136.8289  154.3248 N   0  0  0  0  0  0  0  0  0  0  0  0
  150.2018  135.9453  154.9620 C   0  0  0  0  0  0  0  0  0  0  0  0
  149.7429  136.0888  156.0957 O   0  0  0  0  0  0  0  0  0  0  0  0
  149.9715  134.8628  154.2050 N   0  0  0  0  0  0  0  0  0  0  0  0
  149.1440  133.7268  154.6011 C   0  0  0  0  0  0  0  0  0  0  0  0
  147.6198  133.9952  154.4465 C   0  0  2  0  0  0  0  0  0  0  0  0
  146.8078  132.8988  155.1728 C   0  0  0  0  0  0  0  0  0  0  0  0
  147.1554  134.1148  153.0244 N   0  3  1  0  0  0  0  0  0  0  0  0
  147.2474  132.8168  152.2962 C   0  0  0  0  0  0  0  0  0  0  0  0
  146.9707  132.9888  150.7958 C   0  0  0  0  0  0  0  0  0  0  0  0
  145.5870  133.6041  150.5702 C   0  0  0  0  0  0  0  0  0  0  0  0
  145.4786  134.9332  151.3310 C   0  0  1  0  0  0  0  0  0  0  0  0
  144.0953  135.5731  151.1447 C   0  0  0  0  0  0  0  0  0  0  0  0
  145.8118  134.7353  152.8247 C   0  0  0  0  0  0  0  0  0  0  0  0
  152.6707  138.5521  154.7601 N   0  0  0  0  0  0  0  0  0  0  0  0
  152.6040  139.8232  155.3433 O   0  0  0  0  0  0  0  0  0  0  0  0
  149.9707  141.5400  156.4806 H   0  0  0  0  0  0  0  0  0  0  0  0
  151.4345  142.2028  155.7513 H   0  0  0  0  0  0  0  0  0  0  0  0
  151.5093  141.4334  157.3382 H   0  0  0  0  0  0  0  0  0  0  0  0
  149.4565  138.9054  155.5489 H   0  0  0  0  0  0  0  0  0  0  0  0
  151.2964  136.5775  153.3974 H   0  0  0  0  0  0  0  0  0  0  0  0
  150.3869  134.8265  153.2853 H   0  0  0  0  0  0  0  0  0  0  0  0
  149.4610  132.8721  154.0016 H   0  0  0  0  0  0  0  0  0  0  0  0
  149.3803  133.4911  155.6394 H   0  0  0  0  0  0  0  0  0  0  0  0
  147.4145  134.9498  154.9336 H   0  0  0  0  0  0  0  0  0  0  0  0
  147.0714  132.8326  156.2283 H   0  0  0  0  0  0  0  0  0  0  0  0
  146.9868  131.9194  154.7282 H   0  0  0  0  0  0  0  0  0  0  0  0
  145.7350  133.0807  155.1424 H   0  0  0  0  0  0  0  0  0  0  0  0
  148.2336  132.3713  152.4132 H   0  0  0  0  0  0  0  0  0  0  0  0
  146.5359  132.1092  152.7254 H   0  0  0  0  0  0  0  0  0  0  0  0
  147.7370  133.6238  150.3491 H   0  0  0  0  0  0  0  0  0  0  0  0
  147.0350  132.0241  150.2916 H   0  0  0  0  0  0  0  0  0  0  0  0
  145.4187  133.7608  149.5041 H   0  0  0  0  0  0  0  0  0  0  0  0
  144.8154  132.9124  150.9117 H   0  0  0  0  0  0  0  0  0  0  0  0
  146.2155  135.6204  150.9117 H   0  0  0  0  0  0  0  0  0  0  0  0
  143.3067  134.9386  151.5508 H   0  0  0  0  0  0  0  0  0  0  0  0
  143.8781  135.7393  150.0892 H   0  0  0  0  0  0  0  0  0  0  0  0
  144.0370  136.5390  151.6474 H   0  0  0  0  0  0  0  0  0  0  0  0
  145.0509  134.1206  153.3088 H   0  0  0  0  0  0  0  0  0  0  0  0
  145.7761  135.7218  153.2852 H   0  0  0  0  0  0  0  0  0  0  0  0
  147.8071  134.7437  152.5777 H   0  0  0  0  0  0  0  0  0  0  0  0
  1  2  1  0  0  0  0
  1 21  1  0  0  0  0
  1 22  1  0  0  0  0
  1 23  1  0  0  0  0
  2 20  1  0  0  0  0
  2  3  2  0  0  0  0
  3  4  1  0  0  0  0
  3 24  1  0  0  0  0
  4  5  1  0  0  0  0
  4 19  2  0  0  0  0
  5  6  1  0  0  0  0
  5 25  1  0  0  0  0
  6  7  2  0  0  0  0
  6  8  1  0  0  0  0
  8  9  1  0  0  0  0
  8 26  1  0  0  0  0
  9 10  1  0  0  0  0
  9 27  1  0  0  0  0
  9 28  1  0  0  0  0
 10 11  1  0  0  0  0
 10 12  1  0  0  0  0
 10 29  1  0  0  0  0
 11 30  1  0  0  0  0
 11 31  1  0  0  0  0
 11 32  1  0  0  0  0
 12 18  1  0  0  0  0
 12 13  1  0  0  0  0
 12 45  1  0  0  0  0
 13 14  1  0  0  0  0
 13 33  1  0  0  0  0
 13 34  1  0  0  0  0
 14 15  1  0  0  0  0
 14 35  1  0  0  0  0
 14 36  1  0  0  0  0
 15 16  1  0  0  0  0
 15 37  1  0  0  0  0
 15 38  1  0  0  0  0
 16 17  1  0  0  0  0
 16 18  1  0  0  0  0
 16 39  1  0  0  0  0
 17 40  1  0  0  0  0
 17 41  1  0  0  0  0
 17 42  1  0  0  0  0
 18 43  1  0  0  0  0
 18 44  1  0  0  0  0
 19 20  1  0  0  0  0
M  CHG  1  12   1
M  END
> <s_m_source_file>
AV-unprocessed.smi

> <i_m_source_file_index>
2083

> <i_lp_mmshare_version>
43012

> <i_f3d_flags>
0

> <s_epik_input>
W0NIM11jMVtjSF1jKG5vMSlbTkhdQyg9TylbTkhdW0NIMl1bQ0BIXShbQ0gzXSlOMltDSDJdW0NIMl1bQ0gyXVtDQEBIXShbQ0gzXSlbQ0gyXTI=

> <s_epik_cmdline>
J2VwaWtfcHl0aG9uJywgJy1waCcsICc3LjAnLCAnLXRuJywgJzgnLCAnLW1hJywgJzIwMCcsICctbWV0YWxfYmluZGluZycsICctaW1hZScsICc8aW5maWxlLm1hZT4nLCAnLW9tYWUnLCAnPG91dGZpbGUubWFlPic=

> <r_epik_Ionization_Penalty>
0.00216453

> <r_epik_Ionization_Penalty_Charging>
0.00212879

> <r_epik_Ionization_Penalty_Neutral>
3.57418e-05

> <r_epik_State_Penalty>
0.00146033

> <r_epik_Charging_Adjusted_Penalty>
0.00358912

> <i_epik_Tot_Q>
1

> <i_epik_Tot_abs_Q>
1

> <r_epik_Metal_State_Penalty>
0.0215827

> <b_epik_Metal_Only>
0

> <s_lp_Force_Field>
OPLS_2005

> <r_lp_Energy>
19.0311

> <b_lp_Chiralities_Consistent>
1

> <s_lp_Variant>
AV-unprocessed.smi:2083-1

> <Gold.Version>
5.8.1

> <Gold.Id.Protein>
6NUR|6NUR_protein|mol2

> <Gold.PLP.Fitness>
43.2586

> <Gold.PLP.PLP>
-32.6388

> <Gold.PLP.part.hbond>
-6.0937

> <Gold.PLP.part.metal>
0.0000

> <Gold.PLP.part.buried>
-0.8413

> <Gold.PLP.part.nonpolar>
-26.2256

> <Gold.PLP.part.repulsive>
0.2291

> <Gold.PLP.ligand.clash>
0.0000

> <Gold.PLP.ligand.torsion>
0.7206

> <Gold.PLP.Chemscore.Hbond>
4.0000

> <Gold.PLP.Chemscore.CHOScore>
0.0000

> <Gold.PLP.Chemscore.Metal>
0.0000

> <Gold.Chemscore.Hbonds>
donor molecule, donor type, donor heavy atom, donor atom, acceptor molecule, acceptor atom, score
      L1  H     5    25       P1  7949  1.00
      L1  H    12    45       P1  7948  2.00
      P1  H  7997  8009       L1    20  1.00

> <Gold.PLP.Chemscore.Internal.Correction>
0.0610

> <Gold.Rescore>
     Score         DG    S(hbond)    S(metal)    S(lipo)     H(rot)  DE(clash)    DE(int)     intcor
     16.61     -17.48       2.55        0.00      63.52       1.55       0.18       0.69       ----

> <Gold.Chemscore.Fitness>
16.6057

> <Gold.Chemscore.DG>
-17.4788

> <Gold.Chemscore.ZeroCoef>
-5.4800

> <Gold.Chemscore.Hbond>
2.5534

> <Gold.Chemscore.Metal>
0.0000

> <Gold.Chemscore.Lipo>
63.5183

> <Gold.Chemscore.Internal_Hbond>
0.0000

> <Gold.Chemscore.DEClash>
0.1812

> <Gold.Chemscore.DEInternal>
0.6918

> <Gold.Chemscore.Rot>
1.5474

> <Gold.Chemscore.Internal.Correction>
   9.000000E+99

> <Gold.Chemscore.Hbonds>
donor molecule, donor type, donor heavy atom, donor atom, acceptor molecule, acceptor atom, score
      L1  H     5    25       P1  7949  0.62
      L1  H    12    45       P1  7948  0.84
      P1  H  7997  8009       L1    20  0.50

> <Gold.Chemscore.Hbond.Weighted>
-8.5284

> <Gold.Chemscore.Metal.Weighted>
-0.0000

> <Gold.Chemscore.Lipo.Weighted>
-7.4316

> <Gold.Chemscore.Internal_Hbond.Weighted>
0.0000

> <Gold.Chemscore.DEClash.Weighted>
0.1812

> <Gold.Chemscore.DEInternal.Weighted>
0.6918

> <Gold.Chemscore.Rot.Weighted>
3.9612

> <Gold.Chemscore.Internal.Correction.Weighted>
   9.000000E+99

> <Gold.Protein.RotatedTorsions>
[ 6907 6896 6895 6894 ] final   12.91 input  -60.11 | X-H torsion
[ 7974 7965 7964 7962 ] final  -62.35 input  175.53 | X-H torsion
[ 8008 7997 7996 7995 ] final -142.45 input   59.86 | X-H torsion
[ 10167 10162 10161 10158 ] final  -57.60 input  -65.29 | X-H torsion
[ 10718 10713 10712 10709 ] final   79.95 input   66.30 | X-H torsion
[ 10763 10752 10751 10750 ] final    8.56 input  -60.55 | X-H torsion
[ 11005 11000 10999 10996 ] final   -5.91 input  -57.11 | X-H torsion

> <Gold.Protein.ActiveResidues>
 VAL166  LYS551  ARG553  GLY616  TRP617  ASP618  TYR619  PRO620  LYS621  CYS622 
 ASP623  PHE694  ASN695  SER759  ASP760  ASP761  ALA762  ILE779  LEU786  VAL792 
 PHE793  MET794  SER795  GLU796  ALA797  LYS798  CYS799  TRP800  GLU811  SER814 

> <Gold.Protein.RotatedAtoms>
  151.7780  135.0769  160.0369 H   0  0  0  0  0  0  0  0  0  0  0  0  # atno 6907 bound_to 6896
  152.3243  133.5883  159.5774 H   0  0  0  0  0  0  0  0  0  0  0  0  # atno 6908 bound_to 6896
  150.7387  133.9880  159.3639 H   0  0  0  0  0  0  0  0  0  0  0  0  # atno 6909 bound_to 6896
  145.7924  140.8702  143.0274 H   0  0  0  0  0  0  0  0  0  0  0  0  # atno 7974 bound_to 7965
  155.4943  140.0570  157.2949 H   0  0  0  0  0  0  0  0  0  0  0  0  # atno 8008 bound_to 7997
  154.4611  140.1997  156.0193 H   0  0  0  0  0  0  0  0  0  0  0  0  # atno 8009 bound_to 7997
  156.0891  140.3236  155.7797 H   0  0  0  0  0  0  0  0  0  0  0  0  # atno 8010 bound_to 7997
  140.6248  143.2434  151.5390 H   0  0  0  0  0  0  0  0  0  0  0  0  # atno 10167 bound_to 10162
  157.6792  130.9937  150.2008 H   0  0  0  0  0  0  0  0  0  0  0  0  # atno 10718 bound_to 10713
  153.2236  135.6884  153.7971 H   0  0  0  0  0  0  0  0  0  0  0  0  # atno 10763 bound_to 10752
  153.7160  135.3274  155.3257 H   0  0  0  0  0  0  0  0  0  0  0  0  # atno 10764 bound_to 10752
  154.8281  135.4602  154.1094 H   0  0  0  0  0  0  0  0  0  0  0  0  # atno 10765 bound_to 10752
  140.6963  133.9028  155.8652 H   0  0  0  0  0  0  0  0  0  0  0  0  # atno 11005 bound_to 11000
  144.6780  140.0142  143.7484 LP  0  0  0  0  0  0  0  0  0  0  0  0  # atno 17320 bound_to 7965
  145.9963  139.3055  143.0954 LP  0  0  0  0  0  0  0  0  0  0  0  0  # atno 17321 bound_to 7965
  139.5470  144.2494  152.1461 LP  0  0  0  0  0  0  0  0  0  0  0  0  # atno 17342 bound_to 10162
  140.1723  144.4924  150.6573 LP  0  0  0  0  0  0  0  0  0  0  0  0  # atno 17343 bound_to 10162
  156.2699  130.3720  149.8042 LP  0  0  0  0  0  0  0  0  0  0  0  0  # atno 17370 bound_to 10713
  156.5762  130.8446  151.3370 LP  0  0  0  0  0  0  0  0  0  0  0  0  # atno 17371 bound_to 10713
  141.0201  134.0901  157.4130 LP  0  0  0  0  0  0  0  0  0  0  0  0  # atno 17394 bound_to 11000
  139.8909  135.0115  156.6763 LP  0  0  0  0  0  0  0  0  0  0  0  0  # atno 17395 bound_to 11000

$$$$
