AV-unprocessed.smi:747|AV-procd|sdf|3580|dock7
  -GOLD-   22720 0573D 1   1.00000     0.00000
 Structure written by MMmdl.
 48 49  0  0  0  0  0  0  0  0  1 V2000
  153.7336  141.8574  160.6192 C   0  0  0  0  0  0  0  0  0  0  0  0
  152.6891  142.4069  159.7802 N   0  0  0  0  0  0  0  0  0  0  0  0
  152.1315  143.6677  160.1048 C   0  0  0  0  0  0  0  0  0  0  0  0
  152.4948  144.3251  161.0805 O   0  0  0  0  0  0  0  0  0  0  0  0
  151.0926  144.1207  159.1874 C   0  0  0  0  0  0  0  0  0  0  0  0
  150.7229  143.3662  158.1296 C   0  0  0  0  0  0  0  0  0  0  0  0
  151.2834  142.1365  157.8365 N   0  0  0  0  0  0  0  0  0  0  0  0
  150.8268  141.3965  156.6533 C   0  0  0  0  0  0  0  0  0  0  0  0
  149.3085  141.1751  156.6193 C   0  0  0  0  0  0  0  0  0  0  0  0
  148.8132  140.0936  156.9403 O   0  0  0  0  0  0  0  0  0  0  0  0
  148.5801  142.2239  156.2091 N   0  0  0  0  0  0  0  0  0  0  0  0
  147.1228  142.2514  156.0634 C   0  0  2  0  0  0  0  0  0  0  0  0
  146.4348  141.9729  157.4306 C   0  0  0  0  0  0  0  0  0  0  0  0
  146.4272  143.1422  158.4283 C   0  0  0  0  0  0  0  0  0  0  0  0
  145.7986  144.2560  158.0451 N   0  0  0  0  0  0  0  0  0  0  0  0
  146.9823  143.0536  159.5219 O   0  0  0  0  0  0  0  0  0  0  0  0
  146.6813  141.3131  154.9026 C   0  0  0  0  0  0  0  0  0  0  0  0
  146.5774  139.8363  155.3600 C   0  0  0  0  0  0  0  0  0  0  0  0
  146.1455  138.9022  154.2182 C   0  0  0  0  0  0  0  0  0  0  0  0
  147.0938  139.0154  153.0178 C   0  0  0  0  0  0  0  0  0  0  0  0
  147.1930  140.4696  152.5391 C   0  0  0  0  0  0  0  0  0  0  0  0
  147.6245  141.4059  153.6792 C   0  0  0  0  0  0  0  0  0  0  0  0
  152.2995  141.6243  158.6710 C   0  0  0  0  0  0  0  0  0  0  0  0
  152.8232  140.5334  158.4312 O   0  0  0  0  0  0  0  0  0  0  0  0
  153.9680  142.5216  161.4502 H   0  0  0  0  0  0  0  0  0  0  0  0
  154.6162  141.7256  159.9908 H   0  0  0  0  0  0  0  0  0  0  0  0
  153.3714  140.9014  161.0018 H   0  0  0  0  0  0  0  0  0  0  0  0
  150.6133  145.0739  159.3563 H   0  0  0  0  0  0  0  0  0  0  0  0
  149.9512  143.7480  157.4768 H   0  0  0  0  0  0  0  0  0  0  0  0
  151.1341  141.9057  155.7382 H   0  0  0  0  0  0  0  0  0  0  0  0
  151.3168  140.4221  156.6237 H   0  0  0  0  0  0  0  0  0  0  0  0
  149.0731  143.0690  155.9594 H   0  0  0  0  0  0  0  0  0  0  0  0
  146.8411  143.2640  155.7680 H   0  0  0  0  0  0  0  0  0  0  0  0
  145.3974  141.6812  157.2629 H   0  0  0  0  0  0  0  0  0  0  0  0
  146.8960  141.1031  157.8993 H   0  0  0  0  0  0  0  0  0  0  0  0
  145.7609  145.0533  158.6633 H   0  0  0  0  0  0  0  0  0  0  0  0
  145.3594  144.2953  157.1366 H   0  0  0  0  0  0  0  0  0  0  0  0
  145.6863  141.6191  154.5762 H   0  0  0  0  0  0  0  0  0  0  0  0
  147.5401  139.5063  155.7527 H   0  0  0  0  0  0  0  0  0  0  0  0
  145.8633  139.7326  156.1770 H   0  0  0  0  0  0  0  0  0  0  0  0
  146.1182  137.8713  154.5730 H   0  0  0  0  0  0  0  0  0  0  0  0
  145.1295  139.1493  153.9077 H   0  0  0  0  0  0  0  0  0  0  0  0
  148.0838  138.6519  153.2962 H   0  0  0  0  0  0  0  0  0  0  0  0
  146.7453  138.3777  152.2049 H   0  0  0  0  0  0  0  0  0  0  0  0
  147.9011  140.5405  151.7128 H   0  0  0  0  0  0  0  0  0  0  0  0
  146.2276  140.7923  152.1471 H   0  0  0  0  0  0  0  0  0  0  0  0
  147.6496  142.4230  153.2897 H   0  0  0  0  0  0  0  0  0  0  0  0
  148.6447  141.1653  153.9815 H   0  0  0  0  0  0  0  0  0  0  0  0
  1  2  1  0  0  0  0
  1 25  1  0  0  0  0
  1 26  1  0  0  0  0
  1 27  1  0  0  0  0
  2 23  1  0  0  0  0
  2  3  1  0  0  0  0
  3  4  2  0  0  0  0
  3  5  1  0  0  0  0
  5  6  2  0  0  0  0
  5 28  1  0  0  0  0
  6  7  1  0  0  0  0
  6 29  1  0  0  0  0
  7  8  1  0  0  0  0
  7 23  1  0  0  0  0
  8  9  1  0  0  0  0
  8 30  1  0  0  0  0
  8 31  1  0  0  0  0
  9 10  2  0  0  0  0
  9 11  1  0  0  0  0
 11 12  1  0  0  0  0
 11 32  1  0  0  0  0
 12 13  1  0  0  0  0
 12 17  1  0  0  0  0
 12 33  1  0  0  0  0
 13 14  1  0  0  0  0
 13 34  1  0  0  0  0
 13 35  1  0  0  0  0
 14 15  1  0  0  0  0
 14 16  2  0  0  0  0
 15 36  1  0  0  0  0
 15 37  1  0  0  0  0
 17 22  1  0  0  0  0
 17 18  1  0  0  0  0
 17 38  1  0  0  0  0
 18 19  1  0  0  0  0
 18 39  1  0  0  0  0
 18 40  1  0  0  0  0
 19 20  1  0  0  0  0
 19 41  1  0  0  0  0
 19 42  1  0  0  0  0
 20 21  1  0  0  0  0
 20 43  1  0  0  0  0
 20 44  1  0  0  0  0
 21 22  1  0  0  0  0
 21 45  1  0  0  0  0
 21 46  1  0  0  0  0
 22 47  1  0  0  0  0
 22 48  1  0  0  0  0
 23 24  2  0  0  0  0
M  END
> <s_m_source_file>
AV-unprocessed.smi

> <i_m_source_file_index>
747

> <i_lp_mmshare_version>
43012

> <i_f3d_flags>
0

> <s_epik_input>
W0NIM11uMWMoPU8pW2NIXVtjSF1uKGMxPU8pW0NIMl1DKD1PKVtOSF1bQ0BIXShbQ0gyXUMoPU8pW05IMl0pW0NIXTJbQ0gyXVtDSDJdW0NIMl1bQ0gyXVtDSDJdMg==

> <s_epik_cmdline>
J2VwaWtfcHl0aG9uJywgJy1waCcsICc3LjAnLCAnLXRuJywgJzgnLCAnLW1hJywgJzIwMCcsICctbWV0YWxfYmluZGluZycsICctaW1hZScsICc8aW5maWxlLm1hZT4nLCAnLW9tYWUnLCAnPG91dGZpbGUubWFlPic=

> <r_lp_tautomer_probability>
1

> <r_epik_Ionization_Penalty>
6.11221e-08

> <r_epik_Ionization_Penalty_Charging>
1.14855e-08

> <r_epik_Ionization_Penalty_Neutral>
4.96365e-08

> <r_epik_State_Penalty>
-0

> <r_epik_Charging_Adjusted_Penalty>
1.14855e-08

> <i_epik_Tot_Q>
0

> <i_epik_Tot_abs_Q>
0

> <r_epik_Metal_State_Penalty>
-0

> <b_epik_Metal_Only>
0

> <s_lp_Force_Field>
OPLS_2005

> <r_lp_Energy>
14.8557

> <b_lp_Chiralities_Consistent>
1

> <s_lp_Variant>
AV-unprocessed.smi:747-1

> <Gold.Version>
5.8.1

> <Gold.Id.Protein>
6NUR|6NUR_protein|mol2

> <Gold.PLP.Fitness>
47.5547

> <Gold.PLP.PLP>
-38.4721

> <Gold.PLP.part.hbond>
-4.4947

> <Gold.PLP.part.metal>
0.0000

> <Gold.PLP.part.buried>
-1.8506

> <Gold.PLP.part.nonpolar>
-31.7766

> <Gold.PLP.part.repulsive>
0.1753

> <Gold.PLP.ligand.clash>
0.0014

> <Gold.PLP.ligand.torsion>
0.8279

> <Gold.PLP.Chemscore.Hbond>
2.5169

> <Gold.PLP.Chemscore.CHOScore>
1.0000

> <Gold.PLP.Chemscore.Metal>
0.0000

> <Gold.Chemscore.Hbonds>
donor molecule, donor type, donor heavy atom, donor atom, acceptor molecule, acceptor atom, score
      L1  H    11    32       P1  8028  0.86
      P1  H  7997  8009       L1    24  0.05
      L1  C     6    29       P1  8028  1.00

> <Gold.PLP.Chemscore.Internal.Correction>
0.1891

> <Gold.Rescore>
     Score         DG    S(hbond)    S(metal)    S(lipo)     H(rot)  DE(clash)    DE(int)     intcor
     12.83     -15.41       2.86        0.00      67.04       2.91       0.18       2.40       ----

> <Gold.Chemscore.Fitness>
12.8268

> <Gold.Chemscore.DG>
-15.4056

> <Gold.Chemscore.ZeroCoef>
-5.4800

> <Gold.Chemscore.Hbond>
2.8554

> <Gold.Chemscore.Metal>
0.0000

> <Gold.Chemscore.Lipo>
67.0421

> <Gold.Chemscore.Internal_Hbond>
0.0000

> <Gold.Chemscore.DEClash>
0.1799

> <Gold.Chemscore.DEInternal>
2.3989

> <Gold.Chemscore.Rot>
2.9122

> <Gold.Chemscore.Internal.Correction>
   9.000000E+99

> <Gold.Chemscore.Hbonds>
donor molecule, donor type, donor heavy atom, donor atom, acceptor molecule, acceptor atom, score
      L1  H    11    32       P1  8028  0.85
      P1  H  6934  6946       L1    16  0.01
      P1  H  7997  8009       L1    24  0.07

> <Gold.Chemscore.Hbond.Weighted>
-9.5369

> <Gold.Chemscore.Metal.Weighted>
-0.0000

> <Gold.Chemscore.Lipo.Weighted>
-7.8439

> <Gold.Chemscore.Internal_Hbond.Weighted>
0.0000

> <Gold.Chemscore.DEClash.Weighted>
0.1799

> <Gold.Chemscore.DEInternal.Weighted>
2.3989

> <Gold.Chemscore.Rot.Weighted>
7.4553

> <Gold.Chemscore.Internal.Correction.Weighted>
   9.000000E+99

> <Gold.Protein.RotatedTorsions>
[ 6907 6896 6895 6894 ] final   13.97 input  -60.11 | X-H torsion
[ 7974 7965 7964 7962 ] final   20.98 input  175.53 | X-H torsion
[ 8008 7997 7996 7995 ] final  134.85 input   59.86 | X-H torsion
[ 10167 10162 10161 10158 ] final  178.24 input  -65.29 | X-H torsion
[ 10718 10713 10712 10709 ] final  150.27 input   66.30 | X-H torsion
[ 10763 10752 10751 10750 ] final -149.53 input  -60.55 | X-H torsion
[ 11005 11000 10999 10996 ] final  118.21 input  -57.11 | X-H torsion

> <Gold.Protein.ActiveResidues>
 VAL166  LYS551  ARG553  GLY616  TRP617  ASP618  TYR619  PRO620  LYS621  CYS622 
 ASP623  PHE694  ASN695  SER759  ASP760  ASP761  ALA762  ILE779  LEU786  VAL792 
 PHE793  MET794  SER795  GLU796  ALA797  LYS798  CYS799  TRP800  GLU811  SER814 

> <Gold.Protein.RotatedAtoms>
  151.7948  135.0725  160.0391 H   0  0  0  0  0  0  0  0  0  0  0  0  # atno 6907 bound_to 6896
  152.3131  133.5769  159.5702 H   0  0  0  0  0  0  0  0  0  0  0  0  # atno 6908 bound_to 6896
  150.7330  134.0039  159.3689 H   0  0  0  0  0  0  0  0  0  0  0  0  # atno 6909 bound_to 6896
  146.2090  139.8093  142.8704 H   0  0  0  0  0  0  0  0  0  0  0  0  # atno 7974 bound_to 7965
  156.3001  140.2485  156.3486 H   0  0  0  0  0  0  0  0  0  0  0  0  # atno 8008 bound_to 7997
  154.8987  140.0407  157.1900 H   0  0  0  0  0  0  0  0  0  0  0  0  # atno 8009 bound_to 7997
  154.8522  140.2907  155.5595 H   0  0  0  0  0  0  0  0  0  0  0  0  # atno 8010 bound_to 7997
  139.5286  144.2703  152.0633 H   0  0  0  0  0  0  0  0  0  0  0  0  # atno 10167 bound_to 10162
  157.2856  131.0843  151.1500 H   0  0  0  0  0  0  0  0  0  0  0  0  # atno 10718 bound_to 10713
  154.8172  135.3307  154.7143 H   0  0  0  0  0  0  0  0  0  0  0  0  # atno 10763 bound_to 10752
  153.7782  135.6920  153.4898 H   0  0  0  0  0  0  0  0  0  0  0  0  # atno 10764 bound_to 10752
  153.1998  135.4520  155.0200 H   0  0  0  0  0  0  0  0  0  0  0  0  # atno 10765 bound_to 10752
  139.9101  134.9618  156.7468 H   0  0  0  0  0  0  0  0  0  0  0  0  # atno 11005 bound_to 11000
  145.3213  141.0244  143.3499 LP  0  0  0  0  0  0  0  0  0  0  0  0  # atno 17320 bound_to 7965
  144.8865  139.4833  143.6698 LP  0  0  0  0  0  0  0  0  0  0  0  0  # atno 17321 bound_to 7965
  140.2163  144.4511  150.6362 LP  0  0  0  0  0  0  0  0  0  0  0  0  # atno 17342 bound_to 10162
  140.6447  143.2211  151.6211 LP  0  0  0  0  0  0  0  0  0  0  0  0  # atno 17343 bound_to 10162
  157.2916  130.6799  149.6117 LP  0  0  0  0  0  0  0  0  0  0  0  0  # atno 17370 bound_to 10713
  155.9665  130.4419  150.5359 LP  0  0  0  0  0  0  0  0  0  0  0  0  # atno 17371 bound_to 10713
  140.6805  133.9479  155.7908 LP  0  0  0  0  0  0  0  0  0  0  0  0  # atno 17394 bound_to 11000
  141.0513  134.0480  157.3779 LP  0  0  0  0  0  0  0  0  0  0  0  0  # atno 17395 bound_to 11000

$$$$
