AV-unprocessed.smi:1749|AV-procd|sdf|7047|dock3
  -GOLD-   22720 8263D 1   1.00000     0.00000
 Structure written by MMmdl.
 32 33  0  0  0  0  0  0  0  0  1 V2000
  146.5927  132.0990  152.2578 C   0  0  0  0  0  0  0  0  0  0  0  0
  146.2840  133.5956  152.1113 C   0  0  1  0  0  0  0  0  0  0  0  0
  145.2865  133.8557  150.9663 C   0  0  0  0  0  0  0  0  0  0  0  0
  144.9712  135.3527  150.8192 C   0  0  0  0  0  0  0  0  0  0  0  0
  144.4539  135.9490  152.1401 C   0  0  0  0  0  0  0  0  0  0  0  0
  145.4246  135.6964  153.3096 C   0  0  2  0  0  0  0  0  0  0  0  0
  146.6391  136.4884  153.1321 N   0  0  0  0  0  0  0  0  0  0  0  0
  146.9874  137.5739  153.8420 C   0  0  0  0  0  0  0  0  0  0  0  0
  146.2674  138.0612  154.7118 O   0  0  0  0  0  0  0  0  0  0  0  0
  148.1858  138.1187  153.5423 N   0  0  0  0  0  0  0  0  0  0  0  0
  148.8643  139.2509  154.0806 C   0  0  0  0  0  0  0  0  0  0  0  0
  150.1283  139.2325  154.5357 N   0  0  0  0  0  0  0  0  0  0  0  0
  150.5267  140.4691  155.0243 N   0  0  0  0  0  0  0  0  0  0  0  0
  149.5454  141.3706  154.9324 C   0  0  0  0  0  0  0  0  0  0  0  0
  148.0388  140.7951  154.2403 S   0  0  0  0  0  0  0  0  0  0  0  0
  145.7559  134.1934  153.4328 C   0  0  0  0  0  0  0  0  0  0  0  0
  145.6965  131.5312  152.5087 H   0  0  0  0  0  0  0  0  0  0  0  0
  147.3278  131.9258  153.0441 H   0  0  0  0  0  0  0  0  0  0  0  0
  146.9983  131.6898  151.3322 H   0  0  0  0  0  0  0  0  0  0  0  0
  147.2208  134.0956  151.8609 H   0  0  0  0  0  0  0  0  0  0  0  0
  145.6887  133.4745  150.0271 H   0  0  0  0  0  0  0  0  0  0  0  0
  144.3619  133.3072  151.1509 H   0  0  0  0  0  0  0  0  0  0  0  0
  145.8671  135.8854  150.4975 H   0  0  0  0  0  0  0  0  0  0  0  0
  144.2302  135.4991  150.0330 H   0  0  0  0  0  0  0  0  0  0  0  0
  144.2732  137.0182  152.0225 H   0  0  0  0  0  0  0  0  0  0  0  0
  143.4870  135.5028  152.3762 H   0  0  0  0  0  0  0  0  0  0  0  0
  144.9340  136.0235  154.2282 H   0  0  0  0  0  0  0  0  0  0  0  0
  147.2901  136.1605  152.4326 H   0  0  0  0  0  0  0  0  0  0  0  0
  148.6579  137.6847  152.7625 H   0  0  0  0  0  0  0  0  0  0  0  0
  149.7085  142.3806  155.2778 H   0  0  0  0  0  0  0  0  0  0  0  0
  144.8552  133.6570  153.7345 H   0  0  0  0  0  0  0  0  0  0  0  0
  146.4807  134.0339  154.2322 H   0  0  0  0  0  0  0  0  0  0  0  0
  1  2  1  0  0  0  0
  1 17  1  0  0  0  0
  1 18  1  0  0  0  0
  1 19  1  0  0  0  0
  2 16  1  0  0  0  0
  2  3  1  0  0  0  0
  2 20  1  0  0  0  0
  3  4  1  0  0  0  0
  3 21  1  0  0  0  0
  3 22  1  0  0  0  0
  4  5  1  0  0  0  0
  4 23  1  0  0  0  0
  4 24  1  0  0  0  0
  5  6  1  0  0  0  0
  5 25  1  0  0  0  0
  5 26  1  0  0  0  0
  6  7  1  0  0  0  0
  6 16  1  0  0  0  0
  6 27  1  0  0  0  0
  7  8  1  0  0  0  0
  7 28  1  0  0  0  0
  8  9  2  0  0  0  0
  8 10  1  0  0  0  0
 10 11  1  0  0  0  0
 10 29  1  0  0  0  0
 11 15  1  0  0  0  0
 11 12  2  0  0  0  0
 12 13  1  0  0  0  0
 13 14  2  0  0  0  0
 14 15  1  0  0  0  0
 14 30  1  0  0  0  0
 16 31  1  0  0  0  0
 16 32  1  0  0  0  0
M  END
> <s_m_source_file>
AV-unprocessed.smi

> <i_m_source_file_index>
1749

> <i_lp_mmshare_version>
43012

> <i_f3d_flags>
0

> <s_epik_input>
W0NIM11bQ0BASF0xW0NIMl1bQ0gyXVtDSDJdW0NASF0oW0NIMl0xKVtOSF1DKD1PKVtOSF1jMm5uW2NIXXMy

> <s_epik_cmdline>
J2VwaWtfcHl0aG9uJywgJy1waCcsICc3LjAnLCAnLXRuJywgJzgnLCAnLW1hJywgJzIwMCcsICctbWV0YWxfYmluZGluZycsICctaW1hZScsICc8aW5maWxlLm1hZT4nLCAnLW9tYWUnLCAnPG91dGZpbGUubWFlPic=

> <r_lp_tautomer_probability>
1

> <r_epik_Ionization_Penalty>
0.000318591

> <r_epik_Ionization_Penalty_Charging>
0

> <r_epik_Ionization_Penalty_Neutral>
0.000318591

> <r_epik_State_Penalty>
-0

> <r_epik_Charging_Adjusted_Penalty>
0

> <i_epik_Tot_Q>
0

> <i_epik_Tot_abs_Q>
0

> <r_epik_Metal_State_Penalty>
0.169791

> <b_epik_Metal_Only>
0

> <s_lp_Force_Field>
OPLS_2005

> <r_lp_Energy>
10.2473

> <b_lp_Chiralities_Consistent>
1

> <s_lp_Variant>
AV-unprocessed.smi:1749-4

> <Gold.Version>
5.8.1

> <Gold.Id.Protein>
6NUR|6NUR_protein|mol2

> <Gold.PLP.Fitness>
33.1356

> <Gold.PLP.PLP>
-23.1954

> <Gold.PLP.part.hbond>
-3.0000

> <Gold.PLP.part.metal>
0.0000

> <Gold.PLP.part.buried>
-3.0484

> <Gold.PLP.part.nonpolar>
-17.6112

> <Gold.PLP.part.repulsive>
0.3263

> <Gold.PLP.ligand.clash>
0.0000

> <Gold.PLP.ligand.torsion>
0.5616

> <Gold.PLP.Chemscore.Hbond>
2.6860

> <Gold.PLP.Chemscore.CHOScore>
1.0000

> <Gold.PLP.Chemscore.Metal>
0.0000

> <Gold.Chemscore.Hbonds>
donor molecule, donor type, donor heavy atom, donor atom, acceptor molecule, acceptor atom, score
      L1  H     7    28       P1  7948  0.93
      L1  H    10    29       P1  7948  0.98
      P1  H  7989  7998       L1    13  0.75
      L1  C    14    30       P1  8028  1.00

> <Gold.PLP.Chemscore.Internal.Correction>
0.0054

> <Gold.Rescore>
     Score         DG    S(hbond)    S(metal)    S(lipo)     H(rot)  DE(clash)    DE(int)     intcor
     14.36     -14.96       1.90        0.00      48.58       1.00       0.05       0.55       ----

> <Gold.Chemscore.Fitness>
14.3618

> <Gold.Chemscore.DG>
-14.9618

> <Gold.Chemscore.ZeroCoef>
-5.4800

> <Gold.Chemscore.Hbond>
1.9037

> <Gold.Chemscore.Metal>
0.0000

> <Gold.Chemscore.Lipo>
48.5761

> <Gold.Chemscore.Internal_Hbond>
0.0000

> <Gold.Chemscore.DEClash>
0.0524

> <Gold.Chemscore.DEInternal>
0.5476

> <Gold.Chemscore.Rot>
1.0000

> <Gold.Chemscore.Internal.Correction>
   9.000000E+99

> <Gold.Chemscore.Hbonds>
donor molecule, donor type, donor heavy atom, donor atom, acceptor molecule, acceptor atom, score
      L1  H     7    28       P1  7948  0.90
      L1  H    10    29       P1  7948  0.93
      P1  H  7989  7998       L1    13  0.04

> <Gold.Chemscore.Hbond.Weighted>
-6.3584

> <Gold.Chemscore.Metal.Weighted>
-0.0000

> <Gold.Chemscore.Lipo.Weighted>
-5.6834

> <Gold.Chemscore.Internal_Hbond.Weighted>
0.0000

> <Gold.Chemscore.DEClash.Weighted>
0.0524

> <Gold.Chemscore.DEInternal.Weighted>
0.5476

> <Gold.Chemscore.Rot.Weighted>
2.5600

> <Gold.Chemscore.Internal.Correction.Weighted>
   9.000000E+99

> <Gold.Protein.RotatedTorsions>
[ 6907 6896 6895 6894 ] final -159.49 input  -60.11 | X-H torsion
[ 7974 7965 7964 7962 ] final  179.14 input  175.53 | X-H torsion
[ 8008 7997 7996 7995 ] final  100.84 input   59.86 | X-H torsion
[ 10167 10162 10161 10158 ] final -153.42 input  -65.29 | X-H torsion
[ 10718 10713 10712 10709 ] final  179.20 input   66.30 | X-H torsion
[ 10763 10752 10751 10750 ] final -138.98 input  -60.55 | X-H torsion
[ 11005 11000 10999 10996 ] final  -66.65 input  -57.11 | X-H torsion

> <Gold.Protein.ActiveResidues>
 VAL166  LYS551  ARG553  GLY616  TRP617  ASP618  TYR619  PRO620  LYS621  CYS622 
 ASP623  PHE694  ASN695  SER759  ASP760  ASP761  ALA762  ILE779  LEU786  VAL792 
 PHE793  MET794  SER795  GLU796  ALA797  LYS798  CYS799  TRP800  GLU811  SER814 

> <Gold.Protein.RotatedAtoms>
  151.3344  133.3988  159.2665 H   0  0  0  0  0  0  0  0  0  0  0  0  # atno 6907 bound_to 6896
  150.9929  134.9261  159.7920 H   0  0  0  0  0  0  0  0  0  0  0  0  # atno 6908 bound_to 6896
  152.5253  134.3308  159.9235 H   0  0  0  0  0  0  0  0  0  0  0  0  # atno 6909 bound_to 6896
  144.7148  140.0504  143.6435 H   0  0  0  0  0  0  0  0  0  0  0  0  # atno 7974 bound_to 7965
  156.1242  140.3207  155.8253 H   0  0  0  0  0  0  0  0  0  0  0  0  # atno 8008 bound_to 7997
  155.4450  140.0528  157.3024 H   0  0  0  0  0  0  0  0  0  0  0  0  # atno 8009 bound_to 7997
  154.4850  140.2069  155.9690 H   0  0  0  0  0  0  0  0  0  0  0  0  # atno 8010 bound_to 7997
  139.7098  143.9127  152.2463 H   0  0  0  0  0  0  0  0  0  0  0  0  # atno 10167 bound_to 10162
  156.8793  130.9810  151.3064 H   0  0  0  0  0  0  0  0  0  0  0  0  # atno 10718 bound_to 10713
  154.8622  135.3596  154.5473 H   0  0  0  0  0  0  0  0  0  0  0  0  # atno 10763 bound_to 10752
  153.6092  135.7010  153.5358 H   0  0  0  0  0  0  0  0  0  0  0  0  # atno 10764 bound_to 10752
  153.3224  135.4147  155.1388 H   0  0  0  0  0  0  0  0  0  0  0  0  # atno 10765 bound_to 10752
  141.1488  133.6703  156.6171 H   0  0  0  0  0  0  0  0  0  0  0  0  # atno 11005 bound_to 11000
  145.9949  139.3044  143.0962 LP  0  0  0  0  0  0  0  0  0  0  0  0  # atno 17320 bound_to 7965
  145.8860  140.9333  143.0576 LP  0  0  0  0  0  0  0  0  0  0  0  0  # atno 17321 bound_to 7965
  139.8993  144.6921  150.8683 LP  0  0  0  0  0  0  0  0  0  0  0  0  # atno 17342 bound_to 10162
  140.7730  143.3526  151.1984 LP  0  0  0  0  0  0  0  0  0  0  0  0  # atno 17343 bound_to 10162
  157.6150  130.8611  149.9013 LP  0  0  0  0  0  0  0  0  0  0  0  0  # atno 17370 bound_to 10713
  156.0685  130.3688  150.0825 LP  0  0  0  0  0  0  0  0  0  0  0  0  # atno 17371 bound_to 10713
  140.3569  134.7721  157.4506 LP  0  0  0  0  0  0  0  0  0  0  0  0  # atno 17394 bound_to 11000
  140.0816  134.5723  155.8535 LP  0  0  0  0  0  0  0  0  0  0  0  0  # atno 17395 bound_to 11000

$$$$
