AV-unprocessed.smi:1809|AV-procd|sdf|7331|dock10
  -GOLD-   22720 8593D 1   1.00000     0.00000
 Structure written by MMmdl.
 38 40  0  0  0  0  0  0  0  0  2 V2000
  145.4485  134.4502  162.3027 C   0  0  0  0  0  0  0  0  0  0  0  0
  146.4741  135.2545  161.5798 C   0  0  0  0  0  0  0  0  0  0  0  0
  146.6298  136.5669  161.7703 N   0  0  0  0  0  0  0  0  0  0  0  0
  147.6471  137.0916  160.9864 N   0  0  0  0  0  0  0  0  0  0  0  0
  148.2541  136.1695  160.2256 C   0  0  0  0  0  0  0  0  0  0  0  0
  149.2629  136.4737  159.3925 N   0  5  0  0  0  0  0  0  0  0  0  0
  149.0008  137.0274  158.1866 C   0  0  0  0  0  0  0  0  0  0  0  0
  147.9685  136.8876  157.5265 O   0  0  0  0  0  0  0  0  0  0  0  0
  149.9942  137.7919  157.7153 N   0  0  0  0  0  0  0  0  0  0  0  0
  149.9752  138.4997  156.4420 C   0  0  0  0  0  0  0  0  0  0  0  0
  151.3427  139.1499  156.1572 C   0  0  2  0  0  0  0  0  0  0  0  0
  152.0985  139.5457  157.4482 C   0  0  0  0  0  0  0  0  0  0  0  0
  151.5165  140.7363  158.0396 N   0  0  0  0  0  0  0  0  0  0  0  0
  152.1810  141.2770  159.2024 C   0  0  0  0  0  0  0  0  0  0  0  0
  151.6131  142.7006  159.3368 C   0  0  0  0  0  0  0  0  0  0  0  0
  151.0567  143.0272  157.9332 C   0  0  0  0  0  0  0  0  0  0  0  0
  151.5062  141.8248  157.1009 C   0  0  2  0  0  0  0  0  0  0  0  0
  150.6704  141.4688  155.8642 C   0  0  0  0  0  0  0  0  0  0  0  0
  151.2167  140.2819  155.2807 O   0  0  0  0  0  0  0  0  0  0  0  0
  147.5802  134.5504  160.4125 S   0  0  0  0  0  0  0  0  0  0  0  0
  145.8260  134.1619  163.2838 H   0  0  0  0  0  0  0  0  0  0  0  0
  145.2105  133.5478  161.7394 H   0  0  0  0  0  0  0  0  0  0  0  0
  144.5343  135.0301  162.4331 H   0  0  0  0  0  0  0  0  0  0  0  0
  150.8269  137.8809  158.2788 H   0  0  0  0  0  0  0  0  0  0  0  0
  149.6929  137.8107  155.6453 H   0  0  0  0  0  0  0  0  0  0  0  0
  149.2045  139.2708  156.4785 H   0  0  0  0  0  0  0  0  0  0  0  0
  151.9498  138.4126  155.6307 H   0  0  0  0  0  0  0  0  0  0  0  0
  152.0872  138.7241  158.1650 H   0  0  0  0  0  0  0  0  0  0  0  0
  153.1454  139.7337  157.2059 H   0  0  0  0  0  0  0  0  0  0  0  0
  152.0024  140.6672  160.0884 H   0  0  0  0  0  0  0  0  0  0  0  0
  153.2581  141.3225  159.0334 H   0  0  0  0  0  0  0  0  0  0  0  0
  150.8140  142.7339  160.0782 H   0  0  0  0  0  0  0  0  0  0  0  0
  152.3869  143.4046  159.6448 H   0  0  0  0  0  0  0  0  0  0  0  0
  149.9681  143.0894  157.9656 H   0  0  0  0  0  0  0  0  0  0  0  0
  151.4393  143.9678  157.5362 H   0  0  0  0  0  0  0  0  0  0  0  0
  152.5301  142.0149  156.7719 H   0  0  0  0  0  0  0  0  0  0  0  0
  149.6222  141.3181  156.1241 H   0  0  0  0  0  0  0  0  0  0  0  0
  150.7053  142.2757  155.1322 H   0  0  0  0  0  0  0  0  0  0  0  0
  1  2  1  0  0  0  0
  1 21  1  0  0  0  0
  1 22  1  0  0  0  0
  1 23  1  0  0  0  0
  2 20  1  0  0  0  0
  2  3  2  0  0  0  0
  3  4  1  0  0  0  0
  4  5  2  0  0  0  0
  5  6  1  0  0  0  0
  5 20  1  0  0  0  0
  6  7  1  0  0  0  0
  7  8  2  0  0  0  0
  7  9  1  0  0  0  0
  9 10  1  0  0  0  0
  9 24  1  0  0  0  0
 10 11  1  0  0  0  0
 10 25  1  0  0  0  0
 10 26  1  0  0  0  0
 11 19  1  0  0  0  0
 11 12  1  0  0  0  0
 11 27  1  0  0  0  0
 12 13  1  0  0  0  0
 12 28  1  0  0  0  0
 12 29  1  0  0  0  0
 13 17  1  0  0  0  0
 13 14  1  0  0  0  0
 14 15  1  0  0  0  0
 14 30  1  0  0  0  0
 14 31  1  0  0  0  0
 15 16  1  0  0  0  0
 15 32  1  0  0  0  0
 15 33  1  0  0  0  0
 16 17  1  0  0  0  0
 16 34  1  0  0  0  0
 16 35  1  0  0  0  0
 17 18  1  0  0  0  0
 17 36  1  0  0  0  0
 18 19  1  0  0  0  0
 18 37  1  0  0  0  0
 18 38  1  0  0  0  0
M  CHG  1   6  -1
M  END
> <s_m_source_file>
AV-unprocessed.smi

> <i_m_source_file_index>
1809

> <i_lp_mmshare_version>
43012

> <i_f3d_flags>
0

> <s_epik_input>
W0NIM11jMW5uYyhzMSlbTkhdQyg9TylbTkhdW0NIMl1bQ0BIXShbQ0gyXTIpT1tDSDJdW0NAQEhdKE4yMylbQ0gyXVtDSDJdW0NIMl0z

> <s_epik_cmdline>
J2VwaWtfcHl0aG9uJywgJy1waCcsICc3LjAnLCAnLXRuJywgJzgnLCAnLW1hJywgJzIwMCcsICctbWV0YWxfYmluZGluZycsICctaW1hZScsICc8aW5maWxlLm1hZT4nLCAnLW9tYWUnLCAnPG91dGZpbGUubWFlPic=

> <r_lp_tautomer_probability>
1

> <r_epik_Ionization_Penalty>
4.48809

> <r_epik_Ionization_Penalty_Charging>
3.27284

> <r_epik_Ionization_Penalty_Neutral>
1.21525

> <r_epik_State_Penalty>
4.69427

> <r_epik_Charging_Adjusted_Penalty>
7.96711

> <i_epik_Tot_Q>
-1

> <i_epik_Tot_abs_Q>
1

> <r_epik_Metal_State_Penalty>
1.91976

> <b_epik_Metal_Only>
1

> <s_lp_Force_Field>
OPLS_2005

> <r_lp_Energy>
48.824

> <b_lp_Chiralities_Consistent>
1

> <s_lp_Variant>
AV-unprocessed.smi:1809-23

> <Gold.Version>
5.8.1

> <Gold.Id.Protein>
6NUR|6NUR_protein|mol2

> <Gold.PLP.Fitness>
40.9122

> <Gold.PLP.PLP>
-29.9229

> <Gold.PLP.part.hbond>
-3.9858

> <Gold.PLP.part.metal>
0.0000

> <Gold.PLP.part.buried>
-6.2437

> <Gold.PLP.part.nonpolar>
-20.5131

> <Gold.PLP.part.repulsive>
0.0942

> <Gold.PLP.ligand.clash>
0.0000

> <Gold.PLP.ligand.torsion>
1.2390

> <Gold.PLP.Chemscore.Hbond>
4.4841

> <Gold.PLP.Chemscore.CHOScore>
0.0000

> <Gold.PLP.Chemscore.Metal>
0.0000

> <Gold.Chemscore.Hbonds>
donor molecule, donor type, donor heavy atom, donor atom, acceptor molecule, acceptor atom, score
      P1  H  6896  6907       L1     6  0.78
      P1  H  6931  6943       L1     4  0.93
      P1  H  6934  6947       L1     4  0.93
      P1  H  7989  7998       L1    19  1.00

> <Gold.PLP.Chemscore.Internal.Correction>
0.0150

> <Gold.Rescore>
     Score         DG    S(hbond)    S(metal)    S(lipo)     H(rot)  DE(clash)    DE(int)     intcor
     16.51     -17.72       2.04        0.00      74.88       1.31       0.05       1.15       ----

> <Gold.Chemscore.Fitness>
16.5108

> <Gold.Chemscore.DG>
-17.7162

> <Gold.Chemscore.ZeroCoef>
-5.4800

> <Gold.Chemscore.Hbond>
2.0408

> <Gold.Chemscore.Metal>
0.0000

> <Gold.Chemscore.Lipo>
74.8819

> <Gold.Chemscore.Internal_Hbond>
0.0000

> <Gold.Chemscore.DEClash>
0.0515

> <Gold.Chemscore.DEInternal>
1.1539

> <Gold.Chemscore.Rot>
1.3051

> <Gold.Chemscore.Internal.Correction>
   9.000000E+99

> <Gold.Chemscore.Hbonds>
donor molecule, donor type, donor heavy atom, donor atom, acceptor molecule, acceptor atom, score
      P1  H  6896  6907       L1     6  0.24
      P1  H  6931  6943       L1     4  0.60
      P1  H  6934  6947       L1     4  0.35
      P1  H  7989  7998       L1    19  0.33

> <Gold.Chemscore.Hbond.Weighted>
-6.8162

> <Gold.Chemscore.Metal.Weighted>
-0.0000

> <Gold.Chemscore.Lipo.Weighted>
-8.7612

> <Gold.Chemscore.Internal_Hbond.Weighted>
0.0000

> <Gold.Chemscore.DEClash.Weighted>
0.0515

> <Gold.Chemscore.DEInternal.Weighted>
1.1539

> <Gold.Chemscore.Rot.Weighted>
3.3412

> <Gold.Chemscore.Internal.Correction.Weighted>
   9.000000E+99

> <Gold.Protein.RotatedTorsions>
[ 6907 6896 6895 6894 ] final  -44.01 input  -60.11 | X-H torsion
[ 7974 7965 7964 7962 ] final -170.04 input  175.53 | X-H torsion
[ 8008 7997 7996 7995 ] final   19.75 input   59.86 | X-H torsion
[ 10167 10162 10161 10158 ] final  -47.84 input  -65.29 | X-H torsion
[ 10718 10713 10712 10709 ] final  -11.76 input   66.30 | X-H torsion
[ 10763 10752 10751 10750 ] final   -0.70 input  -60.55 | X-H torsion
[ 11005 11000 10999 10996 ] final  -44.69 input  -57.11 | X-H torsion

> <Gold.Protein.ActiveResidues>
 VAL166  LYS551  ARG553  GLY616  TRP617  ASP618  TYR619  PRO620  LYS621  CYS622 
 ASP623  PHE694  ASN695  SER759  ASP760  ASP761  ALA762  ILE779  LEU786  VAL792 
 PHE793  MET794  SER795  GLU796  ALA797  LYS798  CYS799  TRP800  GLU811  SER814 

> <Gold.Protein.RotatedAtoms>
  150.9376  134.8787  159.7591 H   0  0  0  0  0  0  0  0  0  0  0  0  # atno 6907 bound_to 6896
  152.5066  134.3988  159.9419 H   0  0  0  0  0  0  0  0  0  0  0  0  # atno 6908 bound_to 6896
  151.4011  133.3717  159.2767 H   0  0  0  0  0  0  0  0  0  0  0  0  # atno 6909 bound_to 6896
  144.7176  140.2131  143.6325 H   0  0  0  0  0  0  0  0  0  0  0  0  # atno 7974 bound_to 7965
  154.9254  140.3033  155.5195 H   0  0  0  0  0  0  0  0  0  0  0  0  # atno 8008 bound_to 7997
  156.3007  140.2364  156.4244 H   0  0  0  0  0  0  0  0  0  0  0  0  # atno 8009 bound_to 7997
  154.8290  140.0419  157.1452 H   0  0  0  0  0  0  0  0  0  0  0  0  # atno 8010 bound_to 7997
  140.6757  143.2766  151.3984 H   0  0  0  0  0  0  0  0  0  0  0  0  # atno 10167 bound_to 10162
  156.6544  130.4964  149.6051 H   0  0  0  0  0  0  0  0  0  0  0  0  # atno 10718 bound_to 10713
  153.3353  135.6977  153.6913 H   0  0  0  0  0  0  0  0  0  0  0  0  # atno 10763 bound_to 10752
  153.5699  135.3518  155.2834 H   0  0  0  0  0  0  0  0  0  0  0  0  # atno 10764 bound_to 10752
  154.8626  135.4270  154.2552 H   0  0  0  0  0  0  0  0  0  0  0  0  # atno 10765 bound_to 10752
  141.0467  133.6758  156.2908 H   0  0  0  0  0  0  0  0  0  0  0  0  # atno 11005 bound_to 11000
  145.8572  139.2205  143.1737 LP  0  0  0  0  0  0  0  0  0  0  0  0  # atno 17320 bound_to 7965
  146.0206  140.8351  142.9925 LP  0  0  0  0  0  0  0  0  0  0  0  0  # atno 17321 bound_to 7965
  139.6049  144.1218  152.2238 LP  0  0  0  0  0  0  0  0  0  0  0  0  # atno 17342 bound_to 10162
  140.0614  144.5853  150.7260 LP  0  0  0  0  0  0  0  0  0  0  0  0  # atno 17343 bound_to 10162
  156.2059  130.6649  151.1218 LP  0  0  0  0  0  0  0  0  0  0  0  0  # atno 17370 bound_to 10713
  157.7130  131.0724  150.6430 LP  0  0  0  0  0  0  0  0  0  0  0  0  # atno 17371 bound_to 10713
  140.6134  134.5436  157.5537 LP  0  0  0  0  0  0  0  0  0  0  0  0  # atno 17394 bound_to 11000
  139.9317  134.7951  156.0912 LP  0  0  0  0  0  0  0  0  0  0  0  0  # atno 17395 bound_to 11000

$$$$
