AV-unprocessed.smi:2052|AV-procd|sdf|8329|dock8
  -GOLD-   2272010593D 1   1.00000     0.00000
 Structure written by MMmdl.
 41 42  0  0  0  0  0  0  0  0  1 V2000
  144.1868  145.2461  154.8632 C   0  0  0  0  0  0  0  0  0  0  0  0
  144.9883  143.8955  153.9562 S   0  0  0  0  0  0  0  0  0  0  0  0
  146.0691  143.2073  155.2456 C   0  0  1  0  0  0  0  0  0  0  0  0
  145.2785  142.9984  156.5473 C   0  0  0  0  0  0  0  0  0  0  0  0
  146.7449  141.9072  154.7926 C   0  0  0  0  0  0  0  0  0  0  0  0
  146.0681  140.9167  154.5146 O   0  0  0  0  0  0  0  0  0  0  0  0
  148.0849  141.9234  154.7189 N   0  0  0  0  0  0  0  0  0  0  0  0
  148.9114  140.7883  154.3225 C   0  0  0  0  0  0  0  0  0  0  0  0
  150.0996  140.5361  155.2393 C   0  0  0  0  0  0  0  0  0  0  0  0
  150.8865  139.3710  155.1239 C   0  0  0  0  0  0  0  0  0  0  0  0
  151.9707  139.2072  156.0047 C   0  0  0  0  0  0  0  0  0  0  0  0
  152.2900  140.1043  156.9605 N   0  0  0  0  0  0  0  0  0  0  0  0
  151.5327  141.2217  157.0924 C   0  0  0  0  0  0  0  0  0  0  0  0
  151.8776  142.1477  158.1019 N   0  0  0  0  0  0  0  0  0  0  0  0
  151.2641  143.4690  157.9900 C   0  0  0  0  0  0  0  0  0  0  0  0
  151.9466  144.4609  158.9480 C   0  0  0  0  0  0  0  0  0  0  0  0
  151.9164  143.9491  160.2761 O   0  0  0  0  0  0  0  0  0  0  0  0
  152.6200  142.7162  160.3824 C   0  0  0  0  0  0  0  0  0  0  0  0
  151.9582  141.6623  159.4788 C   0  0  0  0  0  0  0  0  0  0  0  0
  150.4274  141.4706  156.2432 C   0  0  0  0  0  0  0  0  0  0  0  0
  143.4509  145.7379  154.2270 H   0  0  0  0  0  0  0  0  0  0  0  0
  144.9191  145.9899  155.1762 H   0  0  0  0  0  0  0  0  0  0  0  0
  143.6774  144.8627  155.7474 H   0  0  0  0  0  0  0  0  0  0  0  0
  146.8424  143.9497  155.4491 H   0  0  0  0  0  0  0  0  0  0  0  0
  145.9076  142.5729  157.3301 H   0  0  0  0  0  0  0  0  0  0  0  0
  144.4299  142.3293  156.3998 H   0  0  0  0  0  0  0  0  0  0  0  0
  144.8893  143.9459  156.9208 H   0  0  0  0  0  0  0  0  0  0  0  0
  148.5656  142.7770  154.9629 H   0  0  0  0  0  0  0  0  0  0  0  0
  148.2942  139.8909  154.2544 H   0  0  0  0  0  0  0  0  0  0  0  0
  149.2902  140.9784  153.3182 H   0  0  0  0  0  0  0  0  0  0  0  0
  150.6731  138.6190  154.3788 H   0  0  0  0  0  0  0  0  0  0  0  0
  152.5983  138.3306  155.9416 H   0  0  0  0  0  0  0  0  0  0  0  0
  151.3250  143.8608  156.9758 H   0  0  0  0  0  0  0  0  0  0  0  0
  150.2045  143.3849  158.2341 H   0  0  0  0  0  0  0  0  0  0  0  0
  152.9772  144.6496  158.6425 H   0  0  0  0  0  0  0  0  0  0  0  0
  151.4285  145.4197  158.9259 H   0  0  0  0  0  0  0  0  0  0  0  0
  153.6679  142.8577  160.1123 H   0  0  0  0  0  0  0  0  0  0  0  0
  152.6010  142.3847  161.4206 H   0  0  0  0  0  0  0  0  0  0  0  0
  150.9544  141.4373  159.8417 H   0  0  0  0  0  0  0  0  0  0  0  0
  152.5357  140.7380  159.5213 H   0  0  0  0  0  0  0  0  0  0  0  0
  149.8433  142.3736  156.3395 H   0  0  0  0  0  0  0  0  0  0  0  0
  1  2  1  0  0  0  0
  1 21  1  0  0  0  0
  1 22  1  0  0  0  0
  1 23  1  0  0  0  0
  2  3  1  0  0  0  0
  3  4  1  0  0  0  0
  3  5  1  0  0  0  0
  3 24  1  0  0  0  0
  4 25  1  0  0  0  0
  4 26  1  0  0  0  0
  4 27  1  0  0  0  0
  5  6  2  0  0  0  0
  5  7  1  0  0  0  0
  7  8  1  0  0  0  0
  7 28  1  0  0  0  0
  8  9  1  0  0  0  0
  8 29  1  0  0  0  0
  8 30  1  0  0  0  0
  9 20  1  0  0  0  0
  9 10  2  0  0  0  0
 10 11  1  0  0  0  0
 10 31  1  0  0  0  0
 11 12  2  0  0  0  0
 11 32  1  0  0  0  0
 12 13  1  0  0  0  0
 13 14  1  0  0  0  0
 13 20  2  0  0  0  0
 14 19  1  0  0  0  0
 14 15  1  0  0  0  0
 15 16  1  0  0  0  0
 15 33  1  0  0  0  0
 15 34  1  0  0  0  0
 16 17  1  0  0  0  0
 16 35  1  0  0  0  0
 16 36  1  0  0  0  0
 17 18  1  0  0  0  0
 18 19  1  0  0  0  0
 18 37  1  0  0  0  0
 18 38  1  0  0  0  0
 19 39  1  0  0  0  0
 19 40  1  0  0  0  0
 20 41  1  0  0  0  0
M  END
> <s_m_source_file>
AV-unprocessed.smi

> <i_m_source_file_index>
2052

> <i_lp_mmshare_version>
43012

> <i_f3d_flags>
0

> <s_epik_input>
W0NIM11TW0NASF0oW0NIM10pQyg9TylbTkhdW0NIMl1jMVtjSF1bY0hdbmMoW2NIXTEpTjJbQ0gyXVtDSDJdT1tDSDJdW0NIMl0y

> <s_epik_cmdline>
J2VwaWtfcHl0aG9uJywgJy1waCcsICc3LjAnLCAnLXRuJywgJzgnLCAnLW1hJywgJzIwMCcsICctbWV0YWxfYmluZGluZycsICctaW1hZScsICc8aW5maWxlLm1hZT4nLCAnLW9tYWUnLCAnPG91dGZpbGUubWFlPic=

> <r_lp_tautomer_probability>
1

> <r_epik_Ionization_Penalty>
0.00463955

> <r_epik_Ionization_Penalty_Charging>
0

> <r_epik_Ionization_Penalty_Neutral>
0.00463955

> <r_epik_State_Penalty>
0.00335544

> <r_epik_Charging_Adjusted_Penalty>
0.00335544

> <i_epik_Tot_Q>
0

> <i_epik_Tot_abs_Q>
0

> <r_epik_Metal_State_Penalty>
-0

> <b_epik_Metal_Only>
0

> <s_lp_Force_Field>
OPLS_2005

> <r_lp_Energy>
15.5355

> <b_lp_Chiralities_Consistent>
1

> <s_lp_Variant>
AV-unprocessed.smi:2052-2

> <Gold.Version>
5.8.1

> <Gold.Id.Protein>
6NUR|6NUR_protein|mol2

> <Gold.PLP.Fitness>
45.3399

> <Gold.PLP.PLP>
-39.8681

> <Gold.PLP.part.hbond>
-2.0000

> <Gold.PLP.part.metal>
0.0000

> <Gold.PLP.part.buried>
-3.4706

> <Gold.PLP.part.nonpolar>
-33.7685

> <Gold.PLP.part.repulsive>
0.3462

> <Gold.PLP.ligand.clash>
0.0000

> <Gold.PLP.ligand.torsion>
0.4106

> <Gold.PLP.Chemscore.Hbond>
1.9750

> <Gold.PLP.Chemscore.CHOScore>
0.0000

> <Gold.PLP.Chemscore.Metal>
0.0000

> <Gold.Chemscore.Hbonds>
donor molecule, donor type, donor heavy atom, donor atom, acceptor molecule, acceptor atom, score
      L1  H     7    28       P1  8028  0.89
      P1  H  7997  8009       L1    12  0.70

> <Gold.PLP.Chemscore.Internal.Correction>
0.3680

> <Gold.Rescore>
     Score         DG    S(hbond)    S(metal)    S(lipo)     H(rot)  DE(clash)    DE(int)     intcor
     16.98     -17.35       1.79        0.00      87.00       1.67       0.06       0.31       ----

> <Gold.Chemscore.Fitness>
16.9818

> <Gold.Chemscore.DG>
-17.3538

> <Gold.Chemscore.ZeroCoef>
-5.4800

> <Gold.Chemscore.Hbond>
1.7862

> <Gold.Chemscore.Metal>
0.0000

> <Gold.Chemscore.Lipo>
86.9958

> <Gold.Chemscore.Internal_Hbond>
0.0000

> <Gold.Chemscore.DEClash>
0.0649

> <Gold.Chemscore.DEInternal>
0.3071

> <Gold.Chemscore.Rot>
1.6682

> <Gold.Chemscore.Internal.Correction>
   9.000000E+99

> <Gold.Chemscore.Hbonds>
donor molecule, donor type, donor heavy atom, donor atom, acceptor molecule, acceptor atom, score
      L1  H     7    28       P1  8028  0.87
      P1  H  7997  8009       L1    12  0.12

> <Gold.Chemscore.Hbond.Weighted>
-5.9660

> <Gold.Chemscore.Metal.Weighted>
-0.0000

> <Gold.Chemscore.Lipo.Weighted>
-10.1785

> <Gold.Chemscore.Internal_Hbond.Weighted>
0.0000

> <Gold.Chemscore.DEClash.Weighted>
0.0649

> <Gold.Chemscore.DEInternal.Weighted>
0.3071

> <Gold.Chemscore.Rot.Weighted>
4.2707

> <Gold.Chemscore.Internal.Correction.Weighted>
   9.000000E+99

> <Gold.Protein.RotatedTorsions>
[ 6907 6896 6895 6894 ] final   10.56 input  -60.11 | X-H torsion
[ 7974 7965 7964 7962 ] final -141.17 input  175.53 | X-H torsion
[ 8008 7997 7996 7995 ] final -178.12 input   59.86 | X-H torsion
[ 10167 10162 10161 10158 ] final  -22.43 input  -65.29 | X-H torsion
[ 10718 10713 10712 10709 ] final  109.23 input   66.30 | X-H torsion
[ 10763 10752 10751 10750 ] final  -90.99 input  -60.55 | X-H torsion
[ 11005 11000 10999 10996 ] final  -90.67 input  -57.11 | X-H torsion

> <Gold.Protein.ActiveResidues>
 VAL166  LYS551  ARG553  GLY616  TRP617  ASP618  TYR619  PRO620  LYS621  CYS622 
 ASP623  PHE694  ASN695  SER759  ASP760  ASP761  ALA762  ILE779  LEU786  VAL792 
 PHE793  MET794  SER795  GLU796  ALA797  LYS798  CYS799  TRP800  GLU811  SER814 

> <Gold.Protein.RotatedAtoms>
  151.7403  135.0856  160.0314 H   0  0  0  0  0  0  0  0  0  0  0  0  # atno 6907 bound_to 6896
  152.3484  133.6145  159.5935 H   0  0  0  0  0  0  0  0  0  0  0  0  # atno 6908 bound_to 6896
  150.7523  133.9529  159.3533 H   0  0  0  0  0  0  0  0  0  0  0  0  # atno 6909 bound_to 6896
  144.8540  140.6111  143.5372 H   0  0  0  0  0  0  0  0  0  0  0  0  # atno 7974 bound_to 7965
  156.0150  140.1249  157.0415 H   0  0  0  0  0  0  0  0  0  0  0  0  # atno 8008 bound_to 7997
  154.4290  140.1080  156.5953 H   0  0  0  0  0  0  0  0  0  0  0  0  # atno 8009 bound_to 7997
  155.6025  140.3470  155.4600 H   0  0  0  0  0  0  0  0  0  0  0  0  # atno 8010 bound_to 7997
  140.7286  143.4535  151.0482 H   0  0  0  0  0  0  0  0  0  0  0  0  # atno 10167 bound_to 10162
  157.6551  131.0909  150.6422 H   0  0  0  0  0  0  0  0  0  0  0  0  # atno 10718 bound_to 10713
  154.6714  135.5284  153.8144 H   0  0  0  0  0  0  0  0  0  0  0  0  # atno 10763 bound_to 10752
  153.0504  135.6530  154.0718 H   0  0  0  0  0  0  0  0  0  0  0  0  # atno 10764 bound_to 10752
  154.0616  135.2961  155.3303 H   0  0  0  0  0  0  0  0  0  0  0  0  # atno 10765 bound_to 10752
  141.1561  133.7707  156.9770 H   0  0  0  0  0  0  0  0  0  0  0  0  # atno 11005 bound_to 11000
  145.4444  139.1531  143.3953 LP  0  0  0  0  0  0  0  0  0  0  0  0  # atno 17320 bound_to 7965
  146.2808  140.4567  142.8777 LP  0  0  0  0  0  0  0  0  0  0  0  0  # atno 17321 bound_to 7965
  139.8213  143.7816  152.3177 LP  0  0  0  0  0  0  0  0  0  0  0  0  # atno 17342 bound_to 10162
  139.7899  144.7414  150.9969 LP  0  0  0  0  0  0  0  0  0  0  0  0  # atno 17343 bound_to 10162
  156.6730  130.4545  149.5651 LP  0  0  0  0  0  0  0  0  0  0  0  0  # atno 17370 bound_to 10713
  156.1984  130.6604  151.1140 LP  0  0  0  0  0  0  0  0  0  0  0  0  # atno 17371 bound_to 10713
  140.1091  134.9488  157.2038 LP  0  0  0  0  0  0  0  0  0  0  0  0  # atno 17394 bound_to 11000
  140.3217  134.2908  155.7245 LP  0  0  0  0  0  0  0  0  0  0  0  0  # atno 17395 bound_to 11000

$$$$
