AV-unprocessed.smi:1430|AV-procd|sdf|5825|dock10
  -GOLD-   22720 5483D 1   1.00000     0.00000
 Structure written by MMmdl.
 47 48  0  0  0  0  0  0  0  0  2 V2000
  152.8269  143.3453  162.4334 C   0  0  0  0  0  0  0  0  0  0  0  0
  153.1998  142.3852  161.4510 O   0  0  0  0  0  0  0  0  0  0  0  0
  152.4742  142.3314  160.2786 C   0  0  0  0  0  0  0  0  0  0  0  0
  152.7146  141.2689  159.3849 C   0  0  0  0  0  0  0  0  0  0  0  0
  151.9785  141.2061  158.1863 C   0  0  0  0  0  0  0  0  0  0  0  0
  151.0156  142.2094  157.9213 C   0  0  0  0  0  0  0  0  0  0  0  0
  150.2234  142.2733  156.7430 N   0  0  0  0  0  0  0  0  0  0  0  0
  149.9204  141.2889  155.8799 C   0  0  0  0  0  0  0  0  0  0  0  0
  150.2491  140.1092  155.9976 O   0  0  0  0  0  0  0  0  0  0  0  0
  149.1939  141.7520  154.8527 N   0  0  0  0  0  0  0  0  0  0  0  0
  148.6928  140.9450  153.7418 C   0  0  0  0  0  0  0  0  0  0  0  0
  147.1945  141.1736  153.4424 C   0  0  0  0  0  0  0  0  0  0  0  0
  146.3815  139.9347  153.5369 N   0  3  1  0  0  0  0  0  0  0  0  0
  146.6248  139.0045  152.4102 C   0  0  0  0  0  0  0  0  0  0  0  0
  145.6985  137.7786  152.5175 C   0  0  1  0  0  0  0  0  0  0  0  0
  145.9692  136.7511  151.4132 C   0  0  0  0  0  0  0  0  0  0  0  0
  145.9079  137.1466  153.7761 O   0  0  0  0  0  0  0  0  0  0  0  0
  145.6003  137.9972  154.8757 C   0  0  1  0  0  0  0  0  0  0  0  0
  145.7718  137.1914  156.1680 C   0  0  0  0  0  0  0  0  0  0  0  0
  146.5239  139.2291  154.8327 C   0  0  0  0  0  0  0  0  0  0  0  0
  150.8602  143.2365  158.8753 C   0  0  0  0  0  0  0  0  0  0  0  0
  151.5623  143.3024  160.0257 N   0  0  0  0  0  0  0  0  0  0  0  0
  153.4897  143.2562  163.2940 H   0  0  0  0  0  0  0  0  0  0  0  0
  151.8066  143.1817  162.7836 H   0  0  0  0  0  0  0  0  0  0  0  0
  152.9155  144.3631  162.0514 H   0  0  0  0  0  0  0  0  0  0  0  0
  153.4551  140.5164  159.6129 H   0  0  0  0  0  0  0  0  0  0  0  0
  152.1798  140.4026  157.4954 H   0  0  0  0  0  0  0  0  0  0  0  0
  149.8076  143.1737  156.5540 H   0  0  0  0  0  0  0  0  0  0  0  0
  148.9556  142.7332  154.8454 H   0  0  0  0  0  0  0  0  0  0  0  0
  149.2874  141.1390  152.8479 H   0  0  0  0  0  0  0  0  0  0  0  0
  148.8637  139.8984  153.9940 H   0  0  0  0  0  0  0  0  0  0  0  0
  146.8113  141.8956  154.1644 H   0  0  0  0  0  0  0  0  0  0  0  0
  147.0665  141.6339  152.4616 H   0  0  0  0  0  0  0  0  0  0  0  0
  146.4458  139.5186  151.4649 H   0  0  0  0  0  0  0  0  0  0  0  0
  147.6707  138.6931  152.4144 H   0  0  0  0  0  0  0  0  0  0  0  0
  144.6571  138.0976  152.4456 H   0  0  0  0  0  0  0  0  0  0  0  0
  145.8120  137.1856  150.4258 H   0  0  0  0  0  0  0  0  0  0  0  0
  145.3033  135.8929  151.5076 H   0  0  0  0  0  0  0  0  0  0  0  0
  146.9946  136.3831  151.4579 H   0  0  0  0  0  0  0  0  0  0  0  0
  144.5591  138.3165  154.8024 H   0  0  0  0  0  0  0  0  0  0  0  0
  145.5414  137.7988  157.0436 H   0  0  0  0  0  0  0  0  0  0  0  0
  146.7940  136.8266  156.2734 H   0  0  0  0  0  0  0  0  0  0  0  0
  145.1073  136.3270  156.1802 H   0  0  0  0  0  0  0  0  0  0  0  0
  147.5635  138.9273  154.9711 H   0  0  0  0  0  0  0  0  0  0  0  0
  146.2725  139.9001  155.6539 H   0  0  0  0  0  0  0  0  0  0  0  0
  150.1473  144.0318  158.7132 H   0  0  0  0  0  0  0  0  0  0  0  0
  145.4161  140.2218  153.4609 H   0  0  0  0  0  0  0  0  0  0  0  0
  1  2  1  0  0  0  0
  1 23  1  0  0  0  0
  1 24  1  0  0  0  0
  1 25  1  0  0  0  0
  2  3  1  0  0  0  0
  3 22  1  0  0  0  0
  3  4  2  0  0  0  0
  4  5  1  0  0  0  0
  4 26  1  0  0  0  0
  5  6  2  0  0  0  0
  5 27  1  0  0  0  0
  6  7  1  0  0  0  0
  6 21  1  0  0  0  0
  7  8  1  0  0  0  0
  7 28  1  0  0  0  0
  8  9  2  0  0  0  0
  8 10  1  0  0  0  0
 10 11  1  0  0  0  0
 10 29  1  0  0  0  0
 11 12  1  0  0  0  0
 11 30  1  0  0  0  0
 11 31  1  0  0  0  0
 12 13  1  0  0  0  0
 12 32  1  0  0  0  0
 12 33  1  0  0  0  0
 13 20  1  0  0  0  0
 13 14  1  0  0  0  0
 13 47  1  0  0  0  0
 14 15  1  0  0  0  0
 14 34  1  0  0  0  0
 14 35  1  0  0  0  0
 15 16  1  0  0  0  0
 15 17  1  0  0  0  0
 15 36  1  0  0  0  0
 16 37  1  0  0  0  0
 16 38  1  0  0  0  0
 16 39  1  0  0  0  0
 17 18  1  0  0  0  0
 18 19  1  0  0  0  0
 18 20  1  0  0  0  0
 18 40  1  0  0  0  0
 19 41  1  0  0  0  0
 19 42  1  0  0  0  0
 19 43  1  0  0  0  0
 20 44  1  0  0  0  0
 20 45  1  0  0  0  0
 21 22  2  0  0  0  0
 21 46  1  0  0  0  0
M  CHG  1  13   1
M  END
> <s_m_source_file>
AV-unprocessed.smi

> <i_m_source_file_index>
1430

> <i_lp_mmshare_version>
43012

> <i_f3d_flags>
0

> <s_epik_input>
W0NIM11PYzFbY0hdW2NIXWMoW2NIXW4xKVtOSF1DKD1PKVtOSF1bQ0gyXVtDSDJdTjJbQ0gyXVtDQEBIXShbQ0gzXSlPW0NAQEhdKFtDSDNdKVtDSDJdMg==

> <s_epik_cmdline>
J2VwaWtfcHl0aG9uJywgJy1waCcsICc3LjAnLCAnLXRuJywgJzgnLCAnLW1hJywgJzIwMCcsICctbWV0YWxfYmluZGluZycsICctaW1hZScsICc8aW5maWxlLm1hZT4nLCAnLW9tYWUnLCAnPG91dGZpbGUubWFlPic=

> <r_lp_tautomer_probability>
1

> <r_epik_Ionization_Penalty>
0.602607

> <r_epik_Ionization_Penalty_Charging>
0.602531

> <r_epik_Ionization_Penalty_Neutral>
7.66983e-05

> <r_epik_State_Penalty>
0.617039

> <r_epik_Charging_Adjusted_Penalty>
1.21957

> <i_epik_Tot_Q>
1

> <i_epik_Tot_abs_Q>
1

> <r_epik_Metal_State_Penalty>
0.617043

> <b_epik_Metal_Only>
0

> <s_lp_Force_Field>
OPLS_2005

> <r_lp_Energy>
23.5338

> <b_lp_Chiralities_Consistent>
1

> <s_lp_Variant>
AV-unprocessed.smi:1430-4

> <Gold.Version>
5.8.1

> <Gold.Id.Protein>
6NUR|6NUR_protein|mol2

> <Gold.PLP.Fitness>
46.1510

> <Gold.PLP.PLP>
-35.4026

> <Gold.PLP.part.hbond>
-3.0017

> <Gold.PLP.part.metal>
0.0000

> <Gold.PLP.part.buried>
-0.5128

> <Gold.PLP.part.nonpolar>
-31.8099

> <Gold.PLP.part.repulsive>
0.4757

> <Gold.PLP.ligand.clash>
0.0000

> <Gold.PLP.ligand.torsion>
0.6461

> <Gold.PLP.Chemscore.Hbond>
4.0000

> <Gold.PLP.Chemscore.CHOScore>
0.0000

> <Gold.PLP.Chemscore.Metal>
0.0000

> <Gold.Chemscore.Hbonds>
donor molecule, donor type, donor heavy atom, donor atom, acceptor molecule, acceptor atom, score
      L1  H     7    28       P1  8028  1.00
      L1  H    10    29       P1  8028  0.75
      L1  H    13    47       P1 10175  2.00

> <Gold.PLP.Chemscore.Internal.Correction>
0.0407

> <Gold.Rescore>
     Score         DG    S(hbond)    S(metal)    S(lipo)     H(rot)  DE(clash)    DE(int)     intcor
     17.46     -20.37       2.81        0.00      85.44       1.76       1.25       1.66       ----

> <Gold.Chemscore.Fitness>
17.4553

> <Gold.Chemscore.DG>
-20.3651

> <Gold.Chemscore.ZeroCoef>
-5.4800

> <Gold.Chemscore.Hbond>
2.8133

> <Gold.Chemscore.Metal>
0.0000

> <Gold.Chemscore.Lipo>
85.4361

> <Gold.Chemscore.Internal_Hbond>
0.0000

> <Gold.Chemscore.DEClash>
1.2516

> <Gold.Chemscore.DEInternal>
1.6582

> <Gold.Chemscore.Rot>
1.7606

> <Gold.Chemscore.Internal.Correction>
   9.000000E+99

> <Gold.Chemscore.Hbonds>
donor molecule, donor type, donor heavy atom, donor atom, acceptor molecule, acceptor atom, score
      L1  H     7    28       P1  8028  0.95
      L1  H    10    29       P1  8028  0.74
      L1  H    13    47       P1 10175  0.93

> <Gold.Chemscore.Hbond.Weighted>
-9.3963

> <Gold.Chemscore.Metal.Weighted>
-0.0000

> <Gold.Chemscore.Lipo.Weighted>
-9.9960

> <Gold.Chemscore.Internal_Hbond.Weighted>
0.0000

> <Gold.Chemscore.DEClash.Weighted>
1.2516

> <Gold.Chemscore.DEInternal.Weighted>
1.6582

> <Gold.Chemscore.Rot.Weighted>
4.5072

> <Gold.Chemscore.Internal.Correction.Weighted>
   9.000000E+99

> <Gold.Protein.RotatedTorsions>
[ 6907 6896 6895 6894 ] final -108.38 input  -60.11 | X-H torsion
[ 7974 7965 7964 7962 ] final    5.17 input  175.53 | X-H torsion
[ 8008 7997 7996 7995 ] final    6.45 input   59.86 | X-H torsion
[ 10167 10162 10161 10158 ] final  -67.31 input  -65.29 | X-H torsion
[ 10718 10713 10712 10709 ] final  111.29 input   66.30 | X-H torsion
[ 10763 10752 10751 10750 ] final   35.81 input  -60.55 | X-H torsion
[ 11005 11000 10999 10996 ] final  -33.51 input  -57.11 | X-H torsion

> <Gold.Protein.ActiveResidues>
 VAL166  LYS551  ARG553  GLY616  TRP617  ASP618  TYR619  PRO620  LYS621  CYS622 
 ASP623  PHE694  ASN695  SER759  ASP760  ASP761  ALA762  ILE779  LEU786  VAL792 
 PHE793  MET794  SER795  GLU796  ALA797  LYS798  CYS799  TRP800  GLU811  SER814 

> <Gold.Protein.RotatedAtoms>
  150.7498  133.9686  159.3538 H   0  0  0  0  0  0  0  0  0  0  0  0  # atno 6907 bound_to 6896
  151.7618  135.0806  160.0356 H   0  0  0  0  0  0  0  0  0  0  0  0  # atno 6908 bound_to 6896
  152.3398  133.6016  159.5904 H   0  0  0  0  0  0  0  0  0  0  0  0  # atno 6909 bound_to 6896
  146.2441  140.0425  142.8381 H   0  0  0  0  0  0  0  0  0  0  0  0  # atno 7974 bound_to 7965
  154.7412  140.2749  155.6372 H   0  0  0  0  0  0  0  0  0  0  0  0  # atno 8008 bound_to 7997
  156.2874  140.2697  156.2065 H   0  0  0  0  0  0  0  0  0  0  0  0  # atno 8009 bound_to 7997
  155.0256  140.0371  157.2444 H   0  0  0  0  0  0  0  0  0  0  0  0  # atno 8010 bound_to 7997
  140.5592  143.2312  151.6761 H   0  0  0  0  0  0  0  0  0  0  0  0  # atno 10167 bound_to 10162
  157.6452  131.0948  150.6728 H   0  0  0  0  0  0  0  0  0  0  0  0  # atno 10718 bound_to 10713
  153.0103  135.6323  154.1885 H   0  0  0  0  0  0  0  0  0  0  0  0  # atno 10763 bound_to 10752
  154.1628  135.2822  155.3105 H   0  0  0  0  0  0  0  0  0  0  0  0  # atno 10764 bound_to 10752
  154.5969  135.5600  153.7395 H   0  0  0  0  0  0  0  0  0  0  0  0  # atno 10765 bound_to 10752
  140.9640  133.7147  156.1416 H   0  0  0  0  0  0  0  0  0  0  0  0  # atno 11005 bound_to 11000
  145.1057  140.9373  143.4686 LP  0  0  0  0  0  0  0  0  0  0  0  0  # atno 17320 bound_to 7965
  145.0627  139.3092  143.5872 LP  0  0  0  0  0  0  0  0  0  0  0  0  # atno 17321 bound_to 7965
  139.5062  144.3690  152.0489 LP  0  0  0  0  0  0  0  0  0  0  0  0  # atno 17342 bound_to 10162
  140.2815  144.3855  150.6117 LP  0  0  0  0  0  0  0  0  0  0  0  0  # atno 17343 bound_to 10162
  156.7046  130.4633  149.5563 LP  0  0  0  0  0  0  0  0  0  0  0  0  # atno 17370 bound_to 10713
  156.1772  130.6475  151.0908 LP  0  0  0  0  0  0  0  0  0  0  0  0  # atno 17371 bound_to 10713
  140.7425  134.4134  157.5553 LP  0  0  0  0  0  0  0  0  0  0  0  0  # atno 17394 bound_to 11000
  139.8888  134.8846  156.2454 LP  0  0  0  0  0  0  0  0  0  0  0  0  # atno 17395 bound_to 11000

$$$$
