AV-unprocessed.smi:99|AV-procd|sdf|891|dock6
  -GOLD-   2262017383D 1   1.00000     0.00000
 Structure written by MMmdl.
 52 55  0  0  0  0  0  0  0  0  2 V2000
  153.8405  138.9311  158.9101 O   0  0  0  0  0  0  0  0  0  0  0  0
  152.6945  139.3853  158.9198 C   0  0  0  0  0  0  0  0  0  0  0  0
  151.6016  138.6581  158.6177 O   0  0  0  0  0  0  0  0  0  0  0  0
  151.7244  137.2692  158.3603 C   0  0  0  0  0  0  0  0  0  0  0  0
  151.2811  136.9791  156.9198 C   0  0  2  0  0  0  0  0  0  0  0  0
  150.8093  138.1568  156.2859 O   0  0  0  0  0  0  0  0  0  0  0  0
  150.0642  137.7826  155.1712 C   0  0  2  0  0  0  0  0  0  0  0  0
  149.0284  138.8552  154.9095 N   0  0  0  0  0  0  0  0  0  0  0  0
  147.7102  138.4766  154.7281 C   0  0  0  0  0  0  0  0  0  0  0  0
  146.7459  139.3811  154.4612 C   0  0  0  0  0  0  0  0  0  0  0  0
  147.0995  140.7930  154.3514 C   0  0  0  0  0  0  0  0  0  0  0  0
  146.2124  141.6134  154.1245 O   0  0  0  0  0  0  0  0  0  0  0  0
  148.4096  141.1399  154.5040 N   0  5  0  0  0  0  0  0  0  0  0  0
  149.3891  140.2249  154.7626 C   0  0  0  0  0  0  0  0  0  0  0  0
  150.5743  140.5325  154.8687 O   0  0  0  0  0  0  0  0  0  0  0  0
  149.4610  136.3916  155.4557 C   0  0  1  0  0  0  0  0  0  0  0  0
  149.8247  135.4463  154.4702 O   0  0  0  0  0  0  0  0  0  0  0  0
  150.1106  135.9949  156.7845 C   0  0  2  0  0  0  0  0  0  0  0  0
  149.1984  136.1472  157.8659 O   0  0  0  0  0  0  0  0  0  0  0  0
  148.2354  135.2342  158.1044 C   0  0  0  0  0  0  0  0  0  0  0  0
  147.7141  134.5435  157.2267 O   0  0  0  0  0  0  0  0  0  0  0  0
  147.8677  135.1516  159.5471 C   0  0  0  0  0  0  0  0  0  0  0  0
  147.2803  133.9664  160.0478 C   0  0  0  0  0  0  0  0  0  0  0  0
  146.9193  133.8633  161.4054 C   0  0  0  0  0  0  0  0  0  0  0  0
  147.1394  134.9447  162.2782 C   0  0  0  0  0  0  0  0  0  0  0  0
  147.7218  136.1296  161.7920 C   0  0  0  0  0  0  0  0  0  0  0  0
  148.0851  136.2339  160.4354 C   0  0  0  0  0  0  0  0  0  0  0  0
  152.3728  140.7988  159.2719 C   0  0  0  0  0  0  0  0  0  0  0  0
  153.2831  141.5406  160.0606 C   0  0  0  0  0  0  0  0  0  0  0  0
  153.0021  142.8737  160.4178 C   0  0  0  0  0  0  0  0  0  0  0  0
  151.8076  143.4817  159.9900 C   0  0  0  0  0  0  0  0  0  0  0  0
  150.8947  142.7554  159.2032 C   0  0  0  0  0  0  0  0  0  0  0  0
  151.1737  141.4219  158.8454 C   0  0  0  0  0  0  0  0  0  0  0  0
  152.7651  136.9712  158.4946 H   0  0  0  0  0  0  0  0  0  0  0  0
  151.1218  136.6992  159.0692 H   0  0  0  0  0  0  0  0  0  0  0  0
  152.1250  136.5968  156.3426 H   0  0  0  0  0  0  0  0  0  0  0  0
  150.7209  137.7786  154.2998 H   0  0  0  0  0  0  0  0  0  0  0  0
  147.4362  137.4348  154.8026 H   0  0  0  0  0  0  0  0  0  0  0  0
  145.7221  139.0648  154.3259 H   0  0  0  0  0  0  0  0  0  0  0  0
  148.3730  136.4302  155.5158 H   0  0  0  0  0  0  0  0  0  0  0  0
  149.5572  135.7761  153.6263 H   0  0  0  0  0  0  0  0  0  0  0  0
  150.4868  134.9705  156.7726 H   0  0  0  0  0  0  0  0  0  0  0  0
  147.0999  133.1240  159.3959 H   0  0  0  0  0  0  0  0  0  0  0  0
  146.4710  132.9535  161.7765 H   0  0  0  0  0  0  0  0  0  0  0  0
  146.8607  134.8665  163.3187 H   0  0  0  0  0  0  0  0  0  0  0  0
  147.8885  136.9625  162.4590 H   0  0  0  0  0  0  0  0  0  0  0  0
  148.5261  137.1596  160.0950 H   0  0  0  0  0  0  0  0  0  0  0  0
  154.2059  141.0946  160.4027 H   0  0  0  0  0  0  0  0  0  0  0  0
  153.7039  143.4290  161.0226 H   0  0  0  0  0  0  0  0  0  0  0  0
  151.5915  144.5035  160.2655 H   0  0  0  0  0  0  0  0  0  0  0  0
  149.9771  143.2206  158.8746 H   0  0  0  0  0  0  0  0  0  0  0  0
  150.4500  140.8917  158.2438 H   0  0  0  0  0  0  0  0  0  0  0  0
  1  2  2  0  0  0  0
  2  3  1  0  0  0  0
  2 28  1  0  0  0  0
  3  4  1  0  0  0  0
  4  5  1  0  0  0  0
  4 34  1  0  0  0  0
  4 35  1  0  0  0  0
  5 18  1  0  0  0  0
  5  6  1  0  0  0  0
  5 36  1  0  0  0  0
  6  7  1  0  0  0  0
  7  8  1  0  0  0  0
  7 16  1  0  0  0  0
  7 37  1  0  0  0  0
  8 14  1  0  0  0  0
  8  9  1  0  0  0  0
  9 10  2  0  0  0  0
  9 38  1  0  0  0  0
 10 11  1  0  0  0  0
 10 39  1  0  0  0  0
 11 12  2  0  0  0  0
 11 13  1  0  0  0  0
 13 14  1  0  0  0  0
 14 15  2  0  0  0  0
 16 17  1  0  0  0  0
 16 18  1  0  0  0  0
 16 40  1  0  0  0  0
 17 41  1  0  0  0  0
 18 19  1  0  0  0  0
 18 42  1  0  0  0  0
 19 20  1  0  0  0  0
 20 21  2  0  0  0  0
 20 22  1  0  0  0  0
 22 27  1  0  0  0  0
 22 23  2  0  0  0  0
 23 24  1  0  0  0  0
 23 43  1  0  0  0  0
 24 25  2  0  0  0  0
 24 44  1  0  0  0  0
 25 26  1  0  0  0  0
 25 45  1  0  0  0  0
 26 27  2  0  0  0  0
 26 46  1  0  0  0  0
 27 47  1  0  0  0  0
 28 33  1  0  0  0  0
 28 29  2  0  0  0  0
 29 30  1  0  0  0  0
 29 48  1  0  0  0  0
 30 31  2  0  0  0  0
 30 49  1  0  0  0  0
 31 32  1  0  0  0  0
 31 50  1  0  0  0  0
 32 33  2  0  0  0  0
 32 51  1  0  0  0  0
 33 52  1  0  0  0  0
M  CHG  1  13  -1
M  END
> <s_m_source_file>
AV-unprocessed.smi

> <i_m_source_file_index>
99

> <i_lp_mmshare_version>
43012

> <i_f3d_flags>
0

> <s_epik_input>
W2NIXTFbY0hdW2NIXVtjSF1bY0hdYzFDKD1PKU9bQ0gyXVtDQEBIXTJPW0NAQEhdKG4zW2NIXVtjSF1jKD1PKVtuSF1jMz1PKVtDQEBIXShbT0hdKVtDQEhdMk9DKD1PKWM0W2NIXVtjSF1bY0hdW2NIXVtjSF00

> <s_epik_cmdline>
J2VwaWtfcHl0aG9uJywgJy1waCcsICc3LjAnLCAnLXRuJywgJzgnLCAnLW1hJywgJzIwMCcsICctbWV0YWxfYmluZGluZycsICctaW1hZScsICc8aW5maWxlLm1hZT4nLCAnLW9tYWUnLCAnPG91dGZpbGUubWFlPic=

> <r_lp_tautomer_probability>
1

> <r_epik_Ionization_Penalty>
2.89159

> <r_epik_Ionization_Penalty_Charging>
2.1077e-08

> <r_epik_Ionization_Penalty_Neutral>
2.89159

> <r_epik_State_Penalty>
2.88671

> <r_epik_Charging_Adjusted_Penalty>
2.88671

> <i_epik_Tot_Q>
-1

> <i_epik_Tot_abs_Q>
1

> <r_epik_Metal_State_Penalty>
0.0727308

> <b_epik_Metal_Only>
1

> <s_epik_Chemistry_Notes>
This compound has an ester and may undergo hydrolysis at high or low pH. This compound contains an acetal/aminal-like group ( X-CH(R)-Y where X, Y are N, S, or O) that may be acid/base labile, releasing an aldehyde.

> <s_lp_Force_Field>
OPLS_2005

> <r_lp_Energy>
34.2079

> <b_lp_Chiralities_Consistent>
1

> <s_lp_Variant>
AV-unprocessed.smi:99-27

> <Gold.Version>
5.8.1

> <Gold.Id.Protein>
6NUR|6NUR_protein|mol2

> <Gold.PLP.Fitness>
53.6738

> <Gold.PLP.PLP>
-48.8273

> <Gold.PLP.part.hbond>
-3.0187

> <Gold.PLP.part.metal>
0.0000

> <Gold.PLP.part.buried>
-7.9715

> <Gold.PLP.part.nonpolar>
-38.3988

> <Gold.PLP.part.repulsive>
0.4094

> <Gold.PLP.ligand.clash>
0.0000

> <Gold.PLP.ligand.torsion>
2.2415

> <Gold.PLP.Chemscore.Hbond>
3.0000

> <Gold.PLP.Chemscore.CHOScore>
0.0000

> <Gold.PLP.Chemscore.Metal>
0.0000

> <Gold.Chemscore.Hbonds>
donor molecule, donor type, donor heavy atom, donor atom, acceptor molecule, acceptor atom, score
      L1  H    17    41       P1  7948  1.00
      P1  H  7989  7998       L1    15  1.00
      P1  H  7997  8010       L1     1  0.49

> <Gold.PLP.Chemscore.Internal.Correction>
0.3295

> <Gold.Rescore>
     Score         DG    S(hbond)    S(metal)    S(lipo)     H(rot)  DE(clash)    DE(int)     intcor
     16.43     -20.36       2.82        0.00     115.21       3.13       0.52       3.41       ----

> <Gold.Chemscore.Fitness>
16.4318

> <Gold.Chemscore.DG>
-20.3622

> <Gold.Chemscore.ZeroCoef>
-5.4800

> <Gold.Chemscore.Hbond>
2.8227

> <Gold.Chemscore.Metal>
0.0000

> <Gold.Chemscore.Lipo>
115.2053

> <Gold.Chemscore.Internal_Hbond>
0.0000

> <Gold.Chemscore.DEClash>
0.5176

> <Gold.Chemscore.DEInternal>
3.4128

> <Gold.Chemscore.Rot>
3.1346

> <Gold.Chemscore.Internal.Correction>
   9.000000E+99

> <Gold.Chemscore.Hbonds>
donor molecule, donor type, donor heavy atom, donor atom, acceptor molecule, acceptor atom, score
      L1  H    17    41       P1  7948  0.26
      P1  H  7989  7998       L1    15  0.94
      P1  H  7997  8010       L1     1  0.24

> <Gold.Chemscore.Hbond.Weighted>
-9.4277

> <Gold.Chemscore.Metal.Weighted>
-0.0000

> <Gold.Chemscore.Lipo.Weighted>
-13.4790

> <Gold.Chemscore.Internal_Hbond.Weighted>
0.0000

> <Gold.Chemscore.DEClash.Weighted>
0.5176

> <Gold.Chemscore.DEInternal.Weighted>
3.4128

> <Gold.Chemscore.Rot.Weighted>
8.0246

> <Gold.Chemscore.Internal.Correction.Weighted>
   9.000000E+99

> <Gold.Protein.RotatedTorsions>
[ 6907 6896 6895 6894 ] final  -75.96 input  -60.11 | X-H torsion
[ 7974 7965 7964 7962 ] final  175.09 input  175.53 | X-H torsion
[ 8008 7997 7996 7995 ] final   15.10 input   59.86 | X-H torsion
[ 10167 10162 10161 10158 ] final -178.98 input  -65.29 | X-H torsion
[ 10718 10713 10712 10709 ] final  -27.76 input   66.30 | X-H torsion
[ 10763 10752 10751 10750 ] final   35.85 input  -60.55 | X-H torsion
[ 11005 11000 10999 10996 ] final   43.16 input  -57.11 | X-H torsion

> <Gold.Protein.ActiveResidues>
 VAL166  LYS551  ARG553  GLY616  TRP617  ASP618  TYR619  PRO620  LYS621  CYS622 
 ASP623  PHE694  ASN695  SER759  ASP760  ASP761  ALA762  ILE779  LEU786  VAL792 
 PHE793  MET794  SER795  GLU796  ALA797  LYS798  CYS799  TRP800  GLU811  SER814 

> <Gold.Protein.RotatedAtoms>
  150.7042  134.4643  159.5394 H   0  0  0  0  0  0  0  0  0  0  0  0  # atno 6907 bound_to 6896
  152.2311  134.8318  160.0482 H   0  0  0  0  0  0  0  0  0  0  0  0  # atno 6908 bound_to 6896
  151.9133  133.3532  159.3908 H   0  0  0  0  0  0  0  0  0  0  0  0  # atno 6909 bound_to 6896
  144.7208  139.9895  143.6439 H   0  0  0  0  0  0  0  0  0  0  0  0  # atno 7974 bound_to 7965
  154.8578  140.2939  155.5558 H   0  0  0  0  0  0  0  0  0  0  0  0  # atno 8008 bound_to 7997
  156.3019  140.2484  156.3480 H   0  0  0  0  0  0  0  0  0  0  0  0  # atno 8009 bound_to 7997
  154.8951  140.0393  157.1850 H   0  0  0  0  0  0  0  0  0  0  0  0  # atno 8010 bound_to 7997
  139.5407  144.2371  152.0889 H   0  0  0  0  0  0  0  0  0  0  0  0  # atno 10167 bound_to 10162
  156.4340  130.4451  149.7097 H   0  0  0  0  0  0  0  0  0  0  0  0  # atno 10718 bound_to 10713
  153.0101  135.6322  154.1893 H   0  0  0  0  0  0  0  0  0  0  0  0  # atno 10763 bound_to 10752
  154.1635  135.2822  155.3103 H   0  0  0  0  0  0  0  0  0  0  0  0  # atno 10764 bound_to 10752
  154.5963  135.5601  153.7389 H   0  0  0  0  0  0  0  0  0  0  0  0  # atno 10765 bound_to 10752
  140.1671  134.4268  155.8280 H   0  0  0  0  0  0  0  0  0  0  0  0  # atno 11005 bound_to 11000
  146.0423  139.3433  143.0690 LP  0  0  0  0  0  0  0  0  0  0  0  0  # atno 17320 bound_to 7965
  145.8319  140.9626  143.0844 LP  0  0  0  0  0  0  0  0  0  0  0  0  # atno 17321 bound_to 7965
  140.1849  144.4808  150.6509 LP  0  0  0  0  0  0  0  0  0  0  0  0  # atno 17342 bound_to 10162
  140.6635  143.2260  151.5798 LP  0  0  0  0  0  0  0  0  0  0  0  0  # atno 17343 bound_to 10162
  156.3989  130.7664  151.2671 LP  0  0  0  0  0  0  0  0  0  0  0  0  # atno 17370 bound_to 10713
  157.7507  131.0246  150.3882 LP  0  0  0  0  0  0  0  0  0  0  0  0  # atno 17371 bound_to 10713
  141.2214  133.6939  156.7698 LP  0  0  0  0  0  0  0  0  0  0  0  0  # atno 17394 bound_to 11000
  140.2421  134.8606  157.3583 LP  0  0  0  0  0  0  0  0  0  0  0  0  # atno 17395 bound_to 11000

$$$$
