AV-unprocessed.smi:2438|AV-procd|sdf|9597|dock4
  -GOLD-   2272013233D 1   1.00000     0.00000
 Structure written by MMmdl.
 43 44  0  0  0  0  0  0  0  0  1 V2000
  145.9797  142.8930  154.4413 C   0  0  0  0  0  0  0  0  0  0  0  0
  145.8305  141.5101  154.8769 N   0  0  0  0  0  0  0  0  0  0  0  0
  145.3673  141.3170  156.2443 C   0  0  0  0  0  0  0  0  0  0  0  0
  146.8614  140.6225  154.5081 C   0  0  0  0  0  0  0  0  0  0  0  0
  146.5666  139.6351  153.6275 N   0  0  0  0  0  0  0  0  0  0  0  0
  147.5546  138.8156  153.2644 C   0  0  0  0  0  0  0  0  0  0  0  0
  148.8196  138.8581  153.6825 N   0  0  0  0  0  0  0  0  0  0  0  0
  149.1356  139.8315  154.5618 C   0  0  0  0  0  0  0  0  0  0  0  0
  148.1780  140.7702  155.0177 C   0  0  0  0  0  0  0  0  0  0  0  0
  148.4716  141.7667  155.9882 N   0  0  0  0  0  0  0  0  0  0  0  0
  149.2232  141.6361  157.0929 C   0  0  0  0  0  0  0  0  0  0  0  0
  149.8080  140.6072  157.4319 O   0  0  0  0  0  0  0  0  0  0  0  0
  149.2831  142.7880  157.7754 N   0  0  0  0  0  0  0  0  0  0  0  0
  150.0556  143.0126  158.9934 C   0  0  2  0  0  0  0  0  0  0  0  0
  150.1687  144.5241  159.2592 C   0  0  0  0  0  0  0  0  0  0  0  0
  151.0439  144.8102  160.4879 C   0  0  0  0  0  0  0  0  0  0  0  0
  152.4346  144.1740  160.3403 C   0  0  0  0  0  0  0  0  0  0  0  0
  152.3414  142.6540  160.0911 C   0  0  2  0  0  0  0  0  0  0  0  0
  153.7344  142.0047  159.9566 C   0  0  0  0  0  0  0  0  0  0  0  0
  154.5004  142.6956  159.1116 F   0  0  0  0  0  0  0  0  0  0  0  0
  154.3354  141.9617  161.1457 F   0  0  0  0  0  0  0  0  0  0  0  0
  153.6148  140.7559  159.5062 F   0  0  0  0  0  0  0  0  0  0  0  0
  151.4512  142.3698  158.8621 C   0  0  0  0  0  0  0  0  0  0  0  0
  146.2745  142.9415  153.3922 H   0  0  0  0  0  0  0  0  0  0  0  0
  146.7309  143.4114  155.0386 H   0  0  0  0  0  0  0  0  0  0  0  0
  145.0342  143.4252  154.5478 H   0  0  0  0  0  0  0  0  0  0  0  0
  145.1281  140.2738  156.4508 H   0  0  0  0  0  0  0  0  0  0  0  0
  144.4686  141.9067  156.4266 H   0  0  0  0  0  0  0  0  0  0  0  0
  146.1327  141.6362  156.9527 H   0  0  0  0  0  0  0  0  0  0  0  0
  147.3026  138.0352  152.5618 H   0  0  0  0  0  0  0  0  0  0  0  0
  150.1549  139.8307  154.9172 H   0  0  0  0  0  0  0  0  0  0  0  0
  148.1455  142.6971  155.7701 H   0  0  0  0  0  0  0  0  0  0  0  0
  148.7679  143.5779  157.4152 H   0  0  0  0  0  0  0  0  0  0  0  0
  149.5381  142.5604  159.8419 H   0  0  0  0  0  0  0  0  0  0  0  0
  150.5961  145.0235  158.3883 H   0  0  0  0  0  0  0  0  0  0  0  0
  149.1770  144.9535  159.4065 H   0  0  0  0  0  0  0  0  0  0  0  0
  151.1409  145.8867  160.6311 H   0  0  0  0  0  0  0  0  0  0  0  0
  150.5568  144.4221  161.3835 H   0  0  0  0  0  0  0  0  0  0  0  0
  152.9662  144.6525  159.5168 H   0  0  0  0  0  0  0  0  0  0  0  0
  153.0188  144.3721  161.2391 H   0  0  0  0  0  0  0  0  0  0  0  0
  151.8562  142.2061  160.9600 H   0  0  0  0  0  0  0  0  0  0  0  0
  151.3444  141.2931  158.7256 H   0  0  0  0  0  0  0  0  0  0  0  0
  151.9426  142.7447  157.9632 H   0  0  0  0  0  0  0  0  0  0  0  0
  1  2  1  0  0  0  0
  1 24  1  0  0  0  0
  1 25  1  0  0  0  0
  1 26  1  0  0  0  0
  2  3  1  0  0  0  0
  2  4  1  0  0  0  0
  3 27  1  0  0  0  0
  3 28  1  0  0  0  0
  3 29  1  0  0  0  0
  4  9  1  0  0  0  0
  4  5  2  0  0  0  0
  5  6  1  0  0  0  0
  6  7  2  0  0  0  0
  6 30  1  0  0  0  0
  7  8  1  0  0  0  0
  8  9  2  0  0  0  0
  8 31  1  0  0  0  0
  9 10  1  0  0  0  0
 10 11  1  0  0  0  0
 10 32  1  0  0  0  0
 11 12  2  0  0  0  0
 11 13  1  0  0  0  0
 13 14  1  0  0  0  0
 13 33  1  0  0  0  0
 14 23  1  0  0  0  0
 14 15  1  0  0  0  0
 14 34  1  0  0  0  0
 15 16  1  0  0  0  0
 15 35  1  0  0  0  0
 15 36  1  0  0  0  0
 16 17  1  0  0  0  0
 16 37  1  0  0  0  0
 16 38  1  0  0  0  0
 17 18  1  0  0  0  0
 17 39  1  0  0  0  0
 17 40  1  0  0  0  0
 18 19  1  0  0  0  0
 18 23  1  0  0  0  0
 18 41  1  0  0  0  0
 19 20  1  0  0  0  0
 19 21  1  0  0  0  0
 19 22  1  0  0  0  0
 23 42  1  0  0  0  0
 23 43  1  0  0  0  0
M  END
> <s_m_source_file>
AV-unprocessed.smi

> <i_m_source_file_index>
2438

> <i_lp_mmshare_version>
43012

> <i_f3d_flags>
0

> <s_epik_input>
W0NIM11OKFtDSDNdKWMxbltjSF1uW2NIXWMxW05IXUMoPU8pW05IXVtDQEBIXTJbQ0gyXVtDSDJdW0NIMl1bQ0BASF0oQyhGKShGKUYpW0NIMl0y

> <s_epik_cmdline>
J2VwaWtfcHl0aG9uJywgJy1waCcsICc3LjAnLCAnLXRuJywgJzgnLCAnLW1hJywgJzIwMCcsICctbWV0YWxfYmluZGluZycsICctaW1hZScsICc8aW5maWxlLm1hZT4nLCAnLW9tYWUnLCAnPG91dGZpbGUubWFlPic=

> <r_lp_tautomer_probability>
1

> <r_epik_Ionization_Penalty>
0.01759

> <r_epik_Ionization_Penalty_Charging>
0

> <r_epik_Ionization_Penalty_Neutral>
0.01759

> <r_epik_State_Penalty>
0.0133536

> <r_epik_Charging_Adjusted_Penalty>
0.0133536

> <i_epik_Tot_Q>
0

> <i_epik_Tot_abs_Q>
0

> <r_epik_Metal_State_Penalty>
0.0129828

> <b_epik_Metal_Only>
0

> <s_lp_Force_Field>
OPLS_2005

> <r_lp_Energy>
11.5061

> <b_lp_Chiralities_Consistent>
1

> <s_lp_Variant>
AV-unprocessed.smi:2438-3

> <Gold.Version>
5.8.1

> <Gold.Id.Protein>
6NUR|6NUR_protein|mol2

> <Gold.PLP.Fitness>
44.2325

> <Gold.PLP.PLP>
-37.6520

> <Gold.PLP.part.hbond>
-2.0000

> <Gold.PLP.part.metal>
0.0000

> <Gold.PLP.part.buried>
-5.1577

> <Gold.PLP.part.nonpolar>
-30.8239

> <Gold.PLP.part.repulsive>
1.1386

> <Gold.PLP.ligand.clash>
0.0000

> <Gold.PLP.ligand.torsion>
0.9957

> <Gold.PLP.Chemscore.Hbond>
1.9920

> <Gold.PLP.Chemscore.CHOScore>
0.7521

> <Gold.PLP.Chemscore.Metal>
0.0000

> <Gold.Chemscore.Hbonds>
donor molecule, donor type, donor heavy atom, donor atom, acceptor molecule, acceptor atom, score
      L1  H    10    32       P1  8028  0.60
      L1  H    13    33       P1  8028  0.49
      L1  C     6    30       P1  7948  0.86

> <Gold.PLP.Chemscore.Internal.Correction>
0.3398

> <Gold.Rescore>
     Score         DG    S(hbond)    S(metal)    S(lipo)     H(rot)  DE(clash)    DE(int)     intcor
     13.78     -18.53       1.73        0.00      90.42       1.30       1.78       2.96       ----

> <Gold.Chemscore.Fitness>
13.7806

> <Gold.Chemscore.DG>
-18.5277

> <Gold.Chemscore.ZeroCoef>
-5.4800

> <Gold.Chemscore.Hbond>
1.7343

> <Gold.Chemscore.Metal>
0.0000

> <Gold.Chemscore.Lipo>
90.4249

> <Gold.Chemscore.Internal_Hbond>
0.0000

> <Gold.Chemscore.DEClash>
1.7846

> <Gold.Chemscore.DEInternal>
2.9625

> <Gold.Chemscore.Rot>
1.2987

> <Gold.Chemscore.Internal.Correction>
   9.000000E+99

> <Gold.Chemscore.Hbonds>
donor molecule, donor type, donor heavy atom, donor atom, acceptor molecule, acceptor atom, score
      L1  H    10    32       P1  8028  0.55
      L1  H    13    33       P1  8028  0.07

> <Gold.Chemscore.Hbond.Weighted>
-5.7925

> <Gold.Chemscore.Metal.Weighted>
-0.0000

> <Gold.Chemscore.Lipo.Weighted>
-10.5797

> <Gold.Chemscore.Internal_Hbond.Weighted>
0.0000

> <Gold.Chemscore.DEClash.Weighted>
1.7846

> <Gold.Chemscore.DEInternal.Weighted>
2.9625

> <Gold.Chemscore.Rot.Weighted>
3.3246

> <Gold.Chemscore.Internal.Correction.Weighted>
   9.000000E+99

> <Gold.Protein.RotatedTorsions>
[ 6907 6896 6895 6894 ] final   60.39 input  -60.11 | X-H torsion
[ 7974 7965 7964 7962 ] final -130.61 input  175.53 | X-H torsion
[ 8008 7997 7996 7995 ] final  172.48 input   59.86 | X-H torsion
[ 10167 10162 10161 10158 ] final -115.90 input  -65.29 | X-H torsion
[ 10718 10713 10712 10709 ] final  -64.55 input   66.30 | X-H torsion
[ 10763 10752 10751 10750 ] final  179.65 input  -60.55 | X-H torsion
[ 11005 11000 10999 10996 ] final  165.92 input  -57.11 | X-H torsion

> <Gold.Protein.ActiveResidues>
 VAL166  LYS551  ARG553  GLY616  TRP617  ASP618  TYR619  PRO620  LYS621  CYS622 
 ASP623  PHE694  ASN695  SER759  ASP760  ASP761  ALA762  ILE779  LEU786  VAL792 
 PHE793  MET794  SER795  GLU796  ALA797  LYS798  CYS799  TRP800  GLU811  SER814 

> <Gold.Protein.RotatedAtoms>
  152.3999  134.6304  160.0073 H   0  0  0  0  0  0  0  0  0  0  0  0  # atno 6907 bound_to 6896
  151.6512  133.3315  159.3160 H   0  0  0  0  0  0  0  0  0  0  0  0  # atno 6908 bound_to 6896
  150.7901  134.6960  159.6568 H   0  0  0  0  0  0  0  0  0  0  0  0  # atno 6909 bound_to 6896
  144.9458  140.7290  143.4818 H   0  0  0  0  0  0  0  0  0  0  0  0  # atno 7974 bound_to 7965
  156.1170  140.1485  156.9259 H   0  0  0  0  0  0  0  0  0  0  0  0  # atno 8008 bound_to 7997
  154.4807  140.0880  156.7413 H   0  0  0  0  0  0  0  0  0  0  0  0  # atno 8009 bound_to 7997
  155.4496  140.3434  155.4301 H   0  0  0  0  0  0  0  0  0  0  0  0  # atno 8010 bound_to 7997
  140.0851  143.4752  152.1903 H   0  0  0  0  0  0  0  0  0  0  0  0  # atno 10167 bound_to 10162
  156.0722  130.4235  150.1436 H   0  0  0  0  0  0  0  0  0  0  0  0  # atno 10718 bound_to 10713
  154.5233  135.2795  155.1243 H   0  0  0  0  0  0  0  0  0  0  0  0  # atno 10763 bound_to 10752
  154.2792  135.6288  153.5344 H   0  0  0  0  0  0  0  0  0  0  0  0  # atno 10764 bound_to 10752
  152.9941  135.5647  154.5728 H   0  0  0  0  0  0  0  0  0  0  0  0  # atno 10765 bound_to 10752
  140.2611  134.7901  157.3590 H   0  0  0  0  0  0  0  0  0  0  0  0  # atno 11005 bound_to 11000
  145.2920  139.1880  143.4735 LP  0  0  0  0  0  0  0  0  0  0  0  0  # atno 17320 bound_to 7965
  146.3303  140.2898  142.8614 LP  0  0  0  0  0  0  0  0  0  0  0  0  # atno 17321 bound_to 7965
  139.5757  144.7486  151.3771 LP  0  0  0  0  0  0  0  0  0  0  0  0  # atno 17342 bound_to 10162
  140.7058  143.7518  150.7479 LP  0  0  0  0  0  0  0  0  0  0  0  0  # atno 17343 bound_to 10162
  156.9484  130.9767  151.3503 LP  0  0  0  0  0  0  0  0  0  0  0  0  # atno 17370 bound_to 10713
  157.5800  130.8369  149.8509 LP  0  0  0  0  0  0  0  0  0  0  0  0  # atno 17371 bound_to 10713
  140.1464  134.4906  155.7993 LP  0  0  0  0  0  0  0  0  0  0  0  0  # atno 17394 bound_to 11000
  141.2190  133.6845  156.7301 LP  0  0  0  0  0  0  0  0  0  0  0  0  # atno 17395 bound_to 11000

$$$$
