AV-unprocessed.smi:2760|AV-procd|sdf|10628|dock6
  -GOLD-   2272015 73D 1   1.00000     0.00000
 Structure written by MMmdl.
 32 33  0  0  0  0  0  0  0  0  1 V2000
  146.8747  138.6268  151.3118 O   0  0  0  0  0  0  0  0  0  0  0  0
  147.3722  139.2282  152.2611 C   0  0  0  0  0  0  0  0  0  0  0  0
  146.8675  140.4982  152.7820 C   0  0  0  0  0  0  0  0  0  0  0  0
  147.4730  141.1009  153.8369 C   0  0  0  0  0  0  0  0  0  0  0  0
  147.0143  142.3972  154.4193 C   0  0  0  0  0  0  0  0  0  0  0  0
  145.6905  142.5364  155.1395 C   0  0  0  0  0  0  0  0  0  0  0  0
  145.8909  143.1983  153.7978 C   0  0  0  0  0  0  0  0  0  0  0  0
  148.5925  140.5137  154.4432 N   0  0  0  0  0  0  0  0  0  0  0  0
  149.0604  139.3890  153.9983 C   0  0  0  0  0  0  0  0  0  0  0  0
  150.4839  138.4252  154.5847 S   0  0  0  0  0  0  0  0  0  0  0  0
  151.4436  139.6986  155.4537 C   0  0  0  0  0  0  0  0  0  0  0  0
  151.7911  139.2719  156.8838 C   0  0  0  0  0  0  0  0  0  0  0  0
  152.4647  140.3321  157.5426 O   0  0  0  0  0  0  0  0  0  0  0  0
  152.1093  140.4431  158.9118 C   0  0  0  0  0  0  0  0  0  0  0  0
  152.8845  141.6016  159.5513 C   0  0  0  0  0  0  0  0  0  0  0  0
  152.7257  142.6985  158.8115 F   0  0  0  0  0  0  0  0  0  0  0  0
  152.4231  141.8428  160.7782 F   0  0  0  0  0  0  0  0  0  0  0  0
  154.1836  141.3101  159.6107 F   0  0  0  0  0  0  0  0  0  0  0  0
  148.4547  138.7463  152.9135 N   0  0  0  0  0  0  0  0  0  0  0  0
  148.8429  137.8709  152.5937 H   0  0  0  0  0  0  0  0  0  0  0  0
  146.0063  140.9485  152.3112 H   0  0  0  0  0  0  0  0  0  0  0  0
  147.8385  142.9772  154.8318 H   0  0  0  0  0  0  0  0  0  0  0  0
  145.0300  141.6728  155.1807 H   0  0  0  0  0  0  0  0  0  0  0  0
  145.6641  143.1801  156.0164 H   0  0  0  0  0  0  0  0  0  0  0  0
  145.9984  144.2808  153.7832 H   0  0  0  0  0  0  0  0  0  0  0  0
  145.3667  142.7736  152.9442 H   0  0  0  0  0  0  0  0  0  0  0  0
  150.8784  140.6310  155.4651 H   0  0  0  0  0  0  0  0  0  0  0  0
  152.3614  139.8852  154.8956 H   0  0  0  0  0  0  0  0  0  0  0  0
  150.8831  139.0023  157.4254 H   0  0  0  0  0  0  0  0  0  0  0  0
  152.4309  138.3886  156.8579 H   0  0  0  0  0  0  0  0  0  0  0  0
  151.0362  140.6183  159.0065 H   0  0  0  0  0  0  0  0  0  0  0  0
  152.3356  139.5116  159.4330 H   0  0  0  0  0  0  0  0  0  0  0  0
  1  2  2  0  0  0  0
  2 19  1  0  0  0  0
  2  3  1  0  0  0  0
  3 21  1  0  0  0  0
  3  4  2  0  0  0  0
  4  5  1  0  0  0  0
  4  8  1  0  0  0  0
  5  7  1  0  0  0  0
  5  6  1  0  0  0  0
  5 22  1  0  0  0  0
  6  7  1  0  0  0  0
  6 23  1  0  0  0  0
  6 24  1  0  0  0  0
  7 25  1  0  0  0  0
  7 26  1  0  0  0  0
  8  9  2  0  0  0  0
  9 10  1  0  0  0  0
  9 19  1  0  0  0  0
 10 11  1  0  0  0  0
 11 12  1  0  0  0  0
 11 27  1  0  0  0  0
 11 28  1  0  0  0  0
 12 13  1  0  0  0  0
 12 29  1  0  0  0  0
 12 30  1  0  0  0  0
 13 14  1  0  0  0  0
 14 15  1  0  0  0  0
 14 31  1  0  0  0  0
 14 32  1  0  0  0  0
 15 16  1  0  0  0  0
 15 17  1  0  0  0  0
 15 18  1  0  0  0  0
 19 20  1  0  0  0  0
M  END
> <s_m_source_file>
AV-unprocessed.smi

> <i_m_source_file_index>
2760

> <i_lp_mmshare_version>
43012

> <i_f3d_flags>
0

> <s_epik_input>
W09IXWMxW2NIXWMoW0NIXTJbQ0gyXVtDSDJdMiluYyhuMSlTW0NIMl1bQ0gyXU9bQ0gyXUMoRikoRilG

> <s_epik_cmdline>
J2VwaWtfcHl0aG9uJywgJy1waCcsICc3LjAnLCAnLXRuJywgJzgnLCAnLW1hJywgJzIwMCcsICctbWV0YWxfYmluZGluZycsICctaW1hZScsICc8aW5maWxlLm1hZT4nLCAnLW9tYWUnLCAnPG91dGZpbGUubWFlPic=

> <r_lp_tautomer_probability>
0.660323

> <r_epik_Ionization_Penalty>
0.00540315

> <r_epik_Ionization_Penalty_Charging>
0.00540219

> <r_epik_Ionization_Penalty_Neutral>
9.53041e-07

> <r_epik_State_Penalty>
0.139188

> <r_epik_Charging_Adjusted_Penalty>
0.14459

> <i_epik_Tot_Q>
0

> <i_epik_Tot_abs_Q>
0

> <r_epik_Metal_State_Penalty>
0.790013

> <b_epik_Metal_Only>
0

> <s_lp_Force_Field>
OPLS_2005

> <r_lp_Energy>
15.5574

> <b_lp_Chiralities_Consistent>
1

> <s_lp_Variant>
AV-unprocessed.smi:2760-1

> <Gold.Version>
5.8.1

> <Gold.Id.Protein>
6NUR|6NUR_protein|mol2

> <Gold.PLP.Fitness>
45.9682

> <Gold.PLP.PLP>
-39.4874

> <Gold.PLP.part.hbond>
-3.6941

> <Gold.PLP.part.metal>
0.0000

> <Gold.PLP.part.buried>
2.9732

> <Gold.PLP.part.nonpolar>
-38.0147

> <Gold.PLP.part.repulsive>
1.0731

> <Gold.PLP.ligand.clash>
0.0000

> <Gold.PLP.ligand.torsion>
1.0588

> <Gold.PLP.Chemscore.Hbond>
2.7997

> <Gold.PLP.Chemscore.CHOScore>
0.0000

> <Gold.PLP.Chemscore.Metal>
0.0000

> <Gold.Chemscore.Hbonds>
donor molecule, donor type, donor heavy atom, donor atom, acceptor molecule, acceptor atom, score
      L1  H    19    20       P1  7948  1.00
      P1  H  7954  7966       L1     1  0.93
      P1  H  7997  8009       L1    13  0.76

> <Gold.PLP.Chemscore.Internal.Correction>
0.1992

> <Gold.Rescore>
     Score         DG    S(hbond)    S(metal)    S(lipo)     H(rot)  DE(clash)    DE(int)     intcor
     10.37     -13.30       1.90        0.00      68.73       2.57       1.93       1.00       ----

> <Gold.Chemscore.Fitness>
10.3727

> <Gold.Chemscore.DG>
-13.2985

> <Gold.Chemscore.ZeroCoef>
-5.4800

> <Gold.Chemscore.Hbond>
1.9015

> <Gold.Chemscore.Metal>
0.0000

> <Gold.Chemscore.Lipo>
68.7326

> <Gold.Chemscore.Internal_Hbond>
0.0000

> <Gold.Chemscore.DEClash>
1.9303

> <Gold.Chemscore.DEInternal>
0.9955

> <Gold.Chemscore.Rot>
2.5680

> <Gold.Chemscore.Internal.Correction>
   9.000000E+99

> <Gold.Chemscore.Hbonds>
donor molecule, donor type, donor heavy atom, donor atom, acceptor molecule, acceptor atom, score
      L1  H    19    20       P1  7948  1.00
      P1  H  7954  7966       L1     1  0.81
      P1  H  7997  8009       L1    13  0.22

> <Gold.Chemscore.Hbond.Weighted>
-6.3509

> <Gold.Chemscore.Metal.Weighted>
-0.0000

> <Gold.Chemscore.Lipo.Weighted>
-8.0417

> <Gold.Chemscore.Internal_Hbond.Weighted>
0.0000

> <Gold.Chemscore.DEClash.Weighted>
1.9303

> <Gold.Chemscore.DEInternal.Weighted>
0.9955

> <Gold.Chemscore.Rot.Weighted>
6.5741

> <Gold.Chemscore.Internal.Correction.Weighted>
   9.000000E+99

> <Gold.Protein.RotatedTorsions>
[ 6907 6896 6895 6894 ] final  135.74 input  -60.11 | X-H torsion
[ 7974 7965 7964 7962 ] final  -13.13 input  175.53 | X-H torsion
[ 8008 7997 7996 7995 ] final  172.09 input   59.86 | X-H torsion
[ 10167 10162 10161 10158 ] final  100.46 input  -65.29 | X-H torsion
[ 10718 10713 10712 10709 ] final  -45.03 input   66.30 | X-H torsion
[ 10763 10752 10751 10750 ] final -125.03 input  -60.55 | X-H torsion
[ 11005 11000 10999 10996 ] final  119.30 input  -57.11 | X-H torsion

> <Gold.Protein.ActiveResidues>
 VAL166  LYS551  ARG553  GLY616  TRP617  ASP618  TYR619  PRO620  LYS621  CYS622 
 ASP623  PHE694  ASN695  SER759  ASP760  ASP761  ALA762  ILE779  LEU786  VAL792 
 PHE793  MET794  SER795  GLU796  ALA797  LYS798  CYS799  TRP800  GLU811  SER814 

> <Gold.Protein.RotatedAtoms>
  152.2970  133.5618  159.5593 H   0  0  0  0  0  0  0  0  0  0  0  0  # atno 6907 bound_to 6896
  150.7260  134.0346  159.3754 H   0  0  0  0  0  0  0  0  0  0  0  0  # atno 6908 bound_to 6896
  151.8248  135.0640  160.0480 H   0  0  0  0  0  0  0  0  0  0  0  0  # atno 6909 bound_to 6896
  146.2126  140.3158  142.8386 H   0  0  0  0  0  0  0  0  0  0  0  0  # atno 7974 bound_to 7965
  156.1209  140.1495  156.9206 H   0  0  0  0  0  0  0  0  0  0  0  0  # atno 8008 bound_to 7997
  154.4835  140.0872  156.7473 H   0  0  0  0  0  0  0  0  0  0  0  0  # atno 8009 bound_to 7997
  155.4431  140.3432  155.4294 H   0  0  0  0  0  0  0  0  0  0  0  0  # atno 8010 bound_to 7997
  139.7525  144.6979  151.0411 H   0  0  0  0  0  0  0  0  0  0  0  0  # atno 10167 bound_to 10162
  156.2325  130.4173  149.8857 H   0  0  0  0  0  0  0  0  0  0  0  0  # atno 10718 bound_to 10713
  154.8731  135.4043  154.3201 H   0  0  0  0  0  0  0  0  0  0  0  0  # atno 10763 bound_to 10752
  153.4031  135.7018  153.6417 H   0  0  0  0  0  0  0  0  0  0  0  0  # atno 10764 bound_to 10752
  153.5152  135.3699  155.2576 H   0  0  0  0  0  0  0  0  0  0  0  0  # atno 10765 bound_to 10752
  139.9141  134.9627  156.7634 H   0  0  0  0  0  0  0  0  0  0  0  0  # atno 11005 bound_to 11000
  144.8955  140.7578  143.5899 LP  0  0  0  0  0  0  0  0  0  0  0  0  # atno 17320 bound_to 7965
  145.3082  139.1827  143.4653 LP  0  0  0  0  0  0  0  0  0  0  0  0  # atno 17321 bound_to 7965
  140.7799  143.4792  151.0041 LP  0  0  0  0  0  0  0  0  0  0  0  0  # atno 17342 bound_to 10162
  139.8479  143.7477  152.3179 LP  0  0  0  0  0  0  0  0  0  0  0  0  # atno 17343 bound_to 10162
  156.6467  130.8727  151.3524 LP  0  0  0  0  0  0  0  0  0  0  0  0  # atno 17370 bound_to 10713
  157.7139  130.9474  150.1187 LP  0  0  0  0  0  0  0  0  0  0  0  0  # atno 17371 bound_to 10713
  140.6679  133.9586  155.7840 LP  0  0  0  0  0  0  0  0  0  0  0  0  # atno 17394 bound_to 11000
  141.0598  134.0363  157.3674 LP  0  0  0  0  0  0  0  0  0  0  0  0  # atno 17395 bound_to 11000

$$$$
