AV-unprocessed.smi:1529|AV-procd|sdf|6152|dock6
  -GOLD-   22720 6303D 1   1.00000     0.00000
 Structure written by MMmdl.
 50 51  0  0  0  0  0  0  0  0  1 V2000
  142.1216  137.4541  153.1734 C   0  0  0  0  0  0  0  0  0  0  0  0
  143.6296  137.2802  153.3198 C   0  0  0  0  0  0  0  0  0  0  0  0
  144.0989  136.7971  154.3498 O   0  0  0  0  0  0  0  0  0  0  0  0
  144.3765  137.6801  152.2796 N   0  0  0  0  0  0  0  0  0  0  0  0
  145.8327  137.6065  152.2140 C   0  0  0  0  0  0  0  0  0  0  0  0
  146.5198  138.6708  153.0890 C   0  0  0  0  0  0  0  0  0  0  0  0
  147.9378  139.0375  152.6144 C   0  0  0  0  0  0  0  0  0  0  0  0
  148.7099  139.6692  153.6774 N   0  0  0  0  0  0  0  0  0  0  0  0
  149.8287  139.1644  154.2225 C   0  0  0  0  0  0  0  0  0  0  0  0
  150.3192  138.0850  153.8899 O   0  0  0  0  0  0  0  0  0  0  0  0
  150.4297  139.9706  155.3374 C   0  0  0  0  0  0  0  0  0  0  0  0
  149.6901  140.9960  155.9627 C   0  0  0  0  0  0  0  0  0  0  0  0
  150.2759  141.7191  157.0193 C   0  0  0  0  0  0  0  0  0  0  0  0
  151.5897  141.3964  157.4334 C   0  0  0  0  0  0  0  0  0  0  0  0
  152.1987  142.1121  158.4870 N   0  0  0  0  0  0  0  0  0  0  0  0
  151.5904  143.3759  158.8979 C   0  0  0  0  0  0  0  0  0  0  0  0
  152.5357  144.1495  159.8353 C   0  0  1  0  0  0  0  0  0  0  0  0
  151.8859  145.4245  160.3829 C   0  0  0  0  0  0  0  0  0  0  0  0
  152.8845  143.3161  160.9372 O   0  0  0  0  0  0  0  0  0  0  0  0
  153.5769  142.1387  160.5313 C   0  0  1  0  0  0  0  0  0  0  0  0
  153.9867  141.3651  161.7888 C   0  0  0  0  0  0  0  0  0  0  0  0
  152.6650  141.3051  159.6115 C   0  0  0  0  0  0  0  0  0  0  0  0
  152.2920  140.3975  156.8440 N   0  0  0  0  0  0  0  0  0  0  0  0
  151.7266  139.7072  155.8313 C   0  0  0  0  0  0  0  0  0  0  0  0
  141.8762  138.4948  152.9591 H   0  0  0  0  0  0  0  0  0  0  0  0
  141.6069  137.1641  154.0901 H   0  0  0  0  0  0  0  0  0  0  0  0
  141.7446  136.8346  152.3593 H   0  0  0  0  0  0  0  0  0  0  0  0
  143.9021  138.0620  151.4739 H   0  0  0  0  0  0  0  0  0  0  0  0
  146.1656  136.6095  152.5074 H   0  0  0  0  0  0  0  0  0  0  0  0
  146.1331  137.7348  151.1738 H   0  0  0  0  0  0  0  0  0  0  0  0
  145.9031  139.5700  153.1267 H   0  0  0  0  0  0  0  0  0  0  0  0
  146.5663  138.2965  154.1125 H   0  0  0  0  0  0  0  0  0  0  0  0
  148.4587  138.1524  152.2449 H   0  0  0  0  0  0  0  0  0  0  0  0
  147.8878  139.7382  151.7808 H   0  0  0  0  0  0  0  0  0  0  0  0
  148.3645  140.5501  154.0302 H   0  0  0  0  0  0  0  0  0  0  0  0
  148.6858  141.2327  155.6418 H   0  0  0  0  0  0  0  0  0  0  0  0
  149.7075  142.4973  157.5062 H   0  0  0  0  0  0  0  0  0  0  0  0
  151.3694  143.9881  158.0223 H   0  0  0  0  0  0  0  0  0  0  0  0
  150.6443  143.1719  159.4017 H   0  0  0  0  0  0  0  0  0  0  0  0
  153.4425  144.4273  159.2949 H   0  0  0  0  0  0  0  0  0  0  0  0
  151.6094  146.1023  159.5750 H   0  0  0  0  0  0  0  0  0  0  0  0
  152.5702  145.9573  161.0438 H   0  0  0  0  0  0  0  0  0  0  0  0
  150.9843  145.1952  160.9519 H   0  0  0  0  0  0  0  0  0  0  0  0
  154.4814  142.4238  159.9906 H   0  0  0  0  0  0  0  0  0  0  0  0
  154.5328  140.4573  161.5310 H   0  0  0  0  0  0  0  0  0  0  0  0
  153.1146  141.0762  162.3760 H   0  0  0  0  0  0  0  0  0  0  0  0
  154.6315  141.9708  162.4259 H   0  0  0  0  0  0  0  0  0  0  0  0
  151.7970  140.9469  160.1669 H   0  0  0  0  0  0  0  0  0  0  0  0
  153.2102  140.4243  159.2752 H   0  0  0  0  0  0  0  0  0  0  0  0
  152.3358  138.9200  155.4116 H   0  0  0  0  0  0  0  0  0  0  0  0
  1  2  1  0  0  0  0
  1 25  1  0  0  0  0
  1 26  1  0  0  0  0
  1 27  1  0  0  0  0
  2  3  2  0  0  0  0
  2  4  1  0  0  0  0
  4  5  1  0  0  0  0
  4 28  1  0  0  0  0
  5  6  1  0  0  0  0
  5 29  1  0  0  0  0
  5 30  1  0  0  0  0
  6  7  1  0  0  0  0
  6 31  1  0  0  0  0
  6 32  1  0  0  0  0
  7  8  1  0  0  0  0
  7 33  1  0  0  0  0
  7 34  1  0  0  0  0
  8  9  1  0  0  0  0
  8 35  1  0  0  0  0
  9 10  2  0  0  0  0
  9 11  1  0  0  0  0
 11 24  1  0  0  0  0
 11 12  2  0  0  0  0
 12 13  1  0  0  0  0
 12 36  1  0  0  0  0
 13 14  2  0  0  0  0
 13 37  1  0  0  0  0
 14 15  1  0  0  0  0
 14 23  1  0  0  0  0
 15 22  1  0  0  0  0
 15 16  1  0  0  0  0
 16 17  1  0  0  0  0
 16 38  1  0  0  0  0
 16 39  1  0  0  0  0
 17 18  1  0  0  0  0
 17 19  1  0  0  0  0
 17 40  1  0  0  0  0
 18 41  1  0  0  0  0
 18 42  1  0  0  0  0
 18 43  1  0  0  0  0
 19 20  1  0  0  0  0
 20 21  1  0  0  0  0
 20 22  1  0  0  0  0
 20 44  1  0  0  0  0
 21 45  1  0  0  0  0
 21 46  1  0  0  0  0
 21 47  1  0  0  0  0
 22 48  1  0  0  0  0
 22 49  1  0  0  0  0
 23 24  2  0  0  0  0
 24 50  1  0  0  0  0
M  END
> <s_m_source_file>
AV-unprocessed.smi

> <i_m_source_file_index>
1529

> <i_lp_mmshare_version>
43012

> <i_f3d_flags>
0

> <s_epik_input>
W0NIM11DKD1PKVtOSF1bQ0gyXVtDSDJdW0NIMl1bTkhdQyg9TyljMVtjSF1bY0hdYyhuW2NIXTEpTjJbQ0gyXVtDQEBIXShbQ0gzXSlPW0NAQEhdKFtDSDNdKVtDSDJdMg==

> <s_epik_cmdline>
J2VwaWtfcHl0aG9uJywgJy1waCcsICc3LjAnLCAnLXRuJywgJzgnLCAnLW1hJywgJzIwMCcsICctbWV0YWxfYmluZGluZycsICctaW1hZScsICc8aW5maWxlLm1hZT4nLCAnLW9tYWUnLCAnPG91dGZpbGUubWFlPic=

> <r_lp_tautomer_probability>
1

> <r_epik_Ionization_Penalty>
2.1474e-05

> <r_epik_Ionization_Penalty_Charging>
0

> <r_epik_Ionization_Penalty_Neutral>
2.1474e-05

> <r_epik_State_Penalty>
-0

> <r_epik_Charging_Adjusted_Penalty>
0

> <i_epik_Tot_Q>
0

> <i_epik_Tot_abs_Q>
0

> <r_epik_Metal_State_Penalty>
-0

> <b_epik_Metal_Only>
0

> <s_lp_Force_Field>
OPLS_2005

> <r_lp_Energy>
16.5769

> <b_lp_Chiralities_Consistent>
1

> <s_lp_Variant>
AV-unprocessed.smi:1529-1

> <Gold.Version>
5.8.1

> <Gold.Id.Protein>
6NUR|6NUR_protein|mol2

> <Gold.PLP.Fitness>
47.0209

> <Gold.PLP.PLP>
-42.3468

> <Gold.PLP.part.hbond>
-4.0000

> <Gold.PLP.part.metal>
0.0000

> <Gold.PLP.part.buried>
2.0988

> <Gold.PLP.part.nonpolar>
-41.7493

> <Gold.PLP.part.repulsive>
1.1468

> <Gold.PLP.ligand.clash>
0.0000

> <Gold.PLP.ligand.torsion>
0.6184

> <Gold.PLP.Chemscore.Hbond>
1.8406

> <Gold.PLP.Chemscore.CHOScore>
0.0000

> <Gold.PLP.Chemscore.Metal>
0.0000

> <Gold.Chemscore.Hbonds>
donor molecule, donor type, donor heavy atom, donor atom, acceptor molecule, acceptor atom, score
      L1  H     4    28       P1 10171  1.00
      P1  H  7997  8009       L1    23  0.82

> <Gold.PLP.Chemscore.Internal.Correction>
0.3893

> <Gold.Rescore>
     Score         DG    S(hbond)    S(metal)    S(lipo)     H(rot)  DE(clash)    DE(int)     intcor
     15.67     -18.29       1.40        0.00     114.87       2.07       1.92       0.69       ----

> <Gold.Chemscore.Fitness>
15.6745

> <Gold.Chemscore.DG>
-18.2880

> <Gold.Chemscore.ZeroCoef>
-5.4800

> <Gold.Chemscore.Hbond>
1.3986

> <Gold.Chemscore.Metal>
0.0000

> <Gold.Chemscore.Lipo>
114.8662

> <Gold.Chemscore.Internal_Hbond>
0.0000

> <Gold.Chemscore.DEClash>
1.9194

> <Gold.Chemscore.DEInternal>
0.6941

> <Gold.Chemscore.Rot>
2.0713

> <Gold.Chemscore.Internal.Correction>
   9.000000E+99

> <Gold.Chemscore.Hbonds>
donor molecule, donor type, donor heavy atom, donor atom, acceptor molecule, acceptor atom, score
      L1  H     4    28       P1 10171  0.97
      P1  H  7997  8009       L1    23  0.27

> <Gold.Chemscore.Hbond.Weighted>
-4.6712

> <Gold.Chemscore.Metal.Weighted>
-0.0000

> <Gold.Chemscore.Lipo.Weighted>
-13.4393

> <Gold.Chemscore.Internal_Hbond.Weighted>
0.0000

> <Gold.Chemscore.DEClash.Weighted>
1.9194

> <Gold.Chemscore.DEInternal.Weighted>
0.6941

> <Gold.Chemscore.Rot.Weighted>
5.3025

> <Gold.Chemscore.Internal.Correction.Weighted>
   9.000000E+99

> <Gold.Protein.RotatedTorsions>
[ 6907 6896 6895 6894 ] final  -92.99 input  -60.11 | X-H torsion
[ 7974 7965 7964 7962 ] final  -54.23 input  175.53 | X-H torsion
[ 8008 7997 7996 7995 ] final -169.95 input   59.86 | X-H torsion
[ 10167 10162 10161 10158 ] final  170.74 input  -65.29 | X-H torsion
[ 10718 10713 10712 10709 ] final  -52.35 input   66.30 | X-H torsion
[ 10763 10752 10751 10750 ] final  111.29 input  -60.55 | X-H torsion
[ 11005 11000 10999 10996 ] final  101.14 input  -57.11 | X-H torsion

> <Gold.Protein.ActiveResidues>
 VAL166  LYS551  ARG553  GLY616  TRP617  ASP618  TYR619  PRO620  LYS621  CYS622 
 ASP623  PHE694  ASN695  SER759  ASP760  ASP761  ALA762  ILE779  LEU786  VAL792 
 PHE793  MET794  SER795  GLU796  ALA797  LYS798  CYS799  TRP800  GLU811  SER814 

> <Gold.Protein.RotatedAtoms>
  150.6915  134.2037  159.4331 H   0  0  0  0  0  0  0  0  0  0  0  0  # atno 6907 bound_to 6896
  152.0002  134.9930  160.0574 H   0  0  0  0  0  0  0  0  0  0  0  0  # atno 6908 bound_to 6896
  152.1586  133.4532  159.4886 H   0  0  0  0  0  0  0  0  0  0  0  0  # atno 6909 bound_to 6896
  145.8879  140.8093  142.9806 H   0  0  0  0  0  0  0  0  0  0  0  0  # atno 7974 bound_to 7965
  155.9119  140.1059  157.1273 H   0  0  0  0  0  0  0  0  0  0  0  0  # atno 8008 bound_to 7997
  154.4040  140.1272  156.4633 H   0  0  0  0  0  0  0  0  0  0  0  0  # atno 8009 bound_to 7997
  155.7300  140.3468  155.5057 H   0  0  0  0  0  0  0  0  0  0  0  0  # atno 8010 bound_to 7997
  139.5027  144.3563  151.9871 H   0  0  0  0  0  0  0  0  0  0  0  0  # atno 10167 bound_to 10162
  156.1629  130.4149  149.9765 H   0  0  0  0  0  0  0  0  0  0  0  0  # atno 10718 bound_to 10713
  153.4612  135.3722  155.2339 H   0  0  0  0  0  0  0  0  0  0  0  0  # atno 10763 bound_to 10752
  154.8757  135.3909  154.3923 H   0  0  0  0  0  0  0  0  0  0  0  0  # atno 10764 bound_to 10752
  153.4496  135.7085  153.6181 H   0  0  0  0  0  0  0  0  0  0  0  0  # atno 10765 bound_to 10752
  139.8772  134.9170  156.4862 H   0  0  0  0  0  0  0  0  0  0  0  0  # atno 11005 bound_to 11000
  144.6729  140.1485  143.7432 LP  0  0  0  0  0  0  0  0  0  0  0  0  # atno 17320 bound_to 7965
  145.8944  139.2394  143.1531 LP  0  0  0  0  0  0  0  0  0  0  0  0  # atno 17321 bound_to 7965
  140.2999  144.3658  150.6063 LP  0  0  0  0  0  0  0  0  0  0  0  0  # atno 17342 bound_to 10162
  140.5881  143.2169  151.7304 LP  0  0  0  0  0  0  0  0  0  0  0  0  # atno 17343 bound_to 10162
  156.7589  130.9143  151.3640 LP  0  0  0  0  0  0  0  0  0  0  0  0  # atno 17370 bound_to 10713
  157.6746  130.9082  150.0120 LP  0  0  0  0  0  0  0  0  0  0  0  0  # atno 17371 bound_to 10713
  140.8691  133.8002  155.9345 LP  0  0  0  0  0  0  0  0  0  0  0  0  # atno 17394 bound_to 11000
  140.8971  134.2424  157.5062 LP  0  0  0  0  0  0  0  0  0  0  0  0  # atno 17395 bound_to 11000

$$$$
