AV-unprocessed.smi:1831|AV-procd|sdf|7463|dock8
  -GOLD-   22720 9153D 1   1.00000     0.00000
 Structure written by MMmdl.
 40 41  0  0  0  0  0  0  0  0  3 V2000
  152.8341  141.6352  160.8912 C   0  0  0  0  0  0  0  0  0  0  0  0
  152.6762  140.6052  159.8258 C   0  0  0  0  0  0  0  0  0  0  0  0
  153.6258  139.7124  159.5360 N   0  0  0  0  0  0  0  0  0  0  0  0
  153.2457  138.8592  158.5104 N   0  0  0  0  0  0  0  0  0  0  0  0
  152.0132  139.1100  158.0476 C   0  0  0  0  0  0  0  0  0  0  0  0
  151.4570  138.3954  157.0554 N   0  5  0  0  0  0  0  0  0  0  0  0
  151.1055  139.0056  155.9023 C   0  0  0  0  0  0  0  0  0  0  0  0
  151.7684  139.8480  155.2909 O   0  0  0  0  0  0  0  0  0  0  0  0
  149.9249  138.5985  155.4115 N   0  0  0  0  0  0  0  0  0  0  0  0
  149.3083  139.0662  154.1730 C   0  0  0  0  0  0  0  0  0  0  0  0
  147.7809  139.2761  154.3031 C   0  0  1  0  0  0  0  0  0  0  0  0
  147.2061  139.9444  153.0527 C   0  0  0  0  0  0  0  0  0  0  0  0
  146.8003  138.7814  152.1324 C   0  0  0  0  0  0  0  0  0  0  0  0
  146.8632  137.5426  152.9474 N   0  3  2  0  0  0  0  0  0  0  0  0
  145.8141  136.5265  152.6564 C   0  0  0  0  0  0  0  0  0  0  0  0
  146.1739  135.1526  153.2537 C   0  0  0  0  0  0  0  0  0  0  0  0
  145.5887  136.3842  151.1396 C   0  0  0  0  0  0  0  0  0  0  0  0
  146.9602  137.9828  154.3535 C   0  0  0  0  0  0  0  0  0  0  0  0
  151.2215  140.4643  158.8535 S   0  0  0  0  0  0  0  0  0  0  0  0
  152.4900  141.2374  161.8458 H   0  0  0  0  0  0  0  0  0  0  0  0
  152.2480  142.5216  160.6485 H   0  0  0  0  0  0  0  0  0  0  0  0
  153.8806  141.9260  160.9874 H   0  0  0  0  0  0  0  0  0  0  0  0
  149.4159  137.9075  155.9438 H   0  0  0  0  0  0  0  0  0  0  0  0
  149.7799  140.0132  153.9096 H   0  0  0  0  0  0  0  0  0  0  0  0
  149.5365  138.3863  153.3505 H   0  0  0  0  0  0  0  0  0  0  0  0
  147.5866  139.8805  155.1901 H   0  0  0  0  0  0  0  0  0  0  0  0
  146.3186  140.5179  153.3238 H   0  0  0  0  0  0  0  0  0  0  0  0
  147.9041  140.6338  152.5759 H   0  0  0  0  0  0  0  0  0  0  0  0
  145.7987  138.9557  151.7370 H   0  0  0  0  0  0  0  0  0  0  0  0
  147.4825  138.6873  151.2869 H   0  0  0  0  0  0  0  0  0  0  0  0
  144.8807  136.8601  153.1123 H   0  0  0  0  0  0  0  0  0  0  0  0
  145.4340  134.4004  152.9788 H   0  0  0  0  0  0  0  0  0  0  0  0
  146.2062  135.1764  154.3430 H   0  0  0  0  0  0  0  0  0  0  0  0
  147.1450  134.8068  152.8968 H   0  0  0  0  0  0  0  0  0  0  0  0
  144.8356  135.6251  150.9261 H   0  0  0  0  0  0  0  0  0  0  0  0
  146.5070  136.0898  150.6303 H   0  0  0  0  0  0  0  0  0  0  0  0
  145.2400  137.3122  150.6871 H   0  0  0  0  0  0  0  0  0  0  0  0
  147.3814  137.2200  155.0058 H   0  0  0  0  0  0  0  0  0  0  0  0
  145.9594  138.2049  154.7278 H   0  0  0  0  0  0  0  0  0  0  0  0
  147.7546  137.1142  152.7398 H   0  0  0  0  0  0  0  0  0  0  0  0
  1  2  1  0  0  0  0
  1 20  1  0  0  0  0
  1 21  1  0  0  0  0
  1 22  1  0  0  0  0
  2 19  1  0  0  0  0
  2  3  2  0  0  0  0
  3  4  1  0  0  0  0
  4  5  2  0  0  0  0
  5  6  1  0  0  0  0
  5 19  1  0  0  0  0
  6  7  1  0  0  0  0
  7  8  2  0  0  0  0
  7  9  1  0  0  0  0
  9 10  1  0  0  0  0
  9 23  1  0  0  0  0
 10 11  1  0  0  0  0
 10 24  1  0  0  0  0
 10 25  1  0  0  0  0
 11 18  1  0  0  0  0
 11 12  1  0  0  0  0
 11 26  1  0  0  0  0
 12 13  1  0  0  0  0
 12 27  1  0  0  0  0
 12 28  1  0  0  0  0
 13 14  1  0  0  0  0
 13 29  1  0  0  0  0
 13 30  1  0  0  0  0
 14 15  1  0  0  0  0
 14 18  1  0  0  0  0
 14 40  1  0  0  0  0
 15 16  1  0  0  0  0
 15 17  1  0  0  0  0
 15 31  1  0  0  0  0
 16 32  1  0  0  0  0
 16 33  1  0  0  0  0
 16 34  1  0  0  0  0
 17 35  1  0  0  0  0
 17 36  1  0  0  0  0
 17 37  1  0  0  0  0
 18 38  1  0  0  0  0
 18 39  1  0  0  0  0
M  CHG  1   6  -1
M  CHG  1  14   1
M  END
> <s_m_source_file>
AV-unprocessed.smi

> <i_m_source_file_index>
1831

> <i_lp_mmshare_version>
43012

> <i_f3d_flags>
0

> <s_epik_input>
W0NIM11jMW5uYyhzMSlbTkhdQyg9TylbTkhdW0NIMl1bQ0BASF0yW0NIMl1bQ0gyXU4oW0NIMl0yKVtDSF0oW0NIM10pW0NIM10=

> <s_epik_cmdline>
J2VwaWtfcHl0aG9uJywgJy1waCcsICc3LjAnLCAnLXRuJywgJzgnLCAnLW1hJywgJzIwMCcsICctbWV0YWxfYmluZGluZycsICctaW1hZScsICc8aW5maWxlLm1hZT4nLCAnLW9tYWUnLCAnPG91dGZpbGUubWFlPic=

> <r_lp_tautomer_probability>
1

> <r_epik_Ionization_Penalty>
4.24531

> <r_epik_Ionization_Penalty_Charging>
4.11954

> <r_epik_Ionization_Penalty_Neutral>
0.125766

> <r_epik_State_Penalty>
4.11879

> <r_epik_Charging_Adjusted_Penalty>
8.23833

> <i_epik_Tot_Q>
0

> <i_epik_Tot_abs_Q>
2

> <r_epik_Metal_State_Penalty>
0.659341

> <b_epik_Metal_Only>
1

> <s_lp_Force_Field>
OPLS_2005

> <r_lp_Energy>
23.48

> <b_lp_Chiralities_Consistent>
1

> <s_lp_Variant>
AV-unprocessed.smi:1831-8

> <Gold.Version>
5.8.1

> <Gold.Id.Protein>
6NUR|6NUR_protein|mol2

> <Gold.PLP.Fitness>
39.8240

> <Gold.PLP.PLP>
-30.6670

> <Gold.PLP.part.hbond>
-3.7668

> <Gold.PLP.part.metal>
0.0000

> <Gold.PLP.part.buried>
-0.4536

> <Gold.PLP.part.nonpolar>
-25.6139

> <Gold.PLP.part.repulsive>
0.1147

> <Gold.PLP.ligand.clash>
0.0000

> <Gold.PLP.ligand.torsion>
1.3150

> <Gold.PLP.Chemscore.Hbond>
3.8960

> <Gold.PLP.Chemscore.CHOScore>
0.0000

> <Gold.PLP.Chemscore.Metal>
0.0000

> <Gold.Chemscore.Hbonds>
donor molecule, donor type, donor heavy atom, donor atom, acceptor molecule, acceptor atom, score
      L1  H    14    40       P1  7948  2.00
      P1  H  7989  7998       L1     8  0.90
      P1  H  7997  8010       L1     4  0.06

> <Gold.PLP.Chemscore.Internal.Correction>
0.0990

> <Gold.Rescore>
     Score         DG    S(hbond)    S(metal)    S(lipo)     H(rot)  DE(clash)    DE(int)     intcor
     16.18     -17.75       2.64        0.00      62.57       1.51       0.18       1.39       ----

> <Gold.Chemscore.Fitness>
16.1816

> <Gold.Chemscore.DG>
-17.7543

> <Gold.Chemscore.ZeroCoef>
-5.4800

> <Gold.Chemscore.Hbond>
2.6429

> <Gold.Chemscore.Metal>
0.0000

> <Gold.Chemscore.Lipo>
62.5690

> <Gold.Chemscore.Internal_Hbond>
0.0000

> <Gold.Chemscore.DEClash>
0.1790

> <Gold.Chemscore.DEInternal>
1.3937

> <Gold.Chemscore.Rot>
1.5131

> <Gold.Chemscore.Internal.Correction>
   9.000000E+99

> <Gold.Chemscore.Hbonds>
donor molecule, donor type, donor heavy atom, donor atom, acceptor molecule, acceptor atom, score
      L1  H    14    40       P1  7948  0.99
      P1  H  7989  7998       L1     8  0.83

> <Gold.Chemscore.Hbond.Weighted>
-8.8272

> <Gold.Chemscore.Metal.Weighted>
-0.0000

> <Gold.Chemscore.Lipo.Weighted>
-7.3206

> <Gold.Chemscore.Internal_Hbond.Weighted>
0.0000

> <Gold.Chemscore.DEClash.Weighted>
0.1790

> <Gold.Chemscore.DEInternal.Weighted>
1.3937

> <Gold.Chemscore.Rot.Weighted>
3.8735

> <Gold.Chemscore.Internal.Correction.Weighted>
   9.000000E+99

> <Gold.Protein.RotatedTorsions>
[ 6907 6896 6895 6894 ] final  -52.23 input  -60.11 | X-H torsion
[ 7974 7965 7964 7962 ] final  -74.83 input  175.53 | X-H torsion
[ 8008 7997 7996 7995 ] final   49.84 input   59.86 | X-H torsion
[ 10167 10162 10161 10158 ] final  -52.41 input  -65.29 | X-H torsion
[ 10718 10713 10712 10709 ] final  131.51 input   66.30 | X-H torsion
[ 10763 10752 10751 10750 ] final -175.63 input  -60.55 | X-H torsion
[ 11005 11000 10999 10996 ] final   70.30 input  -57.11 | X-H torsion

> <Gold.Protein.ActiveResidues>
 VAL166  LYS551  ARG553  GLY616  TRP617  ASP618  TYR619  PRO620  LYS621  CYS622 
 ASP623  PHE694  ASN695  SER759  ASP760  ASP761  ALA762  ILE779  LEU786  VAL792 
 PHE793  MET794  SER795  GLU796  ALA797  LYS798  CYS799  TRP800  GLU811  SER814 

> <Gold.Protein.RotatedAtoms>
  150.8537  134.7869  159.7028 H   0  0  0  0  0  0  0  0  0  0  0  0  # atno 6907 bound_to 6896
  152.4594  134.5214  159.9793 H   0  0  0  0  0  0  0  0  0  0  0  0  # atno 6908 bound_to 6896
  151.5330  133.3407  159.2957 H   0  0  0  0  0  0  0  0  0  0  0  0  # atno 6909 bound_to 6896
  145.6339  140.9330  143.1072 H   0  0  0  0  0  0  0  0  0  0  0  0  # atno 7974 bound_to 7965
  155.4088  140.3441  155.4262 H   0  0  0  0  0  0  0  0  0  0  0  0  # atno 8008 bound_to 7997
  156.1461  140.1556  156.8876 H   0  0  0  0  0  0  0  0  0  0  0  0  # atno 8009 bound_to 7997
  154.5012  140.0814  156.7782 H   0  0  0  0  0  0  0  0  0  0  0  0  # atno 8010 bound_to 7997
  140.6539  143.2585  151.4643 H   0  0  0  0  0  0  0  0  0  0  0  0  # atno 10167 bound_to 10162
  157.4960  131.1092  150.9492 H   0  0  0  0  0  0  0  0  0  0  0  0  # atno 10718 bound_to 10713
  154.5821  135.2837  155.0722 H   0  0  0  0  0  0  0  0  0  0  0  0  # atno 10763 bound_to 10752
  154.2055  135.6417  153.5103 H   0  0  0  0  0  0  0  0  0  0  0  0  # atno 10764 bound_to 10752
  153.0092  135.5479  154.6478 H   0  0  0  0  0  0  0  0  0  0  0  0  # atno 10765 bound_to 10752
  139.9605  134.7069  156.0656 H   0  0  0  0  0  0  0  0  0  0  0  0  # atno 11005 bound_to 11000
  144.7183  139.8119  143.7391 LP  0  0  0  0  0  0  0  0  0  0  0  0  # atno 17320 bound_to 7965
  146.1334  139.4375  143.0154 LP  0  0  0  0  0  0  0  0  0  0  0  0  # atno 17321 bound_to 7965
  139.5758  144.1822  152.1901 LP  0  0  0  0  0  0  0  0  0  0  0  0  # atno 17342 bound_to 10162
  140.1133  144.5438  150.6911 LP  0  0  0  0  0  0  0  0  0  0  0  0  # atno 17343 bound_to 10162
  157.0178  130.5662  149.5328 LP  0  0  0  0  0  0  0  0  0  0  0  0  # atno 17370 bound_to 10713
  156.0201  130.5296  150.8250 LP  0  0  0  0  0  0  0  0  0  0  0  0  # atno 17371 bound_to 10713
  141.1282  133.6593  156.3393 LP  0  0  0  0  0  0  0  0  0  0  0  0  # atno 17394 bound_to 11000
  140.5510  134.6027  157.5408 LP  0  0  0  0  0  0  0  0  0  0  0  0  # atno 17395 bound_to 11000

$$$$
