AV-unprocessed.smi:644|AV-procd|sdf|3155|dock10
  -GOLD-   22720 0 83D 1   1.00000     0.00000
 Structure written by MMmdl.
 37 39  0  0  0  0  0  0  0  0  1 V2000
  152.8114  143.3375  161.7179 C   0  0  0  0  0  0  0  0  0  0  0  0
  152.2446  142.9184  160.3730 C   0  0  0  0  0  0  0  0  0  0  0  0
  152.2975  141.5566  159.9995 C   0  0  0  0  0  0  0  0  0  0  0  0
  151.7791  141.1251  158.7590 C   0  0  0  0  0  0  0  0  0  0  0  0
  151.7233  139.8604  158.1987 N   0  0  0  0  0  0  0  0  0  0  0  0
  151.1277  140.1082  157.0357 C   0  0  0  0  0  0  0  0  0  0  0  0
  150.7871  141.3854  156.7773 N   0  0  0  0  0  0  0  0  0  0  0  0
  150.1312  141.8945  155.5857 C   0  0  0  0  0  0  0  0  0  0  0  0
  149.2708  140.8253  154.8858 C   0  0  2  0  0  0  0  0  0  0  0  0
  150.0407  140.1760  153.8916 O   0  0  0  0  0  0  0  0  0  0  0  0
  148.0158  141.4287  154.2357 C   0  0  0  0  0  0  0  0  0  0  0  0
  146.7470  141.8520  155.4644 S   0  0  0  0  0  0  0  0  0  0  0  0
  145.9443  143.1107  154.5417 C   0  0  0  0  0  0  0  0  0  0  0  0
  146.3399  143.5094  153.3267 N   0  0  0  0  0  0  0  0  0  0  0  0
  145.5319  144.5187  152.8187 N   0  0  0  0  0  0  0  0  0  0  0  0
  144.5584  144.8438  153.6739 C   0  0  0  0  0  0  0  0  0  0  0  0
  144.5336  143.9459  155.1806 S   0  0  0  0  0  0  0  0  0  0  0  0
  151.2030  142.1015  157.8945 C   0  0  0  0  0  0  0  0  0  0  0  0
  151.1460  143.4596  158.2539 C   0  0  0  0  0  0  0  0  0  0  0  0
  151.6666  143.8734  159.4980 C   0  0  0  0  0  0  0  0  0  0  0  0
  151.5971  145.3418  159.8789 C   0  0  0  0  0  0  0  0  0  0  0  0
  153.2359  142.4876  162.2530 H   0  0  0  0  0  0  0  0  0  0  0  0
  152.0303  143.7702  162.3434 H   0  0  0  0  0  0  0  0  0  0  0  0
  153.6011  144.0776  161.5869 H   0  0  0  0  0  0  0  0  0  0  0  0
  152.7368  140.8288  160.6658 H   0  0  0  0  0  0  0  0  0  0  0  0
  150.9226  139.3148  156.3319 H   0  0  0  0  0  0  0  0  0  0  0  0
  149.5143  142.7460  155.8756 H   0  0  0  0  0  0  0  0  0  0  0  0
  150.8919  142.2783  154.9041 H   0  0  0  0  0  0  0  0  0  0  0  0
  148.9663  140.0775  155.6190 H   0  0  0  0  0  0  0  0  0  0  0  0
  149.5875  140.2504  153.0657 H   0  0  0  0  0  0  0  0  0  0  0  0
  148.2769  142.3406  153.6972 H   0  0  0  0  0  0  0  0  0  0  0  0
  147.5966  140.7372  153.5037 H   0  0  0  0  0  0  0  0  0  0  0  0
  143.8508  145.6176  153.4156 H   0  0  0  0  0  0  0  0  0  0  0  0
  150.7032  144.1757  157.5775 H   0  0  0  0  0  0  0  0  0  0  0  0
  151.1000  145.9305  159.1075 H   0  0  0  0  0  0  0  0  0  0  0  0
  152.5994  145.7480  160.0163 H   0  0  0  0  0  0  0  0  0  0  0  0
  151.0404  145.4706  160.8074 H   0  0  0  0  0  0  0  0  0  0  0  0
  1  2  1  0  0  0  0
  1 22  1  0  0  0  0
  1 23  1  0  0  0  0
  1 24  1  0  0  0  0
  2 20  1  0  0  0  0
  2  3  2  0  0  0  0
  3  4  1  0  0  0  0
  3 25  1  0  0  0  0
  4 18  2  0  0  0  0
  4  5  1  0  0  0  0
  5  6  2  0  0  0  0
  6  7  1  0  0  0  0
  6 26  1  0  0  0  0
  7  8  1  0  0  0  0
  7 18  1  0  0  0  0
  8  9  1  0  0  0  0
  8 27  1  0  0  0  0
  8 28  1  0  0  0  0
  9 10  1  0  0  0  0
  9 11  1  0  0  0  0
  9 29  1  0  0  0  0
 10 30  1  0  0  0  0
 11 12  1  0  0  0  0
 11 31  1  0  0  0  0
 11 32  1  0  0  0  0
 12 13  1  0  0  0  0
 13 17  1  0  0  0  0
 13 14  2  0  0  0  0
 14 15  1  0  0  0  0
 15 16  2  0  0  0  0
 16 17  1  0  0  0  0
 16 33  1  0  0  0  0
 18 19  1  0  0  0  0
 19 20  2  0  0  0  0
 19 34  1  0  0  0  0
 20 21  1  0  0  0  0
 21 35  1  0  0  0  0
 21 36  1  0  0  0  0
 21 37  1  0  0  0  0
M  END
> <s_m_source_file>
AV-unprocessed.smi

> <i_m_source_file_index>
644

> <i_lp_mmshare_version>
43012

> <i_f3d_flags>
0

> <s_epik_input>
W0NIM11jKFtjSF0xKWMoW0NIM10pW2NIXWMoYzEyKW4oW2NIXW4yKVtDSDJdW0NASF0oW09IXSlbQ0gyXVNjM25uW2NIXXMz

> <s_epik_cmdline>
J2VwaWtfcHl0aG9uJywgJy1waCcsICc3LjAnLCAnLXRuJywgJzgnLCAnLW1hJywgJzIwMCcsICctbWV0YWxfYmluZGluZycsICctaW1hZScsICc8aW5maWxlLm1hZT4nLCAnLW9tYWUnLCAnPG91dGZpbGUubWFlPic=

> <r_lp_tautomer_probability>
1

> <r_epik_Ionization_Penalty>
0.105397

> <r_epik_Ionization_Penalty_Charging>
0

> <r_epik_Ionization_Penalty_Neutral>
0.105397

> <r_epik_State_Penalty>
0.0952713

> <r_epik_Charging_Adjusted_Penalty>
0.0952713

> <i_epik_Tot_Q>
0

> <i_epik_Tot_abs_Q>
0

> <r_epik_Metal_State_Penalty>
0.0807681

> <b_epik_Metal_Only>
0

> <s_lp_Force_Field>
OPLS_2005

> <r_lp_Energy>
9.27729

> <b_lp_Chiralities_Consistent>
1

> <s_lp_Variant>
AV-unprocessed.smi:644-1

> <Gold.Version>
5.8.1

> <Gold.Id.Protein>
6NUR|6NUR_protein|mol2

> <Gold.PLP.Fitness>
50.6157

> <Gold.PLP.PLP>
-47.2245

> <Gold.PLP.part.hbond>
-4.0000

> <Gold.PLP.part.metal>
0.0000

> <Gold.PLP.part.buried>
-3.5363

> <Gold.PLP.part.nonpolar>
-40.6208

> <Gold.PLP.part.repulsive>
0.4172

> <Gold.PLP.ligand.clash>
0.0000

> <Gold.PLP.ligand.torsion>
1.0739

> <Gold.PLP.Chemscore.Hbond>
1.8320

> <Gold.PLP.Chemscore.CHOScore>
0.0000

> <Gold.PLP.Chemscore.Metal>
0.0000

> <Gold.Chemscore.Hbonds>
donor molecule, donor type, donor heavy atom, donor atom, acceptor molecule, acceptor atom, score
      L1  H    10    30       P1  7957  0.98
      P1  H  7989  7998       L1    10  0.82

> <Gold.PLP.Chemscore.Internal.Correction>
0.0431

> <Gold.Rescore>
     Score         DG    S(hbond)    S(metal)    S(lipo)     H(rot)  DE(clash)    DE(int)     intcor
     16.42     -17.55       1.27        0.00     120.77       2.46       0.03       1.10       ----

> <Gold.Chemscore.Fitness>
16.4199

> <Gold.Chemscore.DG>
-17.5529

> <Gold.Chemscore.ZeroCoef>
-5.4800

> <Gold.Chemscore.Hbond>
1.2685

> <Gold.Chemscore.Metal>
0.0000

> <Gold.Chemscore.Lipo>
120.7739

> <Gold.Chemscore.Internal_Hbond>
0.0000

> <Gold.Chemscore.DEClash>
0.0341

> <Gold.Chemscore.DEInternal>
1.0989

> <Gold.Chemscore.Rot>
2.4588

> <Gold.Chemscore.Internal.Correction>
   9.000000E+99

> <Gold.Chemscore.Hbonds>
donor molecule, donor type, donor heavy atom, donor atom, acceptor molecule, acceptor atom, score
      L1  H    10    30       P1  7957  0.92
      P1  H  7989  7998       L1    10  0.20

> <Gold.Chemscore.Hbond.Weighted>
-4.2369

> <Gold.Chemscore.Metal.Weighted>
-0.0000

> <Gold.Chemscore.Lipo.Weighted>
-14.1305

> <Gold.Chemscore.Internal_Hbond.Weighted>
0.0000

> <Gold.Chemscore.DEClash.Weighted>
0.0341

> <Gold.Chemscore.DEInternal.Weighted>
1.0989

> <Gold.Chemscore.Rot.Weighted>
6.2946

> <Gold.Chemscore.Internal.Correction.Weighted>
   9.000000E+99

> <Gold.Protein.RotatedTorsions>
[ 6907 6896 6895 6894 ] final -134.72 input  -60.11 | X-H torsion
[ 7974 7965 7964 7962 ] final  -27.29 input  175.53 | X-H torsion
[ 8008 7997 7996 7995 ] final -167.44 input   59.86 | X-H torsion
[ 10167 10162 10161 10158 ] final -146.89 input  -65.29 | X-H torsion
[ 10718 10713 10712 10709 ] final   51.52 input   66.30 | X-H torsion
[ 10763 10752 10751 10750 ] final   16.58 input  -60.55 | X-H torsion
[ 11005 11000 10999 10996 ] final  -71.44 input  -57.11 | X-H torsion

> <Gold.Protein.ActiveResidues>
 VAL166  LYS551  ARG553  GLY616  TRP617  ASP618  TYR619  PRO620  LYS621  CYS622 
 ASP623  PHE694  ASN695  SER759  ASP760  ASP761  ALA762  ILE779  LEU786  VAL792 
 PHE793  MET794  SER795  GLU796  ALA797  LYS798  CYS799  TRP800  GLU811  SER814 

> <Gold.Protein.RotatedAtoms>
  150.9892  133.6167  159.2710 H   0  0  0  0  0  0  0  0  0  0  0  0  # atno 6907 bound_to 6896
  151.3394  135.0859  159.9375 H   0  0  0  0  0  0  0  0  0  0  0  0  # atno 6908 bound_to 6896
  152.5240  133.9506  159.7724 H   0  0  0  0  0  0  0  0  0  0  0  0  # atno 6909 bound_to 6896
  146.1368  140.5132  142.8669 H   0  0  0  0  0  0  0  0  0  0  0  0  # atno 7974 bound_to 7965
  155.8777  140.1004  157.1507 H   0  0  0  0  0  0  0  0  0  0  0  0  # atno 8008 bound_to 7997
  154.4002  140.1335  156.4220 H   0  0  0  0  0  0  0  0  0  0  0  0  # atno 8009 bound_to 7997
  155.7679  140.3461  155.5234 H   0  0  0  0  0  0  0  0  0  0  0  0  # atno 8010 bound_to 7997
  139.7672  143.8291  152.2618 H   0  0  0  0  0  0  0  0  0  0  0  0  # atno 10167 bound_to 10162
  157.4988  130.8424  149.8291 H   0  0  0  0  0  0  0  0  0  0  0  0  # atno 10718 bound_to 10713
  153.1418  135.6761  153.9016 H   0  0  0  0  0  0  0  0  0  0  0  0  # atno 10763 bound_to 10752
  153.8470  135.3098  155.3431 H   0  0  0  0  0  0  0  0  0  0  0  0  # atno 10764 bound_to 10752
  154.7793  135.4897  153.9895 H   0  0  0  0  0  0  0  0  0  0  0  0  # atno 10765 bound_to 10752
  141.1592  133.6817  156.6906 H   0  0  0  0  0  0  0  0  0  0  0  0  # atno 11005 bound_to 11000
  144.7748  140.5716  143.6645 LP  0  0  0  0  0  0  0  0  0  0  0  0  # atno 17320 bound_to 7965
  145.5138  139.1478  143.3590 LP  0  0  0  0  0  0  0  0  0  0  0  0  # atno 17321 bound_to 7965
  139.8314  144.7252  150.9445 LP  0  0  0  0  0  0  0  0  0  0  0  0  # atno 17342 bound_to 10162
  140.7811  143.4066  151.1061 LP  0  0  0  0  0  0  0  0  0  0  0  0  # atno 17343 bound_to 10162
  156.0217  130.3793  150.1943 LP  0  0  0  0  0  0  0  0  0  0  0  0  # atno 17370 bound_to 10713
  157.0133  130.9957  151.3360 LP  0  0  0  0  0  0  0  0  0  0  0  0  # atno 17371 bound_to 10713
  140.3033  134.8146  157.4116 LP  0  0  0  0  0  0  0  0  0  0  0  0  # atno 17394 bound_to 11000
  140.1243  134.5179  155.8158 LP  0  0  0  0  0  0  0  0  0  0  0  0  # atno 17395 bound_to 11000

$$$$
