AV-unprocessed.smi:207|AV-procd|sdf|1603|dock5
  -GOLD-   2262019513D 1   1.00000     0.00000
 Structure written by MMmdl.
 56 59  0  0  0  0  0  0  0  0  2 V2000
  146.3312  131.5298  154.2136 C   0  0  0  0  0  0  0  0  0  0  0  0
  147.3988  131.2686  153.1250 C   0  0  0  0  0  0  0  0  0  0  0  0
  148.4600  132.3921  153.1781 C   0  0  0  0  0  0  0  0  0  0  0  0
  148.1551  129.9545  153.4505 C   0  0  0  0  0  0  0  0  0  0  0  0
  147.3517  128.7636  153.1943 N   0  0  0  0  0  0  0  0  0  0  0  0
  147.7527  127.6293  153.8236 C   0  0  0  0  0  0  0  0  0  0  0  0
  149.0595  127.2821  153.6956 N   0  0  0  0  0  0  0  0  0  0  0  0
  149.5292  126.1791  154.2839 C   0  0  0  0  0  0  0  0  0  0  0  0
  148.8740  125.2920  155.0330 N   0  0  0  0  0  0  0  0  0  0  0  0
  147.5612  125.6311  155.1711 C   0  0  0  0  0  0  0  0  0  0  0  0
  146.9203  126.7720  154.6055 C   0  0  0  0  0  0  0  0  0  0  0  0
  145.5731  126.7658  154.9516 N   0  0  0  0  0  0  0  0  0  0  0  0
  145.4284  125.6908  155.6763 C   0  0  0  0  0  0  0  0  0  0  0  0
  146.5747  124.9536  155.8674 N   0  0  0  0  0  0  0  0  0  0  0  0
  146.6948  123.7115  156.6178 C   0  0  0  0  0  0  0  0  0  0  0  0
  145.3669  123.1879  157.1983 C   0  0  0  0  0  0  0  0  0  0  0  0
  144.8313  124.2129  158.2189 C   0  0  0  0  0  0  0  0  0  0  0  0
  143.6041  123.8134  158.7963 O   0  0  0  0  0  0  0  0  0  0  0  0
  144.3613  122.6789  156.1545 C   0  0  0  0  0  0  0  0  0  0  0  0
  144.1754  121.4339  156.8632 O   0  0  0  0  0  0  0  0  0  0  0  0
  145.3492  121.7217  157.6542 C   0  0  0  0  0  0  0  0  0  0  0  0
  146.8135  128.6770  151.8468 C   0  0  0  0  0  0  0  0  0  0  0  0
  146.0042  129.9361  151.5189 C   0  0  0  0  0  0  0  0  0  0  0  0
  146.7839  131.1847  151.7540 N   0  3  1  0  0  0  0  0  0  0  0  0
  146.0279  132.3915  151.3116 C   0  0  0  0  0  0  0  0  0  0  0  0
  145.4499  132.2201  149.8973 C   0  0  0  0  0  0  0  0  0  0  0  0
  144.5365  133.2611  149.6230 O   0  0  0  0  0  0  0  0  0  0  0  0
  146.7886  131.5791  155.2025 H   0  0  0  0  0  0  0  0  0  0  0  0
  145.5804  130.7407  154.2510 H   0  0  0  0  0  0  0  0  0  0  0  0
  145.8091  132.4739  154.0575 H   0  0  0  0  0  0  0  0  0  0  0  0
  149.0289  132.3478  154.1079 H   0  0  0  0  0  0  0  0  0  0  0  0
  148.0310  133.3920  153.1355 H   0  0  0  0  0  0  0  0  0  0  0  0
  149.1736  132.3027  152.3581 H   0  0  0  0  0  0  0  0  0  0  0  0
  149.0495  129.8809  152.8296 H   0  0  0  0  0  0  0  0  0  0  0  0
  148.5066  129.9827  154.4827 H   0  0  0  0  0  0  0  0  0  0  0  0
  150.5798  125.9785  154.1329 H   0  0  0  0  0  0  0  0  0  0  0  0
  144.4749  125.4057  156.0969 H   0  0  0  0  0  0  0  0  0  0  0  0
  147.1428  122.9626  155.9634 H   0  0  0  0  0  0  0  0  0  0  0  0
  147.4223  123.8743  157.4142 H   0  0  0  0  0  0  0  0  0  0  0  0
  145.5380  124.3572  159.0359 H   0  0  0  0  0  0  0  0  0  0  0  0
  144.6816  125.1869  157.7518 H   0  0  0  0  0  0  0  0  0  0  0  0
  143.6212  124.0270  159.7170 H   0  0  0  0  0  0  0  0  0  0  0  0
  143.4455  123.2665  156.0823 H   0  0  0  0  0  0  0  0  0  0  0  0
  144.7928  122.5174  155.1652 H   0  0  0  0  0  0  0  0  0  0  0  0
  146.2053  121.1368  157.3173 H   0  0  0  0  0  0  0  0  0  0  0  0
  145.1823  121.5867  158.7234 H   0  0  0  0  0  0  0  0  0  0  0  0
  147.6344  128.5684  151.1367 H   0  0  0  0  0  0  0  0  0  0  0  0
  146.1740  127.7990  151.7481 H   0  0  0  0  0  0  0  0  0  0  0  0
  145.6819  129.8823  150.4797 H   0  0  0  0  0  0  0  0  0  0  0  0
  145.0945  129.9526  152.1204 H   0  0  0  0  0  0  0  0  0  0  0  0
  145.2245  132.5961  152.0209 H   0  0  0  0  0  0  0  0  0  0  0  0
  146.6438  133.2877  151.3108 H   0  0  0  0  0  0  0  0  0  0  0  0
  146.2266  132.2028  149.1335 H   0  0  0  0  0  0  0  0  0  0  0  0
  144.9174  131.2713  149.8284 H   0  0  0  0  0  0  0  0  0  0  0  0
  144.9884  133.9416  149.1468 H   0  0  0  0  0  0  0  0  0  0  0  0
  147.5765  131.1302  151.1299 H   0  0  0  0  0  0  0  0  0  0  0  0
  1  2  1  0  0  0  0
  1 28  1  0  0  0  0
  1 29  1  0  0  0  0
  1 30  1  0  0  0  0
  2 24  1  0  0  0  0
  2  3  1  0  0  0  0
  2  4  1  0  0  0  0
  3 31  1  0  0  0  0
  3 32  1  0  0  0  0
  3 33  1  0  0  0  0
  4  5  1  0  0  0  0
  4 34  1  0  0  0  0
  4 35  1  0  0  0  0
  5  6  1  0  0  0  0
  5 22  1  0  0  0  0
  6 11  1  0  0  0  0
  6  7  2  0  0  0  0
  7  8  1  0  0  0  0
  8  9  2  0  0  0  0
  8 36  1  0  0  0  0
  9 10  1  0  0  0  0
 10 14  1  0  0  0  0
 10 11  2  0  0  0  0
 11 12  1  0  0  0  0
 12 13  2  0  0  0  0
 13 14  1  0  0  0  0
 13 37  1  0  0  0  0
 14 15  1  0  0  0  0
 15 16  1  0  0  0  0
 15 38  1  0  0  0  0
 15 39  1  0  0  0  0
 16 21  1  0  0  0  0
 16 17  1  0  0  0  0
 16 19  1  0  0  0  0
 17 18  1  0  0  0  0
 17 40  1  0  0  0  0
 17 41  1  0  0  0  0
 18 42  1  0  0  0  0
 19 20  1  0  0  0  0
 19 43  1  0  0  0  0
 19 44  1  0  0  0  0
 20 21  1  0  0  0  0
 21 45  1  0  0  0  0
 21 46  1  0  0  0  0
 22 23  1  0  0  0  0
 22 47  1  0  0  0  0
 22 48  1  0  0  0  0
 23 24  1  0  0  0  0
 23 49  1  0  0  0  0
 23 50  1  0  0  0  0
 24 25  1  0  0  0  0
 24 56  1  0  0  0  0
 25 26  1  0  0  0  0
 25 51  1  0  0  0  0
 25 52  1  0  0  0  0
 26 27  1  0  0  0  0
 26 53  1  0  0  0  0
 26 54  1  0  0  0  0
 27 55  1  0  0  0  0
M  CHG  1  24   1
M  END
> <s_m_source_file>
AV-unprocessed.smi

> <i_m_source_file_index>
207

> <i_lp_mmshare_version>
43012

> <i_f3d_flags>
0

> <s_epik_input>
W09IXVtDSDJdW0NIMl1OMVtDSDJdW0NIMl1OKFtDSDJdQzEoW0NIM10pW0NIM10pYyhuW2NIXW4yKWMoYzIzKW5bY0hdbjNbQ0gyXUM0KFtDSDJdW09IXSlbQ0gyXU9bQ0gyXTQ=

> <s_epik_cmdline>
J2VwaWtfcHl0aG9uJywgJy1waCcsICc3LjAnLCAnLXRuJywgJzgnLCAnLW1hJywgJzIwMCcsICctbWV0YWxfYmluZGluZycsICctaW1hZScsICc8aW5maWxlLm1hZT4nLCAnLW9tYWUnLCAnPG91dGZpbGUubWFlPic=

> <r_lp_tautomer_probability>
1

> <r_epik_Ionization_Penalty>
0.416568

> <r_epik_Ionization_Penalty_Charging>
0.416506

> <r_epik_Ionization_Penalty_Neutral>
6.2219e-05

> <r_epik_State_Penalty>
0.419386

> <r_epik_Charging_Adjusted_Penalty>
0.835892

> <i_epik_Tot_Q>
1

> <i_epik_Tot_abs_Q>
1

> <r_epik_Metal_State_Penalty>
0.420232

> <b_epik_Metal_Only>
0

> <s_lp_Force_Field>
OPLS_2005

> <r_lp_Energy>
56.8459

> <b_lp_Chiralities_Consistent>
1

> <s_lp_Variant>
AV-unprocessed.smi:207-2

> <Gold.Version>
5.8.1

> <Gold.Id.Protein>
6NUR|6NUR_protein|mol2

> <Gold.PLP.Fitness>
40.2121

> <Gold.PLP.PLP>
-34.6924

> <Gold.PLP.part.hbond>
-4.2872

> <Gold.PLP.part.metal>
0.0000

> <Gold.PLP.part.buried>
-6.5133

> <Gold.PLP.part.nonpolar>
-25.2659

> <Gold.PLP.part.repulsive>
0.2783

> <Gold.PLP.ligand.clash>
0.0000

> <Gold.PLP.ligand.torsion>
0.6865

> <Gold.PLP.Chemscore.Hbond>
2.0000

> <Gold.PLP.Chemscore.CHOScore>
0.0000

> <Gold.PLP.Chemscore.Metal>
0.0000

> <Gold.Chemscore.Hbonds>
donor molecule, donor type, donor heavy atom, donor atom, acceptor molecule, acceptor atom, score
      L1  H    24    56       P1 10747  1.00
      L1  H    27    55       P1  7921  0.86

> <Gold.PLP.Chemscore.Internal.Correction>
0.8926

> <Gold.Rescore>
     Score         DG    S(hbond)    S(metal)    S(lipo)     H(rot)  DE(clash)    DE(int)     intcor
      9.69     -10.60       1.97        0.00      70.63       3.80       0.08       0.84       ----

> <Gold.Chemscore.Fitness>
9.6885

> <Gold.Chemscore.DG>
-10.6046

> <Gold.Chemscore.ZeroCoef>
-5.4800

> <Gold.Chemscore.Hbond>
1.9724

> <Gold.Chemscore.Metal>
0.0000

> <Gold.Chemscore.Lipo>
70.6319

> <Gold.Chemscore.Internal_Hbond>
0.0000

> <Gold.Chemscore.DEClash>
0.0782

> <Gold.Chemscore.DEInternal>
0.8379

> <Gold.Chemscore.Rot>
3.7997

> <Gold.Chemscore.Internal.Correction>
   9.000000E+99

> <Gold.Chemscore.Hbonds>
donor molecule, donor type, donor heavy atom, donor atom, acceptor molecule, acceptor atom, score
      L1  H    24    56       P1 10747  1.00
      L1  H    27    55       P1  7921  0.81

> <Gold.Chemscore.Hbond.Weighted>
-6.5879

> <Gold.Chemscore.Metal.Weighted>
-0.0000

> <Gold.Chemscore.Lipo.Weighted>
-8.2639

> <Gold.Chemscore.Internal_Hbond.Weighted>
0.0000

> <Gold.Chemscore.DEClash.Weighted>
0.0782

> <Gold.Chemscore.DEInternal.Weighted>
0.8379

> <Gold.Chemscore.Rot.Weighted>
9.7273

> <Gold.Chemscore.Internal.Correction.Weighted>
   9.000000E+99

> <Gold.Protein.RotatedTorsions>
[ 6907 6896 6895 6894 ] final  -18.34 input  -60.11 | X-H torsion
[ 7974 7965 7964 7962 ] final   95.66 input  175.53 | X-H torsion
[ 8008 7997 7996 7995 ] final  -87.94 input   59.86 | X-H torsion
[ 10167 10162 10161 10158 ] final   46.45 input  -65.29 | X-H torsion
[ 10718 10713 10712 10709 ] final -128.14 input   66.30 | X-H torsion
[ 10763 10752 10751 10750 ] final   -1.84 input  -60.55 | X-H torsion
[ 11005 11000 10999 10996 ] final  103.95 input  -57.11 | X-H torsion

> <Gold.Protein.ActiveResidues>
 VAL166  LYS551  ARG553  GLY616  TRP617  ASP618  TYR619  PRO620  LYS621  CYS622 
 ASP623  PHE694  ASN695  SER759  ASP760  ASP761  ALA762  ILE779  LEU786  VAL792 
 PHE793  MET794  SER795  GLU796  ALA797  LYS798  CYS799  TRP800  GLU811  SER814 

> <Gold.Protein.RotatedAtoms>
  151.2797  135.0710  159.9164 H   0  0  0  0  0  0  0  0  0  0  0  0  # atno 6907 bound_to 6896
  152.5336  134.0044  159.7920 H   0  0  0  0  0  0  0  0  0  0  0  0  # atno 6908 bound_to 6896
  151.0296  133.5752  159.2693 H   0  0  0  0  0  0  0  0  0  0  0  0  # atno 6909 bound_to 6896
  145.4492  139.2294  143.3049 H   0  0  0  0  0  0  0  0  0  0  0  0  # atno 7974 bound_to 7965
  154.6691  140.0559  157.0146 H   0  0  0  0  0  0  0  0  0  0  0  0  # atno 8008 bound_to 7997
  155.1115  140.3239  155.4502 H   0  0  0  0  0  0  0  0  0  0  0  0  # atno 8009 bound_to 7997
  156.2650  140.2013  156.6239 H   0  0  0  0  0  0  0  0  0  0  0  0  # atno 8010 bound_to 7997
  140.3138  144.2789  150.6195 H   0  0  0  0  0  0  0  0  0  0  0  0  # atno 10167 bound_to 10162
  156.1922  130.6803  151.0438 H   0  0  0  0  0  0  0  0  0  0  0  0  # atno 10718 bound_to 10713
  153.3502  135.6985  153.6795 H   0  0  0  0  0  0  0  0  0  0  0  0  # atno 10763 bound_to 10752
  153.5525  135.3551  155.2766 H   0  0  0  0  0  0  0  0  0  0  0  0  # atno 10764 bound_to 10752
  154.8652  135.4230  154.2736 H   0  0  0  0  0  0  0  0  0  0  0  0  # atno 10765 bound_to 10752
  139.8788  134.9282  156.5288 H   0  0  0  0  0  0  0  0  0  0  0  0  # atno 11005 bound_to 11000
  146.2514  140.5249  142.8892 LP  0  0  0  0  0  0  0  0  0  0  0  0  # atno 17320 bound_to 7965
  144.8072  140.6321  143.6439 LP  0  0  0  0  0  0  0  0  0  0  0  0  # atno 17321 bound_to 7965
  140.5545  143.2201  151.7871 LP  0  0  0  0  0  0  0  0  0  0  0  0  # atno 17342 bound_to 10162
  139.4888  144.4432  151.9740 LP  0  0  0  0  0  0  0  0  0  0  0  0  # atno 17343 bound_to 10162
  157.6936  131.0801  150.7035 LP  0  0  0  0  0  0  0  0  0  0  0  0  # atno 17370 bound_to 10713
  156.7092  130.4646  149.5552 LP  0  0  0  0  0  0  0  0  0  0  0  0  # atno 17371 bound_to 10713
  140.8396  133.8215  155.9062 LP  0  0  0  0  0  0  0  0  0  0  0  0  # atno 17394 bound_to 11000
  140.9250  134.2093  157.4901 LP  0  0  0  0  0  0  0  0  0  0  0  0  # atno 17395 bound_to 11000

$$$$
