AV-unprocessed.smi:1978|AV-procd|sdf|7996|dock8
  -GOLD-   2272010183D 1   1.00000     0.00000
 Structure written by MMmdl.
 45 46  0  0  0  0  0  0  0  0  2 V2000
  153.7204  141.0988  160.8296 C   0  0  0  0  0  0  0  0  0  0  0  0
  152.6103  141.6224  159.9844 C   0  0  0  0  0  0  0  0  0  0  0  0
  152.3376  141.5362  158.6481 C   0  0  0  0  0  0  0  0  0  0  0  0
  151.1255  142.2658  158.5217 C   0  0  0  0  0  0  0  0  0  0  0  0
  150.4962  142.4204  157.2603 N   0  0  0  0  0  0  0  0  0  0  0  0
  150.1182  141.4496  156.4114 C   0  0  0  0  0  0  0  0  0  0  0  0
  150.2719  140.2425  156.5997 O   0  0  0  0  0  0  0  0  0  0  0  0
  149.5304  141.9580  155.3178 N   0  0  0  0  0  0  0  0  0  0  0  0
  148.9998  141.1766  154.2029 C   0  0  0  0  0  0  0  0  0  0  0  0
  147.5915  140.6016  154.4968 C   0  0  2  0  0  0  0  0  0  0  0  0
  147.0143  139.7550  153.3406 C   0  0  0  0  0  0  0  0  0  0  0  0
  146.6499  141.6798  154.9446 N   0  3  1  0  0  0  0  0  0  0  0  0
  146.2787  142.6382  153.8608 C   0  0  0  0  0  0  0  0  0  0  0  0
  145.5510  143.8678  154.4214 C   0  0  0  0  0  0  0  0  0  0  0  0
  144.2954  143.4430  155.1848 C   0  0  0  0  0  0  0  0  0  0  0  0
  144.6732  142.4351  156.2746 C   0  0  0  0  0  0  0  0  0  0  0  0
  145.4368  141.2198  155.7018 C   0  0  2  0  0  0  0  0  0  0  0  0
  145.7533  140.2460  156.8557 C   0  0  0  0  0  0  0  0  0  0  0  0
  150.6962  142.7513  159.6764 N   0  0  0  0  0  0  0  0  0  0  0  0
  151.6454  142.3411  160.6197 O   0  0  0  0  0  0  0  0  0  0  0  0
  154.4132  140.5006  160.2377 H   0  0  0  0  0  0  0  0  0  0  0  0
  153.3322  140.4714  161.6320 H   0  0  0  0  0  0  0  0  0  0  0  0
  154.2810  141.9177  161.2805 H   0  0  0  0  0  0  0  0  0  0  0  0
  152.9153  141.0336  157.8868 H   0  0  0  0  0  0  0  0  0  0  0  0
  150.3034  143.3710  156.9812 H   0  0  0  0  0  0  0  0  0  0  0  0
  149.4474  142.9619  155.2494 H   0  0  0  0  0  0  0  0  0  0  0  0
  148.9482  141.8391  153.3383 H   0  0  0  0  0  0  0  0  0  0  0  0
  149.7099  140.3944  153.9369 H   0  0  0  0  0  0  0  0  0  0  0  0
  147.7611  139.9234  155.3292 H   0  0  0  0  0  0  0  0  0  0  0  0
  147.6267  138.8734  153.1525 H   0  0  0  0  0  0  0  0  0  0  0  0
  146.9668  140.3194  152.4092 H   0  0  0  0  0  0  0  0  0  0  0  0
  146.0117  139.3933  153.5660 H   0  0  0  0  0  0  0  0  0  0  0  0
  147.1573  142.9830  153.3195 H   0  0  0  0  0  0  0  0  0  0  0  0
  145.6376  142.1426  153.1307 H   0  0  0  0  0  0  0  0  0  0  0  0
  146.2181  144.4244  155.0813 H   0  0  0  0  0  0  0  0  0  0  0  0
  145.2808  144.5440  153.6100 H   0  0  0  0  0  0  0  0  0  0  0  0
  143.8088  144.3134  155.6259 H   0  0  0  0  0  0  0  0  0  0  0  0
  143.5759  142.9947  154.4982 H   0  0  0  0  0  0  0  0  0  0  0  0
  145.2852  142.9311  157.0297 H   0  0  0  0  0  0  0  0  0  0  0  0
  143.7674  142.1036  156.7839 H   0  0  0  0  0  0  0  0  0  0  0  0
  144.7728  140.7062  155.0050 H   0  0  0  0  0  0  0  0  0  0  0  0
  144.8708  140.0753  157.4730 H   0  0  0  0  0  0  0  0  0  0  0  0
  146.5367  140.6363  157.5061 H   0  0  0  0  0  0  0  0  0  0  0  0
  146.0597  139.2643  156.4956 H   0  0  0  0  0  0  0  0  0  0  0  0
  147.1812  142.2185  155.6136 H   0  0  0  0  0  0  0  0  0  0  0  0
  1  2  1  0  0  0  0
  1 21  1  0  0  0  0
  1 22  1  0  0  0  0
  1 23  1  0  0  0  0
  2 20  1  0  0  0  0
  2  3  2  0  0  0  0
  3  4  1  0  0  0  0
  3 24  1  0  0  0  0
  4  5  1  0  0  0  0
  4 19  2  0  0  0  0
  5  6  1  0  0  0  0
  5 25  1  0  0  0  0
  6  7  2  0  0  0  0
  6  8  1  0  0  0  0
  8  9  1  0  0  0  0
  8 26  1  0  0  0  0
  9 10  1  0  0  0  0
  9 27  1  0  0  0  0
  9 28  1  0  0  0  0
 10 11  1  0  0  0  0
 10 12  1  0  0  0  0
 10 29  1  0  0  0  0
 11 30  1  0  0  0  0
 11 31  1  0  0  0  0
 11 32  1  0  0  0  0
 12 17  1  0  0  0  0
 12 13  1  0  0  0  0
 12 45  1  0  0  0  0
 13 14  1  0  0  0  0
 13 33  1  0  0  0  0
 13 34  1  0  0  0  0
 14 15  1  0  0  0  0
 14 35  1  0  0  0  0
 14 36  1  0  0  0  0
 15 16  1  0  0  0  0
 15 37  1  0  0  0  0
 15 38  1  0  0  0  0
 16 17  1  0  0  0  0
 16 39  1  0  0  0  0
 16 40  1  0  0  0  0
 17 18  1  0  0  0  0
 17 41  1  0  0  0  0
 18 42  1  0  0  0  0
 18 43  1  0  0  0  0
 18 44  1  0  0  0  0
 19 20  1  0  0  0  0
M  CHG  1  12   1
M  END
> <s_m_source_file>
AV-unprocessed.smi

> <i_m_source_file_index>
1978

> <i_lp_mmshare_version>
43012

> <i_f3d_flags>
0

> <s_epik_input>
W0NIM11jMVtjSF1jKG5vMSlbTkhdQyg9TylbTkhdW0NIMl1bQ0BIXShbQ0gzXSlOMltDSDJdW0NIMl1bQ0gyXVtDSDJdW0NASF0yW0NIM10=

> <s_epik_cmdline>
J2VwaWtfcHl0aG9uJywgJy1waCcsICc3LjAnLCAnLXRuJywgJzgnLCAnLW1hJywgJzIwMCcsICctbWV0YWxfYmluZGluZycsICctaW1hZScsICc8aW5maWxlLm1hZT4nLCAnLW9tYWUnLCAnPG91dGZpbGUubWFlPic=

> <r_epik_Ionization_Penalty>
0.00265971

> <r_epik_Ionization_Penalty_Charging>
0.00262393

> <r_epik_Ionization_Penalty_Neutral>
3.57846e-05

> <r_epik_State_Penalty>
0.00182566

> <r_epik_Charging_Adjusted_Penalty>
0.00444959

> <i_epik_Tot_Q>
1

> <i_epik_Tot_abs_Q>
1

> <r_epik_Metal_State_Penalty>
0.0216344

> <b_epik_Metal_Only>
0

> <s_lp_Force_Field>
OPLS_2005

> <r_lp_Energy>
21.464

> <b_lp_Chiralities_Consistent>
1

> <s_lp_Variant>
AV-unprocessed.smi:1978-5

> <Gold.Version>
5.8.1

> <Gold.Id.Protein>
6NUR|6NUR_protein|mol2

> <Gold.PLP.Fitness>
39.8570

> <Gold.PLP.PLP>
-35.7041

> <Gold.PLP.part.hbond>
-3.4354

> <Gold.PLP.part.metal>
0.0000

> <Gold.PLP.part.buried>
-6.5374

> <Gold.PLP.part.nonpolar>
-26.5353

> <Gold.PLP.part.repulsive>
0.3917

> <Gold.PLP.ligand.clash>
0.0000

> <Gold.PLP.ligand.torsion>
0.8260

> <Gold.PLP.Chemscore.Hbond>
1.8960

> <Gold.PLP.Chemscore.CHOScore>
0.0000

> <Gold.PLP.Chemscore.Metal>
0.0000

> <Gold.Chemscore.Hbonds>
donor molecule, donor type, donor heavy atom, donor atom, acceptor molecule, acceptor atom, score
      L1  H     5    25       P1  8028  0.17
      L1  H     8    26       P1  8028  1.00
      P1  H  6933  6945       L1    20  0.03

> <Gold.PLP.Chemscore.Internal.Correction>
0.1168

> <Gold.Rescore>
     Score         DG    S(hbond)    S(metal)    S(lipo)     H(rot)  DE(clash)    DE(int)     intcor
     15.64     -16.42       1.90        0.00      73.01       1.55       0.08       0.70       ----

> <Gold.Chemscore.Fitness>
15.6388

> <Gold.Chemscore.DG>
-16.4155

> <Gold.Chemscore.ZeroCoef>
-5.4800

> <Gold.Chemscore.Hbond>
1.9024

> <Gold.Chemscore.Metal>
0.0000

> <Gold.Chemscore.Lipo>
73.0139

> <Gold.Chemscore.Internal_Hbond>
0.0000

> <Gold.Chemscore.DEClash>
0.0767

> <Gold.Chemscore.DEInternal>
0.7000

> <Gold.Chemscore.Rot>
1.5474

> <Gold.Chemscore.Internal.Correction>
   9.000000E+99

> <Gold.Chemscore.Hbonds>
donor molecule, donor type, donor heavy atom, donor atom, acceptor molecule, acceptor atom, score
      L1  H     5    25       P1  8028  0.19
      L1  H     8    26       P1  8028  0.99

> <Gold.Chemscore.Hbond.Weighted>
-6.3541

> <Gold.Chemscore.Metal.Weighted>
-0.0000

> <Gold.Chemscore.Lipo.Weighted>
-8.5426

> <Gold.Chemscore.Internal_Hbond.Weighted>
0.0000

> <Gold.Chemscore.DEClash.Weighted>
0.0767

> <Gold.Chemscore.DEInternal.Weighted>
0.7000

> <Gold.Chemscore.Rot.Weighted>
3.9612

> <Gold.Chemscore.Internal.Correction.Weighted>
   9.000000E+99

> <Gold.Protein.RotatedTorsions>
[ 6907 6896 6895 6894 ] final   42.00 input  -60.11 | X-H torsion
[ 7974 7965 7964 7962 ] final  -80.22 input  175.53 | X-H torsion
[ 8008 7997 7996 7995 ] final  148.05 input   59.86 | X-H torsion
[ 10167 10162 10161 10158 ] final    5.73 input  -65.29 | X-H torsion
[ 10718 10713 10712 10709 ] final  115.49 input   66.30 | X-H torsion
[ 10763 10752 10751 10750 ] final   50.03 input  -60.55 | X-H torsion
[ 11005 11000 10999 10996 ] final  123.75 input  -57.11 | X-H torsion

> <Gold.Protein.ActiveResidues>
 VAL166  LYS551  ARG553  GLY616  TRP617  ASP618  TYR619  PRO620  LYS621  CYS622 
 ASP623  PHE694  ASN695  SER759  ASP760  ASP761  ALA762  ILE779  LEU786  VAL792 
 PHE793  MET794  SER795  GLU796  ALA797  LYS798  CYS799  TRP800  GLU811  SER814 

> <Gold.Protein.RotatedAtoms>
  152.2024  134.8576  160.0506 H   0  0  0  0  0  0  0  0  0  0  0  0  # atno 6907 bound_to 6896
  151.9424  133.3637  159.3978 H   0  0  0  0  0  0  0  0  0  0  0  0  # atno 6908 bound_to 6896
  150.6957  134.4349  159.5309 H   0  0  0  0  0  0  0  0  0  0  0  0  # atno 6909 bound_to 6896
  145.5628  140.9479  143.1438 H   0  0  0  0  0  0  0  0  0  0  0  0  # atno 7974 bound_to 7965
  156.2804  140.2139  156.5636 H   0  0  0  0  0  0  0  0  0  0  0  0  # atno 8008 bound_to 7997
  154.7193  140.0505  157.0647 H   0  0  0  0  0  0  0  0  0  0  0  0  # atno 8009 bound_to 7997
  155.0500  140.3155  155.4698 H   0  0  0  0  0  0  0  0  0  0  0  0  # atno 8010 bound_to 7997
  140.6466  143.7646  150.7509 H   0  0  0  0  0  0  0  0  0  0  0  0  # atno 10167 bound_to 10162
  157.6219  131.1013  150.7337 H   0  0  0  0  0  0  0  0  0  0  0  0  # atno 10718 bound_to 10713
  152.9785  135.5892  154.4186 H   0  0  0  0  0  0  0  0  0  0  0  0  # atno 10763 bound_to 10752
  154.3813  135.2767  155.2211 H   0  0  0  0  0  0  0  0  0  0  0  0  # atno 10764 bound_to 10752
  154.4124  135.6078  153.6015 H   0  0  0  0  0  0  0  0  0  0  0  0  # atno 10765 bound_to 10752
  139.9327  134.9641  156.8306 H   0  0  0  0  0  0  0  0  0  0  0  0  # atno 11005 bound_to 11000
  144.7475  139.7282  143.7286 LP  0  0  0  0  0  0  0  0  0  0  0  0  # atno 17320 bound_to 7965
  146.1839  139.5045  142.9849 LP  0  0  0  0  0  0  0  0  0  0  0  0  # atno 17321 bound_to 7965
  140.1289  143.4544  152.2267 LP  0  0  0  0  0  0  0  0  0  0  0  0  # atno 17342 bound_to 10162
  139.5677  144.7445  151.3975 LP  0  0  0  0  0  0  0  0  0  0  0  0  # atno 17343 bound_to 10162
  156.7692  130.4823  149.5421 LP  0  0  0  0  0  0  0  0  0  0  0  0  # atno 17370 bound_to 10713
  156.1369  130.6217  151.0412 LP  0  0  0  0  0  0  0  0  0  0  0  0  # atno 17371 bound_to 10713
  140.6159  134.0039  155.7597 LP  0  0  0  0  0  0  0  0  0  0  0  0  # atno 17394 bound_to 11000
  141.0924  133.9896  157.3215 LP  0  0  0  0  0  0  0  0  0  0  0  0  # atno 17395 bound_to 11000

$$$$
