AV-unprocessed.smi:694|AV-procd|sdf|3380|dock7
  -GOLD-   22720 0363D 1   1.00000     0.00000
 Structure written by MMmdl.
 42 43  0  0  0  0  0  0  0  0  1 V2000
  151.0690  142.6154  156.3961 C   0  0  0  0  0  0  0  0  0  0  0  0
  151.3173  141.3300  157.0414 N   0  0  0  0  0  0  0  0  0  0  0  0
  151.8824  141.2901  158.3841 C   0  0  0  0  0  0  0  0  0  0  0  0
  150.9086  140.1349  156.4063 C   0  0  0  0  0  0  0  0  0  0  0  0
  150.8545  138.9052  157.1078 C   0  0  0  0  0  0  0  0  0  0  0  0
  150.4350  137.7451  156.4299 C   0  0  0  0  0  0  0  0  0  0  0  0
  150.0723  137.8299  155.0722 C   0  0  0  0  0  0  0  0  0  0  0  0
  149.6636  136.6354  154.4182 N   0  0  0  0  0  0  0  0  0  0  0  0
  149.5422  135.3957  154.9236 C   0  0  0  0  0  0  0  0  0  0  0  0
  149.7779  135.0708  156.0867 O   0  0  0  0  0  0  0  0  0  0  0  0
  149.1405  134.5286  153.9836 N   0  0  0  0  0  0  0  0  0  0  0  0
  148.9239  133.1014  154.1973 C   0  0  0  0  0  0  0  0  0  0  0  0
  147.5596  132.6294  153.6545 C   0  0  2  0  0  0  0  0  0  0  0  0
  147.3884  131.1018  153.6277 C   0  0  0  0  0  0  0  0  0  0  0  0
  146.4308  130.7917  152.4658 C   0  0  0  0  0  0  0  0  0  0  0  0
  146.1573  132.1261  151.7621 C   0  0  0  0  0  0  0  0  0  0  0  0
  147.2941  133.0479  152.2051 C   0  0  1  0  0  0  0  0  0  0  0  0
  146.9251  134.4072  152.0974 O   0  0  0  0  0  0  0  0  0  0  0  0
  150.1710  139.0959  154.4485 C   0  0  0  0  0  0  0  0  0  0  0  0
  150.5734  140.2101  155.0952 N   0  0  0  0  0  0  0  0  0  0  0  0
  149.9993  142.7699  156.2508 H   0  0  0  0  0  0  0  0  0  0  0  0
  151.5612  142.6588  155.4239 H   0  0  0  0  0  0  0  0  0  0  0  0
  151.4474  143.4425  156.9968 H   0  0  0  0  0  0  0  0  0  0  0  0
  152.8078  140.7140  158.3931 H   0  0  0  0  0  0  0  0  0  0  0  0
  151.1800  140.8357  159.0833 H   0  0  0  0  0  0  0  0  0  0  0  0
  152.1116  142.2917  158.7478 H   0  0  0  0  0  0  0  0  0  0  0  0
  151.1254  138.8277  158.1497 H   0  0  0  0  0  0  0  0  0  0  0  0
  150.3904  136.8009  156.9529 H   0  0  0  0  0  0  0  0  0  0  0  0
  149.4900  136.7261  153.4279 H   0  0  0  0  0  0  0  0  0  0  0  0
  148.9740  134.8797  153.0519 H   0  0  0  0  0  0  0  0  0  0  0  0
  149.7330  132.5334  153.7351 H   0  0  0  0  0  0  0  0  0  0  0  0
  148.9874  132.9083  155.2685 H   0  0  0  0  0  0  0  0  0  0  0  0
  146.7622  133.0417  154.2761 H   0  0  0  0  0  0  0  0  0  0  0  0
  148.3470  130.6150  153.4426 H   0  0  0  0  0  0  0  0  0  0  0  0
  147.0127  130.7239  154.5792 H   0  0  0  0  0  0  0  0  0  0  0  0
  146.8971  130.0859  151.7774 H   0  0  0  0  0  0  0  0  0  0  0  0
  145.5033  130.3386  152.8172 H   0  0  0  0  0  0  0  0  0  0  0  0
  146.0982  132.0258  150.6779 H   0  0  0  0  0  0  0  0  0  0  0  0
  145.2008  132.5214  152.1080 H   0  0  0  0  0  0  0  0  0  0  0  0
  148.1772  132.8615  151.5921 H   0  0  0  0  0  0  0  0  0  0  0  0
  147.6442  134.8848  151.7130 H   0  0  0  0  0  0  0  0  0  0  0  0
  149.9459  139.2433  153.4045 H   0  0  0  0  0  0  0  0  0  0  0  0
  1  2  1  0  0  0  0
  1 21  1  0  0  0  0
  1 22  1  0  0  0  0
  1 23  1  0  0  0  0
  2  3  1  0  0  0  0
  2  4  1  0  0  0  0
  3 24  1  0  0  0  0
  3 25  1  0  0  0  0
  3 26  1  0  0  0  0
  4 20  1  0  0  0  0
  4  5  2  0  0  0  0
  5  6  1  0  0  0  0
  5 27  1  0  0  0  0
  6  7  2  0  0  0  0
  6 28  1  0  0  0  0
  7  8  1  0  0  0  0
  7 19  1  0  0  0  0
  8  9  1  0  0  0  0
  8 29  1  0  0  0  0
  9 10  2  0  0  0  0
  9 11  1  0  0  0  0
 11 12  1  0  0  0  0
 11 30  1  0  0  0  0
 12 13  1  0  0  0  0
 12 31  1  0  0  0  0
 12 32  1  0  0  0  0
 13 17  1  0  0  0  0
 13 14  1  0  0  0  0
 13 33  1  0  0  0  0
 14 15  1  0  0  0  0
 14 34  1  0  0  0  0
 14 35  1  0  0  0  0
 15 16  1  0  0  0  0
 15 36  1  0  0  0  0
 15 37  1  0  0  0  0
 16 17  1  0  0  0  0
 16 38  1  0  0  0  0
 16 39  1  0  0  0  0
 17 18  1  0  0  0  0
 17 40  1  0  0  0  0
 18 41  1  0  0  0  0
 19 20  2  0  0  0  0
 19 42  1  0  0  0  0
M  END
> <s_m_source_file>
AV-unprocessed.smi

> <i_m_source_file_index>
694

> <i_lp_mmshare_version>
43012

> <i_f3d_flags>
0

> <s_epik_input>
W0NIM11OKFtDSDNdKWMxW2NIXVtjSF1jKFtjSF1uMSlbTkhdQyg9TylbTkhdW0NIMl1bQ0BASF0yW0NIMl1bQ0gyXVtDSDJdW0NASF0yW09IXQ==

> <s_epik_cmdline>
J2VwaWtfcHl0aG9uJywgJy1waCcsICc3LjAnLCAnLXRuJywgJzgnLCAnLW1hJywgJzIwMCcsICctbWV0YWxfYmluZGluZycsICctaW1hZScsICc8aW5maWxlLm1hZT4nLCAnLW9tYWUnLCAnPG91dGZpbGUubWFlPic=

> <r_lp_tautomer_probability>
1

> <r_epik_Ionization_Penalty>
0.60335

> <r_epik_Ionization_Penalty_Charging>
0

> <r_epik_Ionization_Penalty_Neutral>
0.60335

> <r_epik_State_Penalty>
0.616805

> <r_epik_Charging_Adjusted_Penalty>
0.616805

> <i_epik_Tot_Q>
0

> <i_epik_Tot_abs_Q>
0

> <r_epik_Metal_State_Penalty>
0.301709

> <b_epik_Metal_Only>
0

> <s_lp_Force_Field>
OPLS_2005

> <r_lp_Energy>
26.6001

> <b_lp_Chiralities_Consistent>
1

> <s_lp_Variant>
AV-unprocessed.smi:694-5

> <Gold.Version>
5.8.1

> <Gold.Id.Protein>
6NUR|6NUR_protein|mol2

> <Gold.PLP.Fitness>
42.9017

> <Gold.PLP.PLP>
-30.0678

> <Gold.PLP.part.hbond>
-4.0408

> <Gold.PLP.part.metal>
0.0000

> <Gold.PLP.part.buried>
-2.1904

> <Gold.PLP.part.nonpolar>
-23.7004

> <Gold.PLP.part.repulsive>
0.1326

> <Gold.PLP.ligand.clash>
0.0000

> <Gold.PLP.ligand.torsion>
0.1653

> <Gold.PLP.Chemscore.Hbond>
3.3838

> <Gold.PLP.Chemscore.CHOScore>
1.0000

> <Gold.PLP.Chemscore.Metal>
0.0000

> <Gold.Chemscore.Hbonds>
donor molecule, donor type, donor heavy atom, donor atom, acceptor molecule, acceptor atom, score
      L1  H     8    29       P1  7948  1.00
      L1  H    11    30       P1  7948  0.80
      L1  H    18    41       P1  7948  1.00
      P1  H  7989  7998       L1    20  0.65
      L1  C    19    42       P1  7957  1.00

> <Gold.PLP.Chemscore.Internal.Correction>
0.0131

> <Gold.Rescore>
     Score         DG    S(hbond)    S(metal)    S(lipo)     H(rot)  DE(clash)    DE(int)     intcor
     14.79     -17.77       2.75        0.00      64.31       1.73       0.15       2.83       ----

> <Gold.Chemscore.Fitness>
14.7939

> <Gold.Chemscore.DG>
-17.7708

> <Gold.Chemscore.ZeroCoef>
-5.4800

> <Gold.Chemscore.Hbond>
2.7498

> <Gold.Chemscore.Metal>
0.0000

> <Gold.Chemscore.Lipo>
64.3147

> <Gold.Chemscore.Internal_Hbond>
0.0000

> <Gold.Chemscore.DEClash>
0.1487

> <Gold.Chemscore.DEInternal>
2.8282

> <Gold.Chemscore.Rot>
1.7259

> <Gold.Chemscore.Internal.Correction>
   9.000000E+99

> <Gold.Chemscore.Hbonds>
donor molecule, donor type, donor heavy atom, donor atom, acceptor molecule, acceptor atom, score
      L1  H     8    29       P1  7948  0.78
      L1  H    11    30       P1  7948  0.11
      L1  H    18    41       P1  7948  0.53
      P1  H  7989  7998       L1    20  0.05

> <Gold.Chemscore.Hbond.Weighted>
-9.1843

> <Gold.Chemscore.Metal.Weighted>
-0.0000

> <Gold.Chemscore.Lipo.Weighted>
-7.5248

> <Gold.Chemscore.Internal_Hbond.Weighted>
0.0000

> <Gold.Chemscore.DEClash.Weighted>
0.1487

> <Gold.Chemscore.DEInternal.Weighted>
2.8282

> <Gold.Chemscore.Rot.Weighted>
4.4184

> <Gold.Chemscore.Internal.Correction.Weighted>
   9.000000E+99

> <Gold.Protein.RotatedTorsions>
[ 6907 6896 6895 6894 ] final   56.12 input  -60.11 | X-H torsion
[ 7974 7965 7964 7962 ] final  -99.25 input  175.53 | X-H torsion
[ 8008 7997 7996 7995 ] final  -32.37 input   59.86 | X-H torsion
[ 10167 10162 10161 10158 ] final  172.62 input  -65.29 | X-H torsion
[ 10718 10713 10712 10709 ] final   -4.49 input   66.30 | X-H torsion
[ 10763 10752 10751 10750 ] final   78.00 input  -60.55 | X-H torsion
[ 11005 11000 10999 10996 ] final -171.02 input  -57.11 | X-H torsion

> <Gold.Protein.ActiveResidues>
 VAL166  LYS551  ARG553  GLY616  TRP617  ASP618  TYR619  PRO620  LYS621  CYS622 
 ASP623  PHE694  ASN695  SER759  ASP760  ASP761  ALA762  ILE779  LEU786  VAL792 
 PHE793  MET794  SER795  GLU796  ALA797  LYS798  CYS799  TRP800  GLU811  SER814 

> <Gold.Protein.RotatedAtoms>
  152.3605  134.6878  160.0208 H   0  0  0  0  0  0  0  0  0  0  0  0  # atno 6907 bound_to 6896
  151.7203  133.3309  159.3321 H   0  0  0  0  0  0  0  0  0  0  0  0  # atno 6908 bound_to 6896
  150.7602  134.6388  159.6270 H   0  0  0  0  0  0  0  0  0  0  0  0  # atno 6909 bound_to 6896
  145.3100  140.9398  143.2775 H   0  0  0  0  0  0  0  0  0  0  0  0  # atno 7974 bound_to 7965
  154.4182  140.1739  156.1717 H   0  0  0  0  0  0  0  0  0  0  0  0  # atno 8008 bound_to 7997
  155.9755  140.3382  155.6590 H   0  0  0  0  0  0  0  0  0  0  0  0  # atno 8009 bound_to 7997
  155.6569  140.0696  157.2558 H   0  0  0  0  0  0  0  0  0  0  0  0  # atno 8010 bound_to 7997
  139.5082  144.3353  152.0072 H   0  0  0  0  0  0  0  0  0  0  0  0  # atno 10167 bound_to 10162
  156.7606  130.5268  149.5786 H   0  0  0  0  0  0  0  0  0  0  0  0  # atno 10718 bound_to 10713
  153.0841  135.4893  154.8561 H   0  0  0  0  0  0  0  0  0  0  0  0  # atno 10763 bound_to 10752
  154.7188  135.3035  154.9083 H   0  0  0  0  0  0  0  0  0  0  0  0  # atno 10764 bound_to 10752
  153.9754  135.6796  153.4801 H   0  0  0  0  0  0  0  0  0  0  0  0  # atno 10765 bound_to 10752
  140.5129  134.5784  157.5024 H   0  0  0  0  0  0  0  0  0  0  0  0  # atno 11005 bound_to 11000
  144.9023  139.4633  143.6626 LP  0  0  0  0  0  0  0  0  0  0  0  0  # atno 17320 bound_to 7965
  146.3121  139.7784  142.9012 LP  0  0  0  0  0  0  0  0  0  0  0  0  # atno 17321 bound_to 7965
  140.2792  144.3879  150.6125 LP  0  0  0  0  0  0  0  0  0  0  0  0  # atno 17342 bound_to 10162
  140.6031  143.2167  151.7033 LP  0  0  0  0  0  0  0  0  0  0  0  0  # atno 17343 bound_to 10162
  156.1342  130.6199  151.0376 LP  0  0  0  0  0  0  0  0  0  0  0  0  # atno 17370 bound_to 10713
  157.6736  131.0855  150.7550 LP  0  0  0  0  0  0  0  0  0  0  0  0  # atno 17371 bound_to 10713
  139.9649  134.7390  156.0160 LP  0  0  0  0  0  0  0  0  0  0  0  0  # atno 17394 bound_to 11000
  141.1376  133.6571  156.3637 LP  0  0  0  0  0  0  0  0  0  0  0  0  # atno 17395 bound_to 11000

$$$$
