AV-unprocessed.smi:847|AV-procd|sdf|3937|dock8
  -GOLD-   22720 1403D 1   1.00000     0.00000
 Structure written by MMmdl.
 46 47  0  0  0  0  0  0  0  0  1 V2000
  151.9795  144.0417  158.9358 C   0  0  0  0  0  0  0  0  0  0  0  0
  151.0893  143.6774  157.8957 O   0  0  0  0  0  0  0  0  0  0  0  0
  150.9837  142.2720  157.7391 C   0  0  0  0  0  0  0  0  0  0  0  0
  150.4456  141.9619  156.3392 C   0  0  0  0  0  0  0  0  0  0  0  0
  150.0730  140.5882  156.2828 O   0  0  0  0  0  0  0  0  0  0  0  0
  149.2007  140.1825  155.2938 C   0  0  0  0  0  0  0  0  0  0  0  0
  148.4770  141.1654  154.5893 C   0  0  0  0  0  0  0  0  0  0  0  0
  147.5843  140.7580  153.5798 C   0  0  0  0  0  0  0  0  0  0  0  0
  147.4391  139.3824  153.3088 C   0  0  0  0  0  0  0  0  0  0  0  0
  146.4853  138.9146  152.2182 C   0  0  0  0  0  0  0  0  0  0  0  0
  146.5995  137.4979  151.8900 N   0  0  0  0  0  0  0  0  0  0  0  0
  145.5810  136.6211  151.8890 C   0  0  0  0  0  0  0  0  0  0  0  0
  144.4254  136.9424  152.1646 O   0  0  0  0  0  0  0  0  0  0  0  0
  145.8902  135.1501  151.5371 C   0  0  2  0  0  0  0  0  0  0  0  0
  144.9445  134.6962  150.4128 C   0  0  0  0  0  0  0  0  0  0  0  0
  144.7734  133.2035  150.6201 C   0  0  0  0  0  0  0  0  0  0  0  0
  144.9631  132.9904  152.1209 C   0  0  0  0  0  0  0  0  0  0  0  0
  145.7128  134.1500  152.6114 N   0  0  0  0  0  0  0  0  0  0  0  0
  146.2377  134.2202  153.8592 C   0  0  0  0  0  0  0  0  0  0  0  0
  145.9327  133.0927  154.8484 C   0  0  0  0  0  0  0  0  0  0  0  0
  146.9565  135.1470  154.2322 O   0  0  0  0  0  0  0  0  0  0  0  0
  148.2136  138.4750  154.0656 C   0  0  0  0  0  0  0  0  0  0  0  0
  149.0717  138.8574  155.0348 N   0  0  0  0  0  0  0  0  0  0  0  0
  146.9242  135.0787  151.1949 H   0  0  0  0  0  0  0  0  0  0  0  0
  152.0139  145.1274  159.0252 H   0  0  0  0  0  0  0  0  0  0  0  0
  152.9910  143.6886  158.7302 H   0  0  0  0  0  0  0  0  0  0  0  0
  151.6543  143.6350  159.8945 H   0  0  0  0  0  0  0  0  0  0  0  0
  151.9710  141.8226  157.8555 H   0  0  0  0  0  0  0  0  0  0  0  0
  150.3347  141.8404  158.5030 H   0  0  0  0  0  0  0  0  0  0  0  0
  149.6006  142.6131  156.1091 H   0  0  0  0  0  0  0  0  0  0  0  0
  151.2287  142.1554  155.6044 H   0  0  0  0  0  0  0  0  0  0  0  0
  148.6042  142.2129  154.8192 H   0  0  0  0  0  0  0  0  0  0  0  0
  147.0191  141.4924  153.0252 H   0  0  0  0  0  0  0  0  0  0  0  0
  145.4562  139.1437  152.5004 H   0  0  0  0  0  0  0  0  0  0  0  0
  146.6920  139.4886  151.3150 H   0  0  0  0  0  0  0  0  0  0  0  0
  147.5184  137.1571  151.6474 H   0  0  0  0  0  0  0  0  0  0  0  0
  143.9664  135.1733  150.5033 H   0  0  0  0  0  0  0  0  0  0  0  0
  145.3322  134.9339  149.4216 H   0  0  0  0  0  0  0  0  0  0  0  0
  143.8159  132.8298  150.2561 H   0  0  0  0  0  0  0  0  0  0  0  0
  145.5607  132.6765  150.0796 H   0  0  0  0  0  0  0  0  0  0  0  0
  143.9937  132.9565  152.6203 H   0  0  0  0  0  0  0  0  0  0  0  0
  145.4791  132.0489  152.3138 H   0  0  0  0  0  0  0  0  0  0  0  0
  144.8579  132.9367  154.9429 H   0  0  0  0  0  0  0  0  0  0  0  0
  146.3214  133.3351  155.8381 H   0  0  0  0  0  0  0  0  0  0  0  0
  146.3972  132.1604  154.5265 H   0  0  0  0  0  0  0  0  0  0  0  0
  148.1500  137.4109  153.8919 H   0  0  0  0  0  0  0  0  0  0  0  0
  1  2  1  0  0  0  0
  1 25  1  0  0  0  0
  1 26  1  0  0  0  0
  1 27  1  0  0  0  0
  2  3  1  0  0  0  0
  3  4  1  0  0  0  0
  3 28  1  0  0  0  0
  3 29  1  0  0  0  0
  4  5  1  0  0  0  0
  4 30  1  0  0  0  0
  4 31  1  0  0  0  0
  5  6  1  0  0  0  0
  6 23  1  0  0  0  0
  6  7  2  0  0  0  0
  7  8  1  0  0  0  0
  7 32  1  0  0  0  0
  8  9  2  0  0  0  0
  8 33  1  0  0  0  0
  9 10  1  0  0  0  0
  9 22  1  0  0  0  0
 10 11  1  0  0  0  0
 10 34  1  0  0  0  0
 10 35  1  0  0  0  0
 11 12  1  0  0  0  0
 11 36  1  0  0  0  0
 12 13  2  0  0  0  0
 12 14  1  0  0  0  0
 14 24  1  0  0  0  0
 14 18  1  0  0  0  0
 14 15  1  0  0  0  0
 15 16  1  0  0  0  0
 15 37  1  0  0  0  0
 15 38  1  0  0  0  0
 16 17  1  0  0  0  0
 16 39  1  0  0  0  0
 16 40  1  0  0  0  0
 17 18  1  0  0  0  0
 17 41  1  0  0  0  0
 17 42  1  0  0  0  0
 18 19  1  0  0  0  0
 19 20  1  0  0  0  0
 19 21  2  0  0  0  0
 20 43  1  0  0  0  0
 20 44  1  0  0  0  0
 20 45  1  0  0  0  0
 22 23  2  0  0  0  0
 22 46  1  0  0  0  0
M  END
> <s_m_source_file>
AV-unprocessed.smi

> <i_m_source_file_index>
847

> <i_lp_mmshare_version>
43012

> <i_f3d_flags>
0

> <s_epik_input>
W0NIM11PW0NIMl1bQ0gyXU9jMVtjSF1bY0hdYyhbY0hdbjEpW0NIMl1bTkhdQyg9TylbQ0BASF0yW0NIMl1bQ0gyXVtDSDJdTjJDKD1PKVtDSDNd

> <s_epik_cmdline>
J2VwaWtfcHl0aG9uJywgJy1waCcsICc3LjAnLCAnLXRuJywgJzgnLCAnLW1hJywgJzIwMCcsICctbWV0YWxfYmluZGluZycsICctaW1hZScsICc8aW5maWxlLm1hZT4nLCAnLW9tYWUnLCAnPG91dGZpbGUubWFlPic=

> <r_lp_tautomer_probability>
1

> <r_epik_Ionization_Penalty>
6.04138e-05

> <r_epik_Ionization_Penalty_Charging>
0

> <r_epik_Ionization_Penalty_Neutral>
6.04138e-05

> <r_epik_State_Penalty>
-0

> <r_epik_Charging_Adjusted_Penalty>
0

> <i_epik_Tot_Q>
0

> <i_epik_Tot_abs_Q>
0

> <r_epik_Metal_State_Penalty>
-0

> <b_epik_Metal_Only>
0

> <s_lp_Force_Field>
OPLS_2005

> <r_lp_Energy>
14.576

> <b_lp_Chiralities_Consistent>
1

> <s_lp_Variant>
AV-unprocessed.smi:847-1

> <Gold.Version>
5.8.1

> <Gold.Id.Protein>
6NUR|6NUR_protein|mol2

> <Gold.PLP.Fitness>
41.7776

> <Gold.PLP.PLP>
-36.9522

> <Gold.PLP.part.hbond>
-1.0000

> <Gold.PLP.part.metal>
0.0000

> <Gold.PLP.part.buried>
-2.2737

> <Gold.PLP.part.nonpolar>
-33.9983

> <Gold.PLP.part.repulsive>
1.1923

> <Gold.PLP.ligand.clash>
0.0000

> <Gold.PLP.ligand.torsion>
0.6022

> <Gold.PLP.Chemscore.Hbond>
1.0000

> <Gold.PLP.Chemscore.CHOScore>
0.9538

> <Gold.PLP.Chemscore.Metal>
0.0000

> <Gold.Chemscore.Hbonds>
donor molecule, donor type, donor heavy atom, donor atom, acceptor molecule, acceptor atom, score
      L1  H    11    36       P1  7948  1.00
      L1  C    22    46       P1  7948  0.90

> <Gold.PLP.Chemscore.Internal.Correction>
0.1683

> <Gold.Rescore>
     Score         DG    S(hbond)    S(metal)    S(lipo)     H(rot)  DE(clash)    DE(int)     intcor
     12.17     -13.37       0.99        0.00      89.54       2.31       0.05       1.16       ----

> <Gold.Chemscore.Fitness>
12.1671

> <Gold.Chemscore.DG>
-13.3709

> <Gold.Chemscore.ZeroCoef>
-5.4800

> <Gold.Chemscore.Hbond>
0.9937

> <Gold.Chemscore.Metal>
0.0000

> <Gold.Chemscore.Lipo>
89.5361

> <Gold.Chemscore.Internal_Hbond>
0.0000

> <Gold.Chemscore.DEClash>
0.0484

> <Gold.Chemscore.DEInternal>
1.1553

> <Gold.Chemscore.Rot>
2.3062

> <Gold.Chemscore.Internal.Correction>
   9.000000E+99

> <Gold.Chemscore.Hbonds>
donor molecule, donor type, donor heavy atom, donor atom, acceptor molecule, acceptor atom, score
      L1  H    11    36       P1  7948  0.99

> <Gold.Chemscore.Hbond.Weighted>
-3.3190

> <Gold.Chemscore.Metal.Weighted>
-0.0000

> <Gold.Chemscore.Lipo.Weighted>
-10.4757

> <Gold.Chemscore.Internal_Hbond.Weighted>
0.0000

> <Gold.Chemscore.DEClash.Weighted>
0.0484

> <Gold.Chemscore.DEInternal.Weighted>
1.1553

> <Gold.Chemscore.Rot.Weighted>
5.9038

> <Gold.Chemscore.Internal.Correction.Weighted>
   9.000000E+99

> <Gold.Protein.RotatedTorsions>
[ 6907 6896 6895 6894 ] final   79.95 input  -60.11 | X-H torsion
[ 7974 7965 7964 7962 ] final  -50.77 input  175.53 | X-H torsion
[ 8008 7997 7996 7995 ] final  118.85 input   59.86 | X-H torsion
[ 10167 10162 10161 10158 ] final   90.60 input  -65.29 | X-H torsion
[ 10718 10713 10712 10709 ] final  -61.55 input   66.30 | X-H torsion
[ 10763 10752 10751 10750 ] final  112.74 input  -60.55 | X-H torsion
[ 11005 11000 10999 10996 ] final  -65.75 input  -57.11 | X-H torsion

> <Gold.Protein.ActiveResidues>
 VAL166  LYS551  ARG553  GLY616  TRP617  ASP618  TYR619  PRO620  LYS621  CYS622 
 ASP623  PHE694  ASN695  SER759  ASP760  ASP761  ALA762  ILE779  LEU786  VAL792 
 PHE793  MET794  SER795  GLU796  ALA797  LYS798  CYS799  TRP800  GLU811  SER814 

> <Gold.Protein.RotatedAtoms>
  152.5217  134.3432  159.9224 H   0  0  0  0  0  0  0  0  0  0  0  0  # atno 6907 bound_to 6896
  151.3382  133.3967  159.2676 H   0  0  0  0  0  0  0  0  0  0  0  0  # atno 6908 bound_to 6896
  150.9825  134.9195  159.7910 H   0  0  0  0  0  0  0  0  0  0  0  0  # atno 6909 bound_to 6896
  145.9262  140.7790  142.9622 H   0  0  0  0  0  0  0  0  0  0  0  0  # atno 7974 bound_to 7965
  156.2567  140.2866  156.0899 H   0  0  0  0  0  0  0  0  0  0  0  0  # atno 8008 bound_to 7997
  155.1475  140.0397  157.2830 H   0  0  0  0  0  0  0  0  0  0  0  0  # atno 8009 bound_to 7997
  154.6485  140.2539  155.7247 H   0  0  0  0  0  0  0  0  0  0  0  0  # atno 8010 bound_to 7997
  139.8457  144.6619  150.9229 H   0  0  0  0  0  0  0  0  0  0  0  0  # atno 10167 bound_to 10162
  156.0914  130.4199  150.1010 H   0  0  0  0  0  0  0  0  0  0  0  0  # atno 10718 bound_to 10713
  153.4823  135.3677  155.2448 H   0  0  0  0  0  0  0  0  0  0  0  0  # atno 10763 bound_to 10752
  154.8755  135.3957  154.3686 H   0  0  0  0  0  0  0  0  0  0  0  0  # atno 10764 bound_to 10752
  153.4291  135.7082  153.6308 H   0  0  0  0  0  0  0  0  0  0  0  0  # atno 10765 bound_to 10752
  141.1463  133.6687  156.6034 H   0  0  0  0  0  0  0  0  0  0  0  0  # atno 11005 bound_to 11000
  144.6759  140.2055  143.7382 LP  0  0  0  0  0  0  0  0  0  0  0  0  # atno 17320 bound_to 7965
  145.8485  139.2164  143.1786 LP  0  0  0  0  0  0  0  0  0  0  0  0  # atno 17321 bound_to 7965
  140.7793  143.3872  151.1373 LP  0  0  0  0  0  0  0  0  0  0  0  0  # atno 17342 bound_to 10162
  139.7514  143.8772  152.3078 LP  0  0  0  0  0  0  0  0  0  0  0  0  # atno 17343 bound_to 10162
  156.9019  130.9623  151.3575 LP  0  0  0  0  0  0  0  0  0  0  0  0  # atno 17370 bound_to 10713
  157.6064  130.8550  149.8882 LP  0  0  0  0  0  0  0  0  0  0  0  0  # atno 17371 bound_to 10713
  140.3671  134.7638  157.4573 LP  0  0  0  0  0  0  0  0  0  0  0  0  # atno 17394 bound_to 11000
  140.0740  134.5823  155.8611 LP  0  0  0  0  0  0  0  0  0  0  0  0  # atno 17395 bound_to 11000

$$$$
