AV-unprocessed.smi:1368|AV-procd|sdf|5575|dock1
  -GOLD-   22720 5163D 1   1.00000     0.00000
 Structure written by MMmdl.
 46 48  0  0  0  0  0  0  0  0  1 V2000
  147.1256  130.3490  153.2827 C   0  0  0  0  0  0  0  0  0  0  0  0
  148.1630  131.3838  153.7079 C   0  0  0  0  0  0  0  0  0  0  0  0
  149.3295  131.0311  153.8755 O   0  0  0  0  0  0  0  0  0  0  0  0
  147.6981  132.6332  153.8954 N   0  0  0  0  0  0  0  0  0  0  0  0
  148.4077  133.8054  154.2762 C   0  0  0  0  0  0  0  0  0  0  0  0
  147.6518  134.8736  154.7997 C   0  0  0  0  0  0  0  0  0  0  0  0
  148.2795  136.0737  155.1838 C   0  0  0  0  0  0  0  0  0  0  0  0
  149.6721  136.2368  155.0457 C   0  0  0  0  0  0  0  0  0  0  0  0
  150.2050  137.4428  155.4481 O   0  0  0  0  0  0  0  0  0  0  0  0
  151.4743  137.8223  154.9327 C   0  0  0  0  0  0  0  0  0  0  0  0
  151.7901  139.2573  155.3831 C   0  0  2  0  0  0  0  0  0  0  0  0
  153.1541  139.5188  155.1160 O   0  0  0  0  0  0  0  0  0  0  0  0
  151.5210  139.4538  156.8891 C   0  0  0  0  0  0  0  0  0  0  0  0
  151.5266  140.8544  157.2910 N   0  0  0  0  0  0  0  0  0  0  0  0
  150.7952  141.8732  156.7759 C   0  0  0  0  0  0  0  0  0  0  0  0
  149.8272  141.6630  155.6552 C   0  0  0  0  0  0  0  0  0  0  0  0
  150.9888  143.0686  157.3332 N   0  0  0  0  0  0  0  0  0  0  0  0
  151.9346  142.8003  158.3039 C   0  0  0  0  0  0  0  0  0  0  0  0
  152.5561  143.6556  159.2420 C   0  0  0  0  0  0  0  0  0  0  0  0
  153.5080  143.1476  160.1502 C   0  0  0  0  0  0  0  0  0  0  0  0
  153.8522  141.7804  160.1333 C   0  0  0  0  0  0  0  0  0  0  0  0
  153.2437  140.9107  159.2080 C   0  0  0  0  0  0  0  0  0  0  0  0
  152.2935  141.4223  158.3041 C   0  0  0  0  0  0  0  0  0  0  0  0
  150.4309  135.1692  154.5047 C   0  0  0  0  0  0  0  0  0  0  0  0
  149.8049  133.9677  154.1199 C   0  0  0  0  0  0  0  0  0  0  0  0
  146.3133  130.8116  152.7209 H   0  0  0  0  0  0  0  0  0  0  0  0
  146.7026  129.8576  154.1593 H   0  0  0  0  0  0  0  0  0  0  0  0
  147.5828  129.5873  152.6503 H   0  0  0  0  0  0  0  0  0  0  0  0
  146.6994  132.7468  153.8013 H   0  0  0  0  0  0  0  0  0  0  0  0
  146.5819  134.7760  154.9147 H   0  0  0  0  0  0  0  0  0  0  0  0
  147.6844  136.8791  155.5891 H   0  0  0  0  0  0  0  0  0  0  0  0
  152.2251  137.1439  155.3414 H   0  0  0  0  0  0  0  0  0  0  0  0
  151.5094  137.7417  153.8444 H   0  0  0  0  0  0  0  0  0  0  0  0
  151.1800  139.9603  154.8154 H   0  0  0  0  0  0  0  0  0  0  0  0
  153.5129  138.7828  154.6437 H   0  0  0  0  0  0  0  0  0  0  0  0
  150.5603  139.0163  157.1615 H   0  0  0  0  0  0  0  0  0  0  0  0
  152.2696  138.9218  157.4776 H   0  0  0  0  0  0  0  0  0  0  0  0
  149.3618  142.6073  155.3707 H   0  0  0  0  0  0  0  0  0  0  0  0
  149.0408  140.9724  155.9597 H   0  0  0  0  0  0  0  0  0  0  0  0
  150.3377  141.2572  154.7821 H   0  0  0  0  0  0  0  0  0  0  0  0
  152.2999  144.7047  159.2626 H   0  0  0  0  0  0  0  0  0  0  0  0
  153.9770  143.8102  160.8627 H   0  0  0  0  0  0  0  0  0  0  0  0
  154.5840  141.3995  160.8306 H   0  0  0  0  0  0  0  0  0  0  0  0
  153.5065  139.8635  159.1902 H   0  0  0  0  0  0  0  0  0  0  0  0
  151.4988  135.2467  154.3689 H   0  0  0  0  0  0  0  0  0  0  0  0
  150.4199  133.1905  153.6942 H   0  0  0  0  0  0  0  0  0  0  0  0
  1  2  1  0  0  0  0
  1 26  1  0  0  0  0
  1 27  1  0  0  0  0
  1 28  1  0  0  0  0
  2  3  2  0  0  0  0
  2  4  1  0  0  0  0
  4  5  1  0  0  0  0
  4 29  1  0  0  0  0
  5 25  1  0  0  0  0
  5  6  2  0  0  0  0
  6  7  1  0  0  0  0
  6 30  1  0  0  0  0
  7  8  2  0  0  0  0
  7 31  1  0  0  0  0
  8  9  1  0  0  0  0
  8 24  1  0  0  0  0
  9 10  1  0  0  0  0
 10 11  1  0  0  0  0
 10 32  1  0  0  0  0
 10 33  1  0  0  0  0
 11 12  1  0  0  0  0
 11 13  1  0  0  0  0
 11 34  1  0  0  0  0
 12 35  1  0  0  0  0
 13 14  1  0  0  0  0
 13 36  1  0  0  0  0
 13 37  1  0  0  0  0
 14 23  1  0  0  0  0
 14 15  1  0  0  0  0
 15 16  1  0  0  0  0
 15 17  2  0  0  0  0
 16 38  1  0  0  0  0
 16 39  1  0  0  0  0
 16 40  1  0  0  0  0
 17 18  1  0  0  0  0
 18 23  2  0  0  0  0
 18 19  1  0  0  0  0
 19 20  2  0  0  0  0
 19 41  1  0  0  0  0
 20 21  1  0  0  0  0
 20 42  1  0  0  0  0
 21 22  2  0  0  0  0
 21 43  1  0  0  0  0
 22 23  1  0  0  0  0
 22 44  1  0  0  0  0
 24 25  2  0  0  0  0
 24 45  1  0  0  0  0
 25 46  1  0  0  0  0
M  END
> <s_m_source_file>
AV-unprocessed.smi

> <i_m_source_file_index>
1368

> <i_lp_mmshare_version>
43012

> <i_f3d_flags>
0

> <s_epik_input>
W0NIM11DKD1PKVtOSF1jMVtjSF1bY0hdYyhbY0hdW2NIXTEpT1tDSDJdW0NASF0oW09IXSlbQ0gyXW4oYyhuMilbQ0gzXSljKGMyMylbY0hdW2NIXVtjSF1bY0hdMw==

> <s_epik_cmdline>
J2VwaWtfcHl0aG9uJywgJy1waCcsICc3LjAnLCAnLXRuJywgJzgnLCAnLW1hJywgJzIwMCcsICctbWV0YWxfYmluZGluZycsICctaW1hZScsICc8aW5maWxlLm1hZT4nLCAnLW9tYWUnLCAnPG91dGZpbGUubWFlPic=

> <r_lp_tautomer_probability>
1

> <r_epik_Ionization_Penalty>
0.119634

> <r_epik_Ionization_Penalty_Charging>
0

> <r_epik_Ionization_Penalty_Neutral>
0.119634

> <r_epik_State_Penalty>
0.10919

> <r_epik_Charging_Adjusted_Penalty>
0.10919

> <i_epik_Tot_Q>
0

> <i_epik_Tot_abs_Q>
0

> <r_epik_Metal_State_Penalty>
0.0906856

> <b_epik_Metal_Only>
0

> <s_lp_Force_Field>
OPLS_2005

> <r_lp_Energy>
21.7849

> <b_lp_Chiralities_Consistent>
1

> <s_lp_Variant>
AV-unprocessed.smi:1368-1

> <Gold.Version>
5.8.1

> <Gold.Id.Protein>
6NUR|6NUR_protein|mol2

> <Gold.PLP.Fitness>
46.8839

> <Gold.PLP.PLP>
-44.8782

> <Gold.PLP.part.hbond>
-0.9231

> <Gold.PLP.part.metal>
0.0000

> <Gold.PLP.part.buried>
-6.1686

> <Gold.PLP.part.nonpolar>
-38.3891

> <Gold.PLP.part.repulsive>
0.5037

> <Gold.PLP.ligand.clash>
0.0000

> <Gold.PLP.ligand.torsion>
0.5833

> <Gold.PLP.Chemscore.Hbond>
0.9913

> <Gold.PLP.Chemscore.CHOScore>
0.0000

> <Gold.PLP.Chemscore.Metal>
0.0000

> <Gold.Chemscore.Hbonds>
donor molecule, donor type, donor heavy atom, donor atom, acceptor molecule, acceptor atom, score
      P1  H  7997  8008       L1    12  1.00

> <Gold.PLP.Chemscore.Internal.Correction>
0.1986

> <Gold.Rescore>
     Score         DG    S(hbond)    S(metal)    S(lipo)     H(rot)  DE(clash)    DE(int)     intcor
     14.45     -15.91       0.89        0.00     116.14       2.39       0.01       1.45       ----

> <Gold.Chemscore.Fitness>
14.4474

> <Gold.Chemscore.DG>
-15.9094

> <Gold.Chemscore.ZeroCoef>
-5.4800

> <Gold.Chemscore.Hbond>
0.8872

> <Gold.Chemscore.Metal>
0.0000

> <Gold.Chemscore.Lipo>
116.1372

> <Gold.Chemscore.Internal_Hbond>
0.0000

> <Gold.Chemscore.DEClash>
0.0102

> <Gold.Chemscore.DEInternal>
1.4517

> <Gold.Chemscore.Rot>
2.3914

> <Gold.Chemscore.Internal.Correction>
   9.000000E+99

> <Gold.Chemscore.Hbonds>
donor molecule, donor type, donor heavy atom, donor atom, acceptor molecule, acceptor atom, score
      P1  H  7997  8008       L1    12  0.64

> <Gold.Chemscore.Hbond.Weighted>
-2.9633

> <Gold.Chemscore.Metal.Weighted>
-0.0000

> <Gold.Chemscore.Lipo.Weighted>
-13.5881

> <Gold.Chemscore.Internal_Hbond.Weighted>
0.0000

> <Gold.Chemscore.DEClash.Weighted>
0.0102

> <Gold.Chemscore.DEInternal.Weighted>
1.4517

> <Gold.Chemscore.Rot.Weighted>
6.1220

> <Gold.Chemscore.Internal.Correction.Weighted>
   9.000000E+99

> <Gold.Protein.RotatedTorsions>
[ 6907 6896 6895 6894 ] final   35.20 input  -60.11 | X-H torsion
[ 7974 7965 7964 7962 ] final   50.16 input  175.53 | X-H torsion
[ 8008 7997 7996 7995 ] final  -32.91 input   59.86 | X-H torsion
[ 10167 10162 10161 10158 ] final -106.83 input  -65.29 | X-H torsion
[ 10718 10713 10712 10709 ] final -140.06 input   66.30 | X-H torsion
[ 10763 10752 10751 10750 ] final -177.56 input  -60.55 | X-H torsion
[ 11005 11000 10999 10996 ] final   20.16 input  -57.11 | X-H torsion

> <Gold.Protein.ActiveResidues>
 VAL166  LYS551  ARG553  GLY616  TRP617  ASP618  TYR619  PRO620  LYS621  CYS622 
 ASP623  PHE694  ASN695  SER759  ASP760  ASP761  ALA762  ILE779  LEU786  VAL792 
 PHE793  MET794  SER795  GLU796  ALA797  LYS798  CYS799  TRP800  GLU811  SER814 

> <Gold.Protein.RotatedAtoms>
  152.1129  134.9262  160.0565 H   0  0  0  0  0  0  0  0  0  0  0  0  # atno 6907 bound_to 6896
  152.0432  133.3982  159.4354 H   0  0  0  0  0  0  0  0  0  0  0  0  # atno 6908 bound_to 6896
  150.6844  134.3312  159.4871 H   0  0  0  0  0  0  0  0  0  0  0  0  # atno 6909 bound_to 6896
  146.0038  139.4468  142.9998 H   0  0  0  0  0  0  0  0  0  0  0  0  # atno 7974 bound_to 7965
  154.4165  140.1725  156.1802 H   0  0  0  0  0  0  0  0  0  0  0  0  # atno 8008 bound_to 7997
  155.9688  140.3387  155.6533 H   0  0  0  0  0  0  0  0  0  0  0  0  # atno 8009 bound_to 7997
  155.6653  140.0705  157.2530 H   0  0  0  0  0  0  0  0  0  0  0  0  # atno 8010 bound_to 7997
  140.1835  143.3948  152.1263 H   0  0  0  0  0  0  0  0  0  0  0  0  # atno 10167 bound_to 10162
  156.3179  130.7518  151.1609 H   0  0  0  0  0  0  0  0  0  0  0  0  # atno 10718 bound_to 10713
  154.5586  135.2818  155.0941 H   0  0  0  0  0  0  0  0  0  0  0  0  # atno 10763 bound_to 10752
  154.2358  135.6366  153.5194 H   0  0  0  0  0  0  0  0  0  0  0  0  # atno 10764 bound_to 10752
  153.0023  135.5548  154.6173 H   0  0  0  0  0  0  0  0  0  0  0  0  # atno 10765 bound_to 10752
  140.4057  134.1671  155.7665 H   0  0  0  0  0  0  0  0  0  0  0  0  # atno 11005 bound_to 11000
  145.7446  140.9995  143.1282 LP  0  0  0  0  0  0  0  0  0  0  0  0  # atno 17320 bound_to 7965
  144.6929  139.9141  143.7465 LP  0  0  0  0  0  0  0  0  0  0  0  0  # atno 17321 bound_to 7965
  139.5286  144.7132  151.5138 LP  0  0  0  0  0  0  0  0  0  0  0  0  # atno 17342 bound_to 10162
  140.6504  143.8709  150.6779 LP  0  0  0  0  0  0  0  0  0  0  0  0  # atno 17343 bound_to 10162
  157.7405  131.0515  150.5158 LP  0  0  0  0  0  0  0  0  0  0  0  0  # atno 17370 bound_to 10713
  156.5307  130.4184  149.6203 LP  0  0  0  0  0  0  0  0  0  0  0  0  # atno 17371 bound_to 10713
  141.1840  133.8353  157.1155 LP  0  0  0  0  0  0  0  0  0  0  0  0  # atno 17394 bound_to 11000
  140.0304  134.9904  157.0768 LP  0  0  0  0  0  0  0  0  0  0  0  0  # atno 17395 bound_to 11000

$$$$
