AV-unprocessed.smi:2704|AV-procd|sdf|10442|dock2
  -GOLD-   2272014483D 1   1.00000     0.00000
 Structure written by MMmdl.
 43 44  0  0  0  0  0  0  0  0  1 V2000
  150.7034  139.6089  154.9605 C   0  0  0  0  0  0  0  0  0  0  0  0
  151.8344  138.6756  155.4176 C   0  0  0  0  0  0  0  0  0  0  0  0
  153.0918  138.7881  154.5437 C   0  0  0  0  0  0  0  0  0  0  0  0
  151.3650  137.2580  155.5435 C   0  0  0  0  0  0  0  0  0  0  0  0
  152.1630  136.3098  156.0211 N   0  0  0  0  0  0  0  0  0  0  0  0
  151.3572  135.1628  155.9969 O   0  0  0  0  0  0  0  0  0  0  0  0
  150.1562  135.5649  155.5173 C   0  0  0  0  0  0  0  0  0  0  0  0
  149.0779  134.5462  155.3328 C   0  0  0  0  0  0  0  0  0  0  0  0
  149.3675  133.5128  154.2282 C   0  0  0  0  0  0  0  0  0  0  0  0
  148.3818  133.5502  153.1513 N   0  0  0  0  0  0  0  0  0  0  0  0
  147.5345  132.5583  152.8243 C   0  0  0  0  0  0  0  0  0  0  0  0
  147.5124  131.4853  153.4288 O   0  0  0  0  0  0  0  0  0  0  0  0
  146.5715  132.7858  151.6361 C   0  0  0  0  0  0  0  0  0  0  0  0
  147.3011  132.9000  150.4222 O   0  0  0  0  0  0  0  0  0  0  0  0
  145.6083  131.5796  151.5104 C   0  0  0  0  0  0  0  0  0  0  0  0
  144.5064  131.7976  150.4578 C   0  0  0  0  0  0  0  0  0  0  0  0
  143.7272  133.0928  150.7252 C   0  0  0  0  0  0  0  0  0  0  0  0
  144.6723  134.3012  150.7864 C   0  0  0  0  0  0  0  0  0  0  0  0
  145.7726  134.0978  151.8438 C   0  0  0  0  0  0  0  0  0  0  0  0
  150.1077  136.8573  155.2023 N   0  0  0  0  0  0  0  0  0  0  0  0
  149.8570  139.5635  155.6467 H   0  0  0  0  0  0  0  0  0  0  0  0
  150.3422  139.3399  153.9672 H   0  0  0  0  0  0  0  0  0  0  0  0
  151.0411  140.6447  154.9213 H   0  0  0  0  0  0  0  0  0  0  0  0
  152.1244  139.0104  156.4150 H   0  0  0  0  0  0  0  0  0  0  0  0
  153.8987  138.1690  154.9366 H   0  0  0  0  0  0  0  0  0  0  0  0
  153.4533  139.8160  154.5069 H   0  0  0  0  0  0  0  0  0  0  0  0
  152.8925  138.4710  153.5199 H   0  0  0  0  0  0  0  0  0  0  0  0
  148.9281  134.0319  156.2825 H   0  0  0  0  0  0  0  0  0  0  0  0
  148.1440  135.0661  155.1154 H   0  0  0  0  0  0  0  0  0  0  0  0
  150.3751  133.6559  153.8347 H   0  0  0  0  0  0  0  0  0  0  0  0
  149.3510  132.5115  154.6589 H   0  0  0  0  0  0  0  0  0  0  0  0
  148.3368  134.3966  152.6018 H   0  0  0  0  0  0  0  0  0  0  0  0
  147.9356  132.2003  150.3907 H   0  0  0  0  0  0  0  0  0  0  0  0
  146.1701  130.6766  151.2683 H   0  0  0  0  0  0  0  0  0  0  0  0
  145.1276  131.3879  152.4710 H   0  0  0  0  0  0  0  0  0  0  0  0
  144.9466  131.8334  149.4605 H   0  0  0  0  0  0  0  0  0  0  0  0
  143.8228  130.9483  150.4595 H   0  0  0  0  0  0  0  0  0  0  0  0
  142.9787  133.2446  149.9469 H   0  0  0  0  0  0  0  0  0  0  0  0
  143.1827  133.0055  151.6664 H   0  0  0  0  0  0  0  0  0  0  0  0
  145.1236  134.4640  149.8071 H   0  0  0  0  0  0  0  0  0  0  0  0
  144.1044  135.2037  151.0144 H   0  0  0  0  0  0  0  0  0  0  0  0
  145.3006  134.0948  152.8280 H   0  0  0  0  0  0  0  0  0  0  0  0
  146.4474  134.9552  151.8376 H   0  0  0  0  0  0  0  0  0  0  0  0
  1  2  1  0  0  0  0
  1 21  1  0  0  0  0
  1 22  1  0  0  0  0
  1 23  1  0  0  0  0
  2  3  1  0  0  0  0
  2  4  1  0  0  0  0
  2 24  1  0  0  0  0
  3 25  1  0  0  0  0
  3 26  1  0  0  0  0
  3 27  1  0  0  0  0
  4 20  1  0  0  0  0
  4  5  2  0  0  0  0
  5  6  1  0  0  0  0
  6  7  1  0  0  0  0
  7  8  1  0  0  0  0
  7 20  2  0  0  0  0
  8  9  1  0  0  0  0
  8 28  1  0  0  0  0
  8 29  1  0  0  0  0
  9 10  1  0  0  0  0
  9 30  1  0  0  0  0
  9 31  1  0  0  0  0
 10 11  1  0  0  0  0
 10 32  1  0  0  0  0
 11 12  2  0  0  0  0
 11 13  1  0  0  0  0
 13 19  1  0  0  0  0
 13 14  1  0  0  0  0
 13 15  1  0  0  0  0
 14 33  1  0  0  0  0
 15 16  1  0  0  0  0
 15 34  1  0  0  0  0
 15 35  1  0  0  0  0
 16 17  1  0  0  0  0
 16 36  1  0  0  0  0
 16 37  1  0  0  0  0
 17 18  1  0  0  0  0
 17 38  1  0  0  0  0
 17 39  1  0  0  0  0
 18 19  1  0  0  0  0
 18 40  1  0  0  0  0
 18 41  1  0  0  0  0
 19 42  1  0  0  0  0
 19 43  1  0  0  0  0
M  END
> <s_m_source_file>
AV-unprocessed.smi

> <i_m_source_file_index>
2704

> <i_lp_mmshare_version>
43012

> <i_f3d_flags>
0

> <s_epik_input>
W0NIM11bQ0hdKFtDSDNdKWMxbm9jKG4xKVtDSDJdW0NIMl1bTkhdQyg9TylDMihbT0hdKVtDSDJdW0NIMl1bQ0gyXVtDSDJdW0NIMl0y

> <s_epik_cmdline>
J2VwaWtfcHl0aG9uJywgJy1waCcsICc3LjAnLCAnLXRuJywgJzgnLCAnLW1hJywgJzIwMCcsICctbWV0YWxfYmluZGluZycsICctaW1hZScsICc8aW5maWxlLm1hZT4nLCAnLW9tYWUnLCAnPG91dGZpbGUubWFlPic=

> <r_lp_tautomer_probability>
1

> <r_epik_Ionization_Penalty>
7.72761e-08

> <r_epik_Ionization_Penalty_Charging>
0

> <r_epik_Ionization_Penalty_Neutral>
7.72761e-08

> <r_epik_State_Penalty>
-0

> <r_epik_Charging_Adjusted_Penalty>
0

> <i_epik_Tot_Q>
0

> <i_epik_Tot_abs_Q>
0

> <r_epik_Metal_State_Penalty>
-0

> <b_epik_Metal_Only>
0

> <s_lp_Force_Field>
OPLS_2005

> <r_lp_Energy>
5.6077

> <b_lp_Chiralities_Consistent>
1

> <s_lp_Variant>
AV-unprocessed.smi:2704-1

> <Gold.Version>
5.8.1

> <Gold.Id.Protein>
6NUR|6NUR_protein|mol2

> <Gold.PLP.Fitness>
42.9662

> <Gold.PLP.PLP>
-36.9701

> <Gold.PLP.part.hbond>
-4.5108

> <Gold.PLP.part.metal>
0.0000

> <Gold.PLP.part.buried>
-3.4571

> <Gold.PLP.part.nonpolar>
-30.1047

> <Gold.PLP.part.repulsive>
0.2559

> <Gold.PLP.ligand.clash>
0.0000

> <Gold.PLP.ligand.torsion>
0.6005

> <Gold.PLP.Chemscore.Hbond>
2.3567

> <Gold.PLP.Chemscore.CHOScore>
0.0000

> <Gold.PLP.Chemscore.Metal>
0.0000

> <Gold.Chemscore.Hbonds>
donor molecule, donor type, donor heavy atom, donor atom, acceptor molecule, acceptor atom, score
      L1  H    10    32       P1  7948  0.85
      L1  H    14    33       P1 10747  1.00
      P1  H 10752 10763       L1     5  0.38

> <Gold.PLP.Chemscore.Internal.Correction>
0.1268

> <Gold.Rescore>
     Score         DG    S(hbond)    S(metal)    S(lipo)     H(rot)  DE(clash)    DE(int)     intcor
     12.26     -12.87       1.44        0.00      76.81       2.50       0.05       0.56       ----

> <Gold.Chemscore.Fitness>
12.2606

> <Gold.Chemscore.DG>
-12.8707

> <Gold.Chemscore.ZeroCoef>
-5.4800

> <Gold.Chemscore.Hbond>
1.4384

> <Gold.Chemscore.Metal>
0.0000

> <Gold.Chemscore.Lipo>
76.8085

> <Gold.Chemscore.Internal_Hbond>
0.0000

> <Gold.Chemscore.DEClash>
0.0531

> <Gold.Chemscore.DEInternal>
0.5569

> <Gold.Chemscore.Rot>
2.5001

> <Gold.Chemscore.Internal.Correction>
   9.000000E+99

> <Gold.Chemscore.Hbonds>
donor molecule, donor type, donor heavy atom, donor atom, acceptor molecule, acceptor atom, score
      L1  H    10    32       P1  7948  0.14
      L1  H    14    33       P1 10747  1.00
      P1  H 10752 10763       L1     5  0.01

> <Gold.Chemscore.Hbond.Weighted>
-4.8043

> <Gold.Chemscore.Metal.Weighted>
-0.0000

> <Gold.Chemscore.Lipo.Weighted>
-8.9866

> <Gold.Chemscore.Internal_Hbond.Weighted>
0.0000

> <Gold.Chemscore.DEClash.Weighted>
0.0531

> <Gold.Chemscore.DEInternal.Weighted>
0.5569

> <Gold.Chemscore.Rot.Weighted>
6.4002

> <Gold.Chemscore.Internal.Correction.Weighted>
   9.000000E+99

> <Gold.Protein.RotatedTorsions>
[ 6907 6896 6895 6894 ] final  156.10 input  -60.11 | X-H torsion
[ 7974 7965 7964 7962 ] final  -93.75 input  175.53 | X-H torsion
[ 8008 7997 7996 7995 ] final  -18.78 input   59.86 | X-H torsion
[ 10167 10162 10161 10158 ] final  -50.80 input  -65.29 | X-H torsion
[ 10718 10713 10712 10709 ] final  -61.39 input   66.30 | X-H torsion
[ 10763 10752 10751 10750 ] final  108.53 input  -60.55 | X-H torsion
[ 11005 11000 10999 10996 ] final -112.42 input  -57.11 | X-H torsion

> <Gold.Protein.ActiveResidues>
 VAL166  LYS551  ARG553  GLY616  TRP617  ASP618  TYR619  PRO620  LYS621  CYS622 
 ASP623  PHE694  ASN695  SER759  ASP760  ASP761  ALA762  ILE779  LEU786  VAL792 
 PHE793  MET794  SER795  GLU796  ALA797  LYS798  CYS799  TRP800  GLU811  SER814 

> <Gold.Protein.RotatedAtoms>
  152.0346  133.3951  159.4311 H   0  0  0  0  0  0  0  0  0  0  0  0  # atno 6907 bound_to 6896
  150.6880  134.3482  159.4907 H   0  0  0  0  0  0  0  0  0  0  0  0  # atno 6908 bound_to 6896
  152.1273  134.9161  160.0611 H   0  0  0  0  0  0  0  0  0  0  0  0  # atno 6909 bound_to 6896
  145.3824  140.9519  143.2386 H   0  0  0  0  0  0  0  0  0  0  0  0  # atno 7974 bound_to 7965
  154.4882  140.2106  155.9607 H   0  0  0  0  0  0  0  0  0  0  0  0  # atno 8008 bound_to 7997
  156.1267  140.3204  155.8257 H   0  0  0  0  0  0  0  0  0  0  0  0  # atno 8009 bound_to 7997
  155.4370  140.0507  157.3004 H   0  0  0  0  0  0  0  0  0  0  0  0  # atno 8010 bound_to 7997
  140.6620  143.2644  151.4412 H   0  0  0  0  0  0  0  0  0  0  0  0  # atno 10167 bound_to 10162
  156.0925  130.4198  150.0987 H   0  0  0  0  0  0  0  0  0  0  0  0  # atno 10718 bound_to 10713
  153.4220  135.3809  155.2117 H   0  0  0  0  0  0  0  0  0  0  0  0  # atno 10763 bound_to 10752
  154.8745  135.3819  154.4372 H   0  0  0  0  0  0  0  0  0  0  0  0  # atno 10764 bound_to 10752
  153.4893  135.7088  153.5956 H   0  0  0  0  0  0  0  0  0  0  0  0  # atno 10765 bound_to 10752
  141.0676  133.9433  157.2548 H   0  0  0  0  0  0  0  0  0  0  0  0  # atno 11005 bound_to 11000
  144.8498  139.5340  143.6862 LP  0  0  0  0  0  0  0  0  0  0  0  0  # atno 17320 bound_to 7965
  146.2836  139.6942  142.9212 LP  0  0  0  0  0  0  0  0  0  0  0  0  # atno 17321 bound_to 7965
  139.5856  144.1611  152.2025 LP  0  0  0  0  0  0  0  0  0  0  0  0  # atno 17342 bound_to 10162
  140.0950  144.5588  150.7028 LP  0  0  0  0  0  0  0  0  0  0  0  0  # atno 17343 bound_to 10162
  156.8994  130.9615  151.3578 LP  0  0  0  0  0  0  0  0  0  0  0  0  # atno 17370 bound_to 10713
  157.6078  130.8560  149.8903 LP  0  0  0  0  0  0  0  0  0  0  0  0  # atno 17371 bound_to 10713
  139.9492  135.0178  156.8942 LP  0  0  0  0  0  0  0  0  0  0  0  0  # atno 17394 bound_to 11000
  140.5741  134.0415  155.7440 LP  0  0  0  0  0  0  0  0  0  0  0  0  # atno 17395 bound_to 11000

$$$$
