AV-unprocessed.smi:1403|AV-procd|sdf|5700|dock8
  -GOLD-   22720 5333D 1   1.00000     0.00000
 Structure written by MMmdl.
 36 37  0  0  0  0  0  0  0  0  1 V2000
  151.3867  140.6052  157.6857 C   0  0  0  0  0  0  0  0  0  0  0  0
  151.2729  142.0552  157.1910 C   0  0  1  0  0  0  0  0  0  0  0  0
  150.1222  142.1517  156.2964 N   0  0  0  0  0  0  0  0  0  0  0  0
  149.8512  141.3241  155.2755 C   0  0  0  0  0  0  0  0  0  0  0  0
  150.5412  140.3419  154.9988 O   0  0  0  0  0  0  0  0  0  0  0  0
  148.5971  141.6576  154.4547 C   0  0  0  0  0  0  0  0  0  0  0  0
  147.6121  140.5660  154.4419 N   0  0  0  0  0  0  0  0  0  0  0  0
  147.3929  139.8336  153.2839 C   0  0  0  0  0  0  0  0  0  0  0  0
  146.4921  138.8262  153.1980 C   0  0  0  0  0  0  0  0  0  0  0  0
  145.6862  138.4551  154.3562 C   0  0  0  0  0  0  0  0  0  0  0  0
  144.8466  137.5580  154.3779 O   0  0  0  0  0  0  0  0  0  0  0  0
  145.9343  139.2163  155.5016 N   0  0  0  0  0  0  0  0  0  0  0  0
  146.8602  140.2564  155.5966 C   0  0  0  0  0  0  0  0  0  0  0  0
  146.9977  140.8671  156.6560 O   0  0  0  0  0  0  0  0  0  0  0  0
  151.1148  143.0613  158.3499 C   0  0  1  0  0  0  0  0  0  0  0  0
  152.2052  142.9853  159.4206 C   0  0  0  0  0  0  0  0  0  0  0  0
  152.2294  144.3855  160.0152 C   0  0  0  0  0  0  0  0  0  0  0  0
  151.4223  145.2274  159.0241 C   0  0  0  0  0  0  0  0  0  0  0  0
  151.2586  144.3952  157.8859 O   0  0  0  0  0  0  0  0  0  0  0  0
  145.3973  138.9977  156.3283 H   0  0  0  0  0  0  0  0  0  0  0  0
  152.2635  140.4687  158.3189 H   0  0  0  0  0  0  0  0  0  0  0  0
  151.4820  139.9131  156.8486 H   0  0  0  0  0  0  0  0  0  0  0  0
  150.5093  140.3118  158.2630 H   0  0  0  0  0  0  0  0  0  0  0  0
  152.1874  142.2894  156.6431 H   0  0  0  0  0  0  0  0  0  0  0  0
  149.4954  142.9279  156.4501 H   0  0  0  0  0  0  0  0  0  0  0  0
  148.1541  142.5653  154.8671 H   0  0  0  0  0  0  0  0  0  0  0  0
  148.8816  141.9146  153.4322 H   0  0  0  0  0  0  0  0  0  0  0  0
  147.9643  140.0765  152.3995 H   0  0  0  0  0  0  0  0  0  0  0  0
  146.3662  138.2931  152.2667 H   0  0  0  0  0  0  0  0  0  0  0  0
  150.1324  142.9556  158.8148 H   0  0  0  0  0  0  0  0  0  0  0  0
  152.0074  142.2145  160.1661 H   0  0  0  0  0  0  0  0  0  0  0  0
  153.1711  142.7689  158.9620 H   0  0  0  0  0  0  0  0  0  0  0  0
  151.7718  144.4107  161.0046 H   0  0  0  0  0  0  0  0  0  0  0  0
  153.2535  144.7482  160.1087 H   0  0  0  0  0  0  0  0  0  0  0  0
  150.4409  145.4689  159.4346 H   0  0  0  0  0  0  0  0  0  0  0  0
  151.9212  146.1604  158.7613 H   0  0  0  0  0  0  0  0  0  0  0  0
  1  2  1  0  0  0  0
  1 21  1  0  0  0  0
  1 22  1  0  0  0  0
  1 23  1  0  0  0  0
  2  3  1  0  0  0  0
  2 15  1  0  0  0  0
  2 24  1  0  0  0  0
  3  4  1  0  0  0  0
  3 25  1  0  0  0  0
  4  5  2  0  0  0  0
  4  6  1  0  0  0  0
  6  7  1  0  0  0  0
  6 26  1  0  0  0  0
  6 27  1  0  0  0  0
  7 13  1  0  0  0  0
  7  8  1  0  0  0  0
  8  9  2  0  0  0  0
  8 28  1  0  0  0  0
  9 10  1  0  0  0  0
  9 29  1  0  0  0  0
 10 11  2  0  0  0  0
 10 12  1  0  0  0  0
 12 20  1  0  0  0  0
 12 13  1  0  0  0  0
 13 14  2  0  0  0  0
 15 19  1  0  0  0  0
 15 16  1  0  0  0  0
 15 30  1  0  0  0  0
 16 17  1  0  0  0  0
 16 31  1  0  0  0  0
 16 32  1  0  0  0  0
 17 18  1  0  0  0  0
 17 33  1  0  0  0  0
 17 34  1  0  0  0  0
 18 19  1  0  0  0  0
 18 35  1  0  0  0  0
 18 36  1  0  0  0  0
M  END
> <s_m_source_file>
AV-unprocessed.smi

> <i_m_source_file_index>
1403

> <i_lp_mmshare_version>
43012

> <i_f3d_flags>
0

> <s_epik_input>
TzFbQ0gyXVtDSDJdW0NIMl1bQ0BIXTFbQ0BIXShbQ0gzXSlbTkhdQyg9TylbQ0gyXW4yW2NIXVtjSF1jKD1PKVtuSF1jMj1P

> <s_epik_cmdline>
J2VwaWtfcHl0aG9uJywgJy1waCcsICc3LjAnLCAnLXRuJywgJzgnLCAnLW1hJywgJzIwMCcsICctbWV0YWxfYmluZGluZycsICctaW1hZScsICc8aW5maWxlLm1hZT4nLCAnLW9tYWUnLCAnPG91dGZpbGUubWFlPic=

> <r_lp_tautomer_probability>
0.999537

> <r_epik_Ionization_Penalty>
0.00331407

> <r_epik_Ionization_Penalty_Charging>
0.00331405

> <r_epik_Ionization_Penalty_Neutral>
2.30132e-08

> <r_epik_State_Penalty>
0.00234266

> <r_epik_Charging_Adjusted_Penalty>
0.00565671

> <i_epik_Tot_Q>
0

> <i_epik_Tot_abs_Q>
0

> <r_epik_Metal_State_Penalty>
0.365604

> <b_epik_Metal_Only>
0

> <s_lp_Force_Field>
OPLS_2005

> <r_lp_Energy>
17.8488

> <b_lp_Chiralities_Consistent>
1

> <s_lp_Variant>
AV-unprocessed.smi:1403-4

> <Gold.Version>
5.8.1

> <Gold.Id.Protein>
6NUR|6NUR_protein|mol2

> <Gold.PLP.Fitness>
40.7842

> <Gold.PLP.PLP>
-32.5207

> <Gold.PLP.part.hbond>
-2.0000

> <Gold.PLP.part.metal>
0.0000

> <Gold.PLP.part.buried>
-3.6855

> <Gold.PLP.part.nonpolar>
-26.5900

> <Gold.PLP.part.repulsive>
0.4318

> <Gold.PLP.ligand.clash>
0.0000

> <Gold.PLP.ligand.torsion>
0.2726

> <Gold.PLP.Chemscore.Hbond>
1.9280

> <Gold.PLP.Chemscore.CHOScore>
1.0000

> <Gold.PLP.Chemscore.Metal>
0.0000

> <Gold.Chemscore.Hbonds>
donor molecule, donor type, donor heavy atom, donor atom, acceptor molecule, acceptor atom, score
      L1  H     3    25       P1  8028  0.81
      P1  H  7989  7998       L1     5  1.00
      L1  C     8    28       P1  7957  1.00

> <Gold.PLP.Chemscore.Internal.Correction>
0.0247

> <Gold.Rescore>
     Score         DG    S(hbond)    S(metal)    S(lipo)     H(rot)  DE(clash)    DE(int)     intcor
     13.61     -15.22       1.62        0.00      81.67       2.04       0.07       1.54       ----

> <Gold.Chemscore.Fitness>
13.6125

> <Gold.Chemscore.DG>
-15.2199

> <Gold.Chemscore.ZeroCoef>
-5.4800

> <Gold.Chemscore.Hbond>
1.6186

> <Gold.Chemscore.Metal>
0.0000

> <Gold.Chemscore.Lipo>
81.6656

> <Gold.Chemscore.Internal_Hbond>
0.0000

> <Gold.Chemscore.DEClash>
0.0718

> <Gold.Chemscore.DEInternal>
1.5356

> <Gold.Chemscore.Rot>
2.0395

> <Gold.Chemscore.Internal.Correction>
   9.000000E+99

> <Gold.Chemscore.Hbonds>
donor molecule, donor type, donor heavy atom, donor atom, acceptor molecule, acceptor atom, score
      L1  H     3    25       P1  8028  0.76
      P1  H  7989  7998       L1     5  0.49

> <Gold.Chemscore.Hbond.Weighted>
-5.4062

> <Gold.Chemscore.Metal.Weighted>
-0.0000

> <Gold.Chemscore.Lipo.Weighted>
-9.5549

> <Gold.Chemscore.Internal_Hbond.Weighted>
0.0000

> <Gold.Chemscore.DEClash.Weighted>
0.0718

> <Gold.Chemscore.DEInternal.Weighted>
1.5356

> <Gold.Chemscore.Rot.Weighted>
5.2211

> <Gold.Chemscore.Internal.Correction.Weighted>
   9.000000E+99

> <Gold.Protein.RotatedTorsions>
[ 6907 6896 6895 6894 ] final   -5.58 input  -60.11 | X-H torsion
[ 7974 7965 7964 7962 ] final  -40.32 input  175.53 | X-H torsion
[ 8008 7997 7996 7995 ] final -153.82 input   59.86 | X-H torsion
[ 10167 10162 10161 10158 ] final  -41.17 input  -65.29 | X-H torsion
[ 10718 10713 10712 10709 ] final  -89.64 input   66.30 | X-H torsion
[ 10763 10752 10751 10750 ] final -137.93 input  -60.55 | X-H torsion
[ 11005 11000 10999 10996 ] final   25.51 input  -57.11 | X-H torsion

> <Gold.Protein.ActiveResidues>
 VAL166  LYS551  ARG553  GLY616  TRP617  ASP618  TYR619  PRO620  LYS621  CYS622 
 ASP623  PHE694  ASN695  SER759  ASP760  ASP761  ALA762  ILE779  LEU786  VAL792 
 PHE793  MET794  SER795  GLU796  ALA797  LYS798  CYS799  TRP800  GLU811  SER814 

> <Gold.Protein.RotatedAtoms>
  151.4794  135.1051  159.9773 H   0  0  0  0  0  0  0  0  0  0  0  0  # atno 6907 bound_to 6896
  152.4785  133.8193  159.7055 H   0  0  0  0  0  0  0  0  0  0  0  0  # atno 6908 bound_to 6896
  150.8840  133.7272  159.2950 H   0  0  0  0  0  0  0  0  0  0  0  0  # atno 6909 bound_to 6896
  146.0316  140.6724  142.9130 H   0  0  0  0  0  0  0  0  0  0  0  0  # atno 7974 bound_to 7965
  155.6768  140.0739  157.2499 H   0  0  0  0  0  0  0  0  0  0  0  0  # atno 8008 bound_to 7997
  154.4113  140.1689  156.1990 H   0  0  0  0  0  0  0  0  0  0  0  0  # atno 8009 bound_to 7997
  155.9569  140.3373  155.6460 H   0  0  0  0  0  0  0  0  0  0  0  0  # atno 8010 bound_to 7997
  140.7011  143.3110  151.3028 H   0  0  0  0  0  0  0  0  0  0  0  0  # atno 10167 bound_to 10162
  155.9985  130.4880  150.5202 H   0  0  0  0  0  0  0  0  0  0  0  0  # atno 10718 bound_to 10713
  154.8650  135.3627  154.5303 H   0  0  0  0  0  0  0  0  0  0  0  0  # atno 10763 bound_to 10752
  153.5929  135.7015  153.5421 H   0  0  0  0  0  0  0  0  0  0  0  0  # atno 10764 bound_to 10752
  153.3358  135.4112  155.1494 H   0  0  0  0  0  0  0  0  0  0  0  0  # atno 10765 bound_to 10752
  140.3471  134.2269  155.7683 H   0  0  0  0  0  0  0  0  0  0  0  0  # atno 11005 bound_to 11000
  144.7033  140.3745  143.7138 LP  0  0  0  0  0  0  0  0  0  0  0  0  # atno 17320 bound_to 7965
  145.7032  139.1666  143.2581 LP  0  0  0  0  0  0  0  0  0  0  0  0  # atno 17321 bound_to 7965
  139.6533  144.0323  152.2642 LP  0  0  0  0  0  0  0  0  0  0  0  0  # atno 17342 bound_to 10162
  139.9866  144.6391  150.7852 LP  0  0  0  0  0  0  0  0  0  0  0  0  # atno 17343 bound_to 10162
  157.3164  131.0673  151.1964 LP  0  0  0  0  0  0  0  0  0  0  0  0  # atno 17370 bound_to 10713
  157.2892  130.6788  149.6105 LP  0  0  0  0  0  0  0  0  0  0  0  0  # atno 17371 bound_to 10713
  141.2022  133.7942  157.0400 LP  0  0  0  0  0  0  0  0  0  0  0  0  # atno 17394 bound_to 11000
  140.0733  134.9690  157.1504 LP  0  0  0  0  0  0  0  0  0  0  0  0  # atno 17395 bound_to 11000

$$$$
