AV-unprocessed.smi:1656|AV-procd|sdf|6646|dock1
  -GOLD-   22720 7353D 1   1.00000     0.00000
 Structure written by MMmdl.
 49 52  0  0  0  0  0  0  0  0  1 V2000
  147.1242  139.5399  155.1976 C   0  0  0  0  0  0  0  0  0  0  0  0
  148.4231  138.8110  155.4132 C   0  0  0  0  0  0  0  0  0  0  0  0
  148.3485  137.6357  155.9456 N   0  0  0  0  0  0  0  0  0  0  0  0
  149.4805  136.8790  156.1799 N   0  0  0  0  0  0  0  0  0  0  0  0
  149.2091  135.5526  156.7536 C   0  0  0  0  0  0  0  0  0  0  0  0
  148.9524  135.5958  158.2668 C   0  0  0  0  0  0  0  0  0  0  0  0
  149.8720  135.8460  159.0467 O   0  0  0  0  0  0  0  0  0  0  0  0
  147.6925  135.3321  158.6546 N   0  0  0  0  0  0  0  0  0  0  0  0
  147.1451  135.3213  160.0154 C   0  0  0  0  0  0  0  0  0  0  0  0
  145.5919  135.2940  160.0081 C   0  0  0  0  0  0  0  0  0  0  0  0
  145.0599  135.3454  161.4568 C   0  0  1  0  0  0  0  0  0  0  0  0
  145.5923  134.1296  162.2463 C   0  0  0  0  0  0  0  0  0  0  0  0
  147.1358  134.1716  162.2754 C   0  0  2  0  0  0  0  0  0  0  0  0
  147.6057  135.4746  162.9548 C   0  0  0  0  0  0  0  0  0  0  0  0
  147.0709  136.6830  162.1587 C   0  0  2  0  0  0  0  0  0  0  0  0
  145.5288  136.6491  162.1359 C   0  0  0  0  0  0  0  0  0  0  0  0
  147.6082  136.6260  160.7130 C   0  0  0  0  0  0  0  0  0  0  0  0
  147.6805  134.1128  160.8319 C   0  0  0  0  0  0  0  0  0  0  0  0
  150.7547  137.2814  155.9037 C   0  0  0  0  0  0  0  0  0  0  0  0
  151.7377  136.5776  156.1410 O   0  0  0  0  0  0  0  0  0  0  0  0
  150.8315  138.6136  155.3004 C   0  0  0  0  0  0  0  0  0  0  0  0
  152.1469  139.0680  154.9834 C   0  0  0  0  0  0  0  0  0  0  0  0
  153.2060  139.4491  154.7123 N   0  0  0  0  0  0  0  0  0  0  0  0
  149.7265  139.3619  155.0560 C   0  0  0  0  0  0  0  0  0  0  0  0
  149.7524  140.7488  154.4285 C   0  0  0  0  0  0  0  0  0  0  0  0
  147.0899  140.4526  155.7927 H   0  0  0  0  0  0  0  0  0  0  0  0
  146.2639  138.9304  155.4785 H   0  0  0  0  0  0  0  0  0  0  0  0
  147.0027  139.8136  154.1494 H   0  0  0  0  0  0  0  0  0  0  0  0
  148.3577  135.0958  156.2451 H   0  0  0  0  0  0  0  0  0  0  0  0
  150.0511  134.8818  156.5740 H   0  0  0  0  0  0  0  0  0  0  0  0
  147.0280  135.1352  157.9204 H   0  0  0  0  0  0  0  0  0  0  0  0
  145.1996  136.1358  159.4359 H   0  0  0  0  0  0  0  0  0  0  0  0
  145.2159  134.3933  159.5226 H   0  0  0  0  0  0  0  0  0  0  0  0
  143.9700  135.3177  161.4420 H   0  0  0  0  0  0  0  0  0  0  0  0
  145.1956  134.1356  163.2623 H   0  0  0  0  0  0  0  0  0  0  0  0
  145.2489  133.2018  161.7871 H   0  0  0  0  0  0  0  0  0  0  0  0
  147.5110  133.3158  162.8373 H   0  0  0  0  0  0  0  0  0  0  0  0
  147.2507  135.5135  163.9855 H   0  0  0  0  0  0  0  0  0  0  0  0
  148.6950  135.5048  163.0025 H   0  0  0  0  0  0  0  0  0  0  0  0
  147.4057  137.6058  162.6335 H   0  0  0  0  0  0  0  0  0  0  0  0
  145.1394  137.5159  161.6007 H   0  0  0  0  0  0  0  0  0  0  0  0
  145.1342  136.7102  163.1509 H   0  0  0  0  0  0  0  0  0  0  0  0
  148.6977  136.6847  160.7224 H   0  0  0  0  0  0  0  0  0  0  0  0
  147.2605  137.4976  160.1562 H   0  0  0  0  0  0  0  0  0  0  0  0
  147.3835  133.1679  160.3766 H   0  0  0  0  0  0  0  0  0  0  0  0
  148.7714  134.1159  160.8436 H   0  0  0  0  0  0  0  0  0  0  0  0
  150.7672  141.1016  154.2476 H   0  0  0  0  0  0  0  0  0  0  0  0
  149.2664  141.4758  155.0798 H   0  0  0  0  0  0  0  0  0  0  0  0
  149.2311  140.7423  153.4707 H   0  0  0  0  0  0  0  0  0  0  0  0
  1  2  1  0  0  0  0
  1 26  1  0  0  0  0
  1 27  1  0  0  0  0
  1 28  1  0  0  0  0
  2 24  1  0  0  0  0
  2  3  2  0  0  0  0
  3  4  1  0  0  0  0
  4  5  1  0  0  0  0
  4 19  1  0  0  0  0
  5  6  1  0  0  0  0
  5 29  1  0  0  0  0
  5 30  1  0  0  0  0
  6  7  2  0  0  0  0
  6  8  1  0  0  0  0
  8  9  1  0  0  0  0
  8 31  1  0  0  0  0
  9 17  1  0  0  0  0
  9 18  1  0  0  0  0
  9 10  1  0  0  0  0
 10 11  1  0  0  0  0
 10 32  1  0  0  0  0
 10 33  1  0  0  0  0
 11 16  1  0  0  0  0
 11 12  1  0  0  0  0
 11 34  1  0  0  0  0
 12 13  1  0  0  0  0
 12 35  1  0  0  0  0
 12 36  1  0  0  0  0
 13 14  1  0  0  0  0
 13 18  1  0  0  0  0
 13 37  1  0  0  0  0
 14 15  1  0  0  0  0
 14 38  1  0  0  0  0
 14 39  1  0  0  0  0
 15 16  1  0  0  0  0
 15 17  1  0  0  0  0
 15 40  1  0  0  0  0
 16 41  1  0  0  0  0
 16 42  1  0  0  0  0
 17 43  1  0  0  0  0
 17 44  1  0  0  0  0
 18 45  1  0  0  0  0
 18 46  1  0  0  0  0
 19 20  2  0  0  0  0
 19 21  1  0  0  0  0
 21 22  1  0  0  0  0
 21 24  2  0  0  0  0
 22 23  3  0  0  0  0
 24 25  1  0  0  0  0
 25 47  1  0  0  0  0
 25 48  1  0  0  0  0
 25 49  1  0  0  0  0
M  END
> <s_m_source_file>
AV-unprocessed.smi

> <i_m_source_file_index>
1656

> <i_lp_mmshare_version>
43012

> <i_f3d_flags>
0

> <s_epik_input>
TiNDYyhjMVtDSDNdKWMoPU8pbihuYzFbQ0gzXSlbQ0gyXUMoPU8pW05IXUMyM1tDSDJdW0NASF00W0NIMl1bQ0BASF0oW0NIMl0zKVtDSDJdW0NASF0oW0NIMl00KVtDSDJdMg==

> <s_epik_cmdline>
J2VwaWtfcHl0aG9uJywgJy1waCcsICc3LjAnLCAnLXRuJywgJzgnLCAnLW1hJywgJzIwMCcsICctbWV0YWxfYmluZGluZycsICctaW1hZScsICc8aW5maWxlLm1hZT4nLCAnLW9tYWUnLCAnPG91dGZpbGUubWFlPic=

> <r_lp_tautomer_probability>
1

> <r_epik_Ionization_Penalty>
2.33831e-08

> <r_epik_Ionization_Penalty_Charging>
2.51001e-11

> <r_epik_Ionization_Penalty_Neutral>
2.3358e-08

> <r_epik_State_Penalty>
-0

> <r_epik_Charging_Adjusted_Penalty>
2.51001e-11

> <i_epik_Tot_Q>
0

> <i_epik_Tot_abs_Q>
0

> <r_epik_Metal_State_Penalty>
-0

> <b_epik_Metal_Only>
0

> <s_lp_Force_Field>
OPLS_2005

> <r_lp_Energy>
45.1543

> <b_lp_Chiralities_Consistent>
1

> <s_lp_Variant>
AV-unprocessed.smi:1656-1

> <Gold.Version>
5.8.1

> <Gold.Id.Protein>
6NUR|6NUR_protein|mol2

> <Gold.PLP.Fitness>
44.4642

> <Gold.PLP.PLP>
-36.7385

> <Gold.PLP.part.hbond>
-3.8829

> <Gold.PLP.part.metal>
0.0000

> <Gold.PLP.part.buried>
-3.2545

> <Gold.PLP.part.nonpolar>
-30.8025

> <Gold.PLP.part.repulsive>
0.1108

> <Gold.PLP.ligand.clash>
0.0000

> <Gold.PLP.ligand.torsion>
0.5567

> <Gold.PLP.Chemscore.Hbond>
2.9425

> <Gold.PLP.Chemscore.CHOScore>
0.0000

> <Gold.PLP.Chemscore.Metal>
0.0000

> <Gold.Chemscore.Hbonds>
donor molecule, donor type, donor heavy atom, donor atom, acceptor molecule, acceptor atom, score
      P1  H  6896  6907       L1     7  1.00
      P1  H  7997  8008       L1    23  1.00
      P1  H 10752 10763       L1    20  0.84

> <Gold.PLP.Chemscore.Internal.Correction>
0.0116

> <Gold.Rescore>
     Score         DG    S(hbond)    S(metal)    S(lipo)     H(rot)  DE(clash)    DE(int)     intcor
     20.38     -22.39       2.90        0.00      93.48       1.44       1.64       0.36       ----

> <Gold.Chemscore.Fitness>
20.3849

> <Gold.Chemscore.DG>
-22.3913

> <Gold.Chemscore.ZeroCoef>
-5.4800

> <Gold.Chemscore.Hbond>
2.8957

> <Gold.Chemscore.Metal>
0.0000

> <Gold.Chemscore.Lipo>
93.4765

> <Gold.Chemscore.Internal_Hbond>
0.0000

> <Gold.Chemscore.DEClash>
1.6435

> <Gold.Chemscore.DEInternal>
0.3629

> <Gold.Chemscore.Rot>
1.4442

> <Gold.Chemscore.Internal.Correction>
   9.000000E+99

> <Gold.Chemscore.Hbonds>
donor molecule, donor type, donor heavy atom, donor atom, acceptor molecule, acceptor atom, score
      P1  H  6896  6907       L1     7  0.95
      P1  H  7997  8008       L1    23  0.96
      P1  H 10752 10763       L1    20  0.82

> <Gold.Chemscore.Hbond.Weighted>
-9.6716

> <Gold.Chemscore.Metal.Weighted>
-0.0000

> <Gold.Chemscore.Lipo.Weighted>
-10.9367

> <Gold.Chemscore.Internal_Hbond.Weighted>
0.0000

> <Gold.Chemscore.DEClash.Weighted>
1.6435

> <Gold.Chemscore.DEInternal.Weighted>
0.3629

> <Gold.Chemscore.Rot.Weighted>
3.6971

> <Gold.Chemscore.Internal.Correction.Weighted>
   9.000000E+99

> <Gold.Protein.RotatedTorsions>
[ 6907 6896 6895 6894 ] final  -41.18 input  -60.11 | X-H torsion
[ 7974 7965 7964 7962 ] final  144.94 input  175.53 | X-H torsion
[ 8008 7997 7996 7995 ] final  -26.81 input   59.86 | X-H torsion
[ 10167 10162 10161 10158 ] final  -57.51 input  -65.29 | X-H torsion
[ 10718 10713 10712 10709 ] final   62.71 input   66.30 | X-H torsion
[ 10763 10752 10751 10750 ] final   76.09 input  -60.55 | X-H torsion
[ 11005 11000 10999 10996 ] final -171.00 input  -57.11 | X-H torsion

> <Gold.Protein.ActiveResidues>
 VAL166  LYS551  ARG553  GLY616  TRP617  ASP618  TYR619  PRO620  LYS621  CYS622 
 ASP623  PHE694  ASN695  SER759  ASP760  ASP761  ALA762  ILE779  LEU786  VAL792 
 PHE793  MET794  SER795  GLU796  ALA797  LYS798  CYS799  TRP800  GLU811  SER814 

> <Gold.Protein.RotatedAtoms>
  150.9698  134.9073  159.7780 H   0  0  0  0  0  0  0  0  0  0  0  0  # atno 6907 bound_to 6896
  152.5186  134.3557  159.9277 H   0  0  0  0  0  0  0  0  0  0  0  0  # atno 6908 bound_to 6896
  151.3566  133.3864  159.2720 H   0  0  0  0  0  0  0  0  0  0  0  0  # atno 6909 bound_to 6896
  144.8794  139.5722  143.5850 H   0  0  0  0  0  0  0  0  0  0  0  0  # atno 7974 bound_to 7965
  154.4407  140.1889  156.0833 H   0  0  0  0  0  0  0  0  0  0  0  0  # atno 8008 bound_to 7997
  156.0422  140.3318  155.7230 H   0  0  0  0  0  0  0  0  0  0  0  0  # atno 8009 bound_to 7997
  155.5683  140.0610  157.2803 H   0  0  0  0  0  0  0  0  0  0  0  0  # atno 8010 bound_to 7997
  140.6254  143.2436  151.5377 H   0  0  0  0  0  0  0  0  0  0  0  0  # atno 10167 bound_to 10162
  157.5920  130.9065  149.9623 H   0  0  0  0  0  0  0  0  0  0  0  0  # atno 10718 bound_to 10713
  153.0701  135.4964  154.8286 H   0  0  0  0  0  0  0  0  0  0  0  0  # atno 10763 bound_to 10752
  154.7010  135.3001  154.9343 H   0  0  0  0  0  0  0  0  0  0  0  0  # atno 10764 bound_to 10752
  154.0067  135.6759  153.4815 H   0  0  0  0  0  0  0  0  0  0  0  0  # atno 10765 bound_to 10752
  140.5132  134.5781  157.5025 H   0  0  0  0  0  0  0  0  0  0  0  0  # atno 11005 bound_to 11000
  146.2984  139.7350  142.9109 LP  0  0  0  0  0  0  0  0  0  0  0  0  # atno 17320 bound_to 7965
  145.3982  141.0381  143.3085 LP  0  0  0  0  0  0  0  0  0  0  0  0  # atno 17321 bound_to 7965
  139.5475  144.2483  152.1469 LP  0  0  0  0  0  0  0  0  0  0  0  0  # atno 17342 bound_to 10162
  140.1713  144.4933  150.6578 LP  0  0  0  0  0  0  0  0  0  0  0  0  # atno 17343 bound_to 10162
  156.0976  130.3658  150.0277 LP  0  0  0  0  0  0  0  0  0  0  0  0  # atno 17370 bound_to 10713
  156.8398  130.9421  151.3632 LP  0  0  0  0  0  0  0  0  0  0  0  0  # atno 17371 bound_to 10713
  139.9647  134.7393  156.0163 LP  0  0  0  0  0  0  0  0  0  0  0  0  # atno 17394 bound_to 11000
  141.1374  133.6572  156.3633 LP  0  0  0  0  0  0  0  0  0  0  0  0  # atno 17395 bound_to 11000

$$$$
