AV-unprocessed.smi:3169|AV-procd|sdf|12106|dock2
  -GOLD-   2272017543D 1   1.00000     0.00000
 Structure written by MMmdl.
 35 36  0  0  0  0  0  0  0  0  1 V2000
  150.9590  141.5552  157.8483 O   0  0  0  0  0  0  0  0  0  0  0  0
  150.8042  142.4445  157.0113 C   0  0  0  0  0  0  0  0  0  0  0  0
  151.2970  143.6842  157.1322 N   0  0  0  0  0  0  0  0  0  0  0  0
  152.1368  144.1506  158.2313 C   0  0  0  0  0  0  0  0  0  0  0  0
  151.4337  144.0415  159.5986 C   0  0  0  0  0  0  0  0  0  0  0  0
  152.2202  143.3006  160.5668 N   0  0  0  0  0  0  0  0  0  0  0  0
  152.4204  143.6179  161.9035 C   0  0  0  0  0  0  0  0  0  0  0  0
  153.2341  142.6359  162.4223 C   0  0  0  0  0  0  0  0  0  0  0  0
  153.5452  141.7105  161.4287 N   0  0  0  0  0  0  0  0  0  0  0  0
  152.9083  142.1691  160.3591 C   0  0  0  0  0  0  0  0  0  0  0  0
  150.1464  142.2828  155.8557 N   0  0  0  0  0  0  0  0  0  0  0  0
  149.5738  141.0252  155.3908 C   0  0  0  0  0  0  0  0  0  0  0  0
  150.5687  139.8631  155.5504 C   0  0  1  0  0  0  0  0  0  0  0  0
  150.2113  138.6211  154.7367 C   0  0  0  0  0  0  0  0  0  0  0  0
  151.5546  137.9417  154.5124 C   0  0  0  0  0  0  0  0  0  0  0  0
  152.5841  139.0055  154.9055 C   0  0  0  0  0  0  0  0  0  0  0  0
  151.8412  140.2095  155.0275 O   0  0  0  0  0  0  0  0  0  0  0  0
  151.1148  144.3426  156.3888 H   0  0  0  0  0  0  0  0  0  0  0  0
  153.0525  143.5589  158.2357 H   0  0  0  0  0  0  0  0  0  0  0  0
  152.4384  145.1829  158.0475 H   0  0  0  0  0  0  0  0  0  0  0  0
  151.2496  145.0384  160.0006 H   0  0  0  0  0  0  0  0  0  0  0  0
  150.4580  143.5640  159.4987 H   0  0  0  0  0  0  0  0  0  0  0  0
  151.9806  144.4915  162.3613 H   0  0  0  0  0  0  0  0  0  0  0  0
  153.6170  142.5256  163.4262 H   0  0  0  0  0  0  0  0  0  0  0  0
  152.9482  141.6741  159.3996 H   0  0  0  0  0  0  0  0  0  0  0  0
  150.0764  143.0726  155.2308 H   0  0  0  0  0  0  0  0  0  0  0  0
  148.6539  140.8137  155.9381 H   0  0  0  0  0  0  0  0  0  0  0  0
  149.2940  141.1406  154.3433 H   0  0  0  0  0  0  0  0  0  0  0  0
  150.6796  139.5900  156.6017 H   0  0  0  0  0  0  0  0  0  0  0  0
  149.4907  137.9811  155.2468 H   0  0  0  0  0  0  0  0  0  0  0  0
  149.7840  138.9080  153.7749 H   0  0  0  0  0  0  0  0  0  0  0  0
  151.6644  137.0512  155.1325 H   0  0  0  0  0  0  0  0  0  0  0  0
  151.6662  137.6408  153.4702 H   0  0  0  0  0  0  0  0  0  0  0  0
  153.0349  138.7651  155.8694 H   0  0  0  0  0  0  0  0  0  0  0  0
  153.3839  139.1077  154.1717 H   0  0  0  0  0  0  0  0  0  0  0  0
  1  2  2  0  0  0  0
  2  3  1  0  0  0  0
  2 11  1  0  0  0  0
  3  4  1  0  0  0  0
  3 18  1  0  0  0  0
  4  5  1  0  0  0  0
  4 19  1  0  0  0  0
  4 20  1  0  0  0  0
  5  6  1  0  0  0  0
  5 21  1  0  0  0  0
  5 22  1  0  0  0  0
  6 10  1  0  0  0  0
  6  7  1  0  0  0  0
  7  8  2  0  0  0  0
  7 23  1  0  0  0  0
  8  9  1  0  0  0  0
  8 24  1  0  0  0  0
  9 10  2  0  0  0  0
 10 25  1  0  0  0  0
 11 12  1  0  0  0  0
 11 26  1  0  0  0  0
 12 13  1  0  0  0  0
 12 27  1  0  0  0  0
 12 28  1  0  0  0  0
 13 17  1  0  0  0  0
 13 14  1  0  0  0  0
 13 29  1  0  0  0  0
 14 15  1  0  0  0  0
 14 30  1  0  0  0  0
 14 31  1  0  0  0  0
 15 16  1  0  0  0  0
 15 32  1  0  0  0  0
 15 33  1  0  0  0  0
 16 17  1  0  0  0  0
 16 34  1  0  0  0  0
 16 35  1  0  0  0  0
M  END
> <s_m_source_file>
AV-unprocessed.smi

> <i_m_source_file_index>
3169

> <i_lp_mmshare_version>
43012

> <i_f3d_flags>
0

> <s_epik_input>
TzFbQ0gyXVtDSDJdW0NIMl1bQ0BIXTFbQ0gyXVtOSF1DKD1PKVtOSF1bQ0gyXVtDSDJdbjJbY0hdW2NIXW5bY0hdMg==

> <s_epik_cmdline>
J2VwaWtfcHl0aG9uJywgJy1waCcsICc3LjAnLCAnLXRuJywgJzgnLCAnLW1hJywgJzIwMCcsICctbWV0YWxfYmluZGluZycsICctaW1hZScsICc8aW5maWxlLm1hZT4nLCAnLW9tYWUnLCAnPG91dGZpbGUubWFlPic=

> <r_lp_tautomer_probability>
1

> <r_epik_Ionization_Penalty>
0.620462

> <r_epik_Ionization_Penalty_Charging>
0.620414

> <r_epik_Ionization_Penalty_Neutral>
4.72016e-05

> <r_epik_State_Penalty>
0.636391

> <r_epik_Charging_Adjusted_Penalty>
1.25681

> <i_epik_Tot_Q>
0

> <i_epik_Tot_abs_Q>
0

> <r_epik_Metal_State_Penalty>
0.306539

> <b_epik_Metal_Only>
0

> <s_lp_Force_Field>
OPLS_2005

> <r_lp_Energy>
15.8228

> <b_lp_Chiralities_Consistent>
1

> <s_lp_Variant>
AV-unprocessed.smi:3169-4

> <Gold.Version>
5.8.1

> <Gold.Id.Protein>
6NUR|6NUR_protein|mol2

> <Gold.PLP.Fitness>
49.6059

> <Gold.PLP.PLP>
-46.3978

> <Gold.PLP.part.hbond>
-2.9860

> <Gold.PLP.part.metal>
0.0000

> <Gold.PLP.part.buried>
-6.8208

> <Gold.PLP.part.nonpolar>
-37.0631

> <Gold.PLP.part.repulsive>
0.2225

> <Gold.PLP.ligand.clash>
0.0000

> <Gold.PLP.ligand.torsion>
0.7751

> <Gold.PLP.Chemscore.Hbond>
1.5660

> <Gold.PLP.Chemscore.CHOScore>
0.0000

> <Gold.PLP.Chemscore.Metal>
0.0000

> <Gold.Chemscore.Hbonds>
donor molecule, donor type, donor heavy atom, donor atom, acceptor molecule, acceptor atom, score
      L1  H     3    18       P1  8028  0.09
      L1  H    11    26       P1  8028  0.42
      P1  H  7989  7998       L1    17  0.86

> <Gold.PLP.Chemscore.Internal.Correction>
0.0603

> <Gold.Rescore>
     Score         DG    S(hbond)    S(metal)    S(lipo)     H(rot)  DE(clash)    DE(int)     intcor
     14.64     -16.84       2.28        0.00      81.08       2.25       0.01       2.19       ----

> <Gold.Chemscore.Fitness>
14.6377

> <Gold.Chemscore.DG>
-16.8370

> <Gold.Chemscore.ZeroCoef>
-5.4800

> <Gold.Chemscore.Hbond>
2.2825

> <Gold.Chemscore.Metal>
0.0000

> <Gold.Chemscore.Lipo>
81.0841

> <Gold.Chemscore.Internal_Hbond>
0.0000

> <Gold.Chemscore.DEClash>
0.0082

> <Gold.Chemscore.DEInternal>
2.1910

> <Gold.Chemscore.Rot>
2.2474

> <Gold.Chemscore.Internal.Correction>
   9.000000E+99

> <Gold.Chemscore.Hbonds>
donor molecule, donor type, donor heavy atom, donor atom, acceptor molecule, acceptor atom, score
      L1  H     3    18       P1  8028  0.10
      L1  H    11    26       P1  8028  0.40
      P1  H  7989  7998       L1    17  0.41

> <Gold.Chemscore.Hbond.Weighted>
-7.6234

> <Gold.Chemscore.Metal.Weighted>
-0.0000

> <Gold.Chemscore.Lipo.Weighted>
-9.4868

> <Gold.Chemscore.Internal_Hbond.Weighted>
0.0000

> <Gold.Chemscore.DEClash.Weighted>
0.0082

> <Gold.Chemscore.DEInternal.Weighted>
2.1910

> <Gold.Chemscore.Rot.Weighted>
5.7532

> <Gold.Chemscore.Internal.Correction.Weighted>
   9.000000E+99

> <Gold.Protein.RotatedTorsions>
[ 6907 6896 6895 6894 ] final  -37.47 input  -60.11 | X-H torsion
[ 7974 7965 7964 7962 ] final -172.18 input  175.53 | X-H torsion
[ 8008 7997 7996 7995 ] final  -74.94 input   59.86 | X-H torsion
[ 10167 10162 10161 10158 ] final  -98.55 input  -65.29 | X-H torsion
[ 10718 10713 10712 10709 ] final   14.48 input   66.30 | X-H torsion
[ 10763 10752 10751 10750 ] final  -97.28 input  -60.55 | X-H torsion
[ 11005 11000 10999 10996 ] final  104.94 input  -57.11 | X-H torsion

> <Gold.Protein.ActiveResidues>
 VAL166  LYS551  ARG553  GLY616  TRP617  ASP618  TYR619  PRO620  LYS621  CYS622 
 ASP623  PHE694  ASN695  SER759  ASP760  ASP761  ALA762  ILE779  LEU786  VAL792 
 PHE793  MET794  SER795  GLU796  ALA797  LYS798  CYS799  TRP800  GLU811  SER814 

> <Gold.Protein.RotatedAtoms>
  151.0143  134.9420  159.8023 H   0  0  0  0  0  0  0  0  0  0  0  0  # atno 6907 bound_to 6896
  152.5310  134.2987  159.9080 H   0  0  0  0  0  0  0  0  0  0  0  0  # atno 6908 bound_to 6896
  151.2994  133.4087  159.2673 H   0  0  0  0  0  0  0  0  0  0  0  0  # atno 6909 bound_to 6896
  144.7149  140.1811  143.6358 H   0  0  0  0  0  0  0  0  0  0  0  0  # atno 7974 bound_to 7965
  154.5374  140.0752  156.8451 H   0  0  0  0  0  0  0  0  0  0  0  0  # atno 8008 bound_to 7997
  155.3250  140.3398  155.4222 H   0  0  0  0  0  0  0  0  0  0  0  0  # atno 8009 bound_to 7997
  156.1841  140.1663  156.8204 H   0  0  0  0  0  0  0  0  0  0  0  0  # atno 8010 bound_to 7997
  140.2718  143.3339  152.0527 H   0  0  0  0  0  0  0  0  0  0  0  0  # atno 10167 bound_to 10162
  157.0397  130.6226  149.5749 H   0  0  0  0  0  0  0  0  0  0  0  0  # atno 10718 bound_to 10713
  154.7314  135.5052  153.8969 H   0  0  0  0  0  0  0  0  0  0  0  0  # atno 10763 bound_to 10752
  153.0953  135.6670  153.9784 H   0  0  0  0  0  0  0  0  0  0  0  0  # atno 10764 bound_to 10752
  153.9584  135.3050  155.3414 H   0  0  0  0  0  0  0  0  0  0  0  0  # atno 10765 bound_to 10752
  139.8797  134.9318  156.5437 H   0  0  0  0  0  0  0  0  0  0  0  0  # atno 11005 bound_to 11000
  145.8855  139.2347  143.1580 LP  0  0  0  0  0  0  0  0  0  0  0  0  # atno 17320 bound_to 7965
  145.9953  140.8567  143.0045 LP  0  0  0  0  0  0  0  0  0  0  0  0  # atno 17321 bound_to 7965
  139.4987  144.6651  151.6374 LP  0  0  0  0  0  0  0  0  0  0  0  0  # atno 17342 bound_to 10162
  140.5884  143.9824  150.6309 LP  0  0  0  0  0  0  0  0  0  0  0  0  # atno 17343 bound_to 10162
  156.0042  130.5126  150.7772 LP  0  0  0  0  0  0  0  0  0  0  0  0  # atno 17370 bound_to 10713
  157.5114  131.0925  151.0193 LP  0  0  0  0  0  0  0  0  0  0  0  0  # atno 17371 bound_to 10713
  140.8291  133.8293  155.8967 LP  0  0  0  0  0  0  0  0  0  0  0  0  # atno 17394 bound_to 11000
  140.9346  134.1979  157.4840 LP  0  0  0  0  0  0  0  0  0  0  0  0  # atno 17395 bound_to 11000

$$$$
