AV-unprocessed.smi:818|AV-procd|sdf|3832|dock10
  -GOLD-   22720 1273D 1   1.00000     0.00000
 Structure written by MMmdl.
 44 45  0  0  0  0  0  0  0  0  1 V2000
  143.7136  132.7221  148.3131 C   0  0  0  0  0  0  0  0  0  0  0  0
  143.6551  132.3094  149.7883 C   0  0  0  0  0  0  0  0  0  0  0  0
  144.1101  133.3745  150.6601 N   0  0  0  0  0  0  0  0  0  0  0  0
  145.2578  134.1345  150.5515 C   0  0  0  0  0  0  0  0  0  0  0  0
  145.2253  135.0041  151.6048 C   0  0  0  0  0  0  0  0  0  0  0  0
  146.1549  136.0104  151.9694 N   0  0  0  0  0  0  0  0  0  0  0  0
  145.9571  137.0349  152.8150 C   0  0  0  0  0  0  0  0  0  0  0  0
  144.9044  137.2705  153.4088 O   0  0  0  0  0  0  0  0  0  0  0  0
  147.0629  137.7835  152.9409 N   0  0  0  0  0  0  0  0  0  0  0  0
  147.1938  138.9529  153.8089 C   0  0  2  0  0  0  0  0  0  0  0  0
  147.1049  140.2119  152.9305 C   0  0  0  0  0  0  0  0  0  0  0  0
  148.5609  138.9536  154.5113 C   0  0  0  0  0  0  0  0  0  0  0  0
  148.8500  139.8359  155.3215 O   0  0  0  0  0  0  0  0  0  0  0  0
  149.3883  137.9458  154.1963 N   0  0  0  0  0  0  0  0  0  0  0  0
  150.7304  137.7629  154.7407 C   0  0  0  0  0  0  0  0  0  0  0  0
  150.6931  137.3918  156.2384 C   0  0  0  0  0  0  0  0  0  0  0  0
  151.6697  138.3407  156.9355 C   0  0  0  0  0  0  0  0  0  0  0  0
  151.6520  139.5996  156.0747 C   0  0  0  0  0  0  0  0  0  0  0  0
  151.5364  139.0711  154.6447 C   0  0  0  0  0  0  0  0  0  0  0  0
  144.0287  134.7140  152.3100 C   0  0  0  0  0  0  0  0  0  0  0  0
  143.3594  133.7276  151.7329 N   0  0  0  0  0  0  0  0  0  0  0  0
  143.3713  131.9111  147.6703 H   0  0  0  0  0  0  0  0  0  0  0  0
  144.7315  132.9759  148.0158 H   0  0  0  0  0  0  0  0  0  0  0  0
  143.0812  133.5893  148.1197 H   0  0  0  0  0  0  0  0  0  0  0  0
  142.6365  132.0357  150.0670 H   0  0  0  0  0  0  0  0  0  0  0  0
  144.2775  131.4301  149.9584 H   0  0  0  0  0  0  0  0  0  0  0  0
  145.9689  133.9884  149.7518 H   0  0  0  0  0  0  0  0  0  0  0  0
  147.0701  135.9362  151.5499 H   0  0  0  0  0  0  0  0  0  0  0  0
  147.8839  137.5113  152.4205 H   0  0  0  0  0  0  0  0  0  0  0  0
  146.3882  138.9626  154.5460 H   0  0  0  0  0  0  0  0  0  0  0  0
  147.1936  141.1196  153.5290 H   0  0  0  0  0  0  0  0  0  0  0  0
  146.1459  140.2583  152.4134 H   0  0  0  0  0  0  0  0  0  0  0  0
  147.8891  140.2354  152.1722 H   0  0  0  0  0  0  0  0  0  0  0  0
  149.0708  137.2638  153.5230 H   0  0  0  0  0  0  0  0  0  0  0  0
  151.2488  136.9887  154.1717 H   0  0  0  0  0  0  0  0  0  0  0  0
  149.6940  137.5477  156.6495 H   0  0  0  0  0  0  0  0  0  0  0  0
  150.9496  136.3456  156.4092 H   0  0  0  0  0  0  0  0  0  0  0  0
  151.3965  138.5366  157.9727 H   0  0  0  0  0  0  0  0  0  0  0  0
  152.6709  137.9076  156.9301 H   0  0  0  0  0  0  0  0  0  0  0  0
  150.7740  140.1994  156.3183 H   0  0  0  0  0  0  0  0  0  0  0  0
  152.5346  140.2228  156.2223 H   0  0  0  0  0  0  0  0  0  0  0  0
  152.5344  138.8490  154.2646 H   0  0  0  0  0  0  0  0  0  0  0  0
  151.0945  139.8058  153.9699 H   0  0  0  0  0  0  0  0  0  0  0  0
  143.6307  135.1766  153.2013 H   0  0  0  0  0  0  0  0  0  0  0  0
  1  2  1  0  0  0  0
  1 22  1  0  0  0  0
  1 23  1  0  0  0  0
  1 24  1  0  0  0  0
  2  3  1  0  0  0  0
  2 25  1  0  0  0  0
  2 26  1  0  0  0  0
  3 21  1  0  0  0  0
  3  4  1  0  0  0  0
  4  5  2  0  0  0  0
  4 27  1  0  0  0  0
  5  6  1  0  0  0  0
  5 20  1  0  0  0  0
  6  7  1  0  0  0  0
  6 28  1  0  0  0  0
  7  8  2  0  0  0  0
  7  9  1  0  0  0  0
  9 10  1  0  0  0  0
  9 29  1  0  0  0  0
 10 11  1  0  0  0  0
 10 12  1  0  0  0  0
 10 30  1  0  0  0  0
 11 31  1  0  0  0  0
 11 32  1  0  0  0  0
 11 33  1  0  0  0  0
 12 13  2  0  0  0  0
 12 14  1  0  0  0  0
 14 15  1  0  0  0  0
 14 34  1  0  0  0  0
 15 19  1  0  0  0  0
 15 16  1  0  0  0  0
 15 35  1  0  0  0  0
 16 17  1  0  0  0  0
 16 36  1  0  0  0  0
 16 37  1  0  0  0  0
 17 18  1  0  0  0  0
 17 38  1  0  0  0  0
 17 39  1  0  0  0  0
 18 19  1  0  0  0  0
 18 40  1  0  0  0  0
 18 41  1  0  0  0  0
 19 42  1  0  0  0  0
 19 43  1  0  0  0  0
 20 21  2  0  0  0  0
 20 44  1  0  0  0  0
M  END
> <s_m_source_file>
AV-unprocessed.smi

> <i_m_source_file_index>
818

> <i_lp_mmshare_version>
43012

> <i_f3d_flags>
0

> <s_epik_input>
W0NIM11bQ0gyXW4xW2NIXWMoW2NIXW4xKVtOSF1DKD1PKVtOSF1bQ0BIXShbQ0gzXSlDKD1PKVtOSF1bQ0hdMltDSDJdW0NIMl1bQ0gyXVtDSDJdMg==

> <s_epik_cmdline>
J2VwaWtfcHl0aG9uJywgJy1waCcsICc3LjAnLCAnLXRuJywgJzgnLCAnLW1hJywgJzIwMCcsICctbWV0YWxfYmluZGluZycsICctaW1hZScsICc8aW5maWxlLm1hZT4nLCAnLW9tYWUnLCAnPG91dGZpbGUubWFlPic=

> <r_lp_tautomer_probability>
1

> <r_epik_Ionization_Penalty>
0.00015627

> <r_epik_Ionization_Penalty_Charging>
0

> <r_epik_Ionization_Penalty_Neutral>
0.00015627

> <r_epik_State_Penalty>
-0

> <r_epik_Charging_Adjusted_Penalty>
0

> <i_epik_Tot_Q>
0

> <i_epik_Tot_abs_Q>
0

> <r_epik_Metal_State_Penalty>
-0

> <b_epik_Metal_Only>
0

> <s_lp_Force_Field>
OPLS_2005

> <r_lp_Energy>
21.5062

> <b_lp_Chiralities_Consistent>
1

> <s_lp_Variant>
AV-unprocessed.smi:818-1

> <Gold.Version>
5.8.1

> <Gold.Id.Protein>
6NUR|6NUR_protein|mol2

> <Gold.PLP.Fitness>
44.6392

> <Gold.PLP.PLP>
-34.0077

> <Gold.PLP.part.hbond>
-3.0000

> <Gold.PLP.part.metal>
0.0000

> <Gold.PLP.part.buried>
-2.8394

> <Gold.PLP.part.nonpolar>
-29.2672

> <Gold.PLP.part.repulsive>
0.4908

> <Gold.PLP.ligand.clash>
0.0000

> <Gold.PLP.ligand.torsion>
0.5258

> <Gold.PLP.Chemscore.Hbond>
2.9280

> <Gold.PLP.Chemscore.CHOScore>
0.9595

> <Gold.PLP.Chemscore.Metal>
0.0000

> <Gold.Chemscore.Hbonds>
donor molecule, donor type, donor heavy atom, donor atom, acceptor molecule, acceptor atom, score
      L1  H     6    28       P1  7948  0.91
      L1  H     9    29       P1  7948  0.99
      L1  H    14    34       P1  7948  1.00
      L1  C     4    27       P1  7921  0.98

> <Gold.PLP.Chemscore.Internal.Correction>
0.0205

> <Gold.Rescore>
     Score         DG    S(hbond)    S(metal)    S(lipo)     H(rot)  DE(clash)    DE(int)     intcor
     16.46     -20.64       2.85        0.00      84.95       1.68       0.19       4.00       ----

> <Gold.Chemscore.Fitness>
16.4552

> <Gold.Chemscore.DG>
-20.6449

> <Gold.Chemscore.ZeroCoef>
-5.4800

> <Gold.Chemscore.Hbond>
2.8545

> <Gold.Chemscore.Metal>
0.0000

> <Gold.Chemscore.Lipo>
84.9471

> <Gold.Chemscore.Internal_Hbond>
0.0000

> <Gold.Chemscore.DEClash>
0.1900

> <Gold.Chemscore.DEInternal>
3.9997

> <Gold.Chemscore.Rot>
1.6828

> <Gold.Chemscore.Internal.Correction>
   9.000000E+99

> <Gold.Chemscore.Hbonds>
donor molecule, donor type, donor heavy atom, donor atom, acceptor molecule, acceptor atom, score
      L1  H     6    28       P1  7948  0.88
      L1  H     9    29       P1  7948  0.94
      L1  H    14    34       P1  7948  0.98

> <Gold.Chemscore.Hbond.Weighted>
-9.5341

> <Gold.Chemscore.Metal.Weighted>
-0.0000

> <Gold.Chemscore.Lipo.Weighted>
-9.9388

> <Gold.Chemscore.Internal_Hbond.Weighted>
0.0000

> <Gold.Chemscore.DEClash.Weighted>
0.1900

> <Gold.Chemscore.DEInternal.Weighted>
3.9997

> <Gold.Chemscore.Rot.Weighted>
4.3081

> <Gold.Chemscore.Internal.Correction.Weighted>
   9.000000E+99

> <Gold.Protein.RotatedTorsions>
[ 6907 6896 6895 6894 ] final    7.91 input  -60.11 | X-H torsion
[ 7974 7965 7964 7962 ] final -128.38 input  175.53 | X-H torsion
[ 8008 7997 7996 7995 ] final  -46.27 input   59.86 | X-H torsion
[ 10167 10162 10161 10158 ] final  -23.81 input  -65.29 | X-H torsion
[ 10718 10713 10712 10709 ] final  -87.21 input   66.30 | X-H torsion
[ 10763 10752 10751 10750 ] final  124.29 input  -60.55 | X-H torsion
[ 11005 11000 10999 10996 ] final -146.91 input  -57.11 | X-H torsion

> <Gold.Protein.ActiveResidues>
 VAL166  LYS551  ARG553  GLY616  TRP617  ASP618  TYR619  PRO620  LYS621  CYS622 
 ASP623  PHE694  ASN695  SER759  ASP760  ASP761  ALA762  ILE779  LEU786  VAL792 
 PHE793  MET794  SER795  GLU796  ALA797  LYS798  CYS799  TRP800  GLU811  SER814 

> <Gold.Protein.RotatedAtoms>
  151.6975  135.0936  160.0244 H   0  0  0  0  0  0  0  0  0  0  0  0  # atno 6907 bound_to 6896
  152.3741  133.6453  159.6118 H   0  0  0  0  0  0  0  0  0  0  0  0  # atno 6908 bound_to 6896
  150.7696  133.9138  159.3419 H   0  0  0  0  0  0  0  0  0  0  0  0  # atno 6909 bound_to 6896
  144.9676  140.7512  143.4690 H   0  0  0  0  0  0  0  0  0  0  0  0  # atno 7974 bound_to 7965
  154.4006  140.1376  156.3984 H   0  0  0  0  0  0  0  0  0  0  0  0  # atno 8008 bound_to 7997
  155.7848  140.3480  155.5296 H   0  0  0  0  0  0  0  0  0  0  0  0  # atno 8009 bound_to 7997
  155.8638  140.0961  157.1586 H   0  0  0  0  0  0  0  0  0  0  0  0  # atno 8010 bound_to 7997
  140.7288  143.4410  151.0658 H   0  0  0  0  0  0  0  0  0  0  0  0  # atno 10167 bound_to 10162
  155.9986  130.4792  150.4833 H   0  0  0  0  0  0  0  0  0  0  0  0  # atno 10718 bound_to 10713
  153.6590  135.3349  155.3122 H   0  0  0  0  0  0  0  0  0  0  0  0  # atno 10763 bound_to 10752
  154.8519  135.4359  154.1824 H   0  0  0  0  0  0  0  0  0  0  0  0  # atno 10764 bound_to 10752
  153.2786  135.7007  153.7483 H   0  0  0  0  0  0  0  0  0  0  0  0  # atno 10765 bound_to 10752
  140.7771  134.3122  157.5057 H   0  0  0  0  0  0  0  0  0  0  0  0  # atno 11005 bound_to 11000
  145.2607  139.1994  143.4894 LP  0  0  0  0  0  0  0  0  0  0  0  0  # atno 17320 bound_to 7965
  146.3372  140.2536  142.8599 LP  0  0  0  0  0  0  0  0  0  0  0  0  # atno 17321 bound_to 7965
  139.8076  143.7995  152.3168 LP  0  0  0  0  0  0  0  0  0  0  0  0  # atno 17342 bound_to 10162
  139.8034  144.7365  150.9794 LP  0  0  0  0  0  0  0  0  0  0  0  0  # atno 17343 bound_to 10162
  157.2836  131.0612  151.2181 LP  0  0  0  0  0  0  0  0  0  0  0  0  # atno 17370 bound_to 10713
  157.3219  130.6941  149.6274 LP  0  0  0  0  0  0  0  0  0  0  0  0  # atno 17371 bound_to 10713
  139.8747  134.9296  156.3480 LP  0  0  0  0  0  0  0  0  0  0  0  0  # atno 17394 bound_to 11000
  140.9518  133.7446  156.0282 LP  0  0  0  0  0  0  0  0  0  0  0  0  # atno 17395 bound_to 11000

$$$$
