AV-unprocessed.smi:2126|AV-procd|sdf|8676|dock6
  -GOLD-   2272011433D 1   1.00000     0.00000
 Structure written by MMmdl.
 40 42  0  0  0  0  0  0  0  0  1 V2000
  142.8864  145.2322  154.8511 C   0  0  0  0  0  0  0  0  0  0  0  0
  143.3582  144.1330  155.6168 O   0  0  0  0  0  0  0  0  0  0  0  0
  144.4242  143.4105  155.1251 C   0  0  0  0  0  0  0  0  0  0  0  0
  145.0531  143.6634  153.8813 C   0  0  0  0  0  0  0  0  0  0  0  0
  146.1383  142.8720  153.4579 C   0  0  0  0  0  0  0  0  0  0  0  0
  146.6221  141.8174  154.2568 C   0  0  0  0  0  0  0  0  0  0  0  0
  147.6874  141.0949  153.7640 O   0  0  0  0  0  0  0  0  0  0  0  0
  148.0783  139.9153  154.4548 C   0  0  0  0  0  0  0  0  0  0  0  0
  149.4509  140.1503  155.1016 C   0  0  1  0  0  0  0  0  0  0  0  0
  150.3984  140.3826  154.0778 O   0  0  0  0  0  0  0  0  0  0  0  0
  149.4423  141.3379  156.0839 C   0  0  0  0  0  0  0  0  0  0  0  0
  150.3860  141.1636  157.1730 N   0  0  0  0  0  0  0  0  0  0  0  0
  150.9496  140.0121  157.5866 C   0  0  0  0  0  0  0  0  0  0  0  0
  151.7922  140.0811  158.6136 N   0  0  0  0  0  0  0  0  0  0  0  0
  151.7791  141.4364  158.8953 C   0  0  0  0  0  0  0  0  0  0  0  0
  152.4686  142.1754  159.8833 C   0  0  0  0  0  0  0  0  0  0  0  0
  152.2962  143.5720  159.9808 C   0  0  0  0  0  0  0  0  0  0  0  0
  151.4334  144.2500  159.0951 C   0  0  0  0  0  0  0  0  0  0  0  0
  150.7347  143.5352  158.1034 C   0  0  0  0  0  0  0  0  0  0  0  0
  150.9099  142.1423  158.0097 C   0  0  0  0  0  0  0  0  0  0  0  0
  145.9942  141.5655  155.5012 C   0  0  0  0  0  0  0  0  0  0  0  0
  144.9081  142.3558  155.9239 C   0  0  0  0  0  0  0  0  0  0  0  0
  142.0509  145.7001  155.3713 H   0  0  0  0  0  0  0  0  0  0  0  0
  142.5276  144.9112  153.8722 H   0  0  0  0  0  0  0  0  0  0  0  0
  143.6603  145.9902  154.7214 H   0  0  0  0  0  0  0  0  0  0  0  0
  144.7222  144.4594  153.2321 H   0  0  0  0  0  0  0  0  0  0  0  0
  146.6060  143.0785  152.5063 H   0  0  0  0  0  0  0  0  0  0  0  0
  147.3414  139.6905  155.2280 H   0  0  0  0  0  0  0  0  0  0  0  0
  148.1263  139.0629  153.7749 H   0  0  0  0  0  0  0  0  0  0  0  0
  149.7540  139.2428  155.6253 H   0  0  0  0  0  0  0  0  0  0  0  0
  149.9466  140.3858  153.2476 H   0  0  0  0  0  0  0  0  0  0  0  0
  149.6772  142.2668  155.5618 H   0  0  0  0  0  0  0  0  0  0  0  0
  148.4491  141.4661  156.5155 H   0  0  0  0  0  0  0  0  0  0  0  0
  150.7249  139.0693  157.1092 H   0  0  0  0  0  0  0  0  0  0  0  0
  153.1319  141.6667  160.5670 H   0  0  0  0  0  0  0  0  0  0  0  0
  152.8293  144.1262  160.7394 H   0  0  0  0  0  0  0  0  0  0  0  0
  151.3080  145.3198  159.1777 H   0  0  0  0  0  0  0  0  0  0  0  0
  150.0723  144.0504  157.4235 H   0  0  0  0  0  0  0  0  0  0  0  0
  146.3259  140.7711  156.1520 H   0  0  0  0  0  0  0  0  0  0  0  0
  144.4409  142.1487  156.8755 H   0  0  0  0  0  0  0  0  0  0  0  0
  1  2  1  0  0  0  0
  1 23  1  0  0  0  0
  1 24  1  0  0  0  0
  1 25  1  0  0  0  0
  2  3  1  0  0  0  0
  3 22  1  0  0  0  0
  3  4  2  0  0  0  0
  4  5  1  0  0  0  0
  4 26  1  0  0  0  0
  5  6  2  0  0  0  0
  5 27  1  0  0  0  0
  6  7  1  0  0  0  0
  6 21  1  0  0  0  0
  7  8  1  0  0  0  0
  8  9  1  0  0  0  0
  8 28  1  0  0  0  0
  8 29  1  0  0  0  0
  9 10  1  0  0  0  0
  9 11  1  0  0  0  0
  9 30  1  0  0  0  0
 10 31  1  0  0  0  0
 11 12  1  0  0  0  0
 11 32  1  0  0  0  0
 11 33  1  0  0  0  0
 12 20  1  0  0  0  0
 12 13  1  0  0  0  0
 13 14  2  0  0  0  0
 13 34  1  0  0  0  0
 14 15  1  0  0  0  0
 15 20  2  0  0  0  0
 15 16  1  0  0  0  0
 16 17  2  0  0  0  0
 16 35  1  0  0  0  0
 17 18  1  0  0  0  0
 17 36  1  0  0  0  0
 18 19  2  0  0  0  0
 18 37  1  0  0  0  0
 19 20  1  0  0  0  0
 19 38  1  0  0  0  0
 21 22  2  0  0  0  0
 21 39  1  0  0  0  0
 22 40  1  0  0  0  0
M  END
> <s_m_source_file>
AV-unprocessed.smi

> <i_m_source_file_index>
2126

> <i_lp_mmshare_version>
43012

> <i_f3d_flags>
0

> <s_epik_input>
W0NIM11PYzFbY0hdW2NIXWMoW2NIXVtjSF0xKU9bQ0gyXVtDQEhdKFtPSF0pW0NIMl1uKFtjSF1uMiljKGMyMylbY0hdW2NIXVtjSF1bY0hdMw==

> <s_epik_cmdline>
J2VwaWtfcHl0aG9uJywgJy1waCcsICc3LjAnLCAnLXRuJywgJzgnLCAnLW1hJywgJzIwMCcsICctbWV0YWxfYmluZGluZycsICctaW1hZScsICc8aW5maWxlLm1hZT4nLCAnLW9tYWUnLCAnPG91dGZpbGUubWFlPic=

> <r_lp_tautomer_probability>
1

> <r_epik_Ionization_Penalty>
0.0608933

> <r_epik_Ionization_Penalty_Charging>
0

> <r_epik_Ionization_Penalty_Neutral>
0.0608933

> <r_epik_State_Penalty>
0.0528196

> <r_epik_Charging_Adjusted_Penalty>
0.0528196

> <i_epik_Tot_Q>
0

> <i_epik_Tot_abs_Q>
0

> <r_epik_Metal_State_Penalty>
5.52429e-05

> <b_epik_Metal_Only>
0

> <s_lp_Force_Field>
OPLS_2005

> <r_lp_Energy>
17.4847

> <b_lp_Chiralities_Consistent>
1

> <s_lp_Variant>
AV-unprocessed.smi:2126-2

> <Gold.Version>
5.8.1

> <Gold.Id.Protein>
6NUR|6NUR_protein|mol2

> <Gold.PLP.Fitness>
49.9787

> <Gold.PLP.PLP>
-46.1366

> <Gold.PLP.part.hbond>
-1.7922

> <Gold.PLP.part.metal>
0.0000

> <Gold.PLP.part.buried>
-7.7061

> <Gold.PLP.part.nonpolar>
-38.0651

> <Gold.PLP.part.repulsive>
0.2229

> <Gold.PLP.ligand.clash>
0.0000

> <Gold.PLP.ligand.torsion>
1.0850

> <Gold.PLP.Chemscore.Hbond>
1.9600

> <Gold.PLP.Chemscore.CHOScore>
0.0000

> <Gold.PLP.Chemscore.Metal>
0.0000

> <Gold.Chemscore.Hbonds>
donor molecule, donor type, donor heavy atom, donor atom, acceptor molecule, acceptor atom, score
      L1  H    10    31       P1  7957  0.73
      P1  H  7989  7998       L1    10  0.43

> <Gold.PLP.Chemscore.Internal.Correction>
0.1320

> <Gold.Rescore>
     Score         DG    S(hbond)    S(metal)    S(lipo)     H(rot)  DE(clash)    DE(int)     intcor
     17.82     -18.79       1.74        0.00     119.09       2.51       0.07       0.91       ----

> <Gold.Chemscore.Fitness>
17.8174

> <Gold.Chemscore.DG>
-18.7924

> <Gold.Chemscore.ZeroCoef>
-5.4800

> <Gold.Chemscore.Hbond>
1.7365

> <Gold.Chemscore.Metal>
0.0000

> <Gold.Chemscore.Lipo>
119.0923

> <Gold.Chemscore.Internal_Hbond>
0.0000

> <Gold.Chemscore.DEClash>
0.0691

> <Gold.Chemscore.DEInternal>
0.9059

> <Gold.Chemscore.Rot>
2.5083

> <Gold.Chemscore.Internal.Correction>
   9.000000E+99

> <Gold.Chemscore.Hbonds>
donor molecule, donor type, donor heavy atom, donor atom, acceptor molecule, acceptor atom, score
      L1  H    10    31       P1  7957  0.72
      P1  H  7989  7998       L1    10  0.03

> <Gold.Chemscore.Hbond.Weighted>
-5.7998

> <Gold.Chemscore.Metal.Weighted>
-0.0000

> <Gold.Chemscore.Lipo.Weighted>
-13.9338

> <Gold.Chemscore.Internal_Hbond.Weighted>
0.0000

> <Gold.Chemscore.DEClash.Weighted>
0.0691

> <Gold.Chemscore.DEInternal.Weighted>
0.9059

> <Gold.Chemscore.Rot.Weighted>
6.4212

> <Gold.Chemscore.Internal.Correction.Weighted>
   9.000000E+99

> <Gold.Protein.RotatedTorsions>
[ 6907 6896 6895 6894 ] final -137.67 input  -60.11 | X-H torsion
[ 7974 7965 7964 7962 ] final  -29.91 input  175.53 | X-H torsion
[ 8008 7997 7996 7995 ] final  152.23 input   59.86 | X-H torsion
[ 10167 10162 10161 10158 ] final  -11.76 input  -65.29 | X-H torsion
[ 10718 10713 10712 10709 ] final  -40.89 input   66.30 | X-H torsion
[ 10763 10752 10751 10750 ] final   58.34 input  -60.55 | X-H torsion
[ 11005 11000 10999 10996 ] final  -83.56 input  -57.11 | X-H torsion

> <Gold.Protein.ActiveResidues>
 VAL166  LYS551  ARG553  GLY616  TRP617  ASP618  TYR619  PRO620  LYS621  CYS622 
 ASP623  PHE694  ASN695  SER759  ASP760  ASP761  ALA762  ILE779  LEU786  VAL792 
 PHE793  MET794  SER795  GLU796  ALA797  LYS798  CYS799  TRP800  GLU811  SER814 

> <Gold.Protein.RotatedAtoms>
  151.0254  133.5838  159.2666 H   0  0  0  0  0  0  0  0  0  0  0  0  # atno 6907 bound_to 6896
  151.2939  135.0749  159.9224 H   0  0  0  0  0  0  0  0  0  0  0  0  # atno 6908 bound_to 6896
  152.5333  133.9948  159.7921 H   0  0  0  0  0  0  0  0  0  0  0  0  # atno 6909 bound_to 6896
  146.1182  140.5473  142.8747 H   0  0  0  0  0  0  0  0  0  0  0  0  # atno 7974 bound_to 7965
  156.2638  140.2026  156.6301 H   0  0  0  0  0  0  0  0  0  0  0  0  # atno 8008 bound_to 7997
  154.6690  140.0552  157.0169 H   0  0  0  0  0  0  0  0  0  0  0  0  # atno 8009 bound_to 7997
  155.1165  140.3220  155.4511 H   0  0  0  0  0  0  0  0  0  0  0  0  # atno 8010 bound_to 7997
  140.7146  143.5605  150.9201 H   0  0  0  0  0  0  0  0  0  0  0  0  # atno 10167 bound_to 10162
  156.2764  130.4212  149.8383 H   0  0  0  0  0  0  0  0  0  0  0  0  # atno 10718 bound_to 10713
  152.9869  135.5610  154.5536 H   0  0  0  0  0  0  0  0  0  0  0  0  # atno 10763 bound_to 10752
  154.4968  135.2795  155.1455 H   0  0  0  0  0  0  0  0  0  0  0  0  # atno 10764 bound_to 10752
  154.2901  135.6328  153.5435 H   0  0  0  0  0  0  0  0  0  0  0  0  # atno 10765 bound_to 10752
  141.1657  133.7301  156.8738 H   0  0  0  0  0  0  0  0  0  0  0  0  # atno 11005 bound_to 11000
  144.7572  140.5336  143.6760 LP  0  0  0  0  0  0  0  0  0  0  0  0  # atno 17320 bound_to 7965
  145.5522  139.1477  143.3388 LP  0  0  0  0  0  0  0  0  0  0  0  0  # atno 17321 bound_to 7965
  139.9330  143.6471  152.3072 LP  0  0  0  0  0  0  0  0  0  0  0  0  # atno 17342 bound_to 10162
  139.6928  144.7645  151.1408 LP  0  0  0  0  0  0  0  0  0  0  0  0  # atno 17343 bound_to 10162
  156.5846  130.8480  151.3392 LP  0  0  0  0  0  0  0  0  0  0  0  0  # atno 17370 bound_to 10713
  157.7300  130.9680  150.1815 LP  0  0  0  0  0  0  0  0  0  0  0  0  # atno 17371 bound_to 10713
  140.1763  134.9065  157.2894 LP  0  0  0  0  0  0  0  0  0  0  0  0  # atno 17394 bound_to 11000
  140.2445  134.3756  155.7467 LP  0  0  0  0  0  0  0  0  0  0  0  0  # atno 17395 bound_to 11000

$$$$
