AV-unprocessed.smi:2245|AV-procd|sdf|9079|dock3
  -GOLD-   2272012283D 1   1.00000     0.00000
 Structure written by MMmdl.
 45 46  0  0  0  0  0  0  0  0  2 V2000
  151.8618  145.6686  160.2785 C   0  0  0  0  0  0  0  0  0  0  0  0
  151.9375  144.3609  159.5188 C   0  0  0  0  0  0  0  0  0  0  0  0
  152.7905  143.3269  159.9490 C   0  0  0  0  0  0  0  0  0  0  0  0
  152.8149  142.1318  159.2036 C   0  0  0  0  0  0  0  0  0  0  0  0
  153.7090  140.9789  159.6090 C   0  0  0  0  0  0  0  0  0  0  0  0
  152.0581  141.9342  158.1031 N   0  0  0  0  0  0  0  0  0  0  0  0
  151.2316  142.9226  157.6804 C   0  0  0  0  0  0  0  0  0  0  0  0
  150.3942  142.8140  156.5386 N   0  0  0  0  0  0  0  0  0  0  0  0
  150.1382  141.7217  155.7975 C   0  0  0  0  0  0  0  0  0  0  0  0
  150.6169  140.6026  155.9848 O   0  0  0  0  0  0  0  0  0  0  0  0
  149.2723  141.9958  154.8110 N   0  0  0  0  0  0  0  0  0  0  0  0
  148.7675  141.0230  153.8476 C   0  0  0  0  0  0  0  0  0  0  0  0
  148.2127  139.7604  154.5355 C   0  0  1  0  0  0  0  0  0  0  0  0
  147.0178  139.1190  153.8350 C   0  0  0  0  0  0  0  0  0  0  0  0
  147.0154  137.7090  154.4173 C   0  0  0  0  0  0  0  0  0  0  0  0
  148.4408  137.3476  154.5890 N   0  3  2  0  0  0  0  0  0  0  0  0
  148.7252  136.4137  155.7067 C   0  0  0  0  0  0  0  0  0  0  0  0
  149.9268  135.4927  155.4289 C   0  0  0  0  0  0  0  0  0  0  0  0
  149.5725  134.5790  154.5266 F   0  0  0  0  0  0  0  0  0  0  0  0
  150.9622  136.1790  154.9468 F   0  0  0  0  0  0  0  0  0  0  0  0
  150.2946  134.8682  156.5476 F   0  0  0  0  0  0  0  0  0  0  0  0
  149.2212  138.6083  154.6360 C   0  0  0  0  0  0  0  0  0  0  0  0
  151.1486  144.1535  158.3694 C   0  0  0  0  0  0  0  0  0  0  0  0
  152.7624  145.8302  160.8717 H   0  0  0  0  0  0  0  0  0  0  0  0
  151.0038  145.6628  160.9511 H   0  0  0  0  0  0  0  0  0  0  0  0
  151.7547  146.5079  159.5907 H   0  0  0  0  0  0  0  0  0  0  0  0
  153.4083  143.4469  160.8271 H   0  0  0  0  0  0  0  0  0  0  0  0
  154.3655  141.2585  160.4334 H   0  0  0  0  0  0  0  0  0  0  0  0
  154.3320  140.6671  158.7701 H   0  0  0  0  0  0  0  0  0  0  0  0
  153.1065  140.1272  159.9256 H   0  0  0  0  0  0  0  0  0  0  0  0
  149.9251  143.6641  156.2635 H   0  0  0  0  0  0  0  0  0  0  0  0
  148.9329  142.9428  154.7238 H   0  0  0  0  0  0  0  0  0  0  0  0
  147.9854  141.5061  153.2612 H   0  0  0  0  0  0  0  0  0  0  0  0
  149.5583  140.7546  153.1450 H   0  0  0  0  0  0  0  0  0  0  0  0
  147.9039  140.0148  155.5511 H   0  0  0  0  0  0  0  0  0  0  0  0
  146.0828  139.6507  154.0154 H   0  0  0  0  0  0  0  0  0  0  0  0
  147.1840  139.0795  152.7574 H   0  0  0  0  0  0  0  0  0  0  0  0
  146.5140  137.7217  155.3865 H   0  0  0  0  0  0  0  0  0  0  0  0
  146.4939  136.9976  153.7768 H   0  0  0  0  0  0  0  0  0  0  0  0
  148.9516  137.0080  156.5934 H   0  0  0  0  0  0  0  0  0  0  0  0
  147.8354  135.8284  155.9443 H   0  0  0  0  0  0  0  0  0  0  0  0
  149.9025  138.6107  153.7843 H   0  0  0  0  0  0  0  0  0  0  0  0
  149.8275  138.6987  155.5389 H   0  0  0  0  0  0  0  0  0  0  0  0
  150.4846  144.9324  158.0226 H   0  0  0  0  0  0  0  0  0  0  0  0
  148.7255  136.8813  153.7394 H   0  0  0  0  0  0  0  0  0  0  0  0
  1  2  1  0  0  0  0
  1 24  1  0  0  0  0
  1 25  1  0  0  0  0
  1 26  1  0  0  0  0
  2 23  1  0  0  0  0
  2  3  2  0  0  0  0
  3  4  1  0  0  0  0
  3 27  1  0  0  0  0
  4  5  1  0  0  0  0
  4  6  2  0  0  0  0
  5 28  1  0  0  0  0
  5 29  1  0  0  0  0
  5 30  1  0  0  0  0
  6  7  1  0  0  0  0
  7  8  1  0  0  0  0
  7 23  2  0  0  0  0
  8  9  1  0  0  0  0
  8 31  1  0  0  0  0
  9 10  2  0  0  0  0
  9 11  1  0  0  0  0
 11 12  1  0  0  0  0
 11 32  1  0  0  0  0
 12 13  1  0  0  0  0
 12 33  1  0  0  0  0
 12 34  1  0  0  0  0
 13 22  1  0  0  0  0
 13 14  1  0  0  0  0
 13 35  1  0  0  0  0
 14 15  1  0  0  0  0
 14 36  1  0  0  0  0
 14 37  1  0  0  0  0
 15 16  1  0  0  0  0
 15 38  1  0  0  0  0
 15 39  1  0  0  0  0
 16 17  1  0  0  0  0
 16 22  1  0  0  0  0
 16 45  1  0  0  0  0
 17 18  1  0  0  0  0
 17 40  1  0  0  0  0
 17 41  1  0  0  0  0
 18 19  1  0  0  0  0
 18 20  1  0  0  0  0
 18 21  1  0  0  0  0
 22 42  1  0  0  0  0
 22 43  1  0  0  0  0
 23 44  1  0  0  0  0
M  CHG  1  16   1
M  END
> <s_m_source_file>
AV-unprocessed.smi

> <i_m_source_file_index>
2245

> <i_lp_mmshare_version>
43012

> <i_f3d_flags>
0

> <s_epik_input>
W0NIM11jMVtjSF1jKFtDSDNdKW5jKFtjSF0xKVtOSF1DKD1PKVtOSF1bQ0gyXVtDQEBIXTJbQ0gyXVtDSDJdTihbQ0gyXTIpW0NIMl1DKEYpKEYpRg==

> <s_epik_cmdline>
J2VwaWtfcHl0aG9uJywgJy1waCcsICc3LjAnLCAnLXRuJywgJzgnLCAnLW1hJywgJzIwMCcsICctbWV0YWxfYmluZGluZycsICctaW1hZScsICc8aW5maWxlLm1hZT4nLCAnLW9tYWUnLCAnPG91dGZpbGUubWFlPic=

> <r_epik_Ionization_Penalty>
0.628315

> <r_epik_Ionization_Penalty_Charging>
0.628113

> <r_epik_Ionization_Penalty_Neutral>
0.000202271

> <r_epik_State_Penalty>
0.644725

> <r_epik_Charging_Adjusted_Penalty>
1.27284

> <i_epik_Tot_Q>
1

> <i_epik_Tot_abs_Q>
1

> <r_epik_Metal_State_Penalty>
0.644752

> <b_epik_Metal_Only>
0

> <s_lp_Force_Field>
OPLS_2005

> <r_lp_Energy>
28.7916

> <b_lp_Chiralities_Consistent>
1

> <s_lp_Variant>
AV-unprocessed.smi:2245-4

> <Gold.Version>
5.8.1

> <Gold.Id.Protein>
6NUR|6NUR_protein|mol2

> <Gold.PLP.Fitness>
52.8183

> <Gold.PLP.PLP>
-42.6997

> <Gold.PLP.part.hbond>
-3.0000

> <Gold.PLP.part.metal>
0.0000

> <Gold.PLP.part.buried>
-2.3361

> <Gold.PLP.part.nonpolar>
-37.9292

> <Gold.PLP.part.repulsive>
0.4501

> <Gold.PLP.ligand.clash>
0.0000

> <Gold.PLP.ligand.torsion>
1.0008

> <Gold.PLP.Chemscore.Hbond>
3.8800

> <Gold.PLP.Chemscore.CHOScore>
0.0000

> <Gold.PLP.Chemscore.Metal>
0.0000

> <Gold.Chemscore.Hbonds>
donor molecule, donor type, donor heavy atom, donor atom, acceptor molecule, acceptor atom, score
      L1  H     8    31       P1  8028  1.00
      L1  H    11    32       P1  8028  0.88
      L1  H    16    45       P1  7948  2.00

> <Gold.PLP.Chemscore.Internal.Correction>
0.4802

> <Gold.Rescore>
     Score         DG    S(hbond)    S(metal)    S(lipo)     H(rot)  DE(clash)    DE(int)     intcor
     16.86     -22.06       2.80        0.00      97.08       1.61       0.23       4.97       ----

> <Gold.Chemscore.Fitness>
16.8577

> <Gold.Chemscore.DG>
-22.0589

> <Gold.Chemscore.ZeroCoef>
-5.4800

> <Gold.Chemscore.Hbond>
2.8001

> <Gold.Chemscore.Metal>
0.0000

> <Gold.Chemscore.Lipo>
97.0850

> <Gold.Chemscore.Internal_Hbond>
0.0000

> <Gold.Chemscore.DEClash>
0.2277

> <Gold.Chemscore.DEInternal>
4.9736

> <Gold.Chemscore.Rot>
1.6143

> <Gold.Chemscore.Internal.Correction>
   9.000000E+99

> <Gold.Chemscore.Hbonds>
donor molecule, donor type, donor heavy atom, donor atom, acceptor molecule, acceptor atom, score
      L1  H     8    31       P1  8028  0.98
      L1  H    11    32       P1  8028  0.84
      L1  H    16    45       P1  7948  0.97

> <Gold.Chemscore.Hbond.Weighted>
-9.3525

> <Gold.Chemscore.Metal.Weighted>
-0.0000

> <Gold.Chemscore.Lipo.Weighted>
-11.3589

> <Gold.Chemscore.Internal_Hbond.Weighted>
0.0000

> <Gold.Chemscore.DEClash.Weighted>
0.2277

> <Gold.Chemscore.DEInternal.Weighted>
4.9736

> <Gold.Chemscore.Rot.Weighted>
4.1325

> <Gold.Chemscore.Internal.Correction.Weighted>
   9.000000E+99

> <Gold.Protein.RotatedTorsions>
[ 6907 6896 6895 6894 ] final   92.86 input  -60.11 | X-H torsion
[ 7974 7965 7964 7962 ] final   21.67 input  175.53 | X-H torsion
[ 8008 7997 7996 7995 ] final   16.95 input   59.86 | X-H torsion
[ 10167 10162 10161 10158 ] final  -80.63 input  -65.29 | X-H torsion
[ 10718 10713 10712 10709 ] final -104.87 input   66.30 | X-H torsion
[ 10763 10752 10751 10750 ] final   88.43 input  -60.55 | X-H torsion
[ 11005 11000 10999 10996 ] final   45.54 input  -57.11 | X-H torsion

> <Gold.Protein.ActiveResidues>
 VAL166  LYS551  ARG553  GLY616  TRP617  ASP618  TYR619  PRO620  LYS621  CYS622 
 ASP623  PHE694  ASN695  SER759  ASP760  ASP761  ALA762  ILE779  LEU786  VAL792 
 PHE793  MET794  SER795  GLU796  ALA797  LYS798  CYS799  TRP800  GLU811  SER814 

> <Gold.Protein.RotatedAtoms>
  152.5453  134.1437  159.8489 H   0  0  0  0  0  0  0  0  0  0  0  0  # atno 6907 bound_to 6896
  151.1471  133.4925  159.2603 H   0  0  0  0  0  0  0  0  0  0  0  0  # atno 6908 bound_to 6896
  151.1511  135.0238  159.8723 H   0  0  0  0  0  0  0  0  0  0  0  0  # atno 6909 bound_to 6896
  146.2062  139.7995  142.8724 H   0  0  0  0  0  0  0  0  0  0  0  0  # atno 7974 bound_to 7965
  154.8843  140.2977  155.5407 H   0  0  0  0  0  0  0  0  0  0  0  0  # atno 8008 bound_to 7997
  156.3021  140.2436  156.3784 H   0  0  0  0  0  0  0  0  0  0  0  0  # atno 8009 bound_to 7997
  154.8684  140.0402  157.1698 H   0  0  0  0  0  0  0  0  0  0  0  0  # atno 8010 bound_to 7997
  140.4485  143.2490  151.8523 H   0  0  0  0  0  0  0  0  0  0  0  0  # atno 10167 bound_to 10162
  156.0322  130.5536  150.7458 H   0  0  0  0  0  0  0  0  0  0  0  0  # atno 10718 bound_to 10713
  153.1768  135.4507  154.9975 H   0  0  0  0  0  0  0  0  0  0  0  0  # atno 10763 bound_to 10752
  154.8003  135.3253  154.7569 H   0  0  0  0  0  0  0  0  0  0  0  0  # atno 10764 bound_to 10752
  153.8038  135.6960  153.4906 H   0  0  0  0  0  0  0  0  0  0  0  0  # atno 10765 bound_to 10752
  140.1451  134.4534  155.8422 H   0  0  0  0  0  0  0  0  0  0  0  0  # atno 11005 bound_to 11000
  145.3312  141.0267  143.3445 LP  0  0  0  0  0  0  0  0  0  0  0  0  # atno 17320 bound_to 7965
  144.8798  139.4921  143.6728 LP  0  0  0  0  0  0  0  0  0  0  0  0  # atno 17321 bound_to 7965
  139.4795  144.5147  151.8884 LP  0  0  0  0  0  0  0  0  0  0  0  0  # atno 17342 bound_to 10162
  140.4235  144.2212  150.5887 LP  0  0  0  0  0  0  0  0  0  0  0  0  # atno 17343 bound_to 10162
  157.5015  131.0919  151.0309 LP  0  0  0  0  0  0  0  0  0  0  0  0  # atno 17370 bound_to 10713
  157.0688  130.5855  149.5399 LP  0  0  0  0  0  0  0  0  0  0  0  0  # atno 17371 bound_to 10713
  141.2191  133.6849  156.7318 LP  0  0  0  0  0  0  0  0  0  0  0  0  # atno 17394 bound_to 11000
  140.2674  134.8419  157.3815 LP  0  0  0  0  0  0  0  0  0  0  0  0  # atno 17395 bound_to 11000

$$$$
