AV-unprocessed.smi:1242|AV-procd|sdf|5216|dock10
  -GOLD-   22720 4313D 1   1.00000     0.00000
 Structure written by MMmdl.
 39 40  0  0  0  0  0  0  0  0  1 V2000
  148.9887  135.5473  159.7937 O   0  0  0  0  0  0  0  0  0  0  0  0
  148.2581  134.5648  159.9303 C   0  0  0  0  0  0  0  0  0  0  0  0
  147.5964  134.2481  161.2794 C   0  0  0  0  0  0  0  0  0  0  0  0
  146.5814  135.2335  161.6890 N   0  0  0  0  0  0  0  0  0  0  0  0
  145.2430  134.7954  161.7300 C   0  0  0  0  0  0  0  0  0  0  0  0
  144.2211  135.5933  162.0940 C   0  0  0  0  0  0  0  0  0  0  0  0
  142.7813  135.1040  162.0736 C   0  0  0  0  0  0  0  0  0  0  0  0
  142.5882  134.1371  162.9713 F   0  0  0  0  0  0  0  0  0  0  0  0
  141.9339  136.0983  162.3411 F   0  0  0  0  0  0  0  0  0  0  0  0
  142.4838  134.6189  160.8689 F   0  0  0  0  0  0  0  0  0  0  0  0
  144.5585  136.9651  162.4207 C   0  0  0  0  0  0  0  0  0  0  0  0
  145.8326  137.4019  162.3815 C   0  0  0  0  0  0  0  0  0  0  0  0
  146.9359  136.5154  162.0049 C   0  0  0  0  0  0  0  0  0  0  0  0
  148.1049  136.9008  161.9736 O   0  0  0  0  0  0  0  0  0  0  0  0
  147.9896  133.7038  158.9371 N   0  0  0  0  0  0  0  0  0  0  0  0
  148.5004  133.7848  157.5685 C   0  0  2  0  0  0  0  0  0  0  0  0
  147.4694  133.2000  156.5674 C   0  0  0  0  0  0  0  0  0  0  0  0
  148.0431  132.6222  155.2565 C   0  0  0  0  0  0  0  0  0  0  0  0
  148.9292  133.5824  154.4376 C   0  0  0  0  0  0  0  0  0  0  0  0
  150.1127  134.2393  155.1857 C   0  0  0  0  0  0  0  0  0  0  0  0
  150.6100  133.4604  156.3188 N   0  0  0  0  0  0  0  0  0  0  0  0
  149.9319  133.2232  157.4550 C   0  0  0  0  0  0  0  0  0  0  0  0
  150.4248  132.5639  158.3695 O   0  0  0  0  0  0  0  0  0  0  0  0
  147.1539  133.2512  161.2318 H   0  0  0  0  0  0  0  0  0  0  0  0
  148.3811  134.1730  162.0335 H   0  0  0  0  0  0  0  0  0  0  0  0
  145.0985  133.7626  161.4472 H   0  0  0  0  0  0  0  0  0  0  0  0
  143.7774  137.6544  162.7061 H   0  0  0  0  0  0  0  0  0  0  0  0
  146.0472  138.4300  162.6334 H   0  0  0  0  0  0  0  0  0  0  0  0
  147.3874  132.9193  159.1423 H   0  0  0  0  0  0  0  0  0  0  0  0
  148.6002  134.8482  157.3474 H   0  0  0  0  0  0  0  0  0  0  0  0
  146.9081  132.4008  157.0540 H   0  0  0  0  0  0  0  0  0  0  0  0
  146.7337  133.9693  156.3296 H   0  0  0  0  0  0  0  0  0  0  0  0
  148.6056  131.7141  155.4783 H   0  0  0  0  0  0  0  0  0  0  0  0
  147.2145  132.2923  154.6291 H   0  0  0  0  0  0  0  0  0  0  0  0
  149.3274  133.0202  153.5924 H   0  0  0  0  0  0  0  0  0  0  0  0
  148.3102  134.3662  153.9999 H   0  0  0  0  0  0  0  0  0  0  0  0
  150.9369  134.4009  154.4906 H   0  0  0  0  0  0  0  0  0  0  0  0
  149.8309  135.2346  155.5310 H   0  0  0  0  0  0  0  0  0  0  0  0
  151.5428  133.0817  156.2387 H   0  0  0  0  0  0  0  0  0  0  0  0
  1  2  2  0  0  0  0
  2  3  1  0  0  0  0
  2 15  1  0  0  0  0
  3  4  1  0  0  0  0
  3 24  1  0  0  0  0
  3 25  1  0  0  0  0
  4 13  1  0  0  0  0
  4  5  1  0  0  0  0
  5  6  2  0  0  0  0
  5 26  1  0  0  0  0
  6  7  1  0  0  0  0
  6 11  1  0  0  0  0
  7  8  1  0  0  0  0
  7  9  1  0  0  0  0
  7 10  1  0  0  0  0
 11 12  2  0  0  0  0
 11 27  1  0  0  0  0
 12 13  1  0  0  0  0
 12 28  1  0  0  0  0
 13 14  2  0  0  0  0
 15 16  1  0  0  0  0
 15 29  1  0  0  0  0
 16 22  1  0  0  0  0
 16 17  1  0  0  0  0
 16 30  1  0  0  0  0
 17 18  1  0  0  0  0
 17 31  1  0  0  0  0
 17 32  1  0  0  0  0
 18 19  1  0  0  0  0
 18 33  1  0  0  0  0
 18 34  1  0  0  0  0
 19 20  1  0  0  0  0
 19 35  1  0  0  0  0
 19 36  1  0  0  0  0
 20 21  1  0  0  0  0
 20 37  1  0  0  0  0
 20 38  1  0  0  0  0
 21 22  1  0  0  0  0
 21 39  1  0  0  0  0
 22 23  2  0  0  0  0
M  END
> <s_m_source_file>
AV-unprocessed.smi

> <i_m_source_file_index>
1242

> <i_lp_mmshare_version>
43012

> <i_f3d_flags>
0

> <s_epik_input>
Tz1jMVtjSF1bY0hdYyhDKEYpKEYpRilbY0hdbjFbQ0gyXUMoPU8pW05IXVtDQEBIXTJbQ0gyXVtDSDJdW0NIMl1bQ0gyXVtOSF1DMj1P

> <s_epik_cmdline>
J2VwaWtfcHl0aG9uJywgJy1waCcsICc3LjAnLCAnLXRuJywgJzgnLCAnLW1hJywgJzIwMCcsICctbWV0YWxfYmluZGluZycsICctaW1hZScsICc8aW5maWxlLm1hZT4nLCAnLW9tYWUnLCAnPG91dGZpbGUubWFlPic=

> <r_lp_tautomer_probability>
1

> <r_epik_Ionization_Penalty>
6.92876e-08

> <r_epik_Ionization_Penalty_Charging>
1.59659e-08

> <r_epik_Ionization_Penalty_Neutral>
5.33217e-08

> <r_epik_State_Penalty>
-0

> <r_epik_Charging_Adjusted_Penalty>
1.59659e-08

> <i_epik_Tot_Q>
0

> <i_epik_Tot_abs_Q>
0

> <r_epik_Metal_State_Penalty>
-0

> <b_epik_Metal_Only>
0

> <s_lp_Force_Field>
OPLS_2005

> <r_lp_Energy>
26.9049

> <b_lp_Chiralities_Consistent>
1

> <s_lp_Variant>
AV-unprocessed.smi:1242-1

> <Gold.Version>
5.8.1

> <Gold.Id.Protein>
6NUR|6NUR_protein|mol2

> <Gold.PLP.Fitness>
40.3026

> <Gold.PLP.PLP>
-32.8749

> <Gold.PLP.part.hbond>
-3.2500

> <Gold.PLP.part.metal>
0.0000

> <Gold.PLP.part.buried>
-4.7515

> <Gold.PLP.part.nonpolar>
-25.1062

> <Gold.PLP.part.repulsive>
0.1172

> <Gold.PLP.ligand.clash>
0.0000

> <Gold.PLP.ligand.torsion>
0.4917

> <Gold.PLP.Chemscore.Hbond>
2.7760

> <Gold.PLP.Chemscore.CHOScore>
0.0000

> <Gold.PLP.Chemscore.Metal>
0.0000

> <Gold.Chemscore.Hbonds>
donor molecule, donor type, donor heavy atom, donor atom, acceptor molecule, acceptor atom, score
      P1  H  6896  6907       L1     1  0.91
      P1  H  6896  6909       L1    23  0.87
      P1  H  6931  6943       L1    14  1.00

> <Gold.PLP.Chemscore.Internal.Correction>
0.0830

> <Gold.Rescore>
     Score         DG    S(hbond)    S(metal)    S(lipo)     H(rot)  DE(clash)    DE(int)     intcor
     14.08     -15.82       2.67        0.00      49.94       1.72       0.03       1.72       ----

> <Gold.Chemscore.Fitness>
14.0771

> <Gold.Chemscore.DG>
-15.8241

> <Gold.Chemscore.ZeroCoef>
-5.4800

> <Gold.Chemscore.Hbond>
2.6670

> <Gold.Chemscore.Metal>
0.0000

> <Gold.Chemscore.Lipo>
49.9370

> <Gold.Chemscore.Internal_Hbond>
0.0000

> <Gold.Chemscore.DEClash>
0.0252

> <Gold.Chemscore.DEInternal>
1.7218

> <Gold.Chemscore.Rot>
1.7212

> <Gold.Chemscore.Internal.Correction>
   9.000000E+99

> <Gold.Chemscore.Hbonds>
donor molecule, donor type, donor heavy atom, donor atom, acceptor molecule, acceptor atom, score
      P1  H  6896  6907       L1     1  0.53
      P1  H  6896  6909       L1    23  0.71
      P1  H  6931  6943       L1    14  1.00

> <Gold.Chemscore.Hbond.Weighted>
-8.9077

> <Gold.Chemscore.Metal.Weighted>
-0.0000

> <Gold.Chemscore.Lipo.Weighted>
-5.8426

> <Gold.Chemscore.Internal_Hbond.Weighted>
0.0000

> <Gold.Chemscore.DEClash.Weighted>
0.0252

> <Gold.Chemscore.DEInternal.Weighted>
1.7218

> <Gold.Chemscore.Rot.Weighted>
4.4062

> <Gold.Chemscore.Internal.Correction.Weighted>
   9.000000E+99

> <Gold.Protein.RotatedTorsions>
[ 6907 6896 6895 6894 ] final  -45.50 input  -60.11 | X-H torsion
[ 7974 7965 7964 7962 ] final -125.20 input  175.53 | X-H torsion
[ 8008 7997 7996 7995 ] final -176.74 input   59.86 | X-H torsion
[ 10167 10162 10161 10158 ] final  167.05 input  -65.29 | X-H torsion
[ 10718 10713 10712 10709 ] final  166.04 input   66.30 | X-H torsion
[ 10763 10752 10751 10750 ] final  120.14 input  -60.55 | X-H torsion
[ 11005 11000 10999 10996 ] final -144.64 input  -57.11 | X-H torsion

> <Gold.Protein.ActiveResidues>
 VAL166  LYS551  ARG553  GLY616  TRP617  ASP618  TYR619  PRO620  LYS621  CYS622 
 ASP623  PHE694  ASN695  SER759  ASP760  ASP761  ALA762  ILE779  LEU786  VAL792 
 PHE793  MET794  SER795  GLU796  ALA797  LYS798  CYS799  TRP800  GLU811  SER814 

> <Gold.Protein.RotatedAtoms>
  150.9213  134.8631  159.7490 H   0  0  0  0  0  0  0  0  0  0  0  0  # atno 6907 bound_to 6896
  152.4994  134.4214  159.9491 H   0  0  0  0  0  0  0  0  0  0  0  0  # atno 6908 bound_to 6896
  151.4248  133.3648  159.2796 H   0  0  0  0  0  0  0  0  0  0  0  0  # atno 6909 bound_to 6896
  145.0001  140.7812  143.4502 H   0  0  0  0  0  0  0  0  0  0  0  0  # atno 7974 bound_to 7965
  155.9985  140.1215  157.0570 H   0  0  0  0  0  0  0  0  0  0  0  0  # atno 8008 bound_to 7997
  154.4234  140.1111  156.5733 H   0  0  0  0  0  0  0  0  0  0  0  0  # atno 8009 bound_to 7997
  155.6245  140.3472  155.4665 H   0  0  0  0  0  0  0  0  0  0  0  0  # atno 8010 bound_to 7997
  139.4937  144.3963  151.9460 H   0  0  0  0  0  0  0  0  0  0  0  0  # atno 10167 bound_to 10162
  157.0716  131.0367  151.2609 H   0  0  0  0  0  0  0  0  0  0  0  0  # atno 10718 bound_to 10713
  153.5939  135.3460  155.2921 H   0  0  0  0  0  0  0  0  0  0  0  0  # atno 10763 bound_to 10752
  154.8648  135.4211  154.2486 H   0  0  0  0  0  0  0  0  0  0  0  0  # atno 10764 bound_to 10752
  153.3300  135.7043  153.7027 H   0  0  0  0  0  0  0  0  0  0  0  0  # atno 10765 bound_to 10752
  140.8004  134.2864  157.4980 H   0  0  0  0  0  0  0  0  0  0  0  0  # atno 11005 bound_to 11000
  145.2166  139.2179  143.5115 LP  0  0  0  0  0  0  0  0  0  0  0  0  # atno 17320 bound_to 7965
  146.3450  140.2015  142.8589 LP  0  0  0  0  0  0  0  0  0  0  0  0  # atno 17321 bound_to 7965
  140.3401  144.3213  150.5969 LP  0  0  0  0  0  0  0  0  0  0  0  0  # atno 17342 bound_to 10162
  140.5573  143.2197  151.7826 LP  0  0  0  0  0  0  0  0  0  0  0  0  # atno 17343 bound_to 10162
  157.4873  130.7801  149.7473 LP  0  0  0  0  0  0  0  0  0  0  0  0  # atno 17370 bound_to 10713
  155.9949  130.3915  150.2841 LP  0  0  0  0  0  0  0  0  0  0  0  0  # atno 17371 bound_to 10713
  139.8722  134.9426  156.3829 LP  0  0  0  0  0  0  0  0  0  0  0  0  # atno 17394 bound_to 11000
  140.9300  133.7585  156.0013 LP  0  0  0  0  0  0  0  0  0  0  0  0  # atno 17395 bound_to 11000

$$$$
