AV-unprocessed.smi:528|AV-procd|sdf|2835|dock3
  -GOLD-   2262023323D 1   1.00000     0.00000
 Structure written by MMmdl.
 45 47  0  0  0  0  0  0  0  0  1 V2000
  150.7043  137.5923  154.4872 C   0  0  0  0  0  0  0  0  0  0  0  0
  150.9468  139.0571  154.8897 C   0  0  2  0  0  0  0  0  0  0  0  0
  150.9835  139.1376  156.3491 N   0  0  0  0  0  0  0  0  0  0  0  0
  152.0854  139.0922  157.1138 C   0  0  0  0  0  0  0  0  0  0  0  0
  153.2252  138.9961  156.6564 O   0  0  0  0  0  0  0  0  0  0  0  0
  151.8485  139.1838  158.6284 C   0  0  0  0  0  0  0  0  0  0  0  0
  152.3892  140.4119  159.2353 N   0  0  0  0  0  0  0  0  0  0  0  0
  151.8324  141.6352  158.8131 C   0  0  0  0  0  0  0  0  0  0  0  0
  152.2282  142.8274  159.2987 C   0  0  0  0  0  0  0  0  0  0  0  0
  151.6500  144.1347  158.7798 C   0  0  0  0  0  0  0  0  0  0  0  0
  150.3275  144.1732  158.9446 F   0  0  0  0  0  0  0  0  0  0  0  0
  152.1813  145.1819  159.4119 F   0  0  0  0  0  0  0  0  0  0  0  0
  151.9099  144.2599  157.4791 F   0  0  0  0  0  0  0  0  0  0  0  0
  153.3004  142.8026  160.2742 C   0  0  0  0  0  0  0  0  0  0  0  0
  153.8529  141.6424  160.6794 C   0  0  0  0  0  0  0  0  0  0  0  0
  153.3972  140.3523  160.1567 C   0  0  0  0  0  0  0  0  0  0  0  0
  153.8907  139.2854  160.5229 O   0  0  0  0  0  0  0  0  0  0  0  0
  149.8597  140.0102  154.3350 C   0  0  2  0  0  0  0  0  0  0  0  0
  149.7805  141.3645  155.0821 C   0  0  0  0  0  0  0  0  0  0  0  0
  148.3000  141.4601  155.4901 C   0  0  1  0  0  0  0  0  0  0  0  0
  147.4321  141.6755  154.2371 C   0  0  0  0  0  0  0  0  0  0  0  0
  147.4840  140.2978  153.5512 C   0  0  0  0  0  0  0  0  0  0  0  0
  148.4065  139.4880  154.4826 C   0  0  2  0  0  0  0  0  0  0  0  0
  147.9888  140.0143  155.8516 C   0  0  0  0  0  0  0  0  0  0  0  0
  150.7242  137.4623  153.4055 H   0  0  0  0  0  0  0  0  0  0  0  0
  149.7376  137.2371  154.8458 H   0  0  0  0  0  0  0  0  0  0  0  0
  151.4725  136.9395  154.9031 H   0  0  0  0  0  0  0  0  0  0  0  0
  151.9108  139.3628  154.4804 H   0  0  0  0  0  0  0  0  0  0  0  0
  150.0929  139.2240  156.8171 H   0  0  0  0  0  0  0  0  0  0  0  0
  150.7758  139.1070  158.8096 H   0  0  0  0  0  0  0  0  0  0  0  0
  152.2823  138.3072  159.1134 H   0  0  0  0  0  0  0  0  0  0  0  0
  151.0649  141.5426  158.0583 H   0  0  0  0  0  0  0  0  0  0  0  0
  153.6656  143.7301  160.6902 H   0  0  0  0  0  0  0  0  0  0  0  0
  154.6498  141.6619  161.4085 H   0  0  0  0  0  0  0  0  0  0  0  0
  150.0733  140.1856  153.2792 H   0  0  0  0  0  0  0  0  0  0  0  0
  150.4067  141.3681  155.9751 H   0  0  0  0  0  0  0  0  0  0  0  0
  150.0937  142.2014  154.4568 H   0  0  0  0  0  0  0  0  0  0  0  0
  148.1114  142.1845  156.2829 H   0  0  0  0  0  0  0  0  0  0  0  0
  146.4072  141.9301  154.5105 H   0  0  0  0  0  0  0  0  0  0  0  0
  147.8180  142.4730  153.6012 H   0  0  0  0  0  0  0  0  0  0  0  0
  146.4884  139.8536  153.5129 H   0  0  0  0  0  0  0  0  0  0  0  0
  147.8626  140.3524  152.5299 H   0  0  0  0  0  0  0  0  0  0  0  0
  148.2933  138.4114  154.3556 H   0  0  0  0  0  0  0  0  0  0  0  0
  148.5969  139.6310  156.6725 H   0  0  0  0  0  0  0  0  0  0  0  0
  146.9351  139.8424  156.0781 H   0  0  0  0  0  0  0  0  0  0  0  0
  1  2  1  0  0  0  0
  1 25  1  0  0  0  0
  1 26  1  0  0  0  0
  1 27  1  0  0  0  0
  2  3  1  0  0  0  0
  2 18  1  0  0  0  0
  2 28  1  0  0  0  0
  3  4  1  0  0  0  0
  3 29  1  0  0  0  0
  4  5  2  0  0  0  0
  4  6  1  0  0  0  0
  6  7  1  0  0  0  0
  6 30  1  0  0  0  0
  6 31  1  0  0  0  0
  7 16  1  0  0  0  0
  7  8  1  0  0  0  0
  8  9  2  0  0  0  0
  8 32  1  0  0  0  0
  9 10  1  0  0  0  0
  9 14  1  0  0  0  0
 10 11  1  0  0  0  0
 10 12  1  0  0  0  0
 10 13  1  0  0  0  0
 14 15  2  0  0  0  0
 14 33  1  0  0  0  0
 15 16  1  0  0  0  0
 15 34  1  0  0  0  0
 16 17  2  0  0  0  0
 18 23  1  0  0  0  0
 18 19  1  0  0  0  0
 18 35  1  0  0  0  0
 19 20  1  0  0  0  0
 19 36  1  0  0  0  0
 19 37  1  0  0  0  0
 20 24  1  0  0  0  0
 20 21  1  0  0  0  0
 20 38  1  0  0  0  0
 21 22  1  0  0  0  0
 21 39  1  0  0  0  0
 21 40  1  0  0  0  0
 22 23  1  0  0  0  0
 22 41  1  0  0  0  0
 22 42  1  0  0  0  0
 23 24  1  0  0  0  0
 23 43  1  0  0  0  0
 24 44  1  0  0  0  0
 24 45  1  0  0  0  0
M  END
> <s_m_source_file>
AV-unprocessed.smi

> <i_m_source_file_index>
528

> <i_lp_mmshare_version>
43012

> <i_f3d_flags>
0

> <s_epik_input>
W0NIMl0xW0NIMl1bQ0BASF0oW0NIMl0yKVtDQEBIXShbQ0gyXVtDQEhdMTIpW0NASF0oW0NIM10pW05IXUMoPU8pW0NIMl1uM1tjSF1jKEMoRikoRilGKVtjSF1bY0hdYzM9Tw==

> <s_epik_cmdline>
J2VwaWtfcHl0aG9uJywgJy1waCcsICc3LjAnLCAnLXRuJywgJzgnLCAnLW1hJywgJzIwMCcsICctbWV0YWxfYmluZGluZycsICctaW1hZScsICc8aW5maWxlLm1hZT4nLCAnLW9tYWUnLCAnPG91dGZpbGUubWFlPic=

> <r_lp_tautomer_probability>
1

> <r_epik_Ionization_Penalty>
4.09479e-08

> <r_epik_Ionization_Penalty_Charging>
1.9321e-08

> <r_epik_Ionization_Penalty_Neutral>
2.16269e-08

> <r_epik_State_Penalty>
-0

> <r_epik_Charging_Adjusted_Penalty>
1.9321e-08

> <i_epik_Tot_Q>
0

> <i_epik_Tot_abs_Q>
0

> <r_epik_Metal_State_Penalty>
-0

> <b_epik_Metal_Only>
0

> <s_lp_Force_Field>
OPLS_2005

> <r_lp_Energy>
63.0094

> <b_lp_Chiralities_Consistent>
1

> <s_lp_Variant>
AV-unprocessed.smi:528-5

> <Gold.Version>
5.8.1

> <Gold.Id.Protein>
6NUR|6NUR_protein|mol2

> <Gold.PLP.Fitness>
55.8360

> <Gold.PLP.PLP>
-54.2305

> <Gold.PLP.part.hbond>
-0.8985

> <Gold.PLP.part.metal>
0.0000

> <Gold.PLP.part.buried>
-3.5310

> <Gold.PLP.part.nonpolar>
-50.1521

> <Gold.PLP.part.repulsive>
0.0602

> <Gold.PLP.ligand.clash>
0.0000

> <Gold.PLP.ligand.torsion>
0.7442

> <Gold.PLP.Chemscore.Hbond>
1.0000

> <Gold.PLP.Chemscore.CHOScore>
0.0000

> <Gold.PLP.Chemscore.Metal>
0.0000

> <Gold.Chemscore.Hbonds>
donor molecule, donor type, donor heavy atom, donor atom, acceptor molecule, acceptor atom, score
      P1  H  7997  8010       L1     5  1.00

> <Gold.PLP.Chemscore.Internal.Correction>
0.0939

> <Gold.Rescore>
     Score         DG    S(hbond)    S(metal)    S(lipo)     H(rot)  DE(clash)    DE(int)     intcor
     16.82     -17.71       0.97        0.00     114.23       1.71       0.31       0.58       ----

> <Gold.Chemscore.Fitness>
16.8224

> <Gold.Chemscore.DG>
-17.7097

> <Gold.Chemscore.ZeroCoef>
-5.4800

> <Gold.Chemscore.Hbond>
0.9728

> <Gold.Chemscore.Metal>
0.0000

> <Gold.Chemscore.Lipo>
114.2254

> <Gold.Chemscore.Internal_Hbond>
0.0000

> <Gold.Chemscore.DEClash>
0.3096

> <Gold.Chemscore.DEInternal>
0.5777

> <Gold.Chemscore.Rot>
1.7125

> <Gold.Chemscore.Internal.Correction>
   9.000000E+99

> <Gold.Chemscore.Hbonds>
donor molecule, donor type, donor heavy atom, donor atom, acceptor molecule, acceptor atom, score
      P1  H  7997  8010       L1     5  0.97

> <Gold.Chemscore.Hbond.Weighted>
-3.2493

> <Gold.Chemscore.Metal.Weighted>
-0.0000

> <Gold.Chemscore.Lipo.Weighted>
-13.3644

> <Gold.Chemscore.Internal_Hbond.Weighted>
0.0000

> <Gold.Chemscore.DEClash.Weighted>
0.3096

> <Gold.Chemscore.DEInternal.Weighted>
0.5777

> <Gold.Chemscore.Rot.Weighted>
4.3840

> <Gold.Chemscore.Internal.Correction.Weighted>
   9.000000E+99

> <Gold.Protein.RotatedTorsions>
[ 6907 6896 6895 6894 ] final  -78.73 input  -60.11 | X-H torsion
[ 7974 7965 7964 7962 ] final -117.39 input  175.53 | X-H torsion
[ 8008 7997 7996 7995 ] final   68.72 input   59.86 | X-H torsion
[ 10167 10162 10161 10158 ] final   88.54 input  -65.29 | X-H torsion
[ 10718 10713 10712 10709 ] final  101.35 input   66.30 | X-H torsion
[ 10763 10752 10751 10750 ] final -160.52 input  -60.55 | X-H torsion
[ 11005 11000 10999 10996 ] final  111.64 input  -57.11 | X-H torsion

> <Gold.Protein.ActiveResidues>
 VAL166  LYS551  ARG553  GLY616  TRP617  ASP618  TYR619  PRO620  LYS621  CYS622 
 ASP623  PHE694  ASN695  SER759  ASP760  ASP761  ALA762  ILE779  LEU786  VAL792 
 PHE793  MET794  SER795  GLU796  ALA797  LYS798  CYS799  TRP800  GLU811  SER814 

> <Gold.Protein.RotatedAtoms>
  150.6966  134.4228  159.5212 H   0  0  0  0  0  0  0  0  0  0  0  0  # atno 6907 bound_to 6896
  152.1968  134.8620  160.0521 H   0  0  0  0  0  0  0  0  0  0  0  0  # atno 6908 bound_to 6896
  151.9555  133.3644  159.4053 H   0  0  0  0  0  0  0  0  0  0  0  0  # atno 6909 bound_to 6896
  145.0858  140.8457  143.4012 H   0  0  0  0  0  0  0  0  0  0  0  0  # atno 7974 bound_to 7965
  155.7126  140.3494  155.4980 H   0  0  0  0  0  0  0  0  0  0  0  0  # atno 8008 bound_to 7997
  155.9342  140.1089  157.1130 H   0  0  0  0  0  0  0  0  0  0  0  0  # atno 8009 bound_to 7997
  154.4090  140.1225  156.4828 H   0  0  0  0  0  0  0  0  0  0  0  0  # atno 8010 bound_to 7997
  139.8662  144.6517  150.9001 H   0  0  0  0  0  0  0  0  0  0  0  0  # atno 10167 bound_to 10162
  157.6831  131.0724  150.5239 H   0  0  0  0  0  0  0  0  0  0  0  0  # atno 10718 bound_to 10713
  154.7383  135.3062  154.8773 H   0  0  0  0  0  0  0  0  0  0  0  0  # atno 10763 bound_to 10752
  153.9595  135.6754  153.4749 H   0  0  0  0  0  0  0  0  0  0  0  0  # atno 10764 bound_to 10752
  153.0984  135.4924  154.8744 H   0  0  0  0  0  0  0  0  0  0  0  0  # atno 10765 bound_to 10752
  139.8908  134.9512  156.6464 H   0  0  0  0  0  0  0  0  0  0  0  0  # atno 11005 bound_to 11000
  145.1124  139.2748  143.5631 LP  0  0  0  0  0  0  0  0  0  0  0  0  # atno 17320 bound_to 7965
  146.3531  140.0723  142.8622 LP  0  0  0  0  0  0  0  0  0  0  0  0  # atno 17321 bound_to 7965
  140.7768  143.3702  151.1663 LP  0  0  0  0  0  0  0  0  0  0  0  0  # atno 17342 bound_to 10162
  139.7327  143.9048  152.3024 LP  0  0  0  0  0  0  0  0  0  0  0  0  # atno 17343 bound_to 10162
  156.5552  130.4241  149.6089 LP  0  0  0  0  0  0  0  0  0  0  0  0  # atno 17370 bound_to 10713
  156.2869  130.7102  151.1941 LP  0  0  0  0  0  0  0  0  0  0  0  0  # atno 17371 bound_to 10713
  140.7554  133.8862  155.8378 LP  0  0  0  0  0  0  0  0  0  0  0  0  # atno 17394 bound_to 11000
  140.9966  134.1207  157.4358 LP  0  0  0  0  0  0  0  0  0  0  0  0  # atno 17395 bound_to 11000

$$$$
