AV-unprocessed.smi:98|AV-procd|sdf|864|dock2
  -GOLD-   2262017313D 1   1.00000     0.00000
 Structure written by MMmdl.
 56 59  0  0  0  0  0  0  0  0  1 V2000
  151.9957  136.4672  156.1176 O   0  0  0  0  0  0  0  0  0  0  0  0
  151.5100  137.4447  155.5468 C   0  0  0  0  0  0  0  0  0  0  0  0
  152.2780  138.7748  155.4963 C   0  0  0  0  0  0  0  0  0  0  0  0
  151.4811  139.9265  155.9730 N   0  0  0  0  0  0  0  0  0  0  0  0
  150.4686  140.4394  155.1247 C   0  0  0  0  0  0  0  0  0  0  0  0
  150.2458  139.9386  154.0212 O   0  0  0  0  0  0  0  0  0  0  0  0
  149.7268  141.5808  155.6477 C   0  0  0  0  0  0  0  0  0  0  0  0
  148.7692  142.1527  154.8982 F   0  0  0  0  0  0  0  0  0  0  0  0
  149.9905  142.0767  156.8739 C   0  0  0  0  0  0  0  0  0  0  0  0
  150.9520  141.5418  157.7081 N   0  0  0  0  0  0  0  0  0  0  0  0
  151.1993  142.1814  159.0547 C   0  0  1  0  0  0  0  0  0  0  0  0
  152.6109  142.7803  159.2025 C   0  0  0  0  0  0  0  0  0  0  0  0
  152.3287  144.2396  159.5205 C   0  0  0  0  0  0  0  0  0  0  0  0
  150.8960  144.2036  160.0412 C   0  0  0  0  0  0  0  0  0  0  0  0
  150.2791  143.2133  159.2336 O   0  0  0  0  0  0  0  0  0  0  0  0
  151.7435  140.4596  157.2583 C   0  0  0  0  0  0  0  0  0  0  0  0
  152.6368  139.9898  157.9651 O   0  0  0  0  0  0  0  0  0  0  0  0
  150.3096  137.4491  154.9394 N   0  0  0  0  0  0  0  0  0  0  0  0
  149.3881  136.3760  154.8148 C   0  0  0  0  0  0  0  0  0  0  0  0
  148.0132  136.6939  154.8104 C   0  0  0  0  0  0  0  0  0  0  0  0
  147.0461  135.6804  154.6673 C   0  0  0  0  0  0  0  0  0  0  0  0
  147.4575  134.3421  154.5131 C   0  0  0  0  0  0  0  0  0  0  0  0
  146.2340  133.0488  154.3234 S   0  0  0  0  0  0  0  0  0  0  0  0
  146.8893  131.7480  154.5336 O   0  0  0  0  0  0  0  0  0  0  0  0
  145.0458  133.4133  155.1111 O   0  0  0  0  0  0  0  0  0  0  0  0
  145.8191  133.1711  152.6444 N   0  0  0  0  0  0  0  0  0  0  0  0
  146.7480  133.8694  151.7398 C   0  0  0  0  0  0  0  0  0  0  0  0
  146.0727  134.1924  150.3975 C   0  0  0  0  0  0  0  0  0  0  0  0
  145.5166  133.0139  149.8342 O   0  0  0  0  0  0  0  0  0  0  0  0
  144.4981  132.4743  150.6628 C   0  0  0  0  0  0  0  0  0  0  0  0
  145.0846  132.0573  152.0213 C   0  0  0  0  0  0  0  0  0  0  0  0
  148.8270  134.0136  154.4957 C   0  0  0  0  0  0  0  0  0  0  0  0
  149.7914  135.0292  154.6438 C   0  0  0  0  0  0  0  0  0  0  0  0
  153.1955  138.6568  156.0747 H   0  0  0  0  0  0  0  0  0  0  0  0
  152.6323  138.9517  154.4791 H   0  0  0  0  0  0  0  0  0  0  0  0
  149.4154  142.9263  157.2124 H   0  0  0  0  0  0  0  0  0  0  0  0
  151.0122  141.4038  159.7969 H   0  0  0  0  0  0  0  0  0  0  0  0
  153.1126  142.2861  160.0350 H   0  0  0  0  0  0  0  0  0  0  0  0
  153.2187  142.6492  158.3067 H   0  0  0  0  0  0  0  0  0  0  0  0
  153.0306  144.6618  160.2398 H   0  0  0  0  0  0  0  0  0  0  0  0
  152.3780  144.8390  158.6110 H   0  0  0  0  0  0  0  0  0  0  0  0
  150.8686  143.8920  161.0866 H   0  0  0  0  0  0  0  0  0  0  0  0
  150.3910  145.1660  159.9540 H   0  0  0  0  0  0  0  0  0  0  0  0
  149.9862  138.3444  154.6022 H   0  0  0  0  0  0  0  0  0  0  0  0
  147.6938  137.7196  154.9254 H   0  0  0  0  0  0  0  0  0  0  0  0
  145.9967  135.9352  154.6770 H   0  0  0  0  0  0  0  0  0  0  0  0
  147.1009  134.7894  152.2060 H   0  0  0  0  0  0  0  0  0  0  0  0
  147.6208  133.2374  151.5734 H   0  0  0  0  0  0  0  0  0  0  0  0
  145.2976  134.9498  150.5262 H   0  0  0  0  0  0  0  0  0  0  0  0
  146.8040  134.6045  149.7022 H   0  0  0  0  0  0  0  0  0  0  0  0
  143.6965  133.2030  150.7945 H   0  0  0  0  0  0  0  0  0  0  0  0
  144.0588  131.6099  150.1648 H   0  0  0  0  0  0  0  0  0  0  0  0
  145.7656  131.2153  151.8917 H   0  0  0  0  0  0  0  0  0  0  0  0
  144.2835  131.7237  152.6810 H   0  0  0  0  0  0  0  0  0  0  0  0
  149.1417  132.9884  154.3680 H   0  0  0  0  0  0  0  0  0  0  0  0
  150.8359  134.7584  154.6082 H   0  0  0  0  0  0  0  0  0  0  0  0
  1  2  2  0  0  0  0
  2  3  1  0  0  0  0
  2 18  1  0  0  0  0
  3  4  1  0  0  0  0
  3 34  1  0  0  0  0
  3 35  1  0  0  0  0
  4 16  1  0  0  0  0
  4  5  1  0  0  0  0
  5  6  2  0  0  0  0
  5  7  1  0  0  0  0
  7  8  1  0  0  0  0
  7  9  2  0  0  0  0
  9 10  1  0  0  0  0
  9 36  1  0  0  0  0
 10 11  1  0  0  0  0
 10 16  1  0  0  0  0
 11 15  1  0  0  0  0
 11 12  1  0  0  0  0
 11 37  1  0  0  0  0
 12 13  1  0  0  0  0
 12 38  1  0  0  0  0
 12 39  1  0  0  0  0
 13 14  1  0  0  0  0
 13 40  1  0  0  0  0
 13 41  1  0  0  0  0
 14 15  1  0  0  0  0
 14 42  1  0  0  0  0
 14 43  1  0  0  0  0
 16 17  2  0  0  0  0
 18 19  1  0  0  0  0
 18 44  1  0  0  0  0
 19 33  1  0  0  0  0
 19 20  2  0  0  0  0
 20 21  1  0  0  0  0
 20 45  1  0  0  0  0
 21 22  2  0  0  0  0
 21 46  1  0  0  0  0
 22 23  1  0  0  0  0
 22 32  1  0  0  0  0
 23 24  2  0  0  0  0
 23 25  2  0  0  0  0
 23 26  1  0  0  0  0
 26 31  1  0  0  0  0
 26 27  1  0  0  0  0
 27 28  1  0  0  0  0
 27 47  1  0  0  0  0
 27 48  1  0  0  0  0
 28 29  1  0  0  0  0
 28 49  1  0  0  0  0
 28 50  1  0  0  0  0
 29 30  1  0  0  0  0
 30 31  1  0  0  0  0
 30 51  1  0  0  0  0
 30 52  1  0  0  0  0
 31 53  1  0  0  0  0
 31 54  1  0  0  0  0
 32 33  2  0  0  0  0
 32 55  1  0  0  0  0
 33 56  1  0  0  0  0
M  END
> <s_m_source_file>
AV-unprocessed.smi

> <i_m_source_file_index>
98

> <i_lp_mmshare_version>
43012

> <i_f3d_flags>
0

> <s_epik_input>
TzFbQ0gyXVtDSDJdW0NIMl1bQ0BIXTFuKGMyPU8pW2NIXWMoRiljKD1PKW4yW0NIMl1DKD1PKVtOSF1jM1tjSF1bY0hdYyhbY0hdW2NIXTMpUyg9TykoPU8pTjRbQ0gyXVtDSDJdT1tDSDJdW0NIMl00

> <s_epik_cmdline>
J2VwaWtfcHl0aG9uJywgJy1waCcsICc3LjAnLCAnLXRuJywgJzgnLCAnLW1hJywgJzIwMCcsICctbWV0YWxfYmluZGluZycsICctaW1hZScsICc8aW5maWxlLm1hZT4nLCAnLW9tYWUnLCAnPG91dGZpbGUubWFlPic=

> <r_lp_tautomer_probability>
1

> <r_epik_Ionization_Penalty>
1.9271e-06

> <r_epik_Ionization_Penalty_Charging>
3.88729e-08

> <r_epik_Ionization_Penalty_Neutral>
1.88823e-06

> <r_epik_State_Penalty>
-0

> <r_epik_Charging_Adjusted_Penalty>
3.88729e-08

> <i_epik_Tot_Q>
0

> <i_epik_Tot_abs_Q>
0

> <r_epik_Metal_State_Penalty>
-0

> <b_epik_Metal_Only>
0

> <s_epik_Chemistry_Notes>
This compound contains an acetal/aminal-like group ( X-CH(R)-Y where X, Y are N, S, or O) that may be acid/base labile, releasing an aldehyde.

> <s_lp_Force_Field>
OPLS_2005

> <r_lp_Energy>
28.5933

> <b_lp_Chiralities_Consistent>
1

> <s_lp_Variant>
AV-unprocessed.smi:98-2

> <Gold.Version>
5.8.1

> <Gold.Id.Protein>
6NUR|6NUR_protein|mol2

> <Gold.PLP.Fitness>
61.0983

> <Gold.PLP.PLP>
-53.1192

> <Gold.PLP.part.hbond>
-3.2586

> <Gold.PLP.part.metal>
0.0000

> <Gold.PLP.part.buried>
-2.7326

> <Gold.PLP.part.nonpolar>
-46.8588

> <Gold.PLP.part.repulsive>
1.0956

> <Gold.PLP.ligand.clash>
0.0000

> <Gold.PLP.ligand.torsion>
2.7308

> <Gold.PLP.Chemscore.Hbond>
2.2500

> <Gold.PLP.Chemscore.CHOScore>
0.8412

> <Gold.PLP.Chemscore.Metal>
0.0000

> <Gold.Chemscore.Hbonds>
donor molecule, donor type, donor heavy atom, donor atom, acceptor molecule, acceptor atom, score
      P1  H  7989  7998       L1     6  0.30
      P1  H  7997  8010       L1    17  0.70
      P1  H 10752 10764       L1     1  0.96
      L1  C     9    36       P1  8028  0.81

> <Gold.PLP.Chemscore.Internal.Correction>
4.1672

> <Gold.Rescore>
     Score         DG    S(hbond)    S(metal)    S(lipo)     H(rot)  DE(clash)    DE(int)     intcor
     14.73     -19.95       1.84        0.00     107.84       1.67       0.76       4.45       ----

> <Gold.Chemscore.Fitness>
14.7279

> <Gold.Chemscore.DG>
-19.9466

> <Gold.Chemscore.ZeroCoef>
-5.4800

> <Gold.Chemscore.Hbond>
1.8370

> <Gold.Chemscore.Metal>
0.0000

> <Gold.Chemscore.Lipo>
107.8403

> <Gold.Chemscore.Internal_Hbond>
0.0000

> <Gold.Chemscore.DEClash>
0.7648

> <Gold.Chemscore.DEInternal>
4.4539

> <Gold.Chemscore.Rot>
1.6744

> <Gold.Chemscore.Internal.Correction>
   9.000000E+99

> <Gold.Chemscore.Hbonds>
donor molecule, donor type, donor heavy atom, donor atom, acceptor molecule, acceptor atom, score
      P1  H  7997  8010       L1    17  0.54
      P1  H 10752 10764       L1     1  0.90

> <Gold.Chemscore.Hbond.Weighted>
-6.1357

> <Gold.Chemscore.Metal.Weighted>
-0.0000

> <Gold.Chemscore.Lipo.Weighted>
-12.6173

> <Gold.Chemscore.Internal_Hbond.Weighted>
0.0000

> <Gold.Chemscore.DEClash.Weighted>
0.7648

> <Gold.Chemscore.DEInternal.Weighted>
4.4539

> <Gold.Chemscore.Rot.Weighted>
4.2865

> <Gold.Chemscore.Internal.Correction.Weighted>
   9.000000E+99

> <Gold.Protein.RotatedTorsions>
[ 6907 6896 6895 6894 ] final  -45.68 input  -60.11 | X-H torsion
[ 7974 7965 7964 7962 ] final  -63.58 input  175.53 | X-H torsion
[ 8008 7997 7996 7995 ] final   38.34 input   59.86 | X-H torsion
[ 10167 10162 10161 10158 ] final   31.29 input  -65.29 | X-H torsion
[ 10718 10713 10712 10709 ] final  -38.98 input   66.30 | X-H torsion
[ 10763 10752 10751 10750 ] final  -11.85 input  -60.55 | X-H torsion
[ 11005 11000 10999 10996 ] final -127.93 input  -57.11 | X-H torsion

> <Gold.Protein.ActiveResidues>
 VAL166  LYS551  ARG553  GLY616  TRP617  ASP618  TYR619  PRO620  LYS621  CYS622 
 ASP623  PHE694  ASN695  SER759  ASP760  ASP761  ALA762  ILE779  LEU786  VAL792 
 PHE793  MET794  SER795  GLU796  ALA797  LYS798  CYS799  TRP800  GLU811  SER814 

> <Gold.Protein.RotatedAtoms>
  150.9193  134.8610  159.7477 H   0  0  0  0  0  0  0  0  0  0  0  0  # atno 6907 bound_to 6896
  152.4984  134.4242  159.9501 H   0  0  0  0  0  0  0  0  0  0  0  0  # atno 6908 bound_to 6896
  151.4278  133.3639  159.2800 H   0  0  0  0  0  0  0  0  0  0  0  0  # atno 6909 bound_to 6896
  145.7773  140.8781  143.0349 H   0  0  0  0  0  0  0  0  0  0  0  0  # atno 7974 bound_to 7965
  155.2186  140.3329  155.4318 H   0  0  0  0  0  0  0  0  0  0  0  0  # atno 8008 bound_to 7997
  156.2342  140.1864  156.7211 H   0  0  0  0  0  0  0  0  0  0  0  0  # atno 8009 bound_to 7997
  154.6030  140.0620  156.9379 H   0  0  0  0  0  0  0  0  0  0  0  0  # atno 8010 bound_to 7997
  140.4602  144.0918  150.6211 H   0  0  0  0  0  0  0  0  0  0  0  0  # atno 10167 bound_to 10162
  156.2976  130.4236  149.8175 H   0  0  0  0  0  0  0  0  0  0  0  0  # atno 10718 bound_to 10713
  153.4898  135.7017  153.5890 H   0  0  0  0  0  0  0  0  0  0  0  0  # atno 10763 bound_to 10752
  153.4067  135.3858  155.2024 H   0  0  0  0  0  0  0  0  0  0  0  0  # atno 10764 bound_to 10752
  154.8717  135.3895  154.4358 H   0  0  0  0  0  0  0  0  0  0  0  0  # atno 10765 bound_to 10752
  140.9558  134.1003  157.4017 H   0  0  0  0  0  0  0  0  0  0  0  0  # atno 11005 bound_to 11000
  144.6802  139.9939  143.7484 LP  0  0  0  0  0  0  0  0  0  0  0  0  # atno 17320 bound_to 7965
  146.0110  139.3169  143.0870 LP  0  0  0  0  0  0  0  0  0  0  0  0  # atno 17321 bound_to 7965
  140.4102  143.2660  151.9842 LP  0  0  0  0  0  0  0  0  0  0  0  0  # atno 17342 bound_to 10162
  139.4805  144.5922  151.7752 LP  0  0  0  0  0  0  0  0  0  0  0  0  # atno 17343 bound_to 10162
  156.5566  130.8365  151.3316 LP  0  0  0  0  0  0  0  0  0  0  0  0  # atno 17370 bound_to 10713
  157.7359  130.9770  150.2109 LP  0  0  0  0  0  0  0  0  0  0  0  0  # atno 17371 bound_to 10713
  139.8862  135.0079  156.6482 LP  0  0  0  0  0  0  0  0  0  0  0  0  # atno 17394 bound_to 11000
  140.7538  133.8875  155.8366 LP  0  0  0  0  0  0  0  0  0  0  0  0  # atno 17395 bound_to 11000

$$$$
