AV-unprocessed.smi:1995|AV-procd|sdf|8079|dock3
  -GOLD-   2272010293D 1   1.00000     0.00000
 Structure written by MMmdl.
 43 44  0  0  0  0  0  0  0  0  2 V2000
  146.7346  143.4292  153.7734 C   0  0  0  0  0  0  0  0  0  0  0  0
  146.9155  142.0403  153.1348 C   0  0  0  0  0  0  0  0  0  0  0  0
  147.0823  140.8535  154.1330 C   0  0  2  0  0  0  0  0  0  0  0  0
  146.4497  141.2927  155.4798 C   0  0  0  0  0  0  0  0  0  0  0  0
  148.5978  140.5587  154.3621 C   0  0  0  0  0  0  0  0  0  0  0  0
  149.2636  141.5269  155.2337 N   0  0  0  0  0  0  0  0  0  0  0  0
  150.0775  141.2237  156.2559 C   0  0  0  0  0  0  0  0  0  0  0  0
  150.3833  140.0705  156.5603 O   0  0  0  0  0  0  0  0  0  0  0  0
  150.5057  142.3332  156.8825 N   0  0  0  0  0  0  0  0  0  0  0  0
  151.3705  142.4285  158.0041 C   0  0  0  0  0  0  0  0  0  0  0  0
  151.6163  141.4254  158.8550 N   0  0  0  0  0  0  0  0  0  0  0  0
  152.5057  141.8006  159.8652 C   0  0  0  0  0  0  0  0  0  0  0  0
  152.9303  143.1025  159.7673 C   0  0  0  0  0  0  0  0  0  0  0  0
  152.2260  143.9136  158.3940 S   0  0  0  0  0  0  0  0  0  0  0  0
  146.3797  139.6306  153.5968 N   0  3  0  0  0  0  0  0  0  0  0  0
  147.0472  138.9458  152.4530 C   0  0  0  0  0  0  0  0  0  0  0  0
  146.1302  137.8606  151.8670 C   0  0  0  0  0  0  0  0  0  0  0  0
  145.8004  136.9218  152.8810 O   0  0  0  0  0  0  0  0  0  0  0  0
  145.0909  137.5307  153.9503 C   0  0  0  0  0  0  0  0  0  0  0  0
  145.9616  138.6164  154.6061 C   0  0  0  0  0  0  0  0  0  0  0  0
  146.6299  144.1902  152.9998 H   0  0  0  0  0  0  0  0  0  0  0  0
  147.5911  143.7090  154.3863 H   0  0  0  0  0  0  0  0  0  0  0  0
  145.8424  143.4790  154.3974 H   0  0  0  0  0  0  0  0  0  0  0  0
  146.0840  141.8531  152.4556 H   0  0  0  0  0  0  0  0  0  0  0  0
  147.7884  142.0962  152.4838 H   0  0  0  0  0  0  0  0  0  0  0  0
  146.7790  142.2898  155.7742 H   0  0  0  0  0  0  0  0  0  0  0  0
  146.7254  140.6274  156.2983 H   0  0  0  0  0  0  0  0  0  0  0  0
  145.3609  141.3174  155.4280 H   0  0  0  0  0  0  0  0  0  0  0  0
  148.7276  139.5850  154.8331 H   0  0  0  0  0  0  0  0  0  0  0  0
  149.1339  140.5010  153.4149 H   0  0  0  0  0  0  0  0  0  0  0  0
  149.0736  142.5023  155.0554 H   0  0  0  0  0  0  0  0  0  0  0  0
  150.1703  143.2132  156.5199 H   0  0  0  0  0  0  0  0  0  0  0  0
  152.7835  141.0751  160.6154 H   0  0  0  0  0  0  0  0  0  0  0  0
  153.6123  143.6307  160.4172 H   0  0  0  0  0  0  0  0  0  0  0  0
  147.2972  139.6440  151.6566 H   0  0  0  0  0  0  0  0  0  0  0  0
  147.9784  138.4818  152.7778 H   0  0  0  0  0  0  0  0  0  0  0  0
  145.2241  138.2993  151.4453 H   0  0  0  0  0  0  0  0  0  0  0  0
  146.6386  137.3381  151.0563 H   0  0  0  0  0  0  0  0  0  0  0  0
  144.1525  137.9523  153.5865 H   0  0  0  0  0  0  0  0  0  0  0  0
  144.8322  136.7651  154.6821 H   0  0  0  0  0  0  0  0  0  0  0  0
  146.8369  138.1542  155.0629 H   0  0  0  0  0  0  0  0  0  0  0  0
  145.3771  139.0630  155.4081 H   0  0  0  0  0  0  0  0  0  0  0  0
  145.5147  139.9893  153.2186 H   0  0  0  0  0  0  0  0  0  0  0  0
  1  2  1  0  0  0  0
  1 21  1  0  0  0  0
  1 22  1  0  0  0  0
  1 23  1  0  0  0  0
  2  3  1  0  0  0  0
  2 24  1  0  0  0  0
  2 25  1  0  0  0  0
  3  4  1  0  0  0  0
  3  5  1  0  0  0  0
  3 15  1  0  0  0  0
  4 26  1  0  0  0  0
  4 27  1  0  0  0  0
  4 28  1  0  0  0  0
  5  6  1  0  0  0  0
  5 29  1  0  0  0  0
  5 30  1  0  0  0  0
  6  7  1  0  0  0  0
  6 31  1  0  0  0  0
  7  8  2  0  0  0  0
  7  9  1  0  0  0  0
  9 10  1  0  0  0  0
  9 32  1  0  0  0  0
 10 14  1  0  0  0  0
 10 11  2  0  0  0  0
 11 12  1  0  0  0  0
 12 13  2  0  0  0  0
 12 33  1  0  0  0  0
 13 14  1  0  0  0  0
 13 34  1  0  0  0  0
 15 20  1  0  0  0  0
 15 16  1  0  0  0  0
 15 43  1  0  0  0  0
 16 17  1  0  0  0  0
 16 35  1  0  0  0  0
 16 36  1  0  0  0  0
 17 18  1  0  0  0  0
 17 37  1  0  0  0  0
 17 38  1  0  0  0  0
 18 19  1  0  0  0  0
 19 20  1  0  0  0  0
 19 39  1  0  0  0  0
 19 40  1  0  0  0  0
 20 41  1  0  0  0  0
 20 42  1  0  0  0  0
M  CHG  1  15   1
M  END
> <s_m_source_file>
AV-unprocessed.smi

> <i_m_source_file_index>
1995

> <i_lp_mmshare_version>
43012

> <i_f3d_flags>
0

> <s_epik_input>
W0NIMl0xW0NIMl1PW0NIMl1bQ0gyXU4xW0NAQF0oW0NIM10pKFtDSDJdW0NIM10pW0NIMl1bTkhdQyg9TylbTkhdYzJuW2NIXVtjSF1zMg==

> <s_epik_cmdline>
J2VwaWtfcHl0aG9uJywgJy1waCcsICc3LjAnLCAnLXRuJywgJzgnLCAnLW1hJywgJzIwMCcsICctbWV0YWxfYmluZGluZycsICctaW1hZScsICc8aW5maWxlLm1hZT4nLCAnLW9tYWUnLCAnPG91dGZpbGUubWFlPic=

> <r_lp_tautomer_probability>
0.999

> <r_epik_Ionization_Penalty>
0.55406

> <r_epik_Ionization_Penalty_Charging>
0.553838

> <r_epik_Ionization_Penalty_Neutral>
0.000222147

> <r_epik_State_Penalty>
0.564424

> <r_epik_Charging_Adjusted_Penalty>
1.11826

> <i_epik_Tot_Q>
1

> <i_epik_Tot_abs_Q>
1

> <r_epik_Metal_State_Penalty>
0.573776

> <b_epik_Metal_Only>
0

> <s_lp_Force_Field>
OPLS_2005

> <r_lp_Energy>
26.593

> <b_lp_Chiralities_Consistent>
1

> <s_lp_Variant>
AV-unprocessed.smi:1995-4

> <Gold.Version>
5.8.1

> <Gold.Id.Protein>
6NUR|6NUR_protein|mol2

> <Gold.PLP.Fitness>
45.9586

> <Gold.PLP.PLP>
-37.1016

> <Gold.PLP.part.hbond>
-3.0000

> <Gold.PLP.part.metal>
0.0000

> <Gold.PLP.part.buried>
-3.3109

> <Gold.PLP.part.nonpolar>
-30.9986

> <Gold.PLP.part.repulsive>
0.4519

> <Gold.PLP.ligand.clash>
0.0324

> <Gold.PLP.ligand.torsion>
1.5804

> <Gold.PLP.Chemscore.Hbond>
3.9600

> <Gold.PLP.Chemscore.CHOScore>
0.0000

> <Gold.PLP.Chemscore.Metal>
0.0000

> <Gold.Chemscore.Hbonds>
donor molecule, donor type, donor heavy atom, donor atom, acceptor molecule, acceptor atom, score
      L1  H     6    31       P1  8028  0.34
      L1  H     9    32       P1  8028  0.68
      L1  H    15    43       P1 10175  1.98

> <Gold.PLP.Chemscore.Internal.Correction>
0.1701

> <Gold.Rescore>
     Score         DG    S(hbond)    S(metal)    S(lipo)     H(rot)  DE(clash)    DE(int)     intcor
     17.17     -20.94       2.93        0.00      87.76       1.79       0.35       3.42       ----

> <Gold.Chemscore.Fitness>
17.1682

> <Gold.Chemscore.DG>
-20.9357

> <Gold.Chemscore.ZeroCoef>
-5.4800

> <Gold.Chemscore.Hbond>
2.9285

> <Gold.Chemscore.Metal>
0.0000

> <Gold.Chemscore.Lipo>
87.7571

> <Gold.Chemscore.Internal_Hbond>
0.0000

> <Gold.Chemscore.DEClash>
0.3467

> <Gold.Chemscore.DEInternal>
3.4208

> <Gold.Chemscore.Rot>
1.7942

> <Gold.Chemscore.Internal.Correction>
   9.000000E+99

> <Gold.Chemscore.Hbonds>
donor molecule, donor type, donor heavy atom, donor atom, acceptor molecule, acceptor atom, score
      L1  H     6    31       P1  8028  0.32
      L1  H     9    32       P1  8028  0.69
      L1  H    15    43       P1 10175  0.92

> <Gold.Chemscore.Hbond.Weighted>
-9.7812

> <Gold.Chemscore.Metal.Weighted>
-0.0000

> <Gold.Chemscore.Lipo.Weighted>
-10.2676

> <Gold.Chemscore.Internal_Hbond.Weighted>
0.0000

> <Gold.Chemscore.DEClash.Weighted>
0.3467

> <Gold.Chemscore.DEInternal.Weighted>
3.4208

> <Gold.Chemscore.Rot.Weighted>
4.5931

> <Gold.Chemscore.Internal.Correction.Weighted>
   9.000000E+99

> <Gold.Protein.RotatedTorsions>
[ 6907 6896 6895 6894 ] final -102.44 input  -60.11 | X-H torsion
[ 7974 7965 7964 7962 ] final   17.58 input  175.53 | X-H torsion
[ 8008 7997 7996 7995 ] final  163.01 input   59.86 | X-H torsion
[ 10167 10162 10161 10158 ] final   97.10 input  -65.29 | X-H torsion
[ 10718 10713 10712 10709 ] final  -94.43 input   66.30 | X-H torsion
[ 10763 10752 10751 10750 ] final  -57.39 input  -60.55 | X-H torsion
[ 11005 11000 10999 10996 ] final  -34.87 input  -57.11 | X-H torsion

> <Gold.Protein.ActiveResidues>
 VAL166  LYS551  ARG553  GLY616  TRP617  ASP618  TYR619  PRO620  LYS621  CYS622 
 ASP623  PHE694  ASN695  SER759  ASP760  ASP761  ALA762  ILE779  LEU786  VAL792 
 PHE793  MET794  SER795  GLU796  ALA797  LYS798  CYS799  TRP800  GLU811  SER814 

> <Gold.Protein.RotatedAtoms>
  150.7196  134.0581  159.3821 H   0  0  0  0  0  0  0  0  0  0  0  0  # atno 6907 bound_to 6896
  151.8560  135.0539  160.0473 H   0  0  0  0  0  0  0  0  0  0  0  0  # atno 6908 bound_to 6896
  152.2754  133.5385  159.5501 H   0  0  0  0  0  0  0  0  0  0  0  0  # atno 6909 bound_to 6896
  146.2213  139.8581  142.8610 H   0  0  0  0  0  0  0  0  0  0  0  0  # atno 7974 bound_to 7965
  156.1989  140.1735  156.7940 H   0  0  0  0  0  0  0  0  0  0  0  0  # atno 8008 bound_to 7997
  154.5566  140.0707  156.8783 H   0  0  0  0  0  0  0  0  0  0  0  0  # atno 8009 bound_to 7997
  155.2928  140.3356  155.4254 H   0  0  0  0  0  0  0  0  0  0  0  0  # atno 8010 bound_to 7997
  139.7832  144.6880  150.9993 H   0  0  0  0  0  0  0  0  0  0  0  0  # atno 10167 bound_to 10162
  156.0027  130.5067  150.5926 H   0  0  0  0  0  0  0  0  0  0  0  0  # atno 10718 bound_to 10713
  154.2216  135.6376  153.5146 H   0  0  0  0  0  0  0  0  0  0  0  0  # atno 10763 bound_to 10752
  152.9967  135.5498  154.6108 H   0  0  0  0  0  0  0  0  0  0  0  0  # atno 10764 bound_to 10752
  154.5569  135.2906  155.0930 H   0  0  0  0  0  0  0  0  0  0  0  0  # atno 10765 bound_to 10752
  140.9751  133.7088  156.1588 H   0  0  0  0  0  0  0  0  0  0  0  0  # atno 11005 bound_to 11000
  145.2732  141.0115  143.3760 LP  0  0  0  0  0  0  0  0  0  0  0  0  # atno 17320 bound_to 7965
  144.9207  139.4415  143.6542 LP  0  0  0  0  0  0  0  0  0  0  0  0  # atno 17321 bound_to 7965
  140.7819  143.4460  151.0482 LP  0  0  0  0  0  0  0  0  0  0  0  0  # atno 17342 bound_to 10162
  139.8140  143.7912  152.3173 LP  0  0  0  0  0  0  0  0  0  0  0  0  # atno 17343 bound_to 10162
  157.3788  131.0777  151.1495 LP  0  0  0  0  0  0  0  0  0  0  0  0  # atno 17370 bound_to 10713
  157.2224  130.6487  149.5816 LP  0  0  0  0  0  0  0  0  0  0  0  0  # atno 17371 bound_to 10713
  140.7271  134.4295  157.5569 LP  0  0  0  0  0  0  0  0  0  0  0  0  # atno 17394 bound_to 11000
  139.8927  134.8748  156.2258 LP  0  0  0  0  0  0  0  0  0  0  0  0  # atno 17395 bound_to 11000

$$$$
