AV-unprocessed.smi:710|AV-procd|sdf|3463|dock7
  -GOLD-   22720 0453D 1   1.00000     0.00000
 Structure written by MMmdl.
 40 41  0  0  0  0  0  0  0  0  1 V2000
  148.1420  140.5092  157.4306 C   0  0  0  0  0  0  0  0  0  0  0  0
  147.2140  141.3795  156.6317 C   0  0  0  0  0  0  0  0  0  0  0  0
  146.1158  141.8395  157.2061 N   0  0  0  0  0  0  0  0  0  0  0  0
  145.5072  142.5731  156.2540 N   0  0  0  0  0  0  0  0  0  0  0  0
  144.2550  143.2287  156.5804 C   0  0  0  0  0  0  0  0  0  0  0  0
  146.2236  142.5759  155.0708 C   0  0  0  0  0  0  0  0  0  0  0  0
  145.7670  143.3201  153.8567 C   0  0  0  0  0  0  0  0  0  0  0  0
  147.3402  141.8090  155.2772 C   0  0  0  0  0  0  0  0  0  0  0  0
  148.4542  141.4865  154.3132 C   0  0  0  0  0  0  0  0  0  0  0  0
  149.7781  141.3919  155.0714 C   0  0  0  0  0  0  0  0  0  0  0  0
  150.4910  140.3974  154.9421 O   0  0  0  0  0  0  0  0  0  0  0  0
  150.0891  142.4303  155.8618 N   0  0  0  0  0  0  0  0  0  0  0  0
  151.2938  142.5386  156.6799 C   0  0  0  0  0  0  0  0  0  0  0  0
  151.0498  143.2454  158.0358 C   0  0  2  0  0  0  0  0  0  0  0  0
  149.7054  143.0126  158.4167 O   0  0  0  0  0  0  0  0  0  0  0  0
  151.2205  144.7702  157.9257 C   0  0  0  0  0  0  0  0  0  0  0  0
  151.2467  145.3461  159.3456 C   0  0  0  0  0  0  0  0  0  0  0  0
  152.0310  144.1180  160.4205 S   0  0  0  0  0  0  0  0  0  0  0  0
  151.9913  142.8042  159.1715 C   0  0  0  0  0  0  0  0  0  0  0  0
  149.1306  140.4553  156.9752 H   0  0  0  0  0  0  0  0  0  0  0  0
  147.7555  139.4928  157.5056 H   0  0  0  0  0  0  0  0  0  0  0  0
  148.2703  140.8926  158.4431 H   0  0  0  0  0  0  0  0  0  0  0  0
  143.8212  143.7005  155.6994 H   0  0  0  0  0  0  0  0  0  0  0  0
  144.4286  143.9925  157.3389 H   0  0  0  0  0  0  0  0  0  0  0  0
  143.5463  142.4965  156.9686 H   0  0  0  0  0  0  0  0  0  0  0  0
  146.4674  143.2016  153.0306 H   0  0  0  0  0  0  0  0  0  0  0  0
  145.6793  144.3862  154.0668 H   0  0  0  0  0  0  0  0  0  0  0  0
  144.7948  142.9577  153.5225 H   0  0  0  0  0  0  0  0  0  0  0  0
  148.2733  140.5414  153.8000 H   0  0  0  0  0  0  0  0  0  0  0  0
  148.5388  142.2377  153.5272 H   0  0  0  0  0  0  0  0  0  0  0  0
  149.4381  143.2006  155.9064 H   0  0  0  0  0  0  0  0  0  0  0  0
  151.6179  141.5136  156.8621 H   0  0  0  0  0  0  0  0  0  0  0  0
  152.1075  143.0115  156.1267 H   0  0  0  0  0  0  0  0  0  0  0  0
  149.1551  143.1197  157.6559 H   0  0  0  0  0  0  0  0  0  0  0  0
  152.1742  144.9935  157.4452 H   0  0  0  0  0  0  0  0  0  0  0  0
  150.4442  145.2333  157.3148 H   0  0  0  0  0  0  0  0  0  0  0  0
  151.7722  146.3001  159.3911 H   0  0  0  0  0  0  0  0  0  0  0  0
  150.2302  145.5116  159.7037 H   0  0  0  0  0  0  0  0  0  0  0  0
  151.7004  141.8510  159.6147 H   0  0  0  0  0  0  0  0  0  0  0  0
  153.0066  142.6908  158.7899 H   0  0  0  0  0  0  0  0  0  0  0  0
  1  2  1  0  0  0  0
  1 20  1  0  0  0  0
  1 21  1  0  0  0  0
  1 22  1  0  0  0  0
  2  8  1  0  0  0  0
  2  3  2  0  0  0  0
  3  4  1  0  0  0  0
  4  5  1  0  0  0  0
  4  6  1  0  0  0  0
  5 23  1  0  0  0  0
  5 24  1  0  0  0  0
  5 25  1  0  0  0  0
  6  7  1  0  0  0  0
  6  8  2  0  0  0  0
  7 26  1  0  0  0  0
  7 27  1  0  0  0  0
  7 28  1  0  0  0  0
  8  9  1  0  0  0  0
  9 10  1  0  0  0  0
  9 29  1  0  0  0  0
  9 30  1  0  0  0  0
 10 11  2  0  0  0  0
 10 12  1  0  0  0  0
 12 13  1  0  0  0  0
 12 31  1  0  0  0  0
 13 14  1  0  0  0  0
 13 32  1  0  0  0  0
 13 33  1  0  0  0  0
 14 19  1  0  0  0  0
 14 15  1  0  0  0  0
 14 16  1  0  0  0  0
 15 34  1  0  0  0  0
 16 17  1  0  0  0  0
 16 35  1  0  0  0  0
 16 36  1  0  0  0  0
 17 18  1  0  0  0  0
 17 37  1  0  0  0  0
 17 38  1  0  0  0  0
 18 19  1  0  0  0  0
 19 39  1  0  0  0  0
 19 40  1  0  0  0  0
M  END
> <s_m_source_file>
AV-unprocessed.smi

> <i_m_source_file_index>
710

> <i_lp_mmshare_version>
43012

> <i_f3d_flags>
0

> <s_epik_input>
W0NIM11jMW5uKFtDSDNdKWMoW0NIM10pYzFbQ0gyXUMoPU8pW05IXVtDSDJdW0NAQF0yKFtPSF0pW0NIMl1bQ0gyXVNbQ0gyXTI=

> <s_epik_cmdline>
J2VwaWtfcHl0aG9uJywgJy1waCcsICc3LjAnLCAnLXRuJywgJzgnLCAnLW1hJywgJzIwMCcsICctbWV0YWxfYmluZGluZycsICctaW1hZScsICc8aW5maWxlLm1hZT4nLCAnLW9tYWUnLCAnPG91dGZpbGUubWFlPic=

> <r_lp_tautomer_probability>
1

> <r_epik_Ionization_Penalty>
0.00343686

> <r_epik_Ionization_Penalty_Charging>
0

> <r_epik_Ionization_Penalty_Neutral>
0.00343686

> <r_epik_State_Penalty>
0.00243544

> <r_epik_Charging_Adjusted_Penalty>
0.00243544

> <i_epik_Tot_Q>
0

> <i_epik_Tot_abs_Q>
0

> <r_epik_Metal_State_Penalty>
-0

> <b_epik_Metal_Only>
0

> <s_lp_Force_Field>
OPLS_2005

> <r_lp_Energy>
11.3483

> <b_lp_Chiralities_Consistent>
1

> <s_lp_Variant>
AV-unprocessed.smi:710-2

> <Gold.Version>
5.8.1

> <Gold.Id.Protein>
6NUR|6NUR_protein|mol2

> <Gold.PLP.Fitness>
42.6153

> <Gold.PLP.PLP>
-38.8720

> <Gold.PLP.part.hbond>
-2.0000

> <Gold.PLP.part.metal>
0.0000

> <Gold.PLP.part.buried>
-5.1754

> <Gold.PLP.part.nonpolar>
-30.9733

> <Gold.PLP.part.repulsive>
0.2940

> <Gold.PLP.ligand.clash>
0.0000

> <Gold.PLP.ligand.torsion>
1.1361

> <Gold.PLP.Chemscore.Hbond>
2.0000

> <Gold.PLP.Chemscore.CHOScore>
0.0000

> <Gold.PLP.Chemscore.Metal>
0.0000

> <Gold.Chemscore.Hbonds>
donor molecule, donor type, donor heavy atom, donor atom, acceptor molecule, acceptor atom, score
      L1  H    12    31       P1  8028  1.00
      P1  H  7989  7998       L1    11  1.00

> <Gold.PLP.Chemscore.Internal.Correction>
0.0155

> <Gold.Rescore>
     Score         DG    S(hbond)    S(metal)    S(lipo)     H(rot)  DE(clash)    DE(int)     intcor
     12.63     -14.46       0.97        0.00      94.40       2.07       0.36       1.47       ----

> <Gold.Chemscore.Fitness>
12.6309

> <Gold.Chemscore.DG>
-14.4642

> <Gold.Chemscore.ZeroCoef>
-5.4800

> <Gold.Chemscore.Hbond>
0.9734

> <Gold.Chemscore.Metal>
0.0000

> <Gold.Chemscore.Lipo>
94.4023

> <Gold.Chemscore.Internal_Hbond>
0.0000

> <Gold.Chemscore.DEClash>
0.3620

> <Gold.Chemscore.DEInternal>
1.4713

> <Gold.Chemscore.Rot>
2.0750

> <Gold.Chemscore.Internal.Correction>
   9.000000E+99

> <Gold.Chemscore.Hbonds>
donor molecule, donor type, donor heavy atom, donor atom, acceptor molecule, acceptor atom, score
      L1  H    12    31       P1  8028  0.98
      P1  H  7989  7998       L1    11  0.38

> <Gold.Chemscore.Hbond.Weighted>
-3.2511

> <Gold.Chemscore.Metal.Weighted>
-0.0000

> <Gold.Chemscore.Lipo.Weighted>
-11.0451

> <Gold.Chemscore.Internal_Hbond.Weighted>
0.0000

> <Gold.Chemscore.DEClash.Weighted>
0.3620

> <Gold.Chemscore.DEInternal.Weighted>
1.4713

> <Gold.Chemscore.Rot.Weighted>
5.3120

> <Gold.Chemscore.Internal.Correction.Weighted>
   9.000000E+99

> <Gold.Protein.RotatedTorsions>
[ 6907 6896 6895 6894 ] final    5.44 input  -60.11 | X-H torsion
[ 7974 7965 7964 7962 ] final -143.01 input  175.53 | X-H torsion
[ 8008 7997 7996 7995 ] final  129.97 input   59.86 | X-H torsion
[ 10167 10162 10161 10158 ] final -101.68 input  -65.29 | X-H torsion
[ 10718 10713 10712 10709 ] final -174.02 input   66.30 | X-H torsion
[ 10763 10752 10751 10750 ] final  -54.81 input  -60.55 | X-H torsion
[ 11005 11000 10999 10996 ] final  132.28 input  -57.11 | X-H torsion

> <Gold.Protein.ActiveResidues>
 VAL166  LYS551  ARG553  GLY616  TRP617  ASP618  TYR619  PRO620  LYS621  CYS622 
 ASP623  PHE694  ASN695  SER759  ASP760  ASP761  ALA762  ILE779  LEU786  VAL792 
 PHE793  MET794  SER795  GLU796  ALA797  LYS798  CYS799  TRP800  GLU811  SER814 

> <Gold.Protein.RotatedAtoms>
  151.6575  135.0993  160.0172 H   0  0  0  0  0  0  0  0  0  0  0  0  # atno 6907 bound_to 6896
  152.3966  133.6751  159.6289 H   0  0  0  0  0  0  0  0  0  0  0  0  # atno 6908 bound_to 6896
  150.7872  133.8781  159.3319 H   0  0  0  0  0  0  0  0  0  0  0  0  # atno 6909 bound_to 6896
  144.8401  140.5888  143.5458 H   0  0  0  0  0  0  0  0  0  0  0  0  # atno 7974 bound_to 7965
  156.2946  140.2607  156.2686 H   0  0  0  0  0  0  0  0  0  0  0  0  # atno 8008 bound_to 7997
  154.9717  140.0391  157.2256 H   0  0  0  0  0  0  0  0  0  0  0  0  # atno 8009 bound_to 7997
  154.7852  140.2802  155.6038 H   0  0  0  0  0  0  0  0  0  0  0  0  # atno 8010 bound_to 7997
  140.2388  143.3554  152.0821 H   0  0  0  0  0  0  0  0  0  0  0  0  # atno 10167 bound_to 10162
  156.7789  130.9476  151.3120 H   0  0  0  0  0  0  0  0  0  0  0  0  # atno 10718 bound_to 10713
  154.1807  135.6444  153.5033 H   0  0  0  0  0  0  0  0  0  0  0  0  # atno 10763 bound_to 10752
  153.0060  135.5405  154.6517 H   0  0  0  0  0  0  0  0  0  0  0  0  # atno 10764 bound_to 10752
  154.5880  135.2931  155.0637 H   0  0  0  0  0  0  0  0  0  0  0  0  # atno 10765 bound_to 10752
  139.9780  134.9557  156.9559 H   0  0  0  0  0  0  0  0  0  0  0  0  # atno 11005 bound_to 11000
  145.4712  139.1503  143.3813 LP  0  0  0  0  0  0  0  0  0  0  0  0  # atno 17320 bound_to 7965
  146.2695  140.4845  142.8820 LP  0  0  0  0  0  0  0  0  0  0  0  0  # atno 17321 bound_to 7965
  139.5084  144.6850  151.5911 LP  0  0  0  0  0  0  0  0  0  0  0  0  # atno 17342 bound_to 10162
  140.6130  143.9401  150.6467 LP  0  0  0  0  0  0  0  0  0  0  0  0  # atno 17343 bound_to 10162
  157.6656  130.9004  149.9924 LP  0  0  0  0  0  0  0  0  0  0  0  0  # atno 17370 bound_to 10713
  156.1230  130.3645  149.9855 LP  0  0  0  0  0  0  0  0  0  0  0  0  # atno 17371 bound_to 10713
  140.5154  134.0960  155.7279 LP  0  0  0  0  0  0  0  0  0  0  0  0  # atno 17394 bound_to 11000
  141.1456  133.9062  157.2224 LP  0  0  0  0  0  0  0  0  0  0  0  0  # atno 17395 bound_to 11000

$$$$
