AV-unprocessed.smi:3096|AV-procd|sdf|11797|dock9
  -GOLD-   2272017173D 1   1.00000     0.00000
 Structure written by MMmdl.
 33 33  0  0  0  0  0  0  0  0  2 V2000
  152.2028  138.9050  154.9365 C   0  0  0  0  0  0  0  0  0  0  0  0
  150.9735  139.4280  154.7858 C   0  0  0  0  0  0  0  0  0  0  0  0
  149.8899  138.9596  153.8249 C   0  0  0  0  0  0  0  0  0  0  0  0
  148.7671  139.9094  153.7478 N   0  0  0  0  0  0  0  0  0  0  0  0
  147.5650  139.6731  153.1854 C   0  0  0  0  0  0  0  0  0  0  0  0
  146.6164  140.6297  153.1971 N   0  3  0  0  0  0  0  0  0  0  0  0
  146.7577  141.9652  153.7893 C   0  0  0  0  0  0  0  0  0  0  0  0
  147.3126  138.4828  152.6082 N   0  0  0  0  0  0  0  0  0  0  0  0
  146.0636  138.0836  151.9459 C   0  0  0  0  0  0  0  0  0  0  0  0
  145.3514  136.9622  152.7178 C   0  0  0  0  0  0  0  0  0  0  0  0
  145.0015  135.8442  151.8605 N   0  0  0  0  0  0  0  0  0  0  0  0
  145.8349  135.0650  151.0862 C   0  0  0  0  0  0  0  0  0  0  0  0
  145.0559  134.1333  150.4622 C   0  0  0  0  0  0  0  0  0  0  0  0
  143.7422  134.4270  150.9229 C   0  0  0  0  0  0  0  0  0  0  0  0
  143.7126  135.4514  151.7603 N   0  0  0  0  0  0  0  0  0  0  0  0
  152.5469  138.0615  154.3562 H   0  0  0  0  0  0  0  0  0  0  0  0
  152.8907  139.3240  155.6561 H   0  0  0  0  0  0  0  0  0  0  0  0
  150.7012  140.2715  155.4035 H   0  0  0  0  0  0  0  0  0  0  0  0
  150.3247  138.8438  152.8320 H   0  0  0  0  0  0  0  0  0  0  0  0
  149.5238  137.9806  154.1350 H   0  0  0  0  0  0  0  0  0  0  0  0
  148.9232  140.8150  154.1668 H   0  0  0  0  0  0  0  0  0  0  0  0
  145.8372  142.5339  153.6582 H   0  0  0  0  0  0  0  0  0  0  0  0
  147.5717  142.5099  153.3108 H   0  0  0  0  0  0  0  0  0  0  0  0
  146.9677  141.8885  154.8563 H   0  0  0  0  0  0  0  0  0  0  0  0
  148.0563  137.7985  152.5940 H   0  0  0  0  0  0  0  0  0  0  0  0
  145.4109  138.9552  151.8929 H   0  0  0  0  0  0  0  0  0  0  0  0
  146.2736  137.7757  150.9212 H   0  0  0  0  0  0  0  0  0  0  0  0
  145.9762  136.5997  153.5358 H   0  0  0  0  0  0  0  0  0  0  0  0
  144.4377  137.3468  153.1723 H   0  0  0  0  0  0  0  0  0  0  0  0
  146.9007  135.2356  151.0447 H   0  0  0  0  0  0  0  0  0  0  0  0
  145.3757  133.3594  149.7803 H   0  0  0  0  0  0  0  0  0  0  0  0
  142.8160  133.9294  150.6761 H   0  0  0  0  0  0  0  0  0  0  0  0
  145.7273  140.4239  152.7641 H   0  0  0  0  0  0  0  0  0  0  0  0
  1  2  2  0  0  0  0
  1 16  1  0  0  0  0
  1 17  1  0  0  0  0
  2  3  1  0  0  0  0
  2 18  1  0  0  0  0
  3  4  1  0  0  0  0
  3 19  1  0  0  0  0
  3 20  1  0  0  0  0
  4  5  1  0  0  0  0
  4 21  1  0  0  0  0
  5  6  2  0  0  0  0
  5  8  1  0  0  0  0
  6  7  1  0  0  0  0
  6 33  1  0  0  0  0
  7 22  1  0  0  0  0
  7 23  1  0  0  0  0
  7 24  1  0  0  0  0
  8  9  1  0  0  0  0
  8 25  1  0  0  0  0
  9 10  1  0  0  0  0
  9 26  1  0  0  0  0
  9 27  1  0  0  0  0
 10 11  1  0  0  0  0
 10 28  1  0  0  0  0
 10 29  1  0  0  0  0
 11 15  1  0  0  0  0
 11 12  1  0  0  0  0
 12 13  2  0  0  0  0
 12 30  1  0  0  0  0
 13 14  1  0  0  0  0
 13 31  1  0  0  0  0
 14 15  2  0  0  0  0
 14 32  1  0  0  0  0
M  CHG  1   6   1
M  END
> <s_m_source_file>
AV-unprocessed.smi

> <i_m_source_file_index>
3096

> <i_lp_mmshare_version>
43012

> <i_f3d_flags>
0

> <s_epik_input>
W0NIMl09W0NIXVtDSDJdW05IXS9DKD1OL1tDSDNdKVtOSF1bQ0gyXVtDSDJdbjFbY0hdW2NIXVtjSF1uMQ==

> <s_epik_cmdline>
J2VwaWtfcHl0aG9uJywgJy1waCcsICc3LjAnLCAnLXRuJywgJzgnLCAnLW1hJywgJzIwMCcsICctbWV0YWxfYmluZGluZycsICctaW1hZScsICc8aW5maWxlLm1hZT4nLCAnLW9tYWUnLCAnPG91dGZpbGUubWFlPic=

> <r_lp_tautomer_probability>
1

> <r_epik_Ionization_Penalty>
5.14269e-05

> <r_epik_Ionization_Penalty_Charging>
1.55211e-07

> <r_epik_Ionization_Penalty_Neutral>
5.12717e-05

> <r_epik_State_Penalty>
-0

> <r_epik_Charging_Adjusted_Penalty>
1.55211e-07

> <i_epik_Tot_Q>
1

> <i_epik_Tot_abs_Q>
1

> <r_epik_Metal_State_Penalty>
-0

> <b_epik_Metal_Only>
0

> <s_epik_Chemistry_Notes>
This compound has an imine and may undergo hydrolysis.

> <s_lp_Force_Field>
OPLS_2005

> <r_lp_Energy>
6.72739

> <b_lp_Chiralities_Consistent>
1

> <s_lp_Variant>
AV-unprocessed.smi:3096-2

> <Gold.Version>
5.8.1

> <Gold.Id.Protein>
6NUR|6NUR_protein|mol2

> <Gold.PLP.Fitness>
44.7722

> <Gold.PLP.PLP>
-27.9209

> <Gold.PLP.part.hbond>
-3.6554

> <Gold.PLP.part.metal>
0.0000

> <Gold.PLP.part.buried>
1.9417

> <Gold.PLP.part.nonpolar>
-26.3305

> <Gold.PLP.part.repulsive>
0.3581

> <Gold.PLP.ligand.clash>
0.0000

> <Gold.PLP.ligand.torsion>
0.5043

> <Gold.PLP.Chemscore.Hbond>
3.9520

> <Gold.PLP.Chemscore.CHOScore>
2.0000

> <Gold.PLP.Chemscore.Metal>
0.0000

> <Gold.Chemscore.Hbonds>
donor molecule, donor type, donor heavy atom, donor atom, acceptor molecule, acceptor atom, score
      L1  H     6    33       P1 10175  1.85
      L1  H     8    25       P1  7948  2.00
      L1  C    12    30       P1  7948  1.00
      L1  C    14    32       P1 10186  1.00

> <Gold.PLP.Chemscore.Internal.Correction>
0.0040

> <Gold.Rescore>
     Score         DG    S(hbond)    S(metal)    S(lipo)     H(rot)  DE(clash)    DE(int)     intcor
     13.43     -13.93       1.87        0.00      60.29       1.89       0.08       0.42       ----

> <Gold.Chemscore.Fitness>
13.4255

> <Gold.Chemscore.DG>
-13.9286

> <Gold.Chemscore.ZeroCoef>
-5.4800

> <Gold.Chemscore.Hbond>
1.8656

> <Gold.Chemscore.Metal>
0.0000

> <Gold.Chemscore.Lipo>
60.2859

> <Gold.Chemscore.Internal_Hbond>
0.0000

> <Gold.Chemscore.DEClash>
0.0818

> <Gold.Chemscore.DEInternal>
0.4213

> <Gold.Chemscore.Rot>
1.8891

> <Gold.Chemscore.Internal.Correction>
   9.000000E+99

> <Gold.Chemscore.Hbonds>
donor molecule, donor type, donor heavy atom, donor atom, acceptor molecule, acceptor atom, score
      L1  H     6    33       P1 10175  0.69
      L1  H     8    25       P1  7948  0.96

> <Gold.Chemscore.Hbond.Weighted>
-6.2312

> <Gold.Chemscore.Metal.Weighted>
-0.0000

> <Gold.Chemscore.Lipo.Weighted>
-7.0534

> <Gold.Chemscore.Internal_Hbond.Weighted>
0.0000

> <Gold.Chemscore.DEClash.Weighted>
0.0818

> <Gold.Chemscore.DEInternal.Weighted>
0.4213

> <Gold.Chemscore.Rot.Weighted>
4.8361

> <Gold.Chemscore.Internal.Correction.Weighted>
   9.000000E+99

> <Gold.Protein.RotatedTorsions>
[ 6907 6896 6895 6894 ] final   86.08 input  -60.11 | X-H torsion
[ 7974 7965 7964 7962 ] final   -4.53 input  175.53 | X-H torsion
[ 8008 7997 7996 7995 ] final -134.19 input   59.86 | X-H torsion
[ 10167 10162 10161 10158 ] final  153.44 input  -65.29 | X-H torsion
[ 10718 10713 10712 10709 ] final -143.20 input   66.30 | X-H torsion
[ 10763 10752 10751 10750 ] final -142.25 input  -60.55 | X-H torsion
[ 11005 11000 10999 10996 ] final -111.78 input  -57.11 | X-H torsion

> <Gold.Protein.ActiveResidues>
 VAL166  LYS551  ARG553  GLY616  TRP617  ASP618  TYR619  PRO620  LYS621  CYS622 
 ASP623  PHE694  ASN695  SER759  ASP760  ASP761  ALA762  ILE779  LEU786  VAL792 
 PHE793  MET794  SER795  GLU796  ALA797  LYS798  CYS799  TRP800  GLU811  SER814 

> <Gold.Protein.RotatedAtoms>
  152.5387  134.2486  159.8889 H   0  0  0  0  0  0  0  0  0  0  0  0  # atno 6907 bound_to 6896
  151.2451  133.4373  159.2616 H   0  0  0  0  0  0  0  0  0  0  0  0  # atno 6908 bound_to 6896
  151.0591  134.9738  159.8307 H   0  0  0  0  0  0  0  0  0  0  0  0  # atno 6909 bound_to 6896
  146.2370  140.1885  142.8332 H   0  0  0  0  0  0  0  0  0  0  0  0  # atno 7974 bound_to 7965
  155.3580  140.0481  157.3046 H   0  0  0  0  0  0  0  0  0  0  0  0  # atno 8008 bound_to 7997
  154.5193  140.2219  155.8970 H   0  0  0  0  0  0  0  0  0  0  0  0  # atno 8009 bound_to 7997
  156.1671  140.3104  155.8914 H   0  0  0  0  0  0  0  0  0  0  0  0  # atno 8010 bound_to 7997
  139.4827  144.5273  151.7780 H   0  0  0  0  0  0  0  0  0  0  0  0  # atno 10167 bound_to 10162
  156.3551  130.7708  151.1867 H   0  0  0  0  0  0  0  0  0  0  0  0  # atno 10718 bound_to 10713
  154.8516  135.3501  154.5997 H   0  0  0  0  0  0  0  0  0  0  0  0  # atno 10763 bound_to 10752
  153.6606  135.6990  153.5183 H   0  0  0  0  0  0  0  0  0  0  0  0  # atno 10764 bound_to 10752
  153.2820  135.4260  155.1045 H   0  0  0  0  0  0  0  0  0  0  0  0  # atno 10765 bound_to 10752
  141.0714  133.9374  157.2477 H   0  0  0  0  0  0  0  0  0  0  0  0  # atno 11005 bound_to 11000
  144.9877  140.8518  143.5359 LP  0  0  0  0  0  0  0  0  0  0  0  0  # atno 17320 bound_to 7965
  145.1887  139.2312  143.5254 LP  0  0  0  0  0  0  0  0  0  0  0  0  # atno 17321 bound_to 7965
  140.4794  144.1471  150.5930 LP  0  0  0  0  0  0  0  0  0  0  0  0  # atno 17342 bound_to 10162
  140.4294  143.2575  151.9615 LP  0  0  0  0  0  0  0  0  0  0  0  0  # atno 17343 bound_to 10162
  157.7466  131.0416  150.4655 LP  0  0  0  0  0  0  0  0  0  0  0  0  # atno 17370 bound_to 10713
  156.4857  130.4084  149.6436 LP  0  0  0  0  0  0  0  0  0  0  0  0  # atno 17371 bound_to 10713
  139.9527  135.0172  156.9040 LP  0  0  0  0  0  0  0  0  0  0  0  0  # atno 17394 bound_to 11000
  140.5666  134.0484  155.7416 LP  0  0  0  0  0  0  0  0  0  0  0  0  # atno 17395 bound_to 11000

$$$$
