AV-unprocessed.smi:218|AV-procd|sdf|1663|dock4
  -GOLD-   2262020 63D 1   1.00000     0.00000
 Structure written by MMmdl.
 54 57  0  0  0  0  0  0  0  0  1 V2000
  152.3313  143.6366  158.2972 C   0  0  0  0  0  0  0  0  0  0  0  0
  151.2917  142.8181  157.5220 C   0  0  0  0  0  0  0  0  0  0  0  0
  149.9994  142.6438  158.3386 C   0  0  0  0  0  0  0  0  0  0  0  0
  151.8833  141.5461  157.2487 O   0  0  0  0  0  0  0  0  0  0  0  0
  151.4059  140.7668  156.2123 C   0  0  0  0  0  0  0  0  0  0  0  0
  150.0538  140.9077  155.8380 C   0  0  0  0  0  0  0  0  0  0  0  0
  149.5516  140.1126  154.7881 C   0  0  0  0  0  0  0  0  0  0  0  0
  148.1077  140.2345  154.3518 C   0  0  0  0  0  0  0  0  0  0  0  0
  147.7823  139.3657  153.2295 N   0  0  0  0  0  0  0  0  0  0  0  0
  146.9573  138.3123  153.4107 C   0  0  0  0  0  0  0  0  0  0  0  0
  146.6776  137.8510  154.6576 N   0  0  0  0  0  0  0  0  0  0  0  0
  145.8595  136.8067  154.8146 C   0  0  0  0  0  0  0  0  0  0  0  0
  145.2298  136.0936  153.8791 N   0  0  0  0  0  0  0  0  0  0  0  0
  145.5063  136.5510  152.6236 C   0  0  0  0  0  0  0  0  0  0  0  0
  146.3539  137.6503  152.3098 C   0  0  0  0  0  0  0  0  0  0  0  0
  146.3993  137.8322  150.9342 N   0  0  0  0  0  0  0  0  0  0  0  0
  145.6222  136.8931  150.4661 C   0  0  0  0  0  0  0  0  0  0  0  0
  145.0418  136.0767  151.4114 N   0  0  0  0  0  0  0  0  0  0  0  0
  144.1133  134.9243  151.1641 C   0  0  1  0  0  0  0  0  0  0  0  0
  143.8791  134.8019  149.7913 O   0  0  0  0  0  0  0  0  0  0  0  0
  144.2817  133.5138  149.3284 C   0  0  2  0  0  0  0  0  0  0  0  0
  143.3821  133.0957  148.1546 C   0  0  0  0  0  0  0  0  0  0  0  0
  143.4176  134.0655  147.1295 O   0  0  0  0  0  0  0  0  0  0  0  0
  144.1712  132.6365  150.5785 C   0  0  1  0  0  0  0  0  0  0  0  0
  144.9245  131.4412  150.5060 O   0  0  0  0  0  0  0  0  0  0  0  0
  144.6618  133.5761  151.6716 C   0  0  1  0  0  0  0  0  0  0  0  0
  146.0740  133.5552  151.8174 O   0  0  0  0  0  0  0  0  0  0  0  0
  150.4228  139.2105  154.1463 C   0  0  0  0  0  0  0  0  0  0  0  0
  151.7572  139.1397  154.5901 C   0  0  0  0  0  0  0  0  0  0  0  0
  152.2433  139.8940  155.5983 N   0  0  0  0  0  0  0  0  0  0  0  0
  143.1816  135.2107  151.6534 H   0  0  0  0  0  0  0  0  0  0  0  0
  145.3213  133.5812  149.0047 H   0  0  0  0  0  0  0  0  0  0  0  0
  143.1250  132.3864  150.7609 H   0  0  0  0  0  0  0  0  0  0  0  0
  144.2151  133.3410  152.6383 H   0  0  0  0  0  0  0  0  0  0  0  0
  151.9505  144.6296  158.5378 H   0  0  0  0  0  0  0  0  0  0  0  0
  153.2418  143.7647  157.7114 H   0  0  0  0  0  0  0  0  0  0  0  0
  152.6033  143.1469  159.2327 H   0  0  0  0  0  0  0  0  0  0  0  0
  151.0792  143.3596  156.5987 H   0  0  0  0  0  0  0  0  0  0  0  0
  149.5593  143.6110  158.5819 H   0  0  0  0  0  0  0  0  0  0  0  0
  150.1938  142.1213  159.2756 H   0  0  0  0  0  0  0  0  0  0  0  0
  149.2485  142.0734  157.7927 H   0  0  0  0  0  0  0  0  0  0  0  0
  149.4149  141.6128  156.3498 H   0  0  0  0  0  0  0  0  0  0  0  0
  147.4583  139.9982  155.1961 H   0  0  0  0  0  0  0  0  0  0  0  0
  147.9122  141.2722  154.0775 H   0  0  0  0  0  0  0  0  0  0  0  0
  148.2182  139.5919  152.3470 H   0  0  0  0  0  0  0  0  0  0  0  0
  145.6844  136.4982  155.8346 H   0  0  0  0  0  0  0  0  0  0  0  0
  145.4482  136.7695  149.4068 H   0  0  0  0  0  0  0  0  0  0  0  0
  143.6792  132.1253  147.7565 H   0  0  0  0  0  0  0  0  0  0  0  0
  142.3500  133.0025  148.4931 H   0  0  0  0  0  0  0  0  0  0  0  0
  142.6276  133.9905  146.6163 H   0  0  0  0  0  0  0  0  0  0  0  0
  145.1400  131.1746  151.3872 H   0  0  0  0  0  0  0  0  0  0  0  0
  146.2881  133.8296  152.6960 H   0  0  0  0  0  0  0  0  0  0  0  0
  150.0797  138.5865  153.3339 H   0  0  0  0  0  0  0  0  0  0  0  0
  152.4534  138.4588  154.1231 H   0  0  0  0  0  0  0  0  0  0  0  0
  1  2  1  0  0  0  0
  1 35  1  0  0  0  0
  1 36  1  0  0  0  0
  1 37  1  0  0  0  0
  2  3  1  0  0  0  0
  2  4  1  0  0  0  0
  2 38  1  0  0  0  0
  3 39  1  0  0  0  0
  3 40  1  0  0  0  0
  3 41  1  0  0  0  0
  4  5  1  0  0  0  0
  5 30  1  0  0  0  0
  5  6  2  0  0  0  0
  6  7  1  0  0  0  0
  6 42  1  0  0  0  0
  7  8  1  0  0  0  0
  7 28  2  0  0  0  0
  8  9  1  0  0  0  0
  8 43  1  0  0  0  0
  8 44  1  0  0  0  0
  9 10  1  0  0  0  0
  9 45  1  0  0  0  0
 10 15  1  0  0  0  0
 10 11  2  0  0  0  0
 11 12  1  0  0  0  0
 12 13  2  0  0  0  0
 12 46  1  0  0  0  0
 13 14  1  0  0  0  0
 14 18  1  0  0  0  0
 14 15  2  0  0  0  0
 15 16  1  0  0  0  0
 16 17  2  0  0  0  0
 17 18  1  0  0  0  0
 17 47  1  0  0  0  0
 18 19  1  0  0  0  0
 19 31  1  0  0  0  0
 19 26  1  0  0  0  0
 19 20  1  0  0  0  0
 20 21  1  0  0  0  0
 21 32  1  0  0  0  0
 21 22  1  0  0  0  0
 21 24  1  0  0  0  0
 22 23  1  0  0  0  0
 22 48  1  0  0  0  0
 22 49  1  0  0  0  0
 23 50  1  0  0  0  0
 24 33  1  0  0  0  0
 24 25  1  0  0  0  0
 24 26  1  0  0  0  0
 25 51  1  0  0  0  0
 26 34  1  0  0  0  0
 26 27  1  0  0  0  0
 27 52  1  0  0  0  0
 28 29  1  0  0  0  0
 28 53  1  0  0  0  0
 29 30  2  0  0  0  0
 29 54  1  0  0  0  0
M  END
> <s_m_source_file>
AV-unprocessed.smi

> <i_m_source_file_index>
218

> <i_lp_mmshare_version>
43012

> <i_f3d_flags>
0

> <s_epik_input>
W0NIM11bQ0hdKFtDSDNdKU9jMVtjSF1jKFtjSF1bY0hdbjEpW0NIMl1bTkhdYyhuW2NIXW4yKWMoYzIzKW5bY0hdbjNbQ0BASF00T1tDQEhdKFtDSDJdW09IXSlbQ0BASF0oW09IXSlbQ0BIXTRbT0hd

> <s_epik_cmdline>
J2VwaWtfcHl0aG9uJywgJy1waCcsICc3LjAnLCAnLXRuJywgJzgnLCAnLW1hJywgJzIwMCcsICctbWV0YWxfYmluZGluZycsICctaW1hZScsICc8aW5maWxlLm1hZT4nLCAnLW9tYWUnLCAnPG91dGZpbGUubWFlPic=

> <r_lp_tautomer_probability>
1

> <r_epik_Ionization_Penalty>
0.00457014

> <r_epik_Ionization_Penalty_Charging>
0

> <r_epik_Ionization_Penalty_Neutral>
0.00457014

> <r_epik_State_Penalty>
-0

> <r_epik_Charging_Adjusted_Penalty>
0

> <i_epik_Tot_Q>
0

> <i_epik_Tot_abs_Q>
0

> <r_epik_Metal_State_Penalty>
-0

> <b_epik_Metal_Only>
0

> <s_epik_Chemistry_Notes>
This compound contains an acetal/aminal-like group ( X-CH(R)-Y where X, Y are N, S, or O) that may be acid/base labile, releasing an aldehyde.

> <s_lp_Force_Field>
OPLS_2005

> <r_lp_Energy>
45.6959

> <b_lp_Chiralities_Consistent>
1

> <s_lp_Variant>
AV-unprocessed.smi:218-2

> <Gold.Version>
5.8.1

> <Gold.Id.Protein>
6NUR|6NUR_protein|mol2

> <Gold.PLP.Fitness>
62.5130

> <Gold.PLP.PLP>
-46.4144

> <Gold.PLP.part.hbond>
-6.0724

> <Gold.PLP.part.metal>
0.0000

> <Gold.PLP.part.buried>
0.0711

> <Gold.PLP.part.nonpolar>
-44.2569

> <Gold.PLP.part.repulsive>
3.3493

> <Gold.PLP.ligand.clash>
0.0000

> <Gold.PLP.ligand.torsion>
0.6982

> <Gold.PLP.Chemscore.Hbond>
4.7800

> <Gold.PLP.Chemscore.CHOScore>
0.9691

> <Gold.PLP.Chemscore.Metal>
0.0000

> <Gold.Chemscore.Hbonds>
donor molecule, donor type, donor heavy atom, donor atom, acceptor molecule, acceptor atom, score
      L1  H     9    45       P1  7957  1.00
      L1  H    23    50       P1 10195  0.99
      P1  H  7918  7932       L1    23  0.52
      P1  H  7954  7966       L1    16  0.96
      P1  H  7997  8008       L1    30  0.59
      L1  C    17    47       P1  7921  0.58
      L1  C    17    47       P1 10171  0.06

> <Gold.PLP.Chemscore.Internal.Correction>
0.2477

> <Gold.Rescore>
     Score         DG    S(hbond)    S(metal)    S(lipo)     H(rot)  DE(clash)    DE(int)     intcor
     11.35     -17.31       3.45        0.00     110.02       4.90       4.91       1.04       ----

> <Gold.Chemscore.Fitness>
11.3516

> <Gold.Chemscore.DG>
-17.3111

> <Gold.Chemscore.ZeroCoef>
-5.4800

> <Gold.Chemscore.Hbond>
3.4460

> <Gold.Chemscore.Metal>
0.0000

> <Gold.Chemscore.Lipo>
110.0246

> <Gold.Chemscore.Internal_Hbond>
0.0000

> <Gold.Chemscore.DEClash>
4.9147

> <Gold.Chemscore.DEInternal>
1.0448

> <Gold.Chemscore.Rot>
4.9029

> <Gold.Chemscore.Internal.Correction>
   9.000000E+99

> <Gold.Chemscore.Hbonds>
donor molecule, donor type, donor heavy atom, donor atom, acceptor molecule, acceptor atom, score
      L1  H     9    45       P1  7957  0.99
      L1  H    23    50       P1 10195  0.71
      P1  H  7918  7932       L1    23  0.07
      P1  H  7954  7966       L1    16  0.67
      P1  H  7997  8008       L1    30  0.50

> <Gold.Chemscore.Hbond.Weighted>
-11.5098

> <Gold.Chemscore.Metal.Weighted>
-0.0000

> <Gold.Chemscore.Lipo.Weighted>
-12.8729

> <Gold.Chemscore.Internal_Hbond.Weighted>
0.0000

> <Gold.Chemscore.DEClash.Weighted>
4.9147

> <Gold.Chemscore.DEInternal.Weighted>
1.0448

> <Gold.Chemscore.Rot.Weighted>
12.5515

> <Gold.Chemscore.Internal.Correction.Weighted>
   9.000000E+99

> <Gold.Protein.RotatedTorsions>
[ 6907 6896 6895 6894 ] final  104.48 input  -60.11 | X-H torsion
[ 7974 7965 7964 7962 ] final -115.58 input  175.53 | X-H torsion
[ 8008 7997 7996 7995 ] final  -33.66 input   59.86 | X-H torsion
[ 10167 10162 10161 10158 ] final -153.26 input  -65.29 | X-H torsion
[ 10718 10713 10712 10709 ] final   58.93 input   66.30 | X-H torsion
[ 10763 10752 10751 10750 ] final  -57.33 input  -60.55 | X-H torsion
[ 11005 11000 10999 10996 ] final   45.85 input  -57.11 | X-H torsion

> <Gold.Protein.ActiveResidues>
 VAL166  LYS551  ARG553  GLY616  TRP617  ASP618  TYR619  PRO620  LYS621  CYS622 
 ASP623  PHE694  ASN695  SER759  ASP760  ASP761  ALA762  ILE779  LEU786  VAL792 
 PHE793  MET794  SER795  GLU796  ALA797  LYS798  CYS799  TRP800  GLU811  SER814 

> <Gold.Protein.RotatedAtoms>
  152.5263  133.9670  159.7743 H   0  0  0  0  0  0  0  0  0  0  0  0  # atno 6907 bound_to 6896
  150.9950  133.6104  159.2710 H   0  0  0  0  0  0  0  0  0  0  0  0  # atno 6908 bound_to 6896
  151.3234  135.0830  159.9367 H   0  0  0  0  0  0  0  0  0  0  0  0  # atno 6909 bound_to 6896
  145.1067  140.8586  143.3894 H   0  0  0  0  0  0  0  0  0  0  0  0  # atno 7974 bound_to 7965
  154.4142  140.1705  156.1924 H   0  0  0  0  0  0  0  0  0  0  0  0  # atno 8008 bound_to 7997
  155.9592  140.3395  155.6452 H   0  0  0  0  0  0  0  0  0  0  0  0  # atno 8009 bound_to 7997
  155.6770  140.0718  157.2490 H   0  0  0  0  0  0  0  0  0  0  0  0  # atno 8010 bound_to 7997
  139.7112  143.9105  152.2469 H   0  0  0  0  0  0  0  0  0  0  0  0  # atno 10167 bound_to 10162
  157.5636  130.8854  149.9151 H   0  0  0  0  0  0  0  0  0  0  0  0  # atno 10718 bound_to 10713
  154.2208  135.6378  153.5144 H   0  0  0  0  0  0  0  0  0  0  0  0  # atno 10763 bound_to 10752
  152.9969  135.5496  154.6116 H   0  0  0  0  0  0  0  0  0  0  0  0  # atno 10764 bound_to 10752
  154.5576  135.2906  155.0924 H   0  0  0  0  0  0  0  0  0  0  0  0  # atno 10765 bound_to 10752
  140.1422  134.4568  155.8441 H   0  0  0  0  0  0  0  0  0  0  0  0  # atno 11005 bound_to 11000
  145.0893  139.2901  143.5743 LP  0  0  0  0  0  0  0  0  0  0  0  0  # atno 17320 bound_to 7965
  146.3528  140.0425  142.8642 LP  0  0  0  0  0  0  0  0  0  0  0  0  # atno 17321 bound_to 7965
  139.8975  144.6931  150.8702 LP  0  0  0  0  0  0  0  0  0  0  0  0  # atno 17342 bound_to 10162
  140.7733  143.3539  151.1960 LP  0  0  0  0  0  0  0  0  0  0  0  0  # atno 17343 bound_to 10162
  156.0686  130.3688  150.0824 LP  0  0  0  0  0  0  0  0  0  0  0  0  # atno 17370 bound_to 10713
  156.8986  130.9612  151.3579 LP  0  0  0  0  0  0  0  0  0  0  0  0  # atno 17371 bound_to 10713
  141.2187  133.6838  156.7268 LP  0  0  0  0  0  0  0  0  0  0  0  0  # atno 17394 bound_to 11000
  140.2708  134.8394  157.3845 LP  0  0  0  0  0  0  0  0  0  0  0  0  # atno 17395 bound_to 11000

$$$$
