AV-unprocessed.smi:2807|AV-procd|sdf|10822|dock3
  -GOLD-   2272015263D 1   1.00000     0.00000
 Structure written by MMmdl.
 31 32  0  0  0  0  0  0  0  0  2 V2000
  150.7483  140.1956  154.9393 O   0  0  0  0  0  0  0  0  0  0  0  0
  150.2558  140.6984  155.9557 C   0  0  0  0  0  0  0  0  0  0  0  0
  149.0768  141.3646  156.1155 N   0  5  0  0  0  0  0  0  0  0  0  0
  147.7515  140.7728  155.8988 C   0  0  2  0  0  0  0  0  0  0  0  0
  147.9127  139.3241  155.4140 C   0  0  0  0  0  0  0  0  0  0  0  0
  148.0236  139.3778  153.8787 C   0  0  0  0  0  0  0  0  0  0  0  0
  147.6016  140.7928  153.4537 C   0  0  0  0  0  0  0  0  0  0  0  0
  147.0190  141.4377  154.7177 C   0  0  2  0  0  0  0  0  0  0  0  0
  147.0990  142.8503  154.6957 O   0  0  0  0  0  0  0  0  0  0  0  0
  151.0454  140.6041  157.2786 C   0  0  0  0  0  0  0  0  0  0  0  0
  150.2933  140.0121  158.2128 F   0  0  0  0  0  0  0  0  0  0  0  0
  152.1191  139.8336  157.0854 F   0  0  0  0  0  0  0  0  0  0  0  0
  151.5080  141.9871  157.7357 C   0  0  0  0  0  0  0  0  0  0  0  0
  152.3442  142.1276  158.8669 C   0  0  0  0  0  0  0  0  0  0  0  0
  152.7596  143.4185  159.2451 C   0  0  0  0  0  0  0  0  0  0  0  0
  152.3261  144.5207  158.4845 C   0  0  0  0  0  0  0  0  0  0  0  0
  151.4935  144.2807  157.3738 C   0  0  0  0  0  0  0  0  0  0  0  0
  151.0887  143.0476  157.0036 N   0  0  0  0  0  0  0  0  0  0  0  0
  147.1285  140.8023  156.7942 H   0  0  0  0  0  0  0  0  0  0  0  0
  148.7572  138.8091  155.8749 H   0  0  0  0  0  0  0  0  0  0  0  0
  147.0178  138.7612  155.6822 H   0  0  0  0  0  0  0  0  0  0  0  0
  149.0453  139.1759  153.5533 H   0  0  0  0  0  0  0  0  0  0  0  0
  147.3847  138.6206  153.4226 H   0  0  0  0  0  0  0  0  0  0  0  0
  148.4782  141.3446  153.1067 H   0  0  0  0  0  0  0  0  0  0  0  0
  146.8837  140.7818  152.6331 H   0  0  0  0  0  0  0  0  0  0  0  0
  145.9636  141.1703  154.7853 H   0  0  0  0  0  0  0  0  0  0  0  0
  147.9458  143.0991  155.0335 H   0  0  0  0  0  0  0  0  0  0  0  0
  152.6669  141.2621  159.4266 H   0  0  0  0  0  0  0  0  0  0  0  0
  153.4010  143.5603  160.1024 H   0  0  0  0  0  0  0  0  0  0  0  0
  152.6254  145.5252  158.7439 H   0  0  0  0  0  0  0  0  0  0  0  0
  151.1417  145.1018  156.7670 H   0  0  0  0  0  0  0  0  0  0  0  0
  1  2  2  0  0  0  0
  2  3  1  0  0  0  0
  2 10  1  0  0  0  0
  3  4  1  0  0  0  0
  4  8  1  0  0  0  0
  4  5  1  0  0  0  0
  4 19  1  0  0  0  0
  5  6  1  0  0  0  0
  5 20  1  0  0  0  0
  5 21  1  0  0  0  0
  6  7  1  0  0  0  0
  6 22  1  0  0  0  0
  6 23  1  0  0  0  0
  7  8  1  0  0  0  0
  7 24  1  0  0  0  0
  7 25  1  0  0  0  0
  8  9  1  0  0  0  0
  8 26  1  0  0  0  0
  9 27  1  0  0  0  0
 10 11  1  0  0  0  0
 10 12  1  0  0  0  0
 10 13  1  0  0  0  0
 13 18  1  0  0  0  0
 13 14  2  0  0  0  0
 14 15  1  0  0  0  0
 14 28  1  0  0  0  0
 15 16  2  0  0  0  0
 15 29  1  0  0  0  0
 16 17  1  0  0  0  0
 16 30  1  0  0  0  0
 17 18  2  0  0  0  0
 17 31  1  0  0  0  0
M  CHG  1   3  -1
M  END
> <s_m_source_file>
AV-unprocessed.smi

> <i_m_source_file_index>
2807

> <i_lp_mmshare_version>
43012

> <i_f3d_flags>
0

> <s_epik_input>
bjFbY0hdW2NIXVtjSF1bY0hdYzFDKEYpKEYpQyg9TylbTkhdW0NAQEhdMltDSDJdW0NIMl1bQ0gyXVtDQEhdMltPSF0=

> <s_epik_cmdline>
J2VwaWtfcHl0aG9uJywgJy1waCcsICc3LjAnLCAnLXRuJywgJzgnLCAnLW1hJywgJzIwMCcsICctbWV0YWxfYmluZGluZycsICctaW1hZScsICc8aW5maWxlLm1hZT4nLCAnLW9tYWUnLCAnPG91dGZpbGUubWFlPic=

> <r_lp_tautomer_probability>
1

> <r_epik_Ionization_Penalty>
5.72231

> <r_epik_Ionization_Penalty_Charging>
5.72231

> <r_epik_Ionization_Penalty_Neutral>
5.49816e-06

> <r_epik_State_Penalty>
5.72227

> <r_epik_Charging_Adjusted_Penalty>
11.4446

> <i_epik_Tot_Q>
-1

> <i_epik_Tot_abs_Q>
1

> <r_epik_Metal_State_Penalty>
1.70075

> <b_epik_Metal_Only>
1

> <s_lp_Force_Field>
OPLS_2005

> <r_lp_Energy>
37.6883

> <b_lp_Chiralities_Consistent>
1

> <s_lp_Variant>
AV-unprocessed.smi:2807-7

> <Gold.Version>
5.8.1

> <Gold.Id.Protein>
6NUR|6NUR_protein|mol2

> <Gold.PLP.Fitness>
38.1677

> <Gold.PLP.PLP>
-32.0370

> <Gold.PLP.part.hbond>
-2.0000

> <Gold.PLP.part.metal>
0.0000

> <Gold.PLP.part.buried>
-2.3391

> <Gold.PLP.part.nonpolar>
-28.4931

> <Gold.PLP.part.repulsive>
0.2704

> <Gold.PLP.ligand.clash>
0.0000

> <Gold.PLP.ligand.torsion>
0.7535

> <Gold.PLP.Chemscore.Hbond>
1.7360

> <Gold.PLP.Chemscore.CHOScore>
0.7856

> <Gold.PLP.Chemscore.Metal>
0.0000

> <Gold.Chemscore.Hbonds>
donor molecule, donor type, donor heavy atom, donor atom, acceptor molecule, acceptor atom, score
      L1  H     9    27       P1  8028  0.75
      P1  H  7989  7998       L1     1  1.00
      L1  C    17    31       P1  8028  0.72

> <Gold.PLP.Chemscore.Internal.Correction>
0.0729

> <Gold.Rescore>
     Score         DG    S(hbond)    S(metal)    S(lipo)     H(rot)  DE(clash)    DE(int)     intcor
     12.10     -15.23       1.57        0.00      82.21       2.00       0.08       3.05       ----

> <Gold.Chemscore.Fitness>
12.0987

> <Gold.Chemscore.DG>
-15.2293

> <Gold.Chemscore.ZeroCoef>
-5.4800

> <Gold.Chemscore.Hbond>
1.5694

> <Gold.Chemscore.Metal>
0.0000

> <Gold.Chemscore.Lipo>
82.2068

> <Gold.Chemscore.Internal_Hbond>
0.0000

> <Gold.Chemscore.DEClash>
0.0805

> <Gold.Chemscore.DEInternal>
3.0501

> <Gold.Chemscore.Rot>
1.9964

> <Gold.Chemscore.Internal.Correction>
   9.000000E+99

> <Gold.Chemscore.Hbonds>
donor molecule, donor type, donor heavy atom, donor atom, acceptor molecule, acceptor atom, score
      L1  H     9    27       P1  8028  0.63
      P1  H  7989  7998       L1     1  1.00

> <Gold.Chemscore.Hbond.Weighted>
-5.2419

> <Gold.Chemscore.Metal.Weighted>
-0.0000

> <Gold.Chemscore.Lipo.Weighted>
-9.6182

> <Gold.Chemscore.Internal_Hbond.Weighted>
0.0000

> <Gold.Chemscore.DEClash.Weighted>
0.0805

> <Gold.Chemscore.DEInternal.Weighted>
3.0501

> <Gold.Chemscore.Rot.Weighted>
5.1108

> <Gold.Chemscore.Internal.Correction.Weighted>
   9.000000E+99

> <Gold.Protein.RotatedTorsions>
[ 6907 6896 6895 6894 ] final -145.43 input  -60.11 | X-H torsion
[ 7974 7965 7964 7962 ] final   29.24 input  175.53 | X-H torsion
[ 8008 7997 7996 7995 ] final   69.80 input   59.86 | X-H torsion
[ 10167 10162 10161 10158 ] final  -40.63 input  -65.29 | X-H torsion
[ 10718 10713 10712 10709 ] final  -89.82 input   66.30 | X-H torsion
[ 10763 10752 10751 10750 ] final -165.36 input  -60.55 | X-H torsion
[ 11005 11000 10999 10996 ] final   16.68 input  -57.11 | X-H torsion

> <Gold.Protein.ActiveResidues>
 VAL166  LYS551  ARG553  GLY616  TRP617  ASP618  TYR619  PRO620  LYS621  CYS622 
 ASP623  PHE694  ASN695  SER759  ASP760  ASP761  ALA762  ILE779  LEU786  VAL792 
 PHE793  MET794  SER795  GLU796  ALA797  LYS798  CYS799  TRP800  GLU811  SER814 

> <Gold.Protein.RotatedAtoms>
  151.1277  133.5059  159.2599 H   0  0  0  0  0  0  0  0  0  0  0  0  # atno 6907 bound_to 6896
  151.1791  135.0352  159.8795 H   0  0  0  0  0  0  0  0  0  0  0  0  # atno 6908 bound_to 6896
  152.5458  134.1131  159.8420 H   0  0  0  0  0  0  0  0  0  0  0  0  # atno 6909 bound_to 6896
  146.1683  139.6948  142.8986 H   0  0  0  0  0  0  0  0  0  0  0  0  # atno 7974 bound_to 7965
  155.7291  140.3492  155.5051 H   0  0  0  0  0  0  0  0  0  0  0  0  # atno 8008 bound_to 7997
  155.9199  140.1065  157.1236 H   0  0  0  0  0  0  0  0  0  0  0  0  # atno 8009 bound_to 7997
  154.4068  140.1251  156.4653 H   0  0  0  0  0  0  0  0  0  0  0  0  # atno 8010 bound_to 7997
  140.7028  143.3142  151.2952 H   0  0  0  0  0  0  0  0  0  0  0  0  # atno 10167 bound_to 10162
  155.9985  130.4886  150.5229 H   0  0  0  0  0  0  0  0  0  0  0  0  # atno 10718 bound_to 10713
  154.6939  135.2975  154.9439 H   0  0  0  0  0  0  0  0  0  0  0  0  # atno 10763 bound_to 10752
  154.0393  135.6659  153.4792 H   0  0  0  0  0  0  0  0  0  0  0  0  # atno 10764 bound_to 10752
  153.0632  135.5103  154.8047 H   0  0  0  0  0  0  0  0  0  0  0  0  # atno 10765 bound_to 10752
  140.4444  134.1288  155.7694 H   0  0  0  0  0  0  0  0  0  0  0  0  # atno 11005 bound_to 11000
  145.4409  141.0422  143.2858 LP  0  0  0  0  0  0  0  0  0  0  0  0  # atno 17320 bound_to 7965
  144.8124  139.5937  143.7023 LP  0  0  0  0  0  0  0  0  0  0  0  0  # atno 17321 bound_to 7965
  139.6575  144.0250  152.2669 LP  0  0  0  0  0  0  0  0  0  0  0  0  # atno 17342 bound_to 10162
  139.9806  144.6430  150.7904 LP  0  0  0  0  0  0  0  0  0  0  0  0  # atno 17343 bound_to 10162
  157.3188  131.0678  151.1947 LP  0  0  0  0  0  0  0  0  0  0  0  0  # atno 17370 bound_to 10713
  157.2868  130.6776  149.6093 LP  0  0  0  0  0  0  0  0  0  0  0  0  # atno 17371 bound_to 10713
  141.1691  133.8644  157.1624 LP  0  0  0  0  0  0  0  0  0  0  0  0  # atno 17394 bound_to 11000
  140.0048  135.0013  157.0269 LP  0  0  0  0  0  0  0  0  0  0  0  0  # atno 17395 bound_to 11000

$$$$
