AV-unprocessed.smi:3095|AV-procd|sdf|11794|dock3
  -GOLD-   2272017173D 1   1.00000     0.00000
 Structure written by MMmdl.
 24 25  0  0  0  0  0  0  0  0  1 V2000
  153.8366  140.1100  160.2116 C   0  0  0  0  0  0  0  0  0  0  0  0
  152.8537  140.6639  159.2285 C   0  0  0  0  0  0  0  0  0  0  0  0
  151.9757  141.6989  159.4325 C   0  0  0  0  0  0  0  0  0  0  0  0
  151.0067  142.0158  158.0200 S   0  0  0  0  0  0  0  0  0  0  0  0
  151.8544  140.7203  157.1824 C   0  0  0  0  0  0  0  0  0  0  0  0
  151.5256  140.3117  155.7817 C   0  0  2  0  0  0  0  0  0  0  0  0
  150.1573  140.8506  155.3218 C   0  0  0  0  0  0  0  0  0  0  0  0
  149.8472  140.3636  153.9787 N   0  0  0  0  0  0  0  0  0  0  0  0
  149.9113  138.9041  153.9187 C   0  0  0  0  0  0  0  0  0  0  0  0
  151.2796  138.4066  154.4192 C   0  0  0  0  0  0  0  0  0  0  0  0
  151.5101  138.8866  155.7398 O   0  0  0  0  0  0  0  0  0  0  0  0
  152.7665  140.1112  157.9476 N   0  0  0  0  0  0  0  0  0  0  0  0
  153.7434  140.5937  161.1844 H   0  0  0  0  0  0  0  0  0  0  0  0
  154.8611  140.2551  159.8680 H   0  0  0  0  0  0  0  0  0  0  0  0
  153.6851  139.0407  160.3601 H   0  0  0  0  0  0  0  0  0  0  0  0
  151.8380  142.2906  160.3254 H   0  0  0  0  0  0  0  0  0  0  0  0
  152.3163  140.6848  155.1281 H   0  0  0  0  0  0  0  0  0  0  0  0
  149.3817  140.5299  156.0187 H   0  0  0  0  0  0  0  0  0  0  0  0
  150.1589  141.9408  155.3337 H   0  0  0  0  0  0  0  0  0  0  0  0
  148.9189  140.6746  153.7103 H   0  0  0  0  0  0  0  0  0  0  0  0
  149.1191  138.4725  154.5315 H   0  0  0  0  0  0  0  0  0  0  0  0
  149.7386  138.5634  152.8978 H   0  0  0  0  0  0  0  0  0  0  0  0
  151.3000  137.3169  154.4322 H   0  0  0  0  0  0  0  0  0  0  0  0
  152.0812  138.7316  153.7537 H   0  0  0  0  0  0  0  0  0  0  0  0
  1  2  1  0  0  0  0
  1 13  1  0  0  0  0
  1 14  1  0  0  0  0
  1 15  1  0  0  0  0
  2 12  1  0  0  0  0
  2  3  2  0  0  0  0
  3  4  1  0  0  0  0
  3 16  1  0  0  0  0
  4  5  1  0  0  0  0
  5  6  1  0  0  0  0
  5 12  2  0  0  0  0
  6 11  1  0  0  0  0
  6  7  1  0  0  0  0
  6 17  1  0  0  0  0
  7  8  1  0  0  0  0
  7 18  1  0  0  0  0
  7 19  1  0  0  0  0
  8  9  1  0  0  0  0
  8 20  1  0  0  0  0
  9 10  1  0  0  0  0
  9 21  1  0  0  0  0
  9 22  1  0  0  0  0
 10 11  1  0  0  0  0
 10 23  1  0  0  0  0
 10 24  1  0  0  0  0
M  END
> <s_m_source_file>
AV-unprocessed.smi

> <i_m_source_file_index>
3095

> <i_lp_mmshare_version>
43012

> <i_f3d_flags>
0

> <s_epik_input>
W0NIM11jMVtjSF1zYyhuMSlbQ0BASF0yW0NIMl1bTkhdW0NIMl1bQ0gyXU8y

> <s_epik_cmdline>
J2VwaWtfcHl0aG9uJywgJy1waCcsICc3LjAnLCAnLXRuJywgJzgnLCAnLW1hJywgJzIwMCcsICctbWV0YWxfYmluZGluZycsICctaW1hZScsICc8aW5maWxlLm1hZT4nLCAnLW9tYWUnLCAnPG91dGZpbGUubWFlPic=

> <r_epik_Ionization_Penalty>
0.982843

> <r_epik_Ionization_Penalty_Charging>
0

> <r_epik_Ionization_Penalty_Neutral>
0.982843

> <r_epik_State_Penalty>
2.16535

> <r_epik_Charging_Adjusted_Penalty>
2.16535

> <i_epik_Tot_Q>
0

> <i_epik_Tot_abs_Q>
0

> <r_epik_Metal_State_Penalty>
2.16288

> <b_epik_Metal_Only>
0

> <s_lp_Force_Field>
OPLS_2005

> <r_lp_Energy>
7.28811

> <b_lp_Chiralities_Consistent>
1

> <s_lp_Variant>
AV-unprocessed.smi:3095-3

> <Gold.Version>
5.8.1

> <Gold.Id.Protein>
6NUR|6NUR_protein|mol2

> <Gold.PLP.Fitness>
29.7170

> <Gold.PLP.PLP>
-25.3919

> <Gold.PLP.part.hbond>
-2.7778

> <Gold.PLP.part.metal>
0.0000

> <Gold.PLP.part.buried>
-3.1873

> <Gold.PLP.part.nonpolar>
-19.1024

> <Gold.PLP.part.repulsive>
0.0000

> <Gold.PLP.ligand.clash>
0.0000

> <Gold.PLP.ligand.torsion>
0.4794

> <Gold.PLP.Chemscore.Hbond>
1.7576

> <Gold.PLP.Chemscore.CHOScore>
0.0000

> <Gold.PLP.Chemscore.Metal>
0.0000

> <Gold.Chemscore.Hbonds>
donor molecule, donor type, donor heavy atom, donor atom, acceptor molecule, acceptor atom, score
      P1  H  7989  7998       L1     8  0.29
      P1  H  7997  8010       L1    12  1.00

> <Gold.PLP.Chemscore.Internal.Correction>
0.0110

> <Gold.Rescore>
     Score         DG    S(hbond)    S(metal)    S(lipo)     H(rot)  DE(clash)    DE(int)     intcor
     13.06     -13.61       0.78        0.00      69.20       1.00       0.11       0.43       ----

> <Gold.Chemscore.Fitness>
13.0601

> <Gold.Chemscore.DG>
-13.6071

> <Gold.Chemscore.ZeroCoef>
-5.4800

> <Gold.Chemscore.Hbond>
0.7757

> <Gold.Chemscore.Metal>
0.0000

> <Gold.Chemscore.Lipo>
69.1994

> <Gold.Chemscore.Internal_Hbond>
0.0000

> <Gold.Chemscore.DEClash>
0.1129

> <Gold.Chemscore.DEInternal>
0.4341

> <Gold.Chemscore.Rot>
1.0000

> <Gold.Chemscore.Internal.Correction>
   9.000000E+99

> <Gold.Chemscore.Hbonds>
donor molecule, donor type, donor heavy atom, donor atom, acceptor molecule, acceptor atom, score
      P1  H  7997  8010       L1    12  0.54

> <Gold.Chemscore.Hbond.Weighted>
-2.5908

> <Gold.Chemscore.Metal.Weighted>
-0.0000

> <Gold.Chemscore.Lipo.Weighted>
-8.0963

> <Gold.Chemscore.Internal_Hbond.Weighted>
0.0000

> <Gold.Chemscore.DEClash.Weighted>
0.1129

> <Gold.Chemscore.DEInternal.Weighted>
0.4341

> <Gold.Chemscore.Rot.Weighted>
2.5600

> <Gold.Chemscore.Internal.Correction.Weighted>
   9.000000E+99

> <Gold.Protein.RotatedTorsions>
[ 6907 6896 6895 6894 ] final  -35.24 input  -60.11 | X-H torsion
[ 7974 7965 7964 7962 ] final  102.01 input  175.53 | X-H torsion
[ 8008 7997 7996 7995 ] final   42.86 input   59.86 | X-H torsion
[ 10167 10162 10161 10158 ] final   83.55 input  -65.29 | X-H torsion
[ 10718 10713 10712 10709 ] final   18.99 input   66.30 | X-H torsion
[ 10763 10752 10751 10750 ] final    2.73 input  -60.55 | X-H torsion
[ 11005 11000 10999 10996 ] final  -33.95 input  -57.11 | X-H torsion

> <Gold.Protein.ActiveResidues>
 VAL166  LYS551  ARG553  GLY616  TRP617  ASP618  TYR619  PRO620  LYS621  CYS622 
 ASP623  PHE694  ASN695  SER759  ASP760  ASP761  ALA762  ILE779  LEU786  VAL792 
 PHE793  MET794  SER795  GLU796  ALA797  LYS798  CYS799  TRP800  GLU811  SER814 

> <Gold.Protein.RotatedAtoms>
  151.0424  134.9616  159.8168 H   0  0  0  0  0  0  0  0  0  0  0  0  # atno 6907 bound_to 6896
  152.5366  134.2642  159.8957 H   0  0  0  0  0  0  0  0  0  0  0  0  # atno 6908 bound_to 6896
  151.2654  133.4238  159.2652 H   0  0  0  0  0  0  0  0  0  0  0  0  # atno 6909 bound_to 6896
  145.3648  139.2410  143.3487 H   0  0  0  0  0  0  0  0  0  0  0  0  # atno 7974 bound_to 7965
  155.2932  140.3380  155.4251 H   0  0  0  0  0  0  0  0  0  0  0  0  # atno 8008 bound_to 7997
  156.2036  140.1742  156.7886 H   0  0  0  0  0  0  0  0  0  0  0  0  # atno 8009 bound_to 7997
  154.5591  140.0690  156.8775 H   0  0  0  0  0  0  0  0  0  0  0  0  # atno 8010 bound_to 7997
  139.9172  144.6235  150.8477 H   0  0  0  0  0  0  0  0  0  0  0  0  # atno 10167 bound_to 10162
  157.1041  130.6480  149.5880 H   0  0  0  0  0  0  0  0  0  0  0  0  # atno 10718 bound_to 10713
  153.2920  135.6949  153.7284 H   0  0  0  0  0  0  0  0  0  0  0  0  # atno 10763 bound_to 10752
  153.6231  135.3423  155.3018 H   0  0  0  0  0  0  0  0  0  0  0  0  # atno 10764 bound_to 10752
  154.8526  135.4391  154.2005 H   0  0  0  0  0  0  0  0  0  0  0  0  # atno 10765 bound_to 10752
  140.9677  133.7127  156.1472 H   0  0  0  0  0  0  0  0  0  0  0  0  # atno 11005 bound_to 11000
  146.2911  140.4288  142.8739 LP  0  0  0  0  0  0  0  0  0  0  0  0  # atno 17320 bound_to 7965
  144.8620  140.7152  143.6101 LP  0  0  0  0  0  0  0  0  0  0  0  0  # atno 17321 bound_to 7965
  140.7671  143.3323  151.2384 LP  0  0  0  0  0  0  0  0  0  0  0  0  # atno 17342 bound_to 10162
  139.6892  143.9721  152.2850 LP  0  0  0  0  0  0  0  0  0  0  0  0  # atno 17343 bound_to 10162
  155.9866  130.4902  150.7088 LP  0  0  0  0  0  0  0  0  0  0  0  0  # atno 17370 bound_to 10713
  157.4615  131.0883  151.0740 LP  0  0  0  0  0  0  0  0  0  0  0  0  # atno 17371 bound_to 10713
  140.7375  134.4187  157.5559 LP  0  0  0  0  0  0  0  0  0  0  0  0  # atno 17394 bound_to 11000
  139.8900  134.8815  156.2390 LP  0  0  0  0  0  0  0  0  0  0  0  0  # atno 17395 bound_to 11000

$$$$
