AV-unprocessed.smi:2913|AV-procd|sdf|11182|dock8
  -GOLD-   2272016 73D 1   1.00000     0.00000
 Structure written by MMmdl.
 41 42  0  0  0  0  0  0  0  0  1 V2000
  145.5891  135.6359  151.7020 C   0  0  0  0  0  0  0  0  0  0  0  0
  145.5738  134.1230  151.5585 C   0  0  0  0  0  0  0  0  0  0  0  0
  144.5293  133.5156  150.9526 C   0  0  0  0  0  0  0  0  0  0  0  0
  144.4476  132.0643  150.7804 C   0  0  0  0  0  0  0  0  0  0  0  0
  143.4936  131.5208  150.2235 O   0  0  0  0  0  0  0  0  0  0  0  0
  145.4966  131.3544  151.2792 N   0  0  0  0  0  0  0  0  0  0  0  0
  145.5066  129.8935  151.1661 C   0  0  0  0  0  0  0  0  0  0  0  0
  146.5879  131.9726  151.9126 C   0  0  0  0  0  0  0  0  0  0  0  0
  146.6745  133.3128  152.0650 C   0  0  0  0  0  0  0  0  0  0  0  0
  147.7405  133.9715  152.7011 N   0  0  0  0  0  0  0  0  0  0  0  0
  148.4107  133.6366  153.8194 C   0  0  0  0  0  0  0  0  0  0  0  0
  148.2273  132.6240  154.4941 O   0  0  0  0  0  0  0  0  0  0  0  0
  149.3452  134.5555  154.1037 N   0  0  0  0  0  0  0  0  0  0  0  0
  150.2901  134.5054  155.2184 C   0  0  2  0  0  0  0  0  0  0  0  0
  149.5579  134.0103  156.4741 C   0  0  0  0  0  0  0  0  0  0  0  0
  150.9292  135.8921  155.4299 C   0  0  2  0  0  0  0  0  0  0  0  0
  149.9290  137.0335  155.6334 C   0  0  0  0  0  0  0  0  0  0  0  0
  150.7333  138.2307  155.1844 C   0  0  0  0  0  0  0  0  0  0  0  0
  151.4937  137.6566  153.9939 C   0  0  0  0  0  0  0  0  0  0  0  0
  151.6899  136.2752  154.2853 O   0  0  0  0  0  0  0  0  0  0  0  0
  144.7047  136.0938  151.2575 H   0  0  0  0  0  0  0  0  0  0  0  0
  146.4668  136.0548  151.2087 H   0  0  0  0  0  0  0  0  0  0  0  0
  145.6189  135.9165  152.7552 H   0  0  0  0  0  0  0  0  0  0  0  0
  143.7139  134.1159  150.5756 H   0  0  0  0  0  0  0  0  0  0  0  0
  146.4009  129.4399  151.5947 H   0  0  0  0  0  0  0  0  0  0  0  0
  145.4605  129.5899  150.1193 H   0  0  0  0  0  0  0  0  0  0  0  0
  144.6465  129.4645  151.6821 H   0  0  0  0  0  0  0  0  0  0  0  0
  147.3274  131.2735  152.2680 H   0  0  0  0  0  0  0  0  0  0  0  0
  148.0516  134.8102  152.2335 H   0  0  0  0  0  0  0  0  0  0  0  0
  149.4229  135.3518  153.4882 H   0  0  0  0  0  0  0  0  0  0  0  0
  151.0909  133.7965  155.0014 H   0  0  0  0  0  0  0  0  0  0  0  0
  150.2397  133.9276  157.3208 H   0  0  0  0  0  0  0  0  0  0  0  0
  149.1202  133.0250  156.3099 H   0  0  0  0  0  0  0  0  0  0  0  0
  148.7538  134.6891  156.7602 H   0  0  0  0  0  0  0  0  0  0  0  0
  151.6097  135.8655  156.2827 H   0  0  0  0  0  0  0  0  0  0  0  0
  149.0603  136.9048  154.9858 H   0  0  0  0  0  0  0  0  0  0  0  0
  149.5785  137.1160  156.6626 H   0  0  0  0  0  0  0  0  0  0  0  0
  150.1168  139.0914  154.9236 H   0  0  0  0  0  0  0  0  0  0  0  0
  151.4300  138.5306  155.9685 H   0  0  0  0  0  0  0  0  0  0  0  0
  150.8941  137.7359  153.0863 H   0  0  0  0  0  0  0  0  0  0  0  0
  152.4410  138.1666  153.8192 H   0  0  0  0  0  0  0  0  0  0  0  0
  1  2  1  0  0  0  0
  1 21  1  0  0  0  0
  1 22  1  0  0  0  0
  1 23  1  0  0  0  0
  2  9  1  0  0  0  0
  2  3  2  0  0  0  0
  3  4  1  0  0  0  0
  3 24  1  0  0  0  0
  4  5  2  0  0  0  0
  4  6  1  0  0  0  0
  6  7  1  0  0  0  0
  6  8  1  0  0  0  0
  7 25  1  0  0  0  0
  7 26  1  0  0  0  0
  7 27  1  0  0  0  0
  8  9  2  0  0  0  0
  8 28  1  0  0  0  0
  9 10  1  0  0  0  0
 10 11  1  0  0  0  0
 10 29  1  0  0  0  0
 11 12  2  0  0  0  0
 11 13  1  0  0  0  0
 13 14  1  0  0  0  0
 13 30  1  0  0  0  0
 14 15  1  0  0  0  0
 14 16  1  0  0  0  0
 14 31  1  0  0  0  0
 15 32  1  0  0  0  0
 15 33  1  0  0  0  0
 15 34  1  0  0  0  0
 16 20  1  0  0  0  0
 16 17  1  0  0  0  0
 16 35  1  0  0  0  0
 17 18  1  0  0  0  0
 17 36  1  0  0  0  0
 17 37  1  0  0  0  0
 18 19  1  0  0  0  0
 18 38  1  0  0  0  0
 18 39  1  0  0  0  0
 19 20  1  0  0  0  0
 19 40  1  0  0  0  0
 19 41  1  0  0  0  0
M  END
> <s_m_source_file>
AV-unprocessed.smi

> <i_m_source_file_index>
2913

> <i_lp_mmshare_version>
43012

> <i_f3d_flags>
0

> <s_epik_input>
W0NIM11jMVtjSF1jKD1PKW4oW0NIM10pW2NIXWMxW05IXUMoPU8pW05IXVtDQEhdKFtDSDNdKVtDQEBIXTJbQ0gyXVtDSDJdW0NIMl1PMg==

> <s_epik_cmdline>
J2VwaWtfcHl0aG9uJywgJy1waCcsICc3LjAnLCAnLXRuJywgJzgnLCAnLW1hJywgJzIwMCcsICctbWV0YWxfYmluZGluZycsICctaW1hZScsICc8aW5maWxlLm1hZT4nLCAnLW9tYWUnLCAnPG91dGZpbGUubWFlPic=

> <r_lp_tautomer_probability>
1

> <r_epik_Ionization_Penalty>
2.72039e-05

> <r_epik_Ionization_Penalty_Charging>
8.03976e-06

> <r_epik_Ionization_Penalty_Neutral>
1.91642e-05

> <r_epik_State_Penalty>
-0

> <r_epik_Charging_Adjusted_Penalty>
8.03976e-06

> <i_epik_Tot_Q>
0

> <i_epik_Tot_abs_Q>
0

> <r_epik_Metal_State_Penalty>
-0

> <b_epik_Metal_Only>
0

> <s_lp_Force_Field>
OPLS_2005

> <r_lp_Energy>
32.2239

> <b_lp_Chiralities_Consistent>
1

> <s_lp_Variant>
AV-unprocessed.smi:2913-1

> <Gold.Version>
5.8.1

> <Gold.Id.Protein>
6NUR|6NUR_protein|mol2

> <Gold.PLP.Fitness>
43.5862

> <Gold.PLP.PLP>
-33.1613

> <Gold.PLP.part.hbond>
-4.0000

> <Gold.PLP.part.metal>
0.0000

> <Gold.PLP.part.buried>
-6.1348

> <Gold.PLP.part.nonpolar>
-24.7177

> <Gold.PLP.part.repulsive>
0.6727

> <Gold.PLP.ligand.clash>
0.0000

> <Gold.PLP.ligand.torsion>
0.5763

> <Gold.PLP.Chemscore.Hbond>
3.8560

> <Gold.PLP.Chemscore.CHOScore>
0.0000

> <Gold.PLP.Chemscore.Metal>
0.0000

> <Gold.Chemscore.Hbonds>
donor molecule, donor type, donor heavy atom, donor atom, acceptor molecule, acceptor atom, score
      L1  H    10    29       P1  7948  1.00
      L1  H    13    30       P1  7948  0.84
      P1  H 10752 10764       L1    20  0.65
      P1  H 10785 10796       L1     5  0.90
      L1  C     8    28       P1 10747  0.42

> <Gold.PLP.Chemscore.Internal.Correction>
0.0095

> <Gold.Rescore>
     Score         DG    S(hbond)    S(metal)    S(lipo)     H(rot)  DE(clash)    DE(int)     intcor
     18.84     -21.16       3.33        0.00      65.27       1.21       0.23       2.09       ----

> <Gold.Chemscore.Fitness>
18.8385

> <Gold.Chemscore.DG>
-21.1567

> <Gold.Chemscore.ZeroCoef>
-5.4800

> <Gold.Chemscore.Hbond>
3.3348

> <Gold.Chemscore.Metal>
0.0000

> <Gold.Chemscore.Lipo>
65.2696

> <Gold.Chemscore.Internal_Hbond>
0.0000

> <Gold.Chemscore.DEClash>
0.2281

> <Gold.Chemscore.DEInternal>
2.0901

> <Gold.Chemscore.Rot>
1.2101

> <Gold.Chemscore.Internal.Correction>
   9.000000E+99

> <Gold.Chemscore.Hbonds>
donor molecule, donor type, donor heavy atom, donor atom, acceptor molecule, acceptor atom, score
      L1  H    10    29       P1  7948  0.50
      L1  H    13    30       P1  7948  0.14
      P1  H 10752 10764       L1    20  0.48
      P1  H 10785 10796       L1     5  0.83

> <Gold.Chemscore.Hbond.Weighted>
-11.1381

> <Gold.Chemscore.Metal.Weighted>
-0.0000

> <Gold.Chemscore.Lipo.Weighted>
-7.6365

> <Gold.Chemscore.Internal_Hbond.Weighted>
0.0000

> <Gold.Chemscore.DEClash.Weighted>
0.2281

> <Gold.Chemscore.DEInternal.Weighted>
2.0901

> <Gold.Chemscore.Rot.Weighted>
3.0979

> <Gold.Chemscore.Internal.Correction.Weighted>
   9.000000E+99

> <Gold.Protein.RotatedTorsions>
[ 6907 6896 6895 6894 ] final  -80.18 input  -60.11 | X-H torsion
[ 7974 7965 7964 7962 ] final  -47.84 input  175.53 | X-H torsion
[ 8008 7997 7996 7995 ] final   90.15 input   59.86 | X-H torsion
[ 10167 10162 10161 10158 ] final  160.56 input  -65.29 | X-H torsion
[ 10718 10713 10712 10709 ] final -129.82 input   66.30 | X-H torsion
[ 10763 10752 10751 10750 ] final  -76.67 input  -60.55 | X-H torsion
[ 11005 11000 10999 10996 ] final   17.17 input  -57.11 | X-H torsion

> <Gold.Protein.ActiveResidues>
 VAL166  LYS551  ARG553  GLY616  TRP617  ASP618  TYR619  PRO620  LYS621  CYS622 
 ASP623  PHE694  ASN695  SER759  ASP760  ASP761  ALA762  ILE779  LEU786  VAL792 
 PHE793  MET794  SER795  GLU796  ALA797  LYS798  CYS799  TRP800  GLU811  SER814 

> <Gold.Protein.RotatedAtoms>
  150.6934  134.4009  159.5118 H   0  0  0  0  0  0  0  0  0  0  0  0  # atno 6907 bound_to 6896
  152.1783  134.8773  160.0538 H   0  0  0  0  0  0  0  0  0  0  0  0  # atno 6908 bound_to 6896
  151.9773  133.3711  159.4131 H   0  0  0  0  0  0  0  0  0  0  0  0  # atno 6909 bound_to 6896
  145.9574  140.7513  142.9474 H   0  0  0  0  0  0  0  0  0  0  0  0  # atno 7974 bound_to 7965
  156.0085  140.3352  155.6916 H   0  0  0  0  0  0  0  0  0  0  0  0  # atno 8008 bound_to 7997
  155.6191  140.0673  157.2701 H   0  0  0  0  0  0  0  0  0  0  0  0  # atno 8009 bound_to 7997
  154.4273  140.1780  156.1341 H   0  0  0  0  0  0  0  0  0  0  0  0  # atno 8010 bound_to 7997
  139.4841  144.4622  151.8690 H   0  0  0  0  0  0  0  0  0  0  0  0  # atno 10167 bound_to 10162
  156.2084  130.6902  151.0621 H   0  0  0  0  0  0  0  0  0  0  0  0  # atno 10718 bound_to 10713
  154.5029  135.5790  153.6545 H   0  0  0  0  0  0  0  0  0  0  0  0  # atno 10763 bound_to 10752
  152.9882  135.6140  154.2979 H   0  0  0  0  0  0  0  0  0  0  0  0  # atno 10764 bound_to 10752
  154.2888  135.2849  155.2643 H   0  0  0  0  0  0  0  0  0  0  0  0  # atno 10765 bound_to 10752
  140.4389  134.1342  155.7688 H   0  0  0  0  0  0  0  0  0  0  0  0  # atno 11005 bound_to 11000
  144.6808  140.2535  143.7328 LP  0  0  0  0  0  0  0  0  0  0  0  0  # atno 17320 bound_to 7965
  145.8087  139.1994  143.2005 LP  0  0  0  0  0  0  0  0  0  0  0  0  # atno 17321 bound_to 7965
  140.4085  144.2400  150.5890 LP  0  0  0  0  0  0  0  0  0  0  0  0  # atno 17342 bound_to 10162
  140.4989  143.2324  151.8708 LP  0  0  0  0  0  0  0  0  0  0  0  0  # atno 17343 bound_to 10162
  157.7025  131.0770  150.6775 LP  0  0  0  0  0  0  0  0  0  0  0  0  # atno 17370 bound_to 10713
  156.6834  130.4574  149.5621 LP  0  0  0  0  0  0  0  0  0  0  0  0  # atno 17371 bound_to 10713
  141.1714  133.8601  157.1559 LP  0  0  0  0  0  0  0  0  0  0  0  0  # atno 17394 bound_to 11000
  140.0083  134.9999  157.0340 LP  0  0  0  0  0  0  0  0  0  0  0  0  # atno 17395 bound_to 11000

$$$$
