AV-unprocessed.smi:2923|AV-procd|sdf|11216|dock3
  -GOLD-   2272016103D 1   1.00000     0.00000
 Structure written by MMmdl.
 46 48  0  0  0  0  0  0  0  0  1 V2000
  151.5985  141.0021  158.3385 C   0  0  0  0  0  0  0  0  0  0  0  0
  150.8901  141.2747  157.0942 N   0  0  0  0  0  0  0  0  0  0  0  0
  150.8404  142.6352  156.5685 C   0  0  0  0  0  0  0  0  0  0  0  0
  150.2228  140.2316  156.4119 C   0  0  0  0  0  0  0  0  0  0  0  0
  149.4024  139.3036  157.0999 C   0  0  0  0  0  0  0  0  0  0  0  0
  148.7548  138.2840  156.3762 C   0  0  0  0  0  0  0  0  0  0  0  0
  148.9462  138.2069  154.9776 C   0  0  0  0  0  0  0  0  0  0  0  0
  148.3304  137.2439  154.1327 N   0  0  0  0  0  0  0  0  0  0  0  0
  147.1606  136.6039  154.3008 C   0  0  0  0  0  0  0  0  0  0  0  0
  146.4327  136.6946  155.2891 O   0  0  0  0  0  0  0  0  0  0  0  0
  146.8798  135.8249  153.2483 N   0  0  0  0  0  0  0  0  0  0  0  0
  145.6687  135.0235  153.1176 C   0  0  2  0  0  0  0  0  0  0  0  0
  145.9190  133.6975  152.3992 C   0  0  1  0  0  0  0  0  0  0  0  0
  145.8682  132.2662  152.7991 C   0  0  0  0  0  0  0  0  0  0  0  0
  145.0657  131.7341  151.5816 C   0  0  0  0  0  0  0  0  0  0  0  0
  144.5848  132.9064  150.8795 O   0  0  0  0  0  0  0  0  0  0  0  0
  144.5048  133.8921  151.8883 C   0  0  2  0  0  0  0  0  0  0  0  0
  144.7908  135.4067  151.8666 C   0  0  0  0  0  0  0  0  0  0  0  0
  143.5865  136.3013  152.1620 C   0  0  0  0  0  0  0  0  0  0  0  0
  145.4654  135.9916  150.6086 C   0  0  0  0  0  0  0  0  0  0  0  0
  149.7715  139.1789  154.3798 C   0  0  0  0  0  0  0  0  0  0  0  0
  150.3940  140.1572  155.0695 N   0  0  0  0  0  0  0  0  0  0  0  0
  150.9153  140.6031  159.0887 H   0  0  0  0  0  0  0  0  0  0  0  0
  152.0477  141.9074  158.7471 H   0  0  0  0  0  0  0  0  0  0  0  0
  152.3983  140.2796  158.1740 H   0  0  0  0  0  0  0  0  0  0  0  0
  149.8099  142.9880  156.5160 H   0  0  0  0  0  0  0  0  0  0  0  0
  151.2727  142.6747  155.5681 H   0  0  0  0  0  0  0  0  0  0  0  0
  151.3978  143.3275  157.1996 H   0  0  0  0  0  0  0  0  0  0  0  0
  149.2508  139.3549  158.1672 H   0  0  0  0  0  0  0  0  0  0  0  0
  148.1159  137.5971  156.9083 H   0  0  0  0  0  0  0  0  0  0  0  0
  148.8566  136.9952  153.3079 H   0  0  0  0  0  0  0  0  0  0  0  0
  147.5336  135.7987  152.4796 H   0  0  0  0  0  0  0  0  0  0  0  0
  145.1036  134.9078  154.0471 H   0  0  0  0  0  0  0  0  0  0  0  0
  146.6766  133.8244  151.6223 H   0  0  0  0  0  0  0  0  0  0  0  0
  146.8561  131.8125  152.8803 H   0  0  0  0  0  0  0  0  0  0  0  0
  145.3309  132.1231  153.7378 H   0  0  0  0  0  0  0  0  0  0  0  0
  145.6874  131.1387  150.9126 H   0  0  0  0  0  0  0  0  0  0  0  0
  144.2293  131.1148  151.9080 H   0  0  0  0  0  0  0  0  0  0  0  0
  143.7302  133.6335  152.6194 H   0  0  0  0  0  0  0  0  0  0  0  0
  142.8665  136.2856  151.3435 H   0  0  0  0  0  0  0  0  0  0  0  0
  143.8853  137.3379  152.3204 H   0  0  0  0  0  0  0  0  0  0  0  0
  143.0599  135.9801  153.0612 H   0  0  0  0  0  0  0  0  0  0  0  0
  144.7853  135.9755  149.7565 H   0  0  0  0  0  0  0  0  0  0  0  0
  146.3608  135.4553  150.3007 H   0  0  0  0  0  0  0  0  0  0  0  0
  145.7618  137.0294  150.7644 H   0  0  0  0  0  0  0  0  0  0  0  0
  149.9410  139.1738  153.3131 H   0  0  0  0  0  0  0  0  0  0  0  0
  1  2  1  0  0  0  0
  1 23  1  0  0  0  0
  1 24  1  0  0  0  0
  1 25  1  0  0  0  0
  2  3  1  0  0  0  0
  2  4  1  0  0  0  0
  3 26  1  0  0  0  0
  3 27  1  0  0  0  0
  3 28  1  0  0  0  0
  4 22  1  0  0  0  0
  4  5  2  0  0  0  0
  5  6  1  0  0  0  0
  5 29  1  0  0  0  0
  6  7  2  0  0  0  0
  6 30  1  0  0  0  0
  7  8  1  0  0  0  0
  7 21  1  0  0  0  0
  8  9  1  0  0  0  0
  8 31  1  0  0  0  0
  9 10  2  0  0  0  0
  9 11  1  0  0  0  0
 11 12  1  0  0  0  0
 11 32  1  0  0  0  0
 12 18  1  0  0  0  0
 12 13  1  0  0  0  0
 12 33  1  0  0  0  0
 13 17  1  0  0  0  0
 13 14  1  0  0  0  0
 13 34  1  0  0  0  0
 14 15  1  0  0  0  0
 14 35  1  0  0  0  0
 14 36  1  0  0  0  0
 15 16  1  0  0  0  0
 15 37  1  0  0  0  0
 15 38  1  0  0  0  0
 16 17  1  0  0  0  0
 17 18  1  0  0  0  0
 17 39  1  0  0  0  0
 18 19  1  0  0  0  0
 18 20  1  0  0  0  0
 19 40  1  0  0  0  0
 19 41  1  0  0  0  0
 19 42  1  0  0  0  0
 20 43  1  0  0  0  0
 20 44  1  0  0  0  0
 20 45  1  0  0  0  0
 21 22  2  0  0  0  0
 21 46  1  0  0  0  0
M  END
> <s_m_source_file>
AV-unprocessed.smi

> <i_m_source_file_index>
2923

> <i_lp_mmshare_version>
43012

> <i_f3d_flags>
0

> <s_epik_input>
W0NIM11OKFtDSDNdKWMxW2NIXVtjSF1jKFtjSF1uMSlbTkhdQyg9TylbTkhdW0NASF0yQyhbQ0gzXSkoW0NIM10pW0NAQEhdKFtDQEhdMjMpT1tDSDJdW0NIMl0z

> <s_epik_cmdline>
J2VwaWtfcHl0aG9uJywgJy1waCcsICc3LjAnLCAnLXRuJywgJzgnLCAnLW1hJywgJzIwMCcsICctbWV0YWxfYmluZGluZycsICctaW1hZScsICc8aW5maWxlLm1hZT4nLCAnLW9tYWUnLCAnPG91dGZpbGUubWFlPic=

> <r_lp_tautomer_probability>
1

> <r_epik_Ionization_Penalty>
0.628785

> <r_epik_Ionization_Penalty_Charging>
0

> <r_epik_Ionization_Penalty_Neutral>
0.628785

> <r_epik_State_Penalty>
0.644286

> <r_epik_Charging_Adjusted_Penalty>
0.644286

> <i_epik_Tot_Q>
0

> <i_epik_Tot_abs_Q>
0

> <r_epik_Metal_State_Penalty>
0.308404

> <b_epik_Metal_Only>
0

> <s_lp_Force_Field>
OPLS_2005

> <r_lp_Energy>
62.6556

> <b_lp_Chiralities_Consistent>
1

> <s_lp_Variant>
AV-unprocessed.smi:2923-15

> <Gold.Version>
5.8.1

> <Gold.Id.Protein>
6NUR|6NUR_protein|mol2

> <Gold.PLP.Fitness>
38.1899

> <Gold.PLP.PLP>
-28.1894

> <Gold.PLP.part.hbond>
-2.8373

> <Gold.PLP.part.metal>
0.0000

> <Gold.PLP.part.buried>
-3.5826

> <Gold.PLP.part.nonpolar>
-21.8549

> <Gold.PLP.part.repulsive>
0.2204

> <Gold.PLP.ligand.clash>
0.0000

> <Gold.PLP.ligand.torsion>
1.1228

> <Gold.PLP.Chemscore.Hbond>
2.9920

> <Gold.PLP.Chemscore.CHOScore>
1.0000

> <Gold.PLP.Chemscore.Metal>
0.0000

> <Gold.Chemscore.Hbonds>
donor molecule, donor type, donor heavy atom, donor atom, acceptor molecule, acceptor atom, score
      L1  H     8    31       P1  7948  1.00
      L1  H    11    32       P1  7948  1.00
      P1  H  7989  7998       L1    22  0.69
      L1  C    21    46       P1  7957  1.00

> <Gold.PLP.Chemscore.Internal.Correction>
0.2701

> <Gold.Rescore>
     Score         DG    S(hbond)    S(metal)    S(lipo)     H(rot)  DE(clash)    DE(int)     intcor
     16.38     -17.32       1.99        0.00      66.39       1.00       0.24       0.69       ----

> <Gold.Chemscore.Fitness>
16.3833

> <Gold.Chemscore.DG>
-17.3194

> <Gold.Chemscore.ZeroCoef>
-5.4800

> <Gold.Chemscore.Hbond>
1.9857

> <Gold.Chemscore.Metal>
0.0000

> <Gold.Chemscore.Lipo>
66.3872

> <Gold.Chemscore.Internal_Hbond>
0.0000

> <Gold.Chemscore.DEClash>
0.2415

> <Gold.Chemscore.DEInternal>
0.6946

> <Gold.Chemscore.Rot>
1.0000

> <Gold.Chemscore.Internal.Correction>
   9.000000E+99

> <Gold.Chemscore.Hbonds>
donor molecule, donor type, donor heavy atom, donor atom, acceptor molecule, acceptor atom, score
      L1  H     8    31       P1  7948  0.95
      L1  H    11    32       P1  7948  0.94
      P1  H  7989  7998       L1    22  0.14

> <Gold.Chemscore.Hbond.Weighted>
-6.6321

> <Gold.Chemscore.Metal.Weighted>
-0.0000

> <Gold.Chemscore.Lipo.Weighted>
-7.7673

> <Gold.Chemscore.Internal_Hbond.Weighted>
0.0000

> <Gold.Chemscore.DEClash.Weighted>
0.2415

> <Gold.Chemscore.DEInternal.Weighted>
0.6946

> <Gold.Chemscore.Rot.Weighted>
2.5600

> <Gold.Chemscore.Internal.Correction.Weighted>
   9.000000E+99

> <Gold.Protein.RotatedTorsions>
[ 6907 6896 6895 6894 ] final  -52.58 input  -60.11 | X-H torsion
[ 7974 7965 7964 7962 ] final  -46.61 input  175.53 | X-H torsion
[ 8008 7997 7996 7995 ] final -139.82 input   59.86 | X-H torsion
[ 10167 10162 10161 10158 ] final -128.95 input  -65.29 | X-H torsion
[ 10718 10713 10712 10709 ] final    8.12 input   66.30 | X-H torsion
[ 10763 10752 10751 10750 ] final  105.11 input  -60.55 | X-H torsion
[ 11005 11000 10999 10996 ] final -144.83 input  -57.11 | X-H torsion

> <Gold.Protein.ActiveResidues>
 VAL166  LYS551  ARG553  GLY616  TRP617  ASP618  TYR619  PRO620  LYS621  CYS622 
 ASP623  PHE694  ASN695  SER759  ASP760  ASP761  ALA762  ILE779  LEU786  VAL792 
 PHE793  MET794  SER795  GLU796  ALA797  LYS798  CYS799  TRP800  GLU811  SER814 

> <Gold.Protein.RotatedAtoms>
  150.8505  134.7828  159.7004 H   0  0  0  0  0  0  0  0  0  0  0  0  # atno 6907 bound_to 6896
  152.4571  134.5265  159.9808 H   0  0  0  0  0  0  0  0  0  0  0  0  # atno 6908 bound_to 6896
  151.5387  133.3398  159.2967 H   0  0  0  0  0  0  0  0  0  0  0  0  # atno 6909 bound_to 6896
  145.9702  140.7391  142.9414 H   0  0  0  0  0  0  0  0  0  0  0  0  # atno 7974 bound_to 7965
  155.4511  140.0539  157.3001 H   0  0  0  0  0  0  0  0  0  0  0  0  # atno 8008 bound_to 7997
  154.4777  140.2068  155.9795 H   0  0  0  0  0  0  0  0  0  0  0  0  # atno 8009 bound_to 7997
  156.1157  140.3197  155.8140 H   0  0  0  0  0  0  0  0  0  0  0  0  # atno 8010 bound_to 7997
  139.9449  143.6121  152.2492 H   0  0  0  0  0  0  0  0  0  0  0  0  # atno 10167 bound_to 10162
  156.9470  130.5882  149.5655 H   0  0  0  0  0  0  0  0  0  0  0  0  # atno 10718 bound_to 10713
  153.3750  135.3920  155.1816 H   0  0  0  0  0  0  0  0  0  0  0  0  # atno 10763 bound_to 10752
  154.8700  135.3711  154.4929 H   0  0  0  0  0  0  0  0  0  0  0  0  # atno 10764 bound_to 10752
  153.5401  135.7084  153.5702 H   0  0  0  0  0  0  0  0  0  0  0  0  # atno 10765 bound_to 10752
  140.7985  134.2885  157.4987 H   0  0  0  0  0  0  0  0  0  0  0  0  # atno 11005 bound_to 11000
  144.6835  140.2735  143.7302 LP  0  0  0  0  0  0  0  0  0  0  0  0  # atno 17320 bound_to 7965
  145.7917  139.1930  143.2099 LP  0  0  0  0  0  0  0  0  0  0  0  0  # atno 17321 bound_to 7965
  139.6674  144.7662  151.1847 LP  0  0  0  0  0  0  0  0  0  0  0  0  # atno 17342 bound_to 10162
  140.7600  143.5916  150.8790 LP  0  0  0  0  0  0  0  0  0  0  0  0  # atno 17343 bound_to 10162
  156.0379  130.5465  150.8700 LP  0  0  0  0  0  0  0  0  0  0  0  0  # atno 17370 bound_to 10713
  157.5747  131.0946  150.9363 LP  0  0  0  0  0  0  0  0  0  0  0  0  # atno 17371 bound_to 10713
  139.8724  134.9416  156.3801 LP  0  0  0  0  0  0  0  0  0  0  0  0  # atno 17394 bound_to 11000
  140.9319  133.7574  156.0035 LP  0  0  0  0  0  0  0  0  0  0  0  0  # atno 17395 bound_to 11000

$$$$
