AV-unprocessed.smi:234|AV-procd|sdf|1794|dock8
  -GOLD-   2262020353D 1   1.00000     0.00000
 Structure written by MMmdl.
 59 62  0  0  0  0  0  0  0  0  1 V2000
  153.3473  131.7813  157.1450 C   0  0  0  0  0  0  0  0  0  0  0  0
  151.8593  131.4789  157.3328 C   0  0  0  0  0  0  0  0  0  0  0  0
  151.1214  132.1945  156.3566 O   0  0  0  0  0  0  0  0  0  0  0  0
  150.6457  133.4475  156.8239 C   0  0  1  0  0  0  0  0  0  0  0  0
  151.5238  134.6042  156.3509 C   0  0  0  0  0  0  0  0  0  0  0  0
  150.2190  135.4025  156.2368 C   0  0  1  0  0  0  0  0  0  0  0  0
  150.1739  136.3288  155.1027 N   0  0  0  0  0  0  0  0  0  0  0  0
  148.8611  136.6430  154.5550 C   0  0  0  0  0  0  0  0  0  0  0  0
  150.9389  137.4404  155.2029 C   0  0  0  0  0  0  0  0  0  0  0  0
  152.1789  137.3873  154.6555 N   0  0  0  0  0  0  0  0  0  0  0  0
  152.9901  138.4466  154.7305 C   0  0  0  0  0  0  0  0  0  0  0  0
  152.7622  139.6346  155.2942 N   0  0  0  0  0  0  0  0  0  0  0  0
  151.5109  139.6961  155.8336 C   0  0  0  0  0  0  0  0  0  0  0  0
  150.5382  138.6569  155.8271 C   0  0  0  0  0  0  0  0  0  0  0  0
  149.3772  139.0940  156.4543 N   0  0  0  0  0  0  0  0  0  0  0  0
  149.6539  140.3137  156.8257 C   0  0  0  0  0  0  0  0  0  0  0  0
  150.9178  140.7524  156.5024 N   0  0  0  0  0  0  0  0  0  0  0  0
  151.4898  142.0543  156.8065 C   0  0  0  0  0  0  0  0  0  0  0  0
  151.6063  142.3278  158.3247 C   0  0  1  0  0  0  0  0  0  0  0  0
  150.2983  142.4549  158.8604 O   0  0  0  0  0  0  0  0  0  0  0  0
  152.3428  141.2431  159.0966 C   0  0  0  0  0  0  0  0  0  0  0  0
  152.8253  141.9882  160.3346 C   0  0  0  0  0  0  0  0  0  0  0  0
  153.1455  143.2943  159.8724 O   0  0  0  0  0  0  0  0  0  0  0  0
  152.4551  143.5748  158.6550 C   0  0  2  0  0  0  0  0  0  0  0  0
  151.7050  144.9135  158.7453 C   0  0  0  0  0  0  0  0  0  0  0  0
  149.4689  134.0587  156.0164 C   0  0  0  0  0  0  0  0  0  0  0  0
  149.3265  133.5591  154.5672 C   0  0  0  0  0  0  0  0  0  0  0  0
  148.0923  133.9489  156.6742 C   0  0  0  0  0  0  0  0  0  0  0  0
  153.9487  131.2505  157.8832 H   0  0  0  0  0  0  0  0  0  0  0  0
  153.5468  132.8476  157.2537 H   0  0  0  0  0  0  0  0  0  0  0  0
  153.6853  131.4755  156.1547 H   0  0  0  0  0  0  0  0  0  0  0  0
  151.6859  130.4073  157.2344 H   0  0  0  0  0  0  0  0  0  0  0  0
  151.5415  131.7743  158.3339 H   0  0  0  0  0  0  0  0  0  0  0  0
  150.4972  133.4806  157.9061 H   0  0  0  0  0  0  0  0  0  0  0  0
  152.2248  134.9785  157.0974 H   0  0  0  0  0  0  0  0  0  0  0  0
  152.0142  134.4132  155.3946 H   0  0  0  0  0  0  0  0  0  0  0  0
  149.9416  135.8609  157.1880 H   0  0  0  0  0  0  0  0  0  0  0  0
  148.9476  137.2020  153.6222 H   0  0  0  0  0  0  0  0  0  0  0  0
  148.2846  137.2410  155.2621 H   0  0  0  0  0  0  0  0  0  0  0  0
  148.2987  135.7352  154.3422 H   0  0  0  0  0  0  0  0  0  0  0  0
  153.9625  138.3233  154.2769 H   0  0  0  0  0  0  0  0  0  0  0  0
  148.9422  140.9291  157.3567 H   0  0  0  0  0  0  0  0  0  0  0  0
  152.4715  142.1121  156.3344 H   0  0  0  0  0  0  0  0  0  0  0  0
  150.8764  142.8202  156.3300 H   0  0  0  0  0  0  0  0  0  0  0  0
  150.0235  141.6085  159.1788 H   0  0  0  0  0  0  0  0  0  0  0  0
  151.7283  140.3724  159.3301 H   0  0  0  0  0  0  0  0  0  0  0  0
  153.2083  140.8997  158.5286 H   0  0  0  0  0  0  0  0  0  0  0  0
  152.0267  142.0601  161.0740 H   0  0  0  0  0  0  0  0  0  0  0  0
  153.6827  141.5086  160.8068 H   0  0  0  0  0  0  0  0  0  0  0  0
  153.2347  143.6731  157.8980 H   0  0  0  0  0  0  0  0  0  0  0  0
  151.1655  145.1240  157.8215 H   0  0  0  0  0  0  0  0  0  0  0  0
  152.4019  145.7341  158.9166 H   0  0  0  0  0  0  0  0  0  0  0  0
  150.9866  144.9192  159.5655 H   0  0  0  0  0  0  0  0  0  0  0  0
  148.5810  134.1297  154.0135 H   0  0  0  0  0  0  0  0  0  0  0  0
  149.0185  132.5140  154.5338 H   0  0  0  0  0  0  0  0  0  0  0  0
  150.2622  133.6320  154.0131 H   0  0  0  0  0  0  0  0  0  0  0  0
  147.3513  134.5642  156.1645 H   0  0  0  0  0  0  0  0  0  0  0  0
  148.1201  134.2752  157.7142 H   0  0  0  0  0  0  0  0  0  0  0  0
  147.7230  132.9235  156.6683 H   0  0  0  0  0  0  0  0  0  0  0  0
  1  2  1  0  0  0  0
  1 29  1  0  0  0  0
  1 30  1  0  0  0  0
  1 31  1  0  0  0  0
  2  3  1  0  0  0  0
  2 32  1  0  0  0  0
  2 33  1  0  0  0  0
  3  4  1  0  0  0  0
  4 26  1  0  0  0  0
  4  5  1  0  0  0  0
  4 34  1  0  0  0  0
  5  6  1  0  0  0  0
  5 35  1  0  0  0  0
  5 36  1  0  0  0  0
  6  7  1  0  0  0  0
  6 26  1  0  0  0  0
  6 37  1  0  0  0  0
  7  8  1  0  0  0  0
  7  9  1  0  0  0  0
  8 38  1  0  0  0  0
  8 39  1  0  0  0  0
  8 40  1  0  0  0  0
  9 14  1  0  0  0  0
  9 10  2  0  0  0  0
 10 11  1  0  0  0  0
 11 12  2  0  0  0  0
 11 41  1  0  0  0  0
 12 13  1  0  0  0  0
 13 17  1  0  0  0  0
 13 14  2  0  0  0  0
 14 15  1  0  0  0  0
 15 16  2  0  0  0  0
 16 17  1  0  0  0  0
 16 42  1  0  0  0  0
 17 18  1  0  0  0  0
 18 19  1  0  0  0  0
 18 43  1  0  0  0  0
 18 44  1  0  0  0  0
 19 24  1  0  0  0  0
 19 20  1  0  0  0  0
 19 21  1  0  0  0  0
 20 45  1  0  0  0  0
 21 22  1  0  0  0  0
 21 46  1  0  0  0  0
 21 47  1  0  0  0  0
 22 23  1  0  0  0  0
 22 48  1  0  0  0  0
 22 49  1  0  0  0  0
 23 24  1  0  0  0  0
 24 25  1  0  0  0  0
 24 50  1  0  0  0  0
 25 51  1  0  0  0  0
 25 52  1  0  0  0  0
 25 53  1  0  0  0  0
 26 27  1  0  0  0  0
 26 28  1  0  0  0  0
 27 54  1  0  0  0  0
 27 55  1  0  0  0  0
 27 56  1  0  0  0  0
 28 57  1  0  0  0  0
 28 58  1  0  0  0  0
 28 59  1  0  0  0  0
M  END
> <s_m_source_file>
AV-unprocessed.smi

> <i_m_source_file_index>
234

> <i_lp_mmshare_version>
43012

> <i_f3d_flags>
0

> <s_epik_input>
W0NIM11bQ0gyXU9bQ0BASF0oQzEoW0NIM10pW0NIM10pW0NIMl1bQ0BIXTFOKFtDSDNdKWMobltjSF1uMiljKGMyMyluW2NIXW4zW0NIMl1bQ0BAXTQoW09IXSlbQ0gyXVtDSDJdT1tDQEhdNFtDSDNd

> <s_epik_cmdline>
J2VwaWtfcHl0aG9uJywgJy1waCcsICc3LjAnLCAnLXRuJywgJzgnLCAnLW1hJywgJzIwMCcsICctbWV0YWxfYmluZGluZycsICctaW1hZScsICc8aW5maWxlLm1hZT4nLCAnLW9tYWUnLCAnPG91dGZpbGUubWFlPic=

> <r_lp_tautomer_probability>
1

> <r_epik_Ionization_Penalty>
0.00349132

> <r_epik_Ionization_Penalty_Charging>
0

> <r_epik_Ionization_Penalty_Neutral>
0.00349132

> <r_epik_State_Penalty>
0.00242418

> <r_epik_Charging_Adjusted_Penalty>
0.00242418

> <i_epik_Tot_Q>
0

> <i_epik_Tot_abs_Q>
0

> <r_epik_Metal_State_Penalty>
-0

> <b_epik_Metal_Only>
0

> <s_lp_Force_Field>
OPLS_2005

> <r_lp_Energy>
47.8711

> <b_lp_Chiralities_Consistent>
1

> <s_lp_Variant>
AV-unprocessed.smi:234-10

> <Gold.Version>
5.8.1

> <Gold.Id.Protein>
6NUR|6NUR_protein|mol2

> <Gold.PLP.Fitness>
45.5071

> <Gold.PLP.PLP>
-41.6852

> <Gold.PLP.part.hbond>
-3.3388

> <Gold.PLP.part.metal>
0.0000

> <Gold.PLP.part.buried>
-4.9273

> <Gold.PLP.part.nonpolar>
-34.5423

> <Gold.PLP.part.repulsive>
0.2886

> <Gold.PLP.ligand.clash>
0.0000

> <Gold.PLP.ligand.torsion>
1.3301

> <Gold.PLP.Chemscore.Hbond>
1.8907

> <Gold.PLP.Chemscore.CHOScore>
0.0000

> <Gold.PLP.Chemscore.Metal>
0.0000

> <Gold.Chemscore.Hbonds>
donor molecule, donor type, donor heavy atom, donor atom, acceptor molecule, acceptor atom, score
      P1  H  7997  8010       L1    12  1.00
      P1  H 10752 10764       L1    10  0.70

> <Gold.PLP.Chemscore.Internal.Correction>
0.8100

> <Gold.Rescore>
     Score         DG    S(hbond)    S(metal)    S(lipo)     H(rot)  DE(clash)    DE(int)     intcor
     10.96     -15.79       1.45        0.00     104.02       2.62       2.41       2.42       ----

> <Gold.Chemscore.Fitness>
10.9569

> <Gold.Chemscore.DG>
-15.7866

> <Gold.Chemscore.ZeroCoef>
-5.4800

> <Gold.Chemscore.Hbond>
1.4516

> <Gold.Chemscore.Metal>
0.0000

> <Gold.Chemscore.Lipo>
104.0211

> <Gold.Chemscore.Internal_Hbond>
0.0000

> <Gold.Chemscore.DEClash>
2.4114

> <Gold.Chemscore.DEInternal>
2.4183

> <Gold.Chemscore.Rot>
2.6219

> <Gold.Chemscore.Internal.Correction>
   9.000000E+99

> <Gold.Chemscore.Hbonds>
donor molecule, donor type, donor heavy atom, donor atom, acceptor molecule, acceptor atom, score
      P1  H  7997  8010       L1    12  0.50
      P1  H 10752 10764       L1    10  0.65

> <Gold.Chemscore.Hbond.Weighted>
-4.8483

> <Gold.Chemscore.Metal.Weighted>
-0.0000

> <Gold.Chemscore.Lipo.Weighted>
-12.1705

> <Gold.Chemscore.Internal_Hbond.Weighted>
0.0000

> <Gold.Chemscore.DEClash.Weighted>
2.4114

> <Gold.Chemscore.DEInternal.Weighted>
2.4183

> <Gold.Chemscore.Rot.Weighted>
6.7121

> <Gold.Chemscore.Internal.Correction.Weighted>
   9.000000E+99

> <Gold.Protein.RotatedTorsions>
[ 6907 6896 6895 6894 ] final  146.10 input  -60.11 | X-H torsion
[ 7974 7965 7964 7962 ] final   81.86 input  175.53 | X-H torsion
[ 8008 7997 7996 7995 ] final  100.40 input   59.86 | X-H torsion
[ 10167 10162 10161 10158 ] final -111.82 input  -65.29 | X-H torsion
[ 10718 10713 10712 10709 ] final -165.99 input   66.30 | X-H torsion
[ 10763 10752 10751 10750 ] final  -87.89 input  -60.55 | X-H torsion
[ 11005 11000 10999 10996 ] final  121.82 input  -57.11 | X-H torsion

> <Gold.Protein.ActiveResidues>
 VAL166  LYS551  ARG553  GLY616  TRP617  ASP618  TYR619  PRO620  LYS621  CYS622 
 ASP623  PHE694  ASN695  SER759  ASP760  ASP761  ALA762  ILE779  LEU786  VAL792 
 PHE793  MET794  SER795  GLU796  ALA797  LYS798  CYS799  TRP800  GLU811  SER814 

> <Gold.Protein.RotatedAtoms>
  152.1722  133.4651  159.4914 H   0  0  0  0  0  0  0  0  0  0  0  0  # atno 6907 bound_to 6896
  150.6921  134.1938  159.4304 H   0  0  0  0  0  0  0  0  0  0  0  0  # atno 6908 bound_to 6896
  151.9846  135.0011  160.0609 H   0  0  0  0  0  0  0  0  0  0  0  0  # atno 6909 bound_to 6896
  145.6326  139.2408  143.2076 H   0  0  0  0  0  0  0  0  0  0  0  0  # atno 7974 bound_to 7965
  156.1200  140.3214  155.8194 H   0  0  0  0  0  0  0  0  0  0  0  0  # atno 8008 bound_to 7997
  155.4522  140.0533  157.3017 H   0  0  0  0  0  0  0  0  0  0  0  0  # atno 8009 bound_to 7997
  154.4820  140.2057  155.9755 H   0  0  0  0  0  0  0  0  0  0  0  0  # atno 8010 bound_to 7997
  140.1295  143.4373  152.1637 H   0  0  0  0  0  0  0  0  0  0  0  0  # atno 10167 bound_to 10162
  156.6614  130.9047  151.3030 H   0  0  0  0  0  0  0  0  0  0  0  0  # atno 10718 bound_to 10713
  154.6385  135.5397  153.7762 H   0  0  0  0  0  0  0  0  0  0  0  0  # atno 10763 bound_to 10752
  153.0321  135.6453  154.1195 H   0  0  0  0  0  0  0  0  0  0  0  0  # atno 10764 bound_to 10752
  154.1120  135.2926  155.3208 H   0  0  0  0  0  0  0  0  0  0  0  0  # atno 10765 bound_to 10752
  139.9242  134.9640  156.8016 H   0  0  0  0  0  0  0  0  0  0  0  0  # atno 11005 bound_to 11000
  146.1344  140.7142  142.9397 LP  0  0  0  0  0  0  0  0  0  0  0  0  # atno 17320 bound_to 7965
  144.7187  140.4301  143.7024 LP  0  0  0  0  0  0  0  0  0  0  0  0  # atno 17321 bound_to 7965
  139.5527  144.7350  151.4386 LP  0  0  0  0  0  0  0  0  0  0  0  0  # atno 17342 bound_to 10162
  140.6825  143.8048  150.7141 LP  0  0  0  0  0  0  0  0  0  0  0  0  # atno 17343 bound_to 10162
  157.7108  130.9438  150.1083 LP  0  0  0  0  0  0  0  0  0  0  0  0  # atno 17370 bound_to 10713
  156.2008  130.3660  149.8791 LP  0  0  0  0  0  0  0  0  0  0  0  0  # atno 17371 bound_to 10713
  140.6385  133.9840  155.7696 LP  0  0  0  0  0  0  0  0  0  0  0  0  # atno 17394 bound_to 11000
  141.0787  134.0096  157.3419 LP  0  0  0  0  0  0  0  0  0  0  0  0  # atno 17395 bound_to 11000

$$$$
