AV-unprocessed.smi:2226|AV-procd|sdf|9017|dock1
  -GOLD-   2272012223D 1   1.00000     0.00000
 Structure written by MMmdl.
 39 41  0  0  0  0  0  0  0  0  3 V2000
  143.7169  132.6949  148.2975 C   0  0  0  0  0  0  0  0  0  0  0  0
  143.7252  133.3218  149.6409 N   0  3  2  0  0  0  0  0  0  0  0  0
  144.9708  134.0496  149.9814 C   0  0  2  0  0  0  0  0  0  0  0  0
  146.1538  133.0738  150.2043 C   0  0  0  0  0  0  0  0  0  0  0  0
  145.8525  131.9310  151.1909 C   0  0  0  0  0  0  0  0  0  0  0  0
  144.4370  131.3524  151.0167 C   0  0  0  0  0  0  0  0  0  0  0  0
  143.3441  132.4179  150.7518 C   0  0  1  0  0  0  0  0  0  0  0  0
  142.9416  133.2690  151.9778 C   0  0  0  0  0  0  0  0  0  0  0  0
  143.9222  134.4138  152.3566 C   0  0  1  0  0  0  0  0  0  0  0  0
  144.8363  134.0502  153.4365 N   0  0  0  0  0  0  0  0  0  0  0  0
  145.6308  134.8813  154.1267 C   0  0  0  0  0  0  0  0  0  0  0  0
  145.6452  136.0847  153.8580 O   0  0  0  0  0  0  0  0  0  0  0  0
  146.3510  134.2650  155.0898 N   0  5  0  0  0  0  0  0  0  0  0  0
  147.3903  133.4858  154.7496 C   0  0  0  0  0  0  0  0  0  0  0  0
  148.2681  132.9276  155.5851 N   0  0  0  0  0  0  0  0  0  0  0  0
  149.1554  132.2226  154.7865 C   0  0  0  0  0  0  0  0  0  0  0  0
  148.7748  132.3939  153.4837 C   0  0  0  0  0  0  0  0  0  0  0  0
  147.6644  133.1912  153.4472 O   0  0  0  0  0  0  0  0  0  0  0  0
  144.6831  135.0207  151.1504 C   0  0  0  0  0  0  0  0  0  0  0  0
  144.4659  131.9092  148.2026 H   0  0  0  0  0  0  0  0  0  0  0  0
  143.9132  133.4433  147.5294 H   0  0  0  0  0  0  0  0  0  0  0  0
  142.7405  132.2571  148.0884 H   0  0  0  0  0  0  0  0  0  0  0  0
  145.2331  134.6745  149.1265 H   0  0  0  0  0  0  0  0  0  0  0  0
  146.4285  132.6332  149.2457 H   0  0  0  0  0  0  0  0  0  0  0  0
  147.0372  133.6218  150.5335 H   0  0  0  0  0  0  0  0  0  0  0  0
  146.5875  131.1362  151.0608 H   0  0  0  0  0  0  0  0  0  0  0  0
  145.9989  132.2642  152.2126 H   0  0  0  0  0  0  0  0  0  0  0  0
  144.4538  130.6534  150.1802 H   0  0  0  0  0  0  0  0  0  0  0  0
  144.1739  130.7527  151.8886 H   0  0  0  0  0  0  0  0  0  0  0  0
  142.4448  131.8802  150.4477 H   0  0  0  0  0  0  0  0  0  0  0  0
  141.9855  133.7368  151.7388 H   0  0  0  0  0  0  0  0  0  0  0  0
  142.7307  132.6247  152.8319 H   0  0  0  0  0  0  0  0  0  0  0  0
  143.3190  135.2256  152.7681 H   0  0  0  0  0  0  0  0  0  0  0  0
  144.8683  133.0743  153.6932 H   0  0  0  0  0  0  0  0  0  0  0  0
  149.9790  131.6622  155.2034 H   0  0  0  0  0  0  0  0  0  0  0  0
  149.1552  132.0449  152.5356 H   0  0  0  0  0  0  0  0  0  0  0  0
  145.6012  135.5120  151.4761 H   0  0  0  0  0  0  0  0  0  0  0  0
  144.0609  135.8229  150.7507 H   0  0  0  0  0  0  0  0  0  0  0  0
  143.0008  134.0243  149.6008 H   0  0  0  0  0  0  0  0  0  0  0  0
  1  2  1  0  0  0  0
  1 20  1  0  0  0  0
  1 21  1  0  0  0  0
  1 22  1  0  0  0  0
  2  7  1  0  0  0  0
  2  3  1  0  0  0  0
  2 39  1  0  0  0  0
  3 19  1  0  0  0  0
  3  4  1  0  0  0  0
  3 23  1  0  0  0  0
  4  5  1  0  0  0  0
  4 24  1  0  0  0  0
  4 25  1  0  0  0  0
  5  6  1  0  0  0  0
  5 26  1  0  0  0  0
  5 27  1  0  0  0  0
  6  7  1  0  0  0  0
  6 28  1  0  0  0  0
  6 29  1  0  0  0  0
  7  8  1  0  0  0  0
  7 30  1  0  0  0  0
  8  9  1  0  0  0  0
  8 31  1  0  0  0  0
  8 32  1  0  0  0  0
  9 10  1  0  0  0  0
  9 19  1  0  0  0  0
  9 33  1  0  0  0  0
 10 34  1  0  0  0  0
 10 11  1  0  0  0  0
 11 13  1  0  0  0  0
 11 12  2  0  0  0  0
 13 14  1  0  0  0  0
 14 18  1  0  0  0  0
 14 15  2  0  0  0  0
 15 16  1  0  0  0  0
 16 35  1  0  0  0  0
 16 17  2  0  0  0  0
 17 36  1  0  0  0  0
 17 18  1  0  0  0  0
 19 37  1  0  0  0  0
 19 38  1  0  0  0  0
M  CHG  1   2   1
M  CHG  1  13  -1
M  END
> <s_m_source_file>
AV-unprocessed.smi

> <i_m_source_file_index>
2226

> <i_lp_mmshare_version>
43012

> <i_f3d_flags>
0

> <s_epik_input>
W0NIMl0xW0NIMl1bQ0gyXVtDQEhdKE4oW0NIM10pW0NIXTEyKVtDSDJdW0NASF0oW0NIMl0yKVtOSF1DKD1PKVtOSF1jM25bY0hdW2NIXW8z

> <s_epik_cmdline>
J2VwaWtfcHl0aG9uJywgJy1waCcsICc3LjAnLCAnLXRuJywgJzgnLCAnLW1hJywgJzIwMCcsICctbWV0YWxfYmluZGluZycsICctaW1hZScsICc8aW5maWxlLm1hZT4nLCAnLW9tYWUnLCAnPG91dGZpbGUubWFlPic=

> <r_lp_tautomer_probability>
0.107061

> <r_epik_Ionization_Penalty>
10.5612

> <r_epik_Ionization_Penalty_Charging>
7.48913

> <r_epik_Ionization_Penalty_Neutral>
3.07202

> <r_epik_State_Penalty>
5.6431

> <r_epik_Charging_Adjusted_Penalty>
13.1322

> <i_epik_Tot_Q>
0

> <i_epik_Tot_abs_Q>
2

> <r_epik_Metal_State_Penalty>
1.58163

> <b_epik_Metal_Only>
1

> <s_lp_Force_Field>
OPLS_2005

> <r_lp_Energy>
26.2411

> <b_lp_Chiralities_Consistent>
1

> <s_lp_Variant>
AV-unprocessed.smi:2226-17

> <Gold.Version>
5.8.1

> <Gold.Id.Protein>
6NUR|6NUR_protein|mol2

> <Gold.PLP.Fitness>
35.5581

> <Gold.PLP.PLP>
-28.2697

> <Gold.PLP.part.hbond>
-1.0000

> <Gold.PLP.part.metal>
0.0000

> <Gold.PLP.part.buried>
0.3313

> <Gold.PLP.part.nonpolar>
-28.5397

> <Gold.PLP.part.repulsive>
0.3172

> <Gold.PLP.ligand.clash>
0.0000

> <Gold.PLP.ligand.torsion>
0.7631

> <Gold.PLP.Chemscore.Hbond>
1.9200

> <Gold.PLP.Chemscore.CHOScore>
1.0000

> <Gold.PLP.Chemscore.Metal>
0.0000

> <Gold.Chemscore.Hbonds>
donor molecule, donor type, donor heavy atom, donor atom, acceptor molecule, acceptor atom, score
      L1  H     2    39       P1 10186  1.92
      L1  C    17    36       P1 10747  1.00

> <Gold.PLP.Chemscore.Internal.Correction>
0.0546

> <Gold.Rescore>
     Score         DG    S(hbond)    S(metal)    S(lipo)     H(rot)  DE(clash)    DE(int)     intcor
     14.82     -16.70       0.99        0.00      89.49       1.00       1.03       0.86       ----

> <Gold.Chemscore.Fitness>
14.8158

> <Gold.Chemscore.DG>
-16.7020

> <Gold.Chemscore.ZeroCoef>
-5.4800

> <Gold.Chemscore.Hbond>
0.9915

> <Gold.Chemscore.Metal>
0.0000

> <Gold.Chemscore.Lipo>
89.4916

> <Gold.Chemscore.Internal_Hbond>
0.0000

> <Gold.Chemscore.DEClash>
1.0281

> <Gold.Chemscore.DEInternal>
0.8581

> <Gold.Chemscore.Rot>
1.0000

> <Gold.Chemscore.Internal.Correction>
   9.000000E+99

> <Gold.Chemscore.Hbonds>
donor molecule, donor type, donor heavy atom, donor atom, acceptor molecule, acceptor atom, score
      L1  H     2    39       P1 10186  0.86

> <Gold.Chemscore.Hbond.Weighted>
-3.3115

> <Gold.Chemscore.Metal.Weighted>
-0.0000

> <Gold.Chemscore.Lipo.Weighted>
-10.4705

> <Gold.Chemscore.Internal_Hbond.Weighted>
0.0000

> <Gold.Chemscore.DEClash.Weighted>
1.0281

> <Gold.Chemscore.DEInternal.Weighted>
0.8581

> <Gold.Chemscore.Rot.Weighted>
2.5600

> <Gold.Chemscore.Internal.Correction.Weighted>
   9.000000E+99

> <Gold.Protein.RotatedTorsions>
[ 6907 6896 6895 6894 ] final  157.95 input  -60.11 | X-H torsion
[ 7974 7965 7964 7962 ] final  -57.54 input  175.53 | X-H torsion
[ 8008 7997 7996 7995 ] final   75.26 input   59.86 | X-H torsion
[ 10167 10162 10161 10158 ] final  -32.23 input  -65.29 | X-H torsion
[ 10718 10713 10712 10709 ] final -140.27 input   66.30 | X-H torsion
[ 10763 10752 10751 10750 ] final -133.99 input  -60.55 | X-H torsion
[ 11005 11000 10999 10996 ] final   51.51 input  -57.11 | X-H torsion

> <Gold.Protein.ActiveResidues>
 VAL166  LYS551  ARG553  GLY616  TRP617  ASP618  TYR619  PRO620  LYS621  CYS622 
 ASP623  PHE694  ASN695  SER759  ASP760  ASP761  ALA762  ILE779  LEU786  VAL792 
 PHE793  MET794  SER795  GLU796  ALA797  LYS798  CYS799  TRP800  GLU811  SER814 

> <Gold.Protein.RotatedAtoms>
  152.0076  133.3849  159.4206 H   0  0  0  0  0  0  0  0  0  0  0  0  # atno 6907 bound_to 6896
  150.6903  134.3766  159.5025 H   0  0  0  0  0  0  0  0  0  0  0  0  # atno 6908 bound_to 6896
  152.1522  134.8979  160.0598 H   0  0  0  0  0  0  0  0  0  0  0  0  # atno 6909 bound_to 6896
  145.8499  140.8359  142.9991 H   0  0  0  0  0  0  0  0  0  0  0  0  # atno 7974 bound_to 7965
  155.8103  140.3473  155.5453 H   0  0  0  0  0  0  0  0  0  0  0  0  # atno 8008 bound_to 7997
  155.8448  140.0947  157.1732 H   0  0  0  0  0  0  0  0  0  0  0  0  # atno 8009 bound_to 7997
  154.4006  140.1387  156.3759 H   0  0  0  0  0  0  0  0  0  0  0  0  # atno 8010 bound_to 7997
  140.7224  143.3710  151.1778 H   0  0  0  0  0  0  0  0  0  0  0  0  # atno 10167 bound_to 10162
  156.3204  130.7531  151.1627 H   0  0  0  0  0  0  0  0  0  0  0  0  # atno 10718 bound_to 10713
  154.8725  135.3748  154.4662 H   0  0  0  0  0  0  0  0  0  0  0  0  # atno 10763 bound_to 10752
  153.5326  135.7027  153.5680 H   0  0  0  0  0  0  0  0  0  0  0  0  # atno 10764 bound_to 10752
  153.3878  135.3980  155.1867 H   0  0  0  0  0  0  0  0  0  0  0  0  # atno 10765 bound_to 10752
  140.0927  134.5188  155.8837 H   0  0  0  0  0  0  0  0  0  0  0  0  # atno 11005 bound_to 11000
  144.6729  140.0937  143.7464 LP  0  0  0  0  0  0  0  0  0  0  0  0  # atno 17320 bound_to 7965
  145.9370  139.2643  143.1291 LP  0  0  0  0  0  0  0  0  0  0  0  0  # atno 17321 bound_to 7965
  139.7282  143.9115  152.3010 LP  0  0  0  0  0  0  0  0  0  0  0  0  # atno 17342 bound_to 10162
  139.8895  144.6973  150.8786 LP  0  0  0  0  0  0  0  0  0  0  0  0  # atno 17343 bound_to 10162
  157.7410  131.0509  150.5124 LP  0  0  0  0  0  0  0  0  0  0  0  0  # atno 17370 bound_to 10713
  156.5276  130.4177  149.6218 LP  0  0  0  0  0  0  0  0  0  0  0  0  # atno 17371 bound_to 10713
  141.2082  133.6672  156.6359 LP  0  0  0  0  0  0  0  0  0  0  0  0  # atno 17394 bound_to 11000
  140.3330  134.7913  157.4341 LP  0  0  0  0  0  0  0  0  0  0  0  0  # atno 17395 bound_to 11000

$$$$
