AV-unprocessed.smi:532|AV-procd|sdf|2850|dock7
  -GOLD-   2262023343D 1   1.00000     0.00000
 Structure written by MMmdl.
 49 51  0  0  0  0  0  0  0  0  1 V2000
  149.6793  136.1333  156.9623 C   0  0  0  0  0  0  0  0  0  0  0  0
  150.5803  136.2392  158.0504 O   0  0  0  0  0  0  0  0  0  0  0  0
  150.5783  137.5323  158.6300 C   0  0  0  0  0  0  0  0  0  0  0  0
  151.0158  138.5528  157.5729 C   0  0  0  0  0  0  0  0  0  0  0  0
  151.2929  139.8524  158.1686 N   0  0  0  0  0  0  0  0  0  0  0  0
  150.7427  141.0523  157.8533 C   0  0  0  0  0  0  0  0  0  0  0  0
  149.7932  141.1685  156.8425 N   0  0  0  0  0  0  0  0  0  0  0  0
  150.1567  141.3534  155.4368 C   0  0  0  0  0  0  0  0  0  0  0  0
  149.1563  140.7188  154.4441 C   0  0  1  0  0  0  0  0  0  0  0  0
  149.2778  139.1885  154.3564 C   0  0  0  0  0  0  0  0  0  0  0  0
  147.7213  141.1828  154.7476 C   0  0  0  0  0  0  0  0  0  0  0  0
  147.3808  141.0008  156.2354 C   0  0  2  0  0  0  0  0  0  0  0  0
  145.9773  141.5313  156.5577 C   0  0  0  0  0  0  0  0  0  0  0  0
  148.4528  141.6888  157.0992 C   0  0  0  0  0  0  0  0  0  0  0  0
  151.1790  142.0809  158.5858 N   0  0  0  0  0  0  0  0  0  0  0  0
  152.1008  141.4830  159.4331 C   0  0  0  0  0  0  0  0  0  0  0  0
  152.1867  140.1499  159.1958 C   0  0  0  0  0  0  0  0  0  0  0  0
  153.0927  139.2721  159.9451 C   0  0  0  0  0  0  0  0  0  0  0  0
  153.1930  138.0652  159.7360 O   0  0  0  0  0  0  0  0  0  0  0  0
  153.8086  139.9318  160.8882 N   0  0  0  0  0  0  0  0  0  0  0  0
  153.7699  141.2684  161.1803 C   0  0  0  0  0  0  0  0  0  0  0  0
  154.4896  141.7181  162.0715 O   0  0  0  0  0  0  0  0  0  0  0  0
  152.9138  142.0558  160.4499 N   0  0  0  0  0  0  0  0  0  0  0  0
  152.7983  143.4971  160.6803 C   0  0  0  0  0  0  0  0  0  0  0  0
  154.4461  139.3736  161.4368 H   0  0  0  0  0  0  0  0  0  0  0  0
  149.7169  135.1244  156.5516 H   0  0  0  0  0  0  0  0  0  0  0  0
  149.9397  136.8314  156.1656 H   0  0  0  0  0  0  0  0  0  0  0  0
  148.6539  136.3293  157.2785 H   0  0  0  0  0  0  0  0  0  0  0  0
  149.5816  137.7763  159.0006 H   0  0  0  0  0  0  0  0  0  0  0  0
  151.2575  137.5601  159.4827 H   0  0  0  0  0  0  0  0  0  0  0  0
  151.9044  138.2059  157.0471 H   0  0  0  0  0  0  0  0  0  0  0  0
  150.2491  138.6647  156.8067 H   0  0  0  0  0  0  0  0  0  0  0  0
  150.2252  142.4254  155.2478 H   0  0  0  0  0  0  0  0  0  0  0  0
  151.1564  140.9527  155.2653 H   0  0  0  0  0  0  0  0  0  0  0  0
  149.4120  141.0934  153.4524 H   0  0  0  0  0  0  0  0  0  0  0  0
  149.0364  138.7036  155.3003 H   0  0  0  0  0  0  0  0  0  0  0  0
  150.2888  138.8922  154.0771 H   0  0  0  0  0  0  0  0  0  0  0  0
  148.6022  138.7864  153.6013 H   0  0  0  0  0  0  0  0  0  0  0  0
  147.6272  142.2378  154.4857 H   0  0  0  0  0  0  0  0  0  0  0  0
  147.0064  140.6477  154.1214 H   0  0  0  0  0  0  0  0  0  0  0  0
  147.3877  139.9352  156.4683 H   0  0  0  0  0  0  0  0  0  0  0  0
  145.9024  142.6012  156.3604 H   0  0  0  0  0  0  0  0  0  0  0  0
  145.7278  141.3669  157.6063 H   0  0  0  0  0  0  0  0  0  0  0  0
  145.2199  141.0278  155.9564 H   0  0  0  0  0  0  0  0  0  0  0  0
  148.2180  141.5482  158.1551 H   0  0  0  0  0  0  0  0  0  0  0  0
  148.4505  142.7651  156.9222 H   0  0  0  0  0  0  0  0  0  0  0  0
  153.4415  143.8737  161.4762 H   0  0  0  0  0  0  0  0  0  0  0  0
  151.7707  143.7500  160.9438 H   0  0  0  0  0  0  0  0  0  0  0  0
  153.0540  144.0397  159.7698 H   0  0  0  0  0  0  0  0  0  0  0  0
  1  2  1  0  0  0  0
  1 26  1  0  0  0  0
  1 27  1  0  0  0  0
  1 28  1  0  0  0  0
  2  3  1  0  0  0  0
  3  4  1  0  0  0  0
  3 29  1  0  0  0  0
  3 30  1  0  0  0  0
  4  5  1  0  0  0  0
  4 31  1  0  0  0  0
  4 32  1  0  0  0  0
  5 17  1  0  0  0  0
  5  6  1  0  0  0  0
  6  7  1  0  0  0  0
  6 15  2  0  0  0  0
  7 14  1  0  0  0  0
  7  8  1  0  0  0  0
  8  9  1  0  0  0  0
  8 33  1  0  0  0  0
  8 34  1  0  0  0  0
  9 10  1  0  0  0  0
  9 11  1  0  0  0  0
  9 35  1  0  0  0  0
 10 36  1  0  0  0  0
 10 37  1  0  0  0  0
 10 38  1  0  0  0  0
 11 12  1  0  0  0  0
 11 39  1  0  0  0  0
 11 40  1  0  0  0  0
 12 13  1  0  0  0  0
 12 14  1  0  0  0  0
 12 41  1  0  0  0  0
 13 42  1  0  0  0  0
 13 43  1  0  0  0  0
 13 44  1  0  0  0  0
 14 45  1  0  0  0  0
 14 46  1  0  0  0  0
 15 16  1  0  0  0  0
 16 23  1  0  0  0  0
 16 17  2  0  0  0  0
 17 18  1  0  0  0  0
 18 19  2  0  0  0  0
 18 20  1  0  0  0  0
 20 25  1  0  0  0  0
 20 21  1  0  0  0  0
 21 22  2  0  0  0  0
 21 23  1  0  0  0  0
 23 24  1  0  0  0  0
 24 47  1  0  0  0  0
 24 48  1  0  0  0  0
 24 49  1  0  0  0  0
M  END
> <s_m_source_file>
AV-unprocessed.smi

> <i_m_source_file_index>
532

> <i_lp_mmshare_version>
43012

> <i_f3d_flags>
0

> <s_epik_input>
W0NIM11uMWMoPU8pW25IXWMoPU8pYyhjMTIpbihbQ0gyXVtDSDJdT1tDSDNdKWMobjIpTjNbQ0gyXVtDQEBIXShbQ0gzXSlbQ0gyXVtDQEBIXShbQ0gzXSlbQ0gyXTM=

> <s_epik_cmdline>
J2VwaWtfcHl0aG9uJywgJy1waCcsICc3LjAnLCAnLXRuJywgJzgnLCAnLW1hJywgJzIwMCcsICctbWV0YWxfYmluZGluZycsICctaW1hZScsICc8aW5maWxlLm1hZT4nLCAnLW9tYWUnLCAnPG91dGZpbGUubWFlPic=

> <r_lp_tautomer_probability>
1

> <r_epik_Ionization_Penalty>
0.000642525

> <r_epik_Ionization_Penalty_Charging>
0.000121571

> <r_epik_Ionization_Penalty_Neutral>
0.000520954

> <r_epik_State_Penalty>
-0

> <r_epik_Charging_Adjusted_Penalty>
0.000121571

> <i_epik_Tot_Q>
0

> <i_epik_Tot_abs_Q>
0

> <r_epik_Metal_State_Penalty>
0.0931709

> <b_epik_Metal_Only>
0

> <s_lp_Force_Field>
OPLS_2005

> <r_lp_Energy>
43.7667

> <b_lp_Chiralities_Consistent>
1

> <s_lp_Variant>
AV-unprocessed.smi:532-3

> <Gold.Version>
5.8.1

> <Gold.Id.Protein>
6NUR|6NUR_protein|mol2

> <Gold.PLP.Fitness>
37.7038

> <Gold.PLP.PLP>
-37.8974

> <Gold.PLP.part.hbond>
-2.0000

> <Gold.PLP.part.metal>
0.0000

> <Gold.PLP.part.buried>
-5.7934

> <Gold.PLP.part.nonpolar>
-30.3205

> <Gold.PLP.part.repulsive>
0.0588

> <Gold.PLP.ligand.clash>
0.0000

> <Gold.PLP.ligand.torsion>
1.3456

> <Gold.PLP.Chemscore.Hbond>
0.5382

> <Gold.PLP.Chemscore.CHOScore>
0.0000

> <Gold.PLP.Chemscore.Metal>
0.0000

> <Gold.Chemscore.Hbonds>
donor molecule, donor type, donor heavy atom, donor atom, acceptor molecule, acceptor atom, score
      P1  H  6896  6907       L1     2  0.53

> <Gold.PLP.Chemscore.Internal.Correction>
0.8830

> <Gold.Rescore>
     Score         DG    S(hbond)    S(metal)    S(lipo)     H(rot)  DE(clash)    DE(int)     intcor
      8.19     -11.58       0.93        0.00      57.00       1.43       1.19       2.20       ----

> <Gold.Chemscore.Fitness>
8.1867

> <Gold.Chemscore.DG>
-11.5849

> <Gold.Chemscore.ZeroCoef>
-5.4800

> <Gold.Chemscore.Hbond>
0.9289

> <Gold.Chemscore.Metal>
0.0000

> <Gold.Chemscore.Lipo>
57.0022

> <Gold.Chemscore.Internal_Hbond>
0.0000

> <Gold.Chemscore.DEClash>
1.1934

> <Gold.Chemscore.DEInternal>
2.2048

> <Gold.Chemscore.Rot>
1.4324

> <Gold.Chemscore.Internal.Correction>
   9.000000E+99

> <Gold.Chemscore.Hbonds>
donor molecule, donor type, donor heavy atom, donor atom, acceptor molecule, acceptor atom, score
      P1  H  6896  6907       L1     2  0.29

> <Gold.Chemscore.Hbond.Weighted>
-3.1025

> <Gold.Chemscore.Metal.Weighted>
-0.0000

> <Gold.Chemscore.Lipo.Weighted>
-6.6693

> <Gold.Chemscore.Internal_Hbond.Weighted>
0.0000

> <Gold.Chemscore.DEClash.Weighted>
1.1934

> <Gold.Chemscore.DEInternal.Weighted>
2.2048

> <Gold.Chemscore.Rot.Weighted>
3.6669

> <Gold.Chemscore.Internal.Correction.Weighted>
   9.000000E+99

> <Gold.Protein.RotatedTorsions>
[ 6907 6896 6895 6894 ] final  -49.69 input  -60.11 | X-H torsion
[ 7974 7965 7964 7962 ] final  -93.05 input  175.53 | X-H torsion
[ 8008 7997 7996 7995 ] final   40.11 input   59.86 | X-H torsion
[ 10167 10162 10161 10158 ] final   66.57 input  -65.29 | X-H torsion
[ 10718 10713 10712 10709 ] final -129.67 input   66.30 | X-H torsion
[ 10763 10752 10751 10750 ] final -179.69 input  -60.55 | X-H torsion
[ 11005 11000 10999 10996 ] final   21.58 input  -57.11 | X-H torsion

> <Gold.Protein.ActiveResidues>
 VAL166  LYS551  ARG553  GLY616  TRP617  ASP618  TYR619  PRO620  LYS621  CYS622 
 ASP623  PHE694  ASN695  SER759  ASP760  ASP761  ALA762  ILE779  LEU786  VAL792 
 PHE793  MET794  SER795  GLU796  ALA797  LYS798  CYS799  TRP800  GLU811  SER814 

> <Gold.Protein.RotatedAtoms>
  150.8781  134.8167  159.7204 H   0  0  0  0  0  0  0  0  0  0  0  0  # atno 6907 bound_to 6896
  152.4759  134.4840  159.9684 H   0  0  0  0  0  0  0  0  0  0  0  0  # atno 6908 bound_to 6896
  151.4919  133.3484  159.2890 H   0  0  0  0  0  0  0  0  0  0  0  0  # atno 6909 bound_to 6896
  145.3916  140.9529  143.2337 H   0  0  0  0  0  0  0  0  0  0  0  0  # atno 7974 bound_to 7965
  155.2477  140.3350  155.4285 H   0  0  0  0  0  0  0  0  0  0  0  0  # atno 8008 bound_to 7997
  156.2229  140.1817  156.7478 H   0  0  0  0  0  0  0  0  0  0  0  0  # atno 8009 bound_to 7997
  154.5853  140.0647  156.9147 H   0  0  0  0  0  0  0  0  0  0  0  0  # atno 8010 bound_to 7997
  140.0990  144.4921  150.7050 H   0  0  0  0  0  0  0  0  0  0  0  0  # atno 10167 bound_to 10162
  156.2069  130.6893  151.0605 H   0  0  0  0  0  0  0  0  0  0  0  0  # atno 10718 bound_to 10713
  154.5318  135.2800  155.1173 H   0  0  0  0  0  0  0  0  0  0  0  0  # atno 10763 bound_to 10752
  154.2690  135.6307  153.5307 H   0  0  0  0  0  0  0  0  0  0  0  0  # atno 10764 bound_to 10752
  152.9958  135.5624  154.5834 H   0  0  0  0  0  0  0  0  0  0  0  0  # atno 10765 bound_to 10752
  140.3900  134.1829  155.7662 H   0  0  0  0  0  0  0  0  0  0  0  0  # atno 11005 bound_to 11000
  144.8436  139.5433  143.6889 LP  0  0  0  0  0  0  0  0  0  0  0  0  # atno 17320 bound_to 7965
  146.2795  139.6839  142.9239 LP  0  0  0  0  0  0  0  0  0  0  0  0  # atno 17321 bound_to 7965
  140.6988  143.2421  151.4924 LP  0  0  0  0  0  0  0  0  0  0  0  0  # atno 17342 bound_to 10162
  139.5682  144.1992  152.1797 LP  0  0  0  0  0  0  0  0  0  0  0  0  # atno 17343 bound_to 10162
  157.7017  131.0773  150.6798 LP  0  0  0  0  0  0  0  0  0  0  0  0  # atno 17370 bound_to 10713
  156.6857  130.4580  149.5614 LP  0  0  0  0  0  0  0  0  0  0  0  0  # atno 17371 bound_to 10713
  141.1894  133.8239  157.0958 LP  0  0  0  0  0  0  0  0  0  0  0  0  # atno 17394 bound_to 11000
  140.0414  134.9852  157.0968 LP  0  0  0  0  0  0  0  0  0  0  0  0  # atno 17395 bound_to 11000

$$$$
