AV-unprocessed.smi:1999|AV-procd|sdf|8096|dock9
  -GOLD-   2272010313D 1   1.00000     0.00000
 Structure written by MMmdl.
 37 38  0  0  0  0  0  0  0  0  2 V2000
  143.7952  143.7635  162.4807 C   0  0  0  0  0  0  0  0  0  0  0  0
  144.8080  143.4979  161.4203 C   0  0  0  0  0  0  0  0  0  0  0  0
  145.9820  142.9139  161.6718 N   0  0  0  0  0  0  0  0  0  0  0  0
  146.7506  142.7711  160.5256 N   0  0  0  0  0  0  0  0  0  0  0  0
  146.1448  143.2372  159.4243 C   0  0  0  0  0  0  0  0  0  0  0  0
  146.7212  143.1927  158.2119 N   0  5  0  0  0  0  0  0  0  0  0  0
  147.6048  142.2111  157.9197 C   0  0  0  0  0  0  0  0  0  0  0  0
  147.7094  141.1274  158.4988 O   0  0  0  0  0  0  0  0  0  0  0  0
  148.4166  142.5035  156.8933 N   0  0  0  0  0  0  0  0  0  0  0  0
  149.4546  141.6361  156.3382 C   0  0  2  0  0  0  0  0  0  0  0  0
  148.8126  140.4410  155.6166 C   0  0  0  0  0  0  0  0  0  0  0  0
  150.4027  141.1651  157.4603 C   0  0  0  0  0  0  0  0  0  0  0  0
  150.8733  142.2067  158.3760 N   0  0  0  0  0  0  0  0  0  0  0  0
  151.4219  143.3685  157.6802 C   0  0  0  0  0  0  0  0  0  0  0  0
  151.9323  144.4369  158.6626 C   0  0  0  0  0  0  0  0  0  0  0  0
  152.8983  143.8631  159.5372 O   0  0  0  0  0  0  0  0  0  0  0  0
  152.3833  142.7568  160.2707 C   0  0  0  0  0  0  0  0  0  0  0  0
  151.8788  141.6817  159.2928 C   0  0  0  0  0  0  0  0  0  0  0  0
  144.5506  143.9235  159.7367 S   0  0  0  0  0  0  0  0  0  0  0  0
  143.1856  142.8747  162.6430 H   0  0  0  0  0  0  0  0  0  0  0  0
  143.1445  144.5862  162.1837 H   0  0  0  0  0  0  0  0  0  0  0  0
  144.2866  144.0292  163.4171 H   0  0  0  0  0  0  0  0  0  0  0  0
  148.2905  143.4001  156.4471 H   0  0  0  0  0  0  0  0  0  0  0  0
  150.0352  142.1910  155.6004 H   0  0  0  0  0  0  0  0  0  0  0  0
  149.5733  139.7866  155.1906 H   0  0  0  0  0  0  0  0  0  0  0  0
  148.1704  140.7710  154.7997 H   0  0  0  0  0  0  0  0  0  0  0  0
  148.2042  139.8457  156.2984 H   0  0  0  0  0  0  0  0  0  0  0  0
  149.8776  140.4039  158.0396 H   0  0  0  0  0  0  0  0  0  0  0  0
  151.2605  140.6587  157.0155 H   0  0  0  0  0  0  0  0  0  0  0  0
  152.2383  143.0579  157.0266 H   0  0  0  0  0  0  0  0  0  0  0  0
  150.6634  143.8213  157.0425 H   0  0  0  0  0  0  0  0  0  0  0  0
  152.3896  145.2638  158.1193 H   0  0  0  0  0  0  0  0  0  0  0  0
  151.1071  144.8521  159.2435 H   0  0  0  0  0  0  0  0  0  0  0  0
  153.1715  142.3520  160.9055 H   0  0  0  0  0  0  0  0  0  0  0  0
  151.5791  143.0887  160.9289 H   0  0  0  0  0  0  0  0  0  0  0  0
  151.4633  140.8477  159.8593 H   0  0  0  0  0  0  0  0  0  0  0  0
  152.7233  141.2846  158.7275 H   0  0  0  0  0  0  0  0  0  0  0  0
  1  2  1  0  0  0  0
  1 20  1  0  0  0  0
  1 21  1  0  0  0  0
  1 22  1  0  0  0  0
  2 19  1  0  0  0  0
  2  3  2  0  0  0  0
  3  4  1  0  0  0  0
  4  5  2  0  0  0  0
  5  6  1  0  0  0  0
  5 19  1  0  0  0  0
  6  7  1  0  0  0  0
  7  8  2  0  0  0  0
  7  9  1  0  0  0  0
  9 10  1  0  0  0  0
  9 23  1  0  0  0  0
 10 11  1  0  0  0  0
 10 12  1  0  0  0  0
 10 24  1  0  0  0  0
 11 25  1  0  0  0  0
 11 26  1  0  0  0  0
 11 27  1  0  0  0  0
 12 13  1  0  0  0  0
 12 28  1  0  0  0  0
 12 29  1  0  0  0  0
 13 18  1  0  0  0  0
 13 14  1  0  0  0  0
 14 15  1  0  0  0  0
 14 30  1  0  0  0  0
 14 31  1  0  0  0  0
 15 16  1  0  0  0  0
 15 32  1  0  0  0  0
 15 33  1  0  0  0  0
 16 17  1  0  0  0  0
 17 18  1  0  0  0  0
 17 34  1  0  0  0  0
 17 35  1  0  0  0  0
 18 36  1  0  0  0  0
 18 37  1  0  0  0  0
M  CHG  1   6  -1
M  END
> <s_m_source_file>
AV-unprocessed.smi

> <i_m_source_file_index>
1999

> <i_lp_mmshare_version>
43012

> <i_f3d_flags>
0

> <s_epik_input>
W0NIM11jMW5uYyhzMSlbTkhdQyg9TylbTkhdW0NASF0oW0NIM10pW0NIMl1OMltDSDJdW0NIMl1PW0NIMl1bQ0gyXTI=

> <s_epik_cmdline>
J2VwaWtfcHl0aG9uJywgJy1waCcsICc3LjAnLCAnLXRuJywgJzgnLCAnLW1hJywgJzIwMCcsICctbWV0YWxfYmluZGluZycsICctaW1hZScsICc8aW5maWxlLm1hZT4nLCAnLW9tYWUnLCAnPG91dGZpbGUubWFlPic=

> <r_lp_tautomer_probability>
1

> <r_epik_Ionization_Penalty>
3.74165

> <r_epik_Ionization_Penalty_Charging>
3.28066

> <r_epik_Ionization_Penalty_Neutral>
0.460988

> <r_epik_State_Penalty>
3.48767

> <r_epik_Charging_Adjusted_Penalty>
6.76834

> <i_epik_Tot_Q>
-1

> <i_epik_Tot_abs_Q>
1

> <r_epik_Metal_State_Penalty>
0.700129

> <b_epik_Metal_Only>
1

> <s_lp_Force_Field>
OPLS_2005

> <r_lp_Energy>
23.1925

> <b_lp_Chiralities_Consistent>
1

> <s_lp_Variant>
AV-unprocessed.smi:1999-5

> <Gold.Version>
5.8.1

> <Gold.Id.Protein>
6NUR|6NUR_protein|mol2

> <Gold.PLP.Fitness>
38.6324

> <Gold.PLP.PLP>
-32.2655

> <Gold.PLP.part.hbond>
-4.3140

> <Gold.PLP.part.metal>
0.0000

> <Gold.PLP.part.buried>
-4.9319

> <Gold.PLP.part.nonpolar>
-24.3352

> <Gold.PLP.part.repulsive>
0.4865

> <Gold.PLP.ligand.clash>
0.0000

> <Gold.PLP.ligand.torsion>
0.4401

> <Gold.PLP.Chemscore.Hbond>
2.3976

> <Gold.PLP.Chemscore.CHOScore>
0.0000

> <Gold.PLP.Chemscore.Metal>
0.0000

> <Gold.Chemscore.Hbonds>
donor molecule, donor type, donor heavy atom, donor atom, acceptor molecule, acceptor atom, score
      L1  H     9    23       P1  8028  1.00
      P1  H  6933  6944       L1     4  0.73
      P1  H  6934  6946       L1     4  0.66

> <Gold.PLP.Chemscore.Internal.Correction>
0.0543

> <Gold.Rescore>
     Score         DG    S(hbond)    S(metal)    S(lipo)     H(rot)  DE(clash)    DE(int)     intcor
     10.39     -13.59       0.95        0.00      76.34       1.56       0.04       3.16       ----

> <Gold.Chemscore.Fitness>
10.3853

> <Gold.Chemscore.DG>
-13.5877

> <Gold.Chemscore.ZeroCoef>
-5.4800

> <Gold.Chemscore.Hbond>
0.9455

> <Gold.Chemscore.Metal>
0.0000

> <Gold.Chemscore.Lipo>
76.3410

> <Gold.Chemscore.Internal_Hbond>
0.0000

> <Gold.Chemscore.DEClash>
0.0421

> <Gold.Chemscore.DEInternal>
3.1603

> <Gold.Chemscore.Rot>
1.5556

> <Gold.Chemscore.Internal.Correction>
   9.000000E+99

> <Gold.Chemscore.Hbonds>
donor molecule, donor type, donor heavy atom, donor atom, acceptor molecule, acceptor atom, score
      L1  H     9    23       P1  8028  0.33
      P1  H  6933  6944       L1     4  0.12
      P1  H  6934  6946       L1     4  0.06

> <Gold.Chemscore.Hbond.Weighted>
-3.1580

> <Gold.Chemscore.Metal.Weighted>
-0.0000

> <Gold.Chemscore.Lipo.Weighted>
-8.9319

> <Gold.Chemscore.Internal_Hbond.Weighted>
0.0000

> <Gold.Chemscore.DEClash.Weighted>
0.0421

> <Gold.Chemscore.DEInternal.Weighted>
3.1603

> <Gold.Chemscore.Rot.Weighted>
3.9823

> <Gold.Chemscore.Internal.Correction.Weighted>
   9.000000E+99

> <Gold.Protein.RotatedTorsions>
[ 6907 6896 6895 6894 ] final -179.02 input  -60.11 | X-H torsion
[ 7974 7965 7964 7962 ] final  127.77 input  175.53 | X-H torsion
[ 8008 7997 7996 7995 ] final  -70.49 input   59.86 | X-H torsion
[ 10167 10162 10161 10158 ] final  -73.41 input  -65.29 | X-H torsion
[ 10718 10713 10712 10709 ] final  160.57 input   66.30 | X-H torsion
[ 10763 10752 10751 10750 ] final -106.76 input  -60.55 | X-H torsion
[ 11005 11000 10999 10996 ] final   38.51 input  -57.11 | X-H torsion

> <Gold.Protein.ActiveResidues>
 VAL166  LYS551  ARG553  GLY616  TRP617  ASP618  TYR619  PRO620  LYS621  CYS622 
 ASP623  PHE694  ASN695  SER759  ASP760  ASP761  ALA762  ILE779  LEU786  VAL792 
 PHE793  MET794  SER795  GLU796  ALA797  LYS798  CYS799  TRP800  GLU811  SER814 

> <Gold.Protein.RotatedAtoms>
  151.6466  133.3323  159.3142 H   0  0  0  0  0  0  0  0  0  0  0  0  # atno 6907 bound_to 6896
  150.7981  134.7059  159.6586 H   0  0  0  0  0  0  0  0  0  0  0  0  # atno 6908 bound_to 6896
  152.4070  134.6193  160.0098 H   0  0  0  0  0  0  0  0  0  0  0  0  # atno 6909 bound_to 6896
  145.0469  139.3915  143.5073 H   0  0  0  0  0  0  0  0  0  0  0  0  # atno 7974 bound_to 7965
  154.5016  140.0833  156.7809 H   0  0  0  0  0  0  0  0  0  0  0  0  # atno 8008 bound_to 7997
  155.3990  140.3436  155.4237 H   0  0  0  0  0  0  0  0  0  0  0  0  # atno 8009 bound_to 7997
  156.1463  140.1545  156.8829 H   0  0  0  0  0  0  0  0  0  0  0  0  # atno 8010 bound_to 7997
  140.5112  143.2344  151.7589 H   0  0  0  0  0  0  0  0  0  0  0  0  # atno 10167 bound_to 10162
  157.1485  131.0558  151.2292 H   0  0  0  0  0  0  0  0  0  0  0  0  # atno 10718 bound_to 10713
  154.8032  135.4700  154.0328 H   0  0  0  0  0  0  0  0  0  0  0  0  # atno 10763 bound_to 10752
  153.1817  135.6841  153.8476 H   0  0  0  0  0  0  0  0  0  0  0  0  # atno 10764 bound_to 10752
  153.8024  135.3228  155.3369 H   0  0  0  0  0  0  0  0  0  0  0  0  # atno 10765 bound_to 10752
  140.2119  134.3745  155.8045 H   0  0  0  0  0  0  0  0  0  0  0  0  # atno 11005 bound_to 11000
  146.3514  140.0100  142.8668 LP  0  0  0  0  0  0  0  0  0  0  0  0  # atno 17320 bound_to 7965
  145.1576  140.9656  143.4396 LP  0  0  0  0  0  0  0  0  0  0  0  0  # atno 17321 bound_to 7965
  139.4897  144.4387  151.9789 LP  0  0  0  0  0  0  0  0  0  0  0  0  # atno 17342 bound_to 10162
  140.3480  144.3124  150.5954 LP  0  0  0  0  0  0  0  0  0  0  0  0  # atno 17343 bound_to 10162
  157.4242  130.7454  149.6937 LP  0  0  0  0  0  0  0  0  0  0  0  0  # atno 17370 bound_to 10713
  155.9775  130.4062  150.3709 LP  0  0  0  0  0  0  0  0  0  0  0  0  # atno 17371 bound_to 10713
  141.2226  133.7147  156.8432 LP  0  0  0  0  0  0  0  0  0  0  0  0  # atno 17394 bound_to 11000
  140.1942  134.8944  157.3095 LP  0  0  0  0  0  0  0  0  0  0  0  0  # atno 17395 bound_to 11000

$$$$
