AV-unprocessed.smi:794|AV-procd|sdf|3762|dock4
  -GOLD-   22720 1193D 1   1.00000     0.00000
 Structure written by MMmdl.
 41 43  0  0  0  0  0  0  0  0  1 V2000
  146.8517  136.8723  163.0651 C   0  0  0  0  0  0  0  0  0  0  0  0
  147.2965  136.2087  161.7956 C   0  0  0  0  0  0  0  0  0  0  0  0
  147.6275  137.0219  160.7076 N   0  0  0  0  0  0  0  0  0  0  0  0
  148.0067  136.3164  159.6383 C   0  0  0  0  0  0  0  0  0  0  0  0
  148.3935  136.8875  158.3974 N   0  0  0  0  0  0  0  0  0  0  0  0
  149.5472  136.7150  157.7284 C   0  0  0  0  0  0  0  0  0  0  0  0
  150.4775  135.9947  158.0912 O   0  0  0  0  0  0  0  0  0  0  0  0
  149.5591  137.4303  156.5946 N   0  0  0  0  0  0  0  0  0  0  0  0
  150.6518  137.4751  155.6199 C   0  0  2  0  0  0  0  0  0  0  0  0
  151.9712  138.0104  156.2311 C   0  0  2  0  0  0  0  0  0  0  0  0
  151.7407  139.3248  157.0070 C   0  0  0  0  0  0  0  0  0  0  0  0
  151.4328  140.3280  155.8807 C   0  0  0  0  0  0  0  0  0  0  0  0
  151.5703  139.4700  154.6048 C   0  0  1  0  0  0  0  0  0  0  0  0
  152.7052  138.5322  154.9996 C   0  0  0  0  0  0  0  0  0  0  0  0
  150.4026  138.4653  154.4471 C   0  0  2  0  0  0  0  0  0  0  0  0
  148.9882  139.0761  154.3247 C   0  0  0  0  0  0  0  0  0  0  0  0
  148.9128  139.9140  153.1910 O   0  0  0  0  0  0  0  0  0  0  0  0
  147.9785  134.5826  159.8970 S   0  0  0  0  0  0  0  0  0  0  0  0
  147.4326  134.8614  161.5330 C   0  0  0  0  0  0  0  0  0  0  0  0
  147.1816  133.6947  162.4330 C   0  0  0  0  0  0  0  0  0  0  0  0
  146.6116  136.1574  163.8501 H   0  0  0  0  0  0  0  0  0  0  0  0
  145.9618  137.4791  162.8967 H   0  0  0  0  0  0  0  0  0  0  0  0
  147.6283  137.5315  163.4535 H   0  0  0  0  0  0  0  0  0  0  0  0
  147.7117  137.4963  157.9694 H   0  0  0  0  0  0  0  0  0  0  0  0
  148.7485  137.9937  156.3841 H   0  0  0  0  0  0  0  0  0  0  0  0
  150.8369  136.4828  155.2040 H   0  0  0  0  0  0  0  0  0  0  0  0
  152.5182  137.2612  156.8041 H   0  0  0  0  0  0  0  0  0  0  0  0
  150.9457  139.2665  157.7504 H   0  0  0  0  0  0  0  0  0  0  0  0
  152.6503  139.6177  157.5330 H   0  0  0  0  0  0  0  0  0  0  0  0
  150.4528  140.7913  155.9861 H   0  0  0  0  0  0  0  0  0  0  0  0
  152.1708  141.1312  155.8819 H   0  0  0  0  0  0  0  0  0  0  0  0
  151.7619  140.0562  153.7056 H   0  0  0  0  0  0  0  0  0  0  0  0
  153.6360  139.0515  155.2357 H   0  0  0  0  0  0  0  0  0  0  0  0
  152.9098  137.7590  154.2569 H   0  0  0  0  0  0  0  0  0  0  0  0
  150.5783  137.9126  153.5220 H   0  0  0  0  0  0  0  0  0  0  0  0
  148.2490  138.2827  154.2083 H   0  0  0  0  0  0  0  0  0  0  0  0
  148.7042  139.6439  155.2099 H   0  0  0  0  0  0  0  0  0  0  0  0
  148.9161  139.3734  152.4158 H   0  0  0  0  0  0  0  0  0  0  0  0
  146.8226  133.9991  163.4145 H   0  0  0  0  0  0  0  0  0  0  0  0
  148.0962  133.1199  162.5792 H   0  0  0  0  0  0  0  0  0  0  0  0
  146.4341  133.0300  161.9998 H   0  0  0  0  0  0  0  0  0  0  0  0
  1  2  1  0  0  0  0
  1 21  1  0  0  0  0
  1 22  1  0  0  0  0
  1 23  1  0  0  0  0
  2 19  2  0  0  0  0
  2  3  1  0  0  0  0
  3  4  2  0  0  0  0
  4  5  1  0  0  0  0
  4 18  1  0  0  0  0
  5  6  1  0  0  0  0
  5 24  1  0  0  0  0
  6  7  2  0  0  0  0
  6  8  1  0  0  0  0
  8  9  1  0  0  0  0
  8 25  1  0  0  0  0
  9 15  1  0  0  0  0
  9 10  1  0  0  0  0
  9 26  1  0  0  0  0
 10 14  1  0  0  0  0
 10 11  1  0  0  0  0
 10 27  1  0  0  0  0
 11 12  1  0  0  0  0
 11 28  1  0  0  0  0
 11 29  1  0  0  0  0
 12 13  1  0  0  0  0
 12 30  1  0  0  0  0
 12 31  1  0  0  0  0
 13 14  1  0  0  0  0
 13 15  1  0  0  0  0
 13 32  1  0  0  0  0
 14 33  1  0  0  0  0
 14 34  1  0  0  0  0
 15 16  1  0  0  0  0
 15 35  1  0  0  0  0
 16 17  1  0  0  0  0
 16 36  1  0  0  0  0
 16 37  1  0  0  0  0
 17 38  1  0  0  0  0
 18 19  1  0  0  0  0
 19 20  1  0  0  0  0
 20 39  1  0  0  0  0
 20 40  1  0  0  0  0
 20 41  1  0  0  0  0
M  END
> <s_m_source_file>
AV-unprocessed.smi

> <i_m_source_file_index>
794

> <i_lp_mmshare_version>
43012

> <i_f3d_flags>
0

> <s_epik_input>
W0NIM11jMW5jKHNjMVtDSDNdKVtOSF1DKD1PKVtOSF1bQ0BIXShbQ0BASF0yMylbQ0BIXShbQ0gyXVtPSF0pW0NAQEhdKFtDSDJdMylbQ0gyXVtDSDJdMg==

> <s_epik_cmdline>
J2VwaWtfcHl0aG9uJywgJy1waCcsICc3LjAnLCAnLXRuJywgJzgnLCAnLW1hJywgJzIwMCcsICctbWV0YWxfYmluZGluZycsICctaW1hZScsICc8aW5maWxlLm1hZT4nLCAnLW9tYWUnLCAnPG91dGZpbGUubWFlPic=

> <r_lp_tautomer_probability>
0.999

> <r_epik_Ionization_Penalty>
0.000713029

> <r_epik_Ionization_Penalty_Charging>
0

> <r_epik_Ionization_Penalty_Neutral>
0.000713029

> <r_epik_State_Penalty>
0.000177984

> <r_epik_Charging_Adjusted_Penalty>
0.000177984

> <i_epik_Tot_Q>
0

> <i_epik_Tot_abs_Q>
0

> <r_epik_Metal_State_Penalty>
-0

> <b_epik_Metal_Only>
0

> <s_lp_Force_Field>
OPLS_2005

> <r_lp_Energy>
49.8561

> <b_lp_Chiralities_Consistent>
1

> <s_lp_Variant>
AV-unprocessed.smi:794-7

> <Gold.Version>
5.8.1

> <Gold.Id.Protein>
6NUR|6NUR_protein|mol2

> <Gold.PLP.Fitness>
46.2899

> <Gold.PLP.PLP>
-36.1254

> <Gold.PLP.part.hbond>
-5.2616

> <Gold.PLP.part.metal>
0.0000

> <Gold.PLP.part.buried>
-1.2819

> <Gold.PLP.part.nonpolar>
-29.7213

> <Gold.PLP.part.repulsive>
0.1403

> <Gold.PLP.ligand.clash>
0.0000

> <Gold.PLP.ligand.torsion>
0.5269

> <Gold.PLP.Chemscore.Hbond>
3.7358

> <Gold.PLP.Chemscore.CHOScore>
0.0000

> <Gold.PLP.Chemscore.Metal>
0.0000

> <Gold.Chemscore.Hbonds>
donor molecule, donor type, donor heavy atom, donor atom, acceptor molecule, acceptor atom, score
      L1  H    17    38       P1  7957  0.30
      P1  H  6896  6907       L1     7  0.74
      P1  H  6931  6943       L1     3  0.30
      P1  H  6934  6947       L1     3  0.90

> <Gold.PLP.Chemscore.Internal.Correction>
0.0108

> <Gold.Rescore>
     Score         DG    S(hbond)    S(metal)    S(lipo)     H(rot)  DE(clash)    DE(int)     intcor
     19.58     -21.10       2.93        0.00      88.67       1.78       1.17       0.35       ----

> <Gold.Chemscore.Fitness>
19.5757

> <Gold.Chemscore.DG>
-21.0990

> <Gold.Chemscore.ZeroCoef>
-5.4800

> <Gold.Chemscore.Hbond>
2.9344

> <Gold.Chemscore.Metal>
0.0000

> <Gold.Chemscore.Lipo>
88.6685

> <Gold.Chemscore.Internal_Hbond>
0.0000

> <Gold.Chemscore.DEClash>
1.1705

> <Gold.Chemscore.DEInternal>
0.3527

> <Gold.Chemscore.Rot>
1.7798

> <Gold.Chemscore.Internal.Correction>
   9.000000E+99

> <Gold.Chemscore.Hbonds>
donor molecule, donor type, donor heavy atom, donor atom, acceptor molecule, acceptor atom, score
      L1  H    17    38       P1  7957  0.29
      P1  H  6896  6907       L1     7  0.72
      P1  H  6931  6943       L1     3  0.03
      P1  H  6934  6947       L1     3  0.77

> <Gold.Chemscore.Hbond.Weighted>
-9.8009

> <Gold.Chemscore.Metal.Weighted>
-0.0000

> <Gold.Chemscore.Lipo.Weighted>
-10.3742

> <Gold.Chemscore.Internal_Hbond.Weighted>
0.0000

> <Gold.Chemscore.DEClash.Weighted>
1.1705

> <Gold.Chemscore.DEInternal.Weighted>
0.3527

> <Gold.Chemscore.Rot.Weighted>
4.5562

> <Gold.Chemscore.Internal.Correction.Weighted>
   9.000000E+99

> <Gold.Protein.RotatedTorsions>
[ 6907 6896 6895 6894 ] final  -58.77 input  -60.11 | X-H torsion
[ 7974 7965 7964 7962 ] final  166.41 input  175.53 | X-H torsion
[ 8008 7997 7996 7995 ] final   70.18 input   59.86 | X-H torsion
[ 10167 10162 10161 10158 ] final   73.37 input  -65.29 | X-H torsion
[ 10718 10713 10712 10709 ] final   87.16 input   66.30 | X-H torsion
[ 10763 10752 10751 10750 ] final  -45.24 input  -60.55 | X-H torsion
[ 11005 11000 10999 10996 ] final   27.42 input  -57.11 | X-H torsion

> <Gold.Protein.ActiveResidues>
 VAL166  LYS551  ARG553  GLY616  TRP617  ASP618  TYR619  PRO620  LYS621  CYS622 
 ASP623  PHE694  ASN695  SER759  ASP760  ASP761  ALA762  ILE779  LEU786  VAL792 
 PHE793  MET794  SER795  GLU796  ALA797  LYS798  CYS799  TRP800  GLU811  SER814 

> <Gold.Protein.RotatedAtoms>
  150.7982  134.7056  159.6574 H   0  0  0  0  0  0  0  0  0  0  0  0  # atno 6907 bound_to 6896
  152.4096  134.6144  160.0044 H   0  0  0  0  0  0  0  0  0  0  0  0  # atno 6908 bound_to 6896
  151.6391  133.3290  159.3162 H   0  0  0  0  0  0  0  0  0  0  0  0  # atno 6909 bound_to 6896
  144.7463  139.8611  143.6381 H   0  0  0  0  0  0  0  0  0  0  0  0  # atno 7974 bound_to 7965
  155.7348  140.3491  155.5076 H   0  0  0  0  0  0  0  0  0  0  0  0  # atno 8008 bound_to 7997
  155.9149  140.1057  157.1273 H   0  0  0  0  0  0  0  0  0  0  0  0  # atno 8009 bound_to 7997
  154.4061  140.1261  156.4591 H   0  0  0  0  0  0  0  0  0  0  0  0  # atno 8010 bound_to 7997
  140.0252  144.5509  150.7550 H   0  0  0  0  0  0  0  0  0  0  0  0  # atno 10167 bound_to 10162
  157.6937  131.0244  150.3082 H   0  0  0  0  0  0  0  0  0  0  0  0  # atno 10718 bound_to 10713
  154.0253  135.6664  153.4776 H   0  0  0  0  0  0  0  0  0  0  0  0  # atno 10763 bound_to 10752
  153.0563  135.5054  154.7984 H   0  0  0  0  0  0  0  0  0  0  0  0  # atno 10764 bound_to 10752
  154.6912  135.3061  154.9442 H   0  0  0  0  0  0  0  0  0  0  0  0  # atno 10765 bound_to 10752
  140.3265  134.2486  155.7709 H   0  0  0  0  0  0  0  0  0  0  0  0  # atno 11005 bound_to 11000
  146.1347  139.4390  143.0146 LP  0  0  0  0  0  0  0  0  0  0  0  0  # atno 17320 bound_to 7965
  145.7109  141.0106  143.1454 LP  0  0  0  0  0  0  0  0  0  0  0  0  # atno 17321 bound_to 7965
  140.7325  143.2707  151.3898 LP  0  0  0  0  0  0  0  0  0  0  0  0  # atno 17342 bound_to 10162
  139.6113  144.1093  152.2301 LP  0  0  0  0  0  0  0  0  0  0  0  0  # atno 17343 bound_to 10162
  156.3587  130.3843  149.7269 LP  0  0  0  0  0  0  0  0  0  0  0  0  # atno 17370 bound_to 10713
  156.4722  130.8002  151.3019 LP  0  0  0  0  0  0  0  0  0  0  0  0  # atno 17371 bound_to 10713
  141.2074  133.7807  157.0121 LP  0  0  0  0  0  0  0  0  0  0  0  0  # atno 17394 bound_to 11000
  140.0897  134.9599  157.1757 LP  0  0  0  0  0  0  0  0  0  0  0  0  # atno 17395 bound_to 11000

$$$$
