AV-unprocessed.smi:2973|AV-procd|sdf|11352|dock9
  -GOLD-   2272016273D 1   1.00000     0.00000
 Structure written by MMmdl.
 49 51  0  0  0  0  0  0  0  0  3 V2000
  148.9942  137.8568  158.5848 C   0  0  0  0  0  0  0  0  0  0  0  0
  147.8275  137.2092  157.8066 C   0  0  1  0  0  0  0  0  0  0  0  0
  146.5697  138.1020  157.9040 C   0  0  0  0  0  0  0  0  0  0  0  0
  145.3571  137.4642  157.2106 C   0  0  0  0  0  0  0  0  0  0  0  0
  145.6628  137.1416  155.7428 C   0  0  0  0  0  0  0  0  0  0  0  0
  146.9051  136.2419  155.6237 C   0  0  0  0  0  0  0  0  0  0  0  0
  148.1613  136.8254  156.3255 C   0  0  2  0  0  0  0  0  0  0  0  0
  149.2145  135.8250  156.2871 N   0  5  0  0  0  0  0  0  0  0  0  0
  150.2530  136.3017  155.5627 C   0  0  0  0  0  0  0  0  0  0  0  0
  151.3050  135.7147  155.3103 O   0  0  0  0  0  0  0  0  0  0  0  0
  150.0033  137.5487  155.1217 N   0  0  0  0  0  0  0  0  0  0  0  0
  150.9191  138.3439  154.2933 C   0  0  0  0  0  0  0  0  0  0  0  0
  151.5603  139.5090  155.0593 C   0  0  0  0  0  0  0  0  0  0  0  0
  152.7509  139.4818  155.3753 O   0  0  0  0  0  0  0  0  0  0  0  0
  150.7530  140.5430  155.3393 N   0  0  0  0  0  0  0  0  0  0  0  0
  151.1528  141.7426  156.0643 C   0  0  0  0  0  0  0  0  0  0  0  0
  150.7214  141.6818  157.5395 C   0  0  0  0  0  0  0  0  0  0  0  0
  151.1320  142.9219  158.3089 C   0  0  0  0  0  0  0  0  0  0  0  0
  151.9509  142.8560  159.4571 C   0  0  0  0  0  0  0  0  0  0  0  0
  152.3018  144.0492  160.1230 C   0  0  0  0  0  0  0  0  0  0  0  0
  151.8283  145.2815  159.6262 C   0  0  0  0  0  0  0  0  0  0  0  0
  151.0153  145.2893  158.4744 C   0  0  0  0  0  0  0  0  0  0  0  0
  150.7010  144.1250  157.8649 N   0  3  0  0  0  0  0  0  0  0  0  0
  148.7896  137.9546  155.5103 C   0  0  0  0  0  0  0  0  0  0  0  0
  148.2553  139.0374  155.2666 O   0  0  0  0  0  0  0  0  0  0  0  0
  149.2705  138.8265  158.1703 H   0  0  0  0  0  0  0  0  0  0  0  0
  149.8828  137.2256  158.5778 H   0  0  0  0  0  0  0  0  0  0  0  0
  148.7230  138.0153  159.6287 H   0  0  0  0  0  0  0  0  0  0  0  0
  147.5906  136.2807  158.3296 H   0  0  0  0  0  0  0  0  0  0  0  0
  146.3260  138.2822  158.9514 H   0  0  0  0  0  0  0  0  0  0  0  0
  146.7655  139.0821  157.4686 H   0  0  0  0  0  0  0  0  0  0  0  0
  145.0760  136.5500  157.7350 H   0  0  0  0  0  0  0  0  0  0  0  0
  144.4987  138.1336  157.2728 H   0  0  0  0  0  0  0  0  0  0  0  0
  144.8053  136.6442  155.2890 H   0  0  0  0  0  0  0  0  0  0  0  0
  145.8074  138.0656  155.1833 H   0  0  0  0  0  0  0  0  0  0  0  0
  146.6685  135.2681  156.0561 H   0  0  0  0  0  0  0  0  0  0  0  0
  147.1100  136.0544  154.5682 H   0  0  0  0  0  0  0  0  0  0  0  0
  151.7162  137.7149  153.8941 H   0  0  0  0  0  0  0  0  0  0  0  0
  150.3830  138.7275  153.4233 H   0  0  0  0  0  0  0  0  0  0  0  0
  149.7911  140.4868  155.0370 H   0  0  0  0  0  0  0  0  0  0  0  0
  152.2325  141.8815  155.9864 H   0  0  0  0  0  0  0  0  0  0  0  0
  150.6926  142.6010  155.5745 H   0  0  0  0  0  0  0  0  0  0  0  0
  149.6391  141.5642  157.6087 H   0  0  0  0  0  0  0  0  0  0  0  0
  151.1555  140.8067  158.0253 H   0  0  0  0  0  0  0  0  0  0  0  0
  152.3073  141.9038  159.8235 H   0  0  0  0  0  0  0  0  0  0  0  0
  152.9272  144.0194  161.0033 H   0  0  0  0  0  0  0  0  0  0  0  0
  152.0850  146.2065  160.1212 H   0  0  0  0  0  0  0  0  0  0  0  0
  150.6095  146.1843  158.0257 H   0  0  0  0  0  0  0  0  0  0  0  0
  150.1112  144.1551  157.0329 H   0  0  0  0  0  0  0  0  0  0  0  0
  1  2  1  0  0  0  0
  1 26  1  0  0  0  0
  1 27  1  0  0  0  0
  1 28  1  0  0  0  0
  2  7  1  0  0  0  0
  2  3  1  0  0  0  0
  2 29  1  0  0  0  0
  3  4  1  0  0  0  0
  3 30  1  0  0  0  0
  3 31  1  0  0  0  0
  4  5  1  0  0  0  0
  4 32  1  0  0  0  0
  4 33  1  0  0  0  0
  5  6  1  0  0  0  0
  5 34  1  0  0  0  0
  5 35  1  0  0  0  0
  6  7  1  0  0  0  0
  6 36  1  0  0  0  0
  6 37  1  0  0  0  0
  7 24  1  0  0  0  0
  7  8  1  0  0  0  0
  8  9  1  0  0  0  0
  9 10  2  0  0  0  0
  9 11  1  0  0  0  0
 11 12  1  0  0  0  0
 11 24  1  0  0  0  0
 12 13  1  0  0  0  0
 12 38  1  0  0  0  0
 12 39  1  0  0  0  0
 13 14  2  0  0  0  0
 13 15  1  0  0  0  0
 15 16  1  0  0  0  0
 15 40  1  0  0  0  0
 16 17  1  0  0  0  0
 16 41  1  0  0  0  0
 16 42  1  0  0  0  0
 17 18  1  0  0  0  0
 17 43  1  0  0  0  0
 17 44  1  0  0  0  0
 18 23  1  0  0  0  0
 18 19  2  0  0  0  0
 19 20  1  0  0  0  0
 19 45  1  0  0  0  0
 20 21  2  0  0  0  0
 20 46  1  0  0  0  0
 21 22  1  0  0  0  0
 21 47  1  0  0  0  0
 22 23  2  0  0  0  0
 22 48  1  0  0  0  0
 23 49  1  0  0  0  0
 24 25  2  0  0  0  0
M  CHG  1   8  -1
M  CHG  1  23   1
M  END
> <s_m_source_file>
AV-unprocessed.smi

> <i_m_source_file_index>
2973

> <i_lp_mmshare_version>
43012

> <i_f3d_flags>
0

> <s_epik_input>
W0NIMl0xW0NIMl1bQ0gyXVtDSDJdW0NAQEhdKFtDSDNdKVtDQF0xMltOSF1DKD1PKU4oQzI9TylbQ0gyXUMoPU8pW05IXVtDSDJdW0NIMl1jM1tjSF1bY0hdW2NIXVtjSF1uMw==

> <s_epik_cmdline>
J2VwaWtfcHl0aG9uJywgJy1waCcsICc3LjAnLCAnLXRuJywgJzgnLCAnLW1hJywgJzIwMCcsICctbWV0YWxfYmluZGluZycsICctaW1hZScsICc8aW5maWxlLm1hZT4nLCAnLW9tYWUnLCAnPG91dGZpbGUubWFlPic=

> <r_lp_tautomer_probability>
1

> <r_epik_Ionization_Penalty>
7.89073

> <r_epik_Ionization_Penalty_Charging>
7.89073

> <r_epik_Ionization_Penalty_Neutral>
1.56557e-07

> <r_epik_State_Penalty>
8.01193

> <r_epik_Charging_Adjusted_Penalty>
15.9027

> <i_epik_Tot_Q>
0

> <i_epik_Tot_abs_Q>
2

> <r_epik_Metal_State_Penalty>
3.98737

> <b_epik_Metal_Only>
1

> <s_lp_Force_Field>
OPLS_2005

> <r_lp_Energy>
17.432

> <b_lp_Chiralities_Consistent>
1

> <s_lp_Variant>
AV-unprocessed.smi:2973-16

> <Gold.Version>
5.8.1

> <Gold.Id.Protein>
6NUR|6NUR_protein|mol2

> <Gold.PLP.Fitness>
47.9720

> <Gold.PLP.PLP>
-36.7948

> <Gold.PLP.part.hbond>
-3.3695

> <Gold.PLP.part.metal>
0.0000

> <Gold.PLP.part.buried>
-6.0039

> <Gold.PLP.part.nonpolar>
-26.8650

> <Gold.PLP.part.repulsive>
0.4318

> <Gold.PLP.ligand.clash>
0.0000

> <Gold.PLP.ligand.torsion>
0.4226

> <Gold.PLP.Chemscore.Hbond>
4.0000

> <Gold.PLP.Chemscore.CHOScore>
0.0000

> <Gold.PLP.Chemscore.Metal>
0.0000

> <Gold.Chemscore.Hbonds>
donor molecule, donor type, donor heavy atom, donor atom, acceptor molecule, acceptor atom, score
      L1  H    23    49       P1  8028  2.00
      P1  H  7997  8008       L1    14  1.00
      P1  H 10752 10763       L1    10  1.00

> <Gold.PLP.Chemscore.Internal.Correction>
0.0223

> <Gold.Rescore>
     Score         DG    S(hbond)    S(metal)    S(lipo)     H(rot)  DE(clash)    DE(int)     intcor
     18.36     -20.19       2.91        0.00      84.75       1.92       0.15       1.68       ----

> <Gold.Chemscore.Fitness>
18.3551

> <Gold.Chemscore.DG>
-20.1900

> <Gold.Chemscore.ZeroCoef>
-5.4800

> <Gold.Chemscore.Hbond>
2.9051

> <Gold.Chemscore.Metal>
0.0000

> <Gold.Chemscore.Lipo>
84.7504

> <Gold.Chemscore.Internal_Hbond>
0.0000

> <Gold.Chemscore.DEClash>
0.1529

> <Gold.Chemscore.DEInternal>
1.6820

> <Gold.Chemscore.Rot>
1.9175

> <Gold.Chemscore.Internal.Correction>
   9.000000E+99

> <Gold.Chemscore.Hbonds>
donor molecule, donor type, donor heavy atom, donor atom, acceptor molecule, acceptor atom, score
      L1  H    23    49       P1  8028  0.88
      P1  H  7997  8008       L1    14  0.99
      P1  H 10752 10763       L1    10  1.00

> <Gold.Chemscore.Hbond.Weighted>
-9.7030

> <Gold.Chemscore.Metal.Weighted>
-0.0000

> <Gold.Chemscore.Lipo.Weighted>
-9.9158

> <Gold.Chemscore.Internal_Hbond.Weighted>
0.0000

> <Gold.Chemscore.DEClash.Weighted>
0.1529

> <Gold.Chemscore.DEInternal.Weighted>
1.6820

> <Gold.Chemscore.Rot.Weighted>
4.9087

> <Gold.Chemscore.Internal.Correction.Weighted>
   9.000000E+99

> <Gold.Protein.RotatedTorsions>
[ 6907 6896 6895 6894 ] final   -1.20 input  -60.11 | X-H torsion
[ 7974 7965 7964 7962 ] final  -79.61 input  175.53 | X-H torsion
[ 8008 7997 7996 7995 ] final  -37.41 input   59.86 | X-H torsion
[ 10167 10162 10161 10158 ] final -147.45 input  -65.29 | X-H torsion
[ 10718 10713 10712 10709 ] final  134.33 input   66.30 | X-H torsion
[ 10763 10752 10751 10750 ] final   72.26 input  -60.55 | X-H torsion
[ 11005 11000 10999 10996 ] final  -73.03 input  -57.11 | X-H torsion

> <Gold.Protein.ActiveResidues>
 VAL166  LYS551  ARG553  GLY616  TRP617  ASP618  TYR619  PRO620  LYS621  CYS622 
 ASP623  PHE694  ASN695  SER759  ASP760  ASP761  ALA762  ILE779  LEU786  VAL792 
 PHE793  MET794  SER795  GLU796  ALA797  LYS798  CYS799  TRP800  GLU811  SER814 

> <Gold.Protein.RotatedAtoms>
  151.5500  135.1067  159.9947 H   0  0  0  0  0  0  0  0  0  0  0  0  # atno 6907 bound_to 6896
  152.4496  133.7599  159.6751 H   0  0  0  0  0  0  0  0  0  0  0  0  # atno 6908 bound_to 6896
  150.8420  133.7853  159.3081 H   0  0  0  0  0  0  0  0  0  0  0  0  # atno 6909 bound_to 6896
  145.5709  140.9466  143.1396 H   0  0  0  0  0  0  0  0  0  0  0  0  # atno 7974 bound_to 7965
  154.4054  140.1605  156.2532 H   0  0  0  0  0  0  0  0  0  0  0  0  # atno 8008 bound_to 7997
  155.9101  140.3428  155.6069 H   0  0  0  0  0  0  0  0  0  0  0  0  # atno 8009 bound_to 7997
  155.7346  140.0785  157.2264 H   0  0  0  0  0  0  0  0  0  0  0  0  # atno 8010 bound_to 7997
  139.7621  143.8362  152.2609 H   0  0  0  0  0  0  0  0  0  0  0  0  # atno 10167 bound_to 10162
  157.4683  131.1078  150.9834 H   0  0  0  0  0  0  0  0  0  0  0  0  # atno 10718 bound_to 10713
  153.0448  135.5106  154.7718 H   0  0  0  0  0  0  0  0  0  0  0  0  # atno 10763 bound_to 10752
  154.6626  135.2941  154.9849 H   0  0  0  0  0  0  0  0  0  0  0  0  # atno 10764 bound_to 10752
  154.0694  135.6679  153.4875 H   0  0  0  0  0  0  0  0  0  0  0  0  # atno 10765 bound_to 10752
  141.1617  133.6865  156.7150 H   0  0  0  0  0  0  0  0  0  0  0  0  # atno 11005 bound_to 11000
  144.7438  139.7375  143.7300 LP  0  0  0  0  0  0  0  0  0  0  0  0  # atno 17320 bound_to 7965
  146.1785  139.4966  142.9882 LP  0  0  0  0  0  0  0  0  0  0  0  0  # atno 17321 bound_to 7965
  139.8371  144.7227  150.9377 LP  0  0  0  0  0  0  0  0  0  0  0  0  # atno 17342 bound_to 10162
  140.7808  143.4017  151.1138 LP  0  0  0  0  0  0  0  0  0  0  0  0  # atno 17343 bound_to 10162
  157.0608  130.5825  149.5385 LP  0  0  0  0  0  0  0  0  0  0  0  0  # atno 17370 bound_to 10713
  156.0061  130.5148  150.7834 LP  0  0  0  0  0  0  0  0  0  0  0  0  # atno 17371 bound_to 10713
  140.2859  134.8279  157.3974 LP  0  0  0  0  0  0  0  0  0  0  0  0  # atno 17394 bound_to 11000
  140.1391  134.4995  155.8045 LP  0  0  0  0  0  0  0  0  0  0  0  0  # atno 17395 bound_to 11000

$$$$
