AV-unprocessed.smi:1|AV-procd|sdf|24|dock9
  -GOLD-   2262015133D 1   1.00000     0.00000
 Structure written by MMmdl.
 56 61  0  0  0  0  0  0  0  0  2 V2000
  152.9119  140.1394  158.4777 O   0  0  0  0  0  0  0  0  0  0  0  0
  152.2582  141.0802  158.0218 C   0  0  0  0  0  0  0  0  0  0  0  0
  151.6577  141.1676  156.8080 N   0  5  0  0  0  0  0  0  0  0  0  0
  151.1063  140.0774  156.2536 C   0  0  0  0  0  0  0  0  0  0  0  0
  151.0217  139.9610  154.9038 N   0  0  0  0  0  0  0  0  0  0  0  0
  150.4620  138.8778  154.3528 C   0  0  0  0  0  0  0  0  0  0  0  0
  149.9243  137.8123  154.9537 N   0  0  0  0  0  0  0  0  0  0  0  0
  149.9984  137.9187  156.3130 C   0  0  0  0  0  0  0  0  0  0  0  0
  150.5671  139.0134  157.0273 C   0  0  0  0  0  0  0  0  0  0  0  0
  150.4770  138.8092  158.3963 N   0  0  0  0  0  0  0  0  0  0  0  0
  149.8762  137.6230  158.4517 C   0  0  0  0  0  0  0  0  0  0  0  0
  149.5631  137.0289  157.2835 N   0  0  0  0  0  0  0  0  0  0  0  0
  148.9045  135.6998  157.0970 C   0  0  1  0  0  0  0  0  0  0  0  0
  149.6028  134.7448  157.8324 O   0  0  0  0  0  0  0  0  0  0  0  0
  148.7100  133.7324  158.2807 C   0  0  2  0  0  0  0  0  0  0  0  0
  148.5560  132.6673  157.1834 C   0  0  0  0  0  0  0  0  0  0  0  0
  149.6281  131.7445  157.2792 O   0  0  0  0  0  0  0  0  0  0  0  0
  149.9112  130.9276  156.2461 C   0  0  0  0  0  0  0  0  0  0  0  0
  149.0672  130.5278  155.4413 O   0  0  0  0  0  0  0  0  0  0  0  0
  151.3544  130.5574  156.1784 C   0  0  0  0  0  0  0  0  0  0  0  0
  151.7724  129.5621  155.2645 C   0  0  0  0  0  0  0  0  0  0  0  0
  153.1283  129.1904  155.1792 C   0  0  0  0  0  0  0  0  0  0  0  0
  154.0828  129.8092  156.0072 C   0  0  0  0  0  0  0  0  0  0  0  0
  153.6800  130.8016  156.9197 C   0  0  0  0  0  0  0  0  0  0  0  0
  152.3245  131.1751  157.0060 C   0  0  0  0  0  0  0  0  0  0  0  0
  147.4111  134.4931  158.5520 C   0  0  1  0  0  0  0  0  0  0  0  0
  147.4007  134.9729  159.8846 O   0  0  0  0  0  0  0  0  0  0  0  0
  146.8050  136.5313  159.8749 S   0  0  0  0  0  0  0  0  0  0  0  0
  145.3505  136.4630  160.0842 O   0  0  0  0  0  0  0  0  0  0  0  0
  147.6811  137.3762  160.6998 O   0  0  0  0  0  0  0  0  0  0  0  0
  147.0778  136.8840  158.2657 O   0  0  0  0  0  0  0  0  0  0  0  0
  147.4453  135.6905  157.5870 C   0  0  1  0  0  0  0  0  0  0  0  0
  152.1294  142.3376  158.8393 C   0  0  0  0  0  0  0  0  0  0  0  0
  152.8262  142.4515  160.0642 C   0  0  0  0  0  0  0  0  0  0  0  0
  152.6990  143.6096  160.8559 C   0  0  0  0  0  0  0  0  0  0  0  0
  151.8660  144.6633  160.4355 C   0  0  0  0  0  0  0  0  0  0  0  0
  151.1562  144.5558  159.2249 C   0  0  0  0  0  0  0  0  0  0  0  0
  151.2830  143.3981  158.4325 C   0  0  0  0  0  0  0  0  0  0  0  0
  150.4408  138.8634  153.2734 H   0  0  0  0  0  0  0  0  0  0  0  0
  149.6552  137.1539  159.3992 H   0  0  0  0  0  0  0  0  0  0  0  0
  148.9939  135.4899  156.0300 H   0  0  0  0  0  0  0  0  0  0  0  0
  149.0868  133.2665  159.1922 H   0  0  0  0  0  0  0  0  0  0  0  0
  147.6188  132.1256  157.3173 H   0  0  0  0  0  0  0  0  0  0  0  0
  148.5275  133.1299  156.1957 H   0  0  0  0  0  0  0  0  0  0  0  0
  151.0575  129.0725  154.6188 H   0  0  0  0  0  0  0  0  0  0  0  0
  153.4357  128.4294  154.4772 H   0  0  0  0  0  0  0  0  0  0  0  0
  155.1222  129.5231  155.9424 H   0  0  0  0  0  0  0  0  0  0  0  0
  154.4117  131.2778  157.5556 H   0  0  0  0  0  0  0  0  0  0  0  0
  152.0496  131.9409  157.7169 H   0  0  0  0  0  0  0  0  0  0  0  0
  146.5262  133.8724  158.4063 H   0  0  0  0  0  0  0  0  0  0  0  0
  146.7911  135.5299  156.7296 H   0  0  0  0  0  0  0  0  0  0  0  0
  153.4686  141.6510  160.4019 H   0  0  0  0  0  0  0  0  0  0  0  0
  153.2408  143.6880  161.7867 H   0  0  0  0  0  0  0  0  0  0  0  0
  151.7683  145.5511  161.0424 H   0  0  0  0  0  0  0  0  0  0  0  0
  150.5113  145.3605  158.9039 H   0  0  0  0  0  0  0  0  0  0  0  0
  150.7215  143.3316  157.5117 H   0  0  0  0  0  0  0  0  0  0  0  0
  1  2  2  0  0  0  0
  2  3  1  0  0  0  0
  2 33  1  0  0  0  0
  3  4  1  0  0  0  0
  4  9  1  0  0  0  0
  4  5  2  0  0  0  0
  5  6  1  0  0  0  0
  6  7  2  0  0  0  0
  6 39  1  0  0  0  0
  7  8  1  0  0  0  0
  8 12  1  0  0  0  0
  8  9  2  0  0  0  0
  9 10  1  0  0  0  0
 10 11  2  0  0  0  0
 11 12  1  0  0  0  0
 11 40  1  0  0  0  0
 12 13  1  0  0  0  0
 13 32  1  0  0  0  0
 13 14  1  0  0  0  0
 13 41  1  0  0  0  0
 14 15  1  0  0  0  0
 15 16  1  0  0  0  0
 15 26  1  0  0  0  0
 15 42  1  0  0  0  0
 16 17  1  0  0  0  0
 16 43  1  0  0  0  0
 16 44  1  0  0  0  0
 17 18  1  0  0  0  0
 18 19  2  0  0  0  0
 18 20  1  0  0  0  0
 20 25  1  0  0  0  0
 20 21  2  0  0  0  0
 21 22  1  0  0  0  0
 21 45  1  0  0  0  0
 22 23  2  0  0  0  0
 22 46  1  0  0  0  0
 23 24  1  0  0  0  0
 23 47  1  0  0  0  0
 24 25  2  0  0  0  0
 24 48  1  0  0  0  0
 25 49  1  0  0  0  0
 26 32  1  0  0  0  0
 26 27  1  0  0  0  0
 26 50  1  0  0  0  0
 27 28  1  0  0  0  0
 28 29  2  0  0  0  0
 28 30  2  0  0  0  0
 28 31  1  0  0  0  0
 31 32  1  0  0  0  0
 32 51  1  0  0  0  0
 33 38  1  0  0  0  0
 33 34  2  0  0  0  0
 34 35  1  0  0  0  0
 34 52  1  0  0  0  0
 35 36  2  0  0  0  0
 35 53  1  0  0  0  0
 36 37  1  0  0  0  0
 36 54  1  0  0  0  0
 37 38  2  0  0  0  0
 37 55  1  0  0  0  0
 38 56  1  0  0  0  0
M  CHG  1   3  -1
M  END
> <s_m_source_file>
AV-unprocessed.smi

> <i_m_source_file_index>
1

> <i_lp_mmshare_version>
43012

> <i_f3d_flags>
0

> <s_epik_input>
W2NIXTFbY0hdW2NIXVtjSF1bY0hdYzFDKD1PKVtOSF1jKG5bY0hdbjIpYyhjMjMpbltjSF1uM1tDQEBIXShbQ0BIXShbQ0BIXTQ1KU9TKE81KSg9Tyk9TylPW0NASF00W0NIMl1PQyg9TyljNltjSF1bY0hdW2NIXVtjSF1bY0hdNg==

> <s_epik_cmdline>
J2VwaWtfcHl0aG9uJywgJy1waCcsICc3LjAnLCAnLXRuJywgJzgnLCAnLW1hJywgJzIwMCcsICctbWV0YWxfYmluZGluZycsICctaW1hZScsICc8aW5maWxlLm1hZT4nLCAnLW9tYWUnLCAnPG91dGZpbGUubWFlPic=

> <r_lp_tautomer_probability>
1

> <r_epik_Ionization_Penalty>
4.39121

> <r_epik_Ionization_Penalty_Charging>
3.39398

> <r_epik_Ionization_Penalty_Neutral>
0.997232

> <r_epik_State_Penalty>
3.39839

> <r_epik_Charging_Adjusted_Penalty>
6.79237

> <i_epik_Tot_Q>
-1

> <i_epik_Tot_abs_Q>
1

> <r_epik_Metal_State_Penalty>
0.497663

> <b_epik_Metal_Only>
1

> <s_epik_Chemistry_Notes>
This compound has an ester and may undergo hydrolysis at high or low pH. This compound contains an acetal/aminal-like group ( X-CH(R)-Y where X, Y are N, S, or O) that may be acid/base labile, releasing an aldehyde.

> <s_lp_Force_Field>
OPLS_2005

> <r_lp_Energy>
44.7553

> <b_lp_Chiralities_Consistent>
1

> <s_lp_Variant>
AV-unprocessed.smi:1-24

> <Gold.Version>
5.8.1

> <Gold.Id.Protein>
6NUR|6NUR_protein|mol2

> <Gold.PLP.Fitness>
61.7102

> <Gold.PLP.PLP>
-49.5945

> <Gold.PLP.part.hbond>
-5.0000

> <Gold.PLP.part.metal>
0.0000

> <Gold.PLP.part.buried>
-6.5433

> <Gold.PLP.part.nonpolar>
-37.1179

> <Gold.PLP.part.repulsive>
0.2490

> <Gold.PLP.ligand.clash>
0.0000

> <Gold.PLP.ligand.torsion>
1.2220

> <Gold.PLP.Chemscore.Hbond>
3.6838

> <Gold.PLP.Chemscore.CHOScore>
1.0000

> <Gold.PLP.Chemscore.Metal>
0.0000

> <Gold.Chemscore.Hbonds>
donor molecule, donor type, donor heavy atom, donor atom, acceptor molecule, acceptor atom, score
      P1  H  6896  6909       L1    14  0.43
      P1  H  6931  6943       L1    30  0.72
      P1  H  6934  6947       L1    30  0.90
      P1  H  7989  7998       L1     5  1.00
      P1  H  7997  8010       L1     1  0.54
      L1  C     6    39       P1  7957  0.97

> <Gold.PLP.Chemscore.Internal.Correction>
0.5082

> <Gold.Rescore>
     Score         DG    S(hbond)    S(metal)    S(lipo)     H(rot)  DE(clash)    DE(int)     intcor
     17.08     -23.35       3.18        0.00     108.08       2.11       0.17       6.10       ----

> <Gold.Chemscore.Fitness>
17.0823

> <Gold.Chemscore.DG>
-23.3490

> <Gold.Chemscore.ZeroCoef>
-5.4800

> <Gold.Chemscore.Hbond>
3.1838

> <Gold.Chemscore.Metal>
0.0000

> <Gold.Chemscore.Lipo>
108.0844

> <Gold.Chemscore.Internal_Hbond>
0.0000

> <Gold.Chemscore.DEClash>
0.1682

> <Gold.Chemscore.DEInternal>
6.0984

> <Gold.Chemscore.Rot>
2.1136

> <Gold.Chemscore.Internal.Correction>
   9.000000E+99

> <Gold.Chemscore.Hbonds>
donor molecule, donor type, donor heavy atom, donor atom, acceptor molecule, acceptor atom, score
      P1  H  6896  6909       L1    14  0.03
      P1  H  6931  6943       L1    30  0.69
      P1  H  6934  6947       L1    30  0.83
      P1  H  7989  7998       L1     5  0.45
      P1  H  7997  8010       L1     1  0.13

> <Gold.Chemscore.Hbond.Weighted>
-10.6339

> <Gold.Chemscore.Metal.Weighted>
-0.0000

> <Gold.Chemscore.Lipo.Weighted>
-12.6459

> <Gold.Chemscore.Internal_Hbond.Weighted>
0.0000

> <Gold.Chemscore.DEClash.Weighted>
0.1682

> <Gold.Chemscore.DEInternal.Weighted>
6.0984

> <Gold.Chemscore.Rot.Weighted>
5.4107

> <Gold.Chemscore.Internal.Correction.Weighted>
   9.000000E+99

> <Gold.Protein.RotatedTorsions>
[ 6907 6896 6895 6894 ] final   54.35 input  -60.11 | X-H torsion
[ 7974 7965 7964 7962 ] final  -48.49 input  175.53 | X-H torsion
[ 8008 7997 7996 7995 ] final   37.97 input   59.86 | X-H torsion
[ 10167 10162 10161 10158 ] final -163.31 input  -65.29 | X-H torsion
[ 10718 10713 10712 10709 ] final  -15.60 input   66.30 | X-H torsion
[ 10763 10752 10751 10750 ] final   94.59 input  -60.55 | X-H torsion
[ 11005 11000 10999 10996 ] final  118.35 input  -57.11 | X-H torsion

> <Gold.Protein.ActiveResidues>
 VAL166  LYS551  ARG553  GLY616  TRP617  ASP618  TYR619  PRO620  LYS621  CYS622 
 ASP623  PHE694  ASN695  SER759  ASP760  ASP761  ALA762  ILE779  LEU786  VAL792 
 PHE793  MET794  SER795  GLU796  ALA797  LYS798  CYS799  TRP800  GLU811  SER814 

> <Gold.Protein.RotatedAtoms>
  152.3430  134.7109  160.0258 H   0  0  0  0  0  0  0  0  0  0  0  0  # atno 6907 bound_to 6896
  151.7488  133.3321  159.3394 H   0  0  0  0  0  0  0  0  0  0  0  0  # atno 6908 bound_to 6896
  150.7491  134.6143  159.6147 H   0  0  0  0  0  0  0  0  0  0  0  0  # atno 6909 bound_to 6896
  145.9506  140.7576  142.9506 H   0  0  0  0  0  0  0  0  0  0  0  0  # atno 7974 bound_to 7965
  155.2126  140.3324  155.4327 H   0  0  0  0  0  0  0  0  0  0  0  0  # atno 8008 bound_to 7997
  156.2365  140.1874  156.7155 H   0  0  0  0  0  0  0  0  0  0  0  0  # atno 8009 bound_to 7997
  154.6068  140.0615  156.9427 H   0  0  0  0  0  0  0  0  0  0  0  0  # atno 8010 bound_to 7997
  139.6330  144.0403  152.2031 H   0  0  0  0  0  0  0  0  0  0  0  0  # atno 10167 bound_to 10162
  156.5994  130.4820  149.6246 H   0  0  0  0  0  0  0  0  0  0  0  0  # atno 10718 bound_to 10713
  153.2434  135.4284  155.0721 H   0  0  0  0  0  0  0  0  0  0  0  0  # atno 10763 bound_to 10752
  154.8350  135.3408  154.6617 H   0  0  0  0  0  0  0  0  0  0  0  0  # atno 10764 bound_to 10752
  153.7040  135.7026  153.5112 H   0  0  0  0  0  0  0  0  0  0  0  0  # atno 10765 bound_to 10752
  139.9106  134.9619  156.7490 H   0  0  0  0  0  0  0  0  0  0  0  0  # atno 11005 bound_to 11000
  144.6795  140.2429  143.7341 LP  0  0  0  0  0  0  0  0  0  0  0  0  # atno 17320 bound_to 7965
  145.8176  139.2030  143.1956 LP  0  0  0  0  0  0  0  0  0  0  0  0  # atno 17321 bound_to 7965
  140.0074  144.6249  150.7677 LP  0  0  0  0  0  0  0  0  0  0  0  0  # atno 17342 bound_to 10162
  140.7450  143.2868  151.3440 LP  0  0  0  0  0  0  0  0  0  0  0  0  # atno 17343 bound_to 10162
  156.2482  130.6891  151.1620 LP  0  0  0  0  0  0  0  0  0  0  0  0  # atno 17370 bound_to 10713
  157.7283  131.0632  150.5825 LP  0  0  0  0  0  0  0  0  0  0  0  0  # atno 17371 bound_to 10713
  140.6789  133.9492  155.7899 LP  0  0  0  0  0  0  0  0  0  0  0  0  # atno 17394 bound_to 11000
  141.0524  134.0465  157.3766 LP  0  0  0  0  0  0  0  0  0  0  0  0  # atno 17395 bound_to 11000

$$$$
