AV-unprocessed.smi:1456|AV-procd|sdf|5917|dock1
  -GOLD-   22720 6 03D 1   1.00000     0.00000
 Structure written by MMmdl.
 42 43  0  0  0  0  0  0  0  0  2 V2000
  147.1676  139.5292  155.1647 C   0  0  0  0  0  0  0  0  0  0  0  0
  147.8864  138.7995  154.0085 C   0  0  0  0  0  0  0  0  0  0  0  0
  146.8704  138.6958  152.8545 C   0  0  0  0  0  0  0  0  0  0  0  0
  149.1177  139.5838  153.4904 C   0  0  0  0  0  0  0  0  0  0  0  0
  150.3878  139.4532  154.3530 C   0  0  0  0  0  0  0  0  0  0  0  0
  150.3517  140.2494  155.5780 N   0  0  0  0  0  0  0  0  0  0  0  0
  151.3954  140.4793  156.3884 C   0  0  0  0  0  0  0  0  0  0  0  0
  152.5241  140.0330  156.1827 O   0  0  0  0  0  0  0  0  0  0  0  0
  151.0413  141.2526  157.4295 N   0  0  0  0  0  0  0  0  0  0  0  0
  151.8633  141.7366  158.4809 C   0  0  0  0  0  0  0  0  0  0  0  0
  152.9541  141.1091  158.9358 N   0  0  0  0  0  0  0  0  0  0  0  0
  153.5712  141.8145  159.9719 C   0  0  0  0  0  0  0  0  0  0  0  0
  152.9321  142.9858  160.2949 C   0  0  0  0  0  0  0  0  0  0  0  0
  151.5211  143.2503  159.3056 S   0  0  0  0  0  0  0  0  0  0  0  0
  150.6883  137.9720  154.6343 C   0  0  0  0  0  0  0  0  0  0  0  0
  149.4914  137.1447  155.1714 C   0  0  0  0  0  0  0  0  0  0  0  0
  149.8266  135.6516  154.9894 C   0  0  0  0  0  0  0  0  0  0  0  0
  149.2571  137.3618  156.6829 C   0  0  0  0  0  0  0  0  0  0  0  0
  148.2536  137.4047  154.3829 N   0  3  0  0  0  0  0  0  0  0  0  0
  146.7549  140.4801  154.8255 H   0  0  0  0  0  0  0  0  0  0  0  0
  147.8136  139.7669  156.0031 H   0  0  0  0  0  0  0  0  0  0  0  0
  146.3372  138.9368  155.5505 H   0  0  0  0  0  0  0  0  0  0  0  0
  146.5621  139.6820  152.5047 H   0  0  0  0  0  0  0  0  0  0  0  0
  145.9701  138.1615  153.1612 H   0  0  0  0  0  0  0  0  0  0  0  0
  147.2877  138.1632  151.9988 H   0  0  0  0  0  0  0  0  0  0  0  0
  149.3735  139.2075  152.4987 H   0  0  0  0  0  0  0  0  0  0  0  0
  148.8600  140.6324  153.3358 H   0  0  0  0  0  0  0  0  0  0  0  0
  151.2246  139.8398  153.7680 H   0  0  0  0  0  0  0  0  0  0  0  0
  149.4614  140.6519  155.8319 H   0  0  0  0  0  0  0  0  0  0  0  0
  150.0737  141.5362  157.4720 H   0  0  0  0  0  0  0  0  0  0  0  0
  154.4645  141.4090  160.4234 H   0  0  0  0  0  0  0  0  0  0  0  0
  153.2047  143.7061  161.0518 H   0  0  0  0  0  0  0  0  0  0  0  0
  151.0150  137.5327  153.6902 H   0  0  0  0  0  0  0  0  0  0  0  0
  151.5451  137.8809  155.3038 H   0  0  0  0  0  0  0  0  0  0  0  0
  150.7406  135.3803  155.5195 H   0  0  0  0  0  0  0  0  0  0  0  0
  149.9727  135.3977  153.9386 H   0  0  0  0  0  0  0  0  0  0  0  0
  149.0275  135.0129  155.3684 H   0  0  0  0  0  0  0  0  0  0  0  0
  150.1130  137.0125  157.2614 H   0  0  0  0  0  0  0  0  0  0  0  0
  148.3853  136.8065  157.0308 H   0  0  0  0  0  0  0  0  0  0  0  0
  149.1113  138.4004  156.9601 H   0  0  0  0  0  0  0  0  0  0  0  0
  147.4691  136.9731  154.8502 H   0  0  0  0  0  0  0  0  0  0  0  0
  148.3899  136.9218  153.5063 H   0  0  0  0  0  0  0  0  0  0  0  0
  1  2  1  0  0  0  0
  1 20  1  0  0  0  0
  1 21  1  0  0  0  0
  1 22  1  0  0  0  0
  2 19  1  0  0  0  0
  2  3  1  0  0  0  0
  2  4  1  0  0  0  0
  3 23  1  0  0  0  0
  3 24  1  0  0  0  0
  3 25  1  0  0  0  0
  4  5  1  0  0  0  0
  4 26  1  0  0  0  0
  4 27  1  0  0  0  0
  5  6  1  0  0  0  0
  5 15  1  0  0  0  0
  5 28  1  0  0  0  0
  6  7  1  0  0  0  0
  6 29  1  0  0  0  0
  7  8  2  0  0  0  0
  7  9  1  0  0  0  0
  9 10  1  0  0  0  0
  9 30  1  0  0  0  0
 10 14  1  0  0  0  0
 10 11  2  0  0  0  0
 11 12  1  0  0  0  0
 12 13  2  0  0  0  0
 12 31  1  0  0  0  0
 13 14  1  0  0  0  0
 13 32  1  0  0  0  0
 15 16  1  0  0  0  0
 15 33  1  0  0  0  0
 15 34  1  0  0  0  0
 16 17  1  0  0  0  0
 16 18  1  0  0  0  0
 16 19  1  0  0  0  0
 17 35  1  0  0  0  0
 17 36  1  0  0  0  0
 17 37  1  0  0  0  0
 18 38  1  0  0  0  0
 18 39  1  0  0  0  0
 18 40  1  0  0  0  0
 19 41  1  0  0  0  0
 19 42  1  0  0  0  0
M  CHG  1  19   1
M  END
> <s_m_source_file>
AV-unprocessed.smi

> <i_m_source_file_index>
1456

> <i_lp_mmshare_version>
43012

> <i_f3d_flags>
0

> <s_epik_input>
W0NIM11DMShbQ0gzXSlbQ0gyXVtDSF0oW0NIMl1DKFtDSDNdKShbQ0gzXSlbTkhdMSlbTkhdQyg9TylbTkhdYzJuW2NIXVtjSF1zMg==

> <s_epik_cmdline>
J2VwaWtfcHl0aG9uJywgJy1waCcsICc3LjAnLCAnLXRuJywgJzgnLCAnLW1hJywgJzIwMCcsICctbWV0YWxfYmluZGluZycsICctaW1hZScsICc8aW5maWxlLm1hZT4nLCAnLW9tYWUnLCAnPG91dGZpbGUubWFlPic=

> <r_lp_tautomer_probability>
1

> <r_epik_Ionization_Penalty>
0.000374891

> <r_epik_Ionization_Penalty_Charging>
0.000101406

> <r_epik_Ionization_Penalty_Neutral>
0.000273485

> <r_epik_State_Penalty>
-0

> <r_epik_Charging_Adjusted_Penalty>
0.000101406

> <i_epik_Tot_Q>
1

> <i_epik_Tot_abs_Q>
1

> <r_epik_Metal_State_Penalty>
0.0101225

> <b_epik_Metal_Only>
0

> <s_lp_Force_Field>
OPLS_2005

> <r_lp_Energy>
24.6198

> <b_lp_Chiralities_Consistent>
1

> <s_lp_Variant>
AV-unprocessed.smi:1456-1

> <Gold.Version>
5.8.1

> <Gold.Id.Protein>
6NUR|6NUR_protein|mol2

> <Gold.PLP.Fitness>
37.1875

> <Gold.PLP.PLP>
-28.6596

> <Gold.PLP.part.hbond>
-2.0000

> <Gold.PLP.part.metal>
0.0000

> <Gold.PLP.part.buried>
1.1178

> <Gold.PLP.part.nonpolar>
-27.6224

> <Gold.PLP.part.repulsive>
0.1453

> <Gold.PLP.ligand.clash>
0.0000

> <Gold.PLP.ligand.torsion>
0.2448

> <Gold.PLP.Chemscore.Hbond>
3.0000

> <Gold.PLP.Chemscore.CHOScore>
0.0000

> <Gold.PLP.Chemscore.Metal>
0.0000

> <Gold.Chemscore.Hbonds>
donor molecule, donor type, donor heavy atom, donor atom, acceptor molecule, acceptor atom, score
      L1  H    19    42       P1  7948  2.00
      P1  H  7997  8009       L1     8  1.00

> <Gold.PLP.Chemscore.Internal.Correction>
0.0176

> <Gold.Rescore>
     Score         DG    S(hbond)    S(metal)    S(lipo)     H(rot)  DE(clash)    DE(int)     intcor
     15.73     -18.88       2.00        0.00      79.31       1.00       1.83       1.32       ----

> <Gold.Chemscore.Fitness>
15.7252

> <Gold.Chemscore.DG>
-18.8779

> <Gold.Chemscore.ZeroCoef>
-5.4800

> <Gold.Chemscore.Hbond>
1.9996

> <Gold.Chemscore.Metal>
0.0000

> <Gold.Chemscore.Lipo>
79.3096

> <Gold.Chemscore.Internal_Hbond>
0.0000

> <Gold.Chemscore.DEClash>
1.8288

> <Gold.Chemscore.DEInternal>
1.3239

> <Gold.Chemscore.Rot>
1.0000

> <Gold.Chemscore.Internal.Correction>
   9.000000E+99

> <Gold.Chemscore.Hbonds>
donor molecule, donor type, donor heavy atom, donor atom, acceptor molecule, acceptor atom, score
      L1  H    19    42       P1  7948  1.00
      P1  H  7997  8009       L1     8  0.99

> <Gold.Chemscore.Hbond.Weighted>
-6.6787

> <Gold.Chemscore.Metal.Weighted>
-0.0000

> <Gold.Chemscore.Lipo.Weighted>
-9.2792

> <Gold.Chemscore.Internal_Hbond.Weighted>
0.0000

> <Gold.Chemscore.DEClash.Weighted>
1.8288

> <Gold.Chemscore.DEInternal.Weighted>
1.3239

> <Gold.Chemscore.Rot.Weighted>
2.5600

> <Gold.Chemscore.Internal.Correction.Weighted>
   9.000000E+99

> <Gold.Protein.RotatedTorsions>
[ 6907 6896 6895 6894 ] final   -0.74 input  -60.11 | X-H torsion
[ 7974 7965 7964 7962 ] final -156.30 input  175.53 | X-H torsion
[ 8008 7997 7996 7995 ] final -149.90 input   59.86 | X-H torsion
[ 10167 10162 10161 10158 ] final  -30.32 input  -65.29 | X-H torsion
[ 10718 10713 10712 10709 ] final  -47.07 input   66.30 | X-H torsion
[ 10763 10752 10751 10750 ] final  145.96 input  -60.55 | X-H torsion
[ 11005 11000 10999 10996 ] final -136.44 input  -57.11 | X-H torsion

> <Gold.Protein.ActiveResidues>
 VAL166  LYS551  ARG553  GLY616  TRP617  ASP618  TYR619  PRO620  LYS621  CYS622 
 ASP623  PHE694  ASN695  SER759  ASP760  ASP761  ALA762  ILE779  LEU786  VAL792 
 PHE793  MET794  SER795  GLU796  ALA797  LYS798  CYS799  TRP800  GLU811  SER814 

> <Gold.Protein.RotatedAtoms>
  151.5574  135.1066  159.9964 H   0  0  0  0  0  0  0  0  0  0  0  0  # atno 6907 bound_to 6896
  152.4463  133.7538  159.6719 H   0  0  0  0  0  0  0  0  0  0  0  0  # atno 6908 bound_to 6896
  150.8379  133.7916  159.3096 H   0  0  0  0  0  0  0  0  0  0  0  0  # atno 6909 bound_to 6896
  144.7600  140.4130  143.5984 H   0  0  0  0  0  0  0  0  0  0  0  0  # atno 7974 bound_to 7965
  155.6149  140.0675  157.2695 H   0  0  0  0  0  0  0  0  0  0  0  0  # atno 8008 bound_to 7997
  154.4244  140.1795  156.1359 H   0  0  0  0  0  0  0  0  0  0  0  0  # atno 8009 bound_to 7997
  156.0055  140.3332  155.6891 H   0  0  0  0  0  0  0  0  0  0  0  0  # atno 8010 bound_to 7997
  140.7250  143.3858  151.1518 H   0  0  0  0  0  0  0  0  0  0  0  0  # atno 10167 bound_to 10162
  156.2120  130.4161  149.9102 H   0  0  0  0  0  0  0  0  0  0  0  0  # atno 10718 bound_to 10713
  154.0141  135.2912  155.3389 H   0  0  0  0  0  0  0  0  0  0  0  0  # atno 10763 bound_to 10752
  154.7086  135.5159  153.8635 H   0  0  0  0  0  0  0  0  0  0  0  0  # atno 10764 bound_to 10752
  153.0710  135.6647  154.0369 H   0  0  0  0  0  0  0  0  0  0  0  0  # atno 10765 bound_to 10752
  140.8804  134.1938  157.4594 H   0  0  0  0  0  0  0  0  0  0  0  0  # atno 11005 bound_to 11000
  145.6652  139.1589  143.2786 LP  0  0  0  0  0  0  0  0  0  0  0  0  # atno 17320 bound_to 7965
  146.1652  140.6729  142.9259 LP  0  0  0  0  0  0  0  0  0  0  0  0  # atno 17321 bound_to 7965
  139.7455  143.8859  152.3062 LP  0  0  0  0  0  0  0  0  0  0  0  0  # atno 17342 bound_to 10162
  139.8695  144.7076  150.9004 LP  0  0  0  0  0  0  0  0  0  0  0  0  # atno 17343 bound_to 10162
  156.6777  130.8845  151.3571 LP  0  0  0  0  0  0  0  0  0  0  0  0  # atno 17370 bound_to 10713
  157.7044  130.9368  150.0883 LP  0  0  0  0  0  0  0  0  0  0  0  0  # atno 17371 bound_to 10713
  139.8719  134.9815  156.5117 LP  0  0  0  0  0  0  0  0  0  0  0  0  # atno 17394 bound_to 11000
  140.8468  133.8163  155.9128 LP  0  0  0  0  0  0  0  0  0  0  0  0  # atno 17395 bound_to 11000

$$$$
