AV-unprocessed.smi:2198|AV-procd|sdf|8920|dock2
  -GOLD-   2272012133D 1   1.00000     0.00000
 Structure written by MMmdl.
 42 43  0  0  0  0  0  0  0  0  2 V2000
  150.6400  134.8134  155.2676 C   0  0  0  0  0  0  0  0  0  0  0  0
  150.5629  136.3100  155.4808 C   0  0  0  0  0  0  0  0  0  0  0  0
  149.5828  136.7966  156.1418 N   0  0  0  0  0  0  0  0  0  0  0  0
  149.5014  138.1861  156.3356 C   0  0  0  0  0  0  0  0  0  0  0  0
  148.3001  138.6766  157.1246 C   0  0  0  0  0  0  0  0  0  0  0  0
  150.4513  139.0259  155.8325 C   0  0  0  0  0  0  0  0  0  0  0  0
  150.4015  140.5446  156.0036 C   0  0  0  0  0  0  0  0  0  0  0  0
  151.3286  141.1425  157.0649 C   0  0  0  0  0  0  0  0  0  0  0  0
  152.0905  140.4254  157.7142 O   0  0  0  0  0  0  0  0  0  0  0  0
  151.2412  142.4702  157.2379 N   0  0  0  0  0  0  0  0  0  0  0  0
  152.0011  143.2439  158.2149 C   0  0  1  0  0  0  0  0  0  0  0  0
  151.4347  144.6727  158.2994 C   0  0  0  0  0  0  0  0  0  0  0  0
  152.1765  145.5025  159.3586 C   0  0  0  0  0  0  0  0  0  0  0  0
  152.1362  144.8158  160.7327 C   0  0  0  0  0  0  0  0  0  0  0  0
  152.7030  143.3848  160.6668 C   0  0  1  0  0  0  0  0  0  0  0  0
  152.6529  142.6984  162.0392 C   0  0  0  0  0  0  0  0  0  0  0  0
  151.9622  142.5590  159.5972 C   0  0  0  0  0  0  0  0  0  0  0  0
  151.5718  138.4235  155.0884 C   0  0  0  0  0  0  0  0  0  0  0  0
  152.4678  139.1337  154.6335 O   0  0  0  0  0  0  0  0  0  0  0  0
  151.5733  137.0686  154.9337 N   0  5  0  0  0  0  0  0  0  0  0  0
  149.9372  134.2879  155.9156 H   0  0  0  0  0  0  0  0  0  0  0  0
  151.6435  134.4474  155.4869 H   0  0  0  0  0  0  0  0  0  0  0  0
  150.4009  134.5698  154.2322 H   0  0  0  0  0  0  0  0  0  0  0  0
  147.6363  139.2574  156.4842 H   0  0  0  0  0  0  0  0  0  0  0  0
  148.6147  139.3021  157.9602 H   0  0  0  0  0  0  0  0  0  0  0  0
  147.7290  137.8416  157.5323 H   0  0  0  0  0  0  0  0  0  0  0  0
  150.5952  141.0431  155.0532 H   0  0  0  0  0  0  0  0  0  0  0  0
  149.3798  140.8256  156.2596 H   0  0  0  0  0  0  0  0  0  0  0  0
  150.5906  142.9802  156.6582 H   0  0  0  0  0  0  0  0  0  0  0  0
  153.0389  143.3116  157.8826 H   0  0  0  0  0  0  0  0  0  0  0  0
  151.5106  145.1643  157.3286 H   0  0  0  0  0  0  0  0  0  0  0  0
  150.3726  144.6371  158.5465 H   0  0  0  0  0  0  0  0  0  0  0  0
  153.2132  145.6449  159.0509 H   0  0  0  0  0  0  0  0  0  0  0  0
  151.7351  146.4971  159.4278 H   0  0  0  0  0  0  0  0  0  0  0  0
  152.7011  145.4084  161.4532 H   0  0  0  0  0  0  0  0  0  0  0  0
  151.1077  144.7890  161.0948 H   0  0  0  0  0  0  0  0  0  0  0  0
  153.7510  143.4518  160.3713 H   0  0  0  0  0  0  0  0  0  0  0  0
  151.6276  142.6058  162.3987 H   0  0  0  0  0  0  0  0  0  0  0  0
  153.2163  143.2643  162.7817 H   0  0  0  0  0  0  0  0  0  0  0  0
  153.0816  141.6970  161.9937 H   0  0  0  0  0  0  0  0  0  0  0  0
  150.9256  142.4107  159.9036 H   0  0  0  0  0  0  0  0  0  0  0  0
  152.4073  141.5652  159.5308 H   0  0  0  0  0  0  0  0  0  0  0  0
  1  2  1  0  0  0  0
  1 21  1  0  0  0  0
  1 22  1  0  0  0  0
  1 23  1  0  0  0  0
  2 20  1  0  0  0  0
  2  3  2  0  0  0  0
  3  4  1  0  0  0  0
  4  5  1  0  0  0  0
  4  6  2  0  0  0  0
  5 24  1  0  0  0  0
  5 25  1  0  0  0  0
  5 26  1  0  0  0  0
  6  7  1  0  0  0  0
  6 18  1  0  0  0  0
  7  8  1  0  0  0  0
  7 27  1  0  0  0  0
  7 28  1  0  0  0  0
  8  9  2  0  0  0  0
  8 10  1  0  0  0  0
 10 11  1  0  0  0  0
 10 29  1  0  0  0  0
 11 17  1  0  0  0  0
 11 12  1  0  0  0  0
 11 30  1  0  0  0  0
 12 13  1  0  0  0  0
 12 31  1  0  0  0  0
 12 32  1  0  0  0  0
 13 14  1  0  0  0  0
 13 33  1  0  0  0  0
 13 34  1  0  0  0  0
 14 15  1  0  0  0  0
 14 35  1  0  0  0  0
 14 36  1  0  0  0  0
 15 16  1  0  0  0  0
 15 17  1  0  0  0  0
 15 37  1  0  0  0  0
 16 38  1  0  0  0  0
 16 39  1  0  0  0  0
 16 40  1  0  0  0  0
 17 41  1  0  0  0  0
 17 42  1  0  0  0  0
 18 19  2  0  0  0  0
 18 20  1  0  0  0  0
M  CHG  1  20  -1
M  END
> <s_m_source_file>
AV-unprocessed.smi

> <i_m_source_file_index>
2198

> <i_lp_mmshare_version>
43012

> <i_f3d_flags>
0

> <s_epik_input>
W0NIM11jMW5jKFtDSDNdKWMoYyg9TylbbkhdMSlbQ0gyXUMoPU8pW05IXVtDQEBIXTJbQ0gyXVtDSDJdW0NIMl1bQ0BASF0oW0NIM10pW0NIMl0y

> <s_epik_cmdline>
J2VwaWtfcHl0aG9uJywgJy1waCcsICc3LjAnLCAnLXRuJywgJzgnLCAnLW1hJywgJzIwMCcsICctbWV0YWxfYmluZGluZycsICctaW1hZScsICc8aW5maWxlLm1hZT4nLCAnLW9tYWUnLCAnPG91dGZpbGUubWFlPic=

> <r_lp_tautomer_probability>
0.839158

> <r_epik_Ionization_Penalty>
6.67193

> <r_epik_Ionization_Penalty_Charging>
7.66837e-08

> <r_epik_Ionization_Penalty_Neutral>
6.67193

> <r_epik_State_Penalty>
4.51643

> <r_epik_Charging_Adjusted_Penalty>
4.51643

> <i_epik_Tot_Q>
-1

> <i_epik_Tot_abs_Q>
1

> <r_epik_Metal_State_Penalty>
0.851582

> <b_epik_Metal_Only>
1

> <s_lp_Force_Field>
OPLS_2005

> <r_lp_Energy>
13.5939

> <b_lp_Chiralities_Consistent>
1

> <s_lp_Variant>
AV-unprocessed.smi:2198-10

> <Gold.Version>
5.8.1

> <Gold.Id.Protein>
6NUR|6NUR_protein|mol2

> <Gold.PLP.Fitness>
46.1512

> <Gold.PLP.PLP>
-39.5494

> <Gold.PLP.part.hbond>
-2.0000

> <Gold.PLP.part.metal>
0.0000

> <Gold.PLP.part.buried>
-6.0571

> <Gold.PLP.part.nonpolar>
-31.1928

> <Gold.PLP.part.repulsive>
0.2554

> <Gold.PLP.ligand.clash>
0.0000

> <Gold.PLP.ligand.torsion>
0.3717

> <Gold.PLP.Chemscore.Hbond>
2.4472

> <Gold.PLP.Chemscore.CHOScore>
0.0000

> <Gold.PLP.Chemscore.Metal>
0.0000

> <Gold.Chemscore.Hbonds>
donor molecule, donor type, donor heavy atom, donor atom, acceptor molecule, acceptor atom, score
      P1  H  7989  7998       L1    19  0.38
      P1  H 10752 10763       L1    20  2.00

> <Gold.PLP.Chemscore.Internal.Correction>
0.0037

> <Gold.Rescore>
     Score         DG    S(hbond)    S(metal)    S(lipo)     H(rot)  DE(clash)    DE(int)     intcor
     16.02     -17.95       1.33        0.00     100.23       1.45       0.29       1.63       ----

> <Gold.Chemscore.Fitness>
16.0247

> <Gold.Chemscore.DG>
-17.9473

> <Gold.Chemscore.ZeroCoef>
-5.4800

> <Gold.Chemscore.Hbond>
1.3292

> <Gold.Chemscore.Metal>
0.0000

> <Gold.Chemscore.Lipo>
100.2303

> <Gold.Chemscore.Internal_Hbond>
0.0000

> <Gold.Chemscore.DEClash>
0.2920

> <Gold.Chemscore.DEInternal>
1.6306

> <Gold.Chemscore.Rot>
1.4450

> <Gold.Chemscore.Internal.Correction>
   9.000000E+99

> <Gold.Chemscore.Hbonds>
donor molecule, donor type, donor heavy atom, donor atom, acceptor molecule, acceptor atom, score
      P1  H  7989  7998       L1    19  0.33
      P1  H 10752 10763       L1    20  0.28

> <Gold.Chemscore.Hbond.Weighted>
-4.4396

> <Gold.Chemscore.Metal.Weighted>
-0.0000

> <Gold.Chemscore.Lipo.Weighted>
-11.7269

> <Gold.Chemscore.Internal_Hbond.Weighted>
0.0000

> <Gold.Chemscore.DEClash.Weighted>
0.2920

> <Gold.Chemscore.DEInternal.Weighted>
1.6306

> <Gold.Chemscore.Rot.Weighted>
3.6992

> <Gold.Chemscore.Internal.Correction.Weighted>
   9.000000E+99

> <Gold.Protein.RotatedTorsions>
[ 6907 6896 6895 6894 ] final    3.73 input  -60.11 | X-H torsion
[ 7974 7965 7964 7962 ] final  170.71 input  175.53 | X-H torsion
[ 8008 7997 7996 7995 ] final   58.49 input   59.86 | X-H torsion
[ 10167 10162 10161 10158 ] final   93.18 input  -65.29 | X-H torsion
[ 10718 10713 10712 10709 ] final  129.06 input   66.30 | X-H torsion
[ 10763 10752 10751 10750 ] final   53.90 input  -60.55 | X-H torsion
[ 11005 11000 10999 10996 ] final  132.26 input  -57.11 | X-H torsion

> <Gold.Protein.ActiveResidues>
 VAL166  LYS551  ARG553  GLY616  TRP617  ASP618  TYR619  PRO620  LYS621  CYS622 
 ASP623  PHE694  ASN695  SER759  ASP760  ASP761  ALA762  ILE779  LEU786  VAL792 
 PHE793  MET794  SER795  GLU796  ALA797  LYS798  CYS799  TRP800  GLU811  SER814 

> <Gold.Protein.RotatedAtoms>
  151.6298  135.1024  160.0119 H   0  0  0  0  0  0  0  0  0  0  0  0  # atno 6907 bound_to 6896
  152.4112  133.6963  159.6408 H   0  0  0  0  0  0  0  0  0  0  0  0  # atno 6908 bound_to 6896
  150.8003  133.8537  159.3253 H   0  0  0  0  0  0  0  0  0  0  0  0  # atno 6909 bound_to 6896
  144.7316  139.9243  143.6421 H   0  0  0  0  0  0  0  0  0  0  0  0  # atno 7974 bound_to 7965
  155.5509  140.3486  155.4468 H   0  0  0  0  0  0  0  0  0  0  0  0  # atno 8008 bound_to 7997
  156.0584  140.1334  156.9996 H   0  0  0  0  0  0  0  0  0  0  0  0  # atno 8009 bound_to 7997
  154.4467  140.0990  156.6465 H   0  0  0  0  0  0  0  0  0  0  0  0  # atno 8010 bound_to 7997
  139.8205  144.6733  150.9525 H   0  0  0  0  0  0  0  0  0  0  0  0  # atno 10167 bound_to 10162
  157.5189  131.1098  150.9183 H   0  0  0  0  0  0  0  0  0  0  0  0  # atno 10718 bound_to 10713
  152.9799  135.5763  154.4817 H   0  0  0  0  0  0  0  0  0  0  0  0  # atno 10763 bound_to 10752
  154.4365  135.2775  155.1879 H   0  0  0  0  0  0  0  0  0  0  0  0  # atno 10764 bound_to 10752
  154.3565  135.6198  153.5722 H   0  0  0  0  0  0  0  0  0  0  0  0  # atno 10765 bound_to 10752
  139.9780  134.9557  156.9557 H   0  0  0  0  0  0  0  0  0  0  0  0  # atno 11005 bound_to 11000
  146.0906  139.3896  143.0408 LP  0  0  0  0  0  0  0  0  0  0  0  0  # atno 17320 bound_to 7965
  145.7716  140.9894  143.1146 LP  0  0  0  0  0  0  0  0  0  0  0  0  # atno 17321 bound_to 7965
  140.7813  143.4097  151.1014 LP  0  0  0  0  0  0  0  0  0  0  0  0  # atno 17342 bound_to 10162
  139.7757  143.8428  152.3129 LP  0  0  0  0  0  0  0  0  0  0  0  0  # atno 17343 bound_to 10162
  156.9800  130.5523  149.5296 LP  0  0  0  0  0  0  0  0  0  0  0  0  # atno 17370 bound_to 10713
  156.0339  130.5428  150.8605 LP  0  0  0  0  0  0  0  0  0  0  0  0  # atno 17371 bound_to 10713
  140.5155  134.0959  155.7280 LP  0  0  0  0  0  0  0  0  0  0  0  0  # atno 17394 bound_to 11000
  141.1455  133.9063  157.2226 LP  0  0  0  0  0  0  0  0  0  0  0  0  # atno 17395 bound_to 11000

$$$$
