AV-unprocessed.smi:287|AV-procd|sdf|2186|dock4
  -GOLD-   2262021573D 1   1.00000     0.00000
 Structure written by MMmdl.
 55 58  0  0  0  0  0  0  0  0  1 V2000
  151.9677  144.7108  159.4415 C   0  0  0  0  0  0  0  0  0  0  0  0
  152.2814  143.2567  159.3521 C   0  0  0  0  0  0  0  0  0  0  0  0
  151.7310  142.2121  158.6687 C   0  0  0  0  0  0  0  0  0  0  0  0
  152.4919  141.0471  158.9847 C   0  0  0  0  0  0  0  0  0  0  0  0
  152.2462  139.6458  158.4407 C   0  0  2  0  0  0  0  0  0  0  0  0
  152.1252  138.6473  159.6038 C   0  0  0  0  0  0  0  0  0  0  0  0
  153.3150  139.1686  157.6465 O   0  0  0  0  0  0  0  0  0  0  0  0
  150.9879  139.5770  157.5453 C   0  0  0  0  0  0  0  0  0  0  0  0
  151.1586  140.2803  156.2781 N   0  0  0  0  0  0  0  0  0  0  0  0
  150.0915  140.5435  155.4961 C   0  0  0  0  0  0  0  0  0  0  0  0
  149.7354  141.8213  155.2025 N   0  0  0  0  0  0  0  0  0  0  0  0
  148.6781  142.0550  154.4193 C   0  0  0  0  0  0  0  0  0  0  0  0
  147.8598  141.1750  153.8380 N   0  0  0  0  0  0  0  0  0  0  0  0
  148.2119  139.8903  154.1331 C   0  0  0  0  0  0  0  0  0  0  0  0
  149.3072  139.4954  154.9504 C   0  0  0  0  0  0  0  0  0  0  0  0
  149.3628  138.1101  155.0274 N   0  0  0  0  0  0  0  0  0  0  0  0
  148.3584  137.7132  154.2934 C   0  0  0  0  0  0  0  0  0  0  0  0
  147.6121  138.7185  153.7191 N   0  0  0  0  0  0  0  0  0  0  0  0
  146.4213  138.5747  152.8296 C   0  0  2  0  0  0  0  0  0  0  0  0
  145.3787  138.0488  153.5870 O   0  0  0  0  0  0  0  0  0  0  0  0
  144.5878  137.2196  152.7504 C   0  0  2  0  0  0  0  0  0  0  0  0
  143.6705  136.3065  153.5832 C   0  0  0  0  0  0  0  0  0  0  0  0
  142.7275  137.0791  154.2951 O   0  0  0  0  0  0  0  0  0  0  0  0
  145.6191  136.5369  151.8381 C   0  0  2  0  0  0  0  0  0  0  0  0
  146.1598  135.3750  152.4379 O   0  0  0  0  0  0  0  0  0  0  0  0
  146.7018  137.6024  151.6679 C   0  0  1  0  0  0  0  0  0  0  0  0
  146.5355  138.2442  150.4194 O   0  0  0  0  0  0  0  0  0  0  0  0
  153.4525  141.4843  159.8650 C   0  0  0  0  0  0  0  0  0  0  0  0
  154.5668  140.8171  160.6016 C   0  0  0  0  0  0  0  0  0  0  0  0
  153.3334  142.8228  160.0903 O   0  0  0  0  0  0  0  0  0  0  0  0
  146.1824  139.5893  152.5060 H   0  0  0  0  0  0  0  0  0  0  0  0
  143.9705  137.8847  152.1431 H   0  0  0  0  0  0  0  0  0  0  0  0
  145.1715  136.2364  150.8898 H   0  0  0  0  0  0  0  0  0  0  0  0
  147.7098  137.1882  151.7279 H   0  0  0  0  0  0  0  0  0  0  0  0
  151.1996  144.9881  158.7192 H   0  0  0  0  0  0  0  0  0  0  0  0
  152.8544  145.3112  159.2376 H   0  0  0  0  0  0  0  0  0  0  0  0
  151.6052  144.9676  160.4368 H   0  0  0  0  0  0  0  0  0  0  0  0
  150.8809  142.2762  158.0057 H   0  0  0  0  0  0  0  0  0  0  0  0
  151.2987  138.9088  160.2655 H   0  0  0  0  0  0  0  0  0  0  0  0
  153.0339  138.6287  160.2071 H   0  0  0  0  0  0  0  0  0  0  0  0
  151.9466  137.6332  159.2438 H   0  0  0  0  0  0  0  0  0  0  0  0
  152.9990  138.4507  157.1197 H   0  0  0  0  0  0  0  0  0  0  0  0
  150.6877  138.5428  157.3694 H   0  0  0  0  0  0  0  0  0  0  0  0
  150.1612  140.0564  158.0721 H   0  0  0  0  0  0  0  0  0  0  0  0
  152.0901  140.6189  156.0825 H   0  0  0  0  0  0  0  0  0  0  0  0
  148.4566  143.0951  154.2310 H   0  0  0  0  0  0  0  0  0  0  0  0
  148.1333  136.6665  154.1499 H   0  0  0  0  0  0  0  0  0  0  0  0
  143.1566  135.5736  152.9609 H   0  0  0  0  0  0  0  0  0  0  0  0
  144.2642  135.7449  154.3047 H   0  0  0  0  0  0  0  0  0  0  0  0
  141.8744  136.9391  153.9133 H   0  0  0  0  0  0  0  0  0  0  0  0
  147.1030  135.4472  152.4312 H   0  0  0  0  0  0  0  0  0  0  0  0
  145.6333  138.5134  150.3385 H   0  0  0  0  0  0  0  0  0  0  0  0
  154.1922  139.9845  161.1970 H   0  0  0  0  0  0  0  0  0  0  0  0
  155.0674  141.5124  161.2760 H   0  0  0  0  0  0  0  0  0  0  0  0
  155.3112  140.4299  159.9060 H   0  0  0  0  0  0  0  0  0  0  0  0
  1  2  1  0  0  0  0
  1 35  1  0  0  0  0
  1 36  1  0  0  0  0
  1 37  1  0  0  0  0
  2 30  1  0  0  0  0
  2  3  2  0  0  0  0
  3  4  1  0  0  0  0
  3 38  1  0  0  0  0
  4  5  1  0  0  0  0
  4 28  2  0  0  0  0
  5  6  1  0  0  0  0
  5  7  1  0  0  0  0
  5  8  1  0  0  0  0
  6 39  1  0  0  0  0
  6 40  1  0  0  0  0
  6 41  1  0  0  0  0
  7 42  1  0  0  0  0
  8  9  1  0  0  0  0
  8 43  1  0  0  0  0
  8 44  1  0  0  0  0
  9 10  1  0  0  0  0
  9 45  1  0  0  0  0
 10 15  1  0  0  0  0
 10 11  2  0  0  0  0
 11 12  1  0  0  0  0
 12 13  2  0  0  0  0
 12 46  1  0  0  0  0
 13 14  1  0  0  0  0
 14 18  1  0  0  0  0
 14 15  2  0  0  0  0
 15 16  1  0  0  0  0
 16 17  2  0  0  0  0
 17 18  1  0  0  0  0
 17 47  1  0  0  0  0
 18 19  1  0  0  0  0
 19 31  1  0  0  0  0
 19 26  1  0  0  0  0
 19 20  1  0  0  0  0
 20 21  1  0  0  0  0
 21 32  1  0  0  0  0
 21 22  1  0  0  0  0
 21 24  1  0  0  0  0
 22 23  1  0  0  0  0
 22 48  1  0  0  0  0
 22 49  1  0  0  0  0
 23 50  1  0  0  0  0
 24 33  1  0  0  0  0
 24 25  1  0  0  0  0
 24 26  1  0  0  0  0
 25 51  1  0  0  0  0
 26 34  1  0  0  0  0
 26 27  1  0  0  0  0
 27 52  1  0  0  0  0
 28 29  1  0  0  0  0
 28 30  1  0  0  0  0
 29 53  1  0  0  0  0
 29 54  1  0  0  0  0
 29 55  1  0  0  0  0
M  END
> <s_m_source_file>
AV-unprocessed.smi

> <i_m_source_file_index>
287

> <i_lp_mmshare_version>
43012

> <i_f3d_flags>
0

> <s_epik_input>
W0NIM11jMVtjSF1jKGMobzEpW0NIM10pW0NAQF0oW0NIM10pKFtPSF0pW0NIMl1bTkhdYyhuW2NIXW4yKWMoYzIzKW5bY0hdbjNbQ0BASF00T1tDQEhdKFtDSDJdW09IXSlbQ0BASF0oW09IXSlbQ0BIXTRbT0hd

> <s_epik_cmdline>
J2VwaWtfcHl0aG9uJywgJy1waCcsICc3LjAnLCAnLXRuJywgJzgnLCAnLW1hJywgJzIwMCcsICctbWV0YWxfYmluZGluZycsICctaW1hZScsICc8aW5maWxlLm1hZT4nLCAnLW9tYWUnLCAnPG91dGZpbGUubWFlPic=

> <r_lp_tautomer_probability>
1

> <r_epik_Ionization_Penalty>
0.000992612

> <r_epik_Ionization_Penalty_Charging>
0

> <r_epik_Ionization_Penalty_Neutral>
0.000992612

> <r_epik_State_Penalty>
-0

> <r_epik_Charging_Adjusted_Penalty>
0

> <i_epik_Tot_Q>
0

> <i_epik_Tot_abs_Q>
0

> <r_epik_Metal_State_Penalty>
-0

> <b_epik_Metal_Only>
0

> <s_epik_Chemistry_Notes>
This compound contains an acetal/aminal-like group ( X-CH(R)-Y where X, Y are N, S, or O) that may be acid/base labile, releasing an aldehyde.

> <s_lp_Force_Field>
OPLS_2005

> <r_lp_Energy>
38.0531

> <b_lp_Chiralities_Consistent>
1

> <s_lp_Variant>
AV-unprocessed.smi:287-10

> <Gold.Version>
5.8.1

> <Gold.Id.Protein>
6NUR|6NUR_protein|mol2

> <Gold.PLP.Fitness>
55.1515

> <Gold.PLP.PLP>
-42.1493

> <Gold.PLP.part.hbond>
-4.0000

> <Gold.PLP.part.metal>
0.0000

> <Gold.PLP.part.buried>
0.3219

> <Gold.PLP.part.nonpolar>
-40.9536

> <Gold.PLP.part.repulsive>
1.1967

> <Gold.PLP.ligand.clash>
0.0000

> <Gold.PLP.ligand.torsion>
0.9439

> <Gold.PLP.Chemscore.Hbond>
3.4400

> <Gold.PLP.Chemscore.CHOScore>
1.4748

> <Gold.PLP.Chemscore.Metal>
0.0000

> <Gold.Chemscore.Hbonds>
donor molecule, donor type, donor heavy atom, donor atom, acceptor molecule, acceptor atom, score
      L1  H    25    51       P1  7948  0.91
      L1  H    27    52       P1 10171  1.00
      P1  H  7954  7966       L1    27  0.58
      P1  H  7997  8008       L1     7  1.00
      L1  C    12    46       P1  8028  0.91
      L1  C    17    47       P1  7948  0.46

> <Gold.PLP.Chemscore.Internal.Correction>
0.1457

> <Gold.Rescore>
     Score         DG    S(hbond)    S(metal)    S(lipo)     H(rot)  DE(clash)    DE(int)     intcor
     10.45     -14.40       2.97        0.00     106.54       5.27       3.12       0.83       ----

> <Gold.Chemscore.Fitness>
10.4518

> <Gold.Chemscore.DG>
-14.3972

> <Gold.Chemscore.ZeroCoef>
-5.4800

> <Gold.Chemscore.Hbond>
2.9749

> <Gold.Chemscore.Metal>
0.0000

> <Gold.Chemscore.Lipo>
106.5373

> <Gold.Chemscore.Internal_Hbond>
0.0000

> <Gold.Chemscore.DEClash>
3.1189

> <Gold.Chemscore.DEInternal>
0.8265

> <Gold.Chemscore.Rot>
5.2672

> <Gold.Chemscore.Internal.Correction>
   9.000000E+99

> <Gold.Chemscore.Hbonds>
donor molecule, donor type, donor heavy atom, donor atom, acceptor molecule, acceptor atom, score
      L1  H    25    51       P1  7948  0.86
      L1  H    27    52       P1 10171  1.00
      P1  H  7954  7966       L1    27  0.06
      P1  H  7997  8008       L1     7  0.88

> <Gold.Chemscore.Hbond.Weighted>
-9.9363

> <Gold.Chemscore.Metal.Weighted>
-0.0000

> <Gold.Chemscore.Lipo.Weighted>
-12.4649

> <Gold.Chemscore.Internal_Hbond.Weighted>
0.0000

> <Gold.Chemscore.DEClash.Weighted>
3.1189

> <Gold.Chemscore.DEInternal.Weighted>
0.8265

> <Gold.Chemscore.Rot.Weighted>
13.4839

> <Gold.Chemscore.Internal.Correction.Weighted>
   9.000000E+99

> <Gold.Protein.RotatedTorsions>
[ 6907 6896 6895 6894 ] final  -49.06 input  -60.11 | X-H torsion
[ 7974 7965 7964 7962 ] final  -60.84 input  175.53 | X-H torsion
[ 8008 7997 7996 7995 ] final  -80.14 input   59.86 | X-H torsion
[ 10167 10162 10161 10158 ] final   31.88 input  -65.29 | X-H torsion
[ 10718 10713 10712 10709 ] final  155.08 input   66.30 | X-H torsion
[ 10763 10752 10751 10750 ] final   60.63 input  -60.55 | X-H torsion
[ 11005 11000 10999 10996 ] final   89.62 input  -57.11 | X-H torsion

> <Gold.Protein.ActiveResidues>
 VAL166  LYS551  ARG553  GLY616  TRP617  ASP618  TYR619  PRO620  LYS621  CYS622 
 ASP623  PHE694  ASN695  SER759  ASP760  ASP761  ALA762  ILE779  LEU786  VAL792 
 PHE793  MET794  SER795  GLU796  ALA797  LYS798  CYS799  TRP800  GLU811  SER814 

> <Gold.Protein.RotatedAtoms>
  150.8843  134.8238  159.7247 H   0  0  0  0  0  0  0  0  0  0  0  0  # atno 6907 bound_to 6896
  152.4797  134.4748  159.9657 H   0  0  0  0  0  0  0  0  0  0  0  0  # atno 6908 bound_to 6896
  151.4818  133.3506  159.2875 H   0  0  0  0  0  0  0  0  0  0  0  0  # atno 6909 bound_to 6896
  145.8107  140.8600  143.0183 H   0  0  0  0  0  0  0  0  0  0  0  0  # atno 7974 bound_to 7965
  154.5854  140.0667  156.9164 H   0  0  0  0  0  0  0  0  0  0  0  0  # atno 8008 bound_to 7997
  155.2389  140.3343  155.4276 H   0  0  0  0  0  0  0  0  0  0  0  0  # atno 8009 bound_to 7997
  156.2219  140.1802  156.7441 H   0  0  0  0  0  0  0  0  0  0  0  0  # atno 8010 bound_to 7997
  140.4549  144.0993  150.6199 H   0  0  0  0  0  0  0  0  0  0  0  0  # atno 10167 bound_to 10162
  157.2231  131.0723  151.1900 H   0  0  0  0  0  0  0  0  0  0  0  0  # atno 10718 bound_to 10713
  152.9926  135.5529  154.5904 H   0  0  0  0  0  0  0  0  0  0  0  0  # atno 10763 bound_to 10752
  154.5267  135.2811  155.1218 H   0  0  0  0  0  0  0  0  0  0  0  0  # atno 10764 bound_to 10752
  154.2550  135.6392  153.5306 H   0  0  0  0  0  0  0  0  0  0  0  0  # atno 10765 bound_to 10752
  139.8872  134.8563  156.3168 H   0  0  0  0  0  0  0  0  0  0  0  0  # atno 11005 bound_to 11000
  144.6758  140.0391  143.7481 LP  0  0  0  0  0  0  0  0  0  0  0  0  # atno 17320 bound_to 7965
  145.9781  139.2920  143.1058 LP  0  0  0  0  0  0  0  0  0  0  0  0  # atno 17321 bound_to 7965
  140.4163  143.2633  151.9771 LP  0  0  0  0  0  0  0  0  0  0  0  0  # atno 17342 bound_to 10162
  139.4800  144.5871  151.7835 LP  0  0  0  0  0  0  0  0  0  0  0  0  # atno 17343 bound_to 10162
  157.3555  130.7104  149.6468 LP  0  0  0  0  0  0  0  0  0  0  0  0  # atno 17370 bound_to 10713
  155.9681  130.4240  150.4589 LP  0  0  0  0  0  0  0  0  0  0  0  0  # atno 17371 bound_to 10713
  140.9813  133.7265  156.0677 LP  0  0  0  0  0  0  0  0  0  0  0  0  # atno 17394 bound_to 11000
  140.7745  134.3795  157.5501 LP  0  0  0  0  0  0  0  0  0  0  0  0  # atno 17395 bound_to 11000

$$$$
