AV-unprocessed.smi:158|AV-procd|sdf|1328|dock5
  -GOLD-   2262019 23D 1   1.00000     0.00000
 Structure written by MMmdl.
 31 33  0  0  0  0  0  0  0  0  1 V2000
  154.8601  139.4904  160.1490 N   0  0  0  0  0  0  0  0  0  0  0  0
  153.8908  140.3868  159.9182 C   0  0  0  0  0  0  0  0  0  0  0  0
  153.6827  141.3614  160.8343 N   0  0  0  0  0  0  0  0  0  0  0  0
  152.7258  142.2782  160.6418 C   0  0  0  0  0  0  0  0  0  0  0  0
  152.5508  143.4723  161.8733 Cl  0  0  0  0  0  0  0  0  0  0  0  0
  151.8893  142.3722  159.6021 N   0  0  0  0  0  0  0  0  0  0  0  0
  152.0971  141.3898  158.6787 C   0  0  0  0  0  0  0  0  0  0  0  0
  153.0745  140.3635  158.7612 C   0  0  0  0  0  0  0  0  0  0  0  0
  152.9968  139.5464  157.6416 N   0  0  0  0  0  0  0  0  0  0  0  0
  152.0257  140.0672  156.9387 C   0  0  0  0  0  0  0  0  0  0  0  0
  151.4229  141.1762  157.4969 N   0  0  0  0  0  0  0  0  0  0  0  0
  150.3002  142.0162  156.9735 C   0  0  1  0  0  0  0  0  0  0  0  0
  150.0613  141.6590  155.6444 O   0  0  0  0  0  0  0  0  0  0  0  0
  148.9540  140.7645  155.5820 C   0  0  2  0  0  0  0  0  0  0  0  0
  148.3696  140.6958  154.1607 C   0  0  0  0  0  0  0  0  0  0  0  0
  149.2776  141.2607  153.2393 O   0  0  0  0  0  0  0  0  0  0  0  0
  148.0223  141.3354  156.6581 C   0  0  2  0  0  0  0  0  0  0  0  0
  147.3220  142.4662  156.1677 O   0  0  0  0  0  0  0  0  0  0  0  0
  149.0107  141.7122  157.7530 C   0  0  2  0  0  0  0  0  0  0  0  0
  148.6222  142.7633  158.4773 F   0  0  0  0  0  0  0  0  0  0  0  0
  150.6531  143.0452  157.0537 H   0  0  0  0  0  0  0  0  0  0  0  0
  149.2763  139.7714  155.9017 H   0  0  0  0  0  0  0  0  0  0  0  0
  147.2958  140.5991  157.0030 H   0  0  0  0  0  0  0  0  0  0  0  0
  149.1678  140.8749  158.4352 H   0  0  0  0  0  0  0  0  0  0  0  0
  155.0335  138.7549  159.4789 H   0  0  0  0  0  0  0  0  0  0  0  0
  155.4161  139.5528  160.9897 H   0  0  0  0  0  0  0  0  0  0  0  0
  151.7253  139.6486  155.9889 H   0  0  0  0  0  0  0  0  0  0  0  0
  148.2122  139.6571  153.8686 H   0  0  0  0  0  0  0  0  0  0  0  0
  147.4060  141.2028  154.1001 H   0  0  0  0  0  0  0  0  0  0  0  0
  149.4693  140.6183  152.5732 H   0  0  0  0  0  0  0  0  0  0  0  0
  147.9461  143.1507  155.9812 H   0  0  0  0  0  0  0  0  0  0  0  0
  1  2  1  0  0  0  0
  1 25  1  0  0  0  0
  1 26  1  0  0  0  0
  2  8  1  0  0  0  0
  2  3  2  0  0  0  0
  3  4  1  0  0  0  0
  4  5  1  0  0  0  0
  4  6  2  0  0  0  0
  6  7  1  0  0  0  0
  7 11  1  0  0  0  0
  7  8  2  0  0  0  0
  8  9  1  0  0  0  0
  9 10  2  0  0  0  0
 10 11  1  0  0  0  0
 10 27  1  0  0  0  0
 11 12  1  0  0  0  0
 12 21  1  0  0  0  0
 12 19  1  0  0  0  0
 12 13  1  0  0  0  0
 13 14  1  0  0  0  0
 14 22  1  0  0  0  0
 14 15  1  0  0  0  0
 14 17  1  0  0  0  0
 15 16  1  0  0  0  0
 15 28  1  0  0  0  0
 15 29  1  0  0  0  0
 16 30  1  0  0  0  0
 17 23  1  0  0  0  0
 17 18  1  0  0  0  0
 17 19  1  0  0  0  0
 18 31  1  0  0  0  0
 19 24  1  0  0  0  0
 19 20  1  0  0  0  0
M  END
> <s_m_source_file>
AV-unprocessed.smi

> <i_m_source_file_index>
158

> <i_lp_mmshare_version>
43012

> <i_f3d_flags>
0

> <s_epik_input>
Q2xjKG4xKW5jKFtOSDJdKWMoYzEyKW5bY0hdbjJbQ0BASF0zT1tDQEhdKFtDSDJdW09IXSlbQ0BASF0oW09IXSlbQ0BASF0zRg==

> <s_epik_cmdline>
J2VwaWtfcHl0aG9uJywgJy1waCcsICc3LjAnLCAnLXRuJywgJzgnLCAnLW1hJywgJzIwMCcsICctbWV0YWxfYmluZGluZycsICctaW1hZScsICc8aW5maWxlLm1hZT4nLCAnLW9tYWUnLCAnPG91dGZpbGUubWFlPic=

> <r_lp_tautomer_probability>
1

> <r_epik_Ionization_Penalty>
6.51543e-05

> <r_epik_Ionization_Penalty_Charging>
0

> <r_epik_Ionization_Penalty_Neutral>
6.51543e-05

> <r_epik_State_Penalty>
-0

> <r_epik_Charging_Adjusted_Penalty>
0

> <i_epik_Tot_Q>
0

> <i_epik_Tot_abs_Q>
0

> <r_epik_Metal_State_Penalty>
-0

> <b_epik_Metal_Only>
0

> <s_epik_Chemistry_Notes>
This compound contains an acetal/aminal-like group ( X-CH(R)-Y where X, Y are N, S, or O) that may be acid/base labile, releasing an aldehyde.

> <s_lp_Force_Field>
OPLS_2005

> <r_lp_Energy>
37.0626

> <b_lp_Chiralities_Consistent>
1

> <s_lp_Variant>
AV-unprocessed.smi:158-6

> <Gold.Version>
5.8.1

> <Gold.Id.Protein>
6NUR|6NUR_protein|mol2

> <Gold.PLP.Fitness>
44.2209

> <Gold.PLP.PLP>
-34.8460

> <Gold.PLP.part.hbond>
-4.5113

> <Gold.PLP.part.metal>
0.0000

> <Gold.PLP.part.buried>
-5.6525

> <Gold.PLP.part.nonpolar>
-23.4606

> <Gold.PLP.part.repulsive>
0.1345

> <Gold.PLP.ligand.clash>
0.0000

> <Gold.PLP.ligand.torsion>
0.9711

> <Gold.PLP.Chemscore.Hbond>
3.7660

> <Gold.PLP.Chemscore.CHOScore>
0.0000

> <Gold.PLP.Chemscore.Metal>
0.0000

> <Gold.Chemscore.Hbonds>
donor molecule, donor type, donor heavy atom, donor atom, acceptor molecule, acceptor atom, score
      L1  H    16    30       P1  7957  0.99
      L1  H    18    31       P1  8028  1.00
      P1  H  7997  8010       L1     9  0.80
      P1  H  8011  8017       L1    16  0.55

> <Gold.PLP.Chemscore.Internal.Correction>
0.0190

> <Gold.Rescore>
     Score         DG    S(hbond)    S(metal)    S(lipo)     H(rot)  DE(clash)    DE(int)     intcor
      9.25     -10.17       2.45        0.00      38.64       3.12       0.20       0.72       ----

> <Gold.Chemscore.Fitness>
9.2489

> <Gold.Chemscore.DG>
-10.1740

> <Gold.Chemscore.ZeroCoef>
-5.4800

> <Gold.Chemscore.Hbond>
2.4454

> <Gold.Chemscore.Metal>
0.0000

> <Gold.Chemscore.Lipo>
38.6434

> <Gold.Chemscore.Internal_Hbond>
0.0000

> <Gold.Chemscore.DEClash>
0.2035

> <Gold.Chemscore.DEInternal>
0.7217

> <Gold.Chemscore.Rot>
3.1230

> <Gold.Chemscore.Internal.Correction>
   9.000000E+99

> <Gold.Chemscore.Hbonds>
donor molecule, donor type, donor heavy atom, donor atom, acceptor molecule, acceptor atom, score
      L1  H    16    30       P1  7957  0.91
      L1  H    18    31       P1  8028  0.45
      P1  H  7997  8010       L1     9  0.08
      P1  H  8011  8017       L1    16  0.03

> <Gold.Chemscore.Hbond.Weighted>
-8.1677

> <Gold.Chemscore.Metal.Weighted>
-0.0000

> <Gold.Chemscore.Lipo.Weighted>
-4.5213

> <Gold.Chemscore.Internal_Hbond.Weighted>
0.0000

> <Gold.Chemscore.DEClash.Weighted>
0.2035

> <Gold.Chemscore.DEInternal.Weighted>
0.7217

> <Gold.Chemscore.Rot.Weighted>
7.9950

> <Gold.Chemscore.Internal.Correction.Weighted>
   9.000000E+99

> <Gold.Protein.RotatedTorsions>
[ 6907 6896 6895 6894 ] final  -14.86 input  -60.11 | X-H torsion
[ 7974 7965 7964 7962 ] final  115.76 input  175.53 | X-H torsion
[ 8008 7997 7996 7995 ] final   41.30 input   59.86 | X-H torsion
[ 10167 10162 10161 10158 ] final  -12.36 input  -65.29 | X-H torsion
[ 10718 10713 10712 10709 ] final    7.78 input   66.30 | X-H torsion
[ 10763 10752 10751 10750 ] final  -93.06 input  -60.55 | X-H torsion
[ 11005 11000 10999 10996 ] final -107.53 input  -57.11 | X-H torsion

> <Gold.Protein.ActiveResidues>
 VAL166  LYS551  ARG553  GLY616  TRP617  ASP618  TYR619  PRO620  LYS621  CYS622 
 ASP623  PHE694  ASN695  SER759  ASP760  ASP761  ALA762  ILE779  LEU786  VAL792 
 PHE793  MET794  SER795  GLU796  ALA797  LYS798  CYS799  TRP800  GLU811  SER814 

> <Gold.Protein.RotatedAtoms>
  151.3329  135.0846  159.9344 H   0  0  0  0  0  0  0  0  0  0  0  0  # atno 6907 bound_to 6896
  152.5230  133.9524  159.7688 H   0  0  0  0  0  0  0  0  0  0  0  0  # atno 6908 bound_to 6896
  150.9866  133.6138  159.2744 H   0  0  0  0  0  0  0  0  0  0  0  0  # atno 6909 bound_to 6896
  145.1880  139.3015  143.4383 H   0  0  0  0  0  0  0  0  0  0  0  0  # atno 7974 bound_to 7965
  155.2673  140.3363  155.4268 H   0  0  0  0  0  0  0  0  0  0  0  0  # atno 8008 bound_to 7997
  156.2148  140.1784  156.7656 H   0  0  0  0  0  0  0  0  0  0  0  0  # atno 8009 bound_to 7997
  154.5738  140.0665  156.8988 H   0  0  0  0  0  0  0  0  0  0  0  0  # atno 8010 bound_to 7997
  140.7159  143.5540  150.9269 H   0  0  0  0  0  0  0  0  0  0  0  0  # atno 10167 bound_to 10162
  156.9420  130.5865  149.5653 H   0  0  0  0  0  0  0  0  0  0  0  0  # atno 10718 bound_to 10713
  154.6923  135.5208  153.8409 H   0  0  0  0  0  0  0  0  0  0  0  0  # atno 10763 bound_to 10752
  153.0641  135.6578  154.0404 H   0  0  0  0  0  0  0  0  0  0  0  0  # atno 10764 bound_to 10752
  154.0276  135.2988  155.3352 H   0  0  0  0  0  0  0  0  0  0  0  0  # atno 10765 bound_to 10752
  141.0949  133.8989  157.1987 H   0  0  0  0  0  0  0  0  0  0  0  0  # atno 11005 bound_to 11000
  146.3441  140.2083  142.8590 LP  0  0  0  0  0  0  0  0  0  0  0  0  # atno 17320 bound_to 7965
  145.0069  140.8681  143.5248 LP  0  0  0  0  0  0  0  0  0  0  0  0  # atno 17321 bound_to 7965
  139.9265  143.6544  152.3085 LP  0  0  0  0  0  0  0  0  0  0  0  0  # atno 17342 bound_to 10162
  139.6979  144.7639  151.1324 LP  0  0  0  0  0  0  0  0  0  0  0  0  # atno 17343 bound_to 10162
  156.0400  130.5484  150.8748 LP  0  0  0  0  0  0  0  0  0  0  0  0  # atno 17370 bound_to 10713
  157.5778  131.0946  150.9318 LP  0  0  0  0  0  0  0  0  0  0  0  0  # atno 17371 bound_to 10713
  139.9783  135.0106  156.9687 LP  0  0  0  0  0  0  0  0  0  0  0  0  # atno 17394 bound_to 11000
  140.5164  134.0951  155.7282 LP  0  0  0  0  0  0  0  0  0  0  0  0  # atno 17395 bound_to 11000

$$$$
