AV-unprocessed.smi:2923|AV-procd|sdf|11202|dock9
  -GOLD-   2272016 93D 1   1.00000     0.00000
 Structure written by MMmdl.
 47 49  0  0  0  0  0  0  0  0  2 V2000
  150.9941  129.3824  154.5229 C   0  0  0  0  0  0  0  0  0  0  0  0
  149.6206  129.8467  154.6465 N   0  0  0  0  0  0  0  0  0  0  0  0
  148.8402  129.2540  155.7221 C   0  0  0  0  0  0  0  0  0  0  0  0
  149.5122  131.2431  154.5966 C   0  0  0  0  0  0  0  0  0  0  0  0
  148.8860  131.8908  153.5118 C   0  0  0  0  0  0  0  0  0  0  0  0
  148.8043  133.2982  153.5002 C   0  0  0  0  0  0  0  0  0  0  0  0
  149.3405  134.0408  154.5745 C   0  0  0  0  0  0  0  0  0  0  0  0
  149.2513  135.4575  154.5097 N   0  0  0  0  0  0  0  0  0  0  0  0
  149.5417  136.3585  155.4639 C   0  0  0  0  0  0  0  0  0  0  0  0
  149.9164  136.0921  156.6055 O   0  0  0  0  0  0  0  0  0  0  0  0
  149.3575  137.6087  155.0203 N   0  0  0  0  0  0  0  0  0  0  0  0
  149.5620  138.8181  155.8247 C   0  0  2  0  0  0  0  0  0  0  0  0
  148.6528  139.9706  155.3902 C   0  0  2  0  0  0  0  0  0  0  0  0
  147.4082  140.1008  154.5889 C   0  0  0  0  0  0  0  0  0  0  0  0
  147.8167  141.3767  153.8036 C   0  0  0  0  0  0  0  0  0  0  0  0
  149.2249  141.5855  154.0847 O   0  0  0  0  0  0  0  0  0  0  0  0
  149.7138  140.2871  154.3561 C   0  0  1  0  0  0  0  0  0  0  0  0
  150.7525  139.7527  155.3675 C   0  0  0  0  0  0  0  0  0  0  0  0
  151.3019  140.7517  156.4022 C   0  0  0  0  0  0  0  0  0  0  0  0
  151.9811  139.0739  154.7515 C   0  0  0  0  0  0  0  0  0  0  0  0
  149.9663  133.3372  155.6329 C   0  0  0  0  0  0  0  0  0  0  0  0
  150.0248  131.9880  155.6045 N   0  3  0  0  0  0  0  0  0  0  0  0
  151.4907  129.8582  153.6762 H   0  0  0  0  0  0  0  0  0  0  0  0
  151.0142  128.3044  154.3612 H   0  0  0  0  0  0  0  0  0  0  0  0
  151.5646  129.6026  155.4261 H   0  0  0  0  0  0  0  0  0  0  0  0
  147.8243  129.6508  155.7296 H   0  0  0  0  0  0  0  0  0  0  0  0
  149.2960  129.4524  156.6927 H   0  0  0  0  0  0  0  0  0  0  0  0
  148.7772  128.1735  155.5897 H   0  0  0  0  0  0  0  0  0  0  0  0
  148.4729  131.3171  152.6947 H   0  0  0  0  0  0  0  0  0  0  0  0
  148.3282  133.8010  152.6709 H   0  0  0  0  0  0  0  0  0  0  0  0
  148.8810  135.8302  153.6477 H   0  0  0  0  0  0  0  0  0  0  0  0
  149.0460  137.7406  154.0692 H   0  0  0  0  0  0  0  0  0  0  0  0
  149.5367  138.6430  156.9016 H   0  0  0  0  0  0  0  0  0  0  0  0
  148.6195  140.7033  156.2001 H   0  0  0  0  0  0  0  0  0  0  0  0
  147.2492  139.2470  153.9291 H   0  0  0  0  0  0  0  0  0  0  0  0
  146.5201  140.2514  155.2031 H   0  0  0  0  0  0  0  0  0  0  0  0
  147.6592  141.2397  152.7331 H   0  0  0  0  0  0  0  0  0  0  0  0
  147.2470  142.2508  154.1202 H   0  0  0  0  0  0  0  0  0  0  0  0
  149.6608  139.6657  153.4561 H   0  0  0  0  0  0  0  0  0  0  0  0
  151.8828  141.5384  155.9200 H   0  0  0  0  0  0  0  0  0  0  0  0
  151.9571  140.2574  157.1201 H   0  0  0  0  0  0  0  0  0  0  0  0
  150.5269  141.2473  156.9842 H   0  0  0  0  0  0  0  0  0  0  0  0
  152.6945  139.8049  154.3699 H   0  0  0  0  0  0  0  0  0  0  0  0
  151.7161  138.4290  153.9138 H   0  0  0  0  0  0  0  0  0  0  0  0
  152.5024  138.4559  155.4830 H   0  0  0  0  0  0  0  0  0  0  0  0
  150.4342  133.7921  156.4927 H   0  0  0  0  0  0  0  0  0  0  0  0
  150.4819  131.5081  156.3801 H   0  0  0  0  0  0  0  0  0  0  0  0
  1  2  1  0  0  0  0
  1 23  1  0  0  0  0
  1 24  1  0  0  0  0
  1 25  1  0  0  0  0
  2  3  1  0  0  0  0
  2  4  1  0  0  0  0
  3 26  1  0  0  0  0
  3 27  1  0  0  0  0
  3 28  1  0  0  0  0
  4 22  1  0  0  0  0
  4  5  2  0  0  0  0
  5  6  1  0  0  0  0
  5 29  1  0  0  0  0
  6  7  2  0  0  0  0
  6 30  1  0  0  0  0
  7  8  1  0  0  0  0
  7 21  1  0  0  0  0
  8  9  1  0  0  0  0
  8 31  1  0  0  0  0
  9 10  2  0  0  0  0
  9 11  1  0  0  0  0
 11 12  1  0  0  0  0
 11 32  1  0  0  0  0
 12 18  1  0  0  0  0
 12 13  1  0  0  0  0
 12 33  1  0  0  0  0
 13 17  1  0  0  0  0
 13 14  1  0  0  0  0
 13 34  1  0  0  0  0
 14 15  1  0  0  0  0
 14 35  1  0  0  0  0
 14 36  1  0  0  0  0
 15 16  1  0  0  0  0
 15 37  1  0  0  0  0
 15 38  1  0  0  0  0
 16 17  1  0  0  0  0
 17 18  1  0  0  0  0
 17 39  1  0  0  0  0
 18 19  1  0  0  0  0
 18 20  1  0  0  0  0
 19 40  1  0  0  0  0
 19 41  1  0  0  0  0
 19 42  1  0  0  0  0
 20 43  1  0  0  0  0
 20 44  1  0  0  0  0
 20 45  1  0  0  0  0
 21 22  2  0  0  0  0
 21 46  1  0  0  0  0
 22 47  1  0  0  0  0
M  CHG  1  22   1
M  END
> <s_m_source_file>
AV-unprocessed.smi

> <i_m_source_file_index>
2923

> <i_lp_mmshare_version>
43012

> <i_f3d_flags>
0

> <s_epik_input>
W0NIM11OKFtDSDNdKWMxW2NIXVtjSF1jKFtjSF1uMSlbTkhdQyg9TylbTkhdW0NASF0yQyhbQ0gzXSkoW0NIM10pW0NAQEhdKFtDQEhdMjMpT1tDSDJdW0NIMl0z

> <s_epik_cmdline>
J2VwaWtfcHl0aG9uJywgJy1waCcsICc3LjAnLCAnLXRuJywgJzgnLCAnLW1hJywgJzIwMCcsICctbWV0YWxfYmluZGluZycsICctaW1hZScsICc8aW5maWxlLm1hZT4nLCAnLW9tYWUnLCAnPG91dGZpbGUubWFlPic=

> <r_lp_tautomer_probability>
0.999994

> <r_epik_Ionization_Penalty>
0.252205

> <r_epik_Ionization_Penalty_Charging>
0.252185

> <r_epik_Ionization_Penalty_Neutral>
1.99479e-05

> <r_epik_State_Penalty>
0.243573

> <r_epik_Charging_Adjusted_Penalty>
0.495758

> <i_epik_Tot_Q>
1

> <i_epik_Tot_abs_Q>
1

> <r_epik_Metal_State_Penalty>
0.534372

> <b_epik_Metal_Only>
0

> <s_lp_Force_Field>
OPLS_2005

> <r_lp_Energy>
76.1272

> <b_lp_Chiralities_Consistent>
1

> <s_lp_Variant>
AV-unprocessed.smi:2923-1

> <Gold.Version>
5.8.1

> <Gold.Id.Protein>
6NUR|6NUR_protein|mol2

> <Gold.PLP.Fitness>
39.4307

> <Gold.PLP.PLP>
-34.7538

> <Gold.PLP.part.hbond>
-2.8717

> <Gold.PLP.part.metal>
0.0000

> <Gold.PLP.part.buried>
-2.2656

> <Gold.PLP.part.nonpolar>
-29.7926

> <Gold.PLP.part.repulsive>
0.2770

> <Gold.PLP.ligand.clash>
0.0000

> <Gold.PLP.ligand.torsion>
0.3261

> <Gold.PLP.Chemscore.Hbond>
1.6240

> <Gold.PLP.Chemscore.CHOScore>
0.0000

> <Gold.PLP.Chemscore.Metal>
0.0000

> <Gold.Chemscore.Hbonds>
donor molecule, donor type, donor heavy atom, donor atom, acceptor molecule, acceptor atom, score
      L1  H     8    31       P1  7948  1.00
      P1  H  8011  8017       L1    16  0.62

> <Gold.PLP.Chemscore.Internal.Correction>
0.4570

> <Gold.Rescore>
     Score         DG    S(hbond)    S(metal)    S(lipo)     H(rot)  DE(clash)    DE(int)     intcor
     14.32     -16.11       1.44        0.00      76.16       1.20       0.26       1.52       ----

> <Gold.Chemscore.Fitness>
14.3236

> <Gold.Chemscore.DG>
-16.1111

> <Gold.Chemscore.ZeroCoef>
-5.4800

> <Gold.Chemscore.Hbond>
1.4388

> <Gold.Chemscore.Metal>
0.0000

> <Gold.Chemscore.Lipo>
76.1564

> <Gold.Chemscore.Internal_Hbond>
0.0000

> <Gold.Chemscore.DEClash>
0.2646

> <Gold.Chemscore.DEInternal>
1.5230

> <Gold.Chemscore.Rot>
1.2049

> <Gold.Chemscore.Internal.Correction>
   9.000000E+99

> <Gold.Chemscore.Hbonds>
donor molecule, donor type, donor heavy atom, donor atom, acceptor molecule, acceptor atom, score
      L1  H     8    31       P1  7948  0.94
      P1  H  8011  8017       L1    16  0.14

> <Gold.Chemscore.Hbond.Weighted>
-4.8055

> <Gold.Chemscore.Metal.Weighted>
-0.0000

> <Gold.Chemscore.Lipo.Weighted>
-8.9103

> <Gold.Chemscore.Internal_Hbond.Weighted>
0.0000

> <Gold.Chemscore.DEClash.Weighted>
0.2646

> <Gold.Chemscore.DEInternal.Weighted>
1.5230

> <Gold.Chemscore.Rot.Weighted>
3.0846

> <Gold.Chemscore.Internal.Correction.Weighted>
   9.000000E+99

> <Gold.Protein.RotatedTorsions>
[ 6907 6896 6895 6894 ] final -123.90 input  -60.11 | X-H torsion
[ 7974 7965 7964 7962 ] final   31.50 input  175.53 | X-H torsion
[ 8008 7997 7996 7995 ] final -124.87 input   59.86 | X-H torsion
[ 10167 10162 10161 10158 ] final -177.81 input  -65.29 | X-H torsion
[ 10718 10713 10712 10709 ] final  101.20 input   66.30 | X-H torsion
[ 10763 10752 10751 10750 ] final   66.03 input  -60.55 | X-H torsion
[ 11005 11000 10999 10996 ] final   -8.45 input  -57.11 | X-H torsion

> <Gold.Protein.ActiveResidues>
 VAL166  LYS551  ARG553  GLY616  TRP617  ASP618  TYR619  PRO620  LYS621  CYS622 
 ASP623  PHE694  ASN695  SER759  ASP760  ASP761  ALA762  ILE779  LEU786  VAL792 
 PHE793  MET794  SER795  GLU796  ALA797  LYS798  CYS799  TRP800  GLU811  SER814 

> <Gold.Protein.RotatedAtoms>
  150.8716  133.7498  159.2959 H   0  0  0  0  0  0  0  0  0  0  0  0  # atno 6907 bound_to 6896
  151.5108  135.1063  159.9863 H   0  0  0  0  0  0  0  0  0  0  0  0  # atno 6908 bound_to 6896
  152.4699  133.7960  159.6983 H   0  0  0  0  0  0  0  0  0  0  0  0  # atno 6909 bound_to 6896
  146.1546  139.6649  142.9075 H   0  0  0  0  0  0  0  0  0  0  0  0  # atno 7974 bound_to 7965
  155.2040  140.0417  157.2922 H   0  0  0  0  0  0  0  0  0  0  0  0  # atno 8008 bound_to 7997
  154.6056  140.2463  155.7707 H   0  0  0  0  0  0  0  0  0  0  0  0  # atno 8009 bound_to 7997
  156.2348  140.2925  156.0292 H   0  0  0  0  0  0  0  0  0  0  0  0  # atno 8010 bound_to 7997
  139.5462  144.2229  152.0992 H   0  0  0  0  0  0  0  0  0  0  0  0  # atno 10167 bound_to 10162
  157.6835  131.0719  150.5216 H   0  0  0  0  0  0  0  0  0  0  0  0  # atno 10718 bound_to 10713
  153.0122  135.5335  154.6761 H   0  0  0  0  0  0  0  0  0  0  0  0  # atno 10763 bound_to 10752
  154.5933  135.2861  155.0615 H   0  0  0  0  0  0  0  0  0  0  0  0  # atno 10764 bound_to 10752
  154.1700  135.6533  153.5059 H   0  0  0  0  0  0  0  0  0  0  0  0  # atno 10765 bound_to 10752
  140.7236  133.8807  155.8839 H   0  0  0  0  0  0  0  0  0  0  0  0  # atno 11005 bound_to 11000
  145.4739  141.0436  143.2683 LP  0  0  0  0  0  0  0  0  0  0  0  0  # atno 17320 bound_to 7965
  144.7947  139.6257  143.7098 LP  0  0  0  0  0  0  0  0  0  0  0  0  # atno 17321 bound_to 7965
  140.1716  144.4930  150.6576 LP  0  0  0  0  0  0  0  0  0  0  0  0  # atno 17342 bound_to 10162
  140.6711  143.2286  151.5623 LP  0  0  0  0  0  0  0  0  0  0  0  0  # atno 17343 bound_to 10162
  156.5529  130.4236  149.6099 LP  0  0  0  0  0  0  0  0  0  0  0  0  # atno 17370 bound_to 10713
  156.2887  130.7112  151.1955 LP  0  0  0  0  0  0  0  0  0  0  0  0  # atno 17371 bound_to 10713
  140.9982  134.1187  157.4343 LP  0  0  0  0  0  0  0  0  0  0  0  0  # atno 17394 bound_to 11000
  139.8842  135.0060  156.6354 LP  0  0  0  0  0  0  0  0  0  0  0  0  # atno 17395 bound_to 11000

$$$$
