AV-unprocessed.smi:3117|AV-procd|sdf|11883|dock1
  -GOLD-   2272017273D 1   1.00000     0.00000
 Structure written by MMmdl.
 36 36  0  0  0  0  0  0  0  0  1 V2000
  151.0245  142.7835  157.1100 C   0  0  0  0  0  0  0  0  0  0  0  0
  151.4379  141.5723  157.9771 C   0  0  1  0  0  0  0  0  0  0  0  0
  151.7505  140.4085  157.1385 N   0  0  0  0  0  0  0  0  0  0  0  0
  151.0386  140.3256  155.8612 C   0  0  0  0  0  0  0  0  0  0  0  0
  151.3170  138.9989  155.1208 C   0  0  0  0  0  0  0  0  0  0  0  0
  152.8200  138.6900  154.9770 C   0  0  0  0  0  0  0  0  0  0  0  0
  150.6061  137.8416  155.8416 C   0  0  0  0  0  0  0  0  0  0  0  0
  150.7408  139.0804  153.8313 O   0  0  0  0  0  0  0  0  0  0  0  0
  152.6500  141.8776  158.8999 C   0  0  2  0  0  0  0  0  0  0  0  0
  153.0886  140.6466  159.7175 C   0  0  0  0  0  0  0  0  0  0  0  0
  152.4072  143.0064  159.7906 N   0  0  0  0  0  0  0  0  0  0  0  0
  152.1126  144.3110  159.4515 C   0  0  0  0  0  0  0  0  0  0  0  0
  151.9648  145.0128  160.6133 C   0  0  0  0  0  0  0  0  0  0  0  0
  152.1893  144.0397  161.6265 C   0  0  0  0  0  0  0  0  0  0  0  0
  152.4524  142.8410  161.1326 N   0  0  0  0  0  0  0  0  0  0  0  0
  150.7621  143.6481  157.7193 H   0  0  0  0  0  0  0  0  0  0  0  0
  150.1464  142.5723  156.5012 H   0  0  0  0  0  0  0  0  0  0  0  0
  151.8312  143.0836  156.4406 H   0  0  0  0  0  0  0  0  0  0  0  0
  150.5900  141.3255  158.6176 H   0  0  0  0  0  0  0  0  0  0  0  0
  152.7502  140.3647  156.9678 H   0  0  0  0  0  0  0  0  0  0  0  0
  149.9668  140.4165  156.0414 H   0  0  0  0  0  0  0  0  0  0  0  0
  151.3137  141.1559  155.2113 H   0  0  0  0  0  0  0  0  0  0  0  0
  153.3059  138.6473  155.9524 H   0  0  0  0  0  0  0  0  0  0  0  0
  153.3375  139.4448  154.3838 H   0  0  0  0  0  0  0  0  0  0  0  0
  152.9816  137.7294  154.4865 H   0  0  0  0  0  0  0  0  0  0  0  0
  150.9982  137.7077  156.8504 H   0  0  0  0  0  0  0  0  0  0  0  0
  150.7381  136.8980  155.3110 H   0  0  0  0  0  0  0  0  0  0  0  0
  149.5339  138.0238  155.9277 H   0  0  0  0  0  0  0  0  0  0  0  0
  150.0984  138.3927  153.7460 H   0  0  0  0  0  0  0  0  0  0  0  0
  153.4902  142.1639  158.2648 H   0  0  0  0  0  0  0  0  0  0  0  0
  153.4095  139.8301  159.0704 H   0  0  0  0  0  0  0  0  0  0  0  0
  152.2775  140.2714  160.3425 H   0  0  0  0  0  0  0  0  0  0  0  0
  153.9269  140.8894  160.3711 H   0  0  0  0  0  0  0  0  0  0  0  0
  152.0328  144.6282  158.4222 H   0  0  0  0  0  0  0  0  0  0  0  0
  151.7314  146.0613  160.7229 H   0  0  0  0  0  0  0  0  0  0  0  0
  152.1689  144.1678  162.6985 H   0  0  0  0  0  0  0  0  0  0  0  0
  1  2  1  0  0  0  0
  1 16  1  0  0  0  0
  1 17  1  0  0  0  0
  1 18  1  0  0  0  0
  2  3  1  0  0  0  0
  2  9  1  0  0  0  0
  2 19  1  0  0  0  0
  3  4  1  0  0  0  0
  3 20  1  0  0  0  0
  4  5  1  0  0  0  0
  4 21  1  0  0  0  0
  4 22  1  0  0  0  0
  5  6  1  0  0  0  0
  5  7  1  0  0  0  0
  5  8  1  0  0  0  0
  6 23  1  0  0  0  0
  6 24  1  0  0  0  0
  6 25  1  0  0  0  0
  7 26  1  0  0  0  0
  7 27  1  0  0  0  0
  7 28  1  0  0  0  0
  8 29  1  0  0  0  0
  9 10  1  0  0  0  0
  9 11  1  0  0  0  0
  9 30  1  0  0  0  0
 10 31  1  0  0  0  0
 10 32  1  0  0  0  0
 10 33  1  0  0  0  0
 11 15  1  0  0  0  0
 11 12  1  0  0  0  0
 12 13  2  0  0  0  0
 12 34  1  0  0  0  0
 13 14  1  0  0  0  0
 13 35  1  0  0  0  0
 14 15  2  0  0  0  0
 14 36  1  0  0  0  0
M  END
> <s_m_source_file>
AV-unprocessed.smi

> <i_m_source_file_index>
3117

> <i_lp_mmshare_version>
43012

> <i_f3d_flags>
0

> <s_epik_input>
W0NIM11DKFtDSDNdKShbT0hdKVtDSDJdW05IXVtDQEBIXShbQ0gzXSlbQ0BIXShbQ0gzXSluMVtjSF1bY0hdW2NIXW4x

> <s_epik_cmdline>
J2VwaWtfcHl0aG9uJywgJy1waCcsICc3LjAnLCAnLXRuJywgJzgnLCAnLW1hJywgJzIwMCcsICctbWV0YWxfYmluZGluZycsICctaW1hZScsICc8aW5maWxlLm1hZT4nLCAnLW9tYWUnLCAnPG91dGZpbGUubWFlPic=

> <r_lp_tautomer_probability>
1

> <r_epik_Ionization_Penalty>
2.13419

> <r_epik_Ionization_Penalty_Charging>
0

> <r_epik_Ionization_Penalty_Neutral>
2.13419

> <r_epik_State_Penalty>
2.27148

> <r_epik_Charging_Adjusted_Penalty>
2.27148

> <i_epik_Tot_Q>
0

> <i_epik_Tot_abs_Q>
0

> <r_epik_Metal_State_Penalty>
2.27029

> <b_epik_Metal_Only>
0

> <s_lp_Force_Field>
OPLS_2005

> <r_lp_Energy>
18.8486

> <b_lp_Chiralities_Consistent>
1

> <s_lp_Variant>
AV-unprocessed.smi:3117-6

> <Gold.Version>
5.8.1

> <Gold.Id.Protein>
6NUR|6NUR_protein|mol2

> <Gold.PLP.Fitness>
37.7891

> <Gold.PLP.PLP>
-36.6382

> <Gold.PLP.part.hbond>
-1.9826

> <Gold.PLP.part.metal>
0.0000

> <Gold.PLP.part.buried>
-2.9990

> <Gold.PLP.part.nonpolar>
-32.5518

> <Gold.PLP.part.repulsive>
0.0655

> <Gold.PLP.ligand.clash>
0.0005

> <Gold.PLP.ligand.torsion>
0.4688

> <Gold.PLP.Chemscore.Hbond>
0.6500

> <Gold.PLP.Chemscore.CHOScore>
0.0000

> <Gold.PLP.Chemscore.Metal>
0.0000

> <Gold.Chemscore.Hbonds>
donor molecule, donor type, donor heavy atom, donor atom, acceptor molecule, acceptor atom, score
      P1  H  7989  7998       L1     8  0.60

> <Gold.PLP.Chemscore.Internal.Correction>
0.1389

> <Gold.Rescore>
     Score         DG    S(hbond)    S(metal)    S(lipo)     H(rot)  DE(clash)    DE(int)     intcor
     10.99     -11.56       0.00        0.00      99.73       2.19       0.06       0.51       ----

> <Gold.Chemscore.Fitness>
10.9872

> <Gold.Chemscore.DG>
-11.5576

> <Gold.Chemscore.ZeroCoef>
-5.4800

> <Gold.Chemscore.Hbond>
0.0032

> <Gold.Chemscore.Metal>
0.0000

> <Gold.Chemscore.Lipo>
99.7318

> <Gold.Chemscore.Internal_Hbond>
0.0000

> <Gold.Chemscore.DEClash>
0.0562

> <Gold.Chemscore.DEInternal>
0.5141

> <Gold.Chemscore.Rot>
2.1882

> <Gold.Chemscore.Internal.Correction>
   9.000000E+99

> <Gold.Chemscore.Hbonds>
donor molecule, donor type, donor heavy atom, donor atom, acceptor molecule, acceptor atom, score
      P1  H  7989  7998       L1     8  0.04

> <Gold.Chemscore.Hbond.Weighted>
-0.0107

> <Gold.Chemscore.Metal.Weighted>
-0.0000

> <Gold.Chemscore.Lipo.Weighted>
-11.6686

> <Gold.Chemscore.Internal_Hbond.Weighted>
0.0000

> <Gold.Chemscore.DEClash.Weighted>
0.0562

> <Gold.Chemscore.DEInternal.Weighted>
0.5141

> <Gold.Chemscore.Rot.Weighted>
5.6018

> <Gold.Chemscore.Internal.Correction.Weighted>
   9.000000E+99

> <Gold.Protein.RotatedTorsions>
[ 6907 6896 6895 6894 ] final   65.94 input  -60.11 | X-H torsion
[ 7974 7965 7964 7962 ] final -176.07 input  175.53 | X-H torsion
[ 8008 7997 7996 7995 ] final  148.34 input   59.86 | X-H torsion
[ 10167 10162 10161 10158 ] final   56.95 input  -65.29 | X-H torsion
[ 10718 10713 10712 10709 ] final -121.86 input   66.30 | X-H torsion
[ 10763 10752 10751 10750 ] final -164.83 input  -60.55 | X-H torsion
[ 11005 11000 10999 10996 ] final  -67.66 input  -57.11 | X-H torsion

> <Gold.Protein.ActiveResidues>
 VAL166  LYS551  ARG553  GLY616  TRP617  ASP618  TYR619  PRO620  LYS621  CYS622 
 ASP623  PHE694  ASN695  SER759  ASP760  ASP761  ALA762  ILE779  LEU786  VAL792 
 PHE793  MET794  SER795  GLU796  ALA797  LYS798  CYS799  TRP800  GLU811  SER814 

> <Gold.Protein.RotatedAtoms>
  152.4445  134.5524  159.9870 H   0  0  0  0  0  0  0  0  0  0  0  0  # atno 6907 bound_to 6896
  151.5612  133.3397  159.2979 H   0  0  0  0  0  0  0  0  0  0  0  0  # atno 6908 bound_to 6896
  150.8358  134.7663  159.6955 H   0  0  0  0  0  0  0  0  0  0  0  0  # atno 6909 bound_to 6896
  144.7127  140.1226  143.6404 H   0  0  0  0  0  0  0  0  0  0  0  0  # atno 7974 bound_to 7965
  156.2794  140.2131  156.5682 H   0  0  0  0  0  0  0  0  0  0  0  0  # atno 8008 bound_to 7997
  154.7157  140.0508  157.0615 H   0  0  0  0  0  0  0  0  0  0  0  0  # atno 8009 bound_to 7997
  155.0545  140.3160  155.4684 H   0  0  0  0  0  0  0  0  0  0  0  0  # atno 8010 bound_to 7997
  140.2033  144.3966  150.6520 H   0  0  0  0  0  0  0  0  0  0  0  0  # atno 10167 bound_to 10162
  156.1371  130.6439  150.9714 H   0  0  0  0  0  0  0  0  0  0  0  0  # atno 10718 bound_to 10713
  154.6990  135.2984  154.9368 H   0  0  0  0  0  0  0  0  0  0  0  0  # atno 10763 bound_to 10752
  154.0306  135.6670  153.4784 H   0  0  0  0  0  0  0  0  0  0  0  0  # atno 10764 bound_to 10752
  153.0667  135.5084  154.8124 H   0  0  0  0  0  0  0  0  0  0  0  0  # atno 10765 bound_to 10752
  141.1513  133.6724  156.6326 H   0  0  0  0  0  0  0  0  0  0  0  0  # atno 11005 bound_to 11000
  145.9358  139.2636  143.1298 LP  0  0  0  0  0  0  0  0  0  0  0  0  # atno 17320 bound_to 7965
  145.9476  140.8933  143.0276 LP  0  0  0  0  0  0  0  0  0  0  0  0  # atno 17321 bound_to 7965
  140.6375  143.2197  151.6362 LP  0  0  0  0  0  0  0  0  0  0  0  0  # atno 17342 bound_to 10162
  139.5209  144.3210  152.0910 LP  0  0  0  0  0  0  0  0  0  0  0  0  # atno 17343 bound_to 10162
  157.6542  131.0892  150.7983 LP  0  0  0  0  0  0  0  0  0  0  0  0  # atno 17370 bound_to 10713
  156.8062  130.4937  149.5362 LP  0  0  0  0  0  0  0  0  0  0  0  0  # atno 17371 bound_to 10713
  140.3455  134.7813  157.4429 LP  0  0  0  0  0  0  0  0  0  0  0  0  # atno 17394 bound_to 11000
  140.0903  134.5610  155.8451 LP  0  0  0  0  0  0  0  0  0  0  0  0  # atno 17395 bound_to 11000

$$$$
