AV-unprocessed.smi:3241|AV-procd|sdf|12385|dock2
  -GOLD-   2272018253D 1   1.00000     0.00000
 Structure written by MMmdl.
 44 45  0  0  0  0  0  0  0  0  2 V2000
  154.2016  140.2649  161.4070 C   0  0  0  0  0  0  0  0  0  0  0  0
  153.7034  141.4350  160.5429 C   0  0  2  0  0  0  0  0  0  0  0  0
  152.9860  142.4856  161.4143 C   0  0  0  0  0  0  0  0  0  0  0  0
  152.4731  143.6667  160.5772 C   0  0  0  0  0  0  0  0  0  0  0  0
  151.5531  143.1827  159.4482 C   0  0  0  0  0  0  0  0  0  0  0  0
  152.2618  142.1441  158.5666 C   0  0  0  0  0  0  0  0  0  0  0  0
  152.7823  140.9523  159.3990 C   0  0  1  0  0  0  0  0  0  0  0  0
  153.5414  140.0813  158.5685 O   0  0  0  0  0  0  0  0  0  0  0  0
  153.1541  138.7165  158.6307 C   0  0  0  0  0  0  0  0  0  0  0  0
  152.1681  138.4395  157.4915 C   0  0  0  0  0  0  0  0  0  0  0  0
  152.2428  139.4911  156.4585 N   0  3  0  0  0  0  0  0  0  0  0  0
  152.4561  138.9764  155.0924 C   0  0  0  0  0  0  0  0  0  0  0  0
  151.1728  138.3441  154.5351 C   0  0  0  0  0  0  0  0  0  0  0  0
  150.1425  139.3368  154.2996 N   0  0  0  0  0  0  0  0  0  0  0  0
  148.8867  139.1596  153.7579 C   0  0  0  0  0  0  0  0  0  0  0  0
  148.2795  140.3825  153.7324 C   0  0  0  0  0  0  0  0  0  0  0  0
  149.2571  141.2571  154.2838 C   0  0  0  0  0  0  0  0  0  0  0  0
  150.3717  140.6280  154.6213 N   0  0  0  0  0  0  0  0  0  0  0  0
  153.3706  139.7336  161.8719 H   0  0  0  0  0  0  0  0  0  0  0  0
  154.8576  140.6176  162.2033 H   0  0  0  0  0  0  0  0  0  0  0  0
  154.7673  139.5449  160.8153 H   0  0  0  0  0  0  0  0  0  0  0  0
  154.5771  141.9127  160.0968 H   0  0  0  0  0  0  0  0  0  0  0  0
  152.1480  142.0214  161.9365 H   0  0  0  0  0  0  0  0  0  0  0  0
  153.6621  142.8550  162.1862 H   0  0  0  0  0  0  0  0  0  0  0  0
  151.9395  144.3712  161.2157 H   0  0  0  0  0  0  0  0  0  0  0  0
  153.3184  144.2113  160.1544 H   0  0  0  0  0  0  0  0  0  0  0  0
  150.6486  142.7463  159.8739 H   0  0  0  0  0  0  0  0  0  0  0  0
  151.2326  144.0299  158.8411 H   0  0  0  0  0  0  0  0  0  0  0  0
  151.5720  141.8039  157.7947 H   0  0  0  0  0  0  0  0  0  0  0  0
  153.0954  142.6190  158.0476 H   0  0  0  0  0  0  0  0  0  0  0  0
  151.9394  140.4149  159.8381 H   0  0  0  0  0  0  0  0  0  0  0  0
  154.0332  138.0816  158.5112 H   0  0  0  0  0  0  0  0  0  0  0  0
  152.7012  138.4719  159.5917 H   0  0  0  0  0  0  0  0  0  0  0  0
  152.3732  137.4648  157.0468 H   0  0  0  0  0  0  0  0  0  0  0  0
  151.1519  138.4059  157.8865 H   0  0  0  0  0  0  0  0  0  0  0  0
  151.3828  140.0207  156.4736 H   0  0  0  0  0  0  0  0  0  0  0  0
  152.7782  139.7944  154.4463 H   0  0  0  0  0  0  0  0  0  0  0  0
  153.2624  138.2418  155.1103 H   0  0  0  0  0  0  0  0  0  0  0  0
  151.3756  137.8258  153.5967 H   0  0  0  0  0  0  0  0  0  0  0  0
  150.7834  137.5997  155.2309 H   0  0  0  0  0  0  0  0  0  0  0  0
  148.5326  138.1903  153.4393 H   0  0  0  0  0  0  0  0  0  0  0  0
  147.2886  140.6173  153.3731 H   0  0  0  0  0  0  0  0  0  0  0  0
  149.1905  142.3227  154.4468 H   0  0  0  0  0  0  0  0  0  0  0  0
  153.0072  140.1091  156.6912 H   0  0  0  0  0  0  0  0  0  0  0  0
  1  2  1  0  0  0  0
  1 19  1  0  0  0  0
  1 20  1  0  0  0  0
  1 21  1  0  0  0  0
  2  7  1  0  0  0  0
  2  3  1  0  0  0  0
  2 22  1  0  0  0  0
  3  4  1  0  0  0  0
  3 23  1  0  0  0  0
  3 24  1  0  0  0  0
  4  5  1  0  0  0  0
  4 25  1  0  0  0  0
  4 26  1  0  0  0  0
  5  6  1  0  0  0  0
  5 27  1  0  0  0  0
  5 28  1  0  0  0  0
  6  7  1  0  0  0  0
  6 29  1  0  0  0  0
  6 30  1  0  0  0  0
  7  8  1  0  0  0  0
  7 31  1  0  0  0  0
  8  9  1  0  0  0  0
  9 10  1  0  0  0  0
  9 32  1  0  0  0  0
  9 33  1  0  0  0  0
 10 11  1  0  0  0  0
 10 34  1  0  0  0  0
 10 35  1  0  0  0  0
 11 12  1  0  0  0  0
 11 36  1  0  0  0  0
 11 44  1  0  0  0  0
 12 13  1  0  0  0  0
 12 37  1  0  0  0  0
 12 38  1  0  0  0  0
 13 14  1  0  0  0  0
 13 39  1  0  0  0  0
 13 40  1  0  0  0  0
 14 18  1  0  0  0  0
 14 15  1  0  0  0  0
 15 16  2  0  0  0  0
 15 41  1  0  0  0  0
 16 17  1  0  0  0  0
 16 42  1  0  0  0  0
 17 18  2  0  0  0  0
 17 43  1  0  0  0  0
M  CHG  1  11   1
M  END
> <s_m_source_file>
AV-unprocessed.smi

> <i_m_source_file_index>
3241

> <i_lp_mmshare_version>
43012

> <i_f3d_flags>
0

> <s_epik_input>
W0NIM11bQ0BASF0xW0NIMl1bQ0gyXVtDSDJdW0NIMl1bQ0BIXTFPW0NIMl1bQ0gyXVtOSF1bQ0gyXVtDSDJdbjJbY0hdW2NIXVtjSF1uMg==

> <s_epik_cmdline>
J2VwaWtfcHl0aG9uJywgJy1waCcsICc3LjAnLCAnLXRuJywgJzgnLCAnLW1hJywgJzIwMCcsICctbWV0YWxfYmluZGluZycsICctaW1hZScsICc8aW5maWxlLm1hZT4nLCAnLW9tYWUnLCAnPG91dGZpbGUubWFlPic=

> <r_lp_tautomer_probability>
1

> <r_epik_Ionization_Penalty>
0.00924946

> <r_epik_Ionization_Penalty_Charging>
0.00924645

> <r_epik_Ionization_Penalty_Neutral>
3.00629e-06

> <r_epik_State_Penalty>
0.0070118

> <r_epik_Charging_Adjusted_Penalty>
0.0162583

> <i_epik_Tot_Q>
1

> <i_epik_Tot_abs_Q>
1

> <r_epik_Metal_State_Penalty>
0.00702523

> <b_epik_Metal_Only>
0

> <s_lp_Force_Field>
OPLS_2005

> <r_lp_Energy>
13.7412

> <b_lp_Chiralities_Consistent>
1

> <s_lp_Variant>
AV-unprocessed.smi:3241-1

> <Gold.Version>
5.8.1

> <Gold.Id.Protein>
6NUR|6NUR_protein|mol2

> <Gold.PLP.Fitness>
47.6563

> <Gold.PLP.PLP>
-40.5530

> <Gold.PLP.part.hbond>
-2.0000

> <Gold.PLP.part.metal>
0.0000

> <Gold.PLP.part.buried>
-1.4356

> <Gold.PLP.part.nonpolar>
-36.3682

> <Gold.PLP.part.repulsive>
0.2281

> <Gold.PLP.ligand.clash>
0.0000

> <Gold.PLP.ligand.torsion>
1.6802

> <Gold.PLP.Chemscore.Hbond>
1.9760

> <Gold.PLP.Chemscore.CHOScore>
1.4108

> <Gold.PLP.Chemscore.Metal>
0.0000

> <Gold.Chemscore.Hbonds>
donor molecule, donor type, donor heavy atom, donor atom, acceptor molecule, acceptor atom, score
      P1  H  7989  7998       L1    18  0.78
      P1  H  7997  8008       L1     8  0.98
      L1  C    15    41       P1  7948  0.99
      L1  C    17    43       P1  8028  0.61

> <Gold.PLP.Chemscore.Internal.Correction>
0.3034

> <Gold.Rescore>
     Score         DG    S(hbond)    S(metal)    S(lipo)     H(rot)  DE(clash)    DE(int)     intcor
     16.52     -19.37       1.59        0.00     114.63       1.89       0.07       2.78       ----

> <Gold.Chemscore.Fitness>
16.5234

> <Gold.Chemscore.DG>
-19.3735

> <Gold.Chemscore.ZeroCoef>
-5.4800

> <Gold.Chemscore.Hbond>
1.5935

> <Gold.Chemscore.Metal>
0.0000

> <Gold.Chemscore.Lipo>
114.6252

> <Gold.Chemscore.Internal_Hbond>
0.0000

> <Gold.Chemscore.DEClash>
0.0730

> <Gold.Chemscore.DEInternal>
2.7771

> <Gold.Chemscore.Rot>
1.8906

> <Gold.Chemscore.Internal.Correction>
   9.000000E+99

> <Gold.Chemscore.Hbonds>
donor molecule, donor type, donor heavy atom, donor atom, acceptor molecule, acceptor atom, score
      P1  H  7989  7998       L1    18  0.11
      P1  H  7997  8008       L1     8  0.28

> <Gold.Chemscore.Hbond.Weighted>
-5.3224

> <Gold.Chemscore.Metal.Weighted>
-0.0000

> <Gold.Chemscore.Lipo.Weighted>
-13.4111

> <Gold.Chemscore.Internal_Hbond.Weighted>
0.0000

> <Gold.Chemscore.DEClash.Weighted>
0.0730

> <Gold.Chemscore.DEInternal.Weighted>
2.7771

> <Gold.Chemscore.Rot.Weighted>
4.8400

> <Gold.Chemscore.Internal.Correction.Weighted>
   9.000000E+99

> <Gold.Protein.RotatedTorsions>
[ 6907 6896 6895 6894 ] final  -89.02 input  -60.11 | X-H torsion
[ 7974 7965 7964 7962 ] final -110.76 input  175.53 | X-H torsion
[ 8008 7997 7996 7995 ] final -102.27 input   59.86 | X-H torsion
[ 10167 10162 10161 10158 ] final -161.84 input  -65.29 | X-H torsion
[ 10718 10713 10712 10709 ] final  -12.15 input   66.30 | X-H torsion
[ 10763 10752 10751 10750 ] final -123.96 input  -60.55 | X-H torsion
[ 11005 11000 10999 10996 ] final    8.04 input  -57.11 | X-H torsion

> <Gold.Protein.ActiveResidues>
 VAL166  LYS551  ARG553  GLY616  TRP617  ASP618  TYR619  PRO620  LYS621  CYS622 
 ASP623  PHE694  ASN695  SER759  ASP760  ASP761  ALA762  ILE779  LEU786  VAL792 
 PHE793  MET794  SER795  GLU796  ALA797  LYS798  CYS799  TRP800  GLU811  SER814 

> <Gold.Protein.RotatedAtoms>
  150.6871  134.2651  159.4565 H   0  0  0  0  0  0  0  0  0  0  0  0  # atno 6907 bound_to 6896
  152.0578  134.9611  160.0584 H   0  0  0  0  0  0  0  0  0  0  0  0  # atno 6908 bound_to 6896
  152.1049  133.4235  159.4641 H   0  0  0  0  0  0  0  0  0  0  0  0  # atno 6909 bound_to 6896
  145.1643  140.8894  143.3572 H   0  0  0  0  0  0  0  0  0  0  0  0  # atno 7974 bound_to 7965
  154.8542  140.0429  157.1624 H   0  0  0  0  0  0  0  0  0  0  0  0  # atno 8008 bound_to 7997
  154.8909  140.2986  155.5350 H   0  0  0  0  0  0  0  0  0  0  0  0  # atno 8009 bound_to 7997
  156.2997  140.2393  156.3925 H   0  0  0  0  0  0  0  0  0  0  0  0  # atno 8010 bound_to 7997
  139.6436  144.0214  152.2110 H   0  0  0  0  0  0  0  0  0  0  0  0  # atno 10167 bound_to 10162
  156.6488  130.4949  149.6069 H   0  0  0  0  0  0  0  0  0  0  0  0  # atno 10718 bound_to 10713
  154.8716  135.4080  154.3028 H   0  0  0  0  0  0  0  0  0  0  0  0  # atno 10763 bound_to 10752
  153.3885  135.7014  153.6518 H   0  0  0  0  0  0  0  0  0  0  0  0  # atno 10764 bound_to 10752
  153.5310  135.3667  155.2647 H   0  0  0  0  0  0  0  0  0  0  0  0  # atno 10765 bound_to 10752
  140.5415  134.0370  155.7906 H   0  0  0  0  0  0  0  0  0  0  0  0  # atno 11005 bound_to 11000
  145.0298  139.3351  143.6030 LP  0  0  0  0  0  0  0  0  0  0  0  0  # atno 17320 bound_to 7965
  146.3478  139.9631  142.8715 LP  0  0  0  0  0  0  0  0  0  0  0  0  # atno 17321 bound_to 7965
  139.9910  144.6362  150.7815 LP  0  0  0  0  0  0  0  0  0  0  0  0  # atno 17342 bound_to 10162
  140.7503  143.2953  151.3220 LP  0  0  0  0  0  0  0  0  0  0  0  0  # atno 17343 bound_to 10162
  156.2101  130.6673  151.1260 LP  0  0  0  0  0  0  0  0  0  0  0  0  # atno 17370 bound_to 10713
  157.7147  131.0716  150.6370 LP  0  0  0  0  0  0  0  0  0  0  0  0  # atno 17371 bound_to 10713
  141.1224  133.9439  157.2702 LP  0  0  0  0  0  0  0  0  0  0  0  0  # atno 17394 bound_to 11000
  139.9501  135.0177  156.8970 LP  0  0  0  0  0  0  0  0  0  0  0  0  # atno 17395 bound_to 11000

$$$$
