AV-unprocessed.smi:252|AV-procd|sdf|1939|dock6
  -GOLD-   2262021 63D 1   1.00000     0.00000
 Structure written by MMmdl.
 56 59  0  0  0  0  0  0  0  0  1 V2000
  153.4928  142.1226  161.2027 C   0  0  0  0  0  0  0  0  0  0  0  0
  152.5457  142.8279  160.2190 C   0  0  0  0  0  0  0  0  0  0  0  0
  151.9198  141.8865  159.1846 C   0  0  0  0  0  0  0  0  0  0  0  0
  152.2695  140.7083  159.1045 O   0  0  0  0  0  0  0  0  0  0  0  0
  150.9852  142.4309  158.3905 N   0  0  0  0  0  0  0  0  0  0  0  0
  150.2511  141.7238  157.3461 C   0  0  1  0  0  0  0  0  0  0  0  0
  151.2209  141.3007  156.2266 C   0  0  0  0  0  0  0  0  0  0  0  0
  150.4891  140.4681  155.1618 C   0  0  0  0  0  0  0  0  0  0  0  0
  149.7675  139.2726  155.8032 C   0  0  0  0  0  0  0  0  0  0  0  0
  148.8755  139.7262  156.8660 N   0  0  0  0  0  0  0  0  0  0  0  0
  148.0445  138.7663  157.3228 C   0  0  0  0  0  0  0  0  0  0  0  0
  146.7301  138.7848  156.9785 N   0  0  0  0  0  0  0  0  0  0  0  0
  145.9110  137.8314  157.4339 C   0  0  0  0  0  0  0  0  0  0  0  0
  146.1940  136.7957  158.2280 N   0  0  0  0  0  0  0  0  0  0  0  0
  147.5133  136.7813  158.5757 C   0  0  0  0  0  0  0  0  0  0  0  0
  148.5004  137.7192  158.1645 C   0  0  0  0  0  0  0  0  0  0  0  0
  149.7359  137.3818  158.7011 N   0  0  0  0  0  0  0  0  0  0  0  0
  149.4931  136.3016  159.3923 C   0  0  0  0  0  0  0  0  0  0  0  0
  148.1817  135.8798  159.3859 N   0  0  0  0  0  0  0  0  0  0  0  0
  147.6380  134.7176  160.0720 C   0  0  0  0  0  0  0  0  0  0  0  0
  146.5445  135.0479  161.1241 C   0  0  2  0  0  0  0  0  0  0  0  0
  145.3156  135.2449  160.4470 O   0  0  0  0  0  0  0  0  0  0  0  0
  146.8440  136.2854  161.9642 C   0  0  0  0  0  0  0  0  0  0  0  0
  147.7130  135.7172  163.0744 C   0  0  0  0  0  0  0  0  0  0  0  0
  147.0983  134.4727  163.3715 O   0  0  0  0  0  0  0  0  0  0  0  0
  146.4641  133.9404  162.2073 C   0  0  1  0  0  0  0  0  0  0  0  0
  145.0473  133.5156  162.6298 C   0  0  0  0  0  0  0  0  0  0  0  0
  149.5255  140.4916  157.9261 C   0  0  0  0  0  0  0  0  0  0  0  0
  153.8901  142.8314  161.9293 H   0  0  0  0  0  0  0  0  0  0  0  0
  154.3409  141.6723  160.6853 H   0  0  0  0  0  0  0  0  0  0  0  0
  152.9784  141.3365  161.7566 H   0  0  0  0  0  0  0  0  0  0  0  0
  151.7446  143.3158  160.7757 H   0  0  0  0  0  0  0  0  0  0  0  0
  153.0862  143.6148  159.6919 H   0  0  0  0  0  0  0  0  0  0  0  0
  150.7604  143.4060  158.5241 H   0  0  0  0  0  0  0  0  0  0  0  0
  149.5092  142.3998  156.9157 H   0  0  0  0  0  0  0  0  0  0  0  0
  151.6733  142.1792  155.7651 H   0  0  0  0  0  0  0  0  0  0  0  0
  152.0377  140.7112  156.6457 H   0  0  0  0  0  0  0  0  0  0  0  0
  149.7628  141.0955  154.6432 H   0  0  0  0  0  0  0  0  0  0  0  0
  151.1940  140.1191  154.4069 H   0  0  0  0  0  0  0  0  0  0  0  0
  149.1985  138.7316  155.0456 H   0  0  0  0  0  0  0  0  0  0  0  0
  150.4991  138.5749  156.2138 H   0  0  0  0  0  0  0  0  0  0  0  0
  144.8814  137.9086  157.1172 H   0  0  0  0  0  0  0  0  0  0  0  0
  150.2681  135.7837  159.9389 H   0  0  0  0  0  0  0  0  0  0  0  0
  147.2369  134.0372  159.3193 H   0  0  0  0  0  0  0  0  0  0  0  0
  148.4684  134.1877  160.5402 H   0  0  0  0  0  0  0  0  0  0  0  0
  145.4704  135.1713  159.5178 H   0  0  0  0  0  0  0  0  0  0  0  0
  147.3179  137.1030  161.4233 H   0  0  0  0  0  0  0  0  0  0  0  0
  145.9257  136.6782  162.4043 H   0  0  0  0  0  0  0  0  0  0  0  0
  148.7329  135.5493  162.7264 H   0  0  0  0  0  0  0  0  0  0  0  0
  147.7524  136.3631  163.9516 H   0  0  0  0  0  0  0  0  0  0  0  0
  147.0123  133.0528  161.8877 H   0  0  0  0  0  0  0  0  0  0  0  0
  144.5054  133.0587  161.8013 H   0  0  0  0  0  0  0  0  0  0  0  0
  144.4665  134.3663  162.9878 H   0  0  0  0  0  0  0  0  0  0  0  0
  145.0886  132.7820  163.4354 H   0  0  0  0  0  0  0  0  0  0  0  0
  150.2374  139.8511  158.4493 H   0  0  0  0  0  0  0  0  0  0  0  0
  148.7797  140.8046  158.6583 H   0  0  0  0  0  0  0  0  0  0  0  0
  1  2  1  0  0  0  0
  1 29  1  0  0  0  0
  1 30  1  0  0  0  0
  1 31  1  0  0  0  0
  2  3  1  0  0  0  0
  2 32  1  0  0  0  0
  2 33  1  0  0  0  0
  3  4  2  0  0  0  0
  3  5  1  0  0  0  0
  5  6  1  0  0  0  0
  5 34  1  0  0  0  0
  6 28  1  0  0  0  0
  6  7  1  0  0  0  0
  6 35  1  0  0  0  0
  7  8  1  0  0  0  0
  7 36  1  0  0  0  0
  7 37  1  0  0  0  0
  8  9  1  0  0  0  0
  8 38  1  0  0  0  0
  8 39  1  0  0  0  0
  9 10  1  0  0  0  0
  9 40  1  0  0  0  0
  9 41  1  0  0  0  0
 10 11  1  0  0  0  0
 10 28  1  0  0  0  0
 11 16  1  0  0  0  0
 11 12  2  0  0  0  0
 12 13  1  0  0  0  0
 13 14  2  0  0  0  0
 13 42  1  0  0  0  0
 14 15  1  0  0  0  0
 15 19  1  0  0  0  0
 15 16  2  0  0  0  0
 16 17  1  0  0  0  0
 17 18  2  0  0  0  0
 18 19  1  0  0  0  0
 18 43  1  0  0  0  0
 19 20  1  0  0  0  0
 20 21  1  0  0  0  0
 20 44  1  0  0  0  0
 20 45  1  0  0  0  0
 21 26  1  0  0  0  0
 21 22  1  0  0  0  0
 21 23  1  0  0  0  0
 22 46  1  0  0  0  0
 23 24  1  0  0  0  0
 23 47  1  0  0  0  0
 23 48  1  0  0  0  0
 24 25  1  0  0  0  0
 24 49  1  0  0  0  0
 24 50  1  0  0  0  0
 25 26  1  0  0  0  0
 26 27  1  0  0  0  0
 26 51  1  0  0  0  0
 27 52  1  0  0  0  0
 27 53  1  0  0  0  0
 27 54  1  0  0  0  0
 28 55  1  0  0  0  0
 28 56  1  0  0  0  0
M  END
> <s_m_source_file>
AV-unprocessed.smi

> <i_m_source_file_index>
252

> <i_lp_mmshare_version>
43012

> <i_f3d_flags>
0

> <s_epik_input>
W0NIM11bQ0gyXUMoPU8pW05IXVtDQEBIXTFbQ0gyXVtDSDJdW0NIMl1OKFtDSDJdMSljKG5bY0hdbjIpYyhjMjMpbltjSF1uM1tDSDJdW0NAQF00KFtPSF0pW0NIMl1bQ0gyXU9bQ0BIXTRbQ0gzXQ==

> <s_epik_cmdline>
J2VwaWtfcHl0aG9uJywgJy1waCcsICc3LjAnLCAnLXRuJywgJzgnLCAnLW1hJywgJzIwMCcsICctbWV0YWxfYmluZGluZycsICctaW1hZScsICc8aW5maWxlLm1hZT4nLCAnLW9tYWUnLCAnPG91dGZpbGUubWFlPic=

> <r_lp_tautomer_probability>
1

> <r_epik_Ionization_Penalty>
0.00182575

> <r_epik_Ionization_Penalty_Charging>
0

> <r_epik_Ionization_Penalty_Neutral>
0.00182575

> <r_epik_State_Penalty>
0.00104524

> <r_epik_Charging_Adjusted_Penalty>
0.00104524

> <i_epik_Tot_Q>
0

> <i_epik_Tot_abs_Q>
0

> <r_epik_Metal_State_Penalty>
-0

> <b_epik_Metal_Only>
0

> <s_lp_Force_Field>
OPLS_2005

> <r_lp_Energy>
37.9455

> <b_lp_Chiralities_Consistent>
1

> <s_lp_Variant>
AV-unprocessed.smi:252-4

> <Gold.Version>
5.8.1

> <Gold.Id.Protein>
6NUR|6NUR_protein|mol2

> <Gold.PLP.Fitness>
39.1329

> <Gold.PLP.PLP>
-40.0069

> <Gold.PLP.part.hbond>
-1.2485

> <Gold.PLP.part.metal>
0.0000

> <Gold.PLP.part.buried>
-3.6979

> <Gold.PLP.part.nonpolar>
-34.6528

> <Gold.PLP.part.repulsive>
0.0759

> <Gold.PLP.ligand.clash>
0.0000

> <Gold.PLP.ligand.torsion>
0.5719

> <Gold.PLP.Chemscore.Hbond>
0.0000

> <Gold.PLP.Chemscore.CHOScore>
0.0000

> <Gold.PLP.Chemscore.Metal>
0.0000

> <Gold.PLP.Chemscore.Internal.Correction>
0.2698

> <Gold.Rescore>
     Score         DG    S(hbond)    S(metal)    S(lipo)     H(rot)  DE(clash)    DE(int)     intcor
      7.60      -9.41       0.00        0.00      92.75       2.70       0.00       1.81       ----

> <Gold.Chemscore.Fitness>
7.5967

> <Gold.Chemscore.DG>
-9.4088

> <Gold.Chemscore.ZeroCoef>
-5.4800

> <Gold.Chemscore.Hbond>
0.0000

> <Gold.Chemscore.Metal>
0.0000

> <Gold.Chemscore.Lipo>
92.7461

> <Gold.Chemscore.Internal_Hbond>
0.0000

> <Gold.Chemscore.DEClash>
0.0047

> <Gold.Chemscore.DEInternal>
1.8074

> <Gold.Chemscore.Rot>
2.7041

> <Gold.Chemscore.Internal.Correction>
   9.000000E+99

> <Gold.Chemscore.Hbond.Weighted>
-0.0000

> <Gold.Chemscore.Metal.Weighted>
-0.0000

> <Gold.Chemscore.Lipo.Weighted>
-10.8513

> <Gold.Chemscore.Internal_Hbond.Weighted>
0.0000

> <Gold.Chemscore.DEClash.Weighted>
0.0047

> <Gold.Chemscore.DEInternal.Weighted>
1.8074

> <Gold.Chemscore.Rot.Weighted>
6.9225

> <Gold.Chemscore.Internal.Correction.Weighted>
   9.000000E+99

> <Gold.Protein.RotatedTorsions>
[ 6907 6896 6895 6894 ] final   -9.55 input  -60.11 | X-H torsion
[ 7974 7965 7964 7962 ] final   96.88 input  175.53 | X-H torsion
[ 8008 7997 7996 7995 ] final  169.69 input   59.86 | X-H torsion
[ 10167 10162 10161 10158 ] final   55.05 input  -65.29 | X-H torsion
[ 10718 10713 10712 10709 ] final   51.17 input   66.30 | X-H torsion
[ 10763 10752 10751 10750 ] final   47.53 input  -60.55 | X-H torsion
[ 11005 11000 10999 10996 ] final   25.31 input  -57.11 | X-H torsion

> <Gold.Protein.ActiveResidues>
 VAL166  LYS551  ARG553  GLY616  TRP617  ASP618  TYR619  PRO620  LYS621  CYS622 
 ASP623  PHE694  ASN695  SER759  ASP760  ASP761  ALA762  ILE779  LEU786  VAL792 
 PHE793  MET794  SER795  GLU796  ALA797  LYS798  CYS799  TRP800  GLU811  SER814 

> <Gold.Protein.RotatedAtoms>
  151.4159  135.0991  159.9599 H   0  0  0  0  0  0  0  0  0  0  0  0  # atno 6907 bound_to 6896
  152.5004  133.8753  159.7329 H   0  0  0  0  0  0  0  0  0  0  0  0  # atno 6908 bound_to 6896
  150.9258  133.6768  159.2850 H   0  0  0  0  0  0  0  0  0  0  0  0  # atno 6909 bound_to 6896
  145.4329  139.2309  143.3134 H   0  0  0  0  0  0  0  0  0  0  0  0  # atno 7974 bound_to 7965
  156.1434  140.1557  156.8885 H   0  0  0  0  0  0  0  0  0  0  0  0  # atno 8008 bound_to 7997
  154.5007  140.0826  156.7830 H   0  0  0  0  0  0  0  0  0  0  0  0  # atno 8009 bound_to 7997
  155.4035  140.3415  155.4261 H   0  0  0  0  0  0  0  0  0  0  0  0  # atno 8010 bound_to 7997
  140.2236  144.3762  150.6441 H   0  0  0  0  0  0  0  0  0  0  0  0  # atno 10167 bound_to 10162
  157.4955  130.8403  149.8253 H   0  0  0  0  0  0  0  0  0  0  0  0  # atno 10718 bound_to 10713
  152.9799  135.5973  154.3778 H   0  0  0  0  0  0  0  0  0  0  0  0  # atno 10763 bound_to 10752
  154.3446  135.2767  155.2406 H   0  0  0  0  0  0  0  0  0  0  0  0  # atno 10764 bound_to 10752
  154.4473  135.5998  153.6223 H   0  0  0  0  0  0  0  0  0  0  0  0  # atno 10765 bound_to 10752
  140.3492  134.2247  155.7681 H   0  0  0  0  0  0  0  0  0  0  0  0  # atno 11005 bound_to 11000
  146.2597  140.5068  142.8858 LP  0  0  0  0  0  0  0  0  0  0  0  0  # atno 17320 bound_to 7965
  144.8171  140.6487  143.6377 LP  0  0  0  0  0  0  0  0  0  0  0  0  # atno 17321 bound_to 7965
  140.6237  143.2179  151.6641 LP  0  0  0  0  0  0  0  0  0  0  0  0  # atno 17342 bound_to 10162
  139.5135  144.3440  152.0714 LP  0  0  0  0  0  0  0  0  0  0  0  0  # atno 17343 bound_to 10162
  156.0198  130.3800  150.1997 LP  0  0  0  0  0  0  0  0  0  0  0  0  # atno 17370 bound_to 10713
  157.0186  130.9972  151.3346 LP  0  0  0  0  0  0  0  0  0  0  0  0  # atno 17371 bound_to 10713
  141.2017  133.7957  157.0429 LP  0  0  0  0  0  0  0  0  0  0  0  0  # atno 17394 bound_to 11000
  140.0717  134.9698  157.1478 LP  0  0  0  0  0  0  0  0  0  0  0  0  # atno 17395 bound_to 11000

$$$$
