AV-unprocessed.smi:1|AV-procd|sdf|21|dock8
  -GOLD-   2262015123D 1   1.00000     0.00000
 Structure written by MMmdl.
 56 61  0  0  0  0  0  0  0  0  2 V2000
  152.4785  139.9284  158.0113 O   0  0  0  0  0  0  0  0  0  0  0  0
  151.7464  140.9160  157.9162 C   0  0  0  0  0  0  0  0  0  0  0  0
  150.7857  141.1539  156.9874 N   0  5  0  0  0  0  0  0  0  0  0  0
  150.3091  140.1396  156.2494 C   0  0  0  0  0  0  0  0  0  0  0  0
  150.3297  140.2080  154.8939 N   0  0  0  0  0  0  0  0  0  0  0  0
  149.8468  139.1997  154.1589 C   0  0  0  0  0  0  0  0  0  0  0  0
  149.3065  138.0474  154.5664 N   0  0  0  0  0  0  0  0  0  0  0  0
  149.2913  137.9587  155.9282 C   0  0  0  0  0  0  0  0  0  0  0  0
  149.7770  138.9537  156.8264 C   0  0  0  0  0  0  0  0  0  0  0  0
  149.6174  138.5485  158.1429 N   0  0  0  0  0  0  0  0  0  0  0  0
  149.0497  137.3549  157.9895 C   0  0  0  0  0  0  0  0  0  0  0  0
  148.8125  136.9343  156.7309 N   0  0  0  0  0  0  0  0  0  0  0  0
  148.1880  135.6399  156.3198 C   0  0  2  0  0  0  0  0  0  0  0  0
  146.8967  135.5622  156.8476 O   0  0  0  0  0  0  0  0  0  0  0  0
  146.7949  134.4813  157.7708 C   0  0  1  0  0  0  0  0  0  0  0  0
  145.3769  133.8999  157.7835 C   0  0  0  0  0  0  0  0  0  0  0  0
  144.7987  134.1320  159.0570 O   0  0  0  0  0  0  0  0  0  0  0  0
  143.4928  133.8789  159.2633 C   0  0  0  0  0  0  0  0  0  0  0  0
  142.6857  133.6746  158.3543 O   0  0  0  0  0  0  0  0  0  0  0  0
  143.1264  133.8699  160.7090 C   0  0  0  0  0  0  0  0  0  0  0  0
  144.1479  133.7656  161.6821 C   0  0  0  0  0  0  0  0  0  0  0  0
  143.8325  133.7540  163.0548 C   0  0  0  0  0  0  0  0  0  0  0  0
  142.4917  133.8477  163.4714 C   0  0  0  0  0  0  0  0  0  0  0  0
  141.4663  133.9518  162.5134 C   0  0  0  0  0  0  0  0  0  0  0  0
  141.7796  133.9627  161.1401 C   0  0  0  0  0  0  0  0  0  0  0  0
  147.8790  133.5039  157.3212 C   0  0  1  0  0  0  0  0  0  0  0  0
  147.4454  132.7180  156.2229 O   0  0  0  0  0  0  0  0  0  0  0  0
  148.6885  132.6394  155.1095 S   0  0  0  0  0  0  0  0  0  0  0  0
  149.3491  131.3325  155.2454 O   0  0  0  0  0  0  0  0  0  0  0  0
  148.1864  133.1449  153.8227 O   0  0  0  0  0  0  0  0  0  0  0  0
  149.6878  133.8007  155.7770 O   0  0  0  0  0  0  0  0  0  0  0  0
  148.9915  134.4361  156.8346 C   0  0  1  0  0  0  0  0  0  0  0  0
  151.8434  141.9936  158.9623 C   0  0  0  0  0  0  0  0  0  0  0  0
  152.4431  141.7067  160.2097 C   0  0  0  0  0  0  0  0  0  0  0  0
  152.5696  142.7090  161.1913 C   0  0  0  0  0  0  0  0  0  0  0  0
  152.1062  144.0123  160.9319 C   0  0  0  0  0  0  0  0  0  0  0  0
  151.5195  144.3136  159.6886 C   0  0  0  0  0  0  0  0  0  0  0  0
  151.3922  143.3115  158.7067 C   0  0  0  0  0  0  0  0  0  0  0  0
  149.8976  139.3375  153.0891 H   0  0  0  0  0  0  0  0  0  0  0  0
  148.7845  136.7524  158.8459 H   0  0  0  0  0  0  0  0  0  0  0  0
  148.1295  135.6891  155.2315 H   0  0  0  0  0  0  0  0  0  0  0  0
  147.0493  134.8403  158.7677 H   0  0  0  0  0  0  0  0  0  0  0  0
  144.7696  134.3461  156.9947 H   0  0  0  0  0  0  0  0  0  0  0  0
  145.4158  132.8246  157.6040 H   0  0  0  0  0  0  0  0  0  0  0  0
  145.1846  133.6937  161.3858 H   0  0  0  0  0  0  0  0  0  0  0  0
  144.6211  133.6737  163.7885 H   0  0  0  0  0  0  0  0  0  0  0  0
  142.2500  133.8400  164.5241 H   0  0  0  0  0  0  0  0  0  0  0  0
  140.4365  134.0234  162.8315 H   0  0  0  0  0  0  0  0  0  0  0  0
  140.9680  134.0433  160.4316 H   0  0  0  0  0  0  0  0  0  0  0  0
  148.2077  132.8449  158.1254 H   0  0  0  0  0  0  0  0  0  0  0  0
  149.6576  134.7224  157.6490 H   0  0  0  0  0  0  0  0  0  0  0  0
  152.8068  140.7118  160.4229 H   0  0  0  0  0  0  0  0  0  0  0  0
  153.0243  142.4770  162.1430 H   0  0  0  0  0  0  0  0  0  0  0  0
  152.2046  144.7812  161.6838 H   0  0  0  0  0  0  0  0  0  0  0  0
  151.1699  145.3148  159.4852 H   0  0  0  0  0  0  0  0  0  0  0  0
  150.9494  143.5663  157.7546 H   0  0  0  0  0  0  0  0  0  0  0  0
  1  2  2  0  0  0  0
  2  3  1  0  0  0  0
  2 33  1  0  0  0  0
  3  4  1  0  0  0  0
  4  9  1  0  0  0  0
  4  5  2  0  0  0  0
  5  6  1  0  0  0  0
  6  7  2  0  0  0  0
  6 39  1  0  0  0  0
  7  8  1  0  0  0  0
  8 12  1  0  0  0  0
  8  9  2  0  0  0  0
  9 10  1  0  0  0  0
 10 11  2  0  0  0  0
 11 12  1  0  0  0  0
 11 40  1  0  0  0  0
 12 13  1  0  0  0  0
 13 32  1  0  0  0  0
 13 14  1  0  0  0  0
 13 41  1  0  0  0  0
 14 15  1  0  0  0  0
 15 16  1  0  0  0  0
 15 26  1  0  0  0  0
 15 42  1  0  0  0  0
 16 17  1  0  0  0  0
 16 43  1  0  0  0  0
 16 44  1  0  0  0  0
 17 18  1  0  0  0  0
 18 19  2  0  0  0  0
 18 20  1  0  0  0  0
 20 25  1  0  0  0  0
 20 21  2  0  0  0  0
 21 22  1  0  0  0  0
 21 45  1  0  0  0  0
 22 23  2  0  0  0  0
 22 46  1  0  0  0  0
 23 24  1  0  0  0  0
 23 47  1  0  0  0  0
 24 25  2  0  0  0  0
 24 48  1  0  0  0  0
 25 49  1  0  0  0  0
 26 32  1  0  0  0  0
 26 27  1  0  0  0  0
 26 50  1  0  0  0  0
 27 28  1  0  0  0  0
 28 29  2  0  0  0  0
 28 30  2  0  0  0  0
 28 31  1  0  0  0  0
 31 32  1  0  0  0  0
 32 51  1  0  0  0  0
 33 38  1  0  0  0  0
 33 34  2  0  0  0  0
 34 35  1  0  0  0  0
 34 52  1  0  0  0  0
 35 36  2  0  0  0  0
 35 53  1  0  0  0  0
 36 37  1  0  0  0  0
 36 54  1  0  0  0  0
 37 38  2  0  0  0  0
 37 55  1  0  0  0  0
 38 56  1  0  0  0  0
M  CHG  1   3  -1
M  END
> <s_m_source_file>
AV-unprocessed.smi

> <i_m_source_file_index>
1

> <i_lp_mmshare_version>
43012

> <i_f3d_flags>
0

> <s_epik_input>
W2NIXTFbY0hdW2NIXVtjSF1bY0hdYzFDKD1PKVtOSF1jKG5bY0hdbjIpYyhjMjMpbltjSF1uM1tDQEBIXShbQ0BIXShbQ0BIXTQ1KU9TKE81KSg9Tyk9TylPW0NASF00W0NIMl1PQyg9TyljNltjSF1bY0hdW2NIXVtjSF1bY0hdNg==

> <s_epik_cmdline>
J2VwaWtfcHl0aG9uJywgJy1waCcsICc3LjAnLCAnLXRuJywgJzgnLCAnLW1hJywgJzIwMCcsICctbWV0YWxfYmluZGluZycsICctaW1hZScsICc8aW5maWxlLm1hZT4nLCAnLW9tYWUnLCAnPG91dGZpbGUubWFlPic=

> <r_lp_tautomer_probability>
1

> <r_epik_Ionization_Penalty>
4.39121

> <r_epik_Ionization_Penalty_Charging>
3.39398

> <r_epik_Ionization_Penalty_Neutral>
0.997232

> <r_epik_State_Penalty>
3.39839

> <r_epik_Charging_Adjusted_Penalty>
6.79237

> <i_epik_Tot_Q>
-1

> <i_epik_Tot_abs_Q>
1

> <r_epik_Metal_State_Penalty>
0.497663

> <b_epik_Metal_Only>
1

> <s_epik_Chemistry_Notes>
This compound has an ester and may undergo hydrolysis at high or low pH. This compound contains an acetal/aminal-like group ( X-CH(R)-Y where X, Y are N, S, or O) that may be acid/base labile, releasing an aldehyde.

> <s_lp_Force_Field>
OPLS_2005

> <r_lp_Energy>
42.9256

> <b_lp_Chiralities_Consistent>
1

> <s_lp_Variant>
AV-unprocessed.smi:1-21

> <Gold.Version>
5.8.1

> <Gold.Id.Protein>
6NUR|6NUR_protein|mol2

> <Gold.PLP.Fitness>
54.9631

> <Gold.PLP.PLP>
-46.3245

> <Gold.PLP.part.hbond>
-3.0000

> <Gold.PLP.part.metal>
0.0000

> <Gold.PLP.part.buried>
-9.2134

> <Gold.PLP.part.nonpolar>
-34.1454

> <Gold.PLP.part.repulsive>
0.4464

> <Gold.PLP.ligand.clash>
0.0000

> <Gold.PLP.ligand.torsion>
1.8003

> <Gold.PLP.Chemscore.Hbond>
3.0000

> <Gold.PLP.Chemscore.CHOScore>
1.0000

> <Gold.PLP.Chemscore.Metal>
0.0000

> <Gold.Chemscore.Hbonds>
donor molecule, donor type, donor heavy atom, donor atom, acceptor molecule, acceptor atom, score
      P1  H  7989  7998       L1     5  0.80
      P1  H  7997  8009       L1     1  0.32
      P1  H 11000 11005       L1    19  1.00
      L1  C     6    39       P1  7957  1.00

> <Gold.PLP.Chemscore.Internal.Correction>
0.2391

> <Gold.Rescore>
     Score         DG    S(hbond)    S(metal)    S(lipo)     H(rot)  DE(clash)    DE(int)     intcor
     20.06     -21.87       2.82        0.00     105.72       2.11       0.05       1.76       ----

> <Gold.Chemscore.Fitness>
20.0571

> <Gold.Chemscore.DG>
-21.8676

> <Gold.Chemscore.ZeroCoef>
-5.4800

> <Gold.Chemscore.Hbond>
2.8230

> <Gold.Chemscore.Metal>
0.0000

> <Gold.Chemscore.Lipo>
105.7235

> <Gold.Chemscore.Internal_Hbond>
0.0000

> <Gold.Chemscore.DEClash>
0.0515

> <Gold.Chemscore.DEInternal>
1.7590

> <Gold.Chemscore.Rot>
2.1136

> <Gold.Chemscore.Internal.Correction>
   9.000000E+99

> <Gold.Chemscore.Hbonds>
donor molecule, donor type, donor heavy atom, donor atom, acceptor molecule, acceptor atom, score
      P1  H  7989  7998       L1     5  0.11
      P1  H  7997  8009       L1     1  0.30
      P1  H 11000 11005       L1    19  1.00

> <Gold.Chemscore.Hbond.Weighted>
-9.4287

> <Gold.Chemscore.Metal.Weighted>
-0.0000

> <Gold.Chemscore.Lipo.Weighted>
-12.3697

> <Gold.Chemscore.Internal_Hbond.Weighted>
0.0000

> <Gold.Chemscore.DEClash.Weighted>
0.0515

> <Gold.Chemscore.DEInternal.Weighted>
1.7590

> <Gold.Chemscore.Rot.Weighted>
5.4107

> <Gold.Chemscore.Internal.Correction.Weighted>
   9.000000E+99

> <Gold.Protein.RotatedTorsions>
[ 6907 6896 6895 6894 ] final  -23.94 input  -60.11 | X-H torsion
[ 7974 7965 7964 7962 ] final    4.61 input  175.53 | X-H torsion
[ 8008 7997 7996 7995 ] final  166.91 input   59.86 | X-H torsion
[ 10167 10162 10161 10158 ] final   57.98 input  -65.29 | X-H torsion
[ 10718 10713 10712 10709 ] final  164.36 input   66.30 | X-H torsion
[ 10763 10752 10751 10750 ] final -146.89 input  -60.55 | X-H torsion
[ 11005 11000 10999 10996 ] final -113.92 input  -57.11 | X-H torsion

> <Gold.Protein.ActiveResidues>
 VAL166  LYS551  ARG553  GLY616  TRP617  ASP618  TYR619  PRO620  LYS621  CYS622 
 ASP623  PHE694  ASN695  SER759  ASP760  ASP761  ALA762  ILE779  LEU786  VAL792 
 PHE793  MET794  SER795  GLU796  ALA797  LYS798  CYS799  TRP800  GLU811  SER814 

> <Gold.Protein.RotatedAtoms>
  151.1968  135.0425  159.8855 H   0  0  0  0  0  0  0  0  0  0  0  0  # atno 6907 bound_to 6896
  152.5435  134.0895  159.8281 H   0  0  0  0  0  0  0  0  0  0  0  0  # atno 6908 bound_to 6896
  151.1030  133.5182  159.2641 H   0  0  0  0  0  0  0  0  0  0  0  0  # atno 6909 bound_to 6896
  146.2443  140.0509  142.8375 H   0  0  0  0  0  0  0  0  0  0  0  0  # atno 7974 bound_to 7965
  156.1679  140.1631  156.8500 H   0  0  0  0  0  0  0  0  0  0  0  0  # atno 8008 bound_to 7997
  154.5226  140.0775  156.8234 H   0  0  0  0  0  0  0  0  0  0  0  0  # atno 8009 bound_to 7997
  155.3574  140.3393  155.4242 H   0  0  0  0  0  0  0  0  0  0  0  0  # atno 8010 bound_to 7997
  140.1921  144.4075  150.6566 H   0  0  0  0  0  0  0  0  0  0  0  0  # atno 10167 bound_to 10162
  157.0954  131.0429  151.2520 H   0  0  0  0  0  0  0  0  0  0  0  0  # atno 10718 bound_to 10713
  154.8313  135.3374  154.6733 H   0  0  0  0  0  0  0  0  0  0  0  0  # atno 10763 bound_to 10752
  153.7353  135.6949  153.4984 H   0  0  0  0  0  0  0  0  0  0  0  0  # atno 10764 bound_to 10752
  153.2283  135.4425  155.0518 H   0  0  0  0  0  0  0  0  0  0  0  0  # atno 10765 bound_to 10752
  141.0584  133.9575  157.2712 H   0  0  0  0  0  0  0  0  0  0  0  0  # atno 11005 bound_to 11000
  145.0985  140.9330  143.4727 LP  0  0  0  0  0  0  0  0  0  0  0  0  # atno 17320 bound_to 7965
  145.0697  139.3041  143.5838 LP  0  0  0  0  0  0  0  0  0  0  0  0  # atno 17321 bound_to 7965
  140.6448  143.2211  151.6209 LP  0  0  0  0  0  0  0  0  0  0  0  0  # atno 17342 bound_to 10162
  139.5251  144.3083  152.1015 LP  0  0  0  0  0  0  0  0  0  0  0  0  # atno 17343 bound_to 10162
  157.4685  130.7695  149.7302 LP  0  0  0  0  0  0  0  0  0  0  0  0  # atno 17370 bound_to 10713
  155.9887  130.3957  150.3106 LP  0  0  0  0  0  0  0  0  0  0  0  0  # atno 17371 bound_to 10713
  139.9411  135.0191  156.8709 LP  0  0  0  0  0  0  0  0  0  0  0  0  # atno 17394 bound_to 11000
  140.5918  134.0255  155.7502 LP  0  0  0  0  0  0  0  0  0  0  0  0  # atno 17395 bound_to 11000

$$$$
