AV-unprocessed.smi:2550|AV-procd|sdf|10011|dock7
  -GOLD-   2272014 53D 1   1.00000     0.00000
 Structure written by MMmdl.
 28 29  0  0  0  0  0  0  0  0  2 V2000
  149.2557  133.6043  154.5131 C   0  0  0  0  0  0  0  0  0  0  0  0
  148.5455  132.2557  154.3128 C   0  0  0  0  0  0  0  0  0  0  0  0
  149.5397  131.0871  154.2177 C   0  0  0  0  0  0  0  0  0  0  0  0
  147.7474  132.0322  155.4602 O   0  0  0  0  0  0  0  0  0  0  0  0
  147.6072  132.2886  153.1300 C   0  0  0  0  0  0  0  0  0  0  0  0
  147.3559  133.2850  152.2254 C   0  0  0  0  0  0  0  0  0  0  0  0
  146.4233  132.7261  151.3786 N   0  0  0  0  0  0  0  0  0  0  0  0
  145.7495  133.3534  150.2813 C   0  0  0  0  0  0  0  0  0  0  0  0
  144.7406  134.4798  150.5066 C   0  0  0  0  0  0  0  0  0  0  0  0
  144.0023  133.9639  149.3606 N   0  3  0  0  0  0  0  0  0  0  0  0
  144.5966  132.6493  149.5691 C   0  0  0  0  0  0  0  0  0  0  0  0
  146.0816  131.4767  151.7682 N   0  0  0  0  0  0  0  0  0  0  0  0
  146.8014  131.1937  152.8072 N   0  0  0  0  0  0  0  0  0  0  0  0
  149.8914  133.8456  153.6604 H   0  0  0  0  0  0  0  0  0  0  0  0
  149.8894  133.5932  155.4006 H   0  0  0  0  0  0  0  0  0  0  0  0
  148.5383  134.4177  154.6287 H   0  0  0  0  0  0  0  0  0  0  0  0
  150.1838  131.1870  153.3435 H   0  0  0  0  0  0  0  0  0  0  0  0
  149.0215  130.1307  154.1367 H   0  0  0  0  0  0  0  0  0  0  0  0
  150.1846  131.0407  155.0959 H   0  0  0  0  0  0  0  0  0  0  0  0
  148.1444  131.3433  155.9710 H   0  0  0  0  0  0  0  0  0  0  0  0
  147.7421  134.2881  152.1187 H   0  0  0  0  0  0  0  0  0  0  0  0
  146.5227  133.6554  149.5712 H   0  0  0  0  0  0  0  0  0  0  0  0
  144.1747  134.3837  151.4355 H   0  0  0  0  0  0  0  0  0  0  0  0
  145.1348  135.4866  150.3665 H   0  0  0  0  0  0  0  0  0  0  0  0
  142.9989  133.9846  149.4737 H   0  0  0  0  0  0  0  0  0  0  0  0
  144.8706  132.1330  148.6486 H   0  0  0  0  0  0  0  0  0  0  0  0
  143.9914  132.0237  150.2283 H   0  0  0  0  0  0  0  0  0  0  0  0
  144.3209  134.3810  148.4974 H   0  0  0  0  0  0  0  0  0  0  0  0
  1  2  1  0  0  0  0
  1 14  1  0  0  0  0
  1 15  1  0  0  0  0
  1 16  1  0  0  0  0
  2  3  1  0  0  0  0
  2  4  1  0  0  0  0
  2  5  1  0  0  0  0
  3 17  1  0  0  0  0
  3 18  1  0  0  0  0
  3 19  1  0  0  0  0
  4 20  1  0  0  0  0
  5 13  1  0  0  0  0
  5  6  2  0  0  0  0
  6  7  1  0  0  0  0
  6 21  1  0  0  0  0
  7  8  1  0  0  0  0
  7 12  1  0  0  0  0
  8 11  1  0  0  0  0
  8  9  1  0  0  0  0
  8 22  1  0  0  0  0
  9 10  1  0  0  0  0
  9 23  1  0  0  0  0
  9 24  1  0  0  0  0
 10 11  1  0  0  0  0
 10 25  1  0  0  0  0
 10 28  1  0  0  0  0
 11 26  1  0  0  0  0
 11 27  1  0  0  0  0
 12 13  2  0  0  0  0
M  CHG  1  10   1
M  END
> <s_m_source_file>
AV-unprocessed.smi

> <i_m_source_file_index>
2550

> <i_lp_mmshare_version>
43012

> <i_f3d_flags>
0

> <s_epik_input>
W0NIM11DKFtDSDNdKShbT0hdKWMxW2NIXW4obm4xKVtDSF0yW0NIMl1bTkhdW0NIMl0y

> <s_epik_cmdline>
J2VwaWtfcHl0aG9uJywgJy1waCcsICc3LjAnLCAnLXRuJywgJzgnLCAnLW1hJywgJzIwMCcsICctbWV0YWxfYmluZGluZycsICctaW1hZScsICc8aW5maWxlLm1hZT4nLCAnLW9tYWUnLCAnPG91dGZpbGUubWFlPic=

> <r_lp_tautomer_probability>
1

> <r_epik_Ionization_Penalty>
0.215038

> <r_epik_Ionization_Penalty_Charging>
0.215038

> <r_epik_Ionization_Penalty_Neutral>
3.71976e-07

> <r_epik_State_Penalty>
0.20523

> <r_epik_Charging_Adjusted_Penalty>
0.420268

> <i_epik_Tot_Q>
1

> <i_epik_Tot_abs_Q>
1

> <r_epik_Metal_State_Penalty>
0.20531

> <b_epik_Metal_Only>
0

> <s_lp_Force_Field>
OPLS_2005

> <r_lp_Energy>
9.80929

> <b_lp_Chiralities_Consistent>
1

> <s_lp_Variant>
AV-unprocessed.smi:2550-1

> <Gold.Version>
5.8.1

> <Gold.Id.Protein>
6NUR|6NUR_protein|mol2

> <Gold.PLP.Fitness>
35.5695

> <Gold.PLP.PLP>
-24.4175

> <Gold.PLP.part.hbond>
-2.0000

> <Gold.PLP.part.metal>
0.0000

> <Gold.PLP.part.buried>
-1.8245

> <Gold.PLP.part.nonpolar>
-20.8169

> <Gold.PLP.part.repulsive>
0.3826

> <Gold.PLP.ligand.clash>
0.0000

> <Gold.PLP.ligand.torsion>
0.1692

> <Gold.PLP.Chemscore.Hbond>
2.7332

> <Gold.PLP.Chemscore.CHOScore>
0.9893

> <Gold.PLP.Chemscore.Metal>
0.0000

> <Gold.Chemscore.Hbonds>
donor molecule, donor type, donor heavy atom, donor atom, acceptor molecule, acceptor atom, score
      L1  H    10    25       P1 10186  1.98
      L1  H    10    28       P1  7921  0.73
      L1  C     6    21       P1  7948  1.00

> <Gold.PLP.Chemscore.Internal.Correction>
0.3229

> <Gold.Rescore>
     Score         DG    S(hbond)    S(metal)    S(lipo)     H(rot)  DE(clash)    DE(int)     intcor
     12.35     -12.58       1.74        0.00      49.98       1.78       0.05       0.18       ----

> <Gold.Chemscore.Fitness>
12.3543

> <Gold.Chemscore.DG>
-12.5800

> <Gold.Chemscore.ZeroCoef>
-5.4800

> <Gold.Chemscore.Hbond>
1.7374

> <Gold.Chemscore.Metal>
0.0000

> <Gold.Chemscore.Lipo>
49.9786

> <Gold.Chemscore.Internal_Hbond>
0.0000

> <Gold.Chemscore.DEClash>
0.0456

> <Gold.Chemscore.DEInternal>
0.1800

> <Gold.Chemscore.Rot>
1.7775

> <Gold.Chemscore.Internal.Correction>
   9.000000E+99

> <Gold.Chemscore.Hbonds>
donor molecule, donor type, donor heavy atom, donor atom, acceptor molecule, acceptor atom, score
      L1  H    10    25       P1 10186  0.92
      L1  H    10    28       P1  7921  0.67

> <Gold.Chemscore.Hbond.Weighted>
-5.8028

> <Gold.Chemscore.Metal.Weighted>
-0.0000

> <Gold.Chemscore.Lipo.Weighted>
-5.8475

> <Gold.Chemscore.Internal_Hbond.Weighted>
0.0000

> <Gold.Chemscore.DEClash.Weighted>
0.0456

> <Gold.Chemscore.DEInternal.Weighted>
0.1800

> <Gold.Chemscore.Rot.Weighted>
4.5503

> <Gold.Chemscore.Internal.Correction.Weighted>
   9.000000E+99

> <Gold.Protein.RotatedTorsions>
[ 6907 6896 6895 6894 ] final  -79.60 input  -60.11 | X-H torsion
[ 7974 7965 7964 7962 ] final  155.19 input  175.53 | X-H torsion
[ 8008 7997 7996 7995 ] final -109.91 input   59.86 | X-H torsion
[ 10167 10162 10161 10158 ] final -105.39 input  -65.29 | X-H torsion
[ 10718 10713 10712 10709 ] final  -67.77 input   66.30 | X-H torsion
[ 10763 10752 10751 10750 ] final   90.64 input  -60.55 | X-H torsion
[ 11005 11000 10999 10996 ] final -108.39 input  -57.11 | X-H torsion

> <Gold.Protein.ActiveResidues>
 VAL166  LYS551  ARG553  GLY616  TRP617  ASP618  TYR619  PRO620  LYS621  CYS622 
 ASP623  PHE694  ASN695  SER759  ASP760  ASP761  ALA762  ILE779  LEU786  VAL792 
 PHE793  MET794  SER795  GLU796  ALA797  LYS798  CYS799  TRP800  GLU811  SER814 

> <Gold.Protein.RotatedAtoms>
  150.6946  134.4096  159.5155 H   0  0  0  0  0  0  0  0  0  0  0  0  # atno 6907 bound_to 6896
  152.1857  134.8713  160.0531 H   0  0  0  0  0  0  0  0  0  0  0  0  # atno 6908 bound_to 6896
  151.9687  133.3684  159.4100 H   0  0  0  0  0  0  0  0  0  0  0  0  # atno 6909 bound_to 6896
  144.8041  139.7034  143.6169 H   0  0  0  0  0  0  0  0  0  0  0  0  # atno 7974 bound_to 7965
  154.9664  140.0398  157.2214 H   0  0  0  0  0  0  0  0  0  0  0  0  # atno 8008 bound_to 7997
  154.7841  140.2824  155.6019 H   0  0  0  0  0  0  0  0  0  0  0  0  # atno 8009 bound_to 7997
  156.2940  140.2586  156.2673 H   0  0  0  0  0  0  0  0  0  0  0  0  # atno 8010 bound_to 7997
  140.1990  143.3833  152.1145 H   0  0  0  0  0  0  0  0  0  0  0  0  # atno 10167 bound_to 10162
  156.0540  130.4283  150.1903 H   0  0  0  0  0  0  0  0  0  0  0  0  # atno 10718 bound_to 10713
  153.1997  135.4426  155.0252 H   0  0  0  0  0  0  0  0  0  0  0  0  # atno 10763 bound_to 10752
  154.8140  135.3307  154.7231 H   0  0  0  0  0  0  0  0  0  0  0  0  # atno 10764 bound_to 10752
  153.7677  135.6987  153.4968 H   0  0  0  0  0  0  0  0  0  0  0  0  # atno 10765 bound_to 10752
  141.0904  133.9065  157.2089 H   0  0  0  0  0  0  0  0  0  0  0  0  # atno 11005 bound_to 11000
  146.2328  139.5847  142.9543 LP  0  0  0  0  0  0  0  0  0  0  0  0  # atno 17320 bound_to 7965
  145.5482  141.0415  143.2293 LP  0  0  0  0  0  0  0  0  0  0  0  0  # atno 17321 bound_to 7965
  139.5225  144.7059  151.5355 LP  0  0  0  0  0  0  0  0  0  0  0  0  # atno 17342 bound_to 10162
  140.6403  143.8902  150.6686 LP  0  0  0  0  0  0  0  0  0  0  0  0  # atno 17343 bound_to 10162
  156.9982  130.9914  151.3397 LP  0  0  0  0  0  0  0  0  0  0  0  0  # atno 17370 bound_to 10713
  157.5493  130.8171  149.8124 LP  0  0  0  0  0  0  0  0  0  0  0  0  # atno 17371 bound_to 10713
  139.9729  135.0123  156.9557 LP  0  0  0  0  0  0  0  0  0  0  0  0  # atno 17394 bound_to 11000
  140.5265  134.0855  155.7305 LP  0  0  0  0  0  0  0  0  0  0  0  0  # atno 17395 bound_to 11000

$$$$
