AV-unprocessed.smi:2923|AV-procd|sdf|11217|dock9
  -GOLD-   2272016103D 1   1.00000     0.00000
 Structure written by MMmdl.
 46 48  0  0  0  0  0  0  0  0  1 V2000
  148.1124  128.5241  152.8809 C   0  0  0  0  0  0  0  0  0  0  0  0
  148.9826  128.9771  153.9552 N   0  0  0  0  0  0  0  0  0  0  0  0
  148.7975  128.3364  155.2480 C   0  0  0  0  0  0  0  0  0  0  0  0
  149.0606  130.3730  154.0450 C   0  0  0  0  0  0  0  0  0  0  0  0
  149.9960  131.0038  154.8964 C   0  0  0  0  0  0  0  0  0  0  0  0
  150.0265  132.4105  154.9467 C   0  0  0  0  0  0  0  0  0  0  0  0
  149.1254  133.1431  154.1381 C   0  0  0  0  0  0  0  0  0  0  0  0
  149.0397  134.5610  154.1176 N   0  0  0  0  0  0  0  0  0  0  0  0
  149.1860  135.4235  155.1375 C   0  0  0  0  0  0  0  0  0  0  0  0
  149.4637  135.1186  156.2970 O   0  0  0  0  0  0  0  0  0  0  0  0
  149.0049  136.6861  154.7295 N   0  0  0  0  0  0  0  0  0  0  0  0
  149.1177  137.8670  155.5922 C   0  0  1  0  0  0  0  0  0  0  0  0
  150.5704  138.3031  155.7997 C   0  0  1  0  0  0  0  0  0  0  0  0
  151.9057  137.6754  155.6231 C   0  0  0  0  0  0  0  0  0  0  0  0
  152.6171  138.9055  154.9965 C   0  0  0  0  0  0  0  0  0  0  0  0
  151.5705  139.8676  154.7067 O   0  0  0  0  0  0  0  0  0  0  0  0
  150.4222  139.0688  154.5006 C   0  0  2  0  0  0  0  0  0  0  0  0
  148.9349  139.2625  154.8715 C   0  0  0  0  0  0  0  0  0  0  0  0
  147.9635  139.3183  153.6872 C   0  0  0  0  0  0  0  0  0  0  0  0
  148.5848  140.4732  155.7561 C   0  0  0  0  0  0  0  0  0  0  0  0
  148.2253  132.4149  153.3330 C   0  0  0  0  0  0  0  0  0  0  0  0
  148.1914  131.0667  153.2790 N   0  0  0  0  0  0  0  0  0  0  0  0
  148.3379  129.0484  151.9514 H   0  0  0  0  0  0  0  0  0  0  0  0
  147.0638  128.6936  153.1271 H   0  0  0  0  0  0  0  0  0  0  0  0
  148.2537  127.4570  152.7074 H   0  0  0  0  0  0  0  0  0  0  0  0
  149.4903  128.7427  155.9862 H   0  0  0  0  0  0  0  0  0  0  0  0
  148.9834  127.2653  155.1664 H   0  0  0  0  0  0  0  0  0  0  0  0
  147.7803  128.4800  155.6139 H   0  0  0  0  0  0  0  0  0  0  0  0
  150.6754  130.4246  155.5047 H   0  0  0  0  0  0  0  0  0  0  0  0
  150.7253  132.8939  155.6114 H   0  0  0  0  0  0  0  0  0  0  0  0
  148.8971  134.9715  153.2065 H   0  0  0  0  0  0  0  0  0  0  0  0
  148.7829  136.8485  153.7582 H   0  0  0  0  0  0  0  0  0  0  0  0
  148.5625  137.7857  156.5281 H   0  0  0  0  0  0  0  0  0  0  0  0
  150.6090  138.9570  156.6743 H   0  0  0  0  0  0  0  0  0  0  0  0
  152.3574  137.3634  156.5650 H   0  0  0  0  0  0  0  0  0  0  0  0
  151.8768  136.8259  154.9395 H   0  0  0  0  0  0  0  0  0  0  0  0
  153.3422  139.3488  155.6796 H   0  0  0  0  0  0  0  0  0  0  0  0
  153.1405  138.6262  154.0813 H   0  0  0  0  0  0  0  0  0  0  0  0
  150.5438  138.4541  153.6027 H   0  0  0  0  0  0  0  0  0  0  0  0
  147.9910  140.2888  153.1908 H   0  0  0  0  0  0  0  0  0  0  0  0
  146.9363  139.1403  154.0070 H   0  0  0  0  0  0  0  0  0  0  0  0
  148.1993  138.5721  152.9284 H   0  0  0  0  0  0  0  0  0  0  0  0
  148.7793  141.4107  155.2342 H   0  0  0  0  0  0  0  0  0  0  0  0
  149.1480  140.5107  156.6869 H   0  0  0  0  0  0  0  0  0  0  0  0
  147.5304  140.4685  156.0341 H   0  0  0  0  0  0  0  0  0  0  0  0
  147.5100  132.9290  152.7078 H   0  0  0  0  0  0  0  0  0  0  0  0
  1  2  1  0  0  0  0
  1 23  1  0  0  0  0
  1 24  1  0  0  0  0
  1 25  1  0  0  0  0
  2  3  1  0  0  0  0
  2  4  1  0  0  0  0
  3 26  1  0  0  0  0
  3 27  1  0  0  0  0
  3 28  1  0  0  0  0
  4 22  1  0  0  0  0
  4  5  2  0  0  0  0
  5  6  1  0  0  0  0
  5 29  1  0  0  0  0
  6  7  2  0  0  0  0
  6 30  1  0  0  0  0
  7  8  1  0  0  0  0
  7 21  1  0  0  0  0
  8  9  1  0  0  0  0
  8 31  1  0  0  0  0
  9 10  2  0  0  0  0
  9 11  1  0  0  0  0
 11 12  1  0  0  0  0
 11 32  1  0  0  0  0
 12 18  1  0  0  0  0
 12 13  1  0  0  0  0
 12 33  1  0  0  0  0
 13 17  1  0  0  0  0
 13 14  1  0  0  0  0
 13 34  1  0  0  0  0
 14 15  1  0  0  0  0
 14 35  1  0  0  0  0
 14 36  1  0  0  0  0
 15 16  1  0  0  0  0
 15 37  1  0  0  0  0
 15 38  1  0  0  0  0
 16 17  1  0  0  0  0
 17 18  1  0  0  0  0
 17 39  1  0  0  0  0
 18 19  1  0  0  0  0
 18 20  1  0  0  0  0
 19 40  1  0  0  0  0
 19 41  1  0  0  0  0
 19 42  1  0  0  0  0
 20 43  1  0  0  0  0
 20 44  1  0  0  0  0
 20 45  1  0  0  0  0
 21 22  2  0  0  0  0
 21 46  1  0  0  0  0
M  END
> <s_m_source_file>
AV-unprocessed.smi

> <i_m_source_file_index>
2923

> <i_lp_mmshare_version>
43012

> <i_f3d_flags>
0

> <s_epik_input>
W0NIM11OKFtDSDNdKWMxW2NIXVtjSF1jKFtjSF1uMSlbTkhdQyg9TylbTkhdW0NASF0yQyhbQ0gzXSkoW0NIM10pW0NAQEhdKFtDQEhdMjMpT1tDSDJdW0NIMl0z

> <s_epik_cmdline>
J2VwaWtfcHl0aG9uJywgJy1waCcsICc3LjAnLCAnLXRuJywgJzgnLCAnLW1hJywgJzIwMCcsICctbWV0YWxfYmluZGluZycsICctaW1hZScsICc8aW5maWxlLm1hZT4nLCAnLW9tYWUnLCAnPG91dGZpbGUubWFlPic=

> <r_lp_tautomer_probability>
1

> <r_epik_Ionization_Penalty>
0.628785

> <r_epik_Ionization_Penalty_Charging>
0

> <r_epik_Ionization_Penalty_Neutral>
0.628785

> <r_epik_State_Penalty>
0.644286

> <r_epik_Charging_Adjusted_Penalty>
0.644286

> <i_epik_Tot_Q>
0

> <i_epik_Tot_abs_Q>
0

> <r_epik_Metal_State_Penalty>
0.308404

> <b_epik_Metal_Only>
0

> <s_lp_Force_Field>
OPLS_2005

> <r_lp_Energy>
70.0187

> <b_lp_Chiralities_Consistent>
1

> <s_lp_Variant>
AV-unprocessed.smi:2923-16

> <Gold.Version>
5.8.1

> <Gold.Id.Protein>
6NUR|6NUR_protein|mol2

> <Gold.PLP.Fitness>
40.2676

> <Gold.PLP.PLP>
-32.0886

> <Gold.PLP.part.hbond>
-2.9374

> <Gold.PLP.part.metal>
0.0000

> <Gold.PLP.part.buried>
-5.0093

> <Gold.PLP.part.nonpolar>
-25.2807

> <Gold.PLP.part.repulsive>
1.1516

> <Gold.PLP.ligand.clash>
0.0000

> <Gold.PLP.ligand.torsion>
0.5377

> <Gold.PLP.Chemscore.Hbond>
2.9280

> <Gold.PLP.Chemscore.CHOScore>
0.0000

> <Gold.PLP.Chemscore.Metal>
0.0000

> <Gold.Chemscore.Hbonds>
donor molecule, donor type, donor heavy atom, donor atom, acceptor molecule, acceptor atom, score
      L1  H     8    31       P1  7948  1.00
      L1  H    11    32       P1  7948  0.94
      P1  H  7989  7998       L1    16  1.00

> <Gold.PLP.Chemscore.Internal.Correction>
0.4703

> <Gold.Rescore>
     Score         DG    S(hbond)    S(metal)    S(lipo)     H(rot)  DE(clash)    DE(int)     intcor
     16.62     -17.94       2.05        0.00      74.04       1.19       0.11       1.22       ----

> <Gold.Chemscore.Fitness>
16.6154

> <Gold.Chemscore.DG>
-17.9450

> <Gold.Chemscore.ZeroCoef>
-5.4800

> <Gold.Chemscore.Hbond>
2.0534

> <Gold.Chemscore.Metal>
0.0000

> <Gold.Chemscore.Lipo>
74.0376

> <Gold.Chemscore.Internal_Hbond>
0.0000

> <Gold.Chemscore.DEClash>
0.1102

> <Gold.Chemscore.DEInternal>
1.2193

> <Gold.Chemscore.Rot>
1.1937

> <Gold.Chemscore.Internal.Correction>
   9.000000E+99

> <Gold.Chemscore.Hbonds>
donor molecule, donor type, donor heavy atom, donor atom, acceptor molecule, acceptor atom, score
      L1  H     8    31       P1  7948  0.30
      L1  H    11    32       P1  7948  0.88
      P1  H  7989  7998       L1    16  0.57

> <Gold.Chemscore.Hbond.Weighted>
-6.8584

> <Gold.Chemscore.Metal.Weighted>
-0.0000

> <Gold.Chemscore.Lipo.Weighted>
-8.6624

> <Gold.Chemscore.Internal_Hbond.Weighted>
0.0000

> <Gold.Chemscore.DEClash.Weighted>
0.1102

> <Gold.Chemscore.DEInternal.Weighted>
1.2193

> <Gold.Chemscore.Rot.Weighted>
3.0559

> <Gold.Chemscore.Internal.Correction.Weighted>
   9.000000E+99

> <Gold.Protein.RotatedTorsions>
[ 6907 6896 6895 6894 ] final    3.89 input  -60.11 | X-H torsion
[ 7974 7965 7964 7962 ] final   25.22 input  175.53 | X-H torsion
[ 8008 7997 7996 7995 ] final  114.73 input   59.86 | X-H torsion
[ 10167 10162 10161 10158 ] final   79.06 input  -65.29 | X-H torsion
[ 10718 10713 10712 10709 ] final   63.85 input   66.30 | X-H torsion
[ 10763 10752 10751 10750 ] final    2.24 input  -60.55 | X-H torsion
[ 11005 11000 10999 10996 ] final  -49.66 input  -57.11 | X-H torsion

> <Gold.Protein.ActiveResidues>
 VAL166  LYS551  ARG553  GLY616  TRP617  ASP618  TYR619  PRO620  LYS621  CYS622 
 ASP623  PHE694  ASN695  SER759  ASP760  ASP761  ALA762  ILE779  LEU786  VAL792 
 PHE793  MET794  SER795  GLU796  ALA797  LYS798  CYS799  TRP800  GLU811  SER814 

> <Gold.Protein.RotatedAtoms>
  151.6324  135.1021  160.0124 H   0  0  0  0  0  0  0  0  0  0  0  0  # atno 6907 bound_to 6896
  152.4099  133.6943  159.6397 H   0  0  0  0  0  0  0  0  0  0  0  0  # atno 6908 bound_to 6896
  150.7990  133.8560  159.3259 H   0  0  0  0  0  0  0  0  0  0  0  0  # atno 6909 bound_to 6896
  146.1899  139.7496  142.8839 H   0  0  0  0  0  0  0  0  0  0  0  0  # atno 7974 bound_to 7965
  156.2339  140.2953  156.0259 H   0  0  0  0  0  0  0  0  0  0  0  0  # atno 8008 bound_to 7997
  155.2148  140.0413  157.2956 H   0  0  0  0  0  0  0  0  0  0  0  0  # atno 8009 bound_to 7997
  154.6043  140.2435  155.7759 H   0  0  0  0  0  0  0  0  0  0  0  0  # atno 8010 bound_to 7997
  139.9643  144.5939  150.8043 H   0  0  0  0  0  0  0  0  0  0  0  0  # atno 10167 bound_to 10162
  157.5999  130.9128  149.9769 H   0  0  0  0  0  0  0  0  0  0  0  0  # atno 10718 bound_to 10713
  153.2980  135.6953  153.7230 H   0  0  0  0  0  0  0  0  0  0  0  0  # atno 10763 bound_to 10752
  153.6155  135.3436  155.2994 H   0  0  0  0  0  0  0  0  0  0  0  0  # atno 10764 bound_to 10752
  154.8543  135.4374  154.2082 H   0  0  0  0  0  0  0  0  0  0  0  0  # atno 10765 bound_to 10752
  141.0772  133.6663  156.3618 H   0  0  0  0  0  0  0  0  0  0  0  0  # atno 11005 bound_to 11000
  145.3824  141.0360  143.3170 LP  0  0  0  0  0  0  0  0  0  0  0  0  # atno 17320 bound_to 7965
  144.8467  139.5386  143.6875 LP  0  0  0  0  0  0  0  0  0  0  0  0  # atno 17321 bound_to 7965
  140.7543  143.3024  151.3046 LP  0  0  0  0  0  0  0  0  0  0  0  0  # atno 17342 bound_to 10162
  139.6530  144.0328  152.2639 LP  0  0  0  0  0  0  0  0  0  0  0  0  # atno 17343 bound_to 10162
  156.1070  130.3652  150.0115 LP  0  0  0  0  0  0  0  0  0  0  0  0  # atno 17370 bound_to 10713
  156.8221  130.9362  151.3641 LP  0  0  0  0  0  0  0  0  0  0  0  0  # atno 17371 bound_to 10713
  140.5548  134.5992  157.5418 LP  0  0  0  0  0  0  0  0  0  0  0  0  # atno 17394 bound_to 11000
  139.9584  134.7494  156.0290 LP  0  0  0  0  0  0  0  0  0  0  0  0  # atno 17395 bound_to 11000

$$$$
