AV-unprocessed.smi:1667|AV-procd|sdf|6675|dock2
  -GOLD-   22720 7393D 1   1.00000     0.00000
 Structure written by MMmdl.
 45 47  0  0  0  0  0  0  0  0  1 V2000
  149.8696  134.1983  154.5222 C   0  0  0  0  0  0  0  0  0  0  0  0
  150.2014  135.4814  155.2766 C   0  0  0  0  0  0  0  0  0  0  0  0
  149.8771  135.5985  156.4577 O   0  0  0  0  0  0  0  0  0  0  0  0
  150.8407  136.4364  154.5846 N   0  0  0  0  0  0  0  0  0  0  0  0
  151.2124  137.7526  155.1007 C   0  0  1  0  0  0  0  0  0  0  0  0
  152.5596  138.2115  154.5218 C   0  0  0  0  0  0  0  0  0  0  0  0
  150.1021  138.7178  154.7684 C   0  0  0  0  0  0  0  0  0  0  0  0
  149.0751  138.3700  153.9871 N   0  0  0  0  0  0  0  0  0  0  0  0
  148.3408  139.5342  153.9023 C   0  0  0  0  0  0  0  0  0  0  0  0
  147.1370  139.8105  153.2153 C   0  0  0  0  0  0  0  0  0  0  0  0
  146.5673  141.0995  153.2636 C   0  0  0  0  0  0  0  0  0  0  0  0
  147.1937  142.1282  153.9958 C   0  0  0  0  0  0  0  0  0  0  0  0
  148.3935  141.8728  154.6869 C   0  0  0  0  0  0  0  0  0  0  0  0
  148.9560  140.5824  154.6414 C   0  0  0  0  0  0  0  0  0  0  0  0
  150.0965  140.0086  155.1992 N   0  0  0  0  0  0  0  0  0  0  0  0
  151.0706  140.6942  156.0457 C   0  0  0  0  0  0  0  0  0  0  0  0
  150.8476  140.4865  157.5631 C   0  0  1  0  0  0  0  0  0  0  0  0
  151.1224  139.1470  157.9228 O   0  0  0  0  0  0  0  0  0  0  0  0
  151.6010  141.4895  158.4281 C   0  0  0  0  0  0  0  0  0  0  0  0
  152.4241  141.0575  159.4929 C   0  0  0  0  0  0  0  0  0  0  0  0
  153.1122  141.9959  160.2860 C   0  0  0  0  0  0  0  0  0  0  0  0
  152.9818  143.3723  160.0211 C   0  0  0  0  0  0  0  0  0  0  0  0
  152.1681  143.8093  158.9585 C   0  0  0  0  0  0  0  0  0  0  0  0
  152.0481  145.1325  158.6984 F   0  0  0  0  0  0  0  0  0  0  0  0
  151.4805  142.8709  158.1645 C   0  0  0  0  0  0  0  0  0  0  0  0
  151.3070  137.6666  156.1815 H   0  0  0  0  0  0  0  0  0  0  0  0
  149.9739  134.3303  153.4446 H   0  0  0  0  0  0  0  0  0  0  0  0
  148.8428  133.8955  154.7290 H   0  0  0  0  0  0  0  0  0  0  0  0
  150.5348  133.3942  154.8368 H   0  0  0  0  0  0  0  0  0  0  0  0
  151.0697  136.2527  153.6182 H   0  0  0  0  0  0  0  0  0  0  0  0
  152.8362  139.1913  154.9116 H   0  0  0  0  0  0  0  0  0  0  0  0
  152.5208  138.2851  153.4346 H   0  0  0  0  0  0  0  0  0  0  0  0
  153.3599  137.5176  154.7808 H   0  0  0  0  0  0  0  0  0  0  0  0
  146.6522  139.0299  152.6481 H   0  0  0  0  0  0  0  0  0  0  0  0
  145.6469  141.3004  152.7349 H   0  0  0  0  0  0  0  0  0  0  0  0
  146.7527  143.1137  154.0270 H   0  0  0  0  0  0  0  0  0  0  0  0
  148.8738  142.6599  155.2485 H   0  0  0  0  0  0  0  0  0  0  0  0
  152.0790  140.3961  155.7616 H   0  0  0  0  0  0  0  0  0  0  0  0
  151.0166  141.7594  155.8172 H   0  0  0  0  0  0  0  0  0  0  0  0
  149.7839  140.6269  157.7596 H   0  0  0  0  0  0  0  0  0  0  0  0
  151.9649  139.1191  158.3500 H   0  0  0  0  0  0  0  0  0  0  0  0
  152.5374  140.0036  159.7018 H   0  0  0  0  0  0  0  0  0  0  0  0
  153.7426  141.6596  161.0959 H   0  0  0  0  0  0  0  0  0  0  0  0
  153.5117  144.0922  160.6274 H   0  0  0  0  0  0  0  0  0  0  0  0
  150.8601  143.2162  157.3506 H   0  0  0  0  0  0  0  0  0  0  0  0
  1  2  1  0  0  0  0
  1 27  1  0  0  0  0
  1 28  1  0  0  0  0
  1 29  1  0  0  0  0
  2  3  2  0  0  0  0
  2  4  1  0  0  0  0
  4  5  1  0  0  0  0
  4 30  1  0  0  0  0
  5 26  1  0  0  0  0
  5  6  1  0  0  0  0
  5  7  1  0  0  0  0
  6 31  1  0  0  0  0
  6 32  1  0  0  0  0
  6 33  1  0  0  0  0
  7 15  1  0  0  0  0
  7  8  2  0  0  0  0
  8  9  1  0  0  0  0
  9 14  2  0  0  0  0
  9 10  1  0  0  0  0
 10 11  2  0  0  0  0
 10 34  1  0  0  0  0
 11 12  1  0  0  0  0
 11 35  1  0  0  0  0
 12 13  2  0  0  0  0
 12 36  1  0  0  0  0
 13 14  1  0  0  0  0
 13 37  1  0  0  0  0
 14 15  1  0  0  0  0
 15 16  1  0  0  0  0
 16 17  1  0  0  0  0
 16 38  1  0  0  0  0
 16 39  1  0  0  0  0
 17 18  1  0  0  0  0
 17 19  1  0  0  0  0
 17 40  1  0  0  0  0
 18 41  1  0  0  0  0
 19 25  1  0  0  0  0
 19 20  2  0  0  0  0
 20 21  1  0  0  0  0
 20 42  1  0  0  0  0
 21 22  2  0  0  0  0
 21 43  1  0  0  0  0
 22 23  1  0  0  0  0
 22 44  1  0  0  0  0
 23 24  1  0  0  0  0
 23 25  2  0  0  0  0
 25 45  1  0  0  0  0
M  END
> <s_m_source_file>
AV-unprocessed.smi

> <i_m_source_file_index>
1667

> <i_lp_mmshare_version>
43012

> <i_f3d_flags>
0

> <s_epik_input>
W0NIM11DKD1PKVtOSF1bQ0BASF0oW0NIM10pYyhuMSluKGMoYzEyKVtjSF1bY0hdW2NIXVtjSF0yKVtDSDJdW0NASF0oW09IXSljM1tjSF1bY0hdW2NIXWMoRilbY0hdMw==

> <s_epik_cmdline>
J2VwaWtfcHl0aG9uJywgJy1waCcsICc3LjAnLCAnLXRuJywgJzgnLCAnLW1hJywgJzIwMCcsICctbWV0YWxfYmluZGluZycsICctaW1hZScsICc8aW5maWxlLm1hZT4nLCAnLW9tYWUnLCAnPG91dGZpbGUubWFlPic=

> <r_epik_Ionization_Penalty>
0.133011

> <r_epik_Ionization_Penalty_Charging>
0

> <r_epik_Ionization_Penalty_Neutral>
0.133011

> <r_epik_State_Penalty>
0.122384

> <r_epik_Charging_Adjusted_Penalty>
0.122384

> <i_epik_Tot_Q>
0

> <i_epik_Tot_abs_Q>
0

> <r_epik_Metal_State_Penalty>
0.0997374

> <b_epik_Metal_Only>
0

> <s_lp_Force_Field>
OPLS_2005

> <r_lp_Energy>
5.5788

> <b_lp_Chiralities_Consistent>
1

> <s_lp_Variant>
AV-unprocessed.smi:1667-3

> <Gold.Version>
5.8.1

> <Gold.Id.Protein>
6NUR|6NUR_protein|mol2

> <Gold.PLP.Fitness>
55.7563

> <Gold.PLP.PLP>
-54.4596

> <Gold.PLP.part.hbond>
-1.6510

> <Gold.PLP.part.metal>
0.0000

> <Gold.PLP.part.buried>
-2.7491

> <Gold.PLP.part.nonpolar>
-52.6431

> <Gold.PLP.part.repulsive>
1.1755

> <Gold.PLP.ligand.clash>
0.0000

> <Gold.PLP.ligand.torsion>
0.9050

> <Gold.PLP.Chemscore.Hbond>
1.0000

> <Gold.PLP.Chemscore.CHOScore>
0.0000

> <Gold.PLP.Chemscore.Metal>
0.0000

> <Gold.Chemscore.Hbonds>
donor molecule, donor type, donor heavy atom, donor atom, acceptor molecule, acceptor atom, score
      L1  H     4    30       P1  7949  0.73

> <Gold.PLP.Chemscore.Internal.Correction>
0.1067

> <Gold.Rescore>
     Score         DG    S(hbond)    S(metal)    S(lipo)     H(rot)  DE(clash)    DE(int)     intcor
     15.00     -16.84       0.47        0.00     137.85       2.48       0.94       0.91       ----

> <Gold.Chemscore.Fitness>
14.9980

> <Gold.Chemscore.DG>
-16.8424

> <Gold.Chemscore.ZeroCoef>
-5.4800

> <Gold.Chemscore.Hbond>
0.4707

> <Gold.Chemscore.Metal>
0.0000

> <Gold.Chemscore.Lipo>
137.8533

> <Gold.Chemscore.Internal_Hbond>
0.0000

> <Gold.Chemscore.DEClash>
0.9388

> <Gold.Chemscore.DEInternal>
0.9056

> <Gold.Chemscore.Rot>
2.4760

> <Gold.Chemscore.Internal.Correction>
   9.000000E+99

> <Gold.Chemscore.Hbonds>
donor molecule, donor type, donor heavy atom, donor atom, acceptor molecule, acceptor atom, score
      L1  H     4    30       P1  7949  0.22

> <Gold.Chemscore.Hbond.Weighted>
-1.5721

> <Gold.Chemscore.Metal.Weighted>
-0.0000

> <Gold.Chemscore.Lipo.Weighted>
-16.1288

> <Gold.Chemscore.Internal_Hbond.Weighted>
0.0000

> <Gold.Chemscore.DEClash.Weighted>
0.9388

> <Gold.Chemscore.DEInternal.Weighted>
0.9056

> <Gold.Chemscore.Rot.Weighted>
6.3385

> <Gold.Chemscore.Internal.Correction.Weighted>
   9.000000E+99

> <Gold.Protein.RotatedTorsions>
[ 6907 6896 6895 6894 ] final   75.39 input  -60.11 | X-H torsion
[ 7974 7965 7964 7962 ] final  153.73 input  175.53 | X-H torsion
[ 8008 7997 7996 7995 ] final  126.27 input   59.86 | X-H torsion
[ 10167 10162 10161 10158 ] final   93.07 input  -65.29 | X-H torsion
[ 10718 10713 10712 10709 ] final   80.69 input   66.30 | X-H torsion
[ 10763 10752 10751 10750 ] final  157.55 input  -60.55 | X-H torsion
[ 11005 11000 10999 10996 ] final   87.15 input  -57.11 | X-H torsion

> <Gold.Protein.ActiveResidues>
 VAL166  LYS551  ARG553  GLY616  TRP617  ASP618  TYR619  PRO620  LYS621  CYS622 
 ASP623  PHE694  ASN695  SER759  ASP760  ASP761  ALA762  ILE779  LEU786  VAL792 
 PHE793  MET794  SER795  GLU796  ALA797  LYS798  CYS799  TRP800  GLU811  SER814 

> <Gold.Protein.RotatedAtoms>
  152.5023  134.4127  159.9453 H   0  0  0  0  0  0  0  0  0  0  0  0  # atno 6907 bound_to 6896
  151.4096  133.3725  159.2750 H   0  0  0  0  0  0  0  0  0  0  0  0  # atno 6908 bound_to 6896
  150.9301  134.8738  159.7605 H   0  0  0  0  0  0  0  0  0  0  0  0  # atno 6909 bound_to 6896
  144.8135  139.6840  143.6131 H   0  0  0  0  0  0  0  0  0  0  0  0  # atno 7974 bound_to 7965
  156.2859  140.2696  156.2084 H   0  0  0  0  0  0  0  0  0  0  0  0  # atno 8008 bound_to 7997
  155.0289  140.0386  157.2484 H   0  0  0  0  0  0  0  0  0  0  0  0  # atno 8009 bound_to 7997
  154.7371  140.2718  155.6410 H   0  0  0  0  0  0  0  0  0  0  0  0  # atno 8010 bound_to 7997
  139.8215  144.6729  150.9513 H   0  0  0  0  0  0  0  0  0  0  0  0  # atno 10167 bound_to 10162
  157.6813  130.9971  150.2117 H   0  0  0  0  0  0  0  0  0  0  0  0  # atno 10718 bound_to 10713
  154.2020  135.2790  155.2987 H   0  0  0  0  0  0  0  0  0  0  0  0  # atno 10763 bound_to 10752
  154.5847  135.5578  153.7222 H   0  0  0  0  0  0  0  0  0  0  0  0  # atno 10764 bound_to 10752
  153.0085  135.6353  154.2158 H   0  0  0  0  0  0  0  0  0  0  0  0  # atno 10765 bound_to 10752
  139.8927  134.8403  156.2819 H   0  0  0  0  0  0  0  0  0  0  0  0  # atno 11005 bound_to 11000
  146.2436  139.6051  142.9475 LP  0  0  0  0  0  0  0  0  0  0  0  0  # atno 17320 bound_to 7965
  145.5269  141.0429  143.2404 LP  0  0  0  0  0  0  0  0  0  0  0  0  # atno 17321 bound_to 7965
  140.7813  143.4087  151.1028 LP  0  0  0  0  0  0  0  0  0  0  0  0  # atno 17342 bound_to 10162
  139.7747  143.8442  152.3127 LP  0  0  0  0  0  0  0  0  0  0  0  0  # atno 17343 bound_to 10162
  156.2786  130.3730  149.7958 LP  0  0  0  0  0  0  0  0  0  0  0  0  # atno 17370 bound_to 10713
  156.5653  130.8401  151.3341 LP  0  0  0  0  0  0  0  0  0  0  0  0  # atno 17371 bound_to 10713
  141.0033  133.7138  156.0994 LP  0  0  0  0  0  0  0  0  0  0  0  0  # atno 17394 bound_to 11000
  140.7468  134.4089  157.5547 LP  0  0  0  0  0  0  0  0  0  0  0  0  # atno 17395 bound_to 11000

$$$$
