AV-unprocessed.smi:2294|AV-procd|sdf|9216|dock7
  -GOLD-   2272012433D 1   1.00000     0.00000
 Structure written by MMmdl.
 34 35  0  0  0  0  0  0  0  0  1 V2000
  155.1588  140.8360  160.3191 C   0  0  0  0  0  0  0  0  0  0  0  0
  153.8295  140.8710  159.5861 C   0  0  0  0  0  0  0  0  0  0  0  0
  153.6622  139.9014  158.5933 N   0  0  0  0  0  0  0  0  0  0  0  0
  152.5615  139.8550  157.9170 C   0  0  0  0  0  0  0  0  0  0  0  0
  151.5111  140.7585  158.1517 N   0  0  0  0  0  0  0  0  0  0  0  0
  150.3125  140.5991  157.3100 C   0  0  0  0  0  0  0  0  0  0  0  0
  150.4803  141.2491  155.9183 C   0  0  2  0  0  0  0  0  0  0  0  0
  150.4875  142.6559  156.0656 O   0  0  0  0  0  0  0  0  0  0  0  0
  149.3772  140.7908  154.9723 C   0  0  0  0  0  0  0  0  0  0  0  0
  148.4103  141.7072  154.4997 C   0  0  0  0  0  0  0  0  0  0  0  0
  147.3859  141.2790  153.6336 C   0  0  0  0  0  0  0  0  0  0  0  0
  147.3171  139.9304  153.2366 C   0  0  0  0  0  0  0  0  0  0  0  0
  148.2713  139.0100  153.7099 C   0  0  0  0  0  0  0  0  0  0  0  0
  149.2968  139.4359  154.5766 C   0  0  0  0  0  0  0  0  0  0  0  0
  150.1999  138.5334  155.0301 F   0  0  0  0  0  0  0  0  0  0  0  0
  151.5934  141.7373  159.0987 C   0  0  0  0  0  0  0  0  0  0  0  0
  150.6693  142.5281  159.2965 O   0  0  0  0  0  0  0  0  0  0  0  0
  152.8527  141.7783  159.8602 C   0  0  0  0  0  0  0  0  0  0  0  0
  152.9805  142.8576  160.9284 C   0  0  0  0  0  0  0  0  0  0  0  0
  155.6973  141.7735  160.1785 H   0  0  0  0  0  0  0  0  0  0  0  0
  155.7928  140.0277  159.9533 H   0  0  0  0  0  0  0  0  0  0  0  0
  155.0029  140.6794  161.3867 H   0  0  0  0  0  0  0  0  0  0  0  0
  152.3824  139.1229  157.1272 H   0  0  0  0  0  0  0  0  0  0  0  0
  150.1256  139.5305  157.1827 H   0  0  0  0  0  0  0  0  0  0  0  0
  149.4103  140.9687  157.8013 H   0  0  0  0  0  0  0  0  0  0  0  0
  151.4422  140.9693  155.4874 H   0  0  0  0  0  0  0  0  0  0  0  0
  149.6130  142.9785  155.9099 H   0  0  0  0  0  0  0  0  0  0  0  0
  148.4479  142.7436  154.8021 H   0  0  0  0  0  0  0  0  0  0  0  0
  146.6517  141.9856  153.2755 H   0  0  0  0  0  0  0  0  0  0  0  0
  146.5312  139.6017  152.5726 H   0  0  0  0  0  0  0  0  0  0  0  0
  148.2157  137.9741  153.4093 H   0  0  0  0  0  0  0  0  0  0  0  0
  152.1927  142.7443  161.6736 H   0  0  0  0  0  0  0  0  0  0  0  0
  152.8812  143.8462  160.4787 H   0  0  0  0  0  0  0  0  0  0  0  0
  153.9335  142.8318  161.4540 H   0  0  0  0  0  0  0  0  0  0  0  0
  1  2  1  0  0  0  0
  1 20  1  0  0  0  0
  1 21  1  0  0  0  0
  1 22  1  0  0  0  0
  2 18  2  0  0  0  0
  2  3  1  0  0  0  0
  3  4  2  0  0  0  0
  4  5  1  0  0  0  0
  4 23  1  0  0  0  0
  5  6  1  0  0  0  0
  5 16  1  0  0  0  0
  6  7  1  0  0  0  0
  6 24  1  0  0  0  0
  6 25  1  0  0  0  0
  7  8  1  0  0  0  0
  7  9  1  0  0  0  0
  7 26  1  0  0  0  0
  8 27  1  0  0  0  0
  9 14  1  0  0  0  0
  9 10  2  0  0  0  0
 10 11  1  0  0  0  0
 10 28  1  0  0  0  0
 11 12  2  0  0  0  0
 11 29  1  0  0  0  0
 12 13  1  0  0  0  0
 12 30  1  0  0  0  0
 13 14  2  0  0  0  0
 13 31  1  0  0  0  0
 14 15  1  0  0  0  0
 16 17  2  0  0  0  0
 16 18  1  0  0  0  0
 18 19  1  0  0  0  0
 19 32  1  0  0  0  0
 19 33  1  0  0  0  0
 19 34  1  0  0  0  0
M  END
> <s_m_source_file>
AV-unprocessed.smi

> <i_m_source_file_index>
2294

> <i_lp_mmshare_version>
43012

> <i_f3d_flags>
0

> <s_epik_input>
W0NIM11jMW5bY0hdbihjKD1PKWMxW0NIM10pW0NIMl1bQ0BIXShbT0hdKWMyW2NIXVtjSF1bY0hdW2NIXWMyRg==

> <s_epik_cmdline>
J2VwaWtfcHl0aG9uJywgJy1waCcsICc3LjAnLCAnLXRuJywgJzgnLCAnLW1hJywgJzIwMCcsICctbWV0YWxfYmluZGluZycsICctaW1hZScsICc8aW5maWxlLm1hZT4nLCAnLW9tYWUnLCAnPG91dGZpbGUubWFlPic=

> <r_lp_tautomer_probability>
1

> <r_epik_Ionization_Penalty>
5.07259e-05

> <r_epik_Ionization_Penalty_Charging>
7.56727e-08

> <r_epik_Ionization_Penalty_Neutral>
5.06502e-05

> <r_epik_State_Penalty>
-0

> <r_epik_Charging_Adjusted_Penalty>
7.56727e-08

> <i_epik_Tot_Q>
0

> <i_epik_Tot_abs_Q>
0

> <r_epik_Metal_State_Penalty>
-0

> <b_epik_Metal_Only>
0

> <s_lp_Force_Field>
OPLS_2005

> <r_lp_Energy>
20.4384

> <b_lp_Chiralities_Consistent>
1

> <s_lp_Variant>
AV-unprocessed.smi:2294-1

> <Gold.Version>
5.8.1

> <Gold.Id.Protein>
6NUR|6NUR_protein|mol2

> <Gold.PLP.Fitness>
44.3329

> <Gold.PLP.PLP>
-40.0489

> <Gold.PLP.part.hbond>
-2.7831

> <Gold.PLP.part.metal>
0.0000

> <Gold.PLP.part.buried>
-1.0824

> <Gold.PLP.part.nonpolar>
-34.5275

> <Gold.PLP.part.repulsive>
0.0286

> <Gold.PLP.ligand.clash>
0.0000

> <Gold.PLP.ligand.torsion>
0.4660

> <Gold.PLP.Chemscore.Hbond>
1.7360

> <Gold.PLP.Chemscore.CHOScore>
0.0000

> <Gold.PLP.Chemscore.Metal>
0.0000

> <Gold.Chemscore.Hbonds>
donor molecule, donor type, donor heavy atom, donor atom, acceptor molecule, acceptor atom, score
      L1  H     8    27       P1  8028  0.67
      P1  H  7997  8008       L1     3  1.00

> <Gold.PLP.Chemscore.Internal.Correction>
0.0081

> <Gold.Rescore>
     Score         DG    S(hbond)    S(metal)    S(lipo)     H(rot)  DE(clash)    DE(int)     intcor
     14.65     -15.07       1.33        0.00      88.29       2.02       0.06       0.36       ----

> <Gold.Chemscore.Fitness>
14.6478

> <Gold.Chemscore.DG>
-15.0699

> <Gold.Chemscore.ZeroCoef>
-5.4800

> <Gold.Chemscore.Hbond>
1.3251

> <Gold.Chemscore.Metal>
0.0000

> <Gold.Chemscore.Lipo>
88.2933

> <Gold.Chemscore.Internal_Hbond>
0.0000

> <Gold.Chemscore.DEClash>
0.0622

> <Gold.Chemscore.DEInternal>
0.3600

> <Gold.Chemscore.Rot>
2.0181

> <Gold.Chemscore.Internal.Correction>
   9.000000E+99

> <Gold.Chemscore.Hbonds>
donor molecule, donor type, donor heavy atom, donor atom, acceptor molecule, acceptor atom, score
      L1  H     8    27       P1  8028  0.66
      P1  H  7997  8008       L1     3  0.24

> <Gold.Chemscore.Hbond.Weighted>
-4.4259

> <Gold.Chemscore.Metal.Weighted>
-0.0000

> <Gold.Chemscore.Lipo.Weighted>
-10.3303

> <Gold.Chemscore.Internal_Hbond.Weighted>
0.0000

> <Gold.Chemscore.DEClash.Weighted>
0.0622

> <Gold.Chemscore.DEInternal.Weighted>
0.3600

> <Gold.Chemscore.Rot.Weighted>
5.1663

> <Gold.Chemscore.Internal.Correction.Weighted>
   9.000000E+99

> <Gold.Protein.RotatedTorsions>
[ 6907 6896 6895 6894 ] final  114.97 input  -60.11 | X-H torsion
[ 7974 7965 7964 7962 ] final -109.60 input  175.53 | X-H torsion
[ 8008 7997 7996 7995 ] final -108.33 input   59.86 | X-H torsion
[ 10167 10162 10161 10158 ] final  -67.86 input  -65.29 | X-H torsion
[ 10718 10713 10712 10709 ] final  -19.32 input   66.30 | X-H torsion
[ 10763 10752 10751 10750 ] final   24.83 input  -60.55 | X-H torsion
[ 11005 11000 10999 10996 ] final    1.77 input  -57.11 | X-H torsion

> <Gold.Protein.ActiveResidues>
 VAL166  LYS551  ARG553  GLY616  TRP617  ASP618  TYR619  PRO620  LYS621  CYS622 
 ASP623  PHE694  ASN695  SER759  ASP760  ASP761  ALA762  ILE779  LEU786  VAL792 
 PHE793  MET794  SER795  GLU796  ALA797  LYS798  CYS799  TRP800  GLU811  SER814 

> <Gold.Protein.RotatedAtoms>
  152.4770  133.8162  159.7029 H   0  0  0  0  0  0  0  0  0  0  0  0  # atno 6907 bound_to 6896
  150.8793  133.7384  159.2943 H   0  0  0  0  0  0  0  0  0  0  0  0  # atno 6908 bound_to 6896
  151.4894  135.1060  159.9851 H   0  0  0  0  0  0  0  0  0  0  0  0  # atno 6909 bound_to 6896
  145.1785  140.8960  143.3493 H   0  0  0  0  0  0  0  0  0  0  0  0  # atno 7974 bound_to 7965
  154.9426  140.0402  157.2104 H   0  0  0  0  0  0  0  0  0  0  0  0  # atno 8008 bound_to 7997
  154.8054  140.2859  155.5869 H   0  0  0  0  0  0  0  0  0  0  0  0  # atno 8009 bound_to 7997
  156.2966  140.2547  156.2931 H   0  0  0  0  0  0  0  0  0  0  0  0  # atno 8010 bound_to 7997
  140.5551  143.2312  151.6837 H   0  0  0  0  0  0  0  0  0  0  0  0  # atno 10167 bound_to 10162
  156.5473  130.4693  149.6469 H   0  0  0  0  0  0  0  0  0  0  0  0  # atno 10718 bound_to 10713
  153.0735  135.6596  154.0196 H   0  0  0  0  0  0  0  0  0  0  0  0  # atno 10763 bound_to 10752
  153.9835  135.2953  155.3419 H   0  0  0  0  0  0  0  0  0  0  0  0  # atno 10764 bound_to 10752
  154.7117  135.5202  153.8746 H   0  0  0  0  0  0  0  0  0  0  0  0  # atno 10765 bound_to 10752
  140.6118  133.9742  155.8181 H   0  0  0  0  0  0  0  0  0  0  0  0  # atno 11005 bound_to 11000
  145.0160  139.3467  143.6096 LP  0  0  0  0  0  0  0  0  0  0  0  0  # atno 17320 bound_to 7965
  146.3457  139.9441  142.8737 LP  0  0  0  0  0  0  0  0  0  0  0  0  # atno 17321 bound_to 7965
  139.5044  144.3754  152.0429 LP  0  0  0  0  0  0  0  0  0  0  0  0  # atno 17342 bound_to 10162
  140.2875  144.3791  150.6099 LP  0  0  0  0  0  0  0  0  0  0  0  0  # atno 17343 bound_to 10162
  156.2917  130.7127  151.1978 LP  0  0  0  0  0  0  0  0  0  0  0  0  # atno 17370 bound_to 10713
  157.7394  131.0529  150.5233 LP  0  0  0  0  0  0  0  0  0  0  0  0  # atno 17371 bound_to 10713
  141.0803  134.0072  157.3396 LP  0  0  0  0  0  0  0  0  0  0  0  0  # atno 17394 bound_to 11000
  139.9189  135.0199  156.7989 LP  0  0  0  0  0  0  0  0  0  0  0  0  # atno 17395 bound_to 11000

$$$$
