AV-unprocessed.smi:1085|AV-procd|sdf|4722|dock6
  -GOLD-   22720 3253D 1   1.00000     0.00000
 Structure written by MMmdl.
 33 34  0  0  0  0  0  0  0  0  1 V2000
  155.6568  139.5738  158.8878 O   0  0  0  0  0  0  0  0  0  0  0  0
  154.5939  139.0681  159.2465 C   0  0  0  0  0  0  0  0  0  0  0  0
  154.2732  137.6197  158.8728 C   0  0  0  0  0  0  0  0  0  0  0  0
  153.7576  137.5243  157.5191 N   0  0  0  0  0  0  0  0  0  0  0  0
  152.9179  136.6509  156.9592 C   0  0  0  0  0  0  0  0  0  0  0  0
  152.7169  136.9193  155.6779 N   0  0  0  0  0  0  0  0  0  0  0  0
  153.5001  138.0413  155.4640 N   0  0  0  0  0  0  0  0  0  0  0  0
  154.1197  138.4054  156.5530 N   0  0  0  0  0  0  0  0  0  0  0  0
  153.6703  139.7192  159.9715 N   0  0  0  0  0  0  0  0  0  0  0  0
  153.7618  141.1060  160.4150 C   0  0  2  0  0  0  0  0  0  0  0  0
  153.4478  141.2131  161.9195 C   0  0  0  0  0  0  0  0  0  0  0  0
  153.4566  142.6762  162.3865 C   0  0  0  0  0  0  0  0  0  0  0  0
  152.4912  143.5353  161.5547 C   0  0  0  0  0  0  0  0  0  0  0  0
  152.8049  143.4465  160.0461 C   0  0  2  0  0  0  0  0  0  0  0  0
  151.8524  144.3195  159.2031 C   0  0  0  0  0  0  0  0  0  0  0  0
  150.6187  143.8137  159.2048 F   0  0  0  0  0  0  0  0  0  0  0  0
  151.8118  145.5576  159.6955 F   0  0  0  0  0  0  0  0  0  0  0  0
  152.2887  144.3870  157.9453 F   0  0  0  0  0  0  0  0  0  0  0  0
  152.7928  141.9721  159.5892 C   0  0  0  0  0  0  0  0  0  0  0  0
  155.1709  137.0048  158.9473 H   0  0  0  0  0  0  0  0  0  0  0  0
  153.5422  137.2112  159.5723 H   0  0  0  0  0  0  0  0  0  0  0  0
  152.4616  135.8247  157.4842 H   0  0  0  0  0  0  0  0  0  0  0  0
  152.8299  139.2181  160.2223 H   0  0  0  0  0  0  0  0  0  0  0  0
  154.7747  141.4742  160.2394 H   0  0  0  0  0  0  0  0  0  0  0  0
  152.4712  140.7728  162.1267 H   0  0  0  0  0  0  0  0  0  0  0  0
  154.1740  140.6404  162.4976 H   0  0  0  0  0  0  0  0  0  0  0  0
  153.1862  142.7303  163.4415 H   0  0  0  0  0  0  0  0  0  0  0  0
  154.4668  143.0791  162.3057 H   0  0  0  0  0  0  0  0  0  0  0  0
  151.4663  143.2110  161.7393 H   0  0  0  0  0  0  0  0  0  0  0  0
  152.5510  144.5710  161.8903 H   0  0  0  0  0  0  0  0  0  0  0  0
  153.8152  143.8305  159.8956 H   0  0  0  0  0  0  0  0  0  0  0  0
  153.0612  141.9095  158.5339 H   0  0  0  0  0  0  0  0  0  0  0  0
  151.7809  141.5726  159.6725 H   0  0  0  0  0  0  0  0  0  0  0  0
  1  2  2  0  0  0  0
  2  3  1  0  0  0  0
  2  9  1  0  0  0  0
  3  4  1  0  0  0  0
  3 20  1  0  0  0  0
  3 21  1  0  0  0  0
  4  8  1  0  0  0  0
  4  5  1  0  0  0  0
  5  6  2  0  0  0  0
  5 22  1  0  0  0  0
  6  7  1  0  0  0  0
  7  8  2  0  0  0  0
  9 10  1  0  0  0  0
  9 23  1  0  0  0  0
 10 19  1  0  0  0  0
 10 11  1  0  0  0  0
 10 24  1  0  0  0  0
 11 12  1  0  0  0  0
 11 25  1  0  0  0  0
 11 26  1  0  0  0  0
 12 13  1  0  0  0  0
 12 27  1  0  0  0  0
 12 28  1  0  0  0  0
 13 14  1  0  0  0  0
 13 29  1  0  0  0  0
 13 30  1  0  0  0  0
 14 15  1  0  0  0  0
 14 19  1  0  0  0  0
 14 31  1  0  0  0  0
 15 16  1  0  0  0  0
 15 17  1  0  0  0  0
 15 18  1  0  0  0  0
 19 32  1  0  0  0  0
 19 33  1  0  0  0  0
M  END
> <s_m_source_file>
AV-unprocessed.smi

> <i_m_source_file_index>
1085

> <i_lp_mmshare_version>
43012

> <i_f3d_flags>
0

> <s_epik_input>
bjFubltjSF1uMVtDSDJdQyg9TylbTkhdW0NAQEhdMltDSDJdW0NIMl1bQ0gyXVtDQEBIXShDKEYpKEYpRilbQ0gyXTI=

> <s_epik_cmdline>
J2VwaWtfcHl0aG9uJywgJy1waCcsICc3LjAnLCAnLXRuJywgJzgnLCAnLW1hJywgJzIwMCcsICctbWV0YWxfYmluZGluZycsICctaW1hZScsICc8aW5maWxlLm1hZT4nLCAnLW9tYWUnLCAnPG91dGZpbGUubWFlPic=

> <r_lp_tautomer_probability>
1

> <r_epik_Ionization_Penalty>
8.41315e-07

> <r_epik_Ionization_Penalty_Charging>
0

> <r_epik_Ionization_Penalty_Neutral>
8.41315e-07

> <r_epik_State_Penalty>
-0

> <r_epik_Charging_Adjusted_Penalty>
0

> <i_epik_Tot_Q>
0

> <i_epik_Tot_abs_Q>
0

> <r_epik_Metal_State_Penalty>
-0

> <b_epik_Metal_Only>
0

> <s_lp_Force_Field>
OPLS_2005

> <r_lp_Energy>
12.3149

> <b_lp_Chiralities_Consistent>
1

> <s_lp_Variant>
AV-unprocessed.smi:1085-3

> <Gold.Version>
5.8.1

> <Gold.Id.Protein>
6NUR|6NUR_protein|mol2

> <Gold.PLP.Fitness>
48.6985

> <Gold.PLP.PLP>
-42.9526

> <Gold.PLP.part.hbond>
-3.8126

> <Gold.PLP.part.metal>
0.0000

> <Gold.PLP.part.buried>
-6.0210

> <Gold.PLP.part.nonpolar>
-33.6802

> <Gold.PLP.part.repulsive>
0.0976

> <Gold.PLP.ligand.clash>
0.0000

> <Gold.PLP.ligand.torsion>
0.8986

> <Gold.PLP.Chemscore.Hbond>
2.5040

> <Gold.PLP.Chemscore.CHOScore>
0.0000

> <Gold.PLP.Chemscore.Metal>
0.0000

> <Gold.Chemscore.Hbonds>
donor molecule, donor type, donor heavy atom, donor atom, acceptor molecule, acceptor atom, score
      P1  H  7997  8009       L1     1  1.00
      P1  H  7997  8010       L1     8  0.34
      P1  H 10752 10765       L1     6  0.70

> <Gold.PLP.Chemscore.Internal.Correction>
0.0311

> <Gold.Rescore>
     Score         DG    S(hbond)    S(metal)    S(lipo)     H(rot)  DE(clash)    DE(int)     intcor
     15.81     -16.57       2.03        0.00      81.64       2.05       0.05       0.71       ----

> <Gold.Chemscore.Fitness>
15.8062

> <Gold.Chemscore.DG>
-16.5660

> <Gold.Chemscore.ZeroCoef>
-5.4800

> <Gold.Chemscore.Hbond>
2.0270

> <Gold.Chemscore.Metal>
0.0000

> <Gold.Chemscore.Lipo>
81.6449

> <Gold.Chemscore.Internal_Hbond>
0.0000

> <Gold.Chemscore.DEClash>
0.0460

> <Gold.Chemscore.DEInternal>
0.7138

> <Gold.Chemscore.Rot>
2.0456

> <Gold.Chemscore.Internal.Correction>
   9.000000E+99

> <Gold.Chemscore.Hbonds>
donor molecule, donor type, donor heavy atom, donor atom, acceptor molecule, acceptor atom, score
      P1  H  7997  8009       L1     1  0.87
      P1  H  7997  8010       L1     8  0.08
      P1  H 10752 10765       L1     6  0.30

> <Gold.Chemscore.Hbond.Weighted>
-6.7703

> <Gold.Chemscore.Metal.Weighted>
-0.0000

> <Gold.Chemscore.Lipo.Weighted>
-9.5525

> <Gold.Chemscore.Internal_Hbond.Weighted>
0.0000

> <Gold.Chemscore.DEClash.Weighted>
0.0460

> <Gold.Chemscore.DEInternal.Weighted>
0.7138

> <Gold.Chemscore.Rot.Weighted>
5.2368

> <Gold.Chemscore.Internal.Correction.Weighted>
   9.000000E+99

> <Gold.Protein.RotatedTorsions>
[ 6907 6896 6895 6894 ] final  125.77 input  -60.11 | X-H torsion
[ 7974 7965 7964 7962 ] final  -73.58 input  175.53 | X-H torsion
[ 8008 7997 7996 7995 ] final   86.67 input   59.86 | X-H torsion
[ 10167 10162 10161 10158 ] final -113.23 input  -65.29 | X-H torsion
[ 10718 10713 10712 10709 ] final   58.60 input   66.30 | X-H torsion
[ 10763 10752 10751 10750 ] final -158.93 input  -60.55 | X-H torsion
[ 11005 11000 10999 10996 ] final  117.17 input  -57.11 | X-H torsion

> <Gold.Protein.ActiveResidues>
 VAL166  LYS551  ARG553  GLY616  TRP617  ASP618  TYR619  PRO620  LYS621  CYS622 
 ASP623  PHE694  ASN695  SER759  ASP760  ASP761  ALA762  ILE779  LEU786  VAL792 
 PHE793  MET794  SER795  GLU796  ALA797  LYS798  CYS799  TRP800  GLU811  SER814 

> <Gold.Protein.RotatedAtoms>
  152.3962  133.6751  159.6278 H   0  0  0  0  0  0  0  0  0  0  0  0  # atno 6907 bound_to 6896
  150.7861  133.8869  159.3311 H   0  0  0  0  0  0  0  0  0  0  0  0  # atno 6908 bound_to 6896
  151.6645  135.0986  160.0237 H   0  0  0  0  0  0  0  0  0  0  0  0  # atno 6909 bound_to 6896
  145.6503  140.9284  143.0988 H   0  0  0  0  0  0  0  0  0  0  0  0  # atno 7974 bound_to 7965
  155.9657  140.3390  155.6530 H   0  0  0  0  0  0  0  0  0  0  0  0  # atno 8008 bound_to 7997
  155.6740  140.0730  157.2527 H   0  0  0  0  0  0  0  0  0  0  0  0  # atno 8009 bound_to 7997
  154.4154  140.1686  156.1898 H   0  0  0  0  0  0  0  0  0  0  0  0  # atno 8010 bound_to 7997
  140.1141  143.4501  152.1734 H   0  0  0  0  0  0  0  0  0  0  0  0  # atno 10167 bound_to 10162
  157.5609  130.8835  149.9110 H   0  0  0  0  0  0  0  0  0  0  0  0  # atno 10718 bound_to 10713
  154.7517  135.3094  154.8546 H   0  0  0  0  0  0  0  0  0  0  0  0  # atno 10763 bound_to 10752
  153.9331  135.6783  153.4749 H   0  0  0  0  0  0  0  0  0  0  0  0  # atno 10764 bound_to 10752
  153.1113  135.4865  154.8968 H   0  0  0  0  0  0  0  0  0  0  0  0  # atno 10765 bound_to 10752
  139.9065  134.9607  156.7311 H   0  0  0  0  0  0  0  0  0  0  0  0  # atno 11005 bound_to 11000
  144.7125  139.8318  143.7410 LP  0  0  0  0  0  0  0  0  0  0  0  0  # atno 17320 bound_to 7965
  146.1209  139.4227  143.0229 LP  0  0  0  0  0  0  0  0  0  0  0  0  # atno 17321 bound_to 7965
  139.5603  144.7401  151.4173 LP  0  0  0  0  0  0  0  0  0  0  0  0  # atno 17342 bound_to 10162
  140.6909  143.7863  150.7254 LP  0  0  0  0  0  0  0  0  0  0  0  0  # atno 17343 bound_to 10162
  156.0662  130.3692  150.0874 LP  0  0  0  0  0  0  0  0  0  0  0  0  # atno 17370 bound_to 10713
  156.9038  130.9629  151.3572 LP  0  0  0  0  0  0  0  0  0  0  0  0  # atno 17371 bound_to 10713
  140.6925  133.9378  155.7974 LP  0  0  0  0  0  0  0  0  0  0  0  0  # atno 17394 bound_to 11000
  141.0431  134.0592  157.3877 LP  0  0  0  0  0  0  0  0  0  0  0  0  # atno 17395 bound_to 11000

$$$$
