AV-unprocessed.smi:2355|AV-procd|sdf|9392|dock1
  -GOLD-   2272013 23D 1   1.00000     0.00000
 Structure written by MMmdl.
 49 50  0  0  0  0  0  0  0  0  2 V2000
  144.9557  132.2725  149.5874 C   0  0  0  0  0  0  0  0  0  0  0  0
  144.6332  133.2177  150.7253 C   0  0  0  0  0  0  0  0  0  0  0  0
  143.3406  133.2619  151.2816 C   0  0  0  0  0  0  0  0  0  0  0  0
  143.1007  134.1653  152.3354 C   0  0  0  0  0  0  0  0  0  0  0  0
  141.7347  134.2649  152.9808 C   0  0  0  0  0  0  0  0  0  0  0  0
  144.0498  134.9887  152.8299 N   0  0  0  0  0  0  0  0  0  0  0  0
  145.2991  134.9532  152.3031 C   0  0  0  0  0  0  0  0  0  0  0  0
  146.3648  135.7787  152.7506 N   0  0  0  0  0  0  0  0  0  0  0  0
  146.3344  136.7193  153.7105 C   0  0  0  0  0  0  0  0  0  0  0  0
  145.3573  136.9926  154.4087 O   0  0  0  0  0  0  0  0  0  0  0  0
  147.5124  137.3544  153.8116 N   0  0  0  0  0  0  0  0  0  0  0  0
  147.8196  138.4459  154.7394 C   0  0  1  0  0  0  0  0  0  0  0  0
  147.6248  137.9545  156.1834 C   0  0  0  0  0  0  0  0  0  0  0  0
  149.2293  139.0577  154.4755 C   0  0  1  0  0  0  0  0  0  0  0  0
  149.2405  140.5869  154.7238 C   0  0  0  0  0  0  0  0  0  0  0  0
  150.2742  138.3098  155.2502 N   0  3  0  0  0  0  0  0  0  0  0  0
  150.1958  136.8388  155.0527 C   0  0  0  0  0  0  0  0  0  0  0  0
  151.1620  136.1134  156.0025 C   0  0  0  0  0  0  0  0  0  0  0  0
  152.4853  136.5760  155.7719 O   0  0  0  0  0  0  0  0  0  0  0  0
  152.6081  137.9669  156.0348 C   0  0  0  0  0  0  0  0  0  0  0  0
  151.6828  138.7623  155.0976 C   0  0  0  0  0  0  0  0  0  0  0  0
  145.6236  134.0758  151.2446 C   0  0  0  0  0  0  0  0  0  0  0  0
  144.2024  131.4891  149.5021 H   0  0  0  0  0  0  0  0  0  0  0  0
  145.9233  131.7963  149.7478 H   0  0  0  0  0  0  0  0  0  0  0  0
  144.9926  132.8182  148.6445 H   0  0  0  0  0  0  0  0  0  0  0  0
  142.5541  132.6210  150.9104 H   0  0  0  0  0  0  0  0  0  0  0  0
  141.0724  133.4743  152.6279 H   0  0  0  0  0  0  0  0  0  0  0  0
  141.2753  135.2253  152.7463 H   0  0  0  0  0  0  0  0  0  0  0  0
  141.8178  134.1784  154.0647 H   0  0  0  0  0  0  0  0  0  0  0  0
  147.2426  135.6527  152.2685 H   0  0  0  0  0  0  0  0  0  0  0  0
  148.2592  137.0624  153.1976 H   0  0  0  0  0  0  0  0  0  0  0  0
  147.0692  139.2251  154.6046 H   0  0  0  0  0  0  0  0  0  0  0  0
  147.8721  138.7367  156.9015 H   0  0  0  0  0  0  0  0  0  0  0  0
  148.2393  137.0833  156.4101 H   0  0  0  0  0  0  0  0  0  0  0  0
  146.5865  137.6694  156.3581 H   0  0  0  0  0  0  0  0  0  0  0  0
  149.4616  138.9251  153.4174 H   0  0  0  0  0  0  0  0  0  0  0  0
  148.4831  141.0952  154.1288 H   0  0  0  0  0  0  0  0  0  0  0  0
  150.1900  141.0374  154.4346 H   0  0  0  0  0  0  0  0  0  0  0  0
  149.0533  140.8324  155.7695 H   0  0  0  0  0  0  0  0  0  0  0  0
  149.1849  136.4760  155.2325 H   0  0  0  0  0  0  0  0  0  0  0  0
  150.4397  136.5951  154.0176 H   0  0  0  0  0  0  0  0  0  0  0  0
  150.8802  136.2730  157.0447 H   0  0  0  0  0  0  0  0  0  0  0  0
  151.1282  135.0386  155.8235 H   0  0  0  0  0  0  0  0  0  0  0  0
  152.3716  138.1735  157.0800 H   0  0  0  0  0  0  0  0  0  0  0  0
  153.6450  138.2648  155.8799 H   0  0  0  0  0  0  0  0  0  0  0  0
  152.0007  138.6403  154.0610 H   0  0  0  0  0  0  0  0  0  0  0  0
  151.7836  139.8166  155.3536 H   0  0  0  0  0  0  0  0  0  0  0  0
  146.6219  134.0591  150.8316 H   0  0  0  0  0  0  0  0  0  0  0  0
  150.0495  138.4738  156.2220 H   0  0  0  0  0  0  0  0  0  0  0  0
  1  2  1  0  0  0  0
  1 23  1  0  0  0  0
  1 24  1  0  0  0  0
  1 25  1  0  0  0  0
  2 22  1  0  0  0  0
  2  3  2  0  0  0  0
  3  4  1  0  0  0  0
  3 26  1  0  0  0  0
  4  5  1  0  0  0  0
  4  6  2  0  0  0  0
  5 27  1  0  0  0  0
  5 28  1  0  0  0  0
  5 29  1  0  0  0  0
  6  7  1  0  0  0  0
  7  8  1  0  0  0  0
  7 22  2  0  0  0  0
  8  9  1  0  0  0  0
  8 30  1  0  0  0  0
  9 10  2  0  0  0  0
  9 11  1  0  0  0  0
 11 12  1  0  0  0  0
 11 31  1  0  0  0  0
 12 13  1  0  0  0  0
 12 14  1  0  0  0  0
 12 32  1  0  0  0  0
 13 33  1  0  0  0  0
 13 34  1  0  0  0  0
 13 35  1  0  0  0  0
 14 15  1  0  0  0  0
 14 16  1  0  0  0  0
 14 36  1  0  0  0  0
 15 37  1  0  0  0  0
 15 38  1  0  0  0  0
 15 39  1  0  0  0  0
 16 21  1  0  0  0  0
 16 17  1  0  0  0  0
 16 49  1  0  0  0  0
 17 18  1  0  0  0  0
 17 40  1  0  0  0  0
 17 41  1  0  0  0  0
 18 19  1  0  0  0  0
 18 42  1  0  0  0  0
 18 43  1  0  0  0  0
 19 20  1  0  0  0  0
 20 21  1  0  0  0  0
 20 44  1  0  0  0  0
 20 45  1  0  0  0  0
 21 46  1  0  0  0  0
 21 47  1  0  0  0  0
 22 48  1  0  0  0  0
M  CHG  1  16   1
M  END
> <s_m_source_file>
AV-unprocessed.smi

> <i_m_source_file_index>
2355

> <i_lp_mmshare_version>
43012

> <i_f3d_flags>
0

> <s_epik_input>
W0NIM11jMVtjSF1jKFtDSDNdKW5jKFtjSF0xKVtOSF1DKD1PKVtOSF1bQ0BIXShbQ0gzXSlbQ0BIXShbQ0gzXSlOMltDSDJdW0NIMl1PW0NIMl1bQ0gyXTI=

> <s_epik_cmdline>
J2VwaWtfcHl0aG9uJywgJy1waCcsICc3LjAnLCAnLXRuJywgJzgnLCAnLW1hJywgJzIwMCcsICctbWV0YWxfYmluZGluZycsICctaW1hZScsICc8aW5maWxlLm1hZT4nLCAnLW9tYWUnLCAnPG91dGZpbGUubWFlPic=

> <r_epik_Ionization_Penalty>
0.602711

> <r_epik_Ionization_Penalty_Charging>
0.602531

> <r_epik_Ionization_Penalty_Neutral>
0.000180055

> <r_epik_State_Penalty>
0.617039

> <r_epik_Charging_Adjusted_Penalty>
1.21957

> <i_epik_Tot_Q>
1

> <i_epik_Tot_abs_Q>
1

> <r_epik_Metal_State_Penalty>
0.617075

> <b_epik_Metal_Only>
0

> <s_lp_Force_Field>
OPLS_2005

> <r_lp_Energy>
30.3549

> <b_lp_Chiralities_Consistent>
1

> <s_lp_Variant>
AV-unprocessed.smi:2355-8

> <Gold.Version>
5.8.1

> <Gold.Id.Protein>
6NUR|6NUR_protein|mol2

> <Gold.PLP.Fitness>
41.4494

> <Gold.PLP.PLP>
-34.1644

> <Gold.PLP.part.hbond>
-3.0000

> <Gold.PLP.part.metal>
0.0000

> <Gold.PLP.part.buried>
-4.9958

> <Gold.PLP.part.nonpolar>
-27.4460

> <Gold.PLP.part.repulsive>
0.2505

> <Gold.PLP.ligand.clash>
0.0000

> <Gold.PLP.ligand.torsion>
0.7946

> <Gold.PLP.Chemscore.Hbond>
2.9120

> <Gold.PLP.Chemscore.CHOScore>
0.0000

> <Gold.PLP.Chemscore.Metal>
0.0000

> <Gold.Chemscore.Hbonds>
donor molecule, donor type, donor heavy atom, donor atom, acceptor molecule, acceptor atom, score
      L1  H     8    30       P1  7948  1.00
      L1  H    11    31       P1  7948  1.00
      P1  H 10752 10763       L1    19  0.81

> <Gold.PLP.Chemscore.Internal.Correction>
0.1382

> <Gold.Rescore>
     Score         DG    S(hbond)    S(metal)    S(lipo)     H(rot)  DE(clash)    DE(int)     intcor
     16.79     -20.87       2.69        0.00      86.42       1.45       0.04       4.05       ----

> <Gold.Chemscore.Fitness>
16.7877

> <Gold.Chemscore.DG>
-20.8701

> <Gold.Chemscore.ZeroCoef>
-5.4800

> <Gold.Chemscore.Hbond>
2.6892

> <Gold.Chemscore.Metal>
0.0000

> <Gold.Chemscore.Lipo>
86.4152

> <Gold.Chemscore.Internal_Hbond>
0.0000

> <Gold.Chemscore.DEClash>
0.0358

> <Gold.Chemscore.DEInternal>
4.0467

> <Gold.Chemscore.Rot>
1.4462

> <Gold.Chemscore.Internal.Correction>
   9.000000E+99

> <Gold.Chemscore.Hbonds>
donor molecule, donor type, donor heavy atom, donor atom, acceptor molecule, acceptor atom, score
      L1  H     8    30       P1  7948  0.96
      L1  H    11    31       P1  7948  0.98
      P1  H 10752 10763       L1    19  0.34

> <Gold.Chemscore.Hbond.Weighted>
-8.9818

> <Gold.Chemscore.Metal.Weighted>
-0.0000

> <Gold.Chemscore.Lipo.Weighted>
-10.1106

> <Gold.Chemscore.Internal_Hbond.Weighted>
0.0000

> <Gold.Chemscore.DEClash.Weighted>
0.0358

> <Gold.Chemscore.DEInternal.Weighted>
4.0467

> <Gold.Chemscore.Rot.Weighted>
3.7023

> <Gold.Chemscore.Internal.Correction.Weighted>
   9.000000E+99

> <Gold.Protein.RotatedTorsions>
[ 6907 6896 6895 6894 ] final   88.86 input  -60.11 | X-H torsion
[ 7974 7965 7964 7962 ] final   68.82 input  175.53 | X-H torsion
[ 8008 7997 7996 7995 ] final  -92.42 input   59.86 | X-H torsion
[ 10167 10162 10161 10158 ] final   23.36 input  -65.29 | X-H torsion
[ 10718 10713 10712 10709 ] final  -46.69 input   66.30 | X-H torsion
[ 10763 10752 10751 10750 ] final   80.45 input  -60.55 | X-H torsion
[ 11005 11000 10999 10996 ] final -100.24 input  -57.11 | X-H torsion

> <Gold.Protein.ActiveResidues>
 VAL166  LYS551  ARG553  GLY616  TRP617  ASP618  TYR619  PRO620  LYS621  CYS622 
 ASP623  PHE694  ASN695  SER759  ASP760  ASP761  ALA762  ILE779  LEU786  VAL792 
 PHE793  MET794  SER795  GLU796  ALA797  LYS798  CYS799  TRP800  GLU811  SER814 

> <Gold.Protein.RotatedAtoms>
  152.5430  134.2056  159.8729 H   0  0  0  0  0  0  0  0  0  0  0  0  # atno 6907 bound_to 6896
  151.2042  133.4586  159.2604 H   0  0  0  0  0  0  0  0  0  0  0  0  # atno 6908 bound_to 6896
  151.0959  134.9956  159.8481 H   0  0  0  0  0  0  0  0  0  0  0  0  # atno 6909 bound_to 6896
  145.7980  139.2967  143.1171 H   0  0  0  0  0  0  0  0  0  0  0  0  # atno 7974 bound_to 7965
  154.7229  140.0509  157.0656 H   0  0  0  0  0  0  0  0  0  0  0  0  # atno 8008 bound_to 7997
  155.0403  140.3168  155.4708 H   0  0  0  0  0  0  0  0  0  0  0  0  # atno 8009 bound_to 7997
  156.2821  140.2134  156.5526 H   0  0  0  0  0  0  0  0  0  0  0  0  # atno 8010 bound_to 7997
  140.5275  143.9898  150.6448 H   0  0  0  0  0  0  0  0  0  0  0  0  # atno 10167 bound_to 10162
  156.2158  130.4163  149.9055 H   0  0  0  0  0  0  0  0  0  0  0  0  # atno 10718 bound_to 10713
  153.1034  135.4802  154.8908 H   0  0  0  0  0  0  0  0  0  0  0  0  # atno 10763 bound_to 10752
  154.7404  135.3081  154.8740 H   0  0  0  0  0  0  0  0  0  0  0  0  # atno 10764 bound_to 10752
  153.9350  135.6840  153.4798 H   0  0  0  0  0  0  0  0  0  0  0  0  # atno 10765 bound_to 10752
  141.1278  133.8384  157.1077 H   0  0  0  0  0  0  0  0  0  0  0  0  # atno 11005 bound_to 11000
  145.9908  140.8604  143.0067 LP  0  0  0  0  0  0  0  0  0  0  0  0  # atno 17320 bound_to 7965
  144.6772  140.2213  143.7366 LP  0  0  0  0  0  0  0  0  0  0  0  0  # atno 17321 bound_to 7965
  140.3264  143.3105  152.0732 LP  0  0  0  0  0  0  0  0  0  0  0  0  # atno 17342 bound_to 10162
  139.4943  144.6539  151.6616 LP  0  0  0  0  0  0  0  0  0  0  0  0  # atno 17343 bound_to 10162
  156.6718  130.8823  151.3563 LP  0  0  0  0  0  0  0  0  0  0  0  0  # atno 17370 bound_to 10713
  157.7062  130.9388  150.0940 LP  0  0  0  0  0  0  0  0  0  0  0  0  # atno 17371 bound_to 10713
  140.0294  134.9908  157.0751 LP  0  0  0  0  0  0  0  0  0  0  0  0  # atno 17394 bound_to 11000
  140.4309  134.1781  155.7168 LP  0  0  0  0  0  0  0  0  0  0  0  0  # atno 17395 bound_to 11000

$$$$
