AV-unprocessed.smi:2627|AV-procd|sdf|10239|dock10
  -GOLD-   2272014243D 1   1.00000     0.00000
 Structure written by MMmdl.
 39 41  0  0  0  0  0  0  0  0  1 V2000
  153.2770  139.1001  153.8554 C   0  0  0  0  0  0  0  0  0  0  0  0
  152.0801  138.2210  154.2410 C   0  0  2  0  0  0  0  0  0  0  0  0
  152.0217  137.1359  153.3367 O   0  0  0  0  0  0  0  0  0  0  0  0
  150.7971  139.0067  154.2769 C   0  0  0  0  0  0  0  0  0  0  0  0
  149.7143  138.6332  153.5908 N   0  0  0  0  0  0  0  0  0  0  0  0
  148.7992  139.6201  153.8990 C   0  0  0  0  0  0  0  0  0  0  0  0
  147.4566  139.7873  153.4910 C   0  0  0  0  0  0  0  0  0  0  0  0
  146.7046  140.8904  153.9456 C   0  0  0  0  0  0  0  0  0  0  0  0
  147.2834  141.8401  154.8122 C   0  0  0  0  0  0  0  0  0  0  0  0
  148.6204  141.6929  155.2292 C   0  0  0  0  0  0  0  0  0  0  0  0
  149.3665  140.5900  154.7721 C   0  0  0  0  0  0  0  0  0  0  0  0
  150.6723  140.1595  154.9841 N   0  0  0  0  0  0  0  0  0  0  0  0
  151.6676  140.8279  155.8075 C   0  0  0  0  0  0  0  0  0  0  0  0
  151.0582  141.3478  157.1148 C   0  0  0  0  0  0  0  0  0  0  0  0
  152.0903  141.4524  158.0847 O   0  0  0  0  0  0  0  0  0  0  0  0
  152.0095  142.4668  159.0145 C   0  0  0  0  0  0  0  0  0  0  0  0
  152.6105  142.2338  160.2689 C   0  0  0  0  0  0  0  0  0  0  0  0
  152.5757  143.2146  161.2787 C   0  0  0  0  0  0  0  0  0  0  0  0
  151.9369  144.4455  161.0417 C   0  0  0  0  0  0  0  0  0  0  0  0
  151.3341  144.6926  159.7942 C   0  0  0  0  0  0  0  0  0  0  0  0
  151.3683  143.7109  158.7845 C   0  0  0  0  0  0  0  0  0  0  0  0
  153.3976  139.9264  154.5564 H   0  0  0  0  0  0  0  0  0  0  0  0
  153.1516  139.5257  152.8590 H   0  0  0  0  0  0  0  0  0  0  0  0
  154.2047  138.5270  153.8589 H   0  0  0  0  0  0  0  0  0  0  0  0
  152.2623  137.7824  155.2212 H   0  0  0  0  0  0  0  0  0  0  0  0
  151.6822  137.4514  152.5133 H   0  0  0  0  0  0  0  0  0  0  0  0
  147.0040  139.0643  152.8287 H   0  0  0  0  0  0  0  0  0  0  0  0
  145.6787  141.0077  153.6287 H   0  0  0  0  0  0  0  0  0  0  0  0
  146.7001  142.6814  155.1571 H   0  0  0  0  0  0  0  0  0  0  0  0
  149.0661  142.4184  155.8936 H   0  0  0  0  0  0  0  0  0  0  0  0
  152.4919  140.1436  156.0079 H   0  0  0  0  0  0  0  0  0  0  0  0
  152.0934  141.6550  155.2389 H   0  0  0  0  0  0  0  0  0  0  0  0
  150.5989  142.3225  156.9425 H   0  0  0  0  0  0  0  0  0  0  0  0
  150.2838  140.6631  157.4640 H   0  0  0  0  0  0  0  0  0  0  0  0
  153.1031  141.2916  160.4603 H   0  0  0  0  0  0  0  0  0  0  0  0
  153.0394  143.0216  162.2349 H   0  0  0  0  0  0  0  0  0  0  0  0
  151.9094  145.1989  161.8150 H   0  0  0  0  0  0  0  0  0  0  0  0
  150.8441  145.6374  159.6106 H   0  0  0  0  0  0  0  0  0  0  0  0
  150.8953  143.9381  157.8412 H   0  0  0  0  0  0  0  0  0  0  0  0
  1  2  1  0  0  0  0
  1 22  1  0  0  0  0
  1 23  1  0  0  0  0
  1 24  1  0  0  0  0
  2  3  1  0  0  0  0
  2  4  1  0  0  0  0
  2 25  1  0  0  0  0
  3 26  1  0  0  0  0
  4 12  1  0  0  0  0
  4  5  2  0  0  0  0
  5  6  1  0  0  0  0
  6 11  2  0  0  0  0
  6  7  1  0  0  0  0
  7  8  2  0  0  0  0
  7 27  1  0  0  0  0
  8  9  1  0  0  0  0
  8 28  1  0  0  0  0
  9 10  2  0  0  0  0
  9 29  1  0  0  0  0
 10 11  1  0  0  0  0
 10 30  1  0  0  0  0
 11 12  1  0  0  0  0
 12 13  1  0  0  0  0
 13 14  1  0  0  0  0
 13 31  1  0  0  0  0
 13 32  1  0  0  0  0
 14 15  1  0  0  0  0
 14 33  1  0  0  0  0
 14 34  1  0  0  0  0
 15 16  1  0  0  0  0
 16 21  1  0  0  0  0
 16 17  2  0  0  0  0
 17 18  1  0  0  0  0
 17 35  1  0  0  0  0
 18 19  2  0  0  0  0
 18 36  1  0  0  0  0
 19 20  1  0  0  0  0
 19 37  1  0  0  0  0
 20 21  2  0  0  0  0
 20 38  1  0  0  0  0
 21 39  1  0  0  0  0
M  END
> <s_m_source_file>
AV-unprocessed.smi

> <i_m_source_file_index>
2627

> <i_lp_mmshare_version>
43012

> <i_f3d_flags>
0

> <s_epik_input>
W2NIXTFbY0hdW2NIXVtjSF1jKGMxMiluKGMobjIpW0NASF0oW0NIM10pW09IXSlbQ0gyXVtDSDJdT2MzW2NIXVtjSF1bY0hdW2NIXVtjSF0z

> <s_epik_cmdline>
J2VwaWtfcHl0aG9uJywgJy1waCcsICc3LjAnLCAnLXRuJywgJzgnLCAnLW1hJywgJzIwMCcsICctbWV0YWxfYmluZGluZycsICctaW1hZScsICc8aW5maWxlLm1hZT4nLCAnLW9tYWUnLCAnPG91dGZpbGUubWFlPic=

> <r_lp_tautomer_probability>
1

> <r_epik_Ionization_Penalty>
0.0472514

> <r_epik_Ionization_Penalty_Charging>
0

> <r_epik_Ionization_Penalty_Neutral>
0.0472514

> <r_epik_State_Penalty>
0.040225

> <r_epik_Charging_Adjusted_Penalty>
0.040225

> <i_epik_Tot_Q>
0

> <i_epik_Tot_abs_Q>
0

> <r_epik_Metal_State_Penalty>
4.16204e-05

> <b_epik_Metal_Only>
0

> <s_lp_Force_Field>
OPLS_2005

> <r_lp_Energy>
15.0565

> <b_lp_Chiralities_Consistent>
1

> <s_lp_Variant>
AV-unprocessed.smi:2627-1

> <Gold.Version>
5.8.1

> <Gold.Id.Protein>
6NUR|6NUR_protein|mol2

> <Gold.PLP.Fitness>
56.0504

> <Gold.PLP.PLP>
-52.4196

> <Gold.PLP.part.hbond>
-2.0000

> <Gold.PLP.part.metal>
0.0000

> <Gold.PLP.part.buried>
-2.1635

> <Gold.PLP.part.nonpolar>
-49.5366

> <Gold.PLP.part.repulsive>
0.8872

> <Gold.PLP.ligand.clash>
0.0000

> <Gold.PLP.ligand.torsion>
1.0589

> <Gold.PLP.Chemscore.Hbond>
1.8960

> <Gold.PLP.Chemscore.CHOScore>
0.0000

> <Gold.PLP.Chemscore.Metal>
0.0000

> <Gold.Chemscore.Hbonds>
donor molecule, donor type, donor heavy atom, donor atom, acceptor molecule, acceptor atom, score
      L1  H     3    26       P1  7949  0.18
      P1  H 10752 10763       L1     3  1.00

> <Gold.PLP.Chemscore.Internal.Correction>
0.0606

> <Gold.Rescore>
     Score         DG    S(hbond)    S(metal)    S(lipo)     H(rot)  DE(clash)    DE(int)     intcor
     17.61     -19.78       1.00        0.00     138.68       2.06       1.42       0.75       ----

> <Gold.Chemscore.Fitness>
17.6115

> <Gold.Chemscore.DG>
-19.7769

> <Gold.Chemscore.ZeroCoef>
-5.4800

> <Gold.Chemscore.Hbond>
0.9998

> <Gold.Chemscore.Metal>
0.0000

> <Gold.Chemscore.Lipo>
138.6794

> <Gold.Chemscore.Internal_Hbond>
0.0000

> <Gold.Chemscore.DEClash>
1.4158

> <Gold.Chemscore.DEInternal>
0.7495

> <Gold.Chemscore.Rot>
2.0577

> <Gold.Chemscore.Internal.Correction>
   9.000000E+99

> <Gold.Chemscore.Hbonds>
donor molecule, donor type, donor heavy atom, donor atom, acceptor molecule, acceptor atom, score
      L1  H     3    26       P1  7949  0.18
      P1  H 10752 10763       L1     3  0.74

> <Gold.Chemscore.Hbond.Weighted>
-3.3392

> <Gold.Chemscore.Metal.Weighted>
-0.0000

> <Gold.Chemscore.Lipo.Weighted>
-16.2255

> <Gold.Chemscore.Internal_Hbond.Weighted>
0.0000

> <Gold.Chemscore.DEClash.Weighted>
1.4158

> <Gold.Chemscore.DEInternal.Weighted>
0.7495

> <Gold.Chemscore.Rot.Weighted>
5.2678

> <Gold.Chemscore.Internal.Correction.Weighted>
   9.000000E+99

> <Gold.Protein.RotatedTorsions>
[ 6907 6896 6895 6894 ] final -114.00 input  -60.11 | X-H torsion
[ 7974 7965 7964 7962 ] final -118.54 input  175.53 | X-H torsion
[ 8008 7997 7996 7995 ] final -179.09 input   59.86 | X-H torsion
[ 10167 10162 10161 10158 ] final  -23.29 input  -65.29 | X-H torsion
[ 10718 10713 10712 10709 ] final  -45.96 input   66.30 | X-H torsion
[ 10763 10752 10751 10750 ] final   24.07 input  -60.55 | X-H torsion
[ 11005 11000 10999 10996 ] final  154.30 input  -57.11 | X-H torsion

> <Gold.Protein.ActiveResidues>
 VAL166  LYS551  ARG553  GLY616  TRP617  ASP618  TYR619  PRO620  LYS621  CYS622 
 ASP623  PHE694  ASN695  SER759  ASP760  ASP761  ALA762  ILE779  LEU786  VAL792 
 PHE793  MET794  SER795  GLU796  ALA797  LYS798  CYS799  TRP800  GLU811  SER814 

> <Gold.Protein.RotatedAtoms>
  150.7870  133.8863  159.3300 H   0  0  0  0  0  0  0  0  0  0  0  0  # atno 6907 bound_to 6896
  151.6711  135.0974  160.0207 H   0  0  0  0  0  0  0  0  0  0  0  0  # atno 6908 bound_to 6896
  152.3936  133.6676  159.6293 H   0  0  0  0  0  0  0  0  0  0  0  0  # atno 6909 bound_to 6896
  145.0727  140.8370  143.4086 H   0  0  0  0  0  0  0  0  0  0  0  0  # atno 7974 bound_to 7965
  156.0265  140.1272  157.0303 H   0  0  0  0  0  0  0  0  0  0  0  0  # atno 8008 bound_to 7997
  154.4332  140.1058  156.6108 H   0  0  0  0  0  0  0  0  0  0  0  0  # atno 8009 bound_to 7997
  155.5869  140.3469  155.4558 H   0  0  0  0  0  0  0  0  0  0  0  0  # atno 8010 bound_to 7997
  140.7288  143.4457  151.0591 H   0  0  0  0  0  0  0  0  0  0  0  0  # atno 10167 bound_to 10162
  156.2231  130.4167  149.8968 H   0  0  0  0  0  0  0  0  0  0  0  0  # atno 10718 bound_to 10713
  153.0791  135.6613  154.0083 H   0  0  0  0  0  0  0  0  0  0  0  0  # atno 10763 bound_to 10752
  153.9709  135.2964  155.3429 H   0  0  0  0  0  0  0  0  0  0  0  0  # atno 10764 bound_to 10752
  154.7186  135.5174  153.8848 H   0  0  0  0  0  0  0  0  0  0  0  0  # atno 10765 bound_to 10752
  140.1476  134.8697  157.2413 H   0  0  0  0  0  0  0  0  0  0  0  0  # atno 11005 bound_to 11000
  145.1273  139.2654  143.5557 LP  0  0  0  0  0  0  0  0  0  0  0  0  # atno 17320 bound_to 7965
  146.3529  140.0914  142.8612 LP  0  0  0  0  0  0  0  0  0  0  0  0  # atno 17321 bound_to 7965
  139.8128  143.7927  152.3172 LP  0  0  0  0  0  0  0  0  0  0  0  0  # atno 17342 bound_to 10162
  139.7983  144.7384  150.9860 LP  0  0  0  0  0  0  0  0  0  0  0  0  # atno 17343 bound_to 10162
  156.6608  130.8781  151.3547 LP  0  0  0  0  0  0  0  0  0  0  0  0  # atno 17370 bound_to 10713
  157.7097  130.9426  150.1048 LP  0  0  0  0  0  0  0  0  0  0  0  0  # atno 17371 bound_to 10713
  140.2644  134.3533  155.7395 LP  0  0  0  0  0  0  0  0  0  0  0  0  # atno 17394 bound_to 11000
  141.2195  133.7388  156.9129 LP  0  0  0  0  0  0  0  0  0  0  0  0  # atno 17395 bound_to 11000

$$$$
