AV-unprocessed.smi:1047|AV-procd|sdf|4565|dock6
  -GOLD-   22720 3 13D 1   1.00000     0.00000
 Structure written by MMmdl.
 57 59  0  0  0  0  0  0  0  0  3 V2000
  146.5871  130.4455  152.6503 C   0  0  0  0  0  0  0  0  0  0  0  0
  147.1638  131.7531  153.2110 C   0  0  0  0  0  0  0  0  0  0  0  0
  148.6361  131.8531  153.0247 N   0  3  2  0  0  0  0  0  0  0  0  0
  149.4028  130.8788  153.8389 C   0  0  0  0  0  0  0  0  0  0  0  0
  149.5074  131.3393  155.3036 C   0  0  0  0  0  0  0  0  0  0  0  0
  150.0980  132.6329  155.3510 O   0  0  0  0  0  0  0  0  0  0  0  0
  149.3197  133.6172  154.6772 C   0  0  1  0  0  0  0  0  0  0  0  0
  150.0201  134.9741  154.8469 C   0  0  0  0  0  0  0  0  0  0  0  0
  149.2029  136.0743  154.2964 N   0  3  0  0  0  0  0  0  0  0  0  0
  149.3625  137.3569  155.0096 C   0  0  0  0  0  0  0  0  0  0  0  0
  150.7995  137.8962  154.8791 C   0  0  1  0  0  0  0  0  0  0  0  0
  151.1969  137.7892  153.5258 O   0  0  0  0  0  0  0  0  0  0  0  0
  150.9537  139.3626  155.3393 C   0  0  0  0  0  0  0  0  0  0  0  0
  151.5188  139.4987  156.6722 N   0  0  0  0  0  0  0  0  0  0  0  0
  151.9470  138.5076  157.4784 C   0  0  0  0  0  0  0  0  0  0  0  0
  152.4396  138.8556  158.6632 N   0  0  0  0  0  0  0  0  0  0  0  0
  152.3087  140.2329  158.6265 C   0  0  0  0  0  0  0  0  0  0  0  0
  152.6504  141.2120  159.5846 C   0  0  0  0  0  0  0  0  0  0  0  0
  152.4257  142.5838  159.3312 C   0  0  0  0  0  0  0  0  0  0  0  0
  152.8076  143.6025  160.3905 C   0  0  0  0  0  0  0  0  0  0  0  0
  151.8487  142.9942  158.1026 C   0  0  0  0  0  0  0  0  0  0  0  0
  151.5957  144.4624  157.8095 C   0  0  0  0  0  0  0  0  0  0  0  0
  151.5004  142.0291  157.1348 C   0  0  0  0  0  0  0  0  0  0  0  0
  151.7316  140.6669  157.3973 C   0  0  0  0  0  0  0  0  0  0  0  0
  149.1970  133.2196  153.1886 C   0  0  0  0  0  0  0  0  0  0  0  0
  145.5283  130.3595  152.8950 H   0  0  0  0  0  0  0  0  0  0  0  0
  147.0932  129.5774  153.0739 H   0  0  0  0  0  0  0  0  0  0  0  0
  146.6709  130.3898  151.5656 H   0  0  0  0  0  0  0  0  0  0  0  0
  146.6539  132.6115  152.7742 H   0  0  0  0  0  0  0  0  0  0  0  0
  146.9410  131.7780  154.2786 H   0  0  0  0  0  0  0  0  0  0  0  0
  148.9584  129.8848  153.7746 H   0  0  0  0  0  0  0  0  0  0  0  0
  150.4050  130.7924  153.4168 H   0  0  0  0  0  0  0  0  0  0  0  0
  148.5300  131.3504  155.7882 H   0  0  0  0  0  0  0  0  0  0  0  0
  150.1321  130.6476  155.8689 H   0  0  0  0  0  0  0  0  0  0  0  0
  148.3292  133.6748  155.1312 H   0  0  0  0  0  0  0  0  0  0  0  0
  150.2273  135.1626  155.9015 H   0  0  0  0  0  0  0  0  0  0  0  0
  150.9798  134.9631  154.3286 H   0  0  0  0  0  0  0  0  0  0  0  0
  149.4463  136.2128  153.3262 H   0  0  0  0  0  0  0  0  0  0  0  0
  148.6419  138.0791  154.6224 H   0  0  0  0  0  0  0  0  0  0  0  0
  149.1233  137.1978  156.0616 H   0  0  0  0  0  0  0  0  0  0  0  0
  151.4736  137.2795  155.4749 H   0  0  0  0  0  0  0  0  0  0  0  0
  151.2568  136.8728  153.2999 H   0  0  0  0  0  0  0  0  0  0  0  0
  151.5940  139.9027  154.6410 H   0  0  0  0  0  0  0  0  0  0  0  0
  149.9882  139.8703  155.3190 H   0  0  0  0  0  0  0  0  0  0  0  0
  151.9006  137.4717  157.1754 H   0  0  0  0  0  0  0  0  0  0  0  0
  153.0887  140.8990  160.5209 H   0  0  0  0  0  0  0  0  0  0  0  0
  151.9332  144.1725  160.7052 H   0  0  0  0  0  0  0  0  0  0  0  0
  153.5529  144.2968  160.0018 H   0  0  0  0  0  0  0  0  0  0  0  0
  153.2278  143.1207  161.2739 H   0  0  0  0  0  0  0  0  0  0  0  0
  151.1600  144.6015  156.8198 H   0  0  0  0  0  0  0  0  0  0  0  0
  152.5279  145.0268  157.8470 H   0  0  0  0  0  0  0  0  0  0  0  0
  150.9057  144.8838  158.5409 H   0  0  0  0  0  0  0  0  0  0  0  0
  151.0577  142.3298  156.1970 H   0  0  0  0  0  0  0  0  0  0  0  0
  150.1872  133.2299  152.7309 H   0  0  0  0  0  0  0  0  0  0  0  0
  148.6067  133.9527  152.6406 H   0  0  0  0  0  0  0  0  0  0  0  0
  148.2292  135.8087  154.3505 H   0  0  0  0  0  0  0  0  0  0  0  0
  148.7951  131.5898  152.0621 H   0  0  0  0  0  0  0  0  0  0  0  0
  1  2  1  0  0  0  0
  1 26  1  0  0  0  0
  1 27  1  0  0  0  0
  1 28  1  0  0  0  0
  2  3  1  0  0  0  0
  2 29  1  0  0  0  0
  2 30  1  0  0  0  0
  3 25  1  0  0  0  0
  3  4  1  0  0  0  0
  3 57  1  0  0  0  0
  4  5  1  0  0  0  0
  4 31  1  0  0  0  0
  4 32  1  0  0  0  0
  5  6  1  0  0  0  0
  5 33  1  0  0  0  0
  5 34  1  0  0  0  0
  6  7  1  0  0  0  0
  7  8  1  0  0  0  0
  7 25  1  0  0  0  0
  7 35  1  0  0  0  0
  8  9  1  0  0  0  0
  8 36  1  0  0  0  0
  8 37  1  0  0  0  0
  9 10  1  0  0  0  0
  9 38  1  0  0  0  0
  9 56  1  0  0  0  0
 10 11  1  0  0  0  0
 10 39  1  0  0  0  0
 10 40  1  0  0  0  0
 11 12  1  0  0  0  0
 11 13  1  0  0  0  0
 11 41  1  0  0  0  0
 12 42  1  0  0  0  0
 13 14  1  0  0  0  0
 13 43  1  0  0  0  0
 13 44  1  0  0  0  0
 14 24  1  0  0  0  0
 14 15  1  0  0  0  0
 15 16  2  0  0  0  0
 15 45  1  0  0  0  0
 16 17  1  0  0  0  0
 17 24  2  0  0  0  0
 17 18  1  0  0  0  0
 18 19  2  0  0  0  0
 18 46  1  0  0  0  0
 19 20  1  0  0  0  0
 19 21  1  0  0  0  0
 20 47  1  0  0  0  0
 20 48  1  0  0  0  0
 20 49  1  0  0  0  0
 21 22  1  0  0  0  0
 21 23  2  0  0  0  0
 22 50  1  0  0  0  0
 22 51  1  0  0  0  0
 22 52  1  0  0  0  0
 23 24  1  0  0  0  0
 23 53  1  0  0  0  0
 25 54  1  0  0  0  0
 25 55  1  0  0  0  0
M  CHG  1   3   1
M  CHG  1   9   1
M  END
> <s_m_source_file>
AV-unprocessed.smi

> <i_m_source_file_index>
1047

> <i_lp_mmshare_version>
43012

> <i_f3d_flags>
0

> <s_epik_input>
W0NIM11bQ0gyXU4xW0NIMl1bQ0gyXU9bQ0BIXShbQ0gyXTEpW0NIMl1bTkhdW0NIMl1bQ0BIXShbT0hdKVtDSDJdbihbY0hdbjIpYyhjMjMpW2NIXWMoW0NIM10pYyhbY0hdMylbQ0gzXQ==

> <s_epik_cmdline>
J2VwaWtfcHl0aG9uJywgJy1waCcsICc3LjAnLCAnLXRuJywgJzgnLCAnLW1hJywgJzIwMCcsICctbWV0YWxfYmluZGluZycsICctaW1hZScsICc8aW5maWxlLm1hZT4nLCAnLW9tYWUnLCAnPG91dGZpbGUubWFlPic=

> <r_epik_Ionization_Penalty>
0.528991

> <r_epik_Ionization_Penalty_Charging>
0.438567

> <r_epik_Ionization_Penalty_Neutral>
0.0904237

> <r_epik_State_Penalty>
0.533036

> <r_epik_Charging_Adjusted_Penalty>
0.971603

> <i_epik_Tot_Q>
2

> <i_epik_Tot_abs_Q>
2

> <r_epik_Metal_State_Penalty>
0.448985

> <b_epik_Metal_Only>
0

> <s_lp_Force_Field>
OPLS_2005

> <r_lp_Energy>
30.0062

> <b_lp_Chiralities_Consistent>
1

> <s_lp_Variant>
AV-unprocessed.smi:1047-6

> <Gold.Version>
5.8.1

> <Gold.Id.Protein>
6NUR|6NUR_protein|mol2

> <Gold.PLP.Fitness>
55.7405

> <Gold.PLP.PLP>
-46.6429

> <Gold.PLP.part.hbond>
-4.0000

> <Gold.PLP.part.metal>
0.0000

> <Gold.PLP.part.buried>
-5.4084

> <Gold.PLP.part.nonpolar>
-36.7428

> <Gold.PLP.part.repulsive>
0.0070

> <Gold.PLP.ligand.clash>
0.0000

> <Gold.PLP.ligand.torsion>
0.9886

> <Gold.PLP.Chemscore.Hbond>
3.6396

> <Gold.PLP.Chemscore.CHOScore>
0.0000

> <Gold.PLP.Chemscore.Metal>
0.0000

> <Gold.Chemscore.Hbonds>
donor molecule, donor type, donor heavy atom, donor atom, acceptor molecule, acceptor atom, score
      L1  H     3    57       P1 10747  1.00
      L1  H     9    38       P1  7948  1.87
      L1  H    12    42       P1  7949  0.59

> <Gold.PLP.Chemscore.Internal.Correction>
0.1560

> <Gold.Rescore>
     Score         DG    S(hbond)    S(metal)    S(lipo)     H(rot)  DE(clash)    DE(int)     intcor
     19.23     -20.42       2.06        0.00     127.98       2.70       0.06       1.13       ----

> <Gold.Chemscore.Fitness>
19.2316

> <Gold.Chemscore.DG>
-20.4162

> <Gold.Chemscore.ZeroCoef>
-5.4800

> <Gold.Chemscore.Hbond>
2.0572

> <Gold.Chemscore.Metal>
0.0000

> <Gold.Chemscore.Lipo>
127.9761

> <Gold.Chemscore.Internal_Hbond>
0.0000

> <Gold.Chemscore.DEClash>
0.0584

> <Gold.Chemscore.DEInternal>
1.1262

> <Gold.Chemscore.Rot>
2.6985

> <Gold.Chemscore.Internal.Correction>
   9.000000E+99

> <Gold.Chemscore.Hbonds>
donor molecule, donor type, donor heavy atom, donor atom, acceptor molecule, acceptor atom, score
      L1  H     3    57       P1 10747  0.92
      L1  H     9    38       P1  7948  0.47
      L1  H    12    42       P1  7949  0.37

> <Gold.Chemscore.Hbond.Weighted>
-6.8711

> <Gold.Chemscore.Metal.Weighted>
-0.0000

> <Gold.Chemscore.Lipo.Weighted>
-14.9732

> <Gold.Chemscore.Internal_Hbond.Weighted>
0.0000

> <Gold.Chemscore.DEClash.Weighted>
0.0584

> <Gold.Chemscore.DEInternal.Weighted>
1.1262

> <Gold.Chemscore.Rot.Weighted>
6.9081

> <Gold.Chemscore.Internal.Correction.Weighted>
   9.000000E+99

> <Gold.Protein.RotatedTorsions>
[ 6907 6896 6895 6894 ] final    8.28 input  -60.11 | X-H torsion
[ 7974 7965 7964 7962 ] final  123.92 input  175.53 | X-H torsion
[ 8008 7997 7996 7995 ] final  141.19 input   59.86 | X-H torsion
[ 10167 10162 10161 10158 ] final   28.45 input  -65.29 | X-H torsion
[ 10718 10713 10712 10709 ] final   -5.93 input   66.30 | X-H torsion
[ 10763 10752 10751 10750 ] final  164.29 input  -60.55 | X-H torsion
[ 11005 11000 10999 10996 ] final  147.93 input  -57.11 | X-H torsion

> <Gold.Protein.ActiveResidues>
 VAL166  LYS551  ARG553  GLY616  TRP617  ASP618  TYR619  PRO620  LYS621  CYS622 
 ASP623  PHE694  ASN695  SER759  ASP760  ASP761  ALA762  ILE779  LEU786  VAL792 
 PHE793  MET794  SER795  GLU796  ALA797  LYS798  CYS799  TRP800  GLU811  SER814 

> <Gold.Protein.RotatedAtoms>
  151.7034  135.0926  160.0254 H   0  0  0  0  0  0  0  0  0  0  0  0  # atno 6907 bound_to 6896
  152.3706  133.6410  159.6093 H   0  0  0  0  0  0  0  0  0  0  0  0  # atno 6908 bound_to 6896
  150.7671  133.9192  159.3434 H   0  0  0  0  0  0  0  0  0  0  0  0  # atno 6909 bound_to 6896
  145.0903  139.3591  143.4864 H   0  0  0  0  0  0  0  0  0  0  0  0  # atno 7974 bound_to 7965
  156.2969  140.2321  156.4525 H   0  0  0  0  0  0  0  0  0  0  0  0  # atno 8008 bound_to 7997
  154.8089  140.0444  157.1349 H   0  0  0  0  0  0  0  0  0  0  0  0  # atno 8009 bound_to 7997
  154.9446  140.3034  155.5108 H   0  0  0  0  0  0  0  0  0  0  0  0  # atno 8010 bound_to 7997
  140.4851  144.0555  150.6278 H   0  0  0  0  0  0  0  0  0  0  0  0  # atno 10167 bound_to 10162
  156.7394  130.5205  149.5827 H   0  0  0  0  0  0  0  0  0  0  0  0  # atno 10718 bound_to 10713
  154.3067  135.2758  155.2585 H   0  0  0  0  0  0  0  0  0  0  0  0  # atno 10763 bound_to 10752
  154.4998  135.5811  153.6526 H   0  0  0  0  0  0  0  0  0  0  0  0  # atno 10764 bound_to 10752
  152.9893  135.6155  154.3241 H   0  0  0  0  0  0  0  0  0  0  0  0  # atno 10765 bound_to 10752
  140.0917  134.9037  157.1661 H   0  0  0  0  0  0  0  0  0  0  0  0  # atno 11005 bound_to 11000
  146.3531  140.0734  142.8622 LP  0  0  0  0  0  0  0  0  0  0  0  0  # atno 17320 bound_to 7965
  145.1074  140.9383  143.4677 LP  0  0  0  0  0  0  0  0  0  0  0  0  # atno 17321 bound_to 7965
  140.3808  143.2804  152.0172 LP  0  0  0  0  0  0  0  0  0  0  0  0  # atno 17342 bound_to 10162
  139.4840  144.6156  151.7352 LP  0  0  0  0  0  0  0  0  0  0  0  0  # atno 17343 bound_to 10162
  156.1475  130.6287  151.0551 LP  0  0  0  0  0  0  0  0  0  0  0  0  # atno 17370 bound_to 10713
  157.6825  131.0834  150.7332 LP  0  0  0  0  0  0  0  0  0  0  0  0  # atno 17371 bound_to 10713
  140.3343  134.2775  155.7222 LP  0  0  0  0  0  0  0  0  0  0  0  0  # atno 17394 bound_to 11000
  141.2080  133.7791  157.0087 LP  0  0  0  0  0  0  0  0  0  0  0  0  # atno 17395 bound_to 11000

$$$$
