AV-unprocessed.smi:2827|AV-procd|sdf|10896|dock1
  -GOLD-   2272015343D 1   1.00000     0.00000
 Structure written by MMmdl.
 48 51  0  0  0  0  0  0  0  0  3 V2000
  148.6419  133.3682  155.7403 O   0  0  0  0  0  0  0  0  0  0  0  0
  149.0211  133.9755  154.7393 C   0  0  0  0  0  0  0  0  0  0  0  0
  150.4516  134.5120  154.6642 C   0  0  0  0  0  0  0  0  0  0  0  0
  150.6245  135.5849  155.6389 N   0  0  0  0  0  0  0  0  0  0  0  0
  150.0890  135.4904  156.9196 C   0  0  0  0  0  0  0  0  0  0  0  0
  149.9407  136.5362  157.7545 C   0  0  0  0  0  0  0  0  0  0  0  0
  150.3569  137.8826  157.3126 C   0  0  0  0  0  0  0  0  0  0  0  0
  150.1887  138.8610  158.0386 O   0  0  0  0  0  0  0  0  0  0  0  0
  150.9687  137.9871  155.9567 C   0  0  0  0  0  0  0  0  0  0  0  0
  151.4596  139.2102  155.3573 N   0  3  0  0  0  0  0  0  0  0  0  0
  150.6513  140.0396  154.9485 O   0  0  0  0  0  0  0  0  0  0  0  0
  152.6713  139.3821  155.2768 O   0  5  0  0  0  0  0  0  0  0  0  0
  151.0644  136.8448  155.2319 C   0  0  0  0  0  0  0  0  0  0  0  0
  148.2323  134.2532  153.6901 N   0  0  0  0  0  0  0  0  0  0  0  0
  146.7884  134.0532  153.6392 C   0  0  0  0  0  0  0  0  0  0  0  0
  146.3958  133.1439  152.4482 C   0  0  2  0  0  0  0  0  0  0  0  0
  146.5068  133.8085  151.0457 C   0  0  2  0  0  0  0  0  0  0  0  0
  145.4261  134.8993  150.8663 C   0  0  0  0  0  0  0  0  0  0  0  0
  144.0263  134.2645  151.0090 C   0  0  1  0  0  0  0  0  0  0  0  0
  143.8391  133.1815  149.9248 C   0  0  0  0  0  0  0  0  0  0  0  0
  144.9192  132.0927  150.1004 C   0  0  1  0  0  0  0  0  0  0  0  0
  146.3183  132.7297  149.9559 C   0  0  0  0  0  0  0  0  0  0  0  0
  144.7824  131.4521  151.4996 C   0  0  0  0  0  0  0  0  0  0  0  0
  144.9751  132.5362  152.5851 C   0  0  2  0  0  0  0  0  0  0  0  0
  143.8879  133.6223  152.4059 C   0  0  0  0  0  0  0  0  0  0  0  0
  151.1552  133.7023  154.8622 H   0  0  0  0  0  0  0  0  0  0  0  0
  150.6722  134.8745  153.6588 H   0  0  0  0  0  0  0  0  0  0  0  0
  149.7932  134.4919  157.2067 H   0  0  0  0  0  0  0  0  0  0  0  0
  149.5177  136.4136  158.7408 H   0  0  0  0  0  0  0  0  0  0  0  0
  151.5027  136.8375  154.2441 H   0  0  0  0  0  0  0  0  0  0  0  0
  148.6460  134.7408  152.9086 H   0  0  0  0  0  0  0  0  0  0  0  0
  146.4910  133.5770  154.5738 H   0  0  0  0  0  0  0  0  0  0  0  0
  146.2621  135.0071  153.6097 H   0  0  0  0  0  0  0  0  0  0  0  0
  147.1049  132.3142  152.4710 H   0  0  0  0  0  0  0  0  0  0  0  0
  147.4912  134.2538  150.9118 H   0  0  0  0  0  0  0  0  0  0  0  0
  145.5565  135.6979  151.5963 H   0  0  0  0  0  0  0  0  0  0  0  0
  145.5275  135.3679  149.8867 H   0  0  0  0  0  0  0  0  0  0  0  0
  143.2643  135.0349  150.8867 H   0  0  0  0  0  0  0  0  0  0  0  0
  142.8435  132.7414  149.9977 H   0  0  0  0  0  0  0  0  0  0  0  0
  143.9076  133.6254  148.9309 H   0  0  0  0  0  0  0  0  0  0  0  0
  144.7890  131.3264  149.3356 H   0  0  0  0  0  0  0  0  0  0  0  0
  146.4329  133.1709  148.9648 H   0  0  0  0  0  0  0  0  0  0  0  0
  147.0917  131.9655  150.0410 H   0  0  0  0  0  0  0  0  0  0  0  0
  143.8037  130.9823  151.6045 H   0  0  0  0  0  0  0  0  0  0  0  0
  145.5186  130.6569  151.6232 H   0  0  0  0  0  0  0  0  0  0  0  0
  144.8683  132.0751  153.5675 H   0  0  0  0  0  0  0  0  0  0  0  0
  143.9648  134.3828  153.1827 H   0  0  0  0  0  0  0  0  0  0  0  0
  142.8970  133.1805  152.5172 H   0  0  0  0  0  0  0  0  0  0  0  0
  1  2  2  0  0  0  0
  2  3  1  0  0  0  0
  2 14  1  0  0  0  0
  3  4  1  0  0  0  0
  3 26  1  0  0  0  0
  3 27  1  0  0  0  0
  4 13  1  0  0  0  0
  4  5  1  0  0  0  0
  5  6  2  0  0  0  0
  5 28  1  0  0  0  0
  6  7  1  0  0  0  0
  6 29  1  0  0  0  0
  7  8  2  0  0  0  0
  7  9  1  0  0  0  0
  9 10  1  0  0  0  0
  9 13  2  0  0  0  0
 10 11  2  0  0  0  0
 10 12  1  0  0  0  0
 13 30  1  0  0  0  0
 14 15  1  0  0  0  0
 14 31  1  0  0  0  0
 15 16  1  0  0  0  0
 15 32  1  0  0  0  0
 15 33  1  0  0  0  0
 16 24  1  0  0  0  0
 16 17  1  0  0  0  0
 16 34  1  0  0  0  0
 17 22  1  0  0  0  0
 17 18  1  0  0  0  0
 17 35  1  0  0  0  0
 18 19  1  0  0  0  0
 18 36  1  0  0  0  0
 18 37  1  0  0  0  0
 19 25  1  0  0  0  0
 19 20  1  0  0  0  0
 19 38  1  0  0  0  0
 20 21  1  0  0  0  0
 20 39  1  0  0  0  0
 20 40  1  0  0  0  0
 21 22  1  0  0  0  0
 21 23  1  0  0  0  0
 21 41  1  0  0  0  0
 22 42  1  0  0  0  0
 22 43  1  0  0  0  0
 23 24  1  0  0  0  0
 23 44  1  0  0  0  0
 23 45  1  0  0  0  0
 24 25  1  0  0  0  0
 24 46  1  0  0  0  0
 25 47  1  0  0  0  0
 25 48  1  0  0  0  0
M  CHG  1  10   1
M  CHG  1  12  -1
M  END
> <s_m_source_file>
AV-unprocessed.smi

> <i_m_source_file_index>
2827

> <i_lp_mmshare_version>
43012

> <i_f3d_flags>
0

> <s_epik_input>
Tz1bTitdKFtPLV0pYyhbY0hdMSljKD1PKVtjSF1bY0hdbjFbQ0gyXUMoPU8pW05IXVtDSDJdW0NASF0oW0NASF0yMylbQ0BASF00W0NIMl1bQ0BIXShbQ0gyXTMpW0NIMl1bQ0BIXShbQ0gyXTIpW0NIMl00

> <s_epik_cmdline>
J2VwaWtfcHl0aG9uJywgJy1waCcsICc3LjAnLCAnLXRuJywgJzgnLCAnLW1hJywgJzIwMCcsICctbWV0YWxfYmluZGluZycsICctaW1hZScsICc8aW5maWxlLm1hZT4nLCAnLW9tYWUnLCAnPG91dGZpbGUubWFlPic=

> <r_lp_tautomer_probability>
1

> <r_epik_Ionization_Penalty>
3.31423e-08

> <r_epik_Ionization_Penalty_Charging>
1.04538e-08

> <r_epik_Ionization_Penalty_Neutral>
2.26885e-08

> <r_epik_State_Penalty>
-0

> <r_epik_Charging_Adjusted_Penalty>
1.04538e-08

> <i_epik_Tot_Q>
0

> <i_epik_Tot_abs_Q>
2

> <r_epik_Metal_State_Penalty>
-0

> <b_epik_Metal_Only>
0

> <s_lp_Force_Field>
OPLS_2005

> <r_lp_Energy>
36.4142

> <b_lp_Chiralities_Consistent>
1

> <s_lp_Variant>
AV-unprocessed.smi:2827-1

> <Gold.Version>
5.8.1

> <Gold.Id.Protein>
6NUR|6NUR_protein|mol2

> <Gold.PLP.Fitness>
44.1442

> <Gold.PLP.PLP>
-37.5471

> <Gold.PLP.part.hbond>
-3.9240

> <Gold.PLP.part.metal>
0.0000

> <Gold.PLP.part.buried>
-2.5761

> <Gold.PLP.part.nonpolar>
-30.2425

> <Gold.PLP.part.repulsive>
0.1147

> <Gold.PLP.ligand.clash>
0.0000

> <Gold.PLP.ligand.torsion>
1.7244

> <Gold.PLP.Chemscore.Hbond>
3.0000

> <Gold.PLP.Chemscore.CHOScore>
0.2558

> <Gold.PLP.Chemscore.Metal>
0.0000

> <Gold.Chemscore.Hbonds>
donor molecule, donor type, donor heavy atom, donor atom, acceptor molecule, acceptor atom, score
      L1  H    14    31       P1  7948  0.95
      P1  H  7989  7998       L1    11  1.00
      P1  H  7997  8009       L1    12  0.99
      L1  C    13    30       P1  7949  0.08

> <Gold.PLP.Chemscore.Internal.Correction>
0.2784

> <Gold.Rescore>
     Score         DG    S(hbond)    S(metal)    S(lipo)     H(rot)  DE(clash)    DE(int)     intcor
     16.25     -19.55       2.27        0.00      93.75       1.75       0.15       3.15       ----

> <Gold.Chemscore.Fitness>
16.2504

> <Gold.Chemscore.DG>
-19.5453

> <Gold.Chemscore.ZeroCoef>
-5.4800

> <Gold.Chemscore.Hbond>
2.2714

> <Gold.Chemscore.Metal>
0.0000

> <Gold.Chemscore.Lipo>
93.7533

> <Gold.Chemscore.Internal_Hbond>
0.0000

> <Gold.Chemscore.DEClash>
0.1484

> <Gold.Chemscore.DEInternal>
3.1465

> <Gold.Chemscore.Rot>
1.7540

> <Gold.Chemscore.Internal.Correction>
   9.000000E+99

> <Gold.Chemscore.Hbonds>
donor molecule, donor type, donor heavy atom, donor atom, acceptor molecule, acceptor atom, score
      L1  H    14    31       P1  7948  0.21
      P1  H  7989  7998       L1    11  0.34
      P1  H  7997  8009       L1    12  0.92

> <Gold.Chemscore.Hbond.Weighted>
-7.5863

> <Gold.Chemscore.Metal.Weighted>
-0.0000

> <Gold.Chemscore.Lipo.Weighted>
-10.9691

> <Gold.Chemscore.Internal_Hbond.Weighted>
0.0000

> <Gold.Chemscore.DEClash.Weighted>
0.1484

> <Gold.Chemscore.DEInternal.Weighted>
3.1465

> <Gold.Chemscore.Rot.Weighted>
4.4902

> <Gold.Chemscore.Internal.Correction.Weighted>
   9.000000E+99

> <Gold.Protein.RotatedTorsions>
[ 6907 6896 6895 6894 ] final   21.64 input  -60.11 | X-H torsion
[ 7974 7965 7964 7962 ] final -136.76 input  175.53 | X-H torsion
[ 8008 7997 7996 7995 ] final -142.16 input   59.86 | X-H torsion
[ 10167 10162 10161 10158 ] final -151.14 input  -65.29 | X-H torsion
[ 10718 10713 10712 10709 ] final  -15.73 input   66.30 | X-H torsion
[ 10763 10752 10751 10750 ] final   58.73 input  -60.55 | X-H torsion
[ 11005 11000 10999 10996 ] final -141.16 input  -57.11 | X-H torsion

> <Gold.Protein.ActiveResidues>
 VAL166  LYS551  ARG553  GLY616  TRP617  ASP618  TYR619  PRO620  LYS621  CYS622 
 ASP623  PHE694  ASN695  SER759  ASP760  ASP761  ALA762  ILE779  LEU786  VAL792 
 PHE793  MET794  SER795  GLU796  ALA797  LYS798  CYS799  TRP800  GLU811  SER814 

> <Gold.Protein.RotatedAtoms>
  151.9149  135.0323  160.0517 H   0  0  0  0  0  0  0  0  0  0  0  0  # atno 6907 bound_to 6896
  152.2248  133.5007  159.5191 H   0  0  0  0  0  0  0  0  0  0  0  0  # atno 6908 bound_to 6896
  150.7009  134.1211  159.4078 H   0  0  0  0  0  0  0  0  0  0  0  0  # atno 6909 bound_to 6896
  144.8900  140.6628  143.5151 H   0  0  0  0  0  0  0  0  0  0  0  0  # atno 7974 bound_to 7965
  155.4897  140.0567  157.2955 H   0  0  0  0  0  0  0  0  0  0  0  0  # atno 8008 bound_to 7997
  154.4628  140.2004  156.0150 H   0  0  0  0  0  0  0  0  0  0  0  0  # atno 8009 bound_to 7997
  156.0921  140.3232  155.7833 H   0  0  0  0  0  0  0  0  0  0  0  0  # atno 8010 bound_to 7997
  139.7293  143.8834  152.2529 H   0  0  0  0  0  0  0  0  0  0  0  0  # atno 10167 bound_to 10162
  156.5976  130.4815  149.6253 H   0  0  0  0  0  0  0  0  0  0  0  0  # atno 10718 bound_to 10713
  152.9877  135.5596  154.5600 H   0  0  0  0  0  0  0  0  0  0  0  0  # atno 10763 bound_to 10752
  154.5020  135.2798  155.1415 H   0  0  0  0  0  0  0  0  0  0  0  0  # atno 10764 bound_to 10752
  154.2841  135.6339  153.5412 H   0  0  0  0  0  0  0  0  0  0  0  0  # atno 10765 bound_to 10752
  140.8351  134.2469  157.4838 H   0  0  0  0  0  0  0  0  0  0  0  0  # atno 11005 bound_to 11000
  145.3801  139.1639  143.4285 LP  0  0  0  0  0  0  0  0  0  0  0  0  # atno 17320 bound_to 7965
  146.3048  140.3880  142.8691 LP  0  0  0  0  0  0  0  0  0  0  0  0  # atno 17321 bound_to 7965
  139.8752  144.7047  150.8941 LP  0  0  0  0  0  0  0  0  0  0  0  0  # atno 17342 bound_to 10162
  140.7768  143.3705  151.1658 LP  0  0  0  0  0  0  0  0  0  0  0  0  # atno 17343 bound_to 10162
  156.2497  130.6900  151.1633 LP  0  0  0  0  0  0  0  0  0  0  0  0  # atno 17370 bound_to 10713
  157.7288  131.0629  150.5804 LP  0  0  0  0  0  0  0  0  0  0  0  0  # atno 17371 bound_to 10713
  139.8704  134.9606  156.4371 LP  0  0  0  0  0  0  0  0  0  0  0  0  # atno 17394 bound_to 11000
  140.8956  133.7817  155.9621 LP  0  0  0  0  0  0  0  0  0  0  0  0  # atno 17395 bound_to 11000

$$$$
