AV-unprocessed.smi:72|AV-procd|sdf|708|dock3
  -GOLD-   2262017 33D 1   1.00000     0.00000
 Structure written by MMmdl.
 30 31  0  0  0  0  0  0  0  0  2 V2000
  146.3922  139.2740  152.4905 N   0  0  0  0  0  0  0  0  0  0  0  0
  147.4858  139.5512  153.2839 C   0  0  0  0  0  0  0  0  0  0  0  0
  148.5546  138.6754  153.2340 N   0  3  0  0  0  0  0  0  0  0  0  0
  149.6916  138.8040  153.9315 C   0  0  0  0  0  0  0  0  0  0  0  0
  149.8444  139.8488  154.7232 N   0  0  0  0  0  0  0  0  0  0  0  0
  151.0936  140.0515  155.5512 C   0  0  1  0  0  0  0  0  0  0  0  0
  150.7735  139.8061  156.8854 O   0  0  0  0  0  0  0  0  0  0  0  0
  151.0592  138.4457  157.1931 C   0  0  2  0  0  0  0  0  0  0  0  0
  151.0649  138.2033  158.7120 C   0  0  0  0  0  0  0  0  0  0  0  0
  151.4617  136.8750  158.9793 O   0  0  0  0  0  0  0  0  0  0  0  0
  152.3970  138.2440  156.4748 C   0  0  2  0  0  0  0  0  0  0  0  0
  153.4636  138.7539  157.2593 O   0  0  0  0  0  0  0  0  0  0  0  0
  152.1890  139.0265  155.1759 C   0  0  2  0  0  0  0  0  0  0  0  0
  153.3804  139.6282  154.7062 O   0  0  0  0  0  0  0  0  0  0  0  0
  148.7808  140.7766  154.8744 C   0  0  0  0  0  0  0  0  0  0  0  0
  148.8852  141.7212  155.6552 O   0  0  0  0  0  0  0  0  0  0  0  0
  147.6327  140.5583  154.0990 N   0  0  0  0  0  0  0  0  0  0  0  0
  151.3694  141.0979  155.4089 H   0  0  0  0  0  0  0  0  0  0  0  0
  150.3194  137.7988  156.7171 H   0  0  0  0  0  0  0  0  0  0  0  0
  152.5944  137.1888  156.2816 H   0  0  0  0  0  0  0  0  0  0  0  0
  151.8102  138.3506  154.4078 H   0  0  0  0  0  0  0  0  0  0  0  0
  145.5652  139.8538  152.4673 H   0  0  0  0  0  0  0  0  0  0  0  0
  146.3256  138.4724  151.8798 H   0  0  0  0  0  0  0  0  0  0  0  0
  150.4490  138.0379  153.8303 H   0  0  0  0  0  0  0  0  0  0  0  0
  151.7849  138.8642  159.1957 H   0  0  0  0  0  0  0  0  0  0  0  0
  150.0882  138.4029  159.1539 H   0  0  0  0  0  0  0  0  0  0  0  0
  152.2657  136.7028  158.5130 H   0  0  0  0  0  0  0  0  0  0  0  0
  153.1957  138.7504  158.1659 H   0  0  0  0  0  0  0  0  0  0  0  0
  153.1509  140.3071  154.0897 H   0  0  0  0  0  0  0  0  0  0  0  0
  148.4652  137.8726  152.6278 H   0  0  0  0  0  0  0  0  0  0  0  0
  1  2  1  0  0  0  0
  1 22  1  0  0  0  0
  1 23  1  0  0  0  0
  2 17  2  0  0  0  0
  2  3  1  0  0  0  0
  3  4  2  0  0  0  0
  3 30  1  0  0  0  0
  4  5  1  0  0  0  0
  4 24  1  0  0  0  0
  5  6  1  0  0  0  0
  5 15  1  0  0  0  0
  6 18  1  0  0  0  0
  6 13  1  0  0  0  0
  6  7  1  0  0  0  0
  7  8  1  0  0  0  0
  8 19  1  0  0  0  0
  8  9  1  0  0  0  0
  8 11  1  0  0  0  0
  9 10  1  0  0  0  0
  9 25  1  0  0  0  0
  9 26  1  0  0  0  0
 10 27  1  0  0  0  0
 11 20  1  0  0  0  0
 11 12  1  0  0  0  0
 11 13  1  0  0  0  0
 12 28  1  0  0  0  0
 13 21  1  0  0  0  0
 13 14  1  0  0  0  0
 14 29  1  0  0  0  0
 15 16  2  0  0  0  0
 15 17  1  0  0  0  0
M  CHG  1   3   1
M  END
> <s_m_source_file>
AV-unprocessed.smi

> <i_m_source_file_index>
72

> <i_lp_mmshare_version>
43012

> <i_f3d_flags>
0

> <s_epik_input>
W05IMl1jMW5bY0hdbihjKD1PKW4xKVtDQEBIXTJPW0NASF0oW0NIMl1bT0hdKVtDQEBIXShbT0hdKVtDQEhdMltPSF0=

> <s_epik_cmdline>
J2VwaWtfcHl0aG9uJywgJy1waCcsICc3LjAnLCAnLXRuJywgJzgnLCAnLW1hJywgJzIwMCcsICctbWV0YWxfYmluZGluZycsICctaW1hZScsICc8aW5maWxlLm1hZT4nLCAnLW9tYWUnLCAnPG91dGZpbGUubWFlPic=

> <r_lp_tautomer_probability>
4.77166e-05

> <r_epik_Ionization_Penalty>
0.104979

> <r_epik_Ionization_Penalty_Charging>
0.0999619

> <r_epik_Ionization_Penalty_Neutral>
0.00501745

> <r_epik_State_Penalty>
2.51541

> <r_epik_Charging_Adjusted_Penalty>
2.61537

> <i_epik_Tot_Q>
1

> <i_epik_Tot_abs_Q>
1

> <r_epik_Metal_State_Penalty>
3.53763

> <b_epik_Metal_Only>
0

> <s_epik_Chemistry_Notes>
This compound contains an acetal/aminal-like group ( X-CH(R)-Y where X, Y are N, S, or O) that may be acid/base labile, releasing an aldehyde.

> <s_lp_Force_Field>
OPLS_2005

> <r_lp_Energy>
33.6404

> <b_lp_Chiralities_Consistent>
1

> <s_lp_Variant>
AV-unprocessed.smi:72-46

> <Gold.Version>
5.8.1

> <Gold.Id.Protein>
6NUR|6NUR_protein|mol2

> <Gold.PLP.Fitness>
41.6108

> <Gold.PLP.PLP>
-25.9316

> <Gold.PLP.part.hbond>
-7.0000

> <Gold.PLP.part.metal>
0.0000

> <Gold.PLP.part.buried>
-1.6722

> <Gold.PLP.part.nonpolar>
-17.1984

> <Gold.PLP.part.repulsive>
1.0657

> <Gold.PLP.ligand.clash>
0.0000

> <Gold.PLP.ligand.torsion>
0.1578

> <Gold.PLP.Chemscore.Hbond>
5.3200

> <Gold.PLP.Chemscore.CHOScore>
0.0000

> <Gold.PLP.Chemscore.Metal>
0.0000

> <Gold.Chemscore.Hbonds>
donor molecule, donor type, donor heavy atom, donor atom, acceptor molecule, acceptor atom, score
      L1  H     1    22       P1 10175  1.00
      L1  H     3    30       P1  7948  2.00
      P1  H  6896  6907       L1    10  0.58
      P1  H  7997  8008       L1    14  0.93
      P1  H  7997  8010       L1    12  0.69

> <Gold.PLP.Chemscore.Internal.Correction>
0.0348

> <Gold.Rescore>
     Score         DG    S(hbond)    S(metal)    S(lipo)     H(rot)  DE(clash)    DE(int)     intcor
      8.69     -10.07       3.76        0.00      21.19       4.08       0.06       1.33       ----

> <Gold.Chemscore.Fitness>
8.6892

> <Gold.Chemscore.DG>
-10.0731

> <Gold.Chemscore.ZeroCoef>
-5.4800

> <Gold.Chemscore.Hbond>
3.7589

> <Gold.Chemscore.Metal>
0.0000

> <Gold.Chemscore.Lipo>
21.1871

> <Gold.Chemscore.Internal_Hbond>
0.0000

> <Gold.Chemscore.DEClash>
0.0566

> <Gold.Chemscore.DEInternal>
1.3273

> <Gold.Chemscore.Rot>
4.0783

> <Gold.Chemscore.Internal.Correction>
   9.000000E+99

> <Gold.Chemscore.Hbonds>
donor molecule, donor type, donor heavy atom, donor atom, acceptor molecule, acceptor atom, score
      L1  H     1    22       P1 10175  0.95
      L1  H     3    30       P1  7948  0.98
      P1  H  6896  6907       L1    10  0.20
      P1  H  7997  8008       L1    14  0.36
      P1  H  7997  8010       L1    12  0.34

> <Gold.Chemscore.Hbond.Weighted>
-12.5546

> <Gold.Chemscore.Metal.Weighted>
-0.0000

> <Gold.Chemscore.Lipo.Weighted>
-2.4789

> <Gold.Chemscore.Internal_Hbond.Weighted>
0.0000

> <Gold.Chemscore.DEClash.Weighted>
0.0566

> <Gold.Chemscore.DEInternal.Weighted>
1.3273

> <Gold.Chemscore.Rot.Weighted>
10.4404

> <Gold.Chemscore.Internal.Correction.Weighted>
   9.000000E+99

> <Gold.Protein.RotatedTorsions>
[ 6907 6896 6895 6894 ] final  -38.51 input  -60.11 | X-H torsion
[ 7974 7965 7964 7962 ] final  113.12 input  175.53 | X-H torsion
[ 8008 7997 7996 7995 ] final   16.96 input   59.86 | X-H torsion
[ 10167 10162 10161 10158 ] final   13.53 input  -65.29 | X-H torsion
[ 10718 10713 10712 10709 ] final   28.75 input   66.30 | X-H torsion
[ 10763 10752 10751 10750 ] final  -89.64 input  -60.55 | X-H torsion
[ 11005 11000 10999 10996 ] final -131.12 input  -57.11 | X-H torsion

> <Gold.Protein.ActiveResidues>
 VAL166  LYS551  ARG553  GLY616  TRP617  ASP618  TYR619  PRO620  LYS621  CYS622 
 ASP623  PHE694  ASN695  SER759  ASP760  ASP761  ALA762  ILE779  LEU786  VAL792 
 PHE793  MET794  SER795  GLU796  ALA797  LYS798  CYS799  TRP800  GLU811  SER814 

> <Gold.Protein.RotatedAtoms>
  151.0015  134.9326  159.7956 H   0  0  0  0  0  0  0  0  0  0  0  0  # atno 6907 bound_to 6896
  152.5279  134.3148  159.9136 H   0  0  0  0  0  0  0  0  0  0  0  0  # atno 6908 bound_to 6896
  151.3153  133.4021  159.2684 H   0  0  0  0  0  0  0  0  0  0  0  0  # atno 6909 bound_to 6896
  145.2209  139.2862  143.4218 H   0  0  0  0  0  0  0  0  0  0  0  0  # atno 7974 bound_to 7965
  154.8845  140.2978  155.5406 H   0  0  0  0  0  0  0  0  0  0  0  0  # atno 8008 bound_to 7997
  156.3021  140.2436  156.3786 H   0  0  0  0  0  0  0  0  0  0  0  0  # atno 8009 bound_to 7997
  154.8682  140.0402  157.1697 H   0  0  0  0  0  0  0  0  0  0  0  0  # atno 8010 bound_to 7997
  140.5996  143.8631  150.6952 H   0  0  0  0  0  0  0  0  0  0  0  0  # atno 10167 bound_to 10162
  157.2376  130.7054  149.6343 H   0  0  0  0  0  0  0  0  0  0  0  0  # atno 10718 bound_to 10713
  154.6574  135.5333  153.7975 H   0  0  0  0  0  0  0  0  0  0  0  0  # atno 10763 bound_to 10752
  153.0421  135.6497  154.0924 H   0  0  0  0  0  0  0  0  0  0  0  0  # atno 10764 bound_to 10752
  154.0836  135.2945  155.3265 H   0  0  0  0  0  0  0  0  0  0  0  0  # atno 10765 bound_to 10752
  140.9286  134.1349  157.4254 H   0  0  0  0  0  0  0  0  0  0  0  0  # atno 11005 bound_to 11000
  146.3376  140.2515  142.8599 LP  0  0  0  0  0  0  0  0  0  0  0  0  # atno 17320 bound_to 7965
  144.9766  140.8419  143.5423 LP  0  0  0  0  0  0  0  0  0  0  0  0  # atno 17321 bound_to 7965
  140.2173  143.3836  152.1670 LP  0  0  0  0  0  0  0  0  0  0  0  0  # atno 17342 bound_to 10162
  139.5282  144.7128  151.5151 LP  0  0  0  0  0  0  0  0  0  0  0  0  # atno 17343 bound_to 10162
  155.9672  130.4468  150.5557 LP  0  0  0  0  0  0  0  0  0  0  0  0  # atno 17370 bound_to 10713
  157.3412  131.0717  151.1786 LP  0  0  0  0  0  0  0  0  0  0  0  0  # atno 17371 bound_to 10713
  139.8791  134.9997  156.5969 LP  0  0  0  0  0  0  0  0  0  0  0  0  # atno 17394 bound_to 11000
  140.7893  133.8596  155.8632 LP  0  0  0  0  0  0  0  0  0  0  0  0  # atno 17395 bound_to 11000

$$$$
