AV-unprocessed.smi:2106|AV-procd|sdf|8598|dock3
  -GOLD-   2272011333D 1   1.00000     0.00000
 Structure written by MMmdl.
 48 49  0  0  0  0  0  0  0  0  2 V2000
  145.1987  132.3527  149.8525 C   0  0  0  0  0  0  0  0  0  0  0  0
  145.9794  132.1719  151.1207 C   0  0  0  0  0  0  0  0  0  0  0  0
  145.7873  131.2006  152.1424 C   0  0  0  0  0  0  0  0  0  0  0  0
  146.7609  131.4780  153.0600 C   0  0  0  0  0  0  0  0  0  0  0  0
  147.0795  130.8091  154.3566 C   0  0  0  0  0  0  0  0  0  0  0  0
  147.4723  132.5613  152.5747 N   0  0  0  0  0  0  0  0  0  0  0  0
  148.6144  133.2458  153.1593 C   0  0  0  0  0  0  0  0  0  0  0  0
  148.1913  134.0955  154.3586 C   0  0  0  0  0  0  0  0  0  0  0  0
  147.7456  133.5555  155.3710 O   0  0  0  0  0  0  0  0  0  0  0  0
  148.3373  135.4238  154.2334 N   0  0  0  0  0  0  0  0  0  0  0  0
  148.0234  136.4036  155.2668 C   0  0  0  0  0  0  0  0  0  0  0  0
  147.9778  137.8370  154.7008 C   0  0  0  0  0  0  0  0  0  0  0  0
  149.1025  138.6781  155.1814 N   0  3  1  0  0  0  0  0  0  0  0  0
  150.4147  138.1862  154.7005 C   0  0  0  0  0  0  0  0  0  0  0  0
  151.5612  139.0201  155.3009 C   0  0  1  0  0  0  0  0  0  0  0  0
  152.9271  138.6024  154.7452 C   0  0  0  0  0  0  0  0  0  0  0  0
  151.3650  140.3957  154.9847 O   0  0  0  0  0  0  0  0  0  0  0  0
  150.1232  140.9419  155.4277 C   0  0  2  0  0  0  0  0  0  0  0  0
  150.0742  141.1155  156.9565 C   0  0  0  0  0  0  0  0  0  0  0  0
  148.9479  140.1194  154.8637 C   0  0  0  0  0  0  0  0  0  0  0  0
  146.9902  132.9835  151.3849 N   0  0  0  0  0  0  0  0  0  0  0  0
  144.3806  131.6351  149.7888 H   0  0  0  0  0  0  0  0  0  0  0  0
  145.8331  132.2110  148.9774 H   0  0  0  0  0  0  0  0  0  0  0  0
  144.7673  133.3525  149.7952 H   0  0  0  0  0  0  0  0  0  0  0  0
  145.0462  130.4167  152.1935 H   0  0  0  0  0  0  0  0  0  0  0  0
  146.4171  129.9610  154.5297 H   0  0  0  0  0  0  0  0  0  0  0  0
  146.9617  131.5015  155.1904 H   0  0  0  0  0  0  0  0  0  0  0  0
  148.1047  130.4391  154.3634 H   0  0  0  0  0  0  0  0  0  0  0  0
  149.3626  132.5103  153.4603 H   0  0  0  0  0  0  0  0  0  0  0  0
  149.0809  133.8772  152.4025 H   0  0  0  0  0  0  0  0  0  0  0  0
  148.7190  135.7768  153.3673 H   0  0  0  0  0  0  0  0  0  0  0  0
  147.0787  136.1268  155.7350 H   0  0  0  0  0  0  0  0  0  0  0  0
  148.7876  136.3337  156.0413 H   0  0  0  0  0  0  0  0  0  0  0  0
  148.0224  137.7726  153.6125 H   0  0  0  0  0  0  0  0  0  0  0  0
  147.0324  138.3255  154.9420 H   0  0  0  0  0  0  0  0  0  0  0  0
  150.5412  137.1396  154.9806 H   0  0  0  0  0  0  0  0  0  0  0  0
  150.4426  138.2314  153.6102 H   0  0  0  0  0  0  0  0  0  0  0  0
  151.5826  138.8892  156.3830 H   0  0  0  0  0  0  0  0  0  0  0  0
  153.1384  137.5555  154.9650 H   0  0  0  0  0  0  0  0  0  0  0  0
  153.7258  139.2014  155.1834 H   0  0  0  0  0  0  0  0  0  0  0  0
  152.9700  138.7328  153.6635 H   0  0  0  0  0  0  0  0  0  0  0  0
  150.0646  141.9418  154.9965 H   0  0  0  0  0  0  0  0  0  0  0  0
  149.1760  141.6567  157.2549 H   0  0  0  0  0  0  0  0  0  0  0  0
  150.9335  141.6859  157.3101 H   0  0  0  0  0  0  0  0  0  0  0  0
  150.0661  140.1618  157.4837 H   0  0  0  0  0  0  0  0  0  0  0  0
  148.9034  140.2415  153.7802 H   0  0  0  0  0  0  0  0  0  0  0  0
  148.0118  140.5098  155.2614 H   0  0  0  0  0  0  0  0  0  0  0  0
  149.1175  138.5952  156.1879 H   0  0  0  0  0  0  0  0  0  0  0  0
  1  2  1  0  0  0  0
  1 22  1  0  0  0  0
  1 23  1  0  0  0  0
  1 24  1  0  0  0  0
  2 21  2  0  0  0  0
  2  3  1  0  0  0  0
  3  4  2  0  0  0  0
  3 25  1  0  0  0  0
  4  5  1  0  0  0  0
  4  6  1  0  0  0  0
  5 26  1  0  0  0  0
  5 27  1  0  0  0  0
  5 28  1  0  0  0  0
  6  7  1  0  0  0  0
  6 21  1  0  0  0  0
  7  8  1  0  0  0  0
  7 29  1  0  0  0  0
  7 30  1  0  0  0  0
  8  9  2  0  0  0  0
  8 10  1  0  0  0  0
 10 11  1  0  0  0  0
 10 31  1  0  0  0  0
 11 12  1  0  0  0  0
 11 32  1  0  0  0  0
 11 33  1  0  0  0  0
 12 13  1  0  0  0  0
 12 34  1  0  0  0  0
 12 35  1  0  0  0  0
 13 20  1  0  0  0  0
 13 14  1  0  0  0  0
 13 48  1  0  0  0  0
 14 15  1  0  0  0  0
 14 36  1  0  0  0  0
 14 37  1  0  0  0  0
 15 16  1  0  0  0  0
 15 17  1  0  0  0  0
 15 38  1  0  0  0  0
 16 39  1  0  0  0  0
 16 40  1  0  0  0  0
 16 41  1  0  0  0  0
 17 18  1  0  0  0  0
 18 19  1  0  0  0  0
 18 20  1  0  0  0  0
 18 42  1  0  0  0  0
 19 43  1  0  0  0  0
 19 44  1  0  0  0  0
 19 45  1  0  0  0  0
 20 46  1  0  0  0  0
 20 47  1  0  0  0  0
M  CHG  1  13   1
M  END
> <s_m_source_file>
AV-unprocessed.smi

> <i_m_source_file_index>
2106

> <i_lp_mmshare_version>
43012

> <i_f3d_flags>
0

> <s_epik_input>
W0NIM11jMVtjSF1jKFtDSDNdKW4objEpW0NIMl1DKD1PKVtOSF1bQ0gyXVtDSDJdTjJbQ0gyXVtDQEBIXShbQ0gzXSlPW0NAQEhdKFtDSDNdKVtDSDJdMg==

> <s_epik_cmdline>
J2VwaWtfcHl0aG9uJywgJy1waCcsICc3LjAnLCAnLXRuJywgJzgnLCAnLW1hJywgJzIwMCcsICctbWV0YWxfYmluZGluZycsICctaW1hZScsICc8aW5maWxlLm1hZT4nLCAnLW9tYWUnLCAnPG91dGZpbGUubWFlPic=

> <r_lp_tautomer_probability>
1

> <r_epik_Ionization_Penalty>
0.748586

> <r_epik_Ionization_Penalty_Charging>
0.748396

> <r_epik_Ionization_Penalty_Neutral>
0.000189656

> <r_epik_State_Penalty>
0.775162

> <r_epik_Charging_Adjusted_Penalty>
1.52356

> <i_epik_Tot_Q>
1

> <i_epik_Tot_abs_Q>
1

> <r_epik_Metal_State_Penalty>
0.775295

> <b_epik_Metal_Only>
0

> <s_lp_Force_Field>
OPLS_2005

> <r_lp_Energy>
15.4858

> <b_lp_Chiralities_Consistent>
1

> <s_lp_Variant>
AV-unprocessed.smi:2106-6

> <Gold.Version>
5.8.1

> <Gold.Id.Protein>
6NUR|6NUR_protein|mol2

> <Gold.PLP.Fitness>
39.0949

> <Gold.PLP.PLP>
-34.3580

> <Gold.PLP.part.hbond>
-1.7327

> <Gold.PLP.part.metal>
0.0000

> <Gold.PLP.part.buried>
-3.6484

> <Gold.PLP.part.nonpolar>
-29.6176

> <Gold.PLP.part.repulsive>
0.3975

> <Gold.PLP.ligand.clash>
0.0000

> <Gold.PLP.ligand.torsion>
0.6429

> <Gold.PLP.Chemscore.Hbond>
1.9913

> <Gold.PLP.Chemscore.CHOScore>
0.0000

> <Gold.PLP.Chemscore.Metal>
0.0000

> <Gold.Chemscore.Hbonds>
donor molecule, donor type, donor heavy atom, donor atom, acceptor molecule, acceptor atom, score
      L1  H    10    31       P1  7948  1.00
      P1  H  7989  7998       L1    17  1.00

> <Gold.PLP.Chemscore.Internal.Correction>
0.0489

> <Gold.Rescore>
     Score         DG    S(hbond)    S(metal)    S(lipo)     H(rot)  DE(clash)    DE(int)     intcor
     15.86     -16.62       1.71        0.00      84.29       1.73       0.04       0.71       ----

> <Gold.Chemscore.Fitness>
15.8620

> <Gold.Chemscore.DG>
-16.6167

> <Gold.Chemscore.ZeroCoef>
-5.4800

> <Gold.Chemscore.Hbond>
1.7090

> <Gold.Chemscore.Metal>
0.0000

> <Gold.Chemscore.Lipo>
84.2879

> <Gold.Chemscore.Internal_Hbond>
0.0000

> <Gold.Chemscore.DEClash>
0.0443

> <Gold.Chemscore.DEInternal>
0.7104

> <Gold.Chemscore.Rot>
1.7316

> <Gold.Chemscore.Internal.Correction>
   9.000000E+99

> <Gold.Chemscore.Hbonds>
donor molecule, donor type, donor heavy atom, donor atom, acceptor molecule, acceptor atom, score
      L1  H    10    31       P1  7948  0.96
      P1  H  7989  7998       L1    17  0.62

> <Gold.Chemscore.Hbond.Weighted>
-5.7080

> <Gold.Chemscore.Metal.Weighted>
-0.0000

> <Gold.Chemscore.Lipo.Weighted>
-9.8617

> <Gold.Chemscore.Internal_Hbond.Weighted>
0.0000

> <Gold.Chemscore.DEClash.Weighted>
0.0443

> <Gold.Chemscore.DEInternal.Weighted>
0.7104

> <Gold.Chemscore.Rot.Weighted>
4.4330

> <Gold.Chemscore.Internal.Correction.Weighted>
   9.000000E+99

> <Gold.Protein.RotatedTorsions>
[ 6907 6896 6895 6894 ] final  104.84 input  -60.11 | X-H torsion
[ 7974 7965 7964 7962 ] final  -19.73 input  175.53 | X-H torsion
[ 8008 7997 7996 7995 ] final  -94.81 input   59.86 | X-H torsion
[ 10167 10162 10161 10158 ] final -147.92 input  -65.29 | X-H torsion
[ 10718 10713 10712 10709 ] final  120.10 input   66.30 | X-H torsion
[ 10763 10752 10751 10750 ] final   30.48 input  -60.55 | X-H torsion
[ 11005 11000 10999 10996 ] final  -48.94 input  -57.11 | X-H torsion

> <Gold.Protein.ActiveResidues>
 VAL166  LYS551  ARG553  GLY616  TRP617  ASP618  TYR619  PRO620  LYS621  CYS622 
 ASP623  PHE694  ASN695  SER759  ASP760  ASP761  ALA762  ILE779  LEU786  VAL792 
 PHE793  MET794  SER795  GLU796  ALA797  LYS798  CYS799  TRP800  GLU811  SER814 

> <Gold.Protein.RotatedAtoms>
  152.5251  133.9617  159.7720 H   0  0  0  0  0  0  0  0  0  0  0  0  # atno 6907 bound_to 6896
  150.9906  133.6145  159.2716 H   0  0  0  0  0  0  0  0  0  0  0  0  # atno 6908 bound_to 6896
  151.3289  135.0843  159.9385 H   0  0  0  0  0  0  0  0  0  0  0  0  # atno 6909 bound_to 6896
  146.1826  140.4103  142.8489 H   0  0  0  0  0  0  0  0  0  0  0  0  # atno 7974 bound_to 7965
  154.7533  140.0486  157.0912 H   0  0  0  0  0  0  0  0  0  0  0  0  # atno 8008 bound_to 7997
  155.0030  140.3127  155.4840 H   0  0  0  0  0  0  0  0  0  0  0  0  # atno 8009 bound_to 7997
  156.2889  140.2198  156.5141 H   0  0  0  0  0  0  0  0  0  0  0  0  # atno 8010 bound_to 7997
  139.7578  143.8422  152.2601 H   0  0  0  0  0  0  0  0  0  0  0  0  # atno 10167 bound_to 10162
  157.5915  131.1063  150.7989 H   0  0  0  0  0  0  0  0  0  0  0  0  # atno 10718 bound_to 10713
  153.0369  135.6463  154.1051 H   0  0  0  0  0  0  0  0  0  0  0  0  # atno 10763 bound_to 10752
  154.0765  135.2876  155.3300 H   0  0  0  0  0  0  0  0  0  0  0  0  # atno 10764 bound_to 10752
  154.6559  135.5409  153.8023 H   0  0  0  0  0  0  0  0  0  0  0  0  # atno 10765 bound_to 10752
  141.0730  133.6673  156.3514 H   0  0  0  0  0  0  0  0  0  0  0  0  # atno 11005 bound_to 11000
  144.8341  140.6753  143.6272 LP  0  0  0  0  0  0  0  0  0  0  0  0  # atno 17320 bound_to 7965
  145.4033  139.1593  143.4166 LP  0  0  0  0  0  0  0  0  0  0  0  0  # atno 17321 bound_to 7965
  139.8419  144.7206  150.9320 LP  0  0  0  0  0  0  0  0  0  0  0  0  # atno 17342 bound_to 10162
  140.7804  143.3976  151.1204 LP  0  0  0  0  0  0  0  0  0  0  0  0  # atno 17343 bound_to 10162
  156.8410  130.5048  149.5321 LP  0  0  0  0  0  0  0  0  0  0  0  0  # atno 17370 bound_to 10713
  156.0970  130.5940  150.9830 LP  0  0  0  0  0  0  0  0  0  0  0  0  # atno 17371 bound_to 10713
  140.5633  134.5913  157.5439 LP  0  0  0  0  0  0  0  0  0  0  0  0  # atno 17394 bound_to 11000
  139.9543  134.7562  156.0377 LP  0  0  0  0  0  0  0  0  0  0  0  0  # atno 17395 bound_to 11000

$$$$
