AV-unprocessed.smi:152|AV-procd|sdf|1247|dock9
  -GOLD-   2262018473D 1   1.00000     0.00000
 Structure written by MMmdl.
 58 61  0  0  0  0  0  0  0  0  2 V2000
  144.8781  132.9737  151.6447 C   0  0  0  0  0  0  0  0  0  0  0  0
  146.0879  132.5359  152.4805 C   0  0  0  0  0  0  0  0  0  0  0  0
  145.9775  131.1216  152.9151 N   0  3  1  0  0  0  0  0  0  0  0  0
  145.8065  130.1284  151.8287 C   0  0  0  0  0  0  0  0  0  0  0  0
  146.4222  128.8166  152.3348 C   0  0  0  0  0  0  0  0  0  0  0  0
  146.8020  129.0989  153.7876 C   0  0  0  0  0  0  0  0  0  0  0  0
  147.0350  130.6138  153.8224 C   0  0  1  0  0  0  0  0  0  0  0  0
  148.4619  131.0291  153.3739 C   0  0  0  0  0  0  0  0  0  0  0  0
  149.5102  130.5658  154.2885 N   0  0  0  0  0  0  0  0  0  0  0  0
  149.7543  129.1305  154.3689 C   0  0  0  0  0  0  0  0  0  0  0  0
  150.3394  131.4446  154.9279 C   0  0  0  0  0  0  0  0  0  0  0  0
  151.3198  130.9439  155.7277 N   0  0  0  0  0  0  0  0  0  0  0  0
  152.1552  131.7504  156.3857 C   0  0  0  0  0  0  0  0  0  0  0  0
  152.1922  133.0813  156.3921 N   0  0  0  0  0  0  0  0  0  0  0  0
  151.2175  133.6043  155.5966 C   0  0  0  0  0  0  0  0  0  0  0  0
  150.2613  132.8706  154.8324 C   0  0  0  0  0  0  0  0  0  0  0  0
  149.4420  133.7654  154.1493 N   0  0  0  0  0  0  0  0  0  0  0  0
  149.8856  134.9444  154.4853 C   0  0  0  0  0  0  0  0  0  0  0  0
  150.9437  134.9406  155.3626 N   0  0  0  0  0  0  0  0  0  0  0  0
  151.6279  136.1037  155.9076 C   0  0  0  0  0  0  0  0  0  0  0  0
  152.2218  137.0490  154.8330 C   0  0  0  0  0  0  0  0  0  0  0  0
  152.9852  136.2616  153.9357 O   0  0  0  0  0  0  0  0  0  0  0  0
  151.0904  137.7320  154.0386 C   0  0  0  0  0  0  0  0  0  0  0  0
  151.6228  138.8097  153.0774 C   0  0  0  0  0  0  0  0  0  0  0  0
  152.3970  139.7620  153.7963 O   0  0  0  0  0  0  0  0  0  0  0  0
  153.5535  139.1898  154.3946 C   0  0  0  0  0  0  0  0  0  0  0  0
  153.1443  138.1320  155.4350 C   0  0  0  0  0  0  0  0  0  0  0  0
  144.9542  134.0288  151.3808 H   0  0  0  0  0  0  0  0  0  0  0  0
  143.9474  132.8367  152.1959 H   0  0  0  0  0  0  0  0  0  0  0  0
  144.8058  132.4080  150.7153 H   0  0  0  0  0  0  0  0  0  0  0  0
  147.0078  132.6900  151.9146 H   0  0  0  0  0  0  0  0  0  0  0  0
  146.1466  133.1708  153.3656 H   0  0  0  0  0  0  0  0  0  0  0  0
  144.7473  130.0137  151.5966 H   0  0  0  0  0  0  0  0  0  0  0  0
  146.3150  130.4515  150.9191 H   0  0  0  0  0  0  0  0  0  0  0  0
  145.7376  127.9724  152.2473 H   0  0  0  0  0  0  0  0  0  0  0  0
  147.3152  128.5791  151.7552 H   0  0  0  0  0  0  0  0  0  0  0  0
  145.9575  128.8515  154.4324 H   0  0  0  0  0  0  0  0  0  0  0  0
  147.6470  128.5041  154.1319 H   0  0  0  0  0  0  0  0  0  0  0  0
  146.8506  130.9993  154.8258 H   0  0  0  0  0  0  0  0  0  0  0  0
  148.6430  130.7263  152.3431 H   0  0  0  0  0  0  0  0  0  0  0  0
  148.5365  132.1162  153.3582 H   0  0  0  0  0  0  0  0  0  0  0  0
  150.7219  128.8787  153.9339 H   0  0  0  0  0  0  0  0  0  0  0  0
  148.9923  128.5716  153.8250 H   0  0  0  0  0  0  0  0  0  0  0  0
  149.7304  128.7917  155.4049 H   0  0  0  0  0  0  0  0  0  0  0  0
  152.8995  131.2590  156.9947 H   0  0  0  0  0  0  0  0  0  0  0  0
  149.4440  135.8551  154.1071 H   0  0  0  0  0  0  0  0  0  0  0  0
  150.9280  136.6465  156.5448 H   0  0  0  0  0  0  0  0  0  0  0  0
  152.4199  135.7456  156.5670 H   0  0  0  0  0  0  0  0  0  0  0  0
  153.1741  136.7786  153.1676 H   0  0  0  0  0  0  0  0  0  0  0  0
  150.5094  136.9920  153.4865 H   0  0  0  0  0  0  0  0  0  0  0  0
  150.3968  138.2057  154.7348 H   0  0  0  0  0  0  0  0  0  0  0  0
  152.2193  138.3663  152.2786 H   0  0  0  0  0  0  0  0  0  0  0  0
  150.7902  139.3255  152.5990 H   0  0  0  0  0  0  0  0  0  0  0  0
  154.1982  138.7585  153.6274 H   0  0  0  0  0  0  0  0  0  0  0  0
  154.1260  139.9825  154.8767 H   0  0  0  0  0  0  0  0  0  0  0  0
  152.6240  138.6331  156.2523 H   0  0  0  0  0  0  0  0  0  0  0  0
  154.0395  137.6846  155.8688 H   0  0  0  0  0  0  0  0  0  0  0  0
  145.1306  131.0634  153.4625 H   0  0  0  0  0  0  0  0  0  0  0  0
  1  2  1  0  0  0  0
  1 28  1  0  0  0  0
  1 29  1  0  0  0  0
  1 30  1  0  0  0  0
  2  3  1  0  0  0  0
  2 31  1  0  0  0  0
  2 32  1  0  0  0  0
  3  7  1  0  0  0  0
  3  4  1  0  0  0  0
  3 58  1  0  0  0  0
  4  5  1  0  0  0  0
  4 33  1  0  0  0  0
  4 34  1  0  0  0  0
  5  6  1  0  0  0  0
  5 35  1  0  0  0  0
  5 36  1  0  0  0  0
  6  7  1  0  0  0  0
  6 37  1  0  0  0  0
  6 38  1  0  0  0  0
  7  8  1  0  0  0  0
  7 39  1  0  0  0  0
  8  9  1  0  0  0  0
  8 40  1  0  0  0  0
  8 41  1  0  0  0  0
  9 10  1  0  0  0  0
  9 11  1  0  0  0  0
 10 42  1  0  0  0  0
 10 43  1  0  0  0  0
 10 44  1  0  0  0  0
 11 16  1  0  0  0  0
 11 12  2  0  0  0  0
 12 13  1  0  0  0  0
 13 14  2  0  0  0  0
 13 45  1  0  0  0  0
 14 15  1  0  0  0  0
 15 19  1  0  0  0  0
 15 16  2  0  0  0  0
 16 17  1  0  0  0  0
 17 18  2  0  0  0  0
 18 19  1  0  0  0  0
 18 46  1  0  0  0  0
 19 20  1  0  0  0  0
 20 21  1  0  0  0  0
 20 47  1  0  0  0  0
 20 48  1  0  0  0  0
 21 27  1  0  0  0  0
 21 22  1  0  0  0  0
 21 23  1  0  0  0  0
 22 49  1  0  0  0  0
 23 24  1  0  0  0  0
 23 50  1  0  0  0  0
 23 51  1  0  0  0  0
 24 25  1  0  0  0  0
 24 52  1  0  0  0  0
 24 53  1  0  0  0  0
 25 26  1  0  0  0  0
 26 27  1  0  0  0  0
 26 54  1  0  0  0  0
 26 55  1  0  0  0  0
 27 56  1  0  0  0  0
 27 57  1  0  0  0  0
M  CHG  1   3   1
M  END
> <s_m_source_file>
AV-unprocessed.smi

> <i_m_source_file_index>
152

> <i_lp_mmshare_version>
43012

> <i_f3d_flags>
0

> <s_epik_input>
W0NIM11bQ0gyXU4xW0NIMl1bQ0gyXVtDSDJdW0NASF0xW0NIMl1OKFtDSDNdKWMobltjSF1uMiljKGMyMyluW2NIXW4zW0NIMl1DNChbT0hdKVtDSDJdW0NIMl1PW0NIMl1bQ0gyXTQ=

> <s_epik_cmdline>
J2VwaWtfcHl0aG9uJywgJy1waCcsICc3LjAnLCAnLXRuJywgJzgnLCAnLW1hJywgJzIwMCcsICctbWV0YWxfYmluZGluZycsICctaW1hZScsICc8aW5maWxlLm1hZT4nLCAnLW9tYWUnLCAnPG91dGZpbGUubWFlPic=

> <r_lp_tautomer_probability>
1

> <r_epik_Ionization_Penalty>
0.00152183

> <r_epik_Ionization_Penalty_Charging>
0.00112577

> <r_epik_Ionization_Penalty_Neutral>
0.000396066

> <r_epik_State_Penalty>
-0

> <r_epik_Charging_Adjusted_Penalty>
0.00112577

> <i_epik_Tot_Q>
1

> <i_epik_Tot_abs_Q>
1

> <r_epik_Metal_State_Penalty>
-0

> <b_epik_Metal_Only>
0

> <s_lp_Force_Field>
OPLS_2005

> <r_lp_Energy>
46.3876

> <b_lp_Chiralities_Consistent>
1

> <s_lp_Variant>
AV-unprocessed.smi:152-2

> <Gold.Version>
5.8.1

> <Gold.Id.Protein>
6NUR|6NUR_protein|mol2

> <Gold.PLP.Fitness>
47.3557

> <Gold.PLP.PLP>
-42.7340

> <Gold.PLP.part.hbond>
-2.6326

> <Gold.PLP.part.metal>
0.0000

> <Gold.PLP.part.buried>
-5.2707

> <Gold.PLP.part.nonpolar>
-35.2269

> <Gold.PLP.part.repulsive>
0.1629

> <Gold.PLP.ligand.clash>
0.0000

> <Gold.PLP.ligand.torsion>
0.1238

> <Gold.PLP.Chemscore.Hbond>
1.4261

> <Gold.PLP.Chemscore.CHOScore>
0.1459

> <Gold.PLP.Chemscore.Metal>
0.0000

> <Gold.Chemscore.Hbonds>
donor molecule, donor type, donor heavy atom, donor atom, acceptor molecule, acceptor atom, score
      P1  H  7989  7998       L1    25  0.17
      L1  C    18    46       P1  7948  0.86

> <Gold.PLP.Chemscore.Internal.Correction>
0.1533

> <Gold.Rescore>
     Score         DG    S(hbond)    S(metal)    S(lipo)     H(rot)  DE(clash)    DE(int)     intcor
     11.01     -12.55       0.94        0.00      87.57       2.46       0.11       1.43       ----

> <Gold.Chemscore.Fitness>
11.0106

> <Gold.Chemscore.DG>
-12.5509

> <Gold.Chemscore.ZeroCoef>
-5.4800

> <Gold.Chemscore.Hbond>
0.9360

> <Gold.Chemscore.Metal>
0.0000

> <Gold.Chemscore.Lipo>
87.5723

> <Gold.Chemscore.Internal_Hbond>
0.0000

> <Gold.Chemscore.DEClash>
0.1132

> <Gold.Chemscore.DEInternal>
1.4271

> <Gold.Chemscore.Rot>
2.4614

> <Gold.Chemscore.Internal.Correction>
   9.000000E+99

> <Gold.Chemscore.Hbonds>
donor molecule, donor type, donor heavy atom, donor atom, acceptor molecule, acceptor atom, score
      P1  H  7989  7998       L1    25  0.03

> <Gold.Chemscore.Hbond.Weighted>
-3.1261

> <Gold.Chemscore.Metal.Weighted>
-0.0000

> <Gold.Chemscore.Lipo.Weighted>
-10.2460

> <Gold.Chemscore.Internal_Hbond.Weighted>
0.0000

> <Gold.Chemscore.DEClash.Weighted>
0.1132

> <Gold.Chemscore.DEInternal.Weighted>
1.4271

> <Gold.Chemscore.Rot.Weighted>
6.3012

> <Gold.Chemscore.Internal.Correction.Weighted>
   9.000000E+99

> <Gold.Protein.RotatedTorsions>
[ 6907 6896 6895 6894 ] final -175.76 input  -60.11 | X-H torsion
[ 7974 7965 7964 7962 ] final   -9.99 input  175.53 | X-H torsion
[ 8008 7997 7996 7995 ] final   88.99 input   59.86 | X-H torsion
[ 10167 10162 10161 10158 ] final  -40.29 input  -65.29 | X-H torsion
[ 10718 10713 10712 10709 ] final  127.19 input   66.30 | X-H torsion
[ 10763 10752 10751 10750 ] final  179.45 input  -60.55 | X-H torsion
[ 11005 11000 10999 10996 ] final -175.08 input  -57.11 | X-H torsion

> <Gold.Protein.ActiveResidues>
 VAL166  LYS551  ARG553  GLY616  TRP617  ASP618  TYR619  PRO620  LYS621  CYS622 
 ASP623  PHE694  ASN695  SER759  ASP760  ASP761  ALA762  ILE779  LEU786  VAL792 
 PHE793  MET794  SER795  GLU796  ALA797  LYS798  CYS799  TRP800  GLU811  SER814 

> <Gold.Protein.RotatedAtoms>
  151.5938  133.3363  159.3033 H   0  0  0  0  0  0  0  0  0  0  0  0  # atno 6907 bound_to 6896
  150.8245  134.7473  159.6812 H   0  0  0  0  0  0  0  0  0  0  0  0  # atno 6908 bound_to 6896
  152.4336  134.5736  159.9980 H   0  0  0  0  0  0  0  0  0  0  0  0  # atno 6909 bound_to 6896
  146.2235  140.2697  142.8356 H   0  0  0  0  0  0  0  0  0  0  0  0  # atno 7974 bound_to 7965
  155.9945  140.3365  155.6785 H   0  0  0  0  0  0  0  0  0  0  0  0  # atno 8008 bound_to 7997
  155.6374  140.0691  157.2647 H   0  0  0  0  0  0  0  0  0  0  0  0  # atno 8009 bound_to 7997
  154.4230  140.1748  156.1525 H   0  0  0  0  0  0  0  0  0  0  0  0  # atno 8010 bound_to 7997
  140.7038  143.3162  151.2904 H   0  0  0  0  0  0  0  0  0  0  0  0  # atno 10167 bound_to 10162
  157.5354  131.1098  150.8943 H   0  0  0  0  0  0  0  0  0  0  0  0  # atno 10718 bound_to 10713
  154.5208  135.2794  155.1264 H   0  0  0  0  0  0  0  0  0  0  0  0  # atno 10763 bound_to 10752
  154.2823  135.6283  153.5355 H   0  0  0  0  0  0  0  0  0  0  0  0  # atno 10764 bound_to 10752
  152.9936  135.5654  154.5696 H   0  0  0  0  0  0  0  0  0  0  0  0  # atno 10765 bound_to 10752
  140.4672  134.6199  157.4867 H   0  0  0  0  0  0  0  0  0  0  0  0  # atno 11005 bound_to 11000
  144.9277  140.7940  143.5709 LP  0  0  0  0  0  0  0  0  0  0  0  0  # atno 17320 bound_to 7965
  145.2638  139.1981  143.4877 LP  0  0  0  0  0  0  0  0  0  0  0  0  # atno 17321 bound_to 7965
  139.6601  144.0204  152.2687 LP  0  0  0  0  0  0  0  0  0  0  0  0  # atno 17342 bound_to 10162
  139.9769  144.6455  150.7937 LP  0  0  0  0  0  0  0  0  0  0  0  0  # atno 17343 bound_to 10162
  156.9511  130.5420  149.5282 LP  0  0  0  0  0  0  0  0  0  0  0  0  # atno 17370 bound_to 10713
  156.0455  130.5532  150.8870 LP  0  0  0  0  0  0  0  0  0  0  0  0  # atno 17371 bound_to 10713
  139.9907  134.6989  155.9694 LP  0  0  0  0  0  0  0  0  0  0  0  0  # atno 17394 bound_to 11000
  141.1594  133.6540  156.4267 LP  0  0  0  0  0  0  0  0  0  0  0  0  # atno 17395 bound_to 11000

$$$$
