AV-unprocessed.smi:2973|AV-procd|sdf|11350|dock7
  -GOLD-   2272016263D 1   1.00000     0.00000
 Structure written by MMmdl.
 49 51  0  0  0  0  0  0  0  0  3 V2000
  152.6696  138.3409  159.0741 C   0  0  0  0  0  0  0  0  0  0  0  0
  152.0923  139.7712  159.1537 C   0  0  1  0  0  0  0  0  0  0  0  0
  153.1757  140.7755  159.6035 C   0  0  0  0  0  0  0  0  0  0  0  0
  152.6016  142.1867  159.7968 C   0  0  0  0  0  0  0  0  0  0  0  0
  151.9173  142.6857  158.5177 C   0  0  0  0  0  0  0  0  0  0  0  0
  150.8258  141.7066  158.0527 C   0  0  0  0  0  0  0  0  0  0  0  0
  151.3576  140.2616  157.8634 C   0  0  1  0  0  0  0  0  0  0  0  0
  152.2146  140.1937  156.6902 N   0  5  0  0  0  0  0  0  0  0  0  0
  151.6409  139.3842  155.7704 C   0  0  0  0  0  0  0  0  0  0  0  0
  152.0779  139.1158  154.6522 O   0  0  0  0  0  0  0  0  0  0  0  0
  150.4746  138.8877  156.2251 N   0  0  0  0  0  0  0  0  0  0  0  0
  149.5691  138.0146  155.4617 C   0  0  0  0  0  0  0  0  0  0  0  0
  148.3335  138.7253  154.8808 C   0  0  0  0  0  0  0  0  0  0  0  0
  147.6961  139.4993  155.5946 O   0  0  0  0  0  0  0  0  0  0  0  0
  148.0038  138.4820  153.6007 N   0  0  0  0  0  0  0  0  0  0  0  0
  146.8974  139.0974  152.8812 C   0  0  0  0  0  0  0  0  0  0  0  0
  146.4356  138.2154  151.7097 C   0  0  0  0  0  0  0  0  0  0  0  0
  145.2303  137.3691  152.0675 C   0  0  0  0  0  0  0  0  0  0  0  0
  145.2203  135.9672  151.9017 C   0  0  0  0  0  0  0  0  0  0  0  0
  144.0656  135.2399  152.2588 C   0  0  0  0  0  0  0  0  0  0  0  0
  142.9482  135.9282  152.7751 C   0  0  0  0  0  0  0  0  0  0  0  0
  143.0133  137.3291  152.9202 C   0  0  0  0  0  0  0  0  0  0  0  0
  144.1370  137.9903  152.5659 N   0  3  0  0  0  0  0  0  0  0  0  0
  150.2148  139.3432  157.4560 C   0  0  0  0  0  0  0  0  0  0  0  0
  149.2285  139.0993  158.1527 O   0  0  0  0  0  0  0  0  0  0  0  0
  153.4405  138.2612  158.3072 H   0  0  0  0  0  0  0  0  0  0  0  0
  151.8997  137.6026  158.8509 H   0  0  0  0  0  0  0  0  0  0  0  0
  153.1228  138.0527  160.0227 H   0  0  0  0  0  0  0  0  0  0  0  0
  151.3479  139.7494  159.9516 H   0  0  0  0  0  0  0  0  0  0  0  0
  153.6268  140.4415  160.5383 H   0  0  0  0  0  0  0  0  0  0  0  0
  153.9823  140.8062  158.8698 H   0  0  0  0  0  0  0  0  0  0  0  0
  151.8838  142.1809  160.6178 H   0  0  0  0  0  0  0  0  0  0  0  0
  153.3966  142.8749  160.0846 H   0  0  0  0  0  0  0  0  0  0  0  0
  151.4819  143.6702  158.6898 H   0  0  0  0  0  0  0  0  0  0  0  0
  152.6605  142.8129  157.7297 H   0  0  0  0  0  0  0  0  0  0  0  0
  150.0266  141.7067  158.7956 H   0  0  0  0  0  0  0  0  0  0  0  0
  150.3745  142.0762  157.1300 H   0  0  0  0  0  0  0  0  0  0  0  0
  150.1090  137.5388  154.6418 H   0  0  0  0  0  0  0  0  0  0  0  0
  149.2277  137.1963  156.0977 H   0  0  0  0  0  0  0  0  0  0  0  0
  148.5753  137.8254  153.0873 H   0  0  0  0  0  0  0  0  0  0  0  0
  146.0768  139.2406  153.5848 H   0  0  0  0  0  0  0  0  0  0  0  0
  147.1856  140.0899  152.5311 H   0  0  0  0  0  0  0  0  0  0  0  0
  146.1848  138.8325  150.8455 H   0  0  0  0  0  0  0  0  0  0  0  0
  147.2501  137.5622  151.3933 H   0  0  0  0  0  0  0  0  0  0  0  0
  146.0858  135.4544  151.5072 H   0  0  0  0  0  0  0  0  0  0  0  0
  144.0376  134.1666  152.1390 H   0  0  0  0  0  0  0  0  0  0  0  0
  142.0545  135.3896  153.0548 H   0  0  0  0  0  0  0  0  0  0  0  0
  142.2069  137.9361  153.3055 H   0  0  0  0  0  0  0  0  0  0  0  0
  144.1632  139.0041  152.6798 H   0  0  0  0  0  0  0  0  0  0  0  0
  1  2  1  0  0  0  0
  1 26  1  0  0  0  0
  1 27  1  0  0  0  0
  1 28  1  0  0  0  0
  2  7  1  0  0  0  0
  2  3  1  0  0  0  0
  2 29  1  0  0  0  0
  3  4  1  0  0  0  0
  3 30  1  0  0  0  0
  3 31  1  0  0  0  0
  4  5  1  0  0  0  0
  4 32  1  0  0  0  0
  4 33  1  0  0  0  0
  5  6  1  0  0  0  0
  5 34  1  0  0  0  0
  5 35  1  0  0  0  0
  6  7  1  0  0  0  0
  6 36  1  0  0  0  0
  6 37  1  0  0  0  0
  7 24  1  0  0  0  0
  7  8  1  0  0  0  0
  8  9  1  0  0  0  0
  9 10  2  0  0  0  0
  9 11  1  0  0  0  0
 11 12  1  0  0  0  0
 11 24  1  0  0  0  0
 12 13  1  0  0  0  0
 12 38  1  0  0  0  0
 12 39  1  0  0  0  0
 13 14  2  0  0  0  0
 13 15  1  0  0  0  0
 15 16  1  0  0  0  0
 15 40  1  0  0  0  0
 16 17  1  0  0  0  0
 16 41  1  0  0  0  0
 16 42  1  0  0  0  0
 17 18  1  0  0  0  0
 17 43  1  0  0  0  0
 17 44  1  0  0  0  0
 18 23  1  0  0  0  0
 18 19  2  0  0  0  0
 19 20  1  0  0  0  0
 19 45  1  0  0  0  0
 20 21  2  0  0  0  0
 20 46  1  0  0  0  0
 21 22  1  0  0  0  0
 21 47  1  0  0  0  0
 22 23  2  0  0  0  0
 22 48  1  0  0  0  0
 23 49  1  0  0  0  0
 24 25  2  0  0  0  0
M  CHG  1   8  -1
M  CHG  1  23   1
M  END
> <s_m_source_file>
AV-unprocessed.smi

> <i_m_source_file_index>
2973

> <i_lp_mmshare_version>
43012

> <i_f3d_flags>
0

> <s_epik_input>
W0NIMl0xW0NIMl1bQ0gyXVtDSDJdW0NAQEhdKFtDSDNdKVtDQF0xMltOSF1DKD1PKU4oQzI9TylbQ0gyXUMoPU8pW05IXVtDSDJdW0NIMl1jM1tjSF1bY0hdW2NIXVtjSF1uMw==

> <s_epik_cmdline>
J2VwaWtfcHl0aG9uJywgJy1waCcsICc3LjAnLCAnLXRuJywgJzgnLCAnLW1hJywgJzIwMCcsICctbWV0YWxfYmluZGluZycsICctaW1hZScsICc8aW5maWxlLm1hZT4nLCAnLW9tYWUnLCAnPG91dGZpbGUubWFlPic=

> <r_lp_tautomer_probability>
1

> <r_epik_Ionization_Penalty>
7.89073

> <r_epik_Ionization_Penalty_Charging>
7.89073

> <r_epik_Ionization_Penalty_Neutral>
1.56557e-07

> <r_epik_State_Penalty>
8.01193

> <r_epik_Charging_Adjusted_Penalty>
15.9027

> <i_epik_Tot_Q>
0

> <i_epik_Tot_abs_Q>
2

> <r_epik_Metal_State_Penalty>
3.98737

> <b_epik_Metal_Only>
1

> <s_lp_Force_Field>
OPLS_2005

> <r_lp_Energy>
20.3817

> <b_lp_Chiralities_Consistent>
1

> <s_lp_Variant>
AV-unprocessed.smi:2973-14

> <Gold.Version>
5.8.1

> <Gold.Id.Protein>
6NUR|6NUR_protein|mol2

> <Gold.PLP.Fitness>
56.4112

> <Gold.PLP.PLP>
-40.8647

> <Gold.PLP.part.hbond>
-5.5509

> <Gold.PLP.part.metal>
0.0000

> <Gold.PLP.part.buried>
-1.0335

> <Gold.PLP.part.nonpolar>
-34.7446

> <Gold.PLP.part.repulsive>
0.1083

> <Gold.PLP.ligand.clash>
0.0000

> <Gold.PLP.ligand.torsion>
0.8486

> <Gold.PLP.Chemscore.Hbond>
5.7355

> <Gold.PLP.Chemscore.CHOScore>
0.0000

> <Gold.PLP.Chemscore.Metal>
0.0000

> <Gold.Chemscore.Hbonds>
donor molecule, donor type, donor heavy atom, donor atom, acceptor molecule, acceptor atom, score
      L1  H    15    40       P1  7948  1.00
      L1  H    23    49       P1 10175  2.00
      P1  H  7989  7998       L1    10  0.67
      P1  H  7997  8009       L1     8  1.50

> <Gold.PLP.Chemscore.Internal.Correction>
0.0373

> <Gold.Rescore>
     Score         DG    S(hbond)    S(metal)    S(lipo)     H(rot)  DE(clash)    DE(int)     intcor
     20.92     -22.21       3.42        0.00      87.37       1.92       0.09       1.20       ----

> <Gold.Chemscore.Fitness>
20.9199

> <Gold.Chemscore.DG>
-22.2053

> <Gold.Chemscore.ZeroCoef>
-5.4800

> <Gold.Chemscore.Hbond>
3.4168

> <Gold.Chemscore.Metal>
0.0000

> <Gold.Chemscore.Lipo>
87.3659

> <Gold.Chemscore.Internal_Hbond>
0.0000

> <Gold.Chemscore.DEClash>
0.0885

> <Gold.Chemscore.DEInternal>
1.1969

> <Gold.Chemscore.Rot>
1.9175

> <Gold.Chemscore.Internal.Correction>
   9.000000E+99

> <Gold.Chemscore.Hbonds>
donor molecule, donor type, donor heavy atom, donor atom, acceptor molecule, acceptor atom, score
      L1  H    15    40       P1  7948  0.92
      L1  H    23    49       P1 10175  0.92
      P1  H  7989  7998       L1    10  0.32
      P1  H  7997  8009       L1     8  0.50

> <Gold.Chemscore.Hbond.Weighted>
-11.4122

> <Gold.Chemscore.Metal.Weighted>
-0.0000

> <Gold.Chemscore.Lipo.Weighted>
-10.2218

> <Gold.Chemscore.Internal_Hbond.Weighted>
0.0000

> <Gold.Chemscore.DEClash.Weighted>
0.0885

> <Gold.Chemscore.DEInternal.Weighted>
1.1969

> <Gold.Chemscore.Rot.Weighted>
4.9087

> <Gold.Chemscore.Internal.Correction.Weighted>
   9.000000E+99

> <Gold.Protein.RotatedTorsions>
[ 6907 6896 6895 6894 ] final  113.91 input  -60.11 | X-H torsion
[ 7974 7965 7964 7962 ] final -150.50 input  175.53 | X-H torsion
[ 8008 7997 7996 7995 ] final -167.44 input   59.86 | X-H torsion
[ 10167 10162 10161 10158 ] final   22.46 input  -65.29 | X-H torsion
[ 10718 10713 10712 10709 ] final  -89.06 input   66.30 | X-H torsion
[ 10763 10752 10751 10750 ] final  104.52 input  -60.55 | X-H torsion
[ 11005 11000 10999 10996 ] final  -20.75 input  -57.11 | X-H torsion

> <Gold.Protein.ActiveResidues>
 VAL166  LYS551  ARG553  GLY616  TRP617  ASP618  TYR619  PRO620  LYS621  CYS622 
 ASP623  PHE694  ASN695  SER759  ASP760  ASP761  ALA762  ILE779  LEU786  VAL792 
 PHE793  MET794  SER795  GLU796  ALA797  LYS798  CYS799  TRP800  GLU811  SER814 

> <Gold.Protein.RotatedAtoms>
  152.4833  133.8309  159.7102 H   0  0  0  0  0  0  0  0  0  0  0  0  # atno 6907 bound_to 6896
  150.8900  133.7247  159.2914 H   0  0  0  0  0  0  0  0  0  0  0  0  # atno 6908 bound_to 6896
  151.4723  135.1050  159.9807 H   0  0  0  0  0  0  0  0  0  0  0  0  # atno 6909 bound_to 6896
  144.7904  140.4924  143.5777 H   0  0  0  0  0  0  0  0  0  0  0  0  # atno 7974 bound_to 7965
  155.8778  140.1004  157.1506 H   0  0  0  0  0  0  0  0  0  0  0  0  # atno 8008 bound_to 7997
  154.4002  140.1335  156.4221 H   0  0  0  0  0  0  0  0  0  0  0  0  # atno 8009 bound_to 7997
  155.7678  140.3461  155.5233 H   0  0  0  0  0  0  0  0  0  0  0  0  # atno 8010 bound_to 7997
  140.5346  143.9782  150.6484 H   0  0  0  0  0  0  0  0  0  0  0  0  # atno 10167 bound_to 10162
  155.9984  130.4858  150.5113 H   0  0  0  0  0  0  0  0  0  0  0  0  # atno 10718 bound_to 10713
  153.3670  135.3940  155.1761 H   0  0  0  0  0  0  0  0  0  0  0  0  # atno 10763 bound_to 10752
  154.8688  135.3693  154.5026 H   0  0  0  0  0  0  0  0  0  0  0  0  # atno 10764 bound_to 10752
  153.5490  135.7083  153.5661 H   0  0  0  0  0  0  0  0  0  0  0  0  # atno 10765 bound_to 10752
  140.8495  133.7867  155.9950 H   0  0  0  0  0  0  0  0  0  0  0  0  # atno 11005 bound_to 11000
  145.5809  139.1489  143.3236 LP  0  0  0  0  0  0  0  0  0  0  0  0  # atno 17320 bound_to 7965
  146.2154  140.5939  142.9041 LP  0  0  0  0  0  0  0  0  0  0  0  0  # atno 17321 bound_to 7965
  140.3166  143.3163  152.0826 LP  0  0  0  0  0  0  0  0  0  0  0  0  # atno 17342 bound_to 10162
  139.4966  144.6601  151.6484 LP  0  0  0  0  0  0  0  0  0  0  0  0  # atno 17343 bound_to 10162
  157.3086  131.0659  151.2017 LP  0  0  0  0  0  0  0  0  0  0  0  0  # atno 17370 bound_to 10713
  157.2971  130.6824  149.6144 LP  0  0  0  0  0  0  0  0  0  0  0  0  # atno 17371 bound_to 10713
  140.8806  134.2616  157.5146 LP  0  0  0  0  0  0  0  0  0  0  0  0  # atno 17394 bound_to 11000
  139.8704  134.9613  156.4392 LP  0  0  0  0  0  0  0  0  0  0  0  0  # atno 17395 bound_to 11000

$$$$
