AV-unprocessed.smi:1254|AV-procd|sdf|5271|dock6
  -GOLD-   22720 4383D 1   1.00000     0.00000
 Structure written by MMmdl.
 46 47  0  0  0  0  0  0  0  0  2 V2000
  150.5592  142.2394  156.7251 C   0  0  0  0  0  0  0  0  0  0  0  0
  150.3398  141.0642  155.8357 C   0  0  0  0  0  0  0  0  0  0  0  0
  149.2268  140.5475  155.2339 C   0  0  0  0  0  0  0  0  0  0  0  0
  149.7359  139.4209  154.5346 C   0  0  0  0  0  0  0  0  0  0  0  0
  148.8788  138.5900  153.7688 N   0  0  0  0  0  0  0  0  0  0  0  0
  147.5631  138.7535  153.5498 C   0  0  0  0  0  0  0  0  0  0  0  0
  146.8737  139.6652  154.0081 O   0  0  0  0  0  0  0  0  0  0  0  0
  147.0772  137.7924  152.7513 N   0  0  0  0  0  0  0  0  0  0  0  0
  145.6891  137.6955  152.3125 C   0  0  0  0  0  0  0  0  0  0  0  0
  145.1554  136.2550  152.4108 C   0  0  2  0  0  0  0  0  0  0  0  0
  144.9853  135.6075  151.0212 C   0  0  0  0  0  0  0  0  0  0  0  0
  144.4127  134.2431  151.1302 N   0  3  1  0  0  0  0  0  0  0  0  0
  145.3981  133.2166  151.5657 C   0  0  0  0  0  0  0  0  0  0  0  0
  145.2665  131.8875  150.7910 C   0  0  0  0  0  0  0  0  0  0  0  0
  145.8457  130.7264  151.6129 C   0  0  0  0  0  0  0  0  0  0  0  0
  145.9438  131.9578  149.4121 C   0  0  0  0  0  0  0  0  0  0  0  0
  143.1542  134.2716  151.9189 C   0  0  0  0  0  0  0  0  0  0  0  0
  143.3477  134.9908  153.2680 C   0  0  0  0  0  0  0  0  0  0  0  0
  143.8822  136.2903  153.0486 O   0  0  0  0  0  0  0  0  0  0  0  0
  151.0410  139.2644  154.6941 N   0  0  0  0  0  0  0  0  0  0  0  0
  151.4348  140.3172  155.5283 O   0  0  0  0  0  0  0  0  0  0  0  0
  149.6228  142.7633  156.9174 H   0  0  0  0  0  0  0  0  0  0  0  0
  151.2538  142.9448  156.2690 H   0  0  0  0  0  0  0  0  0  0  0  0
  150.9741  141.9266  157.6834 H   0  0  0  0  0  0  0  0  0  0  0  0
  148.2138  140.9175  155.2892 H   0  0  0  0  0  0  0  0  0  0  0  0
  149.3174  137.7930  153.3321 H   0  0  0  0  0  0  0  0  0  0  0  0
  147.7115  137.0814  152.4172 H   0  0  0  0  0  0  0  0  0  0  0  0
  145.0857  138.3629  152.9283 H   0  0  0  0  0  0  0  0  0  0  0  0
  145.6068  138.0612  151.2876 H   0  0  0  0  0  0  0  0  0  0  0  0
  145.8459  135.6576  153.0083 H   0  0  0  0  0  0  0  0  0  0  0  0
  144.3111  136.2150  150.4160 H   0  0  0  0  0  0  0  0  0  0  0  0
  145.9345  135.5801  150.4845 H   0  0  0  0  0  0  0  0  0  0  0  0
  146.4093  133.5968  151.4136 H   0  0  0  0  0  0  0  0  0  0  0  0
  145.3041  133.0421  152.6375 H   0  0  0  0  0  0  0  0  0  0  0  0
  144.2113  131.6658  150.6347 H   0  0  0  0  0  0  0  0  0  0  0  0
  146.9094  130.8687  151.8070 H   0  0  0  0  0  0  0  0  0  0  0  0
  145.7272  129.7764  151.0911 H   0  0  0  0  0  0  0  0  0  0  0  0
  145.3418  130.6353  152.5757 H   0  0  0  0  0  0  0  0  0  0  0  0
  147.0085  132.1755  149.5033 H   0  0  0  0  0  0  0  0  0  0  0  0
  145.4981  132.7309  148.7859 H   0  0  0  0  0  0  0  0  0  0  0  0
  145.8438  131.0122  148.8784 H   0  0  0  0  0  0  0  0  0  0  0  0
  142.4033  134.8064  151.3356 H   0  0  0  0  0  0  0  0  0  0  0  0
  142.7586  133.2685  152.0722 H   0  0  0  0  0  0  0  0  0  0  0  0
  142.3891  135.0893  153.7773 H   0  0  0  0  0  0  0  0  0  0  0  0
  143.9984  134.4247  153.9355 H   0  0  0  0  0  0  0  0  0  0  0  0
  144.1588  133.9768  150.1894 H   0  0  0  0  0  0  0  0  0  0  0  0
  1  2  1  0  0  0  0
  1 22  1  0  0  0  0
  1 23  1  0  0  0  0
  1 24  1  0  0  0  0
  2 21  1  0  0  0  0
  2  3  2  0  0  0  0
  3  4  1  0  0  0  0
  3 25  1  0  0  0  0
  4  5  1  0  0  0  0
  4 20  2  0  0  0  0
  5  6  1  0  0  0  0
  5 26  1  0  0  0  0
  6  7  2  0  0  0  0
  6  8  1  0  0  0  0
  8  9  1  0  0  0  0
  8 27  1  0  0  0  0
  9 10  1  0  0  0  0
  9 28  1  0  0  0  0
  9 29  1  0  0  0  0
 10 19  1  0  0  0  0
 10 11  1  0  0  0  0
 10 30  1  0  0  0  0
 11 12  1  0  0  0  0
 11 31  1  0  0  0  0
 11 32  1  0  0  0  0
 12 13  1  0  0  0  0
 12 17  1  0  0  0  0
 12 46  1  0  0  0  0
 13 14  1  0  0  0  0
 13 33  1  0  0  0  0
 13 34  1  0  0  0  0
 14 15  1  0  0  0  0
 14 16  1  0  0  0  0
 14 35  1  0  0  0  0
 15 36  1  0  0  0  0
 15 37  1  0  0  0  0
 15 38  1  0  0  0  0
 16 39  1  0  0  0  0
 16 40  1  0  0  0  0
 16 41  1  0  0  0  0
 17 18  1  0  0  0  0
 17 42  1  0  0  0  0
 17 43  1  0  0  0  0
 18 19  1  0  0  0  0
 18 44  1  0  0  0  0
 18 45  1  0  0  0  0
 20 21  1  0  0  0  0
M  CHG  1  12   1
M  END
> <s_m_source_file>
AV-unprocessed.smi

> <i_m_source_file_index>
1254

> <i_lp_mmshare_version>
43012

> <i_f3d_flags>
0

> <s_epik_input>
W0NIM11jMVtjSF1jKG5vMSlbTkhdQyg9TylbTkhdW0NIMl1bQ0BASF0yW0NIMl1OKFtDSDJdW0NIMl1PMilbQ0gyXVtDSF0oW0NIM10pW0NIM10=

> <s_epik_cmdline>
J2VwaWtfcHl0aG9uJywgJy1waCcsICc3LjAnLCAnLXRuJywgJzgnLCAnLW1hJywgJzIwMCcsICctbWV0YWxfYmluZGluZycsICctaW1hZScsICc8aW5maWxlLm1hZT4nLCAnLW9tYWUnLCAnPG91dGZpbGUubWFlPic=

> <r_epik_Ionization_Penalty>
0.0986825

> <r_epik_Ionization_Penalty_Charging>
0.0986478

> <r_epik_Ionization_Penalty_Neutral>
3.46838e-05

> <r_epik_State_Penalty>
0.0887259

> <r_epik_Charging_Adjusted_Penalty>
0.187374

> <i_epik_Tot_Q>
1

> <i_epik_Tot_abs_Q>
1

> <r_epik_Metal_State_Penalty>
0.103424

> <b_epik_Metal_Only>
0

> <s_lp_Force_Field>
OPLS_2005

> <r_lp_Energy>
16.7856

> <b_lp_Chiralities_Consistent>
1

> <s_lp_Variant>
AV-unprocessed.smi:1254-3

> <Gold.Version>
5.8.1

> <Gold.Id.Protein>
6NUR|6NUR_protein|mol2

> <Gold.PLP.Fitness>
41.5713

> <Gold.PLP.PLP>
-38.8823

> <Gold.PLP.part.hbond>
-5.0000

> <Gold.PLP.part.metal>
0.0000

> <Gold.PLP.part.buried>
-3.2868

> <Gold.PLP.part.nonpolar>
-30.2929

> <Gold.PLP.part.repulsive>
0.5155

> <Gold.PLP.ligand.clash>
0.0000

> <Gold.PLP.ligand.torsion>
1.5060

> <Gold.PLP.Chemscore.Hbond>
1.8723

> <Gold.PLP.Chemscore.CHOScore>
0.0000

> <Gold.PLP.Chemscore.Metal>
0.0000

> <Gold.Chemscore.Hbonds>
donor molecule, donor type, donor heavy atom, donor atom, acceptor molecule, acceptor atom, score
      L1  H     5    26       P1  7948  0.61
      L1  H     8    27       P1  7948  1.00

> <Gold.PLP.Chemscore.Internal.Correction>
0.0842

> <Gold.Rescore>
     Score         DG    S(hbond)    S(metal)    S(lipo)     H(rot)  DE(clash)    DE(int)     intcor
     14.22     -17.51       1.88        0.00      86.88       1.73       0.24       3.06       ----

> <Gold.Chemscore.Fitness>
14.2171

> <Gold.Chemscore.DG>
-17.5089

> <Gold.Chemscore.ZeroCoef>
-5.4800

> <Gold.Chemscore.Hbond>
1.8834

> <Gold.Chemscore.Metal>
0.0000

> <Gold.Chemscore.Lipo>
86.8794

> <Gold.Chemscore.Internal_Hbond>
0.0000

> <Gold.Chemscore.DEClash>
0.2350

> <Gold.Chemscore.DEInternal>
3.0568

> <Gold.Chemscore.Rot>
1.7291

> <Gold.Chemscore.Internal.Correction>
   9.000000E+99

> <Gold.Chemscore.Hbonds>
donor molecule, donor type, donor heavy atom, donor atom, acceptor molecule, acceptor atom, score
      L1  H     5    26       P1  7948  0.59
      L1  H     8    27       P1  7948  0.98

> <Gold.Chemscore.Hbond.Weighted>
-6.2905

> <Gold.Chemscore.Metal.Weighted>
-0.0000

> <Gold.Chemscore.Lipo.Weighted>
-10.1649

> <Gold.Chemscore.Internal_Hbond.Weighted>
0.0000

> <Gold.Chemscore.DEClash.Weighted>
0.2350

> <Gold.Chemscore.DEInternal.Weighted>
3.0568

> <Gold.Chemscore.Rot.Weighted>
4.4265

> <Gold.Chemscore.Internal.Correction.Weighted>
   9.000000E+99

> <Gold.Protein.RotatedTorsions>
[ 6907 6896 6895 6894 ] final  142.13 input  -60.11 | X-H torsion
[ 7974 7965 7964 7962 ] final  106.69 input  175.53 | X-H torsion
[ 8008 7997 7996 7995 ] final   86.49 input   59.86 | X-H torsion
[ 10167 10162 10161 10158 ] final   87.10 input  -65.29 | X-H torsion
[ 10718 10713 10712 10709 ] final   92.66 input   66.30 | X-H torsion
[ 10763 10752 10751 10750 ] final   57.05 input  -60.55 | X-H torsion
[ 11005 11000 10999 10996 ] final  -94.46 input  -57.11 | X-H torsion

> <Gold.Protein.ActiveResidues>
 VAL166  LYS551  ARG553  GLY616  TRP617  ASP618  TYR619  PRO620  LYS621  CYS622 
 ASP623  PHE694  ASN695  SER759  ASP760  ASP761  ALA762  ILE779  LEU786  VAL792 
 PHE793  MET794  SER795  GLU796  ALA797  LYS798  CYS799  TRP800  GLU811  SER814 

> <Gold.Protein.RotatedAtoms>
  152.2225  133.4994  159.5169 H   0  0  0  0  0  0  0  0  0  0  0  0  # atno 6907 bound_to 6896
  150.7016  134.1324  159.4083 H   0  0  0  0  0  0  0  0  0  0  0  0  # atno 6908 bound_to 6896
  151.9245  135.0283  160.0575 H   0  0  0  0  0  0  0  0  0  0  0  0  # atno 6909 bound_to 6896
  145.3033  139.2562  143.3802 H   0  0  0  0  0  0  0  0  0  0  0  0  # atno 7974 bound_to 7965
  155.9635  140.3391  155.6511 H   0  0  0  0  0  0  0  0  0  0  0  0  # atno 8008 bound_to 7997
  155.6767  140.0733  157.2518 H   0  0  0  0  0  0  0  0  0  0  0  0  # atno 8009 bound_to 7997
  154.4149  140.1681  156.1926 H   0  0  0  0  0  0  0  0  0  0  0  0  # atno 8010 bound_to 7997
  139.8808  144.6441  150.8845 H   0  0  0  0  0  0  0  0  0  0  0  0  # atno 10167 bound_to 10162
  157.6958  131.0451  150.3915 H   0  0  0  0  0  0  0  0  0  0  0  0  # atno 10718 bound_to 10713
  152.9842  135.5655  154.5327 H   0  0  0  0  0  0  0  0  0  0  0  0  # atno 10763 bound_to 10752
  154.4796  135.2788  155.1583 H   0  0  0  0  0  0  0  0  0  0  0  0  # atno 10764 bound_to 10752
  154.3097  135.6291  153.5513 H   0  0  0  0  0  0  0  0  0  0  0  0  # atno 10765 bound_to 10752
  141.1470  133.7958  157.0301 H   0  0  0  0  0  0  0  0  0  0  0  0  # atno 11005 bound_to 11000
  146.3144  140.3552  142.8660 LP  0  0  0  0  0  0  0  0  0  0  0  0  # atno 17320 bound_to 7965
  144.9075  140.7718  143.5828 LP  0  0  0  0  0  0  0  0  0  0  0  0  # atno 17321 bound_to 7965
  140.7745  143.3587  151.1870 LP  0  0  0  0  0  0  0  0  0  0  0  0  # atno 17342 bound_to 10162
  139.7197  143.9242  152.2981 LP  0  0  0  0  0  0  0  0  0  0  0  0  # atno 17343 bound_to 10162
  156.4318  130.3973  149.6755 LP  0  0  0  0  0  0  0  0  0  0  0  0  # atno 17370 bound_to 10713
  156.3970  130.7655  151.2660 LP  0  0  0  0  0  0  0  0  0  0  0  0  # atno 17371 bound_to 10713
  140.0760  134.9675  157.1546 LP  0  0  0  0  0  0  0  0  0  0  0  0  # atno 17394 bound_to 11000
  140.3644  134.2459  155.7184 LP  0  0  0  0  0  0  0  0  0  0  0  0  # atno 17395 bound_to 11000

$$$$
