AV-unprocessed.smi:261|AV-procd|sdf|1986|dock5
  -GOLD-   2262021163D 1   1.00000     0.00000
 Structure written by MMmdl.
 51 54  0  0  0  0  0  0  0  0  1 V2000
  147.6598  133.1533  153.0812 C   0  0  0  0  0  0  0  0  0  0  0  0
  148.3522  132.9609  154.3046 O   0  0  0  0  0  0  0  0  0  0  0  0
  149.7457  133.2365  154.2285 C   0  0  2  0  0  0  0  0  0  0  0  0
  150.5204  132.6297  155.4063 C   0  0  0  0  0  0  0  0  0  0  0  0
  150.3755  133.6504  156.5465 C   0  0  2  0  0  0  0  0  0  0  0  0
  149.1538  133.3404  157.4387 C   0  0  0  0  0  0  0  0  0  0  0  0
  147.9843  133.0508  156.8578 N   0  0  0  0  0  0  0  0  0  0  0  0
  149.2707  133.3738  158.6616 O   0  0  0  0  0  0  0  0  0  0  0  0
  150.2934  134.9244  155.8310 N   0  0  0  0  0  0  0  0  0  0  0  0
  150.5552  136.1497  156.3658 C   0  0  0  0  0  0  0  0  0  0  0  0
  150.8645  136.2090  157.6886 N   0  0  0  0  0  0  0  0  0  0  0  0
  151.1402  137.3756  158.2763 C   0  0  0  0  0  0  0  0  0  0  0  0
  151.1670  138.5934  157.7365 N   0  0  0  0  0  0  0  0  0  0  0  0
  150.8586  138.5500  156.4095 C   0  0  0  0  0  0  0  0  0  0  0  0
  150.5407  137.3861  155.6496 C   0  0  0  0  0  0  0  0  0  0  0  0
  150.2865  137.7551  154.3323 N   0  0  0  0  0  0  0  0  0  0  0  0
  150.4562  139.0478  154.3124 C   0  0  0  0  0  0  0  0  0  0  0  0
  150.8091  139.6068  155.5175 N   0  0  0  0  0  0  0  0  0  0  0  0
  151.0769  141.0102  155.7837 C   0  0  0  0  0  0  0  0  0  0  0  0
  150.1999  141.6152  156.9033 C   0  0  2  0  0  0  0  0  0  0  0  0
  148.9457  142.0239  156.3919 O   0  0  0  0  0  0  0  0  0  0  0  0
  150.8572  142.7615  157.7071 C   0  0  2  0  0  0  0  0  0  0  0  0
  151.3069  143.9783  156.8989 C   0  0  0  0  0  0  0  0  0  0  0  0
  152.3292  144.6376  157.8130 C   0  0  0  0  0  0  0  0  0  0  0  0
  152.6921  143.5485  158.8296 C   0  0  0  0  0  0  0  0  0  0  0  0
  152.0482  142.3685  158.3707 O   0  0  0  0  0  0  0  0  0  0  0  0
  149.9456  134.7432  154.4246 C   0  0  0  0  0  0  0  0  0  0  0  0
  150.1418  132.9166  153.2632 H   0  0  0  0  0  0  0  0  0  0  0  0
  151.2750  133.6061  157.1599 H   0  0  0  0  0  0  0  0  0  0  0  0
  146.6012  132.9384  153.2269 H   0  0  0  0  0  0  0  0  0  0  0  0
  148.0270  132.4918  152.2968 H   0  0  0  0  0  0  0  0  0  0  0  0
  147.7465  134.1849  152.7378 H   0  0  0  0  0  0  0  0  0  0  0  0
  150.1961  131.6238  155.6737 H   0  0  0  0  0  0  0  0  0  0  0  0
  151.5740  132.5547  155.1333 H   0  0  0  0  0  0  0  0  0  0  0  0
  147.1754  132.8503  157.4281 H   0  0  0  0  0  0  0  0  0  0  0  0
  147.9145  133.0382  155.8507 H   0  0  0  0  0  0  0  0  0  0  0  0
  151.3747  137.3251  159.3293 H   0  0  0  0  0  0  0  0  0  0  0  0
  150.3367  139.6307  153.4109 H   0  0  0  0  0  0  0  0  0  0  0  0
  152.1337  141.1164  156.0321 H   0  0  0  0  0  0  0  0  0  0  0  0
  150.9257  141.5691  154.8596 H   0  0  0  0  0  0  0  0  0  0  0  0
  149.9840  140.8103  157.6067 H   0  0  0  0  0  0  0  0  0  0  0  0
  148.8975  142.9666  156.4326 H   0  0  0  0  0  0  0  0  0  0  0  0
  150.1518  143.0948  158.4712 H   0  0  0  0  0  0  0  0  0  0  0  0
  151.7955  143.6730  155.9731 H   0  0  0  0  0  0  0  0  0  0  0  0
  150.4798  144.6397  156.6398 H   0  0  0  0  0  0  0  0  0  0  0  0
  153.2001  144.9735  157.2491 H   0  0  0  0  0  0  0  0  0  0  0  0
  151.9039  145.5042  158.3202 H   0  0  0  0  0  0  0  0  0  0  0  0
  153.7682  143.3951  158.9124 H   0  0  0  0  0  0  0  0  0  0  0  0
  152.3083  143.8025  159.8186 H   0  0  0  0  0  0  0  0  0  0  0  0
  150.7762  135.0931  153.8097 H   0  0  0  0  0  0  0  0  0  0  0  0
  149.0561  135.3106  154.1465 H   0  0  0  0  0  0  0  0  0  0  0  0
  1  2  1  0  0  0  0
  1 30  1  0  0  0  0
  1 31  1  0  0  0  0
  1 32  1  0  0  0  0
  2  3  1  0  0  0  0
  3 28  1  0  0  0  0
  3 27  1  0  0  0  0
  3  4  1  0  0  0  0
  4  5  1  0  0  0  0
  4 33  1  0  0  0  0
  4 34  1  0  0  0  0
  5 29  1  0  0  0  0
  5  6  1  0  0  0  0
  5  9  1  0  0  0  0
  6  7  1  0  0  0  0
  6  8  2  0  0  0  0
  7 35  1  0  0  0  0
  7 36  1  0  0  0  0
  9 10  1  0  0  0  0
  9 27  1  0  0  0  0
 10 15  1  0  0  0  0
 10 11  2  0  0  0  0
 11 12  1  0  0  0  0
 12 13  2  0  0  0  0
 12 37  1  0  0  0  0
 13 14  1  0  0  0  0
 14 18  1  0  0  0  0
 14 15  2  0  0  0  0
 15 16  1  0  0  0  0
 16 17  2  0  0  0  0
 17 18  1  0  0  0  0
 17 38  1  0  0  0  0
 18 19  1  0  0  0  0
 19 20  1  0  0  0  0
 19 39  1  0  0  0  0
 19 40  1  0  0  0  0
 20 21  1  0  0  0  0
 20 22  1  0  0  0  0
 20 41  1  0  0  0  0
 21 42  1  0  0  0  0
 22 26  1  0  0  0  0
 22 23  1  0  0  0  0
 22 43  1  0  0  0  0
 23 24  1  0  0  0  0
 23 44  1  0  0  0  0
 23 45  1  0  0  0  0
 24 25  1  0  0  0  0
 24 46  1  0  0  0  0
 24 47  1  0  0  0  0
 25 26  1  0  0  0  0
 25 48  1  0  0  0  0
 25 49  1  0  0  0  0
 27 50  1  0  0  0  0
 27 51  1  0  0  0  0
M  END
> <s_m_source_file>
AV-unprocessed.smi

> <i_m_source_file_index>
261

> <i_lp_mmshare_version>
43012

> <i_f3d_flags>
0

> <s_epik_input>
W0NIM11PW0NASF0xW0NIMl1bQ0BASF0oQyg9TylbTkgyXSlOKFtDSDJdMSljKG5bY0hdbjIpYyhjMjMpbltjSF1uM1tDSDJdW0NASF0oW09IXSlbQ0BASF00W0NIMl1bQ0gyXVtDSDJdTzQ=

> <s_epik_cmdline>
J2VwaWtfcHl0aG9uJywgJy1waCcsICc3LjAnLCAnLXRuJywgJzgnLCAnLW1hJywgJzIwMCcsICctbWV0YWxfYmluZGluZycsICctaW1hZScsICc8aW5maWxlLm1hZT4nLCAnLW9tYWUnLCAnPG91dGZpbGUubWFlPic=

> <r_lp_tautomer_probability>
1

> <r_epik_Ionization_Penalty>
0.000713824

> <r_epik_Ionization_Penalty_Charging>
0

> <r_epik_Ionization_Penalty_Neutral>
0.000713824

> <r_epik_State_Penalty>
0.000402132

> <r_epik_Charging_Adjusted_Penalty>
0.000402132

> <i_epik_Tot_Q>
0

> <i_epik_Tot_abs_Q>
0

> <r_epik_Metal_State_Penalty>
-0

> <b_epik_Metal_Only>
0

> <s_lp_Force_Field>
OPLS_2005

> <r_lp_Energy>
46.7805

> <b_lp_Chiralities_Consistent>
1

> <s_lp_Variant>
AV-unprocessed.smi:261-4

> <Gold.Version>
5.8.1

> <Gold.Id.Protein>
6NUR|6NUR_protein|mol2

> <Gold.PLP.Fitness>
50.8084

> <Gold.PLP.PLP>
-43.4234

> <Gold.PLP.part.hbond>
-3.0000

> <Gold.PLP.part.metal>
0.0000

> <Gold.PLP.part.buried>
-3.6730

> <Gold.PLP.part.nonpolar>
-35.4668

> <Gold.PLP.part.repulsive>
0.3110

> <Gold.PLP.ligand.clash>
0.0000

> <Gold.PLP.ligand.torsion>
0.8258

> <Gold.PLP.Chemscore.Hbond>
2.0000

> <Gold.PLP.Chemscore.CHOScore>
0.9836

> <Gold.PLP.Chemscore.Metal>
0.0000

> <Gold.Chemscore.Hbonds>
donor molecule, donor type, donor heavy atom, donor atom, acceptor molecule, acceptor atom, score
      L1  H    21    42       P1  8028  1.00
      P1  H  6896  6907       L1     8  1.00
      L1  C    17    38       P1  7957  1.00

> <Gold.PLP.Chemscore.Internal.Correction>
0.0858

> <Gold.Rescore>
     Score         DG    S(hbond)    S(metal)    S(lipo)     H(rot)  DE(clash)    DE(int)     intcor
     12.88     -14.64       1.94        0.00      92.43       3.18       0.06       1.70       ----

> <Gold.Chemscore.Fitness>
12.8788

> <Gold.Chemscore.DG>
-14.6389

> <Gold.Chemscore.ZeroCoef>
-5.4800

> <Gold.Chemscore.Hbond>
1.9440

> <Gold.Chemscore.Metal>
0.0000

> <Gold.Chemscore.Lipo>
92.4336

> <Gold.Chemscore.Internal_Hbond>
0.0000

> <Gold.Chemscore.DEClash>
0.0552

> <Gold.Chemscore.DEInternal>
1.7050

> <Gold.Chemscore.Rot>
3.1831

> <Gold.Chemscore.Internal.Correction>
   9.000000E+99

> <Gold.Chemscore.Hbonds>
donor molecule, donor type, donor heavy atom, donor atom, acceptor molecule, acceptor atom, score
      L1  H    21    42       P1  8028  0.96
      P1  H  6896  6907       L1     8  0.93

> <Gold.Chemscore.Hbond.Weighted>
-6.4928

> <Gold.Chemscore.Metal.Weighted>
-0.0000

> <Gold.Chemscore.Lipo.Weighted>
-10.8147

> <Gold.Chemscore.Internal_Hbond.Weighted>
0.0000

> <Gold.Chemscore.DEClash.Weighted>
0.0552

> <Gold.Chemscore.DEInternal.Weighted>
1.7050

> <Gold.Chemscore.Rot.Weighted>
8.1486

> <Gold.Chemscore.Internal.Correction.Weighted>
   9.000000E+99

> <Gold.Protein.RotatedTorsions>
[ 6907 6896 6895 6894 ] final -125.11 input  -60.11 | X-H torsion
[ 7974 7965 7964 7962 ] final -111.39 input  175.53 | X-H torsion
[ 8008 7997 7996 7995 ] final   21.00 input   59.86 | X-H torsion
[ 10167 10162 10161 10158 ] final -163.98 input  -65.29 | X-H torsion
[ 10718 10713 10712 10709 ] final  111.09 input   66.30 | X-H torsion
[ 10763 10752 10751 10750 ] final   -5.44 input  -60.55 | X-H torsion
[ 11005 11000 10999 10996 ] final  115.80 input  -57.11 | X-H torsion

> <Gold.Protein.ActiveResidues>
 VAL166  LYS551  ARG553  GLY616  TRP617  ASP618  TYR619  PRO620  LYS621  CYS622 
 ASP623  PHE694  ASN695  SER759  ASP760  ASP761  ALA762  ILE779  LEU786  VAL792 
 PHE793  MET794  SER795  GLU796  ALA797  LYS798  CYS799  TRP800  GLU811  SER814 

> <Gold.Protein.RotatedAtoms>
  150.8835  133.7339  159.2924 H   0  0  0  0  0  0  0  0  0  0  0  0  # atno 6907 bound_to 6896
  151.4913  135.1056  159.9814 H   0  0  0  0  0  0  0  0  0  0  0  0  # atno 6908 bound_to 6896
  152.4775  133.8127  159.7067 H   0  0  0  0  0  0  0  0  0  0  0  0  # atno 6909 bound_to 6896
  145.1567  140.8857  143.3615 H   0  0  0  0  0  0  0  0  0  0  0  0  # atno 7974 bound_to 7965
  154.9440  140.3057  155.5107 H   0  0  0  0  0  0  0  0  0  0  0  0  # atno 8008 bound_to 7997
  156.2993  140.2331  156.4449 H   0  0  0  0  0  0  0  0  0  0  0  0  # atno 8009 bound_to 7997
  154.8118  140.0428  157.1337 H   0  0  0  0  0  0  0  0  0  0  0  0  # atno 8010 bound_to 7997
  139.6282  144.0491  152.1993 H   0  0  0  0  0  0  0  0  0  0  0  0  # atno 10167 bound_to 10162
  157.6462  131.0944  150.6697 H   0  0  0  0  0  0  0  0  0  0  0  0  # atno 10718 bound_to 10713
  153.3986  135.7004  153.6442 H   0  0  0  0  0  0  0  0  0  0  0  0  # atno 10763 bound_to 10752
  153.4985  135.3657  155.2528 H   0  0  0  0  0  0  0  0  0  0  0  0  # atno 10764 bound_to 10752
  154.8708  135.4106  154.3317 H   0  0  0  0  0  0  0  0  0  0  0  0  # atno 10765 bound_to 10752
  139.9021  134.9589  156.7100 H   0  0  0  0  0  0  0  0  0  0  0  0  # atno 11005 bound_to 11000
  145.0374  139.3289  143.5994 LP  0  0  0  0  0  0  0  0  0  0  0  0  # atno 17320 bound_to 7965
  146.3488  139.9734  142.8703 LP  0  0  0  0  0  0  0  0  0  0  0  0  # atno 17321 bound_to 7965
  140.0149  144.6196  150.7615 LP  0  0  0  0  0  0  0  0  0  0  0  0  # atno 17342 bound_to 10162
  140.7423  143.2831  151.3542 LP  0  0  0  0  0  0  0  0  0  0  0  0  # atno 17343 bound_to 10162
  156.7014  130.4624  149.5572 LP  0  0  0  0  0  0  0  0  0  0  0  0  # atno 17370 bound_to 10713
  156.1792  130.6488  151.0931 LP  0  0  0  0  0  0  0  0  0  0  0  0  # atno 17371 bound_to 10713
  140.7083  133.9246  155.8068 LP  0  0  0  0  0  0  0  0  0  0  0  0  # atno 17394 bound_to 11000
  141.0320  134.0743  157.4003 LP  0  0  0  0  0  0  0  0  0  0  0  0  # atno 17395 bound_to 11000

$$$$
