AV-unprocessed.smi:723|AV-procd|sdf|3506|dock2
  -GOLD-   22720 0503D 1   1.00000     0.00000
 Structure written by MMmdl.
 42 44  0  0  0  0  0  0  0  0  1 V2000
  152.3214  142.5485  159.0356 C   0  0  0  0  0  0  0  0  0  0  0  0
  151.5121  142.7818  157.8961 O   0  0  0  0  0  0  0  0  0  0  0  0
  151.0523  141.5788  157.3039 C   0  0  0  0  0  0  0  0  0  0  0  0
  150.3027  141.9129  156.0079 C   0  0  0  0  0  0  0  0  0  0  0  0
  150.0259  140.7231  155.2266 N   0  0  0  0  0  0  0  0  0  0  0  0
  148.8031  140.2582  154.7840 C   0  0  0  0  0  0  0  0  0  0  0  0
  149.0719  139.1062  154.1002 C   0  0  0  0  0  0  0  0  0  0  0  0
  148.1810  138.2220  153.4410 N   0  0  0  0  0  0  0  0  0  0  0  0
  146.8411  138.1965  153.5302 C   0  0  0  0  0  0  0  0  0  0  0  0
  146.1628  138.9633  154.2144 O   0  0  0  0  0  0  0  0  0  0  0  0
  146.3253  137.2193  152.7732 N   0  0  0  0  0  0  0  0  0  0  0  0
  144.9356  136.9144  152.6392 C   0  0  2  0  0  0  0  0  0  0  0  0
  144.4479  135.5194  152.9898 C   0  0  2  0  0  0  0  0  0  0  0  0
  145.3618  134.3584  153.3527 C   0  0  0  0  0  0  0  0  0  0  0  0
  145.2252  133.2060  152.3381 C   0  0  0  0  0  0  0  0  0  0  0  0
  145.2541  133.6544  150.8540 C   0  0  0  0  0  0  0  0  0  0  0  0
  145.4420  135.1711  150.6550 C   0  0  0  0  0  0  0  0  0  0  0  0
  144.4925  135.9567  151.5468 C   0  0  2  0  0  0  0  0  0  0  0  0
  150.4787  138.9333  154.1704 C   0  0  0  0  0  0  0  0  0  0  0  0
  151.0488  139.9155  154.8516 N   0  0  0  0  0  0  0  0  0  0  0  0
  152.6424  143.5001  159.4589 H   0  0  0  0  0  0  0  0  0  0  0  0
  153.2137  141.9773  158.7754 H   0  0  0  0  0  0  0  0  0  0  0  0
  151.7709  142.0067  159.8060 H   0  0  0  0  0  0  0  0  0  0  0  0
  151.8969  140.9207  157.0925 H   0  0  0  0  0  0  0  0  0  0  0  0
  150.3894  141.0542  157.9941 H   0  0  0  0  0  0  0  0  0  0  0  0
  149.3568  142.4061  156.2360 H   0  0  0  0  0  0  0  0  0  0  0  0
  150.8836  142.6068  155.3983 H   0  0  0  0  0  0  0  0  0  0  0  0
  147.8806  140.7785  154.9953 H   0  0  0  0  0  0  0  0  0  0  0  0
  148.6097  137.5360  152.8372 H   0  0  0  0  0  0  0  0  0  0  0  0
  146.9645  136.6419  152.2471 H   0  0  0  0  0  0  0  0  0  0  0  0
  144.2384  137.7223  152.8573 H   0  0  0  0  0  0  0  0  0  0  0  0
  143.4500  135.4430  153.4177 H   0  0  0  0  0  0  0  0  0  0  0  0
  146.3986  134.6926  153.3755 H   0  0  0  0  0  0  0  0  0  0  0  0
  145.1284  134.0157  154.3611 H   0  0  0  0  0  0  0  0  0  0  0  0
  146.0110  132.4716  152.5180 H   0  0  0  0  0  0  0  0  0  0  0  0
  144.2862  132.6840  152.5253 H   0  0  0  0  0  0  0  0  0  0  0  0
  146.0377  133.1170  150.3191 H   0  0  0  0  0  0  0  0  0  0  0  0
  144.3169  133.3552  150.3830 H   0  0  0  0  0  0  0  0  0  0  0  0
  146.4745  135.4373  150.8801 H   0  0  0  0  0  0  0  0  0  0  0  0
  145.2728  135.4481  149.6141 H   0  0  0  0  0  0  0  0  0  0  0  0
  143.5209  136.1457  151.0938 H   0  0  0  0  0  0  0  0  0  0  0  0
  151.0926  138.1459  153.7583 H   0  0  0  0  0  0  0  0  0  0  0  0
  1  2  1  0  0  0  0
  1 21  1  0  0  0  0
  1 22  1  0  0  0  0
  1 23  1  0  0  0  0
  2  3  1  0  0  0  0
  3  4  1  0  0  0  0
  3 24  1  0  0  0  0
  3 25  1  0  0  0  0
  4  5  1  0  0  0  0
  4 26  1  0  0  0  0
  4 27  1  0  0  0  0
  5 20  1  0  0  0  0
  5  6  1  0  0  0  0
  6  7  2  0  0  0  0
  6 28  1  0  0  0  0
  7  8  1  0  0  0  0
  7 19  1  0  0  0  0
  8  9  1  0  0  0  0
  8 29  1  0  0  0  0
  9 10  2  0  0  0  0
  9 11  1  0  0  0  0
 11 12  1  0  0  0  0
 11 30  1  0  0  0  0
 12 18  1  0  0  0  0
 12 13  1  0  0  0  0
 12 31  1  0  0  0  0
 13 18  1  0  0  0  0
 13 14  1  0  0  0  0
 13 32  1  0  0  0  0
 14 15  1  0  0  0  0
 14 33  1  0  0  0  0
 14 34  1  0  0  0  0
 15 16  1  0  0  0  0
 15 35  1  0  0  0  0
 15 36  1  0  0  0  0
 16 17  1  0  0  0  0
 16 37  1  0  0  0  0
 16 38  1  0  0  0  0
 17 18  1  0  0  0  0
 17 39  1  0  0  0  0
 17 40  1  0  0  0  0
 18 41  1  0  0  0  0
 19 20  2  0  0  0  0
 19 42  1  0  0  0  0
M  END
> <s_m_source_file>
AV-unprocessed.smi

> <i_m_source_file_index>
723

> <i_lp_mmshare_version>
43012

> <i_f3d_flags>
0

> <s_epik_input>
W0NIM11PW0NIMl1bQ0gyXW4xW2NIXWMoW2NIXW4xKVtOSF1DKD1PKVtOSF1bQ0BIXTJbQ0BASF0oW0NAQEhdMjMpW0NIMl1bQ0gyXVtDSDJdW0NIMl0z

> <s_epik_cmdline>
J2VwaWtfcHl0aG9uJywgJy1waCcsICc3LjAnLCAnLXRuJywgJzgnLCAnLW1hJywgJzIwMCcsICctbWV0YWxfYmluZGluZycsICctaW1hZScsICc8aW5maWxlLm1hZT4nLCAnLW9tYWUnLCAnPG91dGZpbGUubWFlPic=

> <r_lp_tautomer_probability>
1

> <r_epik_Ionization_Penalty>
0.00031755

> <r_epik_Ionization_Penalty_Charging>
0

> <r_epik_Ionization_Penalty_Neutral>
0.00031755

> <r_epik_State_Penalty>
-0

> <r_epik_Charging_Adjusted_Penalty>
0

> <i_epik_Tot_Q>
0

> <i_epik_Tot_abs_Q>
0

> <r_epik_Metal_State_Penalty>
-0

> <b_epik_Metal_Only>
0

> <s_lp_Force_Field>
OPLS_2005

> <r_lp_Energy>
44.2387

> <b_lp_Chiralities_Consistent>
1

> <s_lp_Variant>
AV-unprocessed.smi:723-2

> <Gold.Version>
5.8.1

> <Gold.Id.Protein>
6NUR|6NUR_protein|mol2

> <Gold.PLP.Fitness>
40.6236

> <Gold.PLP.PLP>
-32.1152

> <Gold.PLP.part.hbond>
-3.1318

> <Gold.PLP.part.metal>
0.0000

> <Gold.PLP.part.buried>
-3.8016

> <Gold.PLP.part.nonpolar>
-25.1679

> <Gold.PLP.part.repulsive>
0.2675

> <Gold.PLP.ligand.clash>
0.0000

> <Gold.PLP.ligand.torsion>
0.1485

> <Gold.PLP.Chemscore.Hbond>
2.9120

> <Gold.PLP.Chemscore.CHOScore>
0.0000

> <Gold.PLP.Chemscore.Metal>
0.0000

> <Gold.Chemscore.Hbonds>
donor molecule, donor type, donor heavy atom, donor atom, acceptor molecule, acceptor atom, score
      L1  H     8    29       P1  7948  1.00
      L1  H    11    30       P1  7948  0.86
      P1  H  7989  7998       L1    20  0.86

> <Gold.PLP.Chemscore.Internal.Correction>
0.0693

> <Gold.Rescore>
     Score         DG    S(hbond)    S(metal)    S(lipo)     H(rot)  DE(clash)    DE(int)     intcor
     15.52     -16.93       1.91        0.00      77.48       1.56       0.16       1.25       ----

> <Gold.Chemscore.Fitness>
15.5240

> <Gold.Chemscore.DG>
-16.9286

> <Gold.Chemscore.ZeroCoef>
-5.4800

> <Gold.Chemscore.Hbond>
1.9115

> <Gold.Chemscore.Metal>
0.0000

> <Gold.Chemscore.Lipo>
77.4756

> <Gold.Chemscore.Internal_Hbond>
0.0000

> <Gold.Chemscore.DEClash>
0.1554

> <Gold.Chemscore.DEInternal>
1.2492

> <Gold.Chemscore.Rot>
1.5627

> <Gold.Chemscore.Internal.Correction>
   9.000000E+99

> <Gold.Chemscore.Hbonds>
donor molecule, donor type, donor heavy atom, donor atom, acceptor molecule, acceptor atom, score
      L1  H     8    29       P1  7948  1.00
      L1  H    11    30       P1  7948  0.81
      P1  H  7989  7998       L1    20  0.04

> <Gold.Chemscore.Hbond.Weighted>
-6.3844

> <Gold.Chemscore.Metal.Weighted>
-0.0000

> <Gold.Chemscore.Lipo.Weighted>
-9.0647

> <Gold.Chemscore.Internal_Hbond.Weighted>
0.0000

> <Gold.Chemscore.DEClash.Weighted>
0.1554

> <Gold.Chemscore.DEInternal.Weighted>
1.2492

> <Gold.Chemscore.Rot.Weighted>
4.0005

> <Gold.Chemscore.Internal.Correction.Weighted>
   9.000000E+99

> <Gold.Protein.RotatedTorsions>
[ 6907 6896 6895 6894 ] final  -17.63 input  -60.11 | X-H torsion
[ 7974 7965 7964 7962 ] final   16.44 input  175.53 | X-H torsion
[ 8008 7997 7996 7995 ] final   58.68 input   59.86 | X-H torsion
[ 10167 10162 10161 10158 ] final -166.06 input  -65.29 | X-H torsion
[ 10718 10713 10712 10709 ] final  136.82 input   66.30 | X-H torsion
[ 10763 10752 10751 10750 ] final  105.12 input  -60.55 | X-H torsion
[ 11005 11000 10999 10996 ] final  -76.41 input  -57.11 | X-H torsion

> <Gold.Protein.ActiveResidues>
 VAL166  LYS551  ARG553  GLY616  TRP617  ASP618  TYR619  PRO620  LYS621  CYS622 
 ASP623  PHE694  ASN695  SER759  ASP760  ASP761  ALA762  ILE779  LEU786  VAL792 
 PHE793  MET794  SER795  GLU796  ALA797  LYS798  CYS799  TRP800  GLU811  SER814 

> <Gold.Protein.RotatedAtoms>
  151.2905  135.0740  159.9202 H   0  0  0  0  0  0  0  0  0  0  0  0  # atno 6907 bound_to 6896
  152.5317  133.9937  159.7873 H   0  0  0  0  0  0  0  0  0  0  0  0  # atno 6908 bound_to 6896
  151.0206  133.5829  159.2702 H   0  0  0  0  0  0  0  0  0  0  0  0  # atno 6909 bound_to 6896
  146.2249  139.8748  142.8581 H   0  0  0  0  0  0  0  0  0  0  0  0  # atno 7974 bound_to 7965
  155.5539  140.3487  155.4475 H   0  0  0  0  0  0  0  0  0  0  0  0  # atno 8008 bound_to 7997
  156.0563  140.1329  157.0018 H   0  0  0  0  0  0  0  0  0  0  0  0  # atno 8009 bound_to 7997
  154.4458  140.0994  156.6436 H   0  0  0  0  0  0  0  0  0  0  0  0  # atno 8010 bound_to 7997
  139.6140  144.0757  152.1870 H   0  0  0  0  0  0  0  0  0  0  0  0  # atno 10167 bound_to 10162
  157.4426  131.1059  151.0125 H   0  0  0  0  0  0  0  0  0  0  0  0  # atno 10718 bound_to 10713
  153.3750  135.3920  155.1816 H   0  0  0  0  0  0  0  0  0  0  0  0  # atno 10763 bound_to 10752
  154.8700  135.3712  154.4929 H   0  0  0  0  0  0  0  0  0  0  0  0  # atno 10764 bound_to 10752
  153.5400  135.7084  153.5702 H   0  0  0  0  0  0  0  0  0  0  0  0  # atno 10765 bound_to 10752
  141.1653  133.6983  156.7665 H   0  0  0  0  0  0  0  0  0  0  0  0  # atno 11005 bound_to 11000
  145.2572  141.0064  143.3847 LP  0  0  0  0  0  0  0  0  0  0  0  0  # atno 17320 bound_to 7965
  144.9327  139.4279  143.6487 LP  0  0  0  0  0  0  0  0  0  0  0  0  # atno 17321 bound_to 7965
  140.0383  144.6027  150.7432 LP  0  0  0  0  0  0  0  0  0  0  0  0  # atno 17342 bound_to 10162
  140.7338  143.2722  151.3854 LP  0  0  0  0  0  0  0  0  0  0  0  0  # atno 17343 bound_to 10162
  157.0983  130.5971  149.5454 LP  0  0  0  0  0  0  0  0  0  0  0  0  # atno 17370 bound_to 10713
  155.9955  130.5021  150.7460 LP  0  0  0  0  0  0  0  0  0  0  0  0  # atno 17371 bound_to 10713
  140.2495  134.8551  157.3654 LP  0  0  0  0  0  0  0  0  0  0  0  0  # atno 17394 bound_to 11000
  140.1716  134.4601  155.7828 LP  0  0  0  0  0  0  0  0  0  0  0  0  # atno 17395 bound_to 11000

$$$$
