AV-unprocessed.smi:65|AV-procd|sdf|613|dock9
  -GOLD-   2262016503D 1   1.00000     0.00000
 Structure written by MMmdl.
 25 26  0  0  0  0  0  0  0  0  1 V2000
  149.3488  142.3046  154.7355 N   0  0  0  0  0  0  0  0  0  0  0  0
  150.2368  141.6554  155.5579 C   0  0  0  0  0  0  0  0  0  0  0  0
  150.6046  140.4279  155.1888 N   0  0  0  0  0  0  0  0  0  0  0  0
  151.4760  139.7904  155.9993 C   0  0  0  0  0  0  0  0  0  0  0  0
  151.9748  140.3890  157.1741 C   0  0  0  0  0  0  0  0  0  0  0  0
  151.5199  141.6973  157.4658 C   0  0  0  0  0  0  0  0  0  0  0  0
  151.9483  142.3857  158.6171 N   0  0  0  0  0  0  0  0  0  0  0  0
  151.8719  143.8383  158.7067 C   0  0  0  0  0  0  0  0  0  0  0  0
  151.7236  144.1533  160.2004 C   0  0  0  0  0  0  0  0  0  0  0  0
  152.2728  142.9037  160.8901 C   0  0  1  0  0  0  0  0  0  0  0  0
  151.7467  142.7257  162.1880 O   0  0  0  0  0  0  0  0  0  0  0  0
  151.8609  141.7824  159.9378 C   0  0  0  0  0  0  0  0  0  0  0  0
  150.6405  142.3191  156.6428 N   0  0  0  0  0  0  0  0  0  0  0  0
  149.0315  143.2363  154.9605 H   0  0  0  0  0  0  0  0  0  0  0  0
  148.9878  141.8469  153.9112 H   0  0  0  0  0  0  0  0  0  0  0  0
  151.7766  138.7943  155.7105 H   0  0  0  0  0  0  0  0  0  0  0  0
  152.6646  139.8571  157.8121 H   0  0  0  0  0  0  0  0  0  0  0  0
  152.7945  144.2640  158.3111 H   0  0  0  0  0  0  0  0  0  0  0  0
  151.0344  144.2451  158.1390 H   0  0  0  0  0  0  0  0  0  0  0  0
  152.2395  145.0673  160.4960 H   0  0  0  0  0  0  0  0  0  0  0  0
  150.6653  144.2744  160.4374 H   0  0  0  0  0  0  0  0  0  0  0  0
  153.3611  142.9624  160.9427 H   0  0  0  0  0  0  0  0  0  0  0  0
  151.6654  143.5735  162.5976 H   0  0  0  0  0  0  0  0  0  0  0  0
  150.8317  141.4703  160.1220 H   0  0  0  0  0  0  0  0  0  0  0  0
  152.5102  140.9112  160.0314 H   0  0  0  0  0  0  0  0  0  0  0  0
  1  2  1  0  0  0  0
  1 14  1  0  0  0  0
  1 15  1  0  0  0  0
  2 13  1  0  0  0  0
  2  3  2  0  0  0  0
  3  4  1  0  0  0  0
  4  5  2  0  0  0  0
  4 16  1  0  0  0  0
  5  6  1  0  0  0  0
  5 17  1  0  0  0  0
  6  7  1  0  0  0  0
  6 13  2  0  0  0  0
  7 12  1  0  0  0  0
  7  8  1  0  0  0  0
  8  9  1  0  0  0  0
  8 18  1  0  0  0  0
  8 19  1  0  0  0  0
  9 10  1  0  0  0  0
  9 20  1  0  0  0  0
  9 21  1  0  0  0  0
 10 11  1  0  0  0  0
 10 12  1  0  0  0  0
 10 22  1  0  0  0  0
 11 23  1  0  0  0  0
 12 24  1  0  0  0  0
 12 25  1  0  0  0  0
M  END
> <s_m_source_file>
AV-unprocessed.smi

> <i_m_source_file_index>
65

> <i_lp_mmshare_version>
43012

> <i_f3d_flags>
0

> <s_epik_input>
W05IMl1jMW5bY0hdW2NIXWMobjEpTjJbQ0gyXVtDSDJdW0NAQEhdKFtPSF0pW0NIMl0y

> <s_epik_cmdline>
J2VwaWtfcHl0aG9uJywgJy1waCcsICc3LjAnLCAnLXRuJywgJzgnLCAnLW1hJywgJzIwMCcsICctbWV0YWxfYmluZGluZycsICctaW1hZScsICc8aW5maWxlLm1hZT4nLCAnLW9tYWUnLCAnPG91dGZpbGUubWFlPic=

> <r_lp_tautomer_probability>
1

> <r_epik_Ionization_Penalty>
0.99295

> <r_epik_Ionization_Penalty_Charging>
0

> <r_epik_Ionization_Penalty_Neutral>
0.99295

> <r_epik_State_Penalty>
0.750885

> <r_epik_Charging_Adjusted_Penalty>
0.750885

> <i_epik_Tot_Q>
0

> <i_epik_Tot_abs_Q>
0

> <r_epik_Metal_State_Penalty>
0.338511

> <b_epik_Metal_Only>
0

> <s_lp_Force_Field>
OPLS_2005

> <r_lp_Energy>
17.7727

> <b_lp_Chiralities_Consistent>
1

> <s_lp_Variant>
AV-unprocessed.smi:65-3

> <Gold.Version>
5.8.1

> <Gold.Id.Protein>
6NUR|6NUR_protein|mol2

> <Gold.PLP.Fitness>
35.9997

> <Gold.PLP.PLP>
-28.2629

> <Gold.PLP.part.hbond>
-4.0000

> <Gold.PLP.part.metal>
0.0000

> <Gold.PLP.part.buried>
-5.5468

> <Gold.PLP.part.nonpolar>
-20.6733

> <Gold.PLP.part.repulsive>
0.7142

> <Gold.PLP.ligand.clash>
0.0000

> <Gold.PLP.ligand.torsion>
0.5688

> <Gold.PLP.Chemscore.Hbond>
2.8882

> <Gold.PLP.Chemscore.CHOScore>
0.0000

> <Gold.PLP.Chemscore.Metal>
0.0000

> <Gold.Chemscore.Hbonds>
donor molecule, donor type, donor heavy atom, donor atom, acceptor molecule, acceptor atom, score
      L1  H     1    14       P1  8028  1.00
      P1  H  6933  6945       L1    11  0.94
      P1  H  7989  7998       L1     3  0.95

> <Gold.PLP.Chemscore.Internal.Correction>
0.2099

> <Gold.Rescore>
     Score         DG    S(hbond)    S(metal)    S(lipo)     H(rot)  DE(clash)    DE(int)     intcor
     13.81     -14.74       1.64        0.00      54.22       1.00       0.37       0.56       ----

> <Gold.Chemscore.Fitness>
13.8070

> <Gold.Chemscore.DG>
-14.7433

> <Gold.Chemscore.ZeroCoef>
-5.4800

> <Gold.Chemscore.Hbond>
1.6407

> <Gold.Chemscore.Metal>
0.0000

> <Gold.Chemscore.Lipo>
54.2178

> <Gold.Chemscore.Internal_Hbond>
0.0000

> <Gold.Chemscore.DEClash>
0.3718

> <Gold.Chemscore.DEInternal>
0.5645

> <Gold.Chemscore.Rot>
1.0000

> <Gold.Chemscore.Internal.Correction>
   9.000000E+99

> <Gold.Chemscore.Hbonds>
donor molecule, donor type, donor heavy atom, donor atom, acceptor molecule, acceptor atom, score
      L1  H     1    14       P1  8028  0.99
      P1  H  6933  6945       L1    11  0.61
      P1  H  7989  7998       L1     3  0.11

> <Gold.Chemscore.Hbond.Weighted>
-5.4798

> <Gold.Chemscore.Metal.Weighted>
-0.0000

> <Gold.Chemscore.Lipo.Weighted>
-6.3435

> <Gold.Chemscore.Internal_Hbond.Weighted>
0.0000

> <Gold.Chemscore.DEClash.Weighted>
0.3718

> <Gold.Chemscore.DEInternal.Weighted>
0.5645

> <Gold.Chemscore.Rot.Weighted>
2.5600

> <Gold.Chemscore.Internal.Correction.Weighted>
   9.000000E+99

> <Gold.Protein.RotatedTorsions>
[ 6907 6896 6895 6894 ] final -111.90 input  -60.11 | X-H torsion
[ 7974 7965 7964 7962 ] final   59.02 input  175.53 | X-H torsion
[ 8008 7997 7996 7995 ] final  -52.48 input   59.86 | X-H torsion
[ 10167 10162 10161 10158 ] final  -92.55 input  -65.29 | X-H torsion
[ 10718 10713 10712 10709 ] final   69.89 input   66.30 | X-H torsion
[ 10763 10752 10751 10750 ] final  -63.77 input  -60.55 | X-H torsion
[ 11005 11000 10999 10996 ] final  -16.70 input  -57.11 | X-H torsion

> <Gold.Protein.ActiveResidues>
 VAL166  LYS551  ARG553  GLY616  TRP617  ASP618  TYR619  PRO620  LYS621  CYS622 
 ASP623  PHE694  ASN695  SER759  ASP760  ASP761  ALA762  ILE779  LEU786  VAL792 
 PHE793  MET794  SER795  GLU796  ALA797  LYS798  CYS799  TRP800  GLU811  SER814 

> <Gold.Protein.RotatedAtoms>
  150.7721  133.9168  159.3385 H   0  0  0  0  0  0  0  0  0  0  0  0  # atno 6907 bound_to 6896
  151.7052  135.0921  160.0267 H   0  0  0  0  0  0  0  0  0  0  0  0  # atno 6908 bound_to 6896
  152.3743  133.6422  159.6147 H   0  0  0  0  0  0  0  0  0  0  0  0  # atno 6909 bound_to 6896
  145.9117  139.3659  143.0531 H   0  0  0  0  0  0  0  0  0  0  0  0  # atno 7974 bound_to 7965
  154.4108  140.1223  156.4998 H   0  0  0  0  0  0  0  0  0  0  0  0  # atno 8008 bound_to 7997
  155.6906  140.3495  155.4872 H   0  0  0  0  0  0  0  0  0  0  0  0  # atno 8009 bound_to 7997
  155.9472  140.1098  157.0997 H   0  0  0  0  0  0  0  0  0  0  0  0  # atno 8010 bound_to 7997
  140.3336  143.2981  151.9914 H   0  0  0  0  0  0  0  0  0  0  0  0  # atno 10167 bound_to 10162
  157.6370  130.9449  150.0575 H   0  0  0  0  0  0  0  0  0  0  0  0  # atno 10718 bound_to 10713
  154.3200  135.6198  153.5504 H   0  0  0  0  0  0  0  0  0  0  0  0  # atno 10763 bound_to 10752
  152.9821  135.5722  154.5080 H   0  0  0  0  0  0  0  0  0  0  0  0  # atno 10764 bound_to 10752
  154.4746  135.2860  155.1593 H   0  0  0  0  0  0  0  0  0  0  0  0  # atno 10765 bound_to 10752
  140.8094  133.8152  155.9548 H   0  0  0  0  0  0  0  0  0  0  0  0  # atno 11005 bound_to 11000
  145.8663  140.9446  143.0674 LP  0  0  0  0  0  0  0  0  0  0  0  0  # atno 17320 bound_to 7965
  144.6744  140.0596  143.7476 LP  0  0  0  0  0  0  0  0  0  0  0  0  # atno 17321 bound_to 7965
  139.4852  144.6214  151.7247 LP  0  0  0  0  0  0  0  0  0  0  0  0  # atno 17342 bound_to 10162
  140.5374  144.0634  150.6075 LP  0  0  0  0  0  0  0  0  0  0  0  0  # atno 17343 bound_to 10162
  156.1618  130.3644  149.9288 LP  0  0  0  0  0  0  0  0  0  0  0  0  # atno 17370 bound_to 10713
  156.7285  130.9034  151.3624 LP  0  0  0  0  0  0  0  0  0  0  0  0  # atno 17371 bound_to 10713
  140.9213  134.2138  157.4924 LP  0  0  0  0  0  0  0  0  0  0  0  0  # atno 17394 bound_to 11000
  139.8715  134.9793  156.5032 LP  0  0  0  0  0  0  0  0  0  0  0  0  # atno 17395 bound_to 11000

$$$$
