AV-unprocessed.smi:155|AV-procd|sdf|1267|dock8
  -GOLD-   2262018523D 1   1.00000     0.00000
 Structure written by MMmdl.
 63 66  0  0  0  0  0  0  0  0  2 V2000
  148.4432  136.0812  162.2664 C   0  0  0  0  0  0  0  0  0  0  0  0
  147.6461  135.2484  161.3724 N   0  0  0  0  0  0  0  0  0  0  0  0
  147.3645  133.9906  162.0518 C   0  0  0  0  0  0  0  0  0  0  0  0
  148.3473  134.9687  160.1194 C   0  0  0  0  0  0  0  0  0  0  0  0
  148.1427  136.0502  159.0291 C   0  0  0  0  0  0  0  0  0  0  0  0
  149.0339  135.9311  157.8438 N   0  3  2  0  0  0  0  0  0  0  0  0
  148.6098  134.8962  156.8602 C   0  0  0  0  0  0  0  0  0  0  0  0
  149.5345  134.7813  155.6298 C   0  0  0  0  0  0  0  0  0  0  0  0
  149.8998  136.1252  154.9687 C   0  0  0  0  0  0  0  0  0  0  0  0
  150.5647  137.0523  155.8883 N   0  0  0  0  0  0  0  0  0  0  0  0
  150.4204  138.3901  155.6997 C   0  0  0  0  0  0  0  0  0  0  0  0
  149.7739  138.8153  154.5824 N   0  0  0  0  0  0  0  0  0  0  0  0
  149.6129  140.1203  154.3459 C   0  0  0  0  0  0  0  0  0  0  0  0
  150.0085  141.1563  155.0868 N   0  0  0  0  0  0  0  0  0  0  0  0
  150.6455  140.7392  156.2175 C   0  0  0  0  0  0  0  0  0  0  0  0
  150.8911  139.3898  156.6021 C   0  0  0  0  0  0  0  0  0  0  0  0
  151.5445  139.3675  157.8302 N   0  0  0  0  0  0  0  0  0  0  0  0
  151.6959  140.6262  158.1398 C   0  0  0  0  0  0  0  0  0  0  0  0
  151.1863  141.5172  157.2245 N   0  0  0  0  0  0  0  0  0  0  0  0
  151.2144  142.9675  157.3069 C   0  0  0  0  0  0  0  0  0  0  0  0
  150.6555  143.4907  158.6501 C   0  0  2  0  0  0  0  0  0  0  0  0
  149.7089  144.4996  158.3498 O   0  0  0  0  0  0  0  0  0  0  0  0
  151.7170  144.1258  159.5775 C   0  0  2  0  0  0  0  0  0  0  0  0
  153.0977  143.4427  159.5634 C   0  0  0  0  0  0  0  0  0  0  0  0
  153.0571  142.5257  160.7644 C   0  0  0  0  0  0  0  0  0  0  0  0
  152.2441  143.3605  161.7381 C   0  0  0  0  0  0  0  0  0  0  0  0
  151.2508  143.9651  160.9217 O   0  0  0  0  0  0  0  0  0  0  0  0
  151.3520  136.5406  157.0124 C   0  0  0  0  0  0  0  0  0  0  0  0
  150.4891  135.9523  158.1575 C   0  0  0  0  0  0  0  0  0  0  0  0
  148.6190  137.0695  161.8442 H   0  0  0  0  0  0  0  0  0  0  0  0
  149.4095  135.6231  162.4825 H   0  0  0  0  0  0  0  0  0  0  0  0
  147.9211  136.2290  163.2128 H   0  0  0  0  0  0  0  0  0  0  0  0
  146.7426  133.3469  161.4290 H   0  0  0  0  0  0  0  0  0  0  0  0
  146.8226  134.1697  162.9814 H   0  0  0  0  0  0  0  0  0  0  0  0
  148.2828  133.4516  162.2906 H   0  0  0  0  0  0  0  0  0  0  0  0
  149.4128  134.8734  160.3345 H   0  0  0  0  0  0  0  0  0  0  0  0
  148.0388  133.9968  159.7334 H   0  0  0  0  0  0  0  0  0  0  0  0
  147.1053  136.1202  158.7048 H   0  0  0  0  0  0  0  0  0  0  0  0
  148.3580  137.0197  159.4800 H   0  0  0  0  0  0  0  0  0  0  0  0
  148.5621  133.9189  157.3375 H   0  0  0  0  0  0  0  0  0  0  0  0
  147.5976  135.1340  156.5309 H   0  0  0  0  0  0  0  0  0  0  0  0
  150.4432  134.2441  155.9023 H   0  0  0  0  0  0  0  0  0  0  0  0
  149.0478  134.1473  154.8880 H   0  0  0  0  0  0  0  0  0  0  0  0
  150.5536  135.9512  154.1134 H   0  0  0  0  0  0  0  0  0  0  0  0
  148.9876  136.5813  154.5808 H   0  0  0  0  0  0  0  0  0  0  0  0
  149.0939  140.3698  153.4321 H   0  0  0  0  0  0  0  0  0  0  0  0
  152.1890  140.9424  159.0477 H   0  0  0  0  0  0  0  0  0  0  0  0
  152.2476  143.2768  157.1587 H   0  0  0  0  0  0  0  0  0  0  0  0
  150.6434  143.3763  156.4719 H   0  0  0  0  0  0  0  0  0  0  0  0
  150.1476  142.6793  159.1735 H   0  0  0  0  0  0  0  0  0  0  0  0
  149.2271  144.2336  157.5810 H   0  0  0  0  0  0  0  0  0  0  0  0
  151.8331  145.1864  159.3483 H   0  0  0  0  0  0  0  0  0  0  0  0
  153.3444  142.9128  158.6461 H   0  0  0  0  0  0  0  0  0  0  0  0
  153.8730  144.1951  159.7158 H   0  0  0  0  0  0  0  0  0  0  0  0
  152.5274  141.6038  160.5196 H   0  0  0  0  0  0  0  0  0  0  0  0
  154.0464  142.2676  161.1428 H   0  0  0  0  0  0  0  0  0  0  0  0
  151.8005  142.7668  162.5378 H   0  0  0  0  0  0  0  0  0  0  0  0
  152.8618  144.1391  162.1881 H   0  0  0  0  0  0  0  0  0  0  0  0
  152.0126  135.7637  156.6265 H   0  0  0  0  0  0  0  0  0  0  0  0
  152.0257  137.3065  157.3975 H   0  0  0  0  0  0  0  0  0  0  0  0
  150.6502  136.5680  159.0431 H   0  0  0  0  0  0  0  0  0  0  0  0
  150.8321  134.9506  158.4197 H   0  0  0  0  0  0  0  0  0  0  0  0
  148.8888  136.8024  157.3537 H   0  0  0  0  0  0  0  0  0  0  0  0
  1  2  1  0  0  0  0
  1 30  1  0  0  0  0
  1 31  1  0  0  0  0
  1 32  1  0  0  0  0
  2  3  1  0  0  0  0
  2  4  1  0  0  0  0
  3 33  1  0  0  0  0
  3 34  1  0  0  0  0
  3 35  1  0  0  0  0
  4  5  1  0  0  0  0
  4 36  1  0  0  0  0
  4 37  1  0  0  0  0
  5  6  1  0  0  0  0
  5 38  1  0  0  0  0
  5 39  1  0  0  0  0
  6 29  1  0  0  0  0
  6  7  1  0  0  0  0
  6 63  1  0  0  0  0
  7  8  1  0  0  0  0
  7 40  1  0  0  0  0
  7 41  1  0  0  0  0
  8  9  1  0  0  0  0
  8 42  1  0  0  0  0
  8 43  1  0  0  0  0
  9 10  1  0  0  0  0
  9 44  1  0  0  0  0
  9 45  1  0  0  0  0
 10 11  1  0  0  0  0
 10 28  1  0  0  0  0
 11 16  1  0  0  0  0
 11 12  2  0  0  0  0
 12 13  1  0  0  0  0
 13 14  2  0  0  0  0
 13 46  1  0  0  0  0
 14 15  1  0  0  0  0
 15 19  1  0  0  0  0
 15 16  2  0  0  0  0
 16 17  1  0  0  0  0
 17 18  2  0  0  0  0
 18 19  1  0  0  0  0
 18 47  1  0  0  0  0
 19 20  1  0  0  0  0
 20 21  1  0  0  0  0
 20 48  1  0  0  0  0
 20 49  1  0  0  0  0
 21 22  1  0  0  0  0
 21 23  1  0  0  0  0
 21 50  1  0  0  0  0
 22 51  1  0  0  0  0
 23 27  1  0  0  0  0
 23 24  1  0  0  0  0
 23 52  1  0  0  0  0
 24 25  1  0  0  0  0
 24 53  1  0  0  0  0
 24 54  1  0  0  0  0
 25 26  1  0  0  0  0
 25 55  1  0  0  0  0
 25 56  1  0  0  0  0
 26 27  1  0  0  0  0
 26 57  1  0  0  0  0
 26 58  1  0  0  0  0
 28 29  1  0  0  0  0
 28 59  1  0  0  0  0
 28 60  1  0  0  0  0
 29 61  1  0  0  0  0
 29 62  1  0  0  0  0
M  CHG  1   6   1
M  END
> <s_m_source_file>
AV-unprocessed.smi

> <i_m_source_file_index>
155

> <i_lp_mmshare_version>
43012

> <i_f3d_flags>
0

> <s_epik_input>
W0NIM11OKFtDSDNdKVtDSDJdW0NIMl1OMVtDSDJdW0NIMl1bQ0gyXU4oW0NIMl1bQ0gyXTEpYyhuW2NIXW4yKWMoYzIzKW5bY0hdbjNbQ0gyXVtDQEhdKFtPSF0pW0NAQEhdNFtDSDJdW0NIMl1bQ0gyXU80

> <s_epik_cmdline>
J2VwaWtfcHl0aG9uJywgJy1waCcsICc3LjAnLCAnLXRuJywgJzgnLCAnLW1hJywgJzIwMCcsICctbWV0YWxfYmluZGluZycsICctaW1hZScsICc8aW5maWxlLm1hZT4nLCAnLW9tYWUnLCAnPG91dGZpbGUubWFlPic=

> <r_epik_Ionization_Penalty>
0.0619615

> <r_epik_Ionization_Penalty_Charging>
0.0161638

> <r_epik_Ionization_Penalty_Neutral>
0.0457976

> <r_epik_State_Penalty>
0.403408

> <r_epik_Charging_Adjusted_Penalty>
0.419572

> <i_epik_Tot_Q>
1

> <i_epik_Tot_abs_Q>
1

> <r_epik_Metal_State_Penalty>
0.404222

> <b_epik_Metal_Only>
0

> <s_lp_Force_Field>
OPLS_2005

> <r_lp_Energy>
58.592

> <b_lp_Chiralities_Consistent>
1

> <s_lp_Variant>
AV-unprocessed.smi:155-1

> <Gold.Version>
5.8.1

> <Gold.Id.Protein>
6NUR|6NUR_protein|mol2

> <Gold.PLP.Fitness>
47.4953

> <Gold.PLP.PLP>
-45.5143

> <Gold.PLP.part.hbond>
-3.0000

> <Gold.PLP.part.metal>
0.0000

> <Gold.PLP.part.buried>
-2.3746

> <Gold.PLP.part.nonpolar>
-39.1603

> <Gold.PLP.part.repulsive>
0.4457

> <Gold.PLP.ligand.clash>
0.0000

> <Gold.PLP.ligand.torsion>
1.7862

> <Gold.PLP.Chemscore.Hbond>
0.7930

> <Gold.PLP.Chemscore.CHOScore>
1.0000

> <Gold.PLP.Chemscore.Metal>
0.0000

> <Gold.Chemscore.Hbonds>
donor molecule, donor type, donor heavy atom, donor atom, acceptor molecule, acceptor atom, score
      L1  H    22    51       P1  8028  0.46
      L1  C    13    46       P1  7957  1.00

> <Gold.PLP.Chemscore.Internal.Correction>
0.1744

> <Gold.Rescore>
     Score         DG    S(hbond)    S(metal)    S(lipo)     H(rot)  DE(clash)    DE(int)     intcor
      9.14     -13.27       0.55        0.00     108.56       2.63       0.82       3.31       ----

> <Gold.Chemscore.Fitness>
9.1376

> <Gold.Chemscore.DG>
-13.2731

> <Gold.Chemscore.ZeroCoef>
-5.4800

> <Gold.Chemscore.Hbond>
0.5482

> <Gold.Chemscore.Metal>
0.0000

> <Gold.Chemscore.Lipo>
108.5564

> <Gold.Chemscore.Internal_Hbond>
0.0000

> <Gold.Chemscore.DEClash>
0.8214

> <Gold.Chemscore.DEInternal>
3.3141

> <Gold.Chemscore.Rot>
2.6324

> <Gold.Chemscore.Internal.Correction>
   9.000000E+99

> <Gold.Chemscore.Hbonds>
donor molecule, donor type, donor heavy atom, donor atom, acceptor molecule, acceptor atom, score
      L1  H    22    51       P1  8028  0.03

> <Gold.Chemscore.Hbond.Weighted>
-1.8309

> <Gold.Chemscore.Metal.Weighted>
-0.0000

> <Gold.Chemscore.Lipo.Weighted>
-12.7011

> <Gold.Chemscore.Internal_Hbond.Weighted>
0.0000

> <Gold.Chemscore.DEClash.Weighted>
0.8214

> <Gold.Chemscore.DEInternal.Weighted>
3.3141

> <Gold.Chemscore.Rot.Weighted>
6.7389

> <Gold.Chemscore.Internal.Correction.Weighted>
   9.000000E+99

> <Gold.Protein.RotatedTorsions>
[ 6907 6896 6895 6894 ] final -110.39 input  -60.11 | X-H torsion
[ 7974 7965 7964 7962 ] final  -89.83 input  175.53 | X-H torsion
[ 8008 7997 7996 7995 ] final   58.40 input   59.86 | X-H torsion
[ 10167 10162 10161 10158 ] final  152.55 input  -65.29 | X-H torsion
[ 10718 10713 10712 10709 ] final  165.71 input   66.30 | X-H torsion
[ 10763 10752 10751 10750 ] final  -73.73 input  -60.55 | X-H torsion
[ 11005 11000 10999 10996 ] final   -8.50 input  -57.11 | X-H torsion

> <Gold.Protein.ActiveResidues>
 VAL166  LYS551  ARG553  GLY616  TRP617  ASP618  TYR619  PRO620  LYS621  CYS622 
 ASP623  PHE694  ASN695  SER759  ASP760  ASP761  ALA762  ILE779  LEU786  VAL792 
 PHE793  MET794  SER795  GLU796  ALA797  LYS798  CYS799  TRP800  GLU811  SER814 

> <Gold.Protein.RotatedAtoms>
  150.7621  133.9389  159.3449 H   0  0  0  0  0  0  0  0  0  0  0  0  # atno 6907 bound_to 6896
  151.7296  135.0875  160.0307 H   0  0  0  0  0  0  0  0  0  0  0  0  # atno 6908 bound_to 6896
  152.3598  133.6245  159.6042 H   0  0  0  0  0  0  0  0  0  0  0  0  # atno 6909 bound_to 6896
  145.4345  140.9557  143.2109 H   0  0  0  0  0  0  0  0  0  0  0  0  # atno 7974 bound_to 7965
  155.5495  140.3486  155.4465 H   0  0  0  0  0  0  0  0  0  0  0  0  # atno 8008 bound_to 7997
  156.0594  140.1336  156.9985 H   0  0  0  0  0  0  0  0  0  0  0  0  # atno 8009 bound_to 7997
  154.4472  140.0988  156.6478 H   0  0  0  0  0  0  0  0  0  0  0  0  # atno 8010 bound_to 7997
  139.4832  144.5348  151.7663 H   0  0  0  0  0  0  0  0  0  0  0  0  # atno 10167 bound_to 10162
  157.0763  131.0380  151.2592 H   0  0  0  0  0  0  0  0  0  0  0  0  # atno 10718 bound_to 10713
  154.4634  135.5888  153.6271 H   0  0  0  0  0  0  0  0  0  0  0  0  # atno 10763 bound_to 10752
  152.9826  135.6049  154.3457 H   0  0  0  0  0  0  0  0  0  0  0  0  # atno 10764 bound_to 10752
  154.3332  135.2842  155.2440 H   0  0  0  0  0  0  0  0  0  0  0  0  # atno 10765 bound_to 10752
  140.7242  133.8803  155.8843 H   0  0  0  0  0  0  0  0  0  0  0  0  # atno 11005 bound_to 11000
  144.8161  139.5874  143.7008 LP  0  0  0  0  0  0  0  0  0  0  0  0  # atno 17320 bound_to 7965
  146.2589  139.6366  142.9375 LP  0  0  0  0  0  0  0  0  0  0  0  0  # atno 17321 bound_to 7965
  140.4879  144.1354  150.5944 LP  0  0  0  0  0  0  0  0  0  0  0  0  # atno 17342 bound_to 10162
  140.4204  143.2614  151.9722 LP  0  0  0  0  0  0  0  0  0  0  0  0  # atno 17343 bound_to 10162
  157.4837  130.7780  149.7439 LP  0  0  0  0  0  0  0  0  0  0  0  0  # atno 17370 bound_to 10713
  155.9936  130.3923  150.2893 LP  0  0  0  0  0  0  0  0  0  0  0  0  # atno 17371 bound_to 10713
  140.9977  134.1192  157.4347 LP  0  0  0  0  0  0  0  0  0  0  0  0  # atno 17394 bound_to 11000
  139.8841  135.0059  156.6346 LP  0  0  0  0  0  0  0  0  0  0  0  0  # atno 17395 bound_to 11000

$$$$
