AV-unprocessed.smi:1420|AV-procd|sdf|5788|dock2
  -GOLD-   22720 5433D 1   1.00000     0.00000
 Structure written by MMmdl.
 39 40  0  0  0  0  0  0  0  0  2 V2000
  146.7768  139.1090  151.3636 C   0  0  0  0  0  0  0  0  0  0  0  0
  146.7334  138.9343  152.8993 C   0  0  2  0  0  0  0  0  0  0  0  0
  145.8986  137.6764  153.2736 C   0  0  0  0  0  0  0  0  0  0  0  0
  146.3620  136.4610  152.6106 N   0  0  0  0  0  0  0  0  0  0  0  0
  145.5918  135.4032  152.3107 C   0  0  0  0  0  0  0  0  0  0  0  0
  144.3917  135.3430  152.5764 O   0  0  0  0  0  0  0  0  0  0  0  0
  146.2818  134.2309  151.6114 C   0  0  0  0  0  0  0  0  0  0  0  0
  145.3118  133.3030  151.0575 N   0  0  0  0  0  0  0  0  0  0  0  0
  144.4798  133.4804  149.9713 C   0  0  0  0  0  0  0  0  0  0  0  0
  143.7514  132.3347  149.8262 C   0  0  0  0  0  0  0  0  0  0  0  0
  144.2139  131.5032  150.8845 C   0  0  0  0  0  0  0  0  0  0  0  0
  145.1486  132.0846  151.6191 N   0  0  0  0  0  0  0  0  0  0  0  0
  146.2484  140.1959  153.5507 N   0  3  0  0  0  0  0  0  0  0  0  0
  145.9872  140.1053  155.0142 C   0  0  0  0  0  0  0  0  0  0  0  0
  145.4725  141.4437  155.5727 C   0  0  0  0  0  0  0  0  0  0  0  0
  146.4003  142.4786  155.2850 O   0  0  0  0  0  0  0  0  0  0  0  0
  146.5681  142.6501  153.8860 C   0  0  0  0  0  0  0  0  0  0  0  0
  147.1374  141.3587  153.2772 C   0  0  0  0  0  0  0  0  0  0  0  0
  147.1524  138.2162  150.8638 H   0  0  0  0  0  0  0  0  0  0  0  0
  147.4326  139.9192  151.0505 H   0  0  0  0  0  0  0  0  0  0  0  0
  145.7831  139.3142  150.9642 H   0  0  0  0  0  0  0  0  0  0  0  0
  147.7514  138.7601  153.2515 H   0  0  0  0  0  0  0  0  0  0  0  0
  145.9230  137.4850  154.3471 H   0  0  0  0  0  0  0  0  0  0  0  0
  144.8526  137.8264  153.0040 H   0  0  0  0  0  0  0  0  0  0  0  0
  147.3372  136.4239  152.3487 H   0  0  0  0  0  0  0  0  0  0  0  0
  146.9317  134.6006  150.8164 H   0  0  0  0  0  0  0  0  0  0  0  0
  146.9149  133.6934  152.3190 H   0  0  0  0  0  0  0  0  0  0  0  0
  144.4772  134.3965  149.3986 H   0  0  0  0  0  0  0  0  0  0  0  0
  143.0020  132.1227  149.0781 H   0  0  0  0  0  0  0  0  0  0  0  0
  143.9011  130.5011  151.1385 H   0  0  0  0  0  0  0  0  0  0  0  0
  145.2274  139.3544  155.2276 H   0  0  0  0  0  0  0  0  0  0  0  0
  146.9005  139.8081  155.5322 H   0  0  0  0  0  0  0  0  0  0  0  0
  144.4943  141.6889  155.1557 H   0  0  0  0  0  0  0  0  0  0  0  0
  145.3469  141.3746  156.6535 H   0  0  0  0  0  0  0  0  0  0  0  0
  145.6193  142.9189  153.4185 H   0  0  0  0  0  0  0  0  0  0  0  0
  147.2539  143.4797  153.7134 H   0  0  0  0  0  0  0  0  0  0  0  0
  148.1288  141.1646  153.6901 H   0  0  0  0  0  0  0  0  0  0  0  0
  147.2667  141.5138  152.2079 H   0  0  0  0  0  0  0  0  0  0  0  0
  145.3552  140.4043  153.1276 H   0  0  0  0  0  0  0  0  0  0  0  0
  1  2  1  0  0  0  0
  1 19  1  0  0  0  0
  1 20  1  0  0  0  0
  1 21  1  0  0  0  0
  2  3  1  0  0  0  0
  2 13  1  0  0  0  0
  2 22  1  0  0  0  0
  3  4  1  0  0  0  0
  3 23  1  0  0  0  0
  3 24  1  0  0  0  0
  4  5  1  0  0  0  0
  4 25  1  0  0  0  0
  5  6  2  0  0  0  0
  5  7  1  0  0  0  0
  7  8  1  0  0  0  0
  7 26  1  0  0  0  0
  7 27  1  0  0  0  0
  8 12  1  0  0  0  0
  8  9  1  0  0  0  0
  9 10  2  0  0  0  0
  9 28  1  0  0  0  0
 10 11  1  0  0  0  0
 10 29  1  0  0  0  0
 11 12  2  0  0  0  0
 11 30  1  0  0  0  0
 13 18  1  0  0  0  0
 13 14  1  0  0  0  0
 13 39  1  0  0  0  0
 14 15  1  0  0  0  0
 14 31  1  0  0  0  0
 14 32  1  0  0  0  0
 15 16  1  0  0  0  0
 15 33  1  0  0  0  0
 15 34  1  0  0  0  0
 16 17  1  0  0  0  0
 17 18  1  0  0  0  0
 17 35  1  0  0  0  0
 17 36  1  0  0  0  0
 18 37  1  0  0  0  0
 18 38  1  0  0  0  0
M  CHG  1  13   1
M  END
> <s_m_source_file>
AV-unprocessed.smi

> <i_m_source_file_index>
1420

> <i_lp_mmshare_version>
43012

> <i_f3d_flags>
0

> <s_epik_input>
W0NIMl0xW0NIMl1PW0NIMl1bQ0gyXU4xW0NASF0oW0NIM10pW0NIMl1bTkhdQyg9TylbQ0gyXW4yW2NIXVtjSF1bY0hdbjI=

> <s_epik_cmdline>
J2VwaWtfcHl0aG9uJywgJy1waCcsICc3LjAnLCAnLXRuJywgJzgnLCAnLW1hJywgJzIwMCcsICctbWV0YWxfYmluZGluZycsICctaW1hZScsICc8aW5maWxlLm1hZT4nLCAnLW9tYWUnLCAnPG91dGZpbGUubWFlPic=

> <r_lp_tautomer_probability>
1

> <r_epik_Ionization_Penalty>
0.748405

> <r_epik_Ionization_Penalty_Charging>
0.748396

> <r_epik_Ionization_Penalty_Neutral>
8.56978e-06

> <r_epik_State_Penalty>
0.775162

> <r_epik_Charging_Adjusted_Penalty>
1.52356

> <i_epik_Tot_Q>
1

> <i_epik_Tot_abs_Q>
1

> <r_epik_Metal_State_Penalty>
0.775167

> <b_epik_Metal_Only>
0

> <s_lp_Force_Field>
OPLS_2005

> <r_lp_Energy>
20.6517

> <b_lp_Chiralities_Consistent>
1

> <s_lp_Variant>
AV-unprocessed.smi:1420-3

> <Gold.Version>
5.8.1

> <Gold.Id.Protein>
6NUR|6NUR_protein|mol2

> <Gold.PLP.Fitness>
42.7874

> <Gold.PLP.PLP>
-32.2511

> <Gold.PLP.part.hbond>
-2.0000

> <Gold.PLP.part.metal>
0.0000

> <Gold.PLP.part.buried>
-3.1184

> <Gold.PLP.part.nonpolar>
-27.1909

> <Gold.PLP.part.repulsive>
0.3835

> <Gold.PLP.ligand.clash>
0.0000

> <Gold.PLP.ligand.torsion>
0.5288

> <Gold.PLP.Chemscore.Hbond>
3.0000

> <Gold.PLP.Chemscore.CHOScore>
0.8355

> <Gold.PLP.Chemscore.Metal>
0.0000

> <Gold.Chemscore.Hbonds>
donor molecule, donor type, donor heavy atom, donor atom, acceptor molecule, acceptor atom, score
      L1  H     4    25       P1  7948  1.00
      L1  H    13    39       P1 10175  2.00
      L1  C     9    28       P1  7921  0.83

> <Gold.PLP.Chemscore.Internal.Correction>
0.0875

> <Gold.Rescore>
     Score         DG    S(hbond)    S(metal)    S(lipo)     H(rot)  DE(clash)    DE(int)     intcor
     15.49     -16.21       1.99        0.00      77.27       1.94       0.08       0.63       ----

> <Gold.Chemscore.Fitness>
15.4915

> <Gold.Chemscore.DG>
-16.2058

> <Gold.Chemscore.ZeroCoef>
-5.4800

> <Gold.Chemscore.Hbond>
1.9941

> <Gold.Chemscore.Metal>
0.0000

> <Gold.Chemscore.Lipo>
77.2722

> <Gold.Chemscore.Internal_Hbond>
0.0000

> <Gold.Chemscore.DEClash>
0.0804

> <Gold.Chemscore.DEInternal>
0.6338

> <Gold.Chemscore.Rot>
1.9435

> <Gold.Chemscore.Internal.Correction>
   9.000000E+99

> <Gold.Chemscore.Hbonds>
donor molecule, donor type, donor heavy atom, donor atom, acceptor molecule, acceptor atom, score
      L1  H     4    25       P1  7948  1.00
      L1  H    13    39       P1 10175  0.96

> <Gold.Chemscore.Hbond.Weighted>
-6.6603

> <Gold.Chemscore.Metal.Weighted>
-0.0000

> <Gold.Chemscore.Lipo.Weighted>
-9.0408

> <Gold.Chemscore.Internal_Hbond.Weighted>
0.0000

> <Gold.Chemscore.DEClash.Weighted>
0.0804

> <Gold.Chemscore.DEInternal.Weighted>
0.6338

> <Gold.Chemscore.Rot.Weighted>
4.9754

> <Gold.Chemscore.Internal.Correction.Weighted>
   9.000000E+99

> <Gold.Protein.RotatedTorsions>
[ 6907 6896 6895 6894 ] final  147.26 input  -60.11 | X-H torsion
[ 7974 7965 7964 7962 ] final    3.43 input  175.53 | X-H torsion
[ 8008 7997 7996 7995 ] final   72.58 input   59.86 | X-H torsion
[ 10167 10162 10161 10158 ] final   74.23 input  -65.29 | X-H torsion
[ 10718 10713 10712 10709 ] final   13.43 input   66.30 | X-H torsion
[ 10763 10752 10751 10750 ] final  173.97 input  -60.55 | X-H torsion
[ 11005 11000 10999 10996 ] final -108.23 input  -57.11 | X-H torsion

> <Gold.Protein.ActiveResidues>
 VAL166  LYS551  ARG553  GLY616  TRP617  ASP618  TYR619  PRO620  LYS621  CYS622 
 ASP623  PHE694  ASN695  SER759  ASP760  ASP761  ALA762  ILE779  LEU786  VAL792 
 PHE793  MET794  SER795  GLU796  ALA797  LYS798  CYS799  TRP800  GLU811  SER814 

> <Gold.Protein.RotatedAtoms>
  152.1571  133.4558  159.4841 H   0  0  0  0  0  0  0  0  0  0  0  0  # atno 6907 bound_to 6896
  150.6902  134.2118  159.4371 H   0  0  0  0  0  0  0  0  0  0  0  0  # atno 6908 bound_to 6896
  152.0018  134.9924  160.0616 H   0  0  0  0  0  0  0  0  0  0  0  0  # atno 6909 bound_to 6896
  146.2445  140.0686  142.8364 H   0  0  0  0  0  0  0  0  0  0  0  0  # atno 7974 bound_to 7965
  155.7710  140.3484  155.5247 H   0  0  0  0  0  0  0  0  0  0  0  0  # atno 8008 bound_to 7997
  155.8822  140.1004  157.1498 H   0  0  0  0  0  0  0  0  0  0  0  0  # atno 8009 bound_to 7997
  154.4026  140.1320  156.4198 H   0  0  0  0  0  0  0  0  0  0  0  0  # atno 8010 bound_to 7997
  140.0159  144.5578  150.7621 H   0  0  0  0  0  0  0  0  0  0  0  0  # atno 10167 bound_to 10162
  157.0245  130.6168  149.5726 H   0  0  0  0  0  0  0  0  0  0  0  0  # atno 10718 bound_to 10713
  154.4474  135.2764  155.1805 H   0  0  0  0  0  0  0  0  0  0  0  0  # atno 10763 bound_to 10752
  154.3646  135.6122  153.5712 H   0  0  0  0  0  0  0  0  0  0  0  0  # atno 10764 bound_to 10752
  152.9844  135.5842  154.4812 H   0  0  0  0  0  0  0  0  0  0  0  0  # atno 10765 bound_to 10752
  141.0912  133.9051  157.2070 H   0  0  0  0  0  0  0  0  0  0  0  0  # atno 11005 bound_to 11000
  145.0836  140.9238  143.4810 LP  0  0  0  0  0  0  0  0  0  0  0  0  # atno 17320 bound_to 7965
  145.0844  139.2936  143.5767 LP  0  0  0  0  0  0  0  0  0  0  0  0  # atno 17321 bound_to 7965
  140.7362  143.2750  151.3768 LP  0  0  0  0  0  0  0  0  0  0  0  0  # atno 17342 bound_to 10162
  139.6173  144.0978  152.2357 LP  0  0  0  0  0  0  0  0  0  0  0  0  # atno 17343 bound_to 10162
  156.0090  130.5180  150.7928 LP  0  0  0  0  0  0  0  0  0  0  0  0  # atno 17370 bound_to 10713
  157.5224  131.0932  151.0061 LP  0  0  0  0  0  0  0  0  0  0  0  0  # atno 17371 bound_to 10713
  139.9739  135.0120  156.9582 LP  0  0  0  0  0  0  0  0  0  0  0  0  # atno 17394 bound_to 11000
  140.5246  134.0873  155.7300 LP  0  0  0  0  0  0  0  0  0  0  0  0  # atno 17395 bound_to 11000

$$$$
