AV-unprocessed.smi:332|AV-procd|sdf|2354|dock10
  -GOLD-   2262022263D 1   1.00000     0.00000
 Structure written by MMmdl.
 42 44  0  0  0  0  0  0  0  0  1 V2000
  146.8746  142.3228  157.5481 C   0  0  0  0  0  0  0  0  0  0  0  0
  148.0951  141.7561  156.8066 C   0  0  2  0  0  0  0  0  0  0  0  0
  149.2732  142.5359  157.1840 N   0  0  0  0  0  0  0  0  0  0  0  0
  150.3752  142.0657  157.7894 C   0  0  0  0  0  0  0  0  0  0  0  0
  150.5318  140.8817  158.0909 O   0  0  0  0  0  0  0  0  0  0  0  0
  151.4733  143.1011  158.0713 C   0  0  0  0  0  0  0  0  0  0  0  0
  151.8756  143.1572  159.4865 N   0  0  0  0  0  0  0  0  0  0  0  0
  151.5680  144.3364  160.1943 C   0  0  0  0  0  0  0  0  0  0  0  0
  151.8909  144.4927  161.4879 C   0  0  0  0  0  0  0  0  0  0  0  0
  152.5733  143.4104  162.1568 C   0  0  0  0  0  0  0  0  0  0  0  0
  152.8759  142.2798  161.4881 C   0  0  0  0  0  0  0  0  0  0  0  0
  152.5261  142.1052  160.0734 C   0  0  0  0  0  0  0  0  0  0  0  0
  152.8000  141.0763  159.4548 O   0  0  0  0  0  0  0  0  0  0  0  0
  147.9191  141.7842  155.2685 C   0  0  1  0  0  0  0  0  0  0  0  0
  149.1232  141.2457  154.4604 C   0  0  0  0  0  0  0  0  0  0  0  0
  148.4679  140.2642  153.4715 C   0  0  1  0  0  0  0  0  0  0  0  0
  148.0519  138.9913  154.2310 C   0  0  0  0  0  0  0  0  0  0  0  0
  146.8390  139.4691  155.0496 C   0  0  0  0  0  0  0  0  0  0  0  0
  146.7431  140.9641  154.6809 C   0  0  2  0  0  0  0  0  0  0  0  0
  147.1215  140.9259  153.2034 C   0  0  0  0  0  0  0  0  0  0  0  0
  145.9807  141.7305  157.3532 H   0  0  0  0  0  0  0  0  0  0  0  0
  146.6666  143.3498  157.2463 H   0  0  0  0  0  0  0  0  0  0  0  0
  147.0356  142.3186  158.6267 H   0  0  0  0  0  0  0  0  0  0  0  0
  148.2272  140.7244  157.1332 H   0  0  0  0  0  0  0  0  0  0  0  0
  149.2443  143.5222  156.9696 H   0  0  0  0  0  0  0  0  0  0  0  0
  152.3308  142.8657  157.4395 H   0  0  0  0  0  0  0  0  0  0  0  0
  151.1364  144.0849  157.7388 H   0  0  0  0  0  0  0  0  0  0  0  0
  151.0636  145.1002  159.6202 H   0  0  0  0  0  0  0  0  0  0  0  0
  151.6500  145.4054  162.0131 H   0  0  0  0  0  0  0  0  0  0  0  0
  152.8439  143.5084  163.1977 H   0  0  0  0  0  0  0  0  0  0  0  0
  153.3882  141.4814  162.0044 H   0  0  0  0  0  0  0  0  0  0  0  0
  147.7619  142.8248  154.9768 H   0  0  0  0  0  0  0  0  0  0  0  0
  149.6240  142.0592  153.9341 H   0  0  0  0  0  0  0  0  0  0  0  0
  149.8688  140.7469  155.0806 H   0  0  0  0  0  0  0  0  0  0  0  0
  149.0717  140.0668  152.5853 H   0  0  0  0  0  0  0  0  0  0  0  0
  147.7601  138.2006  153.5386 H   0  0  0  0  0  0  0  0  0  0  0  0
  148.8533  138.6046  154.8620 H   0  0  0  0  0  0  0  0  0  0  0  0
  145.9391  138.9423  154.7292 H   0  0  0  0  0  0  0  0  0  0  0  0
  146.9513  139.2897  156.1180 H   0  0  0  0  0  0  0  0  0  0  0  0
  145.7641  141.4003  154.8809 H   0  0  0  0  0  0  0  0  0  0  0  0
  147.2079  141.9148  152.7492 H   0  0  0  0  0  0  0  0  0  0  0  0
  146.4509  140.3127  152.5983 H   0  0  0  0  0  0  0  0  0  0  0  0
  1  2  1  0  0  0  0
  1 21  1  0  0  0  0
  1 22  1  0  0  0  0
  1 23  1  0  0  0  0
  2  3  1  0  0  0  0
  2 14  1  0  0  0  0
  2 24  1  0  0  0  0
  3  4  1  0  0  0  0
  3 25  1  0  0  0  0
  4  5  2  0  0  0  0
  4  6  1  0  0  0  0
  6  7  1  0  0  0  0
  6 26  1  0  0  0  0
  6 27  1  0  0  0  0
  7 12  1  0  0  0  0
  7  8  1  0  0  0  0
  8  9  2  0  0  0  0
  8 28  1  0  0  0  0
  9 10  1  0  0  0  0
  9 29  1  0  0  0  0
 10 11  2  0  0  0  0
 10 30  1  0  0  0  0
 11 12  1  0  0  0  0
 11 31  1  0  0  0  0
 12 13  2  0  0  0  0
 14 19  1  0  0  0  0
 14 15  1  0  0  0  0
 14 32  1  0  0  0  0
 15 16  1  0  0  0  0
 15 33  1  0  0  0  0
 15 34  1  0  0  0  0
 16 20  1  0  0  0  0
 16 17  1  0  0  0  0
 16 35  1  0  0  0  0
 17 18  1  0  0  0  0
 17 36  1  0  0  0  0
 17 37  1  0  0  0  0
 18 19  1  0  0  0  0
 18 38  1  0  0  0  0
 18 39  1  0  0  0  0
 19 20  1  0  0  0  0
 19 40  1  0  0  0  0
 20 41  1  0  0  0  0
 20 42  1  0  0  0  0
M  END
> <s_m_source_file>
AV-unprocessed.smi

> <i_m_source_file_index>
332

> <i_lp_mmshare_version>
43012

> <i_f3d_flags>
0

> <s_epik_input>
W0NIMl0xW0NIMl1bQ0BIXShbQ0gyXTIpW0NAQEhdKFtDSDJdW0NAQEhdMTIpW0NASF0oW0NIM10pW05IXUMoPU8pW0NIMl1uM1tjSF1bY0hdW2NIXVtjSF1jMz1P

> <s_epik_cmdline>
J2VwaWtfcHl0aG9uJywgJy1waCcsICc3LjAnLCAnLXRuJywgJzgnLCAnLW1hJywgJzIwMCcsICctbWV0YWxfYmluZGluZycsICctaW1hZScsICc8aW5maWxlLm1hZT4nLCAnLW9tYWUnLCAnPG91dGZpbGUubWFlPic=

> <r_lp_tautomer_probability>
1

> <r_epik_Ionization_Penalty>
4.05802e-07

> <r_epik_Ionization_Penalty_Charging>
3.84175e-07

> <r_epik_Ionization_Penalty_Neutral>
2.16269e-08

> <r_epik_State_Penalty>
-0

> <r_epik_Charging_Adjusted_Penalty>
3.84175e-07

> <i_epik_Tot_Q>
0

> <i_epik_Tot_abs_Q>
0

> <r_epik_Metal_State_Penalty>
-0

> <b_epik_Metal_Only>
0

> <s_lp_Force_Field>
OPLS_2005

> <r_lp_Energy>
60.6012

> <b_lp_Chiralities_Consistent>
1

> <s_lp_Variant>
AV-unprocessed.smi:332-3

> <Gold.Version>
5.8.1

> <Gold.Id.Protein>
6NUR|6NUR_protein|mol2

> <Gold.PLP.Fitness>
43.8725

> <Gold.PLP.PLP>
-41.5099

> <Gold.PLP.part.hbond>
-1.0000

> <Gold.PLP.part.metal>
0.0000

> <Gold.PLP.part.buried>
-0.0541

> <Gold.PLP.part.nonpolar>
-38.8999

> <Gold.PLP.part.repulsive>
0.0245

> <Gold.PLP.ligand.clash>
0.0000

> <Gold.PLP.ligand.torsion>
0.0740

> <Gold.PLP.Chemscore.Hbond>
0.8320

> <Gold.PLP.Chemscore.CHOScore>
0.0000

> <Gold.PLP.Chemscore.Metal>
0.0000

> <Gold.Chemscore.Hbonds>
donor molecule, donor type, donor heavy atom, donor atom, acceptor molecule, acceptor atom, score
      L1  H     3    25       P1  8028  0.90

> <Gold.PLP.Chemscore.Internal.Correction>
0.0146

> <Gold.Rescore>
     Score         DG    S(hbond)    S(metal)    S(lipo)     H(rot)  DE(clash)    DE(int)     intcor
     13.84     -17.30       0.96        0.00     107.44       1.54       1.94       1.52       ----

> <Gold.Chemscore.Fitness>
13.8434

> <Gold.Chemscore.DG>
-17.2990

> <Gold.Chemscore.ZeroCoef>
-5.4800

> <Gold.Chemscore.Hbond>
0.9551

> <Gold.Chemscore.Metal>
0.0000

> <Gold.Chemscore.Lipo>
107.4422

> <Gold.Chemscore.Internal_Hbond>
0.0000

> <Gold.Chemscore.DEClash>
1.9402

> <Gold.Chemscore.DEInternal>
1.5154

> <Gold.Chemscore.Rot>
1.5398

> <Gold.Chemscore.Internal.Correction>
   9.000000E+99

> <Gold.Chemscore.Hbonds>
donor molecule, donor type, donor heavy atom, donor atom, acceptor molecule, acceptor atom, score
      L1  H     3    25       P1  8028  0.75

> <Gold.Chemscore.Hbond.Weighted>
-3.1901

> <Gold.Chemscore.Metal.Weighted>
-0.0000

> <Gold.Chemscore.Lipo.Weighted>
-12.5707

> <Gold.Chemscore.Internal_Hbond.Weighted>
0.0000

> <Gold.Chemscore.DEClash.Weighted>
1.9402

> <Gold.Chemscore.DEInternal.Weighted>
1.5154

> <Gold.Chemscore.Rot.Weighted>
3.9419

> <Gold.Chemscore.Internal.Correction.Weighted>
   9.000000E+99

> <Gold.Protein.RotatedTorsions>
[ 6907 6896 6895 6894 ] final  108.66 input  -60.11 | X-H torsion
[ 7974 7965 7964 7962 ] final -105.32 input  175.53 | X-H torsion
[ 8008 7997 7996 7995 ] final   77.05 input   59.86 | X-H torsion
[ 10167 10162 10161 10158 ] final   49.21 input  -65.29 | X-H torsion
[ 10718 10713 10712 10709 ] final   60.15 input   66.30 | X-H torsion
[ 10763 10752 10751 10750 ] final  120.78 input  -60.55 | X-H torsion
[ 11005 11000 10999 10996 ] final  -66.52 input  -57.11 | X-H torsion

> <Gold.Protein.ActiveResidues>
 VAL166  LYS551  ARG553  GLY616  TRP617  ASP618  TYR619  PRO620  LYS621  CYS622 
 ASP623  PHE694  ASN695  SER759  ASP760  ASP761  ALA762  ILE779  LEU786  VAL792 
 PHE793  MET794  SER795  GLU796  ALA797  LYS798  CYS799  TRP800  GLU811  SER814 

> <Gold.Protein.RotatedAtoms>
  152.5102  133.9057  159.7462 H   0  0  0  0  0  0  0  0  0  0  0  0  # atno 6907 bound_to 6896
  150.9462  133.6592  159.2788 H   0  0  0  0  0  0  0  0  0  0  0  0  # atno 6908 bound_to 6896
  151.3886  135.0957  159.9572 H   0  0  0  0  0  0  0  0  0  0  0  0  # atno 6909 bound_to 6896
  145.2319  140.9173  143.3200 H   0  0  0  0  0  0  0  0  0  0  0  0  # atno 7974 bound_to 7965
  155.8361  140.3464  155.5603 H   0  0  0  0  0  0  0  0  0  0  0  0  # atno 8008 bound_to 7997
  155.8190  140.0910  157.1880 H   0  0  0  0  0  0  0  0  0  0  0  0  # atno 8009 bound_to 7997
  154.4004  140.1433  156.3464 H   0  0  0  0  0  0  0  0  0  0  0  0  # atno 8010 bound_to 7997
  140.2852  144.3110  150.6254 H   0  0  0  0  0  0  0  0  0  0  0  0  # atno 10167 bound_to 10162
  157.5731  130.8922  149.9300 H   0  0  0  0  0  0  0  0  0  0  0  0  # atno 10718 bound_to 10713
  153.6038  135.3443  155.2954 H   0  0  0  0  0  0  0  0  0  0  0  0  # atno 10763 bound_to 10752
  154.8631  135.4234  154.2384 H   0  0  0  0  0  0  0  0  0  0  0  0  # atno 10764 bound_to 10752
  153.3219  135.7038  153.7095 H   0  0  0  0  0  0  0  0  0  0  0  0  # atno 10765 bound_to 10752
  141.1484  133.6701  156.6151 H   0  0  0  0  0  0  0  0  0  0  0  0  # atno 11005 bound_to 11000
  144.9669  139.3921  143.6328 LP  0  0  0  0  0  0  0  0  0  0  0  0  # atno 17320 bound_to 7965
  146.3351  139.8748  142.8834 LP  0  0  0  0  0  0  0  0  0  0  0  0  # atno 17321 bound_to 7965
  140.5778  143.2175  151.7483 LP  0  0  0  0  0  0  0  0  0  0  0  0  # atno 17342 bound_to 10162
  139.4952  144.4124  152.0066 LP  0  0  0  0  0  0  0  0  0  0  0  0  # atno 17343 bound_to 10162
  156.0775  130.3677  150.0647 LP  0  0  0  0  0  0  0  0  0  0  0  0  # atno 17370 bound_to 10713
  156.8797  130.9552  151.3601 LP  0  0  0  0  0  0  0  0  0  0  0  0  # atno 17371 bound_to 10713
  140.3584  134.7709  157.4516 LP  0  0  0  0  0  0  0  0  0  0  0  0  # atno 17394 bound_to 11000
  140.0805  134.5738  155.8546 LP  0  0  0  0  0  0  0  0  0  0  0  0  # atno 17395 bound_to 11000

$$$$
