AV-unprocessed.smi:101|AV-procd|sdf|919|dock1
  -GOLD-   2262017423D 1   1.00000     0.00000
 Structure written by MMmdl.
 44 46  0  0  0  0  0  0  0  0  1 V2000
  145.9485  137.7086  152.6130 C   0  0  0  0  0  0  0  0  0  0  0  0
  146.4381  137.6955  154.0516 C   0  0  0  0  0  0  0  0  0  0  0  0
  147.7553  137.7659  154.3724 C   0  0  0  0  0  0  0  0  0  0  0  0
  148.2323  137.7536  155.6762 N   0  0  0  0  0  0  0  0  0  0  0  0
  149.7127  137.8185  155.9708 C   0  0  2  0  0  0  0  0  0  0  0  0
  149.9909  139.0426  156.5792 O   0  0  0  0  0  0  0  0  0  0  0  0
  151.1853  139.5855  156.0336 C   0  0  2  0  0  0  0  0  0  0  0  0
  151.2409  141.1058  156.2386 C   0  0  0  0  0  0  0  0  0  0  0  0
  151.2329  141.3854  157.6285 O   0  0  0  0  0  0  0  0  0  0  0  0
  152.2293  140.9323  158.4136 C   0  0  0  0  0  0  0  0  0  0  0  0
  152.9602  139.9870  158.1103 O   0  0  0  0  0  0  0  0  0  0  0  0
  152.3562  141.6958  159.6885 C   0  0  0  0  0  0  0  0  0  0  0  0
  151.5448  142.8352  159.8976 C   0  0  0  0  0  0  0  0  0  0  0  0
  151.6406  143.5751  161.0923 C   0  0  0  0  0  0  0  0  0  0  0  0
  152.5481  143.1833  162.0936 C   0  0  0  0  0  0  0  0  0  0  0  0
  153.3605  142.0512  161.8984 C   0  0  0  0  0  0  0  0  0  0  0  0
  153.2673  141.3113  160.7035 C   0  0  0  0  0  0  0  0  0  0  0  0
  151.1748  139.1096  154.5753 C   0  0  2  0  0  0  0  0  0  0  0  0
  150.3993  139.9675  153.7583 O   0  0  0  0  0  0  0  0  0  0  0  0
  150.5302  137.7310  154.6682 C   0  0  1  0  0  0  0  0  0  0  0  0
  151.5303  136.7348  154.7561 O   0  0  0  0  0  0  0  0  0  0  0  0
  147.3208  137.6322  156.7448 C   0  0  0  0  0  0  0  0  0  0  0  0
  147.6721  137.5778  157.9227 O   0  0  0  0  0  0  0  0  0  0  0  0
  145.9679  137.5664  156.4166 N   0  0  0  0  0  0  0  0  0  0  0  0
  145.4425  137.5953  155.1223 C   0  0  0  0  0  0  0  0  0  0  0  0
  144.2249  137.5340  154.9598 O   0  0  0  0  0  0  0  0  0  0  0  0
  145.3115  137.4859  157.1793 H   0  0  0  0  0  0  0  0  0  0  0  0
  146.7745  137.7812  151.9050 H   0  0  0  0  0  0  0  0  0  0  0  0
  145.2870  138.5590  152.4432 H   0  0  0  0  0  0  0  0  0  0  0  0
  145.3967  136.7948  152.3897 H   0  0  0  0  0  0  0  0  0  0  0  0
  148.4680  137.8297  153.5631 H   0  0  0  0  0  0  0  0  0  0  0  0
  149.9327  137.0258  156.6887 H   0  0  0  0  0  0  0  0  0  0  0  0
  152.0298  139.1146  156.5403 H   0  0  0  0  0  0  0  0  0  0  0  0
  152.1560  141.5079  155.8018 H   0  0  0  0  0  0  0  0  0  0  0  0
  150.3966  141.5902  155.7458 H   0  0  0  0  0  0  0  0  0  0  0  0
  150.8388  143.1539  159.1441 H   0  0  0  0  0  0  0  0  0  0  0  0
  151.0158  144.4436  161.2404 H   0  0  0  0  0  0  0  0  0  0  0  0
  152.6204  143.7500  163.0103 H   0  0  0  0  0  0  0  0  0  0  0  0
  154.0565  141.7486  162.6668 H   0  0  0  0  0  0  0  0  0  0  0  0
  153.9055  140.4475  160.5862 H   0  0  0  0  0  0  0  0  0  0  0  0
  152.1810  139.0741  154.1548 H   0  0  0  0  0  0  0  0  0  0  0  0
  150.2999  139.5668  152.9082 H   0  0  0  0  0  0  0  0  0  0  0  0
  149.8919  137.5081  153.8113 H   0  0  0  0  0  0  0  0  0  0  0  0
  151.5658  136.4218  155.6470 H   0  0  0  0  0  0  0  0  0  0  0  0
  1  2  1  0  0  0  0
  1 28  1  0  0  0  0
  1 29  1  0  0  0  0
  1 30  1  0  0  0  0
  2 25  1  0  0  0  0
  2  3  2  0  0  0  0
  3  4  1  0  0  0  0
  3 31  1  0  0  0  0
  4  5  1  0  0  0  0
  4 22  1  0  0  0  0
  5 20  1  0  0  0  0
  5  6  1  0  0  0  0
  5 32  1  0  0  0  0
  6  7  1  0  0  0  0
  7  8  1  0  0  0  0
  7 18  1  0  0  0  0
  7 33  1  0  0  0  0
  8  9  1  0  0  0  0
  8 34  1  0  0  0  0
  8 35  1  0  0  0  0
  9 10  1  0  0  0  0
 10 11  2  0  0  0  0
 10 12  1  0  0  0  0
 12 17  1  0  0  0  0
 12 13  2  0  0  0  0
 13 14  1  0  0  0  0
 13 36  1  0  0  0  0
 14 15  2  0  0  0  0
 14 37  1  0  0  0  0
 15 16  1  0  0  0  0
 15 38  1  0  0  0  0
 16 17  2  0  0  0  0
 16 39  1  0  0  0  0
 17 40  1  0  0  0  0
 18 19  1  0  0  0  0
 18 20  1  0  0  0  0
 18 41  1  0  0  0  0
 19 42  1  0  0  0  0
 20 21  1  0  0  0  0
 20 43  1  0  0  0  0
 21 44  1  0  0  0  0
 22 23  2  0  0  0  0
 22 24  1  0  0  0  0
 24 27  1  0  0  0  0
 24 25  1  0  0  0  0
 25 26  2  0  0  0  0
M  END
> <s_m_source_file>
AV-unprocessed.smi

> <i_m_source_file_index>
101

> <i_lp_mmshare_version>
43012

> <i_f3d_flags>
0

> <s_epik_input>
Tz1jMVtuSF1jKD1PKW4oW2NIXWMxW0NIM10pW0NAQEhdMk9bQ0BIXShbQ0BASF0oW09IXSlbQ0BIXTJbT0hdKVtDSDJdT0MoPU8pYzNbY0hdW2NIXVtjSF1bY0hdW2NIXTM=

> <s_epik_cmdline>
J2VwaWtfcHl0aG9uJywgJy1waCcsICc3LjAnLCAnLXRuJywgJzgnLCAnLW1hJywgJzIwMCcsICctbWV0YWxfYmluZGluZycsICctaW1hZScsICc8aW5maWxlLm1hZT4nLCAnLW9tYWUnLCAnPG91dGZpbGUubWFlPic=

> <r_lp_tautomer_probability>
0.999537

> <r_epik_Ionization_Penalty>
0.00263537

> <r_epik_Ionization_Penalty_Charging>
0.00263428

> <r_epik_Ionization_Penalty_Neutral>
1.09111e-06

> <r_epik_State_Penalty>
0.00183335

> <r_epik_Charging_Adjusted_Penalty>
0.00446763

> <i_epik_Tot_Q>
0

> <i_epik_Tot_abs_Q>
0

> <r_epik_Metal_State_Penalty>
1.00528

> <b_epik_Metal_Only>
0

> <s_epik_Chemistry_Notes>
This compound has an ester and may undergo hydrolysis at high or low pH. This compound contains an acetal/aminal-like group ( X-CH(R)-Y where X, Y are N, S, or O) that may be acid/base labile, releasing an aldehyde.

> <s_lp_Force_Field>
OPLS_2005

> <r_lp_Energy>
30.9331

> <b_lp_Chiralities_Consistent>
1

> <s_lp_Variant>
AV-unprocessed.smi:101-7

> <Gold.Version>
5.8.1

> <Gold.Id.Protein>
6NUR|6NUR_protein|mol2

> <Gold.PLP.Fitness>
52.0883

> <Gold.PLP.PLP>
-38.8981

> <Gold.PLP.part.hbond>
-3.8194

> <Gold.PLP.part.metal>
0.0000

> <Gold.PLP.part.buried>
-4.0433

> <Gold.PLP.part.nonpolar>
-30.5813

> <Gold.PLP.part.repulsive>
0.0851

> <Gold.PLP.ligand.clash>
0.0000

> <Gold.PLP.ligand.torsion>
0.4482

> <Gold.PLP.Chemscore.Hbond>
3.6786

> <Gold.PLP.Chemscore.CHOScore>
1.0000

> <Gold.PLP.Chemscore.Metal>
0.0000

> <Gold.Chemscore.Hbonds>
donor molecule, donor type, donor heavy atom, donor atom, acceptor molecule, acceptor atom, score
      L1  H    19    42       P1  7957  0.78
      P1  H  7989  7998       L1    19  0.52
      P1  H  7997  8009       L1    11  1.00
      P1  H 10752 10763       L1    21  0.55
      L1  C     3    31       P1  7948  1.00

> <Gold.PLP.Chemscore.Internal.Correction>
0.0508

> <Gold.Rescore>
     Score         DG    S(hbond)    S(metal)    S(lipo)     H(rot)  DE(clash)    DE(int)     intcor
     15.23     -17.46       2.71        0.00      97.69       3.32       0.38       1.85       ----

> <Gold.Chemscore.Fitness>
15.2333

> <Gold.Chemscore.DG>
-17.4594

> <Gold.Chemscore.ZeroCoef>
-5.4800

> <Gold.Chemscore.Hbond>
2.7072

> <Gold.Chemscore.Metal>
0.0000

> <Gold.Chemscore.Lipo>
97.6881

> <Gold.Chemscore.Internal_Hbond>
0.0000

> <Gold.Chemscore.DEClash>
0.3809

> <Gold.Chemscore.DEInternal>
1.8452

> <Gold.Chemscore.Rot>
3.3172

> <Gold.Chemscore.Internal.Correction>
   9.000000E+99

> <Gold.Chemscore.Hbonds>
donor molecule, donor type, donor heavy atom, donor atom, acceptor molecule, acceptor atom, score
      L1  H    19    42       P1  7957  0.72
      P1  H  7989  7998       L1    19  0.01
      P1  H  7997  8009       L1    11  0.93
      P1  H 10752 10763       L1    21  0.03

> <Gold.Chemscore.Hbond.Weighted>
-9.0419

> <Gold.Chemscore.Metal.Weighted>
-0.0000

> <Gold.Chemscore.Lipo.Weighted>
-11.4295

> <Gold.Chemscore.Internal_Hbond.Weighted>
0.0000

> <Gold.Chemscore.DEClash.Weighted>
0.3809

> <Gold.Chemscore.DEInternal.Weighted>
1.8452

> <Gold.Chemscore.Rot.Weighted>
8.4920

> <Gold.Chemscore.Internal.Correction.Weighted>
   9.000000E+99

> <Gold.Protein.RotatedTorsions>
[ 6907 6896 6895 6894 ] final  118.93 input  -60.11 | X-H torsion
[ 7974 7965 7964 7962 ] final -130.85 input  175.53 | X-H torsion
[ 8008 7997 7996 7995 ] final  149.18 input   59.86 | X-H torsion
[ 10167 10162 10161 10158 ] final  172.11 input  -65.29 | X-H torsion
[ 10718 10713 10712 10709 ] final   90.14 input   66.30 | X-H torsion
[ 10763 10752 10751 10750 ] final   40.20 input  -60.55 | X-H torsion
[ 11005 11000 10999 10996 ] final  165.51 input  -57.11 | X-H torsion

> <Gold.Protein.ActiveResidues>
 VAL166  LYS551  ARG553  GLY616  TRP617  ASP618  TYR619  PRO620  LYS621  CYS622 
 ASP623  PHE694  ASN695  SER759  ASP760  ASP761  ALA762  ILE779  LEU786  VAL792 
 PHE793  MET794  SER795  GLU796  ALA797  LYS798  CYS799  TRP800  GLU811  SER814 

> <Gold.Protein.RotatedAtoms>
  152.4508  133.7626  159.6754 H   0  0  0  0  0  0  0  0  0  0  0  0  # atno 6907 bound_to 6896
  150.8420  133.7911  159.3063 H   0  0  0  0  0  0  0  0  0  0  0  0  # atno 6908 bound_to 6896
  151.5533  135.1070  160.0007 H   0  0  0  0  0  0  0  0  0  0  0  0  # atno 6909 bound_to 6896
  144.9435  140.7266  143.4832 H   0  0  0  0  0  0  0  0  0  0  0  0  # atno 7974 bound_to 7965
  156.2764  140.2108  156.5817 H   0  0  0  0  0  0  0  0  0  0  0  0  # atno 8008 bound_to 7997
  154.7053  140.0517  157.0521 H   0  0  0  0  0  0  0  0  0  0  0  0  # atno 8009 bound_to 7997
  155.0679  140.3173  155.4643 H   0  0  0  0  0  0  0  0  0  0  0  0  # atno 8010 bound_to 7997
  139.5066  144.3410  152.0017 H   0  0  0  0  0  0  0  0  0  0  0  0  # atno 10167 bound_to 10162
  157.6958  131.0359  150.3532 H   0  0  0  0  0  0  0  0  0  0  0  0  # atno 10718 bound_to 10713
  152.9943  135.6198  154.2588 H   0  0  0  0  0  0  0  0  0  0  0  0  # atno 10763 bound_to 10752
  154.2324  135.2791  155.2886 H   0  0  0  0  0  0  0  0  0  0  0  0  # atno 10764 bound_to 10752
  154.5438  135.5753  153.6920 H   0  0  0  0  0  0  0  0  0  0  0  0  # atno 10765 bound_to 10752
  140.2569  134.7933  157.3554 H   0  0  0  0  0  0  0  0  0  0  0  0  # atno 11005 bound_to 11000
  145.2953  139.1869  143.4718 LP  0  0  0  0  0  0  0  0  0  0  0  0  # atno 17320 bound_to 7965
  146.3295  140.2936  142.8616 LP  0  0  0  0  0  0  0  0  0  0  0  0  # atno 17321 bound_to 7965
  140.2848  144.3819  150.6107 LP  0  0  0  0  0  0  0  0  0  0  0  0  # atno 17342 bound_to 10162
  140.5991  143.2167  151.7108 LP  0  0  0  0  0  0  0  0  0  0  0  0  # atno 17343 bound_to 10162
  156.3977  130.3910  149.6982 LP  0  0  0  0  0  0  0  0  0  0  0  0  # atno 17370 bound_to 10713
  156.4310  130.7815  151.2835 LP  0  0  0  0  0  0  0  0  0  0  0  0  # atno 17371 bound_to 10713
  140.1503  134.4858  155.7966 LP  0  0  0  0  0  0  0  0  0  0  0  0  # atno 17394 bound_to 11000
  141.2195  133.6860  156.7366 LP  0  0  0  0  0  0  0  0  0  0  0  0  # atno 17395 bound_to 11000

$$$$
