AV-unprocessed.smi:757|AV-procd|sdf|3615|dock1
  -GOLD-   22720 1 13D 1   1.00000     0.00000
 Structure written by MMmdl.
 45 46  0  0  0  0  0  0  0  0  2 V2000
  142.2352  145.2951  157.1713 C   0  0  0  0  0  0  0  0  0  0  0  0
  143.1900  144.6879  156.7126 C   0  0  0  0  0  0  0  0  0  0  0  0
  144.3344  143.9559  156.1461 C   0  0  0  0  0  0  0  0  0  0  0  0
  143.9146  142.7509  155.2847 C   0  0  0  0  0  0  0  0  0  0  0  0
  145.0799  142.0269  154.7160 N   0  3  2  0  0  0  0  0  0  0  0  0
  145.8120  141.2458  155.7466 C   0  0  0  0  0  0  0  0  0  0  0  0
  146.9284  140.3920  155.1171 C   0  0  0  0  0  0  0  0  0  0  0  0
  147.9046  141.2389  154.2831 C   0  0  2  0  0  0  0  0  0  0  0  0
  148.7450  142.0600  155.1549 N   0  0  0  0  0  0  0  0  0  0  0  0
  149.6561  141.5901  156.0193 C   0  0  0  0  0  0  0  0  0  0  0  0
  149.9044  140.3927  156.1551 O   0  0  0  0  0  0  0  0  0  0  0  0
  150.2570  142.5921  156.6836 N   0  0  0  0  0  0  0  0  0  0  0  0
  151.2671  142.5179  157.6813 C   0  0  0  0  0  0  0  0  0  0  0  0
  151.9790  143.6327  158.1857 C   0  0  0  0  0  0  0  0  0  0  0  0
  152.9697  143.4219  159.1637 C   0  0  0  0  0  0  0  0  0  0  0  0
  153.2259  142.1082  159.6036 C   0  0  0  0  0  0  0  0  0  0  0  0
  154.1975  141.9110  160.5633 O   0  0  0  0  0  0  0  0  0  0  0  0
  154.4982  140.5763  160.9564 C   0  0  0  0  0  0  0  0  0  0  0  0
  152.5571  141.0342  159.1161 N   0  0  0  0  0  0  0  0  0  0  0  0
  151.6094  141.2432  158.1785 C   0  0  0  0  0  0  0  0  0  0  0  0
  147.1147  142.0916  153.2705 C   0  0  0  0  0  0  0  0  0  0  0  0
  145.9991  142.9075  153.9469 C   0  0  0  0  0  0  0  0  0  0  0  0
  141.3982  145.8240  157.5690 H   0  0  0  0  0  0  0  0  0  0  0  0
  144.9149  144.6633  155.5531 H   0  0  0  0  0  0  0  0  0  0  0  0
  144.9589  143.6487  156.9843 H   0  0  0  0  0  0  0  0  0  0  0  0
  143.2926  142.0584  155.8548 H   0  0  0  0  0  0  0  0  0  0  0  0
  143.2941  143.1193  154.4658 H   0  0  0  0  0  0  0  0  0  0  0  0
  146.2268  141.9253  156.4930 H   0  0  0  0  0  0  0  0  0  0  0  0
  145.1184  140.5876  156.2714 H   0  0  0  0  0  0  0  0  0  0  0  0
  147.4670  139.8468  155.8932 H   0  0  0  0  0  0  0  0  0  0  0  0
  146.4756  139.6347  154.4756 H   0  0  0  0  0  0  0  0  0  0  0  0
  148.5585  140.5579  153.7351 H   0  0  0  0  0  0  0  0  0  0  0  0
  148.6075  143.0592  155.1119 H   0  0  0  0  0  0  0  0  0  0  0  0
  149.9931  143.5272  156.4097 H   0  0  0  0  0  0  0  0  0  0  0  0
  151.7996  144.6378  157.8379 H   0  0  0  0  0  0  0  0  0  0  0  0
  153.5268  144.2548  159.5666 H   0  0  0  0  0  0  0  0  0  0  0  0
  155.2782  140.5913  161.7173 H   0  0  0  0  0  0  0  0  0  0  0  0
  154.8673  139.9865  160.1161 H   0  0  0  0  0  0  0  0  0  0  0  0
  153.6263  140.0811  161.3867 H   0  0  0  0  0  0  0  0  0  0  0  0
  151.1039  140.3600  157.8158 H   0  0  0  0  0  0  0  0  0  0  0  0
  147.7822  142.7558  152.7204 H   0  0  0  0  0  0  0  0  0  0  0  0
  146.6681  141.4334  152.5241 H   0  0  0  0  0  0  0  0  0  0  0  0
  145.4507  143.4498  153.1778 H   0  0  0  0  0  0  0  0  0  0  0  0
  146.4298  143.6579  154.6117 H   0  0  0  0  0  0  0  0  0  0  0  0
  144.7050  141.3511  154.0653 H   0  0  0  0  0  0  0  0  0  0  0  0
  1  2  3  0  0  0  0
  1 23  1  0  0  0  0
  2  3  1  0  0  0  0
  3  4  1  0  0  0  0
  3 24  1  0  0  0  0
  3 25  1  0  0  0  0
  4  5  1  0  0  0  0
  4 26  1  0  0  0  0
  4 27  1  0  0  0  0
  5 22  1  0  0  0  0
  5  6  1  0  0  0  0
  5 45  1  0  0  0  0
  6  7  1  0  0  0  0
  6 28  1  0  0  0  0
  6 29  1  0  0  0  0
  7  8  1  0  0  0  0
  7 30  1  0  0  0  0
  7 31  1  0  0  0  0
  8  9  1  0  0  0  0
  8 21  1  0  0  0  0
  8 32  1  0  0  0  0
  9 10  1  0  0  0  0
  9 33  1  0  0  0  0
 10 11  2  0  0  0  0
 10 12  1  0  0  0  0
 12 13  1  0  0  0  0
 12 34  1  0  0  0  0
 13 20  1  0  0  0  0
 13 14  2  0  0  0  0
 14 15  1  0  0  0  0
 14 35  1  0  0  0  0
 15 16  2  0  0  0  0
 15 36  1  0  0  0  0
 16 17  1  0  0  0  0
 16 19  1  0  0  0  0
 17 18  1  0  0  0  0
 18 37  1  0  0  0  0
 18 38  1  0  0  0  0
 18 39  1  0  0  0  0
 19 20  2  0  0  0  0
 20 40  1  0  0  0  0
 21 22  1  0  0  0  0
 21 41  1  0  0  0  0
 21 42  1  0  0  0  0
 22 43  1  0  0  0  0
 22 44  1  0  0  0  0
M  CHG  1   5   1
M  END
> <s_m_source_file>
AV-unprocessed.smi

> <i_m_source_file_index>
757

> <i_lp_mmshare_version>
43012

> <i_f3d_flags>
0

> <s_epik_input>
W0NIXSNDW0NIMl1bQ0gyXU4xW0NIMl1bQ0gyXVtDSF0oW0NIMl1bQ0gyXTEpW05IXUMoPU8pW05IXWMyW2NIXVtjSF1jKE9bQ0gzXSluW2NIXTI=

> <s_epik_cmdline>
J2VwaWtfcHl0aG9uJywgJy1waCcsICc3LjAnLCAnLXRuJywgJzgnLCAnLW1hJywgJzIwMCcsICctbWV0YWxfYmluZGluZycsICctaW1hZScsICc8aW5maWxlLm1hZT4nLCAnLW9tYWUnLCAnPG91dGZpbGUubWFlPic=

> <r_lp_tautomer_probability>
1

> <r_epik_Ionization_Penalty>
0.0402573

> <r_epik_Ionization_Penalty_Charging>
0.0401786

> <r_epik_Ionization_Penalty_Neutral>
7.86509e-05

> <r_epik_State_Penalty>
0.0338029

> <r_epik_Charging_Adjusted_Penalty>
0.0739815

> <i_epik_Tot_Q>
1

> <i_epik_Tot_abs_Q>
1

> <r_epik_Metal_State_Penalty>
0.0338035

> <b_epik_Metal_Only>
0

> <s_lp_Force_Field>
OPLS_2005

> <r_lp_Energy>
19.9555

> <b_lp_Chiralities_Consistent>
1

> <s_lp_Variant>
AV-unprocessed.smi:757-2

> <Gold.Version>
5.8.1

> <Gold.Id.Protein>
6NUR|6NUR_protein|mol2

> <Gold.PLP.Fitness>
48.8931

> <Gold.PLP.PLP>
-37.0951

> <Gold.PLP.part.hbond>
-3.1381

> <Gold.PLP.part.metal>
0.0000

> <Gold.PLP.part.buried>
-6.6675

> <Gold.PLP.part.nonpolar>
-28.8884

> <Gold.PLP.part.repulsive>
0.2310

> <Gold.PLP.ligand.clash>
0.0000

> <Gold.PLP.ligand.torsion>
0.1236

> <Gold.PLP.Chemscore.Hbond>
4.0000

> <Gold.PLP.Chemscore.CHOScore>
0.0000

> <Gold.PLP.Chemscore.Metal>
0.0000

> <Gold.Chemscore.Hbonds>
donor molecule, donor type, donor heavy atom, donor atom, acceptor molecule, acceptor atom, score
      L1  H     5    45       P1 10175  1.85
      L1  H     9    33       P1  8028  1.00
      L1  H    12    34       P1  8028  1.00

> <Gold.PLP.Chemscore.Internal.Correction>
0.0452

> <Gold.Rescore>
     Score         DG    S(hbond)    S(metal)    S(lipo)     H(rot)  DE(clash)    DE(int)     intcor
     17.86     -20.65       2.73        0.00      86.58       1.59       1.29       1.51       ----

> <Gold.Chemscore.Fitness>
17.8554

> <Gold.Chemscore.DG>
-20.6495

> <Gold.Chemscore.ZeroCoef>
-5.4800

> <Gold.Chemscore.Hbond>
2.7258

> <Gold.Chemscore.Metal>
0.0000

> <Gold.Chemscore.Lipo>
86.5818

> <Gold.Chemscore.Internal_Hbond>
0.0000

> <Gold.Chemscore.DEClash>
1.2880

> <Gold.Chemscore.DEInternal>
1.5060

> <Gold.Chemscore.Rot>
1.5879

> <Gold.Chemscore.Internal.Correction>
   9.000000E+99

> <Gold.Chemscore.Hbonds>
donor molecule, donor type, donor heavy atom, donor atom, acceptor molecule, acceptor atom, score
      L1  H     5    45       P1 10175  0.44
      L1  H     9    33       P1  8028  0.98
      L1  H    12    34       P1  8028  0.98

> <Gold.Chemscore.Hbond.Weighted>
-9.1043

> <Gold.Chemscore.Metal.Weighted>
-0.0000

> <Gold.Chemscore.Lipo.Weighted>
-10.1301

> <Gold.Chemscore.Internal_Hbond.Weighted>
0.0000

> <Gold.Chemscore.DEClash.Weighted>
1.2880

> <Gold.Chemscore.DEInternal.Weighted>
1.5060

> <Gold.Chemscore.Rot.Weighted>
4.0649

> <Gold.Chemscore.Internal.Correction.Weighted>
   9.000000E+99

> <Gold.Protein.RotatedTorsions>
[ 6907 6896 6895 6894 ] final -103.61 input  -60.11 | X-H torsion
[ 7974 7965 7964 7962 ] final -178.84 input  175.53 | X-H torsion
[ 8008 7997 7996 7995 ] final   59.62 input   59.86 | X-H torsion
[ 10167 10162 10161 10158 ] final -153.26 input  -65.29 | X-H torsion
[ 10718 10713 10712 10709 ] final   -8.59 input   66.30 | X-H torsion
[ 10763 10752 10751 10750 ] final   41.47 input  -60.55 | X-H torsion
[ 11005 11000 10999 10996 ] final -111.66 input  -57.11 | X-H torsion

> <Gold.Protein.ActiveResidues>
 VAL166  LYS551  ARG553  GLY616  TRP617  ASP618  TYR619  PRO620  LYS621  CYS622 
 ASP623  PHE694  ASN695  SER759  ASP760  ASP761  ALA762  ILE779  LEU786  VAL792 
 PHE793  MET794  SER795  GLU796  ALA797  LYS798  CYS799  TRP800  GLU811  SER814 

> <Gold.Protein.RotatedAtoms>
  150.7248  134.0402  159.3762 H   0  0  0  0  0  0  0  0  0  0  0  0  # atno 6907 bound_to 6896
  151.8376  135.0599  160.0453 H   0  0  0  0  0  0  0  0  0  0  0  0  # atno 6908 bound_to 6896
  152.2887  133.5504  159.5580 H   0  0  0  0  0  0  0  0  0  0  0  0  # atno 6909 bound_to 6896
  144.7133  140.0809  143.6425 H   0  0  0  0  0  0  0  0  0  0  0  0  # atno 7974 bound_to 7965
  155.5691  140.3489  155.4510 H   0  0  0  0  0  0  0  0  0  0  0  0  # atno 8008 bound_to 7997
  156.0458  140.1306  157.0131 H   0  0  0  0  0  0  0  0  0  0  0  0  # atno 8009 bound_to 7997
  154.4412  140.1015  156.6288 H   0  0  0  0  0  0  0  0  0  0  0  0  # atno 8010 bound_to 7997
  139.7112  143.9106  152.2469 H   0  0  0  0  0  0  0  0  0  0  0  0  # atno 10167 bound_to 10162
  156.7003  130.5091  149.5919 H   0  0  0  0  0  0  0  0  0  0  0  0  # atno 10718 bound_to 10713
  152.9907  135.6161  154.2793 H   0  0  0  0  0  0  0  0  0  0  0  0  # atno 10763 bound_to 10752
  154.2523  135.2785  155.2813 H   0  0  0  0  0  0  0  0  0  0  0  0  # atno 10764 bound_to 10752
  154.5277  135.5797  153.6791 H   0  0  0  0  0  0  0  0  0  0  0  0  # atno 10765 bound_to 10752
  141.0721  133.9362  157.2463 H   0  0  0  0  0  0  0  0  0  0  0  0  # atno 11005 bound_to 11000
  145.9703  139.2865  143.1102 LP  0  0  0  0  0  0  0  0  0  0  0  0  # atno 17320 bound_to 7965
  145.9123  140.9171  143.0447 LP  0  0  0  0  0  0  0  0  0  0  0  0  # atno 17321 bound_to 7965
  139.8975  144.6930  150.8702 LP  0  0  0  0  0  0  0  0  0  0  0  0  # atno 17342 bound_to 10162
  140.7733  143.3539  151.1960 LP  0  0  0  0  0  0  0  0  0  0  0  0  # atno 17343 bound_to 10162
  156.1733  130.6451  151.0864 LP  0  0  0  0  0  0  0  0  0  0  0  0  # atno 17370 bound_to 10713
  157.6975  131.0788  150.6923 LP  0  0  0  0  0  0  0  0  0  0  0  0  # atno 17371 bound_to 10713
  139.9534  135.0170  156.9060 LP  0  0  0  0  0  0  0  0  0  0  0  0  # atno 17394 bound_to 11000
  140.5651  134.0497  155.7411 LP  0  0  0  0  0  0  0  0  0  0  0  0  # atno 17395 bound_to 11000

$$$$
