AV-unprocessed.smi:72|AV-procd|sdf|684|dock7
  -GOLD-   2262016593D 1   1.00000     0.00000
 Structure written by MMmdl.
 29 30  0  0  0  0  0  0  0  0  1 V2000
  145.4134  142.6983  154.4247 N   0  0  0  0  0  0  0  0  0  0  0  0
  146.4258  141.9103  154.3546 C   0  0  0  0  0  0  0  0  0  0  0  0
  147.6706  142.1311  154.9618 N   0  0  0  0  0  0  0  0  0  0  0  0
  148.6092  141.2519  154.7910 C   0  0  0  0  0  0  0  0  0  0  0  0
  148.4239  140.0573  153.9824 N   0  0  0  0  0  0  0  0  0  0  0  0
  149.5754  139.0709  153.8623 C   0  0  1  0  0  0  0  0  0  0  0  0
  150.7422  139.6328  154.3902 O   0  0  0  0  0  0  0  0  0  0  0  0
  151.2730  138.8104  155.4303 C   0  0  2  0  0  0  0  0  0  0  0  0
  152.8068  138.9247  155.4964 C   0  0  0  0  0  0  0  0  0  0  0  0
  153.2545  138.7327  156.8213 O   0  0  0  0  0  0  0  0  0  0  0  0
  150.7233  137.4077  155.1292 C   0  0  2  0  0  0  0  0  0  0  0  0
  151.5410  136.7264  154.1940 O   0  0  0  0  0  0  0  0  0  0  0  0
  149.3580  137.6880  154.5176 C   0  0  1  0  0  0  0  0  0  0  0  0
  148.3406  137.6455  155.4999 O   0  0  0  0  0  0  0  0  0  0  0  0
  147.1557  139.8023  153.3942 C   0  0  0  0  0  0  0  0  0  0  0  0
  146.9122  138.7946  152.7345 O   0  0  0  0  0  0  0  0  0  0  0  0
  146.2158  140.7500  153.6002 N   0  0  0  0  0  0  0  0  0  0  0  0
  149.7577  138.9652  152.7919 H   0  0  0  0  0  0  0  0  0  0  0  0
  150.8481  139.1269  156.3830 H   0  0  0  0  0  0  0  0  0  0  0  0
  150.6614  136.7939  156.0289 H   0  0  0  0  0  0  0  0  0  0  0  0
  149.0951  136.9619  153.7470 H   0  0  0  0  0  0  0  0  0  0  0  0
  145.6421  143.5084  154.9829 H   0  0  0  0  0  0  0  0  0  0  0  0
  149.5984  141.3567  155.2391 H   0  0  0  0  0  0  0  0  0  0  0  0
  153.2681  138.1484  154.8852 H   0  0  0  0  0  0  0  0  0  0  0  0
  153.1515  139.8876  155.1179 H   0  0  0  0  0  0  0  0  0  0  0  0
  152.5071  138.5402  157.3667 H   0  0  0  0  0  0  0  0  0  0  0  0
  151.1081  136.7354  153.3541 H   0  0  0  0  0  0  0  0  0  0  0  0
  148.4431  138.3908  156.0710 H   0  0  0  0  0  0  0  0  0  0  0  0
  145.3060  140.6033  153.1880 H   0  0  0  0  0  0  0  0  0  0  0  0
  1  2  2  0  0  0  0
  1 22  1  0  0  0  0
  2 17  1  0  0  0  0
  2  3  1  0  0  0  0
  3  4  2  0  0  0  0
  4  5  1  0  0  0  0
  4 23  1  0  0  0  0
  5  6  1  0  0  0  0
  5 15  1  0  0  0  0
  6 18  1  0  0  0  0
  6 13  1  0  0  0  0
  6  7  1  0  0  0  0
  7  8  1  0  0  0  0
  8 19  1  0  0  0  0
  8  9  1  0  0  0  0
  8 11  1  0  0  0  0
  9 10  1  0  0  0  0
  9 24  1  0  0  0  0
  9 25  1  0  0  0  0
 10 26  1  0  0  0  0
 11 20  1  0  0  0  0
 11 12  1  0  0  0  0
 11 13  1  0  0  0  0
 12 27  1  0  0  0  0
 13 21  1  0  0  0  0
 13 14  1  0  0  0  0
 14 28  1  0  0  0  0
 15 16  2  0  0  0  0
 15 17  1  0  0  0  0
 17 29  1  0  0  0  0
M  END
> <s_m_source_file>
AV-unprocessed.smi

> <i_m_source_file_index>
72

> <i_lp_mmshare_version>
43012

> <i_f3d_flags>
0

> <s_epik_input>
W05IMl1jMW5bY0hdbihjKD1PKW4xKVtDQEBIXTJPW0NASF0oW0NIMl1bT0hdKVtDQEBIXShbT0hdKVtDQEhdMltPSF0=

> <s_epik_cmdline>
J2VwaWtfcHl0aG9uJywgJy1waCcsICc3LjAnLCAnLXRuJywgJzgnLCAnLW1hJywgJzIwMCcsICctbWV0YWxfYmluZGluZycsICctaW1hZScsICc8aW5maWxlLm1hZT4nLCAnLW9tYWUnLCAnPG91dGZpbGUubWFlPic=

> <r_lp_tautomer_probability>
7.17554e-07

> <r_epik_Ionization_Penalty>
0.0066451

> <r_epik_Ionization_Penalty_Charging>
0.00663793

> <r_epik_Ionization_Penalty_Neutral>
7.17052e-06

> <r_epik_State_Penalty>
0.419231

> <r_epik_Charging_Adjusted_Penalty>
0.425868

> <i_epik_Tot_Q>
0

> <i_epik_Tot_abs_Q>
0

> <r_epik_Metal_State_Penalty>
1.44144

> <b_epik_Metal_Only>
0

> <s_epik_Chemistry_Notes>
This compound contains an acetal/aminal-like group ( X-CH(R)-Y where X, Y are N, S, or O) that may be acid/base labile, releasing an aldehyde.

> <s_lp_Force_Field>
OPLS_2005

> <r_lp_Energy>
43.3095

> <b_lp_Chiralities_Consistent>
1

> <s_lp_Variant>
AV-unprocessed.smi:72-22

> <Gold.Version>
5.8.1

> <Gold.Id.Protein>
6NUR|6NUR_protein|mol2

> <Gold.PLP.Fitness>
36.8846

> <Gold.PLP.PLP>
-23.3623

> <Gold.PLP.part.hbond>
-5.0000

> <Gold.PLP.part.metal>
0.0000

> <Gold.PLP.part.buried>
-0.3528

> <Gold.PLP.part.nonpolar>
-19.8615

> <Gold.PLP.part.repulsive>
1.9394

> <Gold.PLP.ligand.clash>
0.0000

> <Gold.PLP.ligand.torsion>
0.5020

> <Gold.PLP.Chemscore.Hbond>
4.8323

> <Gold.PLP.Chemscore.CHOScore>
0.0000

> <Gold.PLP.Chemscore.Metal>
0.0000

> <Gold.Chemscore.Hbonds>
donor molecule, donor type, donor heavy atom, donor atom, acceptor molecule, acceptor atom, score
      L1  H    12    27       P1  7949  0.88
      L1  H    17    29       P1 10175  1.00
      P1  H  7989  7998       L1     7  1.00
      P1  H  7997  8010       L1    10  0.85
      P1  H 10752 10763       L1    12  1.00

> <Gold.PLP.Chemscore.Internal.Correction>
0.0295

> <Gold.Rescore>
     Score         DG    S(hbond)    S(metal)    S(lipo)     H(rot)  DE(clash)    DE(int)     intcor
      9.47     -10.96       3.83        0.00      26.36       4.06       0.75       0.74       ----

> <Gold.Chemscore.Fitness>
9.4683

> <Gold.Chemscore.DG>
-10.9610

> <Gold.Chemscore.ZeroCoef>
-5.4800

> <Gold.Chemscore.Hbond>
3.8296

> <Gold.Chemscore.Metal>
0.0000

> <Gold.Chemscore.Lipo>
26.3566

> <Gold.Chemscore.Internal_Hbond>
0.0000

> <Gold.Chemscore.DEClash>
0.7534

> <Gold.Chemscore.DEInternal>
0.7393

> <Gold.Chemscore.Rot>
4.0600

> <Gold.Chemscore.Internal.Correction>
   9.000000E+99

> <Gold.Chemscore.Hbonds>
donor molecule, donor type, donor heavy atom, donor atom, acceptor molecule, acceptor atom, score
      L1  H    12    27       P1  7949  0.33
      L1  H    17    29       P1 10175  0.88
      P1  H  7989  7998       L1     7  0.98
      P1  H  7997  8010       L1    10  0.14
      P1  H 10752 10763       L1    12  0.78

> <Gold.Chemscore.Hbond.Weighted>
-12.7909

> <Gold.Chemscore.Metal.Weighted>
-0.0000

> <Gold.Chemscore.Lipo.Weighted>
-3.0837

> <Gold.Chemscore.Internal_Hbond.Weighted>
0.0000

> <Gold.Chemscore.DEClash.Weighted>
0.7534

> <Gold.Chemscore.DEInternal.Weighted>
0.7393

> <Gold.Chemscore.Rot.Weighted>
10.3936

> <Gold.Chemscore.Internal.Correction.Weighted>
   9.000000E+99

> <Gold.Protein.RotatedTorsions>
[ 6907 6896 6895 6894 ] final   18.17 input  -60.11 | X-H torsion
[ 7974 7965 7964 7962 ] final   91.45 input  175.53 | X-H torsion
[ 8008 7997 7996 7995 ] final   45.77 input   59.86 | X-H torsion
[ 10167 10162 10161 10158 ] final  -68.32 input  -65.29 | X-H torsion
[ 10718 10713 10712 10709 ] final -115.57 input   66.30 | X-H torsion
[ 10763 10752 10751 10750 ] final   34.14 input  -60.55 | X-H torsion
[ 11005 11000 10999 10996 ] final   61.28 input  -57.11 | X-H torsion

> <Gold.Protein.ActiveResidues>
 VAL166  LYS551  ARG553  GLY616  TRP617  ASP618  TYR619  PRO620  LYS621  CYS622 
 ASP623  PHE694  ASN695  SER759  ASP760  ASP761  ALA762  ILE779  LEU786  VAL792 
 PHE793  MET794  SER795  GLU796  ALA797  LYS798  CYS799  TRP800  GLU811  SER814 

> <Gold.Protein.RotatedAtoms>
  151.8610  135.0524  160.0469 H   0  0  0  0  0  0  0  0  0  0  0  0  # atno 6907 bound_to 6896
  152.2662  133.5337  159.5420 H   0  0  0  0  0  0  0  0  0  0  0  0  # atno 6908 bound_to 6896
  150.7134  134.0677  159.3896 H   0  0  0  0  0  0  0  0  0  0  0  0  # atno 6909 bound_to 6896
  145.5055  139.2276  143.2753 H   0  0  0  0  0  0  0  0  0  0  0  0  # atno 7974 bound_to 7965
  155.3414  140.3408  155.4239 H   0  0  0  0  0  0  0  0  0  0  0  0  # atno 8008 bound_to 7997
  156.1811  140.1664  156.8308 H   0  0  0  0  0  0  0  0  0  0  0  0  # atno 8009 bound_to 7997
  154.5335  140.0740  156.8369 H   0  0  0  0  0  0  0  0  0  0  0  0  # atno 8010 bound_to 7997
  140.5516  143.2312  151.6900 H   0  0  0  0  0  0  0  0  0  0  0  0  # atno 10167 bound_to 10162
  156.0904  130.6088  150.8923 H   0  0  0  0  0  0  0  0  0  0  0  0  # atno 10718 bound_to 10713
  153.0178  135.6368  154.1622 H   0  0  0  0  0  0  0  0  0  0  0  0  # atno 10763 bound_to 10752
  154.1360  135.2837  155.3175 H   0  0  0  0  0  0  0  0  0  0  0  0  # atno 10764 bound_to 10752
  154.6160  135.5541  153.7585 H   0  0  0  0  0  0  0  0  0  0  0  0  # atno 10765 bound_to 10752
  140.0172  134.6207  155.9692 H   0  0  0  0  0  0  0  0  0  0  0  0  # atno 11005 bound_to 11000
  146.2199  140.5859  142.9022 LP  0  0  0  0  0  0  0  0  0  0  0  0  # atno 17320 bound_to 7965
  144.7756  140.5732  143.6640 LP  0  0  0  0  0  0  0  0  0  0  0  0  # atno 17321 bound_to 7965
  139.5030  144.3808  152.0378 LP  0  0  0  0  0  0  0  0  0  0  0  0  # atno 17342 bound_to 10162
  140.2926  144.3737  150.6084 LP  0  0  0  0  0  0  0  0  0  0  0  0  # atno 17343 bound_to 10162
  157.6052  131.0939  150.8892 LP  0  0  0  0  0  0  0  0  0  0  0  0  # atno 17370 bound_to 10713
  156.9042  130.5257  149.5282 LP  0  0  0  0  0  0  0  0  0  0  0  0  # atno 17371 bound_to 10713
  141.1750  133.6540  156.4796 LP  0  0  0  0  0  0  0  0  0  0  0  0  # atno 17394 bound_to 11000
  140.4450  134.6981  157.5011 LP  0  0  0  0  0  0  0  0  0  0  0  0  # atno 17395 bound_to 11000

$$$$
