AV-unprocessed.smi:1768|AV-procd|sdf|7150|dock7
  -GOLD-   22720 8393D 1   1.00000     0.00000
 Structure written by MMmdl.
 32 33  0  0  0  0  0  0  0  0  2 V2000
  147.5980  137.1310  159.7289 C   0  0  0  0  0  0  0  0  0  0  0  0
  148.9175  137.2563  159.0479 C   0  0  0  0  0  0  0  0  0  0  0  0
  149.9149  136.3904  159.2428 N   0  0  0  0  0  0  0  0  0  0  0  0
  151.0409  136.7139  158.4994 N   0  0  0  0  0  0  0  0  0  0  0  0
  150.8828  137.8213  157.7606 C   0  0  0  0  0  0  0  0  0  0  0  0
  151.8545  138.3030  156.9681 N   0  5  0  0  0  0  0  0  0  0  0  0
  151.6622  139.4558  156.2874 C   0  0  0  0  0  0  0  0  0  0  0  0
  151.6540  139.5852  155.0612 O   0  0  0  0  0  0  0  0  0  0  0  0
  151.4775  140.5227  157.0792 N   0  0  0  0  0  0  0  0  0  0  0  0
  151.2556  141.9040  156.6521 C   0  0  1  0  0  0  0  0  0  0  0  0
  149.9209  141.9776  155.8961 C   0  0  0  0  0  0  0  0  0  0  0  0
  151.2763  142.8541  157.8674 C   0  0  1  0  0  0  0  0  0  0  0  0
  152.3533  142.5547  158.9107 C   0  0  0  0  0  0  0  0  0  0  0  0
  152.5209  143.8828  159.6279 C   0  0  0  0  0  0  0  0  0  0  0  0
  151.9592  144.9098  158.6400 C   0  0  0  0  0  0  0  0  0  0  0  0
  151.6192  144.1736  157.4718 O   0  0  0  0  0  0  0  0  0  0  0  0
  149.2841  138.5491  157.9184 S   0  0  0  0  0  0  0  0  0  0  0  0
  147.7400  136.9407  160.7930 H   0  0  0  0  0  0  0  0  0  0  0  0
  147.0325  136.3057  159.2960 H   0  0  0  0  0  0  0  0  0  0  0  0
  147.0225  138.0494  159.6131 H   0  0  0  0  0  0  0  0  0  0  0  0
  151.4941  140.3581  158.0748 H   0  0  0  0  0  0  0  0  0  0  0  0
  152.0407  142.2093  155.9583 H   0  0  0  0  0  0  0  0  0  0  0  0
  149.7318  142.9857  155.5271 H   0  0  0  0  0  0  0  0  0  0  0  0
  149.0848  141.6954  156.5369 H   0  0  0  0  0  0  0  0  0  0  0  0
  149.9213  141.3088  155.0347 H   0  0  0  0  0  0  0  0  0  0  0  0
  150.2960  142.8753  158.3478 H   0  0  0  0  0  0  0  0  0  0  0  0
  152.0803  141.7402  159.5824 H   0  0  0  0  0  0  0  0  0  0  0  0
  153.2886  142.2856  158.4177 H   0  0  0  0  0  0  0  0  0  0  0  0
  151.9487  143.8992  160.5562 H   0  0  0  0  0  0  0  0  0  0  0  0
  153.5659  144.0745  159.8732 H   0  0  0  0  0  0  0  0  0  0  0  0
  151.0625  145.3808  159.0449 H   0  0  0  0  0  0  0  0  0  0  0  0
  152.6775  145.6947  158.4027 H   0  0  0  0  0  0  0  0  0  0  0  0
  1  2  1  0  0  0  0
  1 18  1  0  0  0  0
  1 19  1  0  0  0  0
  1 20  1  0  0  0  0
  2 17  1  0  0  0  0
  2  3  2  0  0  0  0
  3  4  1  0  0  0  0
  4  5  2  0  0  0  0
  5  6  1  0  0  0  0
  5 17  1  0  0  0  0
  6  7  1  0  0  0  0
  7  8  2  0  0  0  0
  7  9  1  0  0  0  0
  9 10  1  0  0  0  0
  9 21  1  0  0  0  0
 10 11  1  0  0  0  0
 10 12  1  0  0  0  0
 10 22  1  0  0  0  0
 11 23  1  0  0  0  0
 11 24  1  0  0  0  0
 11 25  1  0  0  0  0
 12 16  1  0  0  0  0
 12 13  1  0  0  0  0
 12 26  1  0  0  0  0
 13 14  1  0  0  0  0
 13 27  1  0  0  0  0
 13 28  1  0  0  0  0
 14 15  1  0  0  0  0
 14 29  1  0  0  0  0
 14 30  1  0  0  0  0
 15 16  1  0  0  0  0
 15 31  1  0  0  0  0
 15 32  1  0  0  0  0
M  CHG  1   6  -1
M  END
> <s_m_source_file>
AV-unprocessed.smi

> <i_m_source_file_index>
1768

> <i_lp_mmshare_version>
43012

> <i_f3d_flags>
0

> <s_epik_input>
W0NIM11jMW5uYyhzMSlbTkhdQyg9TylbTkhdW0NASF0oW0NIM10pW0NAQEhdMltDSDJdW0NIMl1bQ0gyXU8y

> <s_epik_cmdline>
J2VwaWtfcHl0aG9uJywgJy1waCcsICc3LjAnLCAnLXRuJywgJzgnLCAnLW1hJywgJzIwMCcsICctbWV0YWxfYmluZGluZycsICctaW1hZScsICc8aW5maWxlLm1hZT4nLCAnLW9tYWUnLCAnPG91dGZpbGUubWFlPic=

> <r_lp_tautomer_probability>
1

> <r_epik_Ionization_Penalty>
4.3376

> <r_epik_Ionization_Penalty_Charging>
4.19392

> <r_epik_Ionization_Penalty_Neutral>
0.143681

> <r_epik_State_Penalty>
4.19342

> <r_epik_Charging_Adjusted_Penalty>
8.38735

> <i_epik_Tot_Q>
-1

> <i_epik_Tot_abs_Q>
1

> <r_epik_Metal_State_Penalty>
0.686065

> <b_epik_Metal_Only>
1

> <s_lp_Force_Field>
OPLS_2005

> <r_lp_Energy>
15.6479

> <b_lp_Chiralities_Consistent>
1

> <s_lp_Variant>
AV-unprocessed.smi:1768-8

> <Gold.Version>
5.8.1

> <Gold.Id.Protein>
6NUR|6NUR_protein|mol2

> <Gold.PLP.Fitness>
33.5028

> <Gold.PLP.PLP>
-29.5623

> <Gold.PLP.part.hbond>
-3.0000

> <Gold.PLP.part.metal>
0.0000

> <Gold.PLP.part.buried>
-4.9184

> <Gold.PLP.part.nonpolar>
-21.9911

> <Gold.PLP.part.repulsive>
0.2786

> <Gold.PLP.ligand.clash>
0.0000

> <Gold.PLP.ligand.torsion>
1.0498

> <Gold.PLP.Chemscore.Hbond>
2.0000

> <Gold.PLP.Chemscore.CHOScore>
0.0000

> <Gold.PLP.Chemscore.Metal>
0.0000

> <Gold.Chemscore.Hbonds>
donor molecule, donor type, donor heavy atom, donor atom, acceptor molecule, acceptor atom, score
      P1  H  6896  6909       L1     3  0.35
      P1  H  7989  7998       L1     8  1.00

> <Gold.PLP.Chemscore.Internal.Correction>
0.0401

> <Gold.Rescore>
     Score         DG    S(hbond)    S(metal)    S(lipo)     H(rot)  DE(clash)    DE(int)     intcor
     13.92     -17.24       1.91        0.00      74.01       1.28       1.38       1.94       ----

> <Gold.Chemscore.Fitness>
13.9189

> <Gold.Chemscore.DG>
-17.2420

> <Gold.Chemscore.ZeroCoef>
-5.4800

> <Gold.Chemscore.Hbond>
1.9081

> <Gold.Chemscore.Metal>
0.0000

> <Gold.Chemscore.Lipo>
74.0128

> <Gold.Chemscore.Internal_Hbond>
0.0000

> <Gold.Chemscore.DEClash>
1.3791

> <Gold.Chemscore.DEInternal>
1.9441

> <Gold.Chemscore.Rot>
1.2776

> <Gold.Chemscore.Internal.Correction>
   9.000000E+99

> <Gold.Chemscore.Hbonds>
donor molecule, donor type, donor heavy atom, donor atom, acceptor molecule, acceptor atom, score
      P1  H  6896  6909       L1     3  0.01
      P1  H  7989  7998       L1     8  0.93

> <Gold.Chemscore.Hbond.Weighted>
-6.3731

> <Gold.Chemscore.Metal.Weighted>
-0.0000

> <Gold.Chemscore.Lipo.Weighted>
-8.6595

> <Gold.Chemscore.Internal_Hbond.Weighted>
0.0000

> <Gold.Chemscore.DEClash.Weighted>
1.3791

> <Gold.Chemscore.DEInternal.Weighted>
1.9441

> <Gold.Chemscore.Rot.Weighted>
3.2706

> <Gold.Chemscore.Internal.Correction.Weighted>
   9.000000E+99

> <Gold.Protein.RotatedTorsions>
[ 6907 6896 6895 6894 ] final   64.35 input  -60.11 | X-H torsion
[ 7974 7965 7964 7962 ] final -105.91 input  175.53 | X-H torsion
[ 8008 7997 7996 7995 ] final   18.15 input   59.86 | X-H torsion
[ 10167 10162 10161 10158 ] final  -68.66 input  -65.29 | X-H torsion
[ 10718 10713 10712 10709 ] final  -56.21 input   66.30 | X-H torsion
[ 10763 10752 10751 10750 ] final  -69.60 input  -60.55 | X-H torsion
[ 11005 11000 10999 10996 ] final  -32.25 input  -57.11 | X-H torsion

> <Gold.Protein.ActiveResidues>
 VAL166  LYS551  ARG553  GLY616  TRP617  ASP618  TYR619  PRO620  LYS621  CYS622 
 ASP623  PHE694  ASN695  SER759  ASP760  ASP761  ALA762  ILE779  LEU786  VAL792 
 PHE793  MET794  SER795  GLU796  ALA797  LYS798  CYS799  TRP800  GLU811  SER814 

> <Gold.Protein.RotatedAtoms>
  152.4324  134.5751  159.9931 H   0  0  0  0  0  0  0  0  0  0  0  0  # atno 6907 bound_to 6896
  151.5871  133.3365  159.3028 H   0  0  0  0  0  0  0  0  0  0  0  0  # atno 6908 bound_to 6896
  150.8219  134.7466  159.6844 H   0  0  0  0  0  0  0  0  0  0  0  0  # atno 6909 bound_to 6896
  145.2245  140.9147  143.3240 H   0  0  0  0  0  0  0  0  0  0  0  0  # atno 7974 bound_to 7965
  154.9017  140.3001  155.5314 H   0  0  0  0  0  0  0  0  0  0  0  0  # atno 8008 bound_to 7997
  156.3018  140.2405  156.3981 H   0  0  0  0  0  0  0  0  0  0  0  0  # atno 8009 bound_to 7997
  154.8514  140.0409  157.1595 H   0  0  0  0  0  0  0  0  0  0  0  0  # atno 8010 bound_to 7997
  140.5490  143.2312  151.6946 H   0  0  0  0  0  0  0  0  0  0  0  0  # atno 10167 bound_to 10162
  156.1306  130.4159  150.0275 H   0  0  0  0  0  0  0  0  0  0  0  0  # atno 10718 bound_to 10713
  154.4057  135.6020  153.5923 H   0  0  0  0  0  0  0  0  0  0  0  0  # atno 10763 bound_to 10752
  152.9789  135.5917  154.4130 H   0  0  0  0  0  0  0  0  0  0  0  0  # atno 10764 bound_to 10752
  154.3935  135.2842  155.2118 H   0  0  0  0  0  0  0  0  0  0  0  0  # atno 10765 bound_to 10752
  140.9536  133.7206  156.1259 H   0  0  0  0  0  0  0  0  0  0  0  0  # atno 11005 bound_to 11000
  144.9734  139.3856  143.6297 LP  0  0  0  0  0  0  0  0  0  0  0  0  # atno 17320 bound_to 7965
  146.3368  139.8843  142.8819 LP  0  0  0  0  0  0  0  0  0  0  0  0  # atno 17321 bound_to 7965
  139.5019  144.3848  152.0340 LP  0  0  0  0  0  0  0  0  0  0  0  0  # atno 17342 bound_to 10162
  140.2963  144.3697  150.6073 LP  0  0  0  0  0  0  0  0  0  0  0  0  # atno 17343 bound_to 10162
  156.8188  130.9351  151.3642 LP  0  0  0  0  0  0  0  0  0  0  0  0  # atno 17370 bound_to 10713
  157.6484  130.8864  149.9585 LP  0  0  0  0  0  0  0  0  0  0  0  0  # atno 17371 bound_to 10713
  140.7567  134.3984  157.5532 LP  0  0  0  0  0  0  0  0  0  0  0  0  # atno 17394 bound_to 11000
  139.8855  134.8935  156.2638 LP  0  0  0  0  0  0  0  0  0  0  0  0  # atno 17395 bound_to 11000

$$$$
