AV-unprocessed.smi:3141|AV-procd|sdf|11968|dock6
  -GOLD-   2272017363D 1   1.00000     0.00000
 Structure written by MMmdl.
 35 37  0  0  0  0  0  0  0  0  1 V2000
  147.4995  142.8247  159.7465 O   0  0  0  0  0  0  0  0  0  0  0  0
  147.8027  143.1086  158.5876 C   0  0  0  0  0  0  0  0  0  0  0  0
  146.9267  143.1998  157.5783 N   0  0  0  0  0  0  0  0  0  0  0  0
  145.5199  142.9865  157.6839 C   0  0  0  0  0  0  0  0  0  0  0  0
  144.7228  142.9053  156.4003 C   0  0  0  0  0  0  0  0  0  0  0  0
  144.6056  144.1214  157.2770 C   0  0  0  0  0  0  0  0  0  0  0  0
  149.0534  143.3636  158.1811 N   0  0  0  0  0  0  0  0  0  0  0  0
  150.2428  143.3198  159.0341 C   0  0  2  0  0  0  0  0  0  0  0  0
  150.5383  144.7150  159.6239 C   0  0  0  0  0  0  0  0  0  0  0  0
  151.8048  145.2345  158.9265 C   0  0  0  0  0  0  0  0  0  0  0  0
  152.0389  144.3001  157.7396 C   0  0  0  0  0  0  0  0  0  0  0  0
  151.5091  142.9501  158.2343 C   0  0  2  0  0  0  0  0  0  0  0  0
  151.3077  141.9374  157.2020 N   0  0  0  0  0  0  0  0  0  0  0  0
  151.8059  140.6394  157.2165 C   0  0  0  0  0  0  0  0  0  0  0  0
  151.4095  140.0459  156.0403 C   0  0  0  0  0  0  0  0  0  0  0  0
  150.6938  140.9610  155.2741 N   0  0  0  0  0  0  0  0  0  0  0  0
  150.6863  142.0595  156.0179 C   0  0  0  0  0  0  0  0  0  0  0  0
  147.2810  143.4378  156.6635 H   0  0  0  0  0  0  0  0  0  0  0  0
  145.1693  142.3614  158.5038 H   0  0  0  0  0  0  0  0  0  0  0  0
  145.2593  143.0140  155.4596 H   0  0  0  0  0  0  0  0  0  0  0  0
  143.8781  142.2196  156.3775 H   0  0  0  0  0  0  0  0  0  0  0  0
  143.6831  144.2475  157.8399 H   0  0  0  0  0  0  0  0  0  0  0  0
  145.0635  145.0424  156.9211 H   0  0  0  0  0  0  0  0  0  0  0  0
  149.2011  143.5866  157.2077 H   0  0  0  0  0  0  0  0  0  0  0  0
  150.0871  142.5884  159.8294 H   0  0  0  0  0  0  0  0  0  0  0  0
  149.7050  145.4034  159.4744 H   0  0  0  0  0  0  0  0  0  0  0  0
  150.7027  144.6514  160.7001 H   0  0  0  0  0  0  0  0  0  0  0  0
  151.7121  146.2761  158.6179 H   0  0  0  0  0  0  0  0  0  0  0  0
  152.6501  145.1702  159.6129 H   0  0  0  0  0  0  0  0  0  0  0  0
  151.4578  144.6494  156.8848 H   0  0  0  0  0  0  0  0  0  0  0  0
  153.0871  144.2599  157.4413 H   0  0  0  0  0  0  0  0  0  0  0  0
  152.2422  142.5445  158.9337 H   0  0  0  0  0  0  0  0  0  0  0  0
  152.3805  140.2531  158.0458 H   0  0  0  0  0  0  0  0  0  0  0  0
  151.5931  139.0428  155.6846 H   0  0  0  0  0  0  0  0  0  0  0  0
  150.2126  142.9717  155.6866 H   0  0  0  0  0  0  0  0  0  0  0  0
  1  2  2  0  0  0  0
  2  3  1  0  0  0  0
  2  7  1  0  0  0  0
  3  4  1  0  0  0  0
  3 18  1  0  0  0  0
  4  6  1  0  0  0  0
  4  5  1  0  0  0  0
  4 19  1  0  0  0  0
  5  6  1  0  0  0  0
  5 20  1  0  0  0  0
  5 21  1  0  0  0  0
  6 22  1  0  0  0  0
  6 23  1  0  0  0  0
  7  8  1  0  0  0  0
  7 24  1  0  0  0  0
  8 12  1  0  0  0  0
  8  9  1  0  0  0  0
  8 25  1  0  0  0  0
  9 10  1  0  0  0  0
  9 26  1  0  0  0  0
  9 27  1  0  0  0  0
 10 11  1  0  0  0  0
 10 28  1  0  0  0  0
 10 29  1  0  0  0  0
 11 12  1  0  0  0  0
 11 30  1  0  0  0  0
 11 31  1  0  0  0  0
 12 13  1  0  0  0  0
 12 32  1  0  0  0  0
 13 17  1  0  0  0  0
 13 14  1  0  0  0  0
 14 15  2  0  0  0  0
 14 33  1  0  0  0  0
 15 16  1  0  0  0  0
 15 34  1  0  0  0  0
 16 17  2  0  0  0  0
 17 35  1  0  0  0  0
M  END
> <s_m_source_file>
AV-unprocessed.smi

> <i_m_source_file_index>
3141

> <i_lp_mmshare_version>
43012

> <i_f3d_flags>
0

> <s_epik_input>
W0NIMl0xW0NIMl1bQ0hdMVtOSF1DKD1PKVtOSF1bQ0BASF0yW0NIMl1bQ0gyXVtDSDJdW0NASF0ybjNbY0hdW2NIXW5bY0hdMw==

> <s_epik_cmdline>
J2VwaWtfcHl0aG9uJywgJy1waCcsICc3LjAnLCAnLXRuJywgJzgnLCAnLW1hJywgJzIwMCcsICctbWV0YWxfYmluZGluZycsICctaW1hZScsICc8aW5maWxlLm1hZT4nLCAnLW9tYWUnLCAnPG91dGZpbGUubWFlPic=

> <r_lp_tautomer_probability>
1

> <r_epik_Ionization_Penalty>
0.728419

> <r_epik_Ionization_Penalty_Charging>
0.728357

> <r_epik_Ionization_Penalty_Neutral>
6.27871e-05

> <r_epik_State_Penalty>
0.753408

> <r_epik_Charging_Adjusted_Penalty>
1.48176

> <i_epik_Tot_Q>
0

> <i_epik_Tot_abs_Q>
0

> <r_epik_Metal_State_Penalty>
0.332413

> <b_epik_Metal_Only>
0

> <s_lp_Force_Field>
OPLS_2005

> <r_lp_Energy>
36.3958

> <b_lp_Chiralities_Consistent>
1

> <s_lp_Variant>
AV-unprocessed.smi:3141-7

> <Gold.Version>
5.8.1

> <Gold.Id.Protein>
6NUR|6NUR_protein|mol2

> <Gold.PLP.Fitness>
42.7734

> <Gold.PLP.PLP>
-32.6425

> <Gold.PLP.part.hbond>
-6.7692

> <Gold.PLP.part.metal>
0.0000

> <Gold.PLP.part.buried>
-0.7501

> <Gold.PLP.part.nonpolar>
-24.6436

> <Gold.PLP.part.repulsive>
0.2242

> <Gold.PLP.ligand.clash>
0.0000

> <Gold.PLP.ligand.torsion>
0.6264

> <Gold.PLP.Chemscore.Hbond>
2.7739

> <Gold.PLP.Chemscore.CHOScore>
1.0000

> <Gold.PLP.Chemscore.Metal>
0.0000

> <Gold.Chemscore.Hbonds>
donor molecule, donor type, donor heavy atom, donor atom, acceptor molecule, acceptor atom, score
      L1  H     7    24       P1  8028  0.99
      P1  H  6933  6944       L1     1  0.74
      P1  H  6934  6946       L1     1  0.27
      P1  H  7989  7998       L1    16  0.74
      L1  C    17    35       P1  8028  1.00

> <Gold.PLP.Chemscore.Internal.Correction>
0.0621

> <Gold.Rescore>
     Score         DG    S(hbond)    S(metal)    S(lipo)     H(rot)  DE(clash)    DE(int)     intcor
     12.96     -13.96       1.21        0.00      72.40       1.57       0.02       0.98       ----

> <Gold.Chemscore.Fitness>
12.9598

> <Gold.Chemscore.DG>
-13.9588

> <Gold.Chemscore.ZeroCoef>
-5.4800

> <Gold.Chemscore.Hbond>
1.2061

> <Gold.Chemscore.Metal>
0.0000

> <Gold.Chemscore.Lipo>
72.4021

> <Gold.Chemscore.Internal_Hbond>
0.0000

> <Gold.Chemscore.DEClash>
0.0162

> <Gold.Chemscore.DEInternal>
0.9827

> <Gold.Chemscore.Rot>
1.5705

> <Gold.Chemscore.Internal.Correction>
   9.000000E+99

> <Gold.Chemscore.Hbonds>
donor molecule, donor type, donor heavy atom, donor atom, acceptor molecule, acceptor atom, score
      L1  H     7    24       P1  8028  0.57
      P1  H  6933  6944       L1     1  0.70
      P1  H  6934  6946       L1     1  0.28
      P1  H  7989  7998       L1    16  0.28

> <Gold.Chemscore.Hbond.Weighted>
-4.0283

> <Gold.Chemscore.Metal.Weighted>
-0.0000

> <Gold.Chemscore.Lipo.Weighted>
-8.4710

> <Gold.Chemscore.Internal_Hbond.Weighted>
0.0000

> <Gold.Chemscore.DEClash.Weighted>
0.0162

> <Gold.Chemscore.DEInternal.Weighted>
0.9827

> <Gold.Chemscore.Rot.Weighted>
4.0206

> <Gold.Chemscore.Internal.Correction.Weighted>
   9.000000E+99

> <Gold.Protein.RotatedTorsions>
[ 6907 6896 6895 6894 ] final -150.87 input  -60.11 | X-H torsion
[ 7974 7965 7964 7962 ] final   45.98 input  175.53 | X-H torsion
[ 8008 7997 7996 7995 ] final  -71.40 input   59.86 | X-H torsion
[ 10167 10162 10161 10158 ] final   54.96 input  -65.29 | X-H torsion
[ 10718 10713 10712 10709 ] final  -37.65 input   66.30 | X-H torsion
[ 10763 10752 10751 10750 ] final   22.71 input  -60.55 | X-H torsion
[ 11005 11000 10999 10996 ] final -173.57 input  -57.11 | X-H torsion

> <Gold.Protein.ActiveResidues>
 VAL166  LYS551  ARG553  GLY616  TRP617  ASP618  TYR619  PRO620  LYS621  CYS622 
 ASP623  PHE694  ASN695  SER759  ASP760  ASP761  ALA762  ILE779  LEU786  VAL792 
 PHE793  MET794  SER795  GLU796  ALA797  LYS798  CYS799  TRP800  GLU811  SER814 

> <Gold.Protein.RotatedAtoms>
  151.2049  133.4589  159.2596 H   0  0  0  0  0  0  0  0  0  0  0  0  # atno 6907 bound_to 6896
  151.1033  134.9985  159.8469 H   0  0  0  0  0  0  0  0  0  0  0  0  # atno 6908 bound_to 6896
  152.5445  134.1974  159.8751 H   0  0  0  0  0  0  0  0  0  0  0  0  # atno 6909 bound_to 6896
  146.0431  139.4906  142.9765 H   0  0  0  0  0  0  0  0  0  0  0  0  # atno 7974 bound_to 7965
  154.5085  140.0816  156.7942 H   0  0  0  0  0  0  0  0  0  0  0  0  # atno 8008 bound_to 7997
  155.3839  140.3429  155.4230 H   0  0  0  0  0  0  0  0  0  0  0  0  # atno 8009 bound_to 7997
  156.1544  140.1568  156.8704 H   0  0  0  0  0  0  0  0  0  0  0  0  # atno 8010 bound_to 7997
  140.2245  144.3753  150.6437 H   0  0  0  0  0  0  0  0  0  0  0  0  # atno 10167 bound_to 10162
  156.3128  130.4255  149.8034 H   0  0  0  0  0  0  0  0  0  0  0  0  # atno 10718 bound_to 10713
  153.0894  135.6642  153.9884 H   0  0  0  0  0  0  0  0  0  0  0  0  # atno 10763 bound_to 10752
  153.9484  135.2986  155.3441 H   0  0  0  0  0  0  0  0  0  0  0  0  # atno 10764 bound_to 10752
  154.7307  135.5124  153.9032 H   0  0  0  0  0  0  0  0  0  0  0  0  # atno 10765 bound_to 10752
  140.4842  134.6046  157.4931 H   0  0  0  0  0  0  0  0  0  0  0  0  # atno 11005 bound_to 11000
  145.6850  141.0180  143.1586 LP  0  0  0  0  0  0  0  0  0  0  0  0  # atno 17320 bound_to 7965
  144.7084  139.8466  143.7422 LP  0  0  0  0  0  0  0  0  0  0  0  0  # atno 17321 bound_to 7965
  140.6230  143.2178  151.6654 LP  0  0  0  0  0  0  0  0  0  0  0  0  # atno 17342 bound_to 10162
  139.5132  144.3451  152.0704 LP  0  0  0  0  0  0  0  0  0  0  0  0  # atno 17343 bound_to 10162
  156.5371  130.8283  151.3256 LP  0  0  0  0  0  0  0  0  0  0  0  0  # atno 17370 bound_to 10713
  157.7395  130.9832  150.2316 LP  0  0  0  0  0  0  0  0  0  0  0  0  # atno 17371 bound_to 10713
  139.9808  134.7141  155.9863 LP  0  0  0  0  0  0  0  0  0  0  0  0  # atno 17394 bound_to 11000
  141.1516  133.6548  156.4031 LP  0  0  0  0  0  0  0  0  0  0  0  0  # atno 17395 bound_to 11000

$$$$
