AV-unprocessed.smi:68|AV-procd|sdf|640|dock5
  -GOLD-   2262016533D 1   1.00000     0.00000
 Structure written by MMmdl.
 23 24  0  0  0  0  0  0  0  0  1 V2000
  152.5774  136.9333  160.0511 O   0  0  0  0  0  0  0  0  0  0  0  0
  152.7288  138.1530  160.0284 C   0  0  0  0  0  0  0  0  0  0  0  0
  153.6825  138.7585  160.8517 N   0  0  0  0  0  0  0  0  0  0  0  0
  153.9470  140.1278  160.9163 C   0  0  0  0  0  0  0  0  0  0  0  0
  154.8257  140.5475  161.6682 O   0  0  0  0  0  0  0  0  0  0  0  0
  153.1761  140.9733  160.0876 N   0  0  0  0  0  0  0  0  0  0  0  0
  153.4268  142.4642  160.1151 C   0  0  1  0  0  0  0  0  0  0  0  0
  152.6538  143.1649  158.9917 C   0  0  0  0  0  0  0  0  0  0  0  0
  152.1649  144.4162  159.6884 C   0  0  0  0  0  0  0  0  0  0  0  0
  151.9134  143.9028  161.1004 C   0  0  0  0  0  0  0  0  0  0  0  0
  152.9787  142.9866  161.3336 O   0  0  0  0  0  0  0  0  0  0  0  0
  152.2270  140.4138  159.2422 C   0  0  0  0  0  0  0  0  0  0  0  0
  151.9831  139.0832  159.1856 C   0  0  0  0  0  0  0  0  0  0  0  0
  151.0490  138.6149  158.3405 F   0  0  0  0  0  0  0  0  0  0  0  0
  154.2292  138.1536  161.4470 H   0  0  0  0  0  0  0  0  0  0  0  0
  154.5054  142.6227  160.0680 H   0  0  0  0  0  0  0  0  0  0  0  0
  153.2938  143.3587  158.1304 H   0  0  0  0  0  0  0  0  0  0  0  0
  151.8078  142.5505  158.6788 H   0  0  0  0  0  0  0  0  0  0  0  0
  152.9498  145.1737  159.6976 H   0  0  0  0  0  0  0  0  0  0  0  0
  151.2767  144.8460  159.2248 H   0  0  0  0  0  0  0  0  0  0  0  0
  151.9049  144.7008  161.8428 H   0  0  0  0  0  0  0  0  0  0  0  0
  150.9582  143.3797  161.1531 H   0  0  0  0  0  0  0  0  0  0  0  0
  151.6517  141.0534  158.5908 H   0  0  0  0  0  0  0  0  0  0  0  0
  1  2  2  0  0  0  0
  2 13  1  0  0  0  0
  2  3  1  0  0  0  0
  3 15  1  0  0  0  0
  3  4  1  0  0  0  0
  4  5  2  0  0  0  0
  4  6  1  0  0  0  0
  6  7  1  0  0  0  0
  6 12  1  0  0  0  0
  7 11  1  0  0  0  0
  7  8  1  0  0  0  0
  7 16  1  0  0  0  0
  8  9  1  0  0  0  0
  8 17  1  0  0  0  0
  8 18  1  0  0  0  0
  9 10  1  0  0  0  0
  9 19  1  0  0  0  0
  9 20  1  0  0  0  0
 10 11  1  0  0  0  0
 10 21  1  0  0  0  0
 10 22  1  0  0  0  0
 12 13  2  0  0  0  0
 12 23  1  0  0  0  0
 13 14  1  0  0  0  0
M  END
> <s_m_source_file>
AV-unprocessed.smi

> <i_m_source_file_index>
68

> <i_lp_mmshare_version>
43012

> <i_f3d_flags>
0

> <s_epik_input>
Tz1jMVtuSF1jKD1PKW4oW2NIXWMxRilbQ0BASF0yW0NIMl1bQ0gyXVtDSDJdTzI=

> <s_epik_cmdline>
J2VwaWtfcHl0aG9uJywgJy1waCcsICc3LjAnLCAnLXRuJywgJzgnLCAnLW1hJywgJzIwMCcsICctbWV0YWxfYmluZGluZycsICctaW1hZScsICc8aW5maWxlLm1hZT4nLCAnLW9tYWUnLCAnPG91dGZpbGUubWFlPic=

> <r_lp_tautomer_probability>
0.999537

> <r_epik_Ionization_Penalty>
0.0350763

> <r_epik_Ionization_Penalty_Charging>
0.0350763

> <r_epik_Ionization_Penalty_Neutral>
6.20402e-12

> <r_epik_State_Penalty>
0.0292209

> <r_epik_Charging_Adjusted_Penalty>
0.0642972

> <i_epik_Tot_Q>
0

> <i_epik_Tot_abs_Q>
0

> <r_epik_Metal_State_Penalty>
2.33597

> <b_epik_Metal_Only>
0

> <s_epik_Chemistry_Notes>
This compound contains an acetal/aminal-like group ( X-CH(R)-Y where X, Y are N, S, or O) that may be acid/base labile, releasing an aldehyde.

> <s_lp_Force_Field>
OPLS_2005

> <r_lp_Energy>
24.1423

> <b_lp_Chiralities_Consistent>
1

> <s_lp_Variant>
AV-unprocessed.smi:68-2

> <Gold.Version>
5.8.1

> <Gold.Id.Protein>
6NUR|6NUR_protein|mol2

> <Gold.PLP.Fitness>
33.1434

> <Gold.PLP.PLP>
-30.4834

> <Gold.PLP.part.hbond>
-1.9542

> <Gold.PLP.part.metal>
0.0000

> <Gold.PLP.part.buried>
-4.5100

> <Gold.PLP.part.nonpolar>
-24.4264

> <Gold.PLP.part.repulsive>
0.0588

> <Gold.PLP.ligand.clash>
0.0000

> <Gold.PLP.ligand.torsion>
0.1591

> <Gold.PLP.Chemscore.Hbond>
0.9913

> <Gold.PLP.Chemscore.CHOScore>
0.0000

> <Gold.PLP.Chemscore.Metal>
0.0000

> <Gold.Chemscore.Hbonds>
donor molecule, donor type, donor heavy atom, donor atom, acceptor molecule, acceptor atom, score
      P1  H  6896  6909       L1     1  1.00

> <Gold.PLP.Chemscore.Internal.Correction>
0.0045

> <Gold.Rescore>
     Score         DG    S(hbond)    S(metal)    S(lipo)     H(rot)  DE(clash)    DE(int)     intcor
     11.22     -12.03       1.00        0.00      49.38       1.00       0.00       0.81       ----

> <Gold.Chemscore.Fitness>
11.2224

> <Gold.Chemscore.DG>
-12.0314

> <Gold.Chemscore.ZeroCoef>
-5.4800

> <Gold.Chemscore.Hbond>
0.9983

> <Gold.Chemscore.Metal>
0.0000

> <Gold.Chemscore.Lipo>
49.3770

> <Gold.Chemscore.Internal_Hbond>
0.0000

> <Gold.Chemscore.DEClash>
0.0000

> <Gold.Chemscore.DEInternal>
0.8089

> <Gold.Chemscore.Rot>
1.0000

> <Gold.Chemscore.Internal.Correction>
   9.000000E+99

> <Gold.Chemscore.Hbonds>
donor molecule, donor type, donor heavy atom, donor atom, acceptor molecule, acceptor atom, score
      P1  H  6896  6909       L1     1  0.99

> <Gold.Chemscore.Hbond.Weighted>
-3.3342

> <Gold.Chemscore.Metal.Weighted>
-0.0000

> <Gold.Chemscore.Lipo.Weighted>
-5.7771

> <Gold.Chemscore.Internal_Hbond.Weighted>
0.0000

> <Gold.Chemscore.DEClash.Weighted>
0.0000

> <Gold.Chemscore.DEInternal.Weighted>
0.8089

> <Gold.Chemscore.Rot.Weighted>
2.5600

> <Gold.Chemscore.Internal.Correction.Weighted>
   9.000000E+99

> <Gold.Protein.RotatedTorsions>
[ 6907 6896 6895 6894 ] final  146.65 input  -60.11 | X-H torsion
[ 7974 7965 7964 7962 ] final   95.67 input  175.53 | X-H torsion
[ 8008 7997 7996 7995 ] final  111.56 input   59.86 | X-H torsion
[ 10167 10162 10161 10158 ] final -169.56 input  -65.29 | X-H torsion
[ 10718 10713 10712 10709 ] final -161.78 input   66.30 | X-H torsion
[ 10763 10752 10751 10750 ] final -153.36 input  -60.55 | X-H torsion
[ 11005 11000 10999 10996 ] final   48.36 input  -57.11 | X-H torsion

> <Gold.Protein.ActiveResidues>
 VAL166  LYS551  ARG553  GLY616  TRP617  ASP618  TYR619  PRO620  LYS621  CYS622 
 ASP623  PHE694  ASN695  SER759  ASP760  ASP761  ALA762  ILE779  LEU786  VAL792 
 PHE793  MET794  SER795  GLU796  ALA797  LYS798  CYS799  TRP800  GLU811  SER814 

> <Gold.Protein.RotatedAtoms>
  152.1651  133.4607  159.4880 H   0  0  0  0  0  0  0  0  0  0  0  0  # atno 6907 bound_to 6896
  150.6912  134.2023  159.4336 H   0  0  0  0  0  0  0  0  0  0  0  0  # atno 6908 bound_to 6896
  151.9927  134.9970  160.0613 H   0  0  0  0  0  0  0  0  0  0  0  0  # atno 6909 bound_to 6896
  145.4491  139.2295  143.3050 H   0  0  0  0  0  0  0  0  0  0  0  0  # atno 7974 bound_to 7965
  156.2132  140.3017  155.9780 H   0  0  0  0  0  0  0  0  0  0  0  0  # atno 8008 bound_to 7997
  155.2671  140.0432  157.3020 H   0  0  0  0  0  0  0  0  0  0  0  0  # atno 8009 bound_to 7997
  154.5730  140.2353  155.8172 H   0  0  0  0  0  0  0  0  0  0  0  0  # atno 8010 bound_to 7997
  139.5915  144.1203  152.1639 H   0  0  0  0  0  0  0  0  0  0  0  0  # atno 10167 bound_to 10162
  156.6011  130.8811  151.2914 H   0  0  0  0  0  0  0  0  0  0  0  0  # atno 10718 bound_to 10713
  154.7932  135.3214  154.7727 H   0  0  0  0  0  0  0  0  0  0  0  0  # atno 10763 bound_to 10752
  153.8411  135.6871  153.4807 H   0  0  0  0  0  0  0  0  0  0  0  0  # atno 10764 bound_to 10752
  153.1612  135.4660  154.9716 H   0  0  0  0  0  0  0  0  0  0  0  0  # atno 10765 bound_to 10752
  140.1197  134.4845  155.8607 H   0  0  0  0  0  0  0  0  0  0  0  0  # atno 11005 bound_to 11000
  146.2514  140.5248  142.8892 LP  0  0  0  0  0  0  0  0  0  0  0  0  # atno 17320 bound_to 7965
  144.8073  140.6322  143.6438 LP  0  0  0  0  0  0  0  0  0  0  0  0  # atno 17321 bound_to 7965
  140.0779  144.5725  150.7144 LP  0  0  0  0  0  0  0  0  0  0  0  0  # atno 17342 bound_to 10162
  140.7177  143.2559  151.4381 LP  0  0  0  0  0  0  0  0  0  0  0  0  # atno 17343 bound_to 10162
  157.7279  130.9650  150.1720 LP  0  0  0  0  0  0  0  0  0  0  0  0  # atno 17370 bound_to 10713
  156.2469  130.3696  149.8275 LP  0  0  0  0  0  0  0  0  0  0  0  0  # atno 17371 bound_to 10713
  141.2149  133.6756  156.6865 LP  0  0  0  0  0  0  0  0  0  0  0  0  # atno 17394 bound_to 11000
  140.2981  134.8186  157.4074 LP  0  0  0  0  0  0  0  0  0  0  0  0  # atno 17395 bound_to 11000

$$$$
