AV-unprocessed.smi:800|AV-procd|sdf|3788|dock6
  -GOLD-   22720 1223D 1   1.00000     0.00000
 Structure written by MMmdl.
 35 36  0  0  0  0  0  0  0  0  2 V2000
  146.8558  140.3678  153.8195 C   0  0  0  0  0  0  0  0  0  0  0  0
  146.8852  141.4946  154.8639 C   0  0  0  0  0  0  0  0  0  0  0  0
  146.3560  142.8130  154.2827 C   0  0  0  0  0  0  0  0  0  0  0  0
  148.2583  141.6960  155.3247 N   0  5  0  0  0  0  0  0  0  0  0  0
  149.3610  141.1963  154.6975 C   0  0  0  0  0  0  0  0  0  0  0  0
  149.5375  140.9129  153.5074 O   0  0  0  0  0  0  0  0  0  0  0  0
  150.4773  140.9103  155.6612 C   0  0  0  0  0  0  0  0  0  0  0  0
  150.7008  141.8435  156.6157 N   0  0  0  0  0  0  0  0  0  0  0  0
  151.6874  141.6364  157.4952 C   0  0  0  0  0  0  0  0  0  0  0  0
  151.9081  142.6239  158.4644 N   0  0  0  0  0  0  0  0  0  0  0  0
  151.5645  144.0303  158.2416 C   0  0  0  0  0  0  0  0  0  0  0  0
  151.1255  144.6985  159.5556 C   0  0  0  0  0  0  0  0  0  0  0  0
  152.1373  144.5362  160.5420 O   0  0  0  0  0  0  0  0  0  0  0  0
  152.3681  143.1629  160.8322 C   0  0  0  0  0  0  0  0  0  0  0  0
  152.8553  142.4375  159.5667 C   0  0  0  0  0  0  0  0  0  0  0  0
  152.4793  140.5571  157.5168 N   0  0  0  0  0  0  0  0  0  0  0  0
  152.2644  139.6038  156.5864 C   0  0  0  0  0  0  0  0  0  0  0  0
  151.2528  139.7220  155.6153 C   0  0  0  0  0  0  0  0  0  0  0  0
  150.9931  138.4408  154.4799 Cl  0  0  0  0  0  0  0  0  0  0  0  0
  145.8425  140.2018  153.4534 H   0  0  0  0  0  0  0  0  0  0  0  0
  147.2088  139.4267  154.2428 H   0  0  0  0  0  0  0  0  0  0  0  0
  147.4849  140.6033  152.9602 H   0  0  0  0  0  0  0  0  0  0  0  0
  146.2219  141.2110  155.6824 H   0  0  0  0  0  0  0  0  0  0  0  0
  145.3295  142.7005  153.9330 H   0  0  0  0  0  0  0  0  0  0  0  0
  146.9587  143.1487  153.4382 H   0  0  0  0  0  0  0  0  0  0  0  0
  146.3615  143.6049  155.0327 H   0  0  0  0  0  0  0  0  0  0  0  0
  152.4377  144.5413  157.8346 H   0  0  0  0  0  0  0  0  0  0  0  0
  150.7619  144.1483  157.5143 H   0  0  0  0  0  0  0  0  0  0  0  0
  150.9544  145.7630  159.3956 H   0  0  0  0  0  0  0  0  0  0  0  0
  150.1844  144.2756  159.9112 H   0  0  0  0  0  0  0  0  0  0  0  0
  153.1193  143.0892  161.6186 H   0  0  0  0  0  0  0  0  0  0  0  0
  151.4576  142.7014  161.2184 H   0  0  0  0  0  0  0  0  0  0  0  0
  153.0062  141.3865  159.8114 H   0  0  0  0  0  0  0  0  0  0  0  0
  153.8250  142.8312  159.2607 H   0  0  0  0  0  0  0  0  0  0  0  0
  152.9004  138.7320  156.6268 H   0  0  0  0  0  0  0  0  0  0  0  0
  1  2  1  0  0  0  0
  1 20  1  0  0  0  0
  1 21  1  0  0  0  0
  1 22  1  0  0  0  0
  2  3  1  0  0  0  0
  2  4  1  0  0  0  0
  2 23  1  0  0  0  0
  3 24  1  0  0  0  0
  3 25  1  0  0  0  0
  3 26  1  0  0  0  0
  4  5  1  0  0  0  0
  5  6  2  0  0  0  0
  5  7  1  0  0  0  0
  7 18  1  0  0  0  0
  7  8  2  0  0  0  0
  8  9  1  0  0  0  0
  9 10  1  0  0  0  0
  9 16  2  0  0  0  0
 10 15  1  0  0  0  0
 10 11  1  0  0  0  0
 11 12  1  0  0  0  0
 11 27  1  0  0  0  0
 11 28  1  0  0  0  0
 12 13  1  0  0  0  0
 12 29  1  0  0  0  0
 12 30  1  0  0  0  0
 13 14  1  0  0  0  0
 14 15  1  0  0  0  0
 14 31  1  0  0  0  0
 14 32  1  0  0  0  0
 15 33  1  0  0  0  0
 15 34  1  0  0  0  0
 16 17  1  0  0  0  0
 17 18  2  0  0  0  0
 17 35  1  0  0  0  0
 18 19  1  0  0  0  0
M  CHG  1   4  -1
M  END
> <s_m_source_file>
AV-unprocessed.smi

> <i_m_source_file_index>
800

> <i_lp_mmshare_version>
43012

> <i_f3d_flags>
0

> <s_epik_input>
W0NIM11bQ0hdKFtDSDNdKVtOSF1DKD1PKWMxbmMobltjSF1jMUNsKU4yW0NIMl1bQ0gyXU9bQ0gyXVtDSDJdMg==

> <s_epik_cmdline>
J2VwaWtfcHl0aG9uJywgJy1waCcsICc3LjAnLCAnLXRuJywgJzgnLCAnLW1hJywgJzIwMCcsICctbWV0YWxfYmluZGluZycsICctaW1hZScsICc8aW5maWxlLm1hZT4nLCAnLW9tYWUnLCAnPG91dGZpbGUubWFlPic=

> <r_lp_tautomer_probability>
1

> <r_epik_Ionization_Penalty>
6.38192

> <r_epik_Ionization_Penalty_Charging>
6.38189

> <r_epik_Ionization_Penalty_Neutral>
2.33077e-05

> <r_epik_State_Penalty>
6.38188

> <r_epik_Charging_Adjusted_Penalty>
12.7638

> <i_epik_Tot_Q>
-1

> <i_epik_Tot_abs_Q>
1

> <r_epik_Metal_State_Penalty>
2.31349

> <b_epik_Metal_Only>
1

> <s_lp_Force_Field>
OPLS_2005

> <r_lp_Energy>
18.4653

> <b_lp_Chiralities_Consistent>
1

> <s_lp_Variant>
AV-unprocessed.smi:800-2

> <Gold.Version>
5.8.1

> <Gold.Id.Protein>
6NUR|6NUR_protein|mol2

> <Gold.PLP.Fitness>
41.2794

> <Gold.PLP.PLP>
-39.6574

> <Gold.PLP.part.hbond>
-2.9328

> <Gold.PLP.part.metal>
0.0000

> <Gold.PLP.part.buried>
-5.0252

> <Gold.PLP.part.nonpolar>
-36.2034

> <Gold.PLP.part.repulsive>
4.9478

> <Gold.PLP.ligand.clash>
0.0000

> <Gold.PLP.ligand.torsion>
1.1679

> <Gold.PLP.Chemscore.Hbond>
1.2865

> <Gold.PLP.Chemscore.CHOScore>
0.0000

> <Gold.PLP.Chemscore.Metal>
0.0000

> <Gold.Chemscore.Hbonds>
donor molecule, donor type, donor heavy atom, donor atom, acceptor molecule, acceptor atom, score
      P1  H  7989  7998       L1     6  0.28
      P1  H  8011  8017       L1     6  1.00

> <Gold.PLP.Chemscore.Internal.Correction>
0.0981

> <Gold.Rescore>
     Score         DG    S(hbond)    S(metal)    S(lipo)     H(rot)  DE(clash)    DE(int)     intcor
     12.76     -17.10       1.06        0.00      90.86       1.00       1.58       2.76       ----

> <Gold.Chemscore.Fitness>
12.7579

> <Gold.Chemscore.DG>
-17.1025

> <Gold.Chemscore.ZeroCoef>
-5.4800

> <Gold.Chemscore.Hbond>
1.0636

> <Gold.Chemscore.Metal>
0.0000

> <Gold.Chemscore.Lipo>
90.8557

> <Gold.Chemscore.Internal_Hbond>
0.0000

> <Gold.Chemscore.DEClash>
1.5835

> <Gold.Chemscore.DEInternal>
2.7611

> <Gold.Chemscore.Rot>
1.0000

> <Gold.Chemscore.Internal.Correction>
   9.000000E+99

> <Gold.Chemscore.Hbonds>
donor molecule, donor type, donor heavy atom, donor atom, acceptor molecule, acceptor atom, score
      P1  H  7989  7998       L1     6  0.07
      P1  H  8011  8017       L1     6  0.90

> <Gold.Chemscore.Hbond.Weighted>
-3.5524

> <Gold.Chemscore.Metal.Weighted>
-0.0000

> <Gold.Chemscore.Lipo.Weighted>
-10.6301

> <Gold.Chemscore.Internal_Hbond.Weighted>
0.0000

> <Gold.Chemscore.DEClash.Weighted>
1.5835

> <Gold.Chemscore.DEInternal.Weighted>
2.7611

> <Gold.Chemscore.Rot.Weighted>
2.5600

> <Gold.Chemscore.Internal.Correction.Weighted>
   9.000000E+99

> <Gold.Protein.RotatedTorsions>
[ 6907 6896 6895 6894 ] final  106.78 input  -60.11 | X-H torsion
[ 7974 7965 7964 7962 ] final  135.59 input  175.53 | X-H torsion
[ 8008 7997 7996 7995 ] final  -76.62 input   59.86 | X-H torsion
[ 10167 10162 10161 10158 ] final  -71.61 input  -65.29 | X-H torsion
[ 10718 10713 10712 10709 ] final  -95.68 input   66.30 | X-H torsion
[ 10763 10752 10751 10750 ] final -169.26 input  -60.55 | X-H torsion
[ 11005 11000 10999 10996 ] final -150.61 input  -57.11 | X-H torsion

> <Gold.Protein.ActiveResidues>
 VAL166  LYS551  ARG553  GLY616  TRP617  ASP618  TYR619  PRO620  LYS621  CYS622 
 ASP623  PHE694  ASN695  SER759  ASP760  ASP761  ALA762  ILE779  LEU786  VAL792 
 PHE793  MET794  SER795  GLU796  ALA797  LYS798  CYS799  TRP800  GLU811  SER814 

> <Gold.Protein.RotatedAtoms>
  152.5180  133.9330  159.7589 H   0  0  0  0  0  0  0  0  0  0  0  0  # atno 6907 bound_to 6896
  150.9677  133.6369  159.2750 H   0  0  0  0  0  0  0  0  0  0  0  0  # atno 6908 bound_to 6896
  151.3592  135.0906  159.9481 H   0  0  0  0  0  0  0  0  0  0  0  0  # atno 6909 bound_to 6896
  144.9648  139.4670  143.5461 H   0  0  0  0  0  0  0  0  0  0  0  0  # atno 7974 bound_to 7965
  154.5522  140.0724  156.8685 H   0  0  0  0  0  0  0  0  0  0  0  0  # atno 8008 bound_to 7997
  155.2972  140.3382  155.4231 H   0  0  0  0  0  0  0  0  0  0  0  0  # atno 8009 bound_to 7997
  156.1971  140.1707  156.7962 H   0  0  0  0  0  0  0  0  0  0  0  0  # atno 8010 bound_to 7997
  140.5259  143.2326  151.7348 H   0  0  0  0  0  0  0  0  0  0  0  0  # atno 10167 bound_to 10162
  156.0048  130.5119  150.6113 H   0  0  0  0  0  0  0  0  0  0  0  0  # atno 10718 bound_to 10713
  154.6541  135.2915  154.9949 H   0  0  0  0  0  0  0  0  0  0  0  0  # atno 10763 bound_to 10752
  154.1032  135.6573  153.4876 H   0  0  0  0  0  0  0  0  0  0  0  0  # atno 10764 bound_to 10752
  153.0393  135.5247  154.7463 H   0  0  0  0  0  0  0  0  0  0  0  0  # atno 10765 bound_to 10752
  140.7384  134.3542  157.5152 H   0  0  0  0  0  0  0  0  0  0  0  0  # atno 11005 bound_to 11000
  146.3364  139.8822  142.8822 LP  0  0  0  0  0  0  0  0  0  0  0  0  # atno 17320 bound_to 7965
  145.2645  141.0088  143.3807 LP  0  0  0  0  0  0  0  0  0  0  0  0  # atno 17321 bound_to 7965
  139.4938  144.4186  152.0002 LP  0  0  0  0  0  0  0  0  0  0  0  0  # atno 17342 bound_to 10162
  140.3286  144.3344  150.5992 LP  0  0  0  0  0  0  0  0  0  0  0  0  # atno 17343 bound_to 10162
  157.3945  131.0800  151.1364 LP  0  0  0  0  0  0  0  0  0  0  0  0  # atno 17370 bound_to 10713
  157.2045  130.6410  149.5751 LP  0  0  0  0  0  0  0  0  0  0  0  0  # atno 17371 bound_to 10713
  139.8811  134.9064  156.2923 LP  0  0  0  0  0  0  0  0  0  0  0  0  # atno 17394 bound_to 11000
  140.9859  133.7239  156.0740 LP  0  0  0  0  0  0  0  0  0  0  0  0  # atno 17395 bound_to 11000

$$$$
