AV-unprocessed.smi:898|AV-procd|sdf|4083|dock8
  -GOLD-   22720 1573D 1   1.00000     0.00000
 Structure written by MMmdl.
 34 36  0  0  0  0  0  0  0  0  1 V2000
  146.8604  137.8477  153.9332 O   0  0  0  0  0  0  0  0  0  0  0  0
  146.1917  138.3867  153.0511 C   0  0  0  0  0  0  0  0  0  0  0  0
  145.4488  137.7420  152.1344 N   0  0  0  0  0  0  0  0  0  0  0  0
  145.2626  136.3429  151.9775 C   0  0  0  0  0  0  0  0  0  0  0  0
  145.9317  135.4186  152.6804 N   0  0  0  0  0  0  0  0  0  0  0  0
  145.5549  134.1293  152.3310 N   0  0  0  0  0  0  0  0  0  0  0  0
  144.6159  134.1148  151.3771 C   0  0  0  0  0  0  0  0  0  0  0  0
  144.0478  132.8438  150.8388 C   0  0  0  0  0  0  0  0  0  0  0  0
  144.9549  131.7396  150.3465 C   0  0  0  0  0  0  0  0  0  0  0  0
  144.1080  132.5080  149.3645 C   0  0  0  0  0  0  0  0  0  0  0  0
  144.1094  135.7056  150.8179 S   0  0  0  0  0  0  0  0  0  0  0  0
  146.1119  139.7160  152.8913 N   0  0  0  0  0  0  0  0  0  0  0  0
  146.7877  140.7093  153.7220 C   0  0  2  0  0  0  0  0  0  0  0  0
  148.2934  140.3857  153.8224 C   0  0  0  0  0  0  0  0  0  0  0  0
  149.0693  141.4277  154.6445 C   0  0  0  0  0  0  0  0  0  0  0  0
  148.5668  141.5262  156.0917 C   0  0  0  0  0  0  0  0  0  0  0  0
  146.8327  142.0526  156.1502 S   0  0  0  0  0  0  0  0  0  0  0  0
  146.1200  140.7504  155.1077 C   0  0  0  0  0  0  0  0  0  0  0  0
  144.9494  138.3210  151.4759 H   0  0  0  0  0  0  0  0  0  0  0  0
  143.1518  132.5611  151.3879 H   0  0  0  0  0  0  0  0  0  0  0  0
  146.0266  131.9298  150.3406 H   0  0  0  0  0  0  0  0  0  0  0  0
  144.6639  130.7150  150.5689 H   0  0  0  0  0  0  0  0  0  0  0  0
  143.2516  131.9947  148.9319 H   0  0  0  0  0  0  0  0  0  0  0  0
  144.6221  133.1978  148.6982 H   0  0  0  0  0  0  0  0  0  0  0  0
  145.5387  140.0699  152.1396 H   0  0  0  0  0  0  0  0  0  0  0  0
  146.6662  141.6916  153.2606 H   0  0  0  0  0  0  0  0  0  0  0  0
  148.4329  139.3967  154.2610 H   0  0  0  0  0  0  0  0  0  0  0  0
  148.7264  140.3383  152.8224 H   0  0  0  0  0  0  0  0  0  0  0  0
  150.1274  141.1640  154.6497 H   0  0  0  0  0  0  0  0  0  0  0  0
  149.0006  142.4039  154.1630 H   0  0  0  0  0  0  0  0  0  0  0  0
  148.6639  140.5640  156.5953 H   0  0  0  0  0  0  0  0  0  0  0  0
  149.1680  142.2427  156.6521 H   0  0  0  0  0  0  0  0  0  0  0  0
  145.0503  140.9395  155.0102 H   0  0  0  0  0  0  0  0  0  0  0  0
  146.2306  139.7919  155.6163 H   0  0  0  0  0  0  0  0  0  0  0  0
  1  2  2  0  0  0  0
  2  3  1  0  0  0  0
  2 12  1  0  0  0  0
  3  4  1  0  0  0  0
  3 19  1  0  0  0  0
  4 11  1  0  0  0  0
  4  5  2  0  0  0  0
  5  6  1  0  0  0  0
  6  7  2  0  0  0  0
  7  8  1  0  0  0  0
  7 11  1  0  0  0  0
  8 10  1  0  0  0  0
  8  9  1  0  0  0  0
  8 20  1  0  0  0  0
  9 10  1  0  0  0  0
  9 21  1  0  0  0  0
  9 22  1  0  0  0  0
 10 23  1  0  0  0  0
 10 24  1  0  0  0  0
 12 13  1  0  0  0  0
 12 25  1  0  0  0  0
 13 18  1  0  0  0  0
 13 14  1  0  0  0  0
 13 26  1  0  0  0  0
 14 15  1  0  0  0  0
 14 27  1  0  0  0  0
 14 28  1  0  0  0  0
 15 16  1  0  0  0  0
 15 29  1  0  0  0  0
 15 30  1  0  0  0  0
 16 17  1  0  0  0  0
 16 31  1  0  0  0  0
 16 32  1  0  0  0  0
 17 18  1  0  0  0  0
 18 33  1  0  0  0  0
 18 34  1  0  0  0  0
M  END
> <s_m_source_file>
AV-unprocessed.smi

> <i_m_source_file_index>
898

> <i_lp_mmshare_version>
43012

> <i_f3d_flags>
0

> <s_epik_input>
W0NIMl0xU1tDSDJdW0NIMl1bQ0gyXVtDQEhdMVtOSF1DKD1PKVtOSF1jMm5uYyhzMilbQ0hdM1tDSDJdW0NIMl0z

> <s_epik_cmdline>
J2VwaWtfcHl0aG9uJywgJy1waCcsICc3LjAnLCAnLXRuJywgJzgnLCAnLW1hJywgJzIwMCcsICctbWV0YWxfYmluZGluZycsICctaW1hZScsICc8aW5maWxlLm1hZT4nLCAnLW9tYWUnLCAnPG91dGZpbGUubWFlPic=

> <r_lp_tautomer_probability>
1

> <r_epik_Ionization_Penalty>
0.000291725

> <r_epik_Ionization_Penalty_Charging>
0

> <r_epik_Ionization_Penalty_Neutral>
0.000291725

> <r_epik_State_Penalty>
-0

> <r_epik_Charging_Adjusted_Penalty>
0

> <i_epik_Tot_Q>
0

> <i_epik_Tot_abs_Q>
0

> <r_epik_Metal_State_Penalty>
0.160962

> <b_epik_Metal_Only>
0

> <s_lp_Force_Field>
OPLS_2005

> <r_lp_Energy>
2.16534

> <b_lp_Chiralities_Consistent>
1

> <s_lp_Variant>
AV-unprocessed.smi:898-1

> <Gold.Version>
5.8.1

> <Gold.Id.Protein>
6NUR|6NUR_protein|mol2

> <Gold.PLP.Fitness>
33.6350

> <Gold.PLP.PLP>
-31.1262

> <Gold.PLP.part.hbond>
-2.0000

> <Gold.PLP.part.metal>
0.0000

> <Gold.PLP.part.buried>
-1.3724

> <Gold.PLP.part.nonpolar>
-28.9063

> <Gold.PLP.part.repulsive>
0.4141

> <Gold.PLP.ligand.clash>
0.0000

> <Gold.PLP.ligand.torsion>
0.1806

> <Gold.PLP.Chemscore.Hbond>
0.9120

> <Gold.PLP.Chemscore.CHOScore>
0.0000

> <Gold.PLP.Chemscore.Metal>
0.0000

> <Gold.Chemscore.Hbonds>
donor molecule, donor type, donor heavy atom, donor atom, acceptor molecule, acceptor atom, score
      L1  H     3    19       P1 10171  1.00
      L1  H    12    25       P1 10175  0.42

> <Gold.PLP.Chemscore.Internal.Correction>
0.1339

> <Gold.Rescore>
     Score         DG    S(hbond)    S(metal)    S(lipo)     H(rot)  DE(clash)    DE(int)     intcor
     12.69     -15.45       1.45        0.00      70.20       1.20       0.07       2.69       ----

> <Gold.Chemscore.Fitness>
12.6877

> <Gold.Chemscore.DG>
-15.4468

> <Gold.Chemscore.ZeroCoef>
-5.4800

> <Gold.Chemscore.Hbond>
1.4487

> <Gold.Chemscore.Metal>
0.0000

> <Gold.Chemscore.Lipo>
70.1955

> <Gold.Chemscore.Internal_Hbond>
0.0000

> <Gold.Chemscore.DEClash>
0.0664

> <Gold.Chemscore.DEInternal>
2.6927

> <Gold.Chemscore.Rot>
1.2050

> <Gold.Chemscore.Internal.Correction>
   9.000000E+99

> <Gold.Chemscore.Hbonds>
donor molecule, donor type, donor heavy atom, donor atom, acceptor molecule, acceptor atom, score
      L1  H     3    19       P1 10171  0.94
      L1  H    12    25       P1 10175  0.27

> <Gold.Chemscore.Hbond.Weighted>
-4.8386

> <Gold.Chemscore.Metal.Weighted>
-0.0000

> <Gold.Chemscore.Lipo.Weighted>
-8.2129

> <Gold.Chemscore.Internal_Hbond.Weighted>
0.0000

> <Gold.Chemscore.DEClash.Weighted>
0.0664

> <Gold.Chemscore.DEInternal.Weighted>
2.6927

> <Gold.Chemscore.Rot.Weighted>
3.0847

> <Gold.Chemscore.Internal.Correction.Weighted>
   9.000000E+99

> <Gold.Protein.RotatedTorsions>
[ 6907 6896 6895 6894 ] final    2.40 input  -60.11 | X-H torsion
[ 7974 7965 7964 7962 ] final   69.31 input  175.53 | X-H torsion
[ 8008 7997 7996 7995 ] final   23.92 input   59.86 | X-H torsion
[ 10167 10162 10161 10158 ] final  154.69 input  -65.29 | X-H torsion
[ 10718 10713 10712 10709 ] final  159.37 input   66.30 | X-H torsion
[ 10763 10752 10751 10750 ] final  151.83 input  -60.55 | X-H torsion
[ 11005 11000 10999 10996 ] final  144.46 input  -57.11 | X-H torsion

> <Gold.Protein.ActiveResidues>
 VAL166  LYS551  ARG553  GLY616  TRP617  ASP618  TYR619  PRO620  LYS621  CYS622 
 ASP623  PHE694  ASN695  SER759  ASP760  ASP761  ALA762  ILE779  LEU786  VAL792 
 PHE793  MET794  SER795  GLU796  ALA797  LYS798  CYS799  TRP800  GLU811  SER814 

> <Gold.Protein.RotatedAtoms>
  151.6082  135.1042  160.0074 H   0  0  0  0  0  0  0  0  0  0  0  0  # atno 6907 bound_to 6896
  152.4222  133.7131  159.6501 H   0  0  0  0  0  0  0  0  0  0  0  0  # atno 6908 bound_to 6896
  150.8110  133.8349  159.3204 H   0  0  0  0  0  0  0  0  0  0  0  0  # atno 6909 bound_to 6896
  145.7920  139.2939  143.1204 H   0  0  0  0  0  0  0  0  0  0  0  0  # atno 7974 bound_to 7965
  154.9882  140.3110  155.4917 H   0  0  0  0  0  0  0  0  0  0  0  0  # atno 8008 bound_to 7997
  156.2943  140.2254  156.4926 H   0  0  0  0  0  0  0  0  0  0  0  0  # atno 8009 bound_to 7997
  154.7727  140.0451  157.1052 H   0  0  0  0  0  0  0  0  0  0  0  0  # atno 8010 bound_to 7997
  139.4822  144.5165  151.7944 H   0  0  0  0  0  0  0  0  0  0  0  0  # atno 10167 bound_to 10162
  157.1651  131.0596  151.2212 H   0  0  0  0  0  0  0  0  0  0  0  0  # atno 10718 bound_to 10713
  154.1102  135.2839  155.3232 H   0  0  0  0  0  0  0  0  0  0  0  0  # atno 10763 bound_to 10752
  154.6495  135.5374  153.7888 H   0  0  0  0  0  0  0  0  0  0  0  0  # atno 10764 bound_to 10752
  153.0348  135.6506  154.1261 H   0  0  0  0  0  0  0  0  0  0  0  0  # atno 10765 bound_to 10752
  140.0634  134.9192  157.1223 H   0  0  0  0  0  0  0  0  0  0  0  0  # atno 11005 bound_to 11000
  145.9967  140.8556  143.0039 LP  0  0  0  0  0  0  0  0  0  0  0  0  # atno 17320 bound_to 7965
  144.6780  140.2293  143.7357 LP  0  0  0  0  0  0  0  0  0  0  0  0  # atno 17321 bound_to 7965
  140.4674  144.1636  150.5913 LP  0  0  0  0  0  0  0  0  0  0  0  0  # atno 17342 bound_to 10162
  140.4419  143.2523  151.9461 LP  0  0  0  0  0  0  0  0  0  0  0  0  # atno 17343 bound_to 10162
  157.4096  130.7378  149.6828 LP  0  0  0  0  0  0  0  0  0  0  0  0  # atno 17370 bound_to 10713
  155.9747  130.4099  150.3902 LP  0  0  0  0  0  0  0  0  0  0  0  0  # atno 17371 bound_to 10713
  140.3736  134.2364  155.7176 LP  0  0  0  0  0  0  0  0  0  0  0  0  # atno 17394 bound_to 11000
  141.1982  133.8040  157.0591 LP  0  0  0  0  0  0  0  0  0  0  0  0  # atno 17395 bound_to 11000

$$$$
