AV-unprocessed.smi:2956|AV-procd|sdf|11305|dock5
  -GOLD-   2272016203D 1   1.00000     0.00000
 Structure written by MMmdl.
 25 26  0  0  0  0  0  0  0  0  1 V2000
  150.4410  141.1196  158.1737 O   0  0  0  0  0  0  0  0  0  0  0  0
  150.3171  142.2313  157.6571 C   0  0  0  0  0  0  0  0  0  0  0  0
  151.1229  143.4352  158.1693 C   0  0  0  0  0  0  0  0  0  0  0  0
  151.8909  143.1546  159.3920 N   0  0  0  0  0  0  0  0  0  0  0  0
  151.6660  144.0560  160.4178 N   0  0  0  0  0  0  0  0  0  0  0  0
  152.2713  143.8993  161.5443 C   0  0  0  0  0  0  0  0  0  0  0  0
  153.1902  142.8077  161.7798 C   0  0  0  0  0  0  0  0  0  0  0  0
  153.9721  142.6484  163.3131 Cl  0  0  0  0  0  0  0  0  0  0  0  0
  153.4085  141.9331  160.7658 C   0  0  0  0  0  0  0  0  0  0  0  0
  154.4944  140.6018  160.9719 Cl  0  0  0  0  0  0  0  0  0  0  0  0
  152.7367  142.0810  159.4672 C   0  0  0  0  0  0  0  0  0  0  0  0
  152.9103  141.3110  158.5215 O   0  0  0  0  0  0  0  0  0  0  0  0
  149.4779  142.4819  156.6418 N   0  0  0  0  0  0  0  0  0  0  0  0
  148.6365  141.5210  156.0052 C   0  0  0  0  0  0  0  0  0  0  0  0
  149.2980  140.5010  155.1035 C   0  0  0  0  0  0  0  0  0  0  0  0
  148.4759  141.6078  154.5030 C   0  0  0  0  0  0  0  0  0  0  0  0
  151.7919  143.7828  157.3797 H   0  0  0  0  0  0  0  0  0  0  0  0
  150.4270  144.2578  158.3439 H   0  0  0  0  0  0  0  0  0  0  0  0
  152.1233  144.5821  162.3810 H   0  0  0  0  0  0  0  0  0  0  0  0
  149.4380  143.4258  156.2852 H   0  0  0  0  0  0  0  0  0  0  0  0
  147.7686  141.1696  156.5616 H   0  0  0  0  0  0  0  0  0  0  0  0
  150.3779  140.5545  154.9786 H   0  0  0  0  0  0  0  0  0  0  0  0
  148.8773  139.4977  155.0864 H   0  0  0  0  0  0  0  0  0  0  0  0
  147.5051  141.3445  154.0877 H   0  0  0  0  0  0  0  0  0  0  0  0
  149.0061  142.4009  153.9791 H   0  0  0  0  0  0  0  0  0  0  0  0
  1  2  2  0  0  0  0
  2  3  1  0  0  0  0
  2 13  1  0  0  0  0
  3  4  1  0  0  0  0
  3 17  1  0  0  0  0
  3 18  1  0  0  0  0
  4 11  1  0  0  0  0
  4  5  1  0  0  0  0
  5  6  2  0  0  0  0
  6  7  1  0  0  0  0
  6 19  1  0  0  0  0
  7  8  1  0  0  0  0
  7  9  2  0  0  0  0
  9 10  1  0  0  0  0
  9 11  1  0  0  0  0
 11 12  2  0  0  0  0
 13 14  1  0  0  0  0
 13 20  1  0  0  0  0
 14 16  1  0  0  0  0
 14 15  1  0  0  0  0
 14 21  1  0  0  0  0
 15 16  1  0  0  0  0
 15 22  1  0  0  0  0
 15 23  1  0  0  0  0
 16 24  1  0  0  0  0
 16 25  1  0  0  0  0
M  END
> <s_m_source_file>
AV-unprocessed.smi

> <i_m_source_file_index>
2956

> <i_lp_mmshare_version>
43012

> <i_f3d_flags>
0

> <s_epik_input>
W0NIMl0xW0NIMl1bQ0hdMVtOSF1DKD1PKVtDSDJdbjJuW2NIXWMoQ2wpYyhDbCljMj1P

> <s_epik_cmdline>
J2VwaWtfcHl0aG9uJywgJy1waCcsICc3LjAnLCAnLXRuJywgJzgnLCAnLW1hJywgJzIwMCcsICctbWV0YWxfYmluZGluZycsICctaW1hZScsICc8aW5maWxlLm1hZT4nLCAnLW9tYWUnLCAnPG91dGZpbGUubWFlPic=

> <r_lp_tautomer_probability>
1

> <r_epik_Ionization_Penalty>
2.06989e-08

> <r_epik_Ionization_Penalty_Charging>
2.85155e-11

> <r_epik_Ionization_Penalty_Neutral>
2.06703e-08

> <r_epik_State_Penalty>
-0

> <r_epik_Charging_Adjusted_Penalty>
2.85155e-11

> <i_epik_Tot_Q>
0

> <i_epik_Tot_abs_Q>
0

> <r_epik_Metal_State_Penalty>
-0

> <b_epik_Metal_Only>
0

> <s_lp_Force_Field>
OPLS_2005

> <r_lp_Energy>
29.5671

> <b_lp_Chiralities_Consistent>
1

> <s_lp_Variant>
AV-unprocessed.smi:2956-1

> <Gold.Version>
5.8.1

> <Gold.Id.Protein>
6NUR|6NUR_protein|mol2

> <Gold.PLP.Fitness>
41.3366

> <Gold.PLP.PLP>
-38.9787

> <Gold.PLP.part.hbond>
-1.0448

> <Gold.PLP.part.metal>
0.0000

> <Gold.PLP.part.buried>
-4.3290

> <Gold.PLP.part.nonpolar>
-32.8139

> <Gold.PLP.part.repulsive>
0.1479

> <Gold.PLP.ligand.clash>
0.0000

> <Gold.PLP.ligand.torsion>
0.3268

> <Gold.PLP.Chemscore.Hbond>
0.9920

> <Gold.PLP.Chemscore.CHOScore>
0.0000

> <Gold.PLP.Chemscore.Metal>
0.0000

> <Gold.Chemscore.Hbonds>
donor molecule, donor type, donor heavy atom, donor atom, acceptor molecule, acceptor atom, score
      L1  H    13    20       P1  8028  1.00

> <Gold.PLP.Chemscore.Internal.Correction>
0.0354

> <Gold.Rescore>
     Score         DG    S(hbond)    S(metal)    S(lipo)     H(rot)  DE(clash)    DE(int)     intcor
     10.07     -14.58       0.99        0.00      84.24       1.59       0.03       4.48       ----

> <Gold.Chemscore.Fitness>
10.0746

> <Gold.Chemscore.DG>
-14.5776

> <Gold.Chemscore.ZeroCoef>
-5.4800

> <Gold.Chemscore.Hbond>
0.9936

> <Gold.Chemscore.Metal>
0.0000

> <Gold.Chemscore.Lipo>
84.2436

> <Gold.Chemscore.Internal_Hbond>
0.0000

> <Gold.Chemscore.DEClash>
0.0270

> <Gold.Chemscore.DEInternal>
4.4760

> <Gold.Chemscore.Rot>
1.5928

> <Gold.Chemscore.Internal.Correction>
   9.000000E+99

> <Gold.Chemscore.Hbonds>
donor molecule, donor type, donor heavy atom, donor atom, acceptor molecule, acceptor atom, score
      L1  H    13    20       P1  8028  0.94

> <Gold.Chemscore.Hbond.Weighted>
-3.3186

> <Gold.Chemscore.Metal.Weighted>
-0.0000

> <Gold.Chemscore.Lipo.Weighted>
-9.8565

> <Gold.Chemscore.Internal_Hbond.Weighted>
0.0000

> <Gold.Chemscore.DEClash.Weighted>
0.0270

> <Gold.Chemscore.DEInternal.Weighted>
4.4760

> <Gold.Chemscore.Rot.Weighted>
4.0775

> <Gold.Chemscore.Internal.Correction.Weighted>
   9.000000E+99

> <Gold.Protein.RotatedTorsions>
[ 6907 6896 6895 6894 ] final -123.71 input  -60.11 | X-H torsion
[ 7974 7965 7964 7962 ] final   -1.07 input  175.53 | X-H torsion
[ 8008 7997 7996 7995 ] final   57.39 input   59.86 | X-H torsion
[ 10167 10162 10161 10158 ] final   -2.26 input  -65.29 | X-H torsion
[ 10718 10713 10712 10709 ] final  114.14 input   66.30 | X-H torsion
[ 10763 10752 10751 10750 ] final  111.72 input  -60.55 | X-H torsion
[ 11005 11000 10999 10996 ] final  -24.95 input  -57.11 | X-H torsion

> <Gold.Protein.ActiveResidues>
 VAL166  LYS551  ARG553  GLY616  TRP617  ASP618  TYR619  PRO620  LYS621  CYS622 
 ASP623  PHE694  ASN695  SER759  ASP760  ASP761  ALA762  ILE779  LEU786  VAL792 
 PHE793  MET794  SER795  GLU796  ALA797  LYS798  CYS799  TRP800  GLU811  SER814 

> <Gold.Protein.RotatedAtoms>
  150.8697  133.7523  159.2964 H   0  0  0  0  0  0  0  0  0  0  0  0  # atno 6907 bound_to 6896
  151.5139  135.1064  159.9870 H   0  0  0  0  0  0  0  0  0  0  0  0  # atno 6908 bound_to 6896
  152.4686  133.7934  159.6970 H   0  0  0  0  0  0  0  0  0  0  0  0  # atno 6909 bound_to 6896
  146.2421  140.1364  142.8336 H   0  0  0  0  0  0  0  0  0  0  0  0  # atno 7974 bound_to 7965
  155.5329  140.3482  155.4430 H   0  0  0  0  0  0  0  0  0  0  0  0  # atno 8008 bound_to 7997
  156.0705  140.1362  156.9860 H   0  0  0  0  0  0  0  0  0  0  0  0  # atno 8009 bound_to 7997
  154.4526  140.0966  156.6637 H   0  0  0  0  0  0  0  0  0  0  0  0  # atno 8010 bound_to 7997
  140.6844  143.6678  150.8211 H   0  0  0  0  0  0  0  0  0  0  0  0  # atno 10167 bound_to 10162
  157.6298  131.0994  150.7142 H   0  0  0  0  0  0  0  0  0  0  0  0  # atno 10718 bound_to 10713
  153.4674  135.3708  155.2372 H   0  0  0  0  0  0  0  0  0  0  0  0  # atno 10763 bound_to 10752
  154.8757  135.3923  154.3853 H   0  0  0  0  0  0  0  0  0  0  0  0  # atno 10764 bound_to 10752
  153.4436  135.7084  153.6218 H   0  0  0  0  0  0  0  0  0  0  0  0  # atno 10765 bound_to 10752
  140.8893  133.7599  156.0400 H   0  0  0  0  0  0  0  0  0  0  0  0  # atno 11005 bound_to 11000
  145.0283  140.8850  143.5125 LP  0  0  0  0  0  0  0  0  0  0  0  0  # atno 17320 bound_to 7965
  145.1424  139.2564  143.5483 LP  0  0  0  0  0  0  0  0  0  0  0  0  # atno 17321 bound_to 7965
  140.0383  143.5372  152.2729 LP  0  0  0  0  0  0  0  0  0  0  0  0  # atno 17342 bound_to 10162
  139.6190  144.7625  151.2782 LP  0  0  0  0  0  0  0  0  0  0  0  0  # atno 17343 bound_to 10162
  156.7484  130.4761  149.5462 LP  0  0  0  0  0  0  0  0  0  0  0  0  # atno 17370 bound_to 10713
  156.1494  130.6300  151.0576 LP  0  0  0  0  0  0  0  0  0  0  0  0  # atno 17371 bound_to 10713
  140.8366  134.3115  157.5329 LP  0  0  0  0  0  0  0  0  0  0  0  0  # atno 17394 bound_to 11000
  139.8728  134.9393  156.3738 LP  0  0  0  0  0  0  0  0  0  0  0  0  # atno 17395 bound_to 11000

$$$$
