AV-unprocessed.smi:1047|AV-procd|sdf|4581|dock1
  -GOLD-   22720 3 43D 1   1.00000     0.00000
 Structure written by MMmdl.
 58 60  0  0  0  0  0  0  0  0  4 V2000
  146.6367  133.3764  150.3884 C   0  0  0  0  0  0  0  0  0  0  0  0
  146.5742  132.6519  151.7403 C   0  0  0  0  0  0  0  0  0  0  0  0
  147.9134  132.2017  152.2047 N   0  3  2  0  0  0  0  0  0  0  0  0
  147.8713  130.9705  153.0304 C   0  0  0  0  0  0  0  0  0  0  0  0
  147.4236  131.2816  154.4694 C   0  0  0  0  0  0  0  0  0  0  0  0
  148.2940  132.2547  155.0355 O   0  0  0  0  0  0  0  0  0  0  0  0
  148.2636  133.4924  154.3313 C   0  0  1  0  0  0  0  0  0  0  0  0
  149.1872  134.4791  155.0630 C   0  0  0  0  0  0  0  0  0  0  0  0
  149.2453  135.7809  154.3675 N   0  3  0  0  0  0  0  0  0  0  0  0
  150.4199  136.6026  154.7234 C   0  0  0  0  0  0  0  0  0  0  0  0
  150.0413  138.0892  154.8638 C   0  0  2  0  0  0  0  0  0  0  0  0
  149.6079  138.5703  153.6078 O   0  0  0  0  0  0  0  0  0  0  0  0
  151.1981  138.9945  155.3335 C   0  0  0  0  0  0  0  0  0  0  0  0
  150.7607  140.3486  155.7019 N   0  0  0  0  0  0  0  0  0  0  0  0
  149.8979  141.1831  155.0600 C   0  0  0  0  0  0  0  0  0  0  0  0
  149.8223  142.3335  155.7841 N   0  3  0  0  0  0  0  0  0  0  0  0
  150.6528  142.2361  156.9022 C   0  0  0  0  0  0  0  0  0  0  0  0
  150.9102  143.1413  157.9246 C   0  0  0  0  0  0  0  0  0  0  0  0
  151.8162  142.7376  158.9309 C   0  0  0  0  0  0  0  0  0  0  0  0
  152.1208  143.7046  160.0627 C   0  0  0  0  0  0  0  0  0  0  0  0
  152.4320  141.4600  158.8886 C   0  0  0  0  0  0  0  0  0  0  0  0
  153.4044  141.0360  159.9763 C   0  0  0  0  0  0  0  0  0  0  0  0
  152.1582  140.5540  157.8390 C   0  0  0  0  0  0  0  0  0  0  0  0
  151.2618  140.9665  156.8550 C   0  0  0  0  0  0  0  0  0  0  0  0
  148.7267  133.2483  152.8768 C   0  0  0  0  0  0  0  0  0  0  0  0
  145.6329  133.6122  150.0347 H   0  0  0  0  0  0  0  0  0  0  0  0
  147.1149  132.7552  149.6303 H   0  0  0  0  0  0  0  0  0  0  0  0
  147.1852  134.3158  150.4494 H   0  0  0  0  0  0  0  0  0  0  0  0
  146.0913  133.2810  152.4877 H   0  0  0  0  0  0  0  0  0  0  0  0
  145.9305  131.7802  151.6151 H   0  0  0  0  0  0  0  0  0  0  0  0
  147.2236  130.2203  152.5748 H   0  0  0  0  0  0  0  0  0  0  0  0
  148.8720  130.5369  153.0512 H   0  0  0  0  0  0  0  0  0  0  0  0
  146.3912  131.6336  154.4974 H   0  0  0  0  0  0  0  0  0  0  0  0
  147.4655  130.3774  155.0767 H   0  0  0  0  0  0  0  0  0  0  0  0
  147.2485  133.8926  154.3383 H   0  0  0  0  0  0  0  0  0  0  0  0
  148.8488  134.6256  156.0898 H   0  0  0  0  0  0  0  0  0  0  0  0
  150.1968  134.0686  155.1131 H   0  0  0  0  0  0  0  0  0  0  0  0
  149.2660  135.6183  153.3704 H   0  0  0  0  0  0  0  0  0  0  0  0
  150.8170  136.2244  155.6656 H   0  0  0  0  0  0  0  0  0  0  0  0
  151.2011  136.4774  153.9719 H   0  0  0  0  0  0  0  0  0  0  0  0
  149.2109  138.1846  155.5651 H   0  0  0  0  0  0  0  0  0  0  0  0
  149.6367  137.8618  152.9824 H   0  0  0  0  0  0  0  0  0  0  0  0
  151.7377  138.5482  156.1688 H   0  0  0  0  0  0  0  0  0  0  0  0
  151.9276  139.1082  154.5300 H   0  0  0  0  0  0  0  0  0  0  0  0
  149.3702  140.9729  154.1405 H   0  0  0  0  0  0  0  0  0  0  0  0
  150.4389  144.1133  157.9495 H   0  0  0  0  0  0  0  0  0  0  0  0
  153.1781  143.9712  160.0624 H   0  0  0  0  0  0  0  0  0  0  0  0
  151.8757  143.2584  161.0271 H   0  0  0  0  0  0  0  0  0  0  0  0
  151.5448  144.6256  159.9665 H   0  0  0  0  0  0  0  0  0  0  0  0
  153.8015  140.0375  159.7910 H   0  0  0  0  0  0  0  0  0  0  0  0
  152.9098  141.0217  160.9478 H   0  0  0  0  0  0  0  0  0  0  0  0
  154.2477  141.7249  160.0266 H   0  0  0  0  0  0  0  0  0  0  0  0
  152.6302  139.5833  157.8113 H   0  0  0  0  0  0  0  0  0  0  0  0
  149.7644  132.9112  152.8815 H   0  0  0  0  0  0  0  0  0  0  0  0
  148.7160  134.1766  152.3071 H   0  0  0  0  0  0  0  0  0  0  0  0
  148.4095  136.3031  154.5894 H   0  0  0  0  0  0  0  0  0  0  0  0
  148.4090  131.9485  151.3612 H   0  0  0  0  0  0  0  0  0  0  0  0
  149.2492  143.1279  155.5286 H   0  0  0  0  0  0  0  0  0  0  0  0
  1  2  1  0  0  0  0
  1 26  1  0  0  0  0
  1 27  1  0  0  0  0
  1 28  1  0  0  0  0
  2  3  1  0  0  0  0
  2 29  1  0  0  0  0
  2 30  1  0  0  0  0
  3 25  1  0  0  0  0
  3  4  1  0  0  0  0
  3 57  1  0  0  0  0
  4  5  1  0  0  0  0
  4 31  1  0  0  0  0
  4 32  1  0  0  0  0
  5  6  1  0  0  0  0
  5 33  1  0  0  0  0
  5 34  1  0  0  0  0
  6  7  1  0  0  0  0
  7  8  1  0  0  0  0
  7 25  1  0  0  0  0
  7 35  1  0  0  0  0
  8  9  1  0  0  0  0
  8 36  1  0  0  0  0
  8 37  1  0  0  0  0
  9 10  1  0  0  0  0
  9 38  1  0  0  0  0
  9 56  1  0  0  0  0
 10 11  1  0  0  0  0
 10 39  1  0  0  0  0
 10 40  1  0  0  0  0
 11 12  1  0  0  0  0
 11 13  1  0  0  0  0
 11 41  1  0  0  0  0
 12 42  1  0  0  0  0
 13 14  1  0  0  0  0
 13 43  1  0  0  0  0
 13 44  1  0  0  0  0
 14 24  1  0  0  0  0
 14 15  1  0  0  0  0
 15 16  2  0  0  0  0
 15 45  1  0  0  0  0
 16 17  1  0  0  0  0
 16 58  1  0  0  0  0
 17 24  2  0  0  0  0
 17 18  1  0  0  0  0
 18 19  2  0  0  0  0
 18 46  1  0  0  0  0
 19 20  1  0  0  0  0
 19 21  1  0  0  0  0
 20 47  1  0  0  0  0
 20 48  1  0  0  0  0
 20 49  1  0  0  0  0
 21 22  1  0  0  0  0
 21 23  2  0  0  0  0
 22 50  1  0  0  0  0
 22 51  1  0  0  0  0
 22 52  1  0  0  0  0
 23 24  1  0  0  0  0
 23 53  1  0  0  0  0
 25 54  1  0  0  0  0
 25 55  1  0  0  0  0
M  CHG  1   3   1
M  CHG  1   9   1
M  CHG  1  16   1
M  END
> <s_m_source_file>
AV-unprocessed.smi

> <i_m_source_file_index>
1047

> <i_lp_mmshare_version>
43012

> <i_f3d_flags>
0

> <s_epik_input>
W0NIM11bQ0gyXU4xW0NIMl1bQ0gyXU9bQ0BIXShbQ0gyXTEpW0NIMl1bTkhdW0NIMl1bQ0BIXShbT0hdKVtDSDJdbihbY0hdbjIpYyhjMjMpW2NIXWMoW0NIM10pYyhbY0hdMylbQ0gzXQ==

> <s_epik_cmdline>
J2VwaWtfcHl0aG9uJywgJy1waCcsICc3LjAnLCAnLXRuJywgJzgnLCAnLW1hJywgJzIwMCcsICctbWV0YWxfYmluZGluZycsICctaW1hZScsICc8aW5maWxlLm1hZT4nLCAnLW9tYWUnLCAnPG91dGZpbGUubWFlPic=

> <r_epik_Ionization_Penalty>
1.6114

> <r_epik_Ionization_Penalty_Charging>
1.61139

> <r_epik_Ionization_Penalty_Neutral>
5.04732e-06

> <r_epik_State_Penalty>
1.63724

> <r_epik_Charging_Adjusted_Penalty>
3.24864

> <i_epik_Tot_Q>
3

> <i_epik_Tot_abs_Q>
3

> <r_epik_Metal_State_Penalty>
5.64594

> <b_epik_Metal_Only>
0

> <s_lp_Force_Field>
OPLS_2005

> <r_lp_Energy>
44.3097

> <b_lp_Chiralities_Consistent>
1

> <s_lp_Variant>
AV-unprocessed.smi:1047-22

> <Gold.Version>
5.8.1

> <Gold.Id.Protein>
6NUR|6NUR_protein|mol2

> <Gold.PLP.Fitness>
65.0376

> <Gold.PLP.PLP>
-48.7950

> <Gold.PLP.part.hbond>
-5.0000

> <Gold.PLP.part.metal>
0.0000

> <Gold.PLP.part.buried>
-2.5169

> <Gold.PLP.part.nonpolar>
-40.7297

> <Gold.PLP.part.repulsive>
0.1754

> <Gold.PLP.ligand.clash>
0.0000

> <Gold.PLP.ligand.torsion>
0.9538

> <Gold.PLP.Chemscore.Hbond>
5.9520

> <Gold.PLP.Chemscore.CHOScore>
0.0000

> <Gold.PLP.Chemscore.Metal>
0.0000

> <Gold.Chemscore.Hbonds>
donor molecule, donor type, donor heavy atom, donor atom, acceptor molecule, acceptor atom, score
      L1  H     3    57       P1 10747  1.00
      L1  H     9    38       P1  7948  1.92
      L1  H    12    42       P1  7948  0.94
      L1  H    16    58       P1  8028  2.00

> <Gold.PLP.Chemscore.Internal.Correction>
0.2942

> <Gold.Rescore>
     Score         DG    S(hbond)    S(metal)    S(lipo)     H(rot)  DE(clash)    DE(int)     intcor
     23.48     -24.62       3.67        0.00     119.74       2.78       0.03       1.11       ----

> <Gold.Chemscore.Fitness>
23.4833

> <Gold.Chemscore.DG>
-24.6245

> <Gold.Chemscore.ZeroCoef>
-5.4800

> <Gold.Chemscore.Hbond>
3.6718

> <Gold.Chemscore.Metal>
0.0000

> <Gold.Chemscore.Lipo>
119.7415

> <Gold.Chemscore.Internal_Hbond>
0.0000

> <Gold.Chemscore.DEClash>
0.0310

> <Gold.Chemscore.DEInternal>
1.1101

> <Gold.Chemscore.Rot>
2.7848

> <Gold.Chemscore.Internal.Correction>
   9.000000E+99

> <Gold.Chemscore.Hbonds>
donor molecule, donor type, donor heavy atom, donor atom, acceptor molecule, acceptor atom, score
      L1  H     3    57       P1 10747  0.96
      L1  H     9    38       P1  7948  0.36
      L1  H    12    42       P1  7948  0.67
      L1  H    16    58       P1  8028  0.95

> <Gold.Chemscore.Hbond.Weighted>
-12.2638

> <Gold.Chemscore.Metal.Weighted>
-0.0000

> <Gold.Chemscore.Lipo.Weighted>
-14.0098

> <Gold.Chemscore.Internal_Hbond.Weighted>
0.0000

> <Gold.Chemscore.DEClash.Weighted>
0.0310

> <Gold.Chemscore.DEInternal.Weighted>
1.1101

> <Gold.Chemscore.Rot.Weighted>
7.1291

> <Gold.Chemscore.Internal.Correction.Weighted>
   9.000000E+99

> <Gold.Protein.RotatedTorsions>
[ 6907 6896 6895 6894 ] final  -85.19 input  -60.11 | X-H torsion
[ 7974 7965 7964 7962 ] final  121.85 input  175.53 | X-H torsion
[ 8008 7997 7996 7995 ] final   23.94 input   59.86 | X-H torsion
[ 10167 10162 10161 10158 ] final    4.71 input  -65.29 | X-H torsion
[ 10718 10713 10712 10709 ] final  -69.81 input   66.30 | X-H torsion
[ 10763 10752 10751 10750 ] final  -72.36 input  -60.55 | X-H torsion
[ 11005 11000 10999 10996 ] final  -94.45 input  -57.11 | X-H torsion

> <Gold.Protein.ActiveResidues>
 VAL166  LYS551  ARG553  GLY616  TRP617  ASP618  TYR619  PRO620  LYS621  CYS622 
 ASP623  PHE694  ASN695  SER759  ASP760  ASP761  ALA762  ILE779  LEU786  VAL792 
 PHE793  MET794  SER795  GLU796  ALA797  LYS798  CYS799  TRP800  GLU811  SER814 

> <Gold.Protein.RotatedAtoms>
  150.6871  134.3242  159.4799 H   0  0  0  0  0  0  0  0  0  0  0  0  # atno 6907 bound_to 6896
  152.1114  134.9269  160.0575 H   0  0  0  0  0  0  0  0  0  0  0  0  # atno 6908 bound_to 6896
  152.0510  133.3984  159.4414 H   0  0  0  0  0  0  0  0  0  0  0  0  # atno 6909 bound_to 6896
  145.1145  139.3430  143.4746 H   0  0  0  0  0  0  0  0  0  0  0  0  # atno 7974 bound_to 7965
  154.9886  140.3111  155.4916 H   0  0  0  0  0  0  0  0  0  0  0  0  # atno 8008 bound_to 7997
  156.2943  140.2253  156.4929 H   0  0  0  0  0  0  0  0  0  0  0  0  # atno 8009 bound_to 7997
  154.7724  140.0451  157.1050 H   0  0  0  0  0  0  0  0  0  0  0  0  # atno 8010 bound_to 7997
  140.6520  143.7520  150.7591 H   0  0  0  0  0  0  0  0  0  0  0  0  # atno 10167 bound_to 10162
  156.0437  130.4319  150.2203 H   0  0  0  0  0  0  0  0  0  0  0  0  # atno 10718 bound_to 10713
  154.4446  135.5932  153.6151 H   0  0  0  0  0  0  0  0  0  0  0  0  # atno 10763 bound_to 10752
  152.9808  135.6006  154.3680 H   0  0  0  0  0  0  0  0  0  0  0  0  # atno 10764 bound_to 10752
  154.3534  135.2841  155.2338 H   0  0  0  0  0  0  0  0  0  0  0  0  # atno 10765 bound_to 10752
  141.1470  133.7957  157.0300 H   0  0  0  0  0  0  0  0  0  0  0  0  # atno 11005 bound_to 11000
  146.3524  140.1078  142.8605 LP  0  0  0  0  0  0  0  0  0  0  0  0  # atno 17320 bound_to 7965
  145.0810  140.9220  143.4825 LP  0  0  0  0  0  0  0  0  0  0  0  0  # atno 17321 bound_to 7965
  140.1173  143.4644  152.2334 LP  0  0  0  0  0  0  0  0  0  0  0  0  # atno 17342 bound_to 10162
  139.5737  144.7476  151.3822 LP  0  0  0  0  0  0  0  0  0  0  0  0  # atno 17343 bound_to 10162
  157.0295  131.0003  151.3316 LP  0  0  0  0  0  0  0  0  0  0  0  0  # atno 17370 bound_to 10713
  157.5287  130.8044  149.7892 LP  0  0  0  0  0  0  0  0  0  0  0  0  # atno 17371 bound_to 10713
  140.0760  134.9675  157.1546 LP  0  0  0  0  0  0  0  0  0  0  0  0  # atno 17394 bound_to 11000
  140.3643  134.2460  155.7184 LP  0  0  0  0  0  0  0  0  0  0  0  0  # atno 17395 bound_to 11000

$$$$
