AV-unprocessed.smi:3215|AV-procd|sdf|12286|dock1
  -GOLD-   2272018123D 1   1.00000     0.00000
 Structure written by MMmdl.
 37 38  0  0  0  0  0  0  0  0  1 V2000
  146.6911  141.0401  153.6648 C   0  0  0  0  0  0  0  0  0  0  0  0
  148.0354  140.8065  154.2913 C   0  0  0  0  0  0  0  0  0  0  0  0
  148.9618  139.7629  154.0075 C   0  0  0  0  0  0  0  0  0  0  0  0
  150.0624  139.8390  154.7378 N   0  0  0  0  0  0  0  0  0  0  0  0
  149.8782  140.9294  155.5119 N   0  0  0  0  0  0  0  0  0  0  0  0
  150.9057  141.3258  156.4555 C   0  0  0  0  0  0  0  0  0  0  0  0
  151.2677  142.8107  156.3084 C   0  0  0  0  0  0  0  0  0  0  0  0
  150.8297  143.5369  157.4905 N   0  0  0  0  0  0  0  0  0  0  0  0
  151.8656  144.4788  157.9333 C   0  0  0  0  0  0  0  0  0  0  0  0
  151.9089  144.6579  159.4599 C   0  0  0  0  0  0  0  0  0  0  0  0
  151.5230  145.7126  159.9676 O   0  0  0  0  0  0  0  0  0  0  0  0
  152.3816  143.6373  160.2055 N   0  0  0  0  0  0  0  0  0  0  0  0
  152.8346  142.3670  159.6420 C   0  0  0  0  0  0  0  0  0  0  0  0
  153.0083  141.4248  160.8334 C   0  0  0  0  0  0  0  0  0  0  0  0
  153.2768  142.3558  162.0075 C   0  0  0  0  0  0  0  0  0  0  0  0
  152.5019  143.6284  161.6634 C   0  0  0  0  0  0  0  0  0  0  0  0
  148.6634  141.5323  155.2639 C   0  0  0  0  0  0  0  0  0  0  0  0
  146.6928  140.7937  152.6028 H   0  0  0  0  0  0  0  0  0  0  0  0
  146.3785  142.0811  153.7510 H   0  0  0  0  0  0  0  0  0  0  0  0
  145.9183  140.4318  154.1351 H   0  0  0  0  0  0  0  0  0  0  0  0
  148.8672  138.9562  153.2954 H   0  0  0  0  0  0  0  0  0  0  0  0
  150.5450  141.1189  157.4641 H   0  0  0  0  0  0  0  0  0  0  0  0
  151.7841  140.6976  156.2979 H   0  0  0  0  0  0  0  0  0  0  0  0
  152.3454  142.9247  156.1809 H   0  0  0  0  0  0  0  0  0  0  0  0
  150.7855  143.2253  155.4217 H   0  0  0  0  0  0  0  0  0  0  0  0
  149.9627  144.0138  157.2878 H   0  0  0  0  0  0  0  0  0  0  0  0
  152.8403  144.1229  157.5964 H   0  0  0  0  0  0  0  0  0  0  0  0
  151.6902  145.4507  157.4696 H   0  0  0  0  0  0  0  0  0  0  0  0
  152.1274  141.9615  158.9166 H   0  0  0  0  0  0  0  0  0  0  0  0
  153.7877  142.5244  159.1351 H   0  0  0  0  0  0  0  0  0  0  0  0
  152.0798  140.8790  161.0070 H   0  0  0  0  0  0  0  0  0  0  0  0
  153.8024  140.6932  160.6816 H   0  0  0  0  0  0  0  0  0  0  0  0
  152.9802  141.9262  162.9648 H   0  0  0  0  0  0  0  0  0  0  0  0
  154.3433  142.5791  162.0582 H   0  0  0  0  0  0  0  0  0  0  0  0
  153.0166  144.5116  162.0437 H   0  0  0  0  0  0  0  0  0  0  0  0
  151.5044  143.5974  162.1040 H   0  0  0  0  0  0  0  0  0  0  0  0
  148.3498  142.4197  155.7938 H   0  0  0  0  0  0  0  0  0  0  0  0
  1  2  1  0  0  0  0
  1 18  1  0  0  0  0
  1 19  1  0  0  0  0
  1 20  1  0  0  0  0
  2 17  2  0  0  0  0
  2  3  1  0  0  0  0
  3  4  2  0  0  0  0
  3 21  1  0  0  0  0
  4  5  1  0  0  0  0
  5  6  1  0  0  0  0
  5 17  1  0  0  0  0
  6  7  1  0  0  0  0
  6 22  1  0  0  0  0
  6 23  1  0  0  0  0
  7  8  1  0  0  0  0
  7 24  1  0  0  0  0
  7 25  1  0  0  0  0
  8  9  1  0  0  0  0
  8 26  1  0  0  0  0
  9 10  1  0  0  0  0
  9 27  1  0  0  0  0
  9 28  1  0  0  0  0
 10 11  2  0  0  0  0
 10 12  1  0  0  0  0
 12 16  1  0  0  0  0
 12 13  1  0  0  0  0
 13 14  1  0  0  0  0
 13 29  1  0  0  0  0
 13 30  1  0  0  0  0
 14 15  1  0  0  0  0
 14 31  1  0  0  0  0
 14 32  1  0  0  0  0
 15 16  1  0  0  0  0
 15 33  1  0  0  0  0
 15 34  1  0  0  0  0
 16 35  1  0  0  0  0
 16 36  1  0  0  0  0
 17 37  1  0  0  0  0
M  END
> <s_m_source_file>
AV-unprocessed.smi

> <i_m_source_file_index>
3215

> <i_lp_mmshare_version>
43012

> <i_f3d_flags>
0

> <s_epik_input>
W0NIM11jMVtjSF1ubihbY0hdMSlbQ0gyXVtDSDJdW05IXVtDSDJdQyg9TylOMltDSDJdW0NIMl1bQ0gyXVtDSDJdMg==

> <s_epik_cmdline>
J2VwaWtfcHl0aG9uJywgJy1waCcsICc3LjAnLCAnLXRuJywgJzgnLCAnLW1hJywgJzIwMCcsICctbWV0YWxfYmluZGluZycsICctaW1hZScsICc8aW5maWxlLm1hZT4nLCAnLW9tYWUnLCAnPG91dGZpbGUubWFlPic=

> <r_lp_tautomer_probability>
1

> <r_epik_Ionization_Penalty>
0.736363

> <r_epik_Ionization_Penalty_Charging>
0

> <r_epik_Ionization_Penalty_Neutral>
0.736363

> <r_epik_State_Penalty>
0.758951

> <r_epik_Charging_Adjusted_Penalty>
0.758951

> <i_epik_Tot_Q>
0

> <i_epik_Tot_abs_Q>
0

> <r_epik_Metal_State_Penalty>
0.755698

> <b_epik_Metal_Only>
0

> <s_lp_Force_Field>
OPLS_2005

> <r_lp_Energy>
29.5089

> <b_lp_Chiralities_Consistent>
1

> <s_lp_Variant>
AV-unprocessed.smi:3215-2

> <Gold.Version>
5.8.1

> <Gold.Id.Protein>
6NUR|6NUR_protein|mol2

> <Gold.PLP.Fitness>
53.1006

> <Gold.PLP.PLP>
-45.1550

> <Gold.PLP.part.hbond>
-3.4827

> <Gold.PLP.part.metal>
0.0000

> <Gold.PLP.part.buried>
-1.3689

> <Gold.PLP.part.nonpolar>
-39.2974

> <Gold.PLP.part.repulsive>
0.3035

> <Gold.PLP.ligand.clash>
0.0000

> <Gold.PLP.ligand.torsion>
1.0920

> <Gold.PLP.Chemscore.Hbond>
1.7800

> <Gold.PLP.Chemscore.CHOScore>
1.5866

> <Gold.PLP.Chemscore.Metal>
0.0000

> <Gold.Chemscore.Hbonds>
donor molecule, donor type, donor heavy atom, donor atom, acceptor molecule, acceptor atom, score
      L1  H     8    26       P1  8028  0.77
      P1  H  7989  7998       L1     4  0.27
      L1  C     3    21       P1  7957  0.46
      L1  C    17    37       P1  8028  1.00

> <Gold.PLP.Chemscore.Internal.Correction>
0.0298

> <Gold.Rescore>
     Score         DG    S(hbond)    S(metal)    S(lipo)     H(rot)  DE(clash)    DE(int)     intcor
     13.07     -15.23       0.74        0.00     100.45       1.74       1.08       1.09       ----

> <Gold.Chemscore.Fitness>
13.0650

> <Gold.Chemscore.DG>
-15.2333

> <Gold.Chemscore.ZeroCoef>
-5.4800

> <Gold.Chemscore.Hbond>
0.7385

> <Gold.Chemscore.Metal>
0.0000

> <Gold.Chemscore.Lipo>
100.4474

> <Gold.Chemscore.Internal_Hbond>
0.0000

> <Gold.Chemscore.DEClash>
1.0792

> <Gold.Chemscore.DEInternal>
1.0891

> <Gold.Chemscore.Rot>
1.7444

> <Gold.Chemscore.Internal.Correction>
   9.000000E+99

> <Gold.Chemscore.Hbonds>
donor molecule, donor type, donor heavy atom, donor atom, acceptor molecule, acceptor atom, score
      L1  H     8    26       P1  8028  0.53
      P1  H  7989  7998       L1     4  0.01

> <Gold.Chemscore.Hbond.Weighted>
-2.4667

> <Gold.Chemscore.Metal.Weighted>
-0.0000

> <Gold.Chemscore.Lipo.Weighted>
-11.7523

> <Gold.Chemscore.Internal_Hbond.Weighted>
0.0000

> <Gold.Chemscore.DEClash.Weighted>
1.0792

> <Gold.Chemscore.DEInternal.Weighted>
1.0891

> <Gold.Chemscore.Rot.Weighted>
4.4657

> <Gold.Chemscore.Internal.Correction.Weighted>
   9.000000E+99

> <Gold.Protein.RotatedTorsions>
[ 6907 6896 6895 6894 ] final  102.13 input  -60.11 | X-H torsion
[ 7974 7965 7964 7962 ] final    6.82 input  175.53 | X-H torsion
[ 8008 7997 7996 7995 ] final   23.56 input   59.86 | X-H torsion
[ 10167 10162 10161 10158 ] final  -76.54 input  -65.29 | X-H torsion
[ 10718 10713 10712 10709 ] final  -34.96 input   66.30 | X-H torsion
[ 10763 10752 10751 10750 ] final  170.84 input  -60.55 | X-H torsion
[ 11005 11000 10999 10996 ] final   65.18 input  -57.11 | X-H torsion

> <Gold.Protein.ActiveResidues>
 VAL166  LYS551  ARG553  GLY616  TRP617  ASP618  TYR619  PRO620  LYS621  CYS622 
 ASP623  PHE694  ASN695  SER759  ASP760  ASP761  ALA762  ILE779  LEU786  VAL792 
 PHE793  MET794  SER795  GLU796  ALA797  LYS798  CYS799  TRP800  GLU811  SER814 

> <Gold.Protein.RotatedAtoms>
  152.5332  134.0022  159.7899 H   0  0  0  0  0  0  0  0  0  0  0  0  # atno 6907 bound_to 6896
  151.0238  133.5844  159.2675 H   0  0  0  0  0  0  0  0  0  0  0  0  # atno 6908 bound_to 6896
  151.2874  135.0739  159.9245 H   0  0  0  0  0  0  0  0  0  0  0  0  # atno 6909 bound_to 6896
  146.2432  140.0176  142.8401 H   0  0  0  0  0  0  0  0  0  0  0  0  # atno 7974 bound_to 7965
  154.9829  140.3104  155.4939 H   0  0  0  0  0  0  0  0  0  0  0  0  # atno 8008 bound_to 7997
  156.2951  140.2263  156.4868 H   0  0  0  0  0  0  0  0  0  0  0  0  # atno 8009 bound_to 7997
  154.7773  140.0448  157.1088 H   0  0  0  0  0  0  0  0  0  0  0  0  # atno 8010 bound_to 7997
  140.4848  143.2393  151.8001 H   0  0  0  0  0  0  0  0  0  0  0  0  # atno 10167 bound_to 10162
  156.3444  130.4298  149.7759 H   0  0  0  0  0  0  0  0  0  0  0  0  # atno 10718 bound_to 10713
  154.4034  135.2755  155.2082 H   0  0  0  0  0  0  0  0  0  0  0  0  # atno 10763 bound_to 10752
  154.4099  135.6025  153.5950 H   0  0  0  0  0  0  0  0  0  0  0  0  # atno 10764 bound_to 10752
  152.9831  135.5947  154.4305 H   0  0  0  0  0  0  0  0  0  0  0  0  # atno 10765 bound_to 10752
  139.9911  134.6590  156.0090 H   0  0  0  0  0  0  0  0  0  0  0  0  # atno 11005 bound_to 11000
  145.1271  140.9496  143.4566 LP  0  0  0  0  0  0  0  0  0  0  0  0  # atno 17320 bound_to 7965
  145.0424  139.3249  143.5970 LP  0  0  0  0  0  0  0  0  0  0  0  0  # atno 17321 bound_to 7965
  139.4840  144.4726  151.9407 LP  0  0  0  0  0  0  0  0  0  0  0  0  # atno 17342 bound_to 10162
  140.3812  144.2734  150.5908 LP  0  0  0  0  0  0  0  0  0  0  0  0  # atno 17343 bound_to 10162
  156.4983  130.8117  151.3122 LP  0  0  0  0  0  0  0  0  0  0  0  0  # atno 17370 bound_to 10713
  157.7452  130.9953  150.2738 LP  0  0  0  0  0  0  0  0  0  0  0  0  # atno 17371 bound_to 10713
  141.1566  133.6542  156.4182 LP  0  0  0  0  0  0  0  0  0  0  0  0  # atno 17394 bound_to 11000
  140.4907  134.6578  157.5209 LP  0  0  0  0  0  0  0  0  0  0  0  0  # atno 17395 bound_to 11000

$$$$
