AV-unprocessed.smi:2986|AV-procd|sdf|11383|dock1
  -GOLD-   2272016303D 1   1.00000     0.00000
 Structure written by MMmdl.
 41 43  0  0  0  0  0  0  0  0  2 V2000
  150.5149  138.7297  154.7272 C   0  0  0  0  0  0  0  0  0  0  0  0
  151.0514  140.0163  154.9780 O   0  0  0  0  0  0  0  0  0  0  0  0
  150.0618  140.9493  155.3819 C   0  0  0  0  0  0  0  0  0  0  0  0
  149.5653  140.6015  156.7917 C   0  0  0  0  0  0  0  0  0  0  0  0
  150.6387  140.6434  157.7736 N   0  0  0  0  0  0  0  0  0  0  0  0
  151.3252  139.6041  158.3104 C   0  0  0  0  0  0  0  0  0  0  0  0
  150.9754  137.9201  157.9113 S   0  0  0  0  0  0  0  0  0  0  0  0
  150.4242  137.3301  159.5470 C   0  0  0  0  0  0  0  0  0  0  0  0
  148.9087  137.1310  159.6571 C   0  0  0  0  0  0  0  0  0  0  0  0
  148.2859  136.7128  158.6803 O   0  0  0  0  0  0  0  0  0  0  0  0
  148.4483  137.4423  160.8936 N   0  5  0  0  0  0  0  0  0  0  0  0
  147.3330  136.8597  161.3558 C   0  0  0  0  0  0  0  0  0  0  0  0
  147.1868  135.4915  161.7123 C   0  0  0  0  0  0  0  0  0  0  0  0
  145.8804  135.4093  162.1024 C   0  0  0  0  0  0  0  0  0  0  0  0
  145.0420  134.2845  162.6045 C   0  0  0  0  0  0  0  0  0  0  0  0
  145.2748  136.6214  161.9837 O   0  0  0  0  0  0  0  0  0  0  0  0
  146.2104  137.5435  161.4998 N   0  0  0  0  0  0  0  0  0  0  0  0
  152.2969  139.9315  159.1624 N   0  0  0  0  0  0  0  0  0  0  0  0
  152.2065  141.3076  159.2141 C   0  0  0  0  0  0  0  0  0  0  0  0
  152.9539  142.2488  159.9575 C   0  0  0  0  0  0  0  0  0  0  0  0
  152.6822  143.6277  159.8412 C   0  0  0  0  0  0  0  0  0  0  0  0
  151.6642  144.0843  158.9791 C   0  0  0  0  0  0  0  0  0  0  0  0
  150.9087  143.1629  158.2286 C   0  0  0  0  0  0  0  0  0  0  0  0
  151.1801  141.7869  158.3526 C   0  0  0  0  0  0  0  0  0  0  0  0
  151.3128  138.0542  154.4190 H   0  0  0  0  0  0  0  0  0  0  0  0
  149.7728  138.7604  153.9287 H   0  0  0  0  0  0  0  0  0  0  0  0
  150.0497  138.3148  155.6222 H   0  0  0  0  0  0  0  0  0  0  0  0
  150.4769  141.9582  155.3756 H   0  0  0  0  0  0  0  0  0  0  0  0
  149.2271  140.9365  154.6791 H   0  0  0  0  0  0  0  0  0  0  0  0
  148.7858  141.3002  157.0959 H   0  0  0  0  0  0  0  0  0  0  0  0
  149.1047  139.6155  156.7964 H   0  0  0  0  0  0  0  0  0  0  0  0
  150.9625  136.4169  159.8025 H   0  0  0  0  0  0  0  0  0  0  0  0
  150.7264  138.0698  160.2884 H   0  0  0  0  0  0  0  0  0  0  0  0
  147.9226  134.7017  161.6900 H   0  0  0  0  0  0  0  0  0  0  0  0
  144.5246  133.7925  161.7810 H   0  0  0  0  0  0  0  0  0  0  0  0
  144.2929  134.6417  163.3114 H   0  0  0  0  0  0  0  0  0  0  0  0
  145.6560  133.5401  163.1118 H   0  0  0  0  0  0  0  0  0  0  0  0
  153.7346  141.9070  160.6205 H   0  0  0  0  0  0  0  0  0  0  0  0
  153.2581  144.3378  160.4162 H   0  0  0  0  0  0  0  0  0  0  0  0
  151.4629  145.1420  158.8945 H   0  0  0  0  0  0  0  0  0  0  0  0
  150.1291  143.5089  157.5666 H   0  0  0  0  0  0  0  0  0  0  0  0
  1  2  1  0  0  0  0
  1 25  1  0  0  0  0
  1 26  1  0  0  0  0
  1 27  1  0  0  0  0
  2  3  1  0  0  0  0
  3  4  1  0  0  0  0
  3 28  1  0  0  0  0
  3 29  1  0  0  0  0
  4  5  1  0  0  0  0
  4 30  1  0  0  0  0
  4 31  1  0  0  0  0
  5 24  1  0  0  0  0
  5  6  1  0  0  0  0
  6  7  1  0  0  0  0
  6 18  2  0  0  0  0
  7  8  1  0  0  0  0
  8  9  1  0  0  0  0
  8 32  1  0  0  0  0
  8 33  1  0  0  0  0
  9 10  2  0  0  0  0
  9 11  1  0  0  0  0
 11 12  1  0  0  0  0
 12 17  2  0  0  0  0
 12 13  1  0  0  0  0
 13 14  2  0  0  0  0
 13 34  1  0  0  0  0
 14 15  1  0  0  0  0
 14 16  1  0  0  0  0
 15 35  1  0  0  0  0
 15 36  1  0  0  0  0
 15 37  1  0  0  0  0
 16 17  1  0  0  0  0
 18 19  1  0  0  0  0
 19 24  2  0  0  0  0
 19 20  1  0  0  0  0
 20 21  2  0  0  0  0
 20 38  1  0  0  0  0
 21 22  1  0  0  0  0
 21 39  1  0  0  0  0
 22 23  2  0  0  0  0
 22 40  1  0  0  0  0
 23 24  1  0  0  0  0
 23 41  1  0  0  0  0
M  CHG  1  11  -1
M  END
> <s_m_source_file>
AV-unprocessed.smi

> <i_m_source_file_index>
2986

> <i_lp_mmshare_version>
43012

> <i_f3d_flags>
0

> <s_epik_input>
W2NIXTFbY0hdW2NIXVtjSF1jKGMxMiluKFtDSDJdW0NIMl1PW0NIM10pYyhuMilTW0NIMl1DKD1PKVtOSF1jM1tjSF1jKFtDSDNdKW9uMw==

> <s_epik_cmdline>
J2VwaWtfcHl0aG9uJywgJy1waCcsICc3LjAnLCAnLXRuJywgJzgnLCAnLW1hJywgJzIwMCcsICctbWV0YWxfYmluZGluZycsICctaW1hZScsICc8aW5maWxlLm1hZT4nLCAnLW9tYWUnLCAnPG91dGZpbGUubWFlPic=

> <r_epik_Ionization_Penalty>
4.21562

> <r_epik_Ionization_Penalty_Charging>
4.18608

> <r_epik_Ionization_Penalty_Neutral>
0.0295463

> <r_epik_State_Penalty>
4.20602

> <r_epik_Charging_Adjusted_Penalty>
8.3921

> <i_epik_Tot_Q>
-1

> <i_epik_Tot_abs_Q>
1

> <r_epik_Metal_State_Penalty>
0.721027

> <b_epik_Metal_Only>
1

> <s_lp_Force_Field>
OPLS_2005

> <r_lp_Energy>
2.9865

> <b_lp_Chiralities_Consistent>
1

> <s_lp_Variant>
AV-unprocessed.smi:2986-3

> <Gold.Version>
5.8.1

> <Gold.Id.Protein>
6NUR|6NUR_protein|mol2

> <Gold.PLP.Fitness>
53.4903

> <Gold.PLP.PLP>
-46.2143

> <Gold.PLP.part.hbond>
-3.4709

> <Gold.PLP.part.metal>
0.0000

> <Gold.PLP.part.buried>
-5.1703

> <Gold.PLP.part.nonpolar>
-37.8981

> <Gold.PLP.part.repulsive>
0.0671

> <Gold.PLP.ligand.clash>
0.0000

> <Gold.PLP.ligand.torsion>
1.7730

> <Gold.PLP.Chemscore.Hbond>
3.5040

> <Gold.PLP.Chemscore.CHOScore>
0.0000

> <Gold.PLP.Chemscore.Metal>
0.0000

> <Gold.Chemscore.Hbonds>
donor molecule, donor type, donor heavy atom, donor atom, acceptor molecule, acceptor atom, score
      P1  H  6931  6943       L1    11  1.10
      P1  H  6934  6947       L1    17  0.35
      P1  H  7989  7998       L1     2  0.95

> <Gold.PLP.Chemscore.Internal.Correction>
0.3100

> <Gold.Rescore>
     Score         DG    S(hbond)    S(metal)    S(lipo)     H(rot)  DE(clash)    DE(int)     intcor
     16.32     -18.06       1.75        0.00     106.00       2.21       0.02       1.73       ----

> <Gold.Chemscore.Fitness>
16.3155

> <Gold.Chemscore.DG>
-18.0633

> <Gold.Chemscore.ZeroCoef>
-5.4800

> <Gold.Chemscore.Hbond>
1.7461

> <Gold.Chemscore.Metal>
0.0000

> <Gold.Chemscore.Lipo>
106.0019

> <Gold.Chemscore.Internal_Hbond>
0.0000

> <Gold.Chemscore.DEClash>
0.0202

> <Gold.Chemscore.DEInternal>
1.7275

> <Gold.Chemscore.Rot>
2.2073

> <Gold.Chemscore.Internal.Correction>
   9.000000E+99

> <Gold.Chemscore.Hbonds>
donor molecule, donor type, donor heavy atom, donor atom, acceptor molecule, acceptor atom, score
      P1  H  6931  6943       L1    11  0.43
      P1  H  6934  6947       L1    17  0.01
      P1  H  7989  7998       L1     2  0.19

> <Gold.Chemscore.Hbond.Weighted>
-5.8319

> <Gold.Chemscore.Metal.Weighted>
-0.0000

> <Gold.Chemscore.Lipo.Weighted>
-12.4022

> <Gold.Chemscore.Internal_Hbond.Weighted>
0.0000

> <Gold.Chemscore.DEClash.Weighted>
0.0202

> <Gold.Chemscore.DEInternal.Weighted>
1.7275

> <Gold.Chemscore.Rot.Weighted>
5.6508

> <Gold.Chemscore.Internal.Correction.Weighted>
   9.000000E+99

> <Gold.Protein.RotatedTorsions>
[ 6907 6896 6895 6894 ] final   70.85 input  -60.11 | X-H torsion
[ 7974 7965 7964 7962 ] final -164.12 input  175.53 | X-H torsion
[ 8008 7997 7996 7995 ] final  -93.85 input   59.86 | X-H torsion
[ 10167 10162 10161 10158 ] final    4.26 input  -65.29 | X-H torsion
[ 10718 10713 10712 10709 ] final  107.43 input   66.30 | X-H torsion
[ 10763 10752 10751 10750 ] final  151.29 input  -60.55 | X-H torsion
[ 11005 11000 10999 10996 ] final -154.12 input  -57.11 | X-H torsion

> <Gold.Protein.ActiveResidues>
 VAL166  LYS551  ARG553  GLY616  TRP617  ASP618  TYR619  PRO620  LYS621  CYS622 
 ASP623  PHE694  ASN695  SER759  ASP760  ASP761  ALA762  ILE779  LEU786  VAL792 
 PHE793  MET794  SER795  GLU796  ALA797  LYS798  CYS799  TRP800  GLU811  SER814 

> <Gold.Protein.RotatedAtoms>
  152.4775  134.4807  159.9664 H   0  0  0  0  0  0  0  0  0  0  0  0  # atno 6907 bound_to 6896
  151.4820  133.3538  159.2847 H   0  0  0  0  0  0  0  0  0  0  0  0  # atno 6908 bound_to 6896
  150.8823  134.8242  159.7295 H   0  0  0  0  0  0  0  0  0  0  0  0  # atno 6909 bound_to 6896
  144.7306  140.3007  143.6205 H   0  0  0  0  0  0  0  0  0  0  0  0  # atno 7974 bound_to 7965
  154.7409  140.0495  157.0810 H   0  0  0  0  0  0  0  0  0  0  0  0  # atno 8008 bound_to 7997
  155.0180  140.3143  155.4785 H   0  0  0  0  0  0  0  0  0  0  0  0  # atno 8009 bound_to 7997
  156.2864  140.2172  156.5297 H   0  0  0  0  0  0  0  0  0  0  0  0  # atno 8010 bound_to 7997
  140.6544  143.7465  150.7628 H   0  0  0  0  0  0  0  0  0  0  0  0  # atno 10167 bound_to 10162
  157.6628  131.0872  150.6155 H   0  0  0  0  0  0  0  0  0  0  0  0  # atno 10718 bound_to 10713
  154.1014  135.2845  155.3251 H   0  0  0  0  0  0  0  0  0  0  0  0  # atno 10763 bound_to 10752
  154.6553  135.5354  153.7954 H   0  0  0  0  0  0  0  0  0  0  0  0  # atno 10764 bound_to 10752
  153.0377  135.6520  154.1177 H   0  0  0  0  0  0  0  0  0  0  0  0  # atno 10765 bound_to 10752
  140.7007  134.3940  157.5210 H   0  0  0  0  0  0  0  0  0  0  0  0  # atno 11005 bound_to 11000
  145.7763  139.1875  143.2183 LP  0  0  0  0  0  0  0  0  0  0  0  0  # atno 17320 bound_to 7965
  146.0870  140.7699  142.9613 LP  0  0  0  0  0  0  0  0  0  0  0  0  # atno 17321 bound_to 7965
  140.1122  143.4689  152.2363 LP  0  0  0  0  0  0  0  0  0  0  0  0  # atno 17342 bound_to 10162
  139.5764  144.7489  151.3755 LP  0  0  0  0  0  0  0  0  0  0  0  0  # atno 17343 bound_to 10162
  156.6457  130.4471  149.5737 LP  0  0  0  0  0  0  0  0  0  0  0  0  # atno 17370 bound_to 10713
  156.2175  130.6717  151.1334 LP  0  0  0  0  0  0  0  0  0  0  0  0  # atno 17371 bound_to 10713
  139.8897  134.8822  156.2405 LP  0  0  0  0  0  0  0  0  0  0  0  0  # atno 17394 bound_to 11000
  141.0166  133.7065  156.1198 LP  0  0  0  0  0  0  0  0  0  0  0  0  # atno 17395 bound_to 11000

$$$$
