AV-unprocessed.smi:1259|AV-procd|sdf|5291|dock8
  -GOLD-   22720 4413D 1   1.00000     0.00000
 Structure written by MMmdl.
 34 35  0  0  0  0  0  0  0  0  1 V2000
  151.0997  137.6797  154.4027 C   0  0  0  0  0  0  0  0  0  0  0  0
  150.6432  139.0330  154.8620 C   0  0  0  0  0  0  0  0  0  0  0  0
  151.3216  139.9417  155.7252 C   0  0  0  0  0  0  0  0  0  0  0  0
  150.4527  140.9962  155.7953 C   0  0  0  0  0  0  0  0  0  0  0  0
  150.5760  142.1613  156.4851 N   0  0  0  0  0  0  0  0  0  0  0  0
  151.4463  142.4723  157.4617 C   0  0  0  0  0  0  0  0  0  0  0  0
  152.3052  141.7182  157.9191 O   0  0  0  0  0  0  0  0  0  0  0  0
  151.2638  143.7310  157.8871 N   0  0  0  0  0  0  0  0  0  0  0  0
  152.0450  144.3947  158.9262 C   0  0  2  0  0  0  0  0  0  0  0  0
  153.4628  144.6416  158.3927 C   0  0  0  0  0  0  0  0  0  0  0  0
  152.0859  143.6242  160.2353 C   0  0  0  0  0  0  0  0  0  0  0  0
  153.1812  143.8529  161.2503 C   0  0  0  0  0  0  0  0  0  0  0  0
  153.1265  142.5563  160.4762 C   0  0  0  0  0  0  0  0  0  0  0  0
  149.3476  140.7141  155.0229 N   0  0  0  0  0  0  0  0  0  0  0  0
  148.1601  141.5109  154.7834 C   0  0  0  0  0  0  0  0  0  0  0  0
  149.4693  139.4975  154.4492 N   0  0  0  0  0  0  0  0  0  0  0  0
  152.0949  137.4496  154.7837 H   0  0  0  0  0  0  0  0  0  0  0  0
  151.1416  137.6269  153.3145 H   0  0  0  0  0  0  0  0  0  0  0  0
  150.4231  136.8985  154.7499 H   0  0  0  0  0  0  0  0  0  0  0  0
  152.2824  139.8191  156.2019 H   0  0  0  0  0  0  0  0  0  0  0  0
  149.9296  142.8891  156.2180 H   0  0  0  0  0  0  0  0  0  0  0  0
  150.5335  144.2764  157.4536 H   0  0  0  0  0  0  0  0  0  0  0  0
  151.5999  145.3720  159.1231 H   0  0  0  0  0  0  0  0  0  0  0  0
  154.0659  145.1865  159.1194 H   0  0  0  0  0  0  0  0  0  0  0  0
  153.4418  145.2329  157.4766 H   0  0  0  0  0  0  0  0  0  0  0  0
  153.9742  143.7035  158.1735 H   0  0  0  0  0  0  0  0  0  0  0  0
  151.0991  143.4117  160.6431 H   0  0  0  0  0  0  0  0  0  0  0  0
  153.9739  144.5537  160.9958 H   0  0  0  0  0  0  0  0  0  0  0  0
  152.9036  143.8250  162.3020 H   0  0  0  0  0  0  0  0  0  0  0  0
  152.8139  141.6625  161.0122 H   0  0  0  0  0  0  0  0  0  0  0  0
  153.8813  142.3995  159.7079 H   0  0  0  0  0  0  0  0  0  0  0  0
  147.5042  141.4570  155.6522 H   0  0  0  0  0  0  0  0  0  0  0  0
  147.6233  141.1430  153.9081 H   0  0  0  0  0  0  0  0  0  0  0  0
  148.4395  142.5504  154.6108 H   0  0  0  0  0  0  0  0  0  0  0  0
  1  2  1  0  0  0  0
  1 17  1  0  0  0  0
  1 18  1  0  0  0  0
  1 19  1  0  0  0  0
  2 16  2  0  0  0  0
  2  3  1  0  0  0  0
  3  4  2  0  0  0  0
  3 20  1  0  0  0  0
  4  5  1  0  0  0  0
  4 14  1  0  0  0  0
  5  6  1  0  0  0  0
  5 21  1  0  0  0  0
  6  7  2  0  0  0  0
  6  8  1  0  0  0  0
  8  9  1  0  0  0  0
  8 22  1  0  0  0  0
  9 10  1  0  0  0  0
  9 11  1  0  0  0  0
  9 23  1  0  0  0  0
 10 24  1  0  0  0  0
 10 25  1  0  0  0  0
 10 26  1  0  0  0  0
 11 13  1  0  0  0  0
 11 12  1  0  0  0  0
 11 27  1  0  0  0  0
 12 13  1  0  0  0  0
 12 28  1  0  0  0  0
 12 29  1  0  0  0  0
 13 30  1  0  0  0  0
 13 31  1  0  0  0  0
 14 15  1  0  0  0  0
 14 16  1  0  0  0  0
 15 32  1  0  0  0  0
 15 33  1  0  0  0  0
 15 34  1  0  0  0  0
M  END
> <s_m_source_file>
AV-unprocessed.smi

> <i_m_source_file_index>
1259

> <i_lp_mmshare_version>
43012

> <i_f3d_flags>
0

> <s_epik_input>
W0NIM11jMVtjSF1jKG4objEpW0NIM10pW05IXUMoPU8pW05IXVtDQEhdKFtDSDNdKVtDSF0yW0NIMl1bQ0gyXTI=

> <s_epik_cmdline>
J2VwaWtfcHl0aG9uJywgJy1waCcsICc3LjAnLCAnLXRuJywgJzgnLCAnLW1hJywgJzIwMCcsICctbWV0YWxfYmluZGluZycsICctaW1hZScsICc8aW5maWxlLm1hZT4nLCAnLW9tYWUnLCAnPG91dGZpbGUubWFlPic=

> <r_lp_tautomer_probability>
1

> <r_epik_Ionization_Penalty>
0.000100032

> <r_epik_Ionization_Penalty_Charging>
0

> <r_epik_Ionization_Penalty_Neutral>
0.000100032

> <r_epik_State_Penalty>
-0

> <r_epik_Charging_Adjusted_Penalty>
0

> <i_epik_Tot_Q>
0

> <i_epik_Tot_abs_Q>
0

> <r_epik_Metal_State_Penalty>
-0

> <b_epik_Metal_Only>
0

> <s_lp_Force_Field>
OPLS_2005

> <r_lp_Energy>
14.2457

> <b_lp_Chiralities_Consistent>
1

> <s_lp_Variant>
AV-unprocessed.smi:1259-1

> <Gold.Version>
5.8.1

> <Gold.Id.Protein>
6NUR|6NUR_protein|mol2

> <Gold.PLP.Fitness>
47.3560

> <Gold.PLP.PLP>
-41.5507

> <Gold.PLP.part.hbond>
-2.0000

> <Gold.PLP.part.metal>
0.0000

> <Gold.PLP.part.buried>
-5.6859

> <Gold.PLP.part.nonpolar>
-34.8596

> <Gold.PLP.part.repulsive>
1.1380

> <Gold.PLP.ligand.clash>
0.0000

> <Gold.PLP.ligand.torsion>
0.6287

> <Gold.PLP.Chemscore.Hbond>
2.0000

> <Gold.PLP.Chemscore.CHOScore>
0.0000

> <Gold.PLP.Chemscore.Metal>
0.0000

> <Gold.Chemscore.Hbonds>
donor molecule, donor type, donor heavy atom, donor atom, acceptor molecule, acceptor atom, score
      L1  H     5    21       P1  8028  0.63

> <Gold.PLP.Chemscore.Internal.Correction>
1.0627

> <Gold.Rescore>
     Score         DG    S(hbond)    S(metal)    S(lipo)     H(rot)  DE(clash)    DE(int)     intcor
     15.59     -19.22       1.82        0.00      91.72       1.20       0.22       3.41       ----

> <Gold.Chemscore.Fitness>
15.5882

> <Gold.Chemscore.DG>
-19.2240

> <Gold.Chemscore.ZeroCoef>
-5.4800

> <Gold.Chemscore.Hbond>
1.8212

> <Gold.Chemscore.Metal>
0.0000

> <Gold.Chemscore.Lipo>
91.7154

> <Gold.Chemscore.Internal_Hbond>
0.0000

> <Gold.Chemscore.DEClash>
0.2226

> <Gold.Chemscore.DEInternal>
3.4131

> <Gold.Chemscore.Rot>
1.1990

> <Gold.Chemscore.Internal.Correction>
   9.000000E+99

> <Gold.Chemscore.Hbonds>
donor molecule, donor type, donor heavy atom, donor atom, acceptor molecule, acceptor atom, score
      L1  H     5    21       P1  8028  0.63
      L1  H     8    22       P1  8028  0.04

> <Gold.Chemscore.Hbond.Weighted>
-6.0828

> <Gold.Chemscore.Metal.Weighted>
-0.0000

> <Gold.Chemscore.Lipo.Weighted>
-10.7307

> <Gold.Chemscore.Internal_Hbond.Weighted>
0.0000

> <Gold.Chemscore.DEClash.Weighted>
0.2226

> <Gold.Chemscore.DEInternal.Weighted>
3.4131

> <Gold.Chemscore.Rot.Weighted>
3.0695

> <Gold.Chemscore.Internal.Correction.Weighted>
   9.000000E+99

> <Gold.Protein.RotatedTorsions>
[ 6907 6896 6895 6894 ] final  -22.41 input  -60.11 | X-H torsion
[ 7974 7965 7964 7962 ] final  -98.28 input  175.53 | X-H torsion
[ 8008 7997 7996 7995 ] final  -84.77 input   59.86 | X-H torsion
[ 10167 10162 10161 10158 ] final -162.20 input  -65.29 | X-H torsion
[ 10718 10713 10712 10709 ] final  101.23 input   66.30 | X-H torsion
[ 10763 10752 10751 10750 ] final  173.16 input  -60.55 | X-H torsion
[ 11005 11000 10999 10996 ] final  -18.05 input  -57.11 | X-H torsion

> <Gold.Protein.ActiveResidues>
 VAL166  LYS551  ARG553  GLY616  TRP617  ASP618  TYR619  PRO620  LYS621  CYS622 
 ASP623  PHE694  ASN695  SER759  ASP760  ASP761  ALA762  ILE779  LEU786  VAL792 
 PHE793  MET794  SER795  GLU796  ALA797  LYS798  CYS799  TRP800  GLU811  SER814 

> <Gold.Protein.RotatedAtoms>
  151.2189  135.0511  159.8941 H   0  0  0  0  0  0  0  0  0  0  0  0  # atno 6907 bound_to 6896
  152.5417  134.0662  159.8184 H   0  0  0  0  0  0  0  0  0  0  0  0  # atno 6908 bound_to 6896
  151.0825  133.5330  159.2651 H   0  0  0  0  0  0  0  0  0  0  0  0  # atno 6909 bound_to 6896
  145.3226  140.9425  143.2707 H   0  0  0  0  0  0  0  0  0  0  0  0  # atno 7974 bound_to 7965
  154.6334  140.0600  156.9760 H   0  0  0  0  0  0  0  0  0  0  0  0  # atno 8008 bound_to 7997
  155.1629  140.3284  155.4389 H   0  0  0  0  0  0  0  0  0  0  0  0  # atno 8009 bound_to 7997
  156.2494  140.1927  156.6736 H   0  0  0  0  0  0  0  0  0  0  0  0  # atno 8010 bound_to 7997
  139.6409  144.0261  152.2091 H   0  0  0  0  0  0  0  0  0  0  0  0  # atno 10167 bound_to 10162
  157.6835  131.0720  150.5220 H   0  0  0  0  0  0  0  0  0  0  0  0  # atno 10718 bound_to 10713
  154.4361  135.2761  155.1879 H   0  0  0  0  0  0  0  0  0  0  0  0  # atno 10763 bound_to 10752
  154.3765  135.6097  153.5771 H   0  0  0  0  0  0  0  0  0  0  0  0  # atno 10764 bound_to 10752
  152.9838  135.5870  154.4681 H   0  0  0  0  0  0  0  0  0  0  0  0  # atno 10765 bound_to 10752
  140.8229  133.8055  155.9678 H   0  0  0  0  0  0  0  0  0  0  0  0  # atno 11005 bound_to 11000
  144.8927  139.4753  143.6670 LP  0  0  0  0  0  0  0  0  0  0  0  0  # atno 17320 bound_to 7965
  146.3076  139.7634  142.9044 LP  0  0  0  0  0  0  0  0  0  0  0  0  # atno 17321 bound_to 7965
  139.9950  144.6334  150.7780 LP  0  0  0  0  0  0  0  0  0  0  0  0  # atno 17342 bound_to 10162
  140.7490  143.2932  151.3275 LP  0  0  0  0  0  0  0  0  0  0  0  0  # atno 17343 bound_to 10162
  156.5533  130.4237  149.6097 LP  0  0  0  0  0  0  0  0  0  0  0  0  # atno 17370 bound_to 10713
  156.2884  130.7110  151.1952 LP  0  0  0  0  0  0  0  0  0  0  0  0  # atno 17371 bound_to 10713
  140.9080  134.2296  157.5003 LP  0  0  0  0  0  0  0  0  0  0  0  0  # atno 17394 bound_to 11000
  139.8708  134.9737  156.4819 LP  0  0  0  0  0  0  0  0  0  0  0  0  # atno 17395 bound_to 11000

$$$$
