AV-unprocessed.smi:249|AV-procd|sdf|1925|dock5
  -GOLD-   2262021 33D 1   1.00000     0.00000
 Structure written by MMmdl.
 64 67  0  0  0  0  0  0  0  0  2 V2000
  145.9214  132.1659  150.4931 C   0  0  0  0  0  0  0  0  0  0  0  0
  145.9647  130.8099  151.2210 C   0  0  0  0  0  0  0  0  0  0  0  0
  147.2516  130.5273  151.9176 N   0  3  1  0  0  0  0  0  0  0  0  0
  147.5121  131.4824  153.0286 C   0  0  0  0  0  0  0  0  0  0  0  0
  148.9483  131.3532  153.5539 C   0  0  0  0  0  0  0  0  0  0  0  0
  149.2235  129.9063  154.0050 C   0  0  2  0  0  0  0  0  0  0  0  0
  150.5447  129.7155  154.6210 N   0  0  0  0  0  0  0  0  0  0  0  0
  151.0425  128.3497  154.7467 C   0  0  0  0  0  0  0  0  0  0  0  0
  151.0437  130.5653  155.5582 C   0  0  0  0  0  0  0  0  0  0  0  0
  150.2076  131.3395  156.2986 N   0  0  0  0  0  0  0  0  0  0  0  0
  150.6928  132.1589  157.2356 C   0  0  0  0  0  0  0  0  0  0  0  0
  151.9617  132.3535  157.5967 N   0  0  0  0  0  0  0  0  0  0  0  0
  152.8082  131.5758  156.8636 C   0  0  0  0  0  0  0  0  0  0  0  0
  152.4374  130.6658  155.8333 C   0  0  0  0  0  0  0  0  0  0  0  0
  153.5739  130.0671  155.3023 N   0  0  0  0  0  0  0  0  0  0  0  0
  154.5581  130.5870  155.9833 C   0  0  0  0  0  0  0  0  0  0  0  0
  154.1861  131.4865  156.9570 N   0  0  0  0  0  0  0  0  0  0  0  0
  155.0706  132.2142  157.8499 C   0  0  0  0  0  0  0  0  0  0  0  0
  154.3785  133.3068  158.7127 C   0  0  2  0  0  0  0  0  0  0  0  0
  153.9708  134.4886  157.7997 C   0  0  0  0  0  0  0  0  0  0  0  0
  155.1043  135.1476  157.2728 O   0  0  0  0  0  0  0  0  0  0  0  0
  155.2527  133.7871  159.9102 C   0  0  1  0  0  0  0  0  0  0  0  0
  154.6531  134.9165  160.7360 C   0  0  0  0  0  0  0  0  0  0  0  0
  155.4544  134.8380  162.0267 C   0  0  0  0  0  0  0  0  0  0  0  0
  155.6279  133.4479  162.2485 O   0  0  0  0  0  0  0  0  0  0  0  0
  155.5054  132.7455  161.0148 C   0  0  0  0  0  0  0  0  0  0  0  0
  148.9149  128.9249  152.8558 C   0  0  0  0  0  0  0  0  0  0  0  0
  147.4768  129.1044  152.3249 C   0  0  2  0  0  0  0  0  0  0  0  0
  147.2282  128.1063  151.1766 C   0  0  0  0  0  0  0  0  0  0  0  0
  144.9602  132.2973  149.9959 H   0  0  0  0  0  0  0  0  0  0  0  0
  146.6921  132.2414  149.7266 H   0  0  0  0  0  0  0  0  0  0  0  0
  146.0441  133.0030  151.1797 H   0  0  0  0  0  0  0  0  0  0  0  0
  145.1409  130.7459  151.9312 H   0  0  0  0  0  0  0  0  0  0  0  0
  145.7757  130.0127  150.5010 H   0  0  0  0  0  0  0  0  0  0  0  0
  147.3504  132.5043  152.6839 H   0  0  0  0  0  0  0  0  0  0  0  0
  146.8080  131.3078  153.8427 H   0  0  0  0  0  0  0  0  0  0  0  0
  149.6403  131.6621  152.7715 H   0  0  0  0  0  0  0  0  0  0  0  0
  149.0939  132.0440  154.3847 H   0  0  0  0  0  0  0  0  0  0  0  0
  148.5074  129.6799  154.7965 H   0  0  0  0  0  0  0  0  0  0  0  0
  152.0266  128.2559  154.2873 H   0  0  0  0  0  0  0  0  0  0  0  0
  150.3802  127.6399  154.2500 H   0  0  0  0  0  0  0  0  0  0  0  0
  151.1206  128.0543  155.7941 H   0  0  0  0  0  0  0  0  0  0  0  0
  149.9595  132.7388  157.7762 H   0  0  0  0  0  0  0  0  0  0  0  0
  155.5881  130.3175  155.8000 H   0  0  0  0  0  0  0  0  0  0  0  0
  155.5754  131.4966  158.4980 H   0  0  0  0  0  0  0  0  0  0  0  0
  155.8482  132.6550  157.2256 H   0  0  0  0  0  0  0  0  0  0  0  0
  153.4569  132.8934  159.1240 H   0  0  0  0  0  0  0  0  0  0  0  0
  153.3885  134.1513  156.9436 H   0  0  0  0  0  0  0  0  0  0  0  0
  153.3552  135.2054  158.3440 H   0  0  0  0  0  0  0  0  0  0  0  0
  155.3333  135.8602  157.8498 H   0  0  0  0  0  0  0  0  0  0  0  0
  156.2166  134.1308  159.5313 H   0  0  0  0  0  0  0  0  0  0  0  0
  154.7412  135.8937  160.2607 H   0  0  0  0  0  0  0  0  0  0  0  0
  153.5983  134.7249  160.9393 H   0  0  0  0  0  0  0  0  0  0  0  0
  156.4334  135.3017  161.8981 H   0  0  0  0  0  0  0  0  0  0  0  0
  154.9536  135.3209  162.8661 H   0  0  0  0  0  0  0  0  0  0  0  0
  154.6678  132.0532  161.1071 H   0  0  0  0  0  0  0  0  0  0  0  0
  156.4074  132.1632  160.8318 H   0  0  0  0  0  0  0  0  0  0  0  0
  149.6097  129.0579  152.0272 H   0  0  0  0  0  0  0  0  0  0  0  0
  149.0520  127.9018  153.2087 H   0  0  0  0  0  0  0  0  0  0  0  0
  146.7871  128.8671  153.1364 H   0  0  0  0  0  0  0  0  0  0  0  0
  147.4868  127.0921  151.4820 H   0  0  0  0  0  0  0  0  0  0  0  0
  147.8311  128.3488  150.3007 H   0  0  0  0  0  0  0  0  0  0  0  0
  146.1825  128.0804  150.8715 H   0  0  0  0  0  0  0  0  0  0  0  0
  147.9649  130.7225  151.2294 H   0  0  0  0  0  0  0  0  0  0  0  0
  1  2  1  0  0  0  0
  1 30  1  0  0  0  0
  1 31  1  0  0  0  0
  1 32  1  0  0  0  0
  2  3  1  0  0  0  0
  2 33  1  0  0  0  0
  2 34  1  0  0  0  0
  3 28  1  0  0  0  0
  3  4  1  0  0  0  0
  3 64  1  0  0  0  0
  4  5  1  0  0  0  0
  4 35  1  0  0  0  0
  4 36  1  0  0  0  0
  5  6  1  0  0  0  0
  5 37  1  0  0  0  0
  5 38  1  0  0  0  0
  6  7  1  0  0  0  0
  6 27  1  0  0  0  0
  6 39  1  0  0  0  0
  7  8  1  0  0  0  0
  7  9  1  0  0  0  0
  8 40  1  0  0  0  0
  8 41  1  0  0  0  0
  8 42  1  0  0  0  0
  9 14  1  0  0  0  0
  9 10  2  0  0  0  0
 10 11  1  0  0  0  0
 11 12  2  0  0  0  0
 11 43  1  0  0  0  0
 12 13  1  0  0  0  0
 13 17  1  0  0  0  0
 13 14  2  0  0  0  0
 14 15  1  0  0  0  0
 15 16  2  0  0  0  0
 16 17  1  0  0  0  0
 16 44  1  0  0  0  0
 17 18  1  0  0  0  0
 18 19  1  0  0  0  0
 18 45  1  0  0  0  0
 18 46  1  0  0  0  0
 19 20  1  0  0  0  0
 19 22  1  0  0  0  0
 19 47  1  0  0  0  0
 20 21  1  0  0  0  0
 20 48  1  0  0  0  0
 20 49  1  0  0  0  0
 21 50  1  0  0  0  0
 22 26  1  0  0  0  0
 22 23  1  0  0  0  0
 22 51  1  0  0  0  0
 23 24  1  0  0  0  0
 23 52  1  0  0  0  0
 23 53  1  0  0  0  0
 24 25  1  0  0  0  0
 24 54  1  0  0  0  0
 24 55  1  0  0  0  0
 25 26  1  0  0  0  0
 26 56  1  0  0  0  0
 26 57  1  0  0  0  0
 27 28  1  0  0  0  0
 27 58  1  0  0  0  0
 27 59  1  0  0  0  0
 28 29  1  0  0  0  0
 28 60  1  0  0  0  0
 29 61  1  0  0  0  0
 29 62  1  0  0  0  0
 29 63  1  0  0  0  0
M  CHG  1   3   1
M  END
> <s_m_source_file>
AV-unprocessed.smi

> <i_m_source_file_index>
249

> <i_lp_mmshare_version>
43012

> <i_f3d_flags>
0

> <s_epik_input>
W0NIM11bQ0gyXU4xW0NIMl1bQ0gyXVtDQEhdKFtDSDJdW0NASF0xW0NIM10pTihbQ0gzXSljKG5bY0hdbjIpYyhjMjMpbltjSF1uM1tDSDJdW0NASF0oW0NIMl1bT0hdKVtDQEBIXTRbQ0gyXVtDSDJdT1tDSDJdNA==

> <s_epik_cmdline>
J2VwaWtfcHl0aG9uJywgJy1waCcsICc3LjAnLCAnLXRuJywgJzgnLCAnLW1hJywgJzIwMCcsICctbWV0YWxfYmluZGluZycsICctaW1hZScsICc8aW5maWxlLm1hZT4nLCAnLW9tYWUnLCAnPG91dGZpbGUubWFlPic=

> <r_lp_tautomer_probability>
1

> <r_epik_Ionization_Penalty>
0.00294688

> <r_epik_Ionization_Penalty_Charging>
0.00169971

> <r_epik_Ionization_Penalty_Neutral>
0.00124717

> <r_epik_State_Penalty>
-0

> <r_epik_Charging_Adjusted_Penalty>
0.00169971

> <i_epik_Tot_Q>
1

> <i_epik_Tot_abs_Q>
1

> <r_epik_Metal_State_Penalty>
-0

> <b_epik_Metal_Only>
0

> <s_lp_Force_Field>
OPLS_2005

> <r_lp_Energy>
53.7488

> <b_lp_Chiralities_Consistent>
1

> <s_lp_Variant>
AV-unprocessed.smi:249-28

> <Gold.Version>
5.8.1

> <Gold.Id.Protein>
6NUR|6NUR_protein|mol2

> <Gold.PLP.Fitness>
47.3395

> <Gold.PLP.PLP>
-39.6140

> <Gold.PLP.part.hbond>
-3.0000

> <Gold.PLP.part.metal>
0.0000

> <Gold.PLP.part.buried>
-4.2979

> <Gold.PLP.part.nonpolar>
-33.7498

> <Gold.PLP.part.repulsive>
0.0443

> <Gold.PLP.ligand.clash>
0.0000

> <Gold.PLP.ligand.torsion>
1.2049

> <Gold.PLP.Chemscore.Hbond>
2.9913

> <Gold.PLP.Chemscore.CHOScore>
0.0000

> <Gold.PLP.Chemscore.Metal>
0.0000

> <Gold.Chemscore.Hbonds>
donor molecule, donor type, donor heavy atom, donor atom, acceptor molecule, acceptor atom, score
      L1  H     3    64       P1 10747  0.65
      P1  H  6896  6908       L1    12  1.00
      P1  H 10752 10764       L1    21  0.57

> <Gold.PLP.Chemscore.Internal.Correction>
1.1615

> <Gold.Rescore>
     Score         DG    S(hbond)    S(metal)    S(lipo)     H(rot)  DE(clash)    DE(int)     intcor
     13.03     -17.49       2.47        0.00      90.23       2.65       0.02       4.44       ----

> <Gold.Chemscore.Fitness>
13.0285

> <Gold.Chemscore.DG>
-17.4890

> <Gold.Chemscore.ZeroCoef>
-5.4800

> <Gold.Chemscore.Hbond>
2.4669

> <Gold.Chemscore.Metal>
0.0000

> <Gold.Chemscore.Lipo>
90.2349

> <Gold.Chemscore.Internal_Hbond>
0.0000

> <Gold.Chemscore.DEClash>
0.0189

> <Gold.Chemscore.DEInternal>
4.4417

> <Gold.Chemscore.Rot>
2.6515

> <Gold.Chemscore.Internal.Correction>
   9.000000E+99

> <Gold.Chemscore.Hbonds>
donor molecule, donor type, donor heavy atom, donor atom, acceptor molecule, acceptor atom, score
      L1  H     3    64       P1 10747  0.65
      P1  H  6896  6908       L1    12  0.47
      P1  H 10752 10764       L1    21  0.19

> <Gold.Chemscore.Hbond.Weighted>
-8.2395

> <Gold.Chemscore.Metal.Weighted>
-0.0000

> <Gold.Chemscore.Lipo.Weighted>
-10.5575

> <Gold.Chemscore.Internal_Hbond.Weighted>
0.0000

> <Gold.Chemscore.DEClash.Weighted>
0.0189

> <Gold.Chemscore.DEInternal.Weighted>
4.4417

> <Gold.Chemscore.Rot.Weighted>
6.7880

> <Gold.Chemscore.Internal.Correction.Weighted>
   9.000000E+99

> <Gold.Protein.RotatedTorsions>
[ 6907 6896 6895 6894 ] final   46.58 input  -60.11 | X-H torsion
[ 7974 7965 7964 7962 ] final -111.64 input  175.53 | X-H torsion
[ 8008 7997 7996 7995 ] final  -87.55 input   59.86 | X-H torsion
[ 10167 10162 10161 10158 ] final  -86.31 input  -65.29 | X-H torsion
[ 10718 10713 10712 10709 ] final  159.74 input   66.30 | X-H torsion
[ 10763 10752 10751 10750 ] final   64.80 input  -60.55 | X-H torsion
[ 11005 11000 10999 10996 ] final  -95.27 input  -57.11 | X-H torsion

> <Gold.Protein.ActiveResidues>
 VAL166  LYS551  ARG553  GLY616  TRP617  ASP618  TYR619  PRO620  LYS621  CYS622 
 ASP623  PHE694  ASN695  SER759  ASP760  ASP761  ALA762  ILE779  LEU786  VAL792 
 PHE793  MET794  SER795  GLU796  ALA797  LYS798  CYS799  TRP800  GLU811  SER814 

> <Gold.Protein.RotatedAtoms>
  152.2580  134.8063  160.0434 H   0  0  0  0  0  0  0  0  0  0  0  0  # atno 6907 bound_to 6896
  151.8720  133.3472  159.3746 H   0  0  0  0  0  0  0  0  0  0  0  0  # atno 6908 bound_to 6896
  150.7107  134.5031  159.5615 H   0  0  0  0  0  0  0  0  0  0  0  0  # atno 6909 bound_to 6896
  145.1536  140.8842  143.3632 H   0  0  0  0  0  0  0  0  0  0  0  0  # atno 7974 bound_to 7965
  154.6645  140.0564  157.0099 H   0  0  0  0  0  0  0  0  0  0  0  0  # atno 8008 bound_to 7997
  155.1179  140.3244  155.4486 H   0  0  0  0  0  0  0  0  0  0  0  0  # atno 8009 bound_to 7997
  156.2632  140.2003  156.6302 H   0  0  0  0  0  0  0  0  0  0  0  0  # atno 8010 bound_to 7997
  140.3953  143.2686  151.9212 H   0  0  0  0  0  0  0  0  0  0  0  0  # atno 10167 bound_to 10162
  157.1600  131.0585  151.2237 H   0  0  0  0  0  0  0  0  0  0  0  0  # atno 10718 bound_to 10713
  153.0070  135.5380  154.6567 H   0  0  0  0  0  0  0  0  0  0  0  0  # atno 10763 bound_to 10752
  154.5786  135.2848  155.0758 H   0  0  0  0  0  0  0  0  0  0  0  0  # atno 10764 bound_to 10752
  154.1895  135.6502  153.5109 H   0  0  0  0  0  0  0  0  0  0  0  0  # atno 10765 bound_to 10752
  141.1446  133.8014  157.0412 H   0  0  0  0  0  0  0  0  0  0  0  0  # atno 11005 bound_to 11000
  145.0405  139.3264  143.5979 LP  0  0  0  0  0  0  0  0  0  0  0  0  # atno 17320 bound_to 7965
  146.3491  139.9776  142.8699 LP  0  0  0  0  0  0  0  0  0  0  0  0  # atno 17321 bound_to 7965
  139.4787  144.5687  151.8123 LP  0  0  0  0  0  0  0  0  0  0  0  0  # atno 17342 bound_to 10162
  140.4797  144.1468  150.5930 LP  0  0  0  0  0  0  0  0  0  0  0  0  # atno 17343 bound_to 10162
  157.4141  130.7401  149.6862 LP  0  0  0  0  0  0  0  0  0  0  0  0  # atno 17370 bound_to 10713
  155.9755  130.4087  150.3842 LP  0  0  0  0  0  0  0  0  0  0  0  0  # atno 17371 bound_to 10713
  140.0691  134.9712  157.1437 LP  0  0  0  0  0  0  0  0  0  0  0  0  # atno 17394 bound_to 11000
  140.3736  134.2363  155.7176 LP  0  0  0  0  0  0  0  0  0  0  0  0  # atno 17395 bound_to 11000

$$$$
