AV-unprocessed.smi:1278|AV-procd|sdf|5350|dock2
  -GOLD-   22720 4483D 1   1.00000     0.00000
 Structure written by MMmdl.
 39 40  0  0  0  0  0  0  0  0  2 V2000
  146.5834  131.9189  153.5108 C   0  0  0  0  0  0  0  0  0  0  0  0
  146.4935  133.1033  152.5382 C   0  0  1  0  0  0  0  0  0  0  0  0
  145.4514  132.8466  151.4367 C   0  0  0  0  0  0  0  0  0  0  0  0
  145.3631  134.0550  150.4969 C   0  0  0  0  0  0  0  0  0  0  0  0
  145.0756  135.3433  151.2835 C   0  0  0  0  0  0  0  0  0  0  0  0
  146.1002  135.5684  152.3358 N   0  3  1  0  0  0  0  0  0  0  0  0
  145.9238  136.8757  153.0166 C   0  0  0  0  0  0  0  0  0  0  0  0
  146.1181  138.0692  152.0606 C   0  0  0  0  0  0  0  0  0  0  0  0
  147.2892  138.8602  152.4215 N   0  0  0  0  0  0  0  0  0  0  0  0
  147.6000  139.2395  153.6696 C   0  0  0  0  0  0  0  0  0  0  0  0
  146.9188  138.9464  154.6528 O   0  0  0  0  0  0  0  0  0  0  0  0
  148.7329  139.9633  153.6947 N   0  0  0  0  0  0  0  0  0  0  0  0
  149.3892  140.5244  154.8219 C   0  0  0  0  0  0  0  0  0  0  0  0
  150.7135  140.5011  155.0123 N   0  0  0  0  0  0  0  0  0  0  0  0
  151.0831  141.1285  156.2046 C   0  0  0  0  0  0  0  0  0  0  0  0
  150.0199  141.6282  156.9144 C   0  0  0  0  0  0  0  0  0  0  0  0
  148.5029  141.3294  156.1085 S   0  0  0  0  0  0  0  0  0  0  0  0
  146.1771  134.4191  153.2777 C   0  0  0  0  0  0  0  0  0  0  0  0
  145.6354  131.7536  154.0239 H   0  0  0  0  0  0  0  0  0  0  0  0
  147.3472  132.0899  154.2698 H   0  0  0  0  0  0  0  0  0  0  0  0
  146.8420  130.9990  152.9855 H   0  0  0  0  0  0  0  0  0  0  0  0
  147.4692  133.2110  152.0615 H   0  0  0  0  0  0  0  0  0  0  0  0
  145.7127  131.9533  150.8682 H   0  0  0  0  0  0  0  0  0  0  0  0
  144.4741  132.6577  151.8832 H   0  0  0  0  0  0  0  0  0  0  0  0
  146.2992  134.1617  149.9468 H   0  0  0  0  0  0  0  0  0  0  0  0
  144.5837  133.8911  149.7521 H   0  0  0  0  0  0  0  0  0  0  0  0
  145.0634  136.1861  150.5914 H   0  0  0  0  0  0  0  0  0  0  0  0
  144.0863  135.2937  151.7413 H   0  0  0  0  0  0  0  0  0  0  0  0
  144.9136  136.9246  153.4252 H   0  0  0  0  0  0  0  0  0  0  0  0
  146.6023  136.9460  153.8684 H   0  0  0  0  0  0  0  0  0  0  0  0
  146.2633  137.7285  151.0362 H   0  0  0  0  0  0  0  0  0  0  0  0
  145.2297  138.7034  152.0548 H   0  0  0  0  0  0  0  0  0  0  0  0
  147.8995  139.1451  151.6693 H   0  0  0  0  0  0  0  0  0  0  0  0
  149.1817  140.1293  152.8060 H   0  0  0  0  0  0  0  0  0  0  0  0
  152.1287  141.1746  156.4709 H   0  0  0  0  0  0  0  0  0  0  0  0
  150.0378  142.1523  157.8586 H   0  0  0  0  0  0  0  0  0  0  0  0
  145.2338  134.3308  153.8194 H   0  0  0  0  0  0  0  0  0  0  0  0
  146.9513  134.5980  154.0229 H   0  0  0  0  0  0  0  0  0  0  0  0
  146.9872  135.6167  151.8549 H   0  0  0  0  0  0  0  0  0  0  0  0
  1  2  1  0  0  0  0
  1 19  1  0  0  0  0
  1 20  1  0  0  0  0
  1 21  1  0  0  0  0
  2 18  1  0  0  0  0
  2  3  1  0  0  0  0
  2 22  1  0  0  0  0
  3  4  1  0  0  0  0
  3 23  1  0  0  0  0
  3 24  1  0  0  0  0
  4  5  1  0  0  0  0
  4 25  1  0  0  0  0
  4 26  1  0  0  0  0
  5  6  1  0  0  0  0
  5 27  1  0  0  0  0
  5 28  1  0  0  0  0
  6  7  1  0  0  0  0
  6 18  1  0  0  0  0
  6 39  1  0  0  0  0
  7  8  1  0  0  0  0
  7 29  1  0  0  0  0
  7 30  1  0  0  0  0
  8  9  1  0  0  0  0
  8 31  1  0  0  0  0
  8 32  1  0  0  0  0
  9 10  1  0  0  0  0
  9 33  1  0  0  0  0
 10 11  2  0  0  0  0
 10 12  1  0  0  0  0
 12 13  1  0  0  0  0
 12 34  1  0  0  0  0
 13 17  1  0  0  0  0
 13 14  2  0  0  0  0
 14 15  1  0  0  0  0
 15 16  2  0  0  0  0
 15 35  1  0  0  0  0
 16 17  1  0  0  0  0
 16 36  1  0  0  0  0
 18 37  1  0  0  0  0
 18 38  1  0  0  0  0
M  CHG  1   6   1
M  END
> <s_m_source_file>
AV-unprocessed.smi

> <i_m_source_file_index>
1278

> <i_lp_mmshare_version>
43012

> <i_f3d_flags>
0

> <s_epik_input>
W0NIM11bQ0BASF0xW0NIMl1bQ0gyXVtDSDJdTihbQ0gyXTEpW0NIMl1bQ0gyXVtOSF1DKD1PKVtOSF1jMm5bY0hdW2NIXXMy

> <s_epik_cmdline>
J2VwaWtfcHl0aG9uJywgJy1waCcsICc3LjAnLCAnLXRuJywgJzgnLCAnLW1hJywgJzIwMCcsICctbWV0YWxfYmluZGluZycsICctaW1hZScsICc8aW5maWxlLm1hZT4nLCAnLW9tYWUnLCAnPG91dGZpbGUubWFlPic=

> <r_lp_tautomer_probability>
0.999

> <r_epik_Ionization_Penalty>
0.00222194

> <r_epik_Ionization_Penalty_Charging>
0.00208169

> <r_epik_Ionization_Penalty_Neutral>
0.000140251

> <r_epik_State_Penalty>
0.00142585

> <r_epik_Charging_Adjusted_Penalty>
0.00350754

> <i_epik_Tot_Q>
1

> <i_epik_Tot_abs_Q>
1

> <r_epik_Metal_State_Penalty>
0.0570424

> <b_epik_Metal_Only>
0

> <s_lp_Force_Field>
OPLS_2005

> <r_lp_Energy>
13.7049

> <b_lp_Chiralities_Consistent>
1

> <s_lp_Variant>
AV-unprocessed.smi:1278-4

> <Gold.Version>
5.8.1

> <Gold.Id.Protein>
6NUR|6NUR_protein|mol2

> <Gold.PLP.Fitness>
43.5886

> <Gold.PLP.PLP>
-30.4928

> <Gold.PLP.part.hbond>
-4.9120

> <Gold.PLP.part.metal>
0.0000

> <Gold.PLP.part.buried>
-2.7549

> <Gold.PLP.part.nonpolar>
-23.1511

> <Gold.PLP.part.repulsive>
0.3882

> <Gold.PLP.ligand.clash>
0.0000

> <Gold.PLP.ligand.torsion>
0.8366

> <Gold.PLP.Chemscore.Hbond>
4.9120

> <Gold.PLP.Chemscore.CHOScore>
0.0000

> <Gold.PLP.Chemscore.Metal>
0.0000

> <Gold.Chemscore.Hbonds>
donor molecule, donor type, donor heavy atom, donor atom, acceptor molecule, acceptor atom, score
      L1  H     6    39       P1  7948  1.98
      L1  H     9    33       P1  7957  0.96
      L1  H    12    34       P1  7957  1.00
      P1  H  7989  7998       L1    14  1.00

> <Gold.PLP.Chemscore.Internal.Correction>
0.0329

> <Gold.Rescore>
     Score         DG    S(hbond)    S(metal)    S(lipo)     H(rot)  DE(clash)    DE(int)     intcor
     18.08     -20.38       3.68        0.00      57.36       1.60       0.03       2.26       ----

> <Gold.Chemscore.Fitness>
18.0835

> <Gold.Chemscore.DG>
-20.3770

> <Gold.Chemscore.ZeroCoef>
-5.4800

> <Gold.Chemscore.Hbond>
3.6771

> <Gold.Chemscore.Metal>
0.0000

> <Gold.Chemscore.Lipo>
57.3646

> <Gold.Chemscore.Internal_Hbond>
0.0000

> <Gold.Chemscore.DEClash>
0.0310

> <Gold.Chemscore.DEInternal>
2.2626

> <Gold.Chemscore.Rot>
1.6001

> <Gold.Chemscore.Internal.Correction>
   9.000000E+99

> <Gold.Chemscore.Hbonds>
donor molecule, donor type, donor heavy atom, donor atom, acceptor molecule, acceptor atom, score
      L1  H     6    39       P1  7948  0.88
      L1  H     9    33       P1  7957  0.87
      L1  H    12    34       P1  7957  1.00
      P1  H  7989  7998       L1    14  0.76

> <Gold.Chemscore.Hbond.Weighted>
-12.2816

> <Gold.Chemscore.Metal.Weighted>
-0.0000

> <Gold.Chemscore.Lipo.Weighted>
-6.7117

> <Gold.Chemscore.Internal_Hbond.Weighted>
0.0000

> <Gold.Chemscore.DEClash.Weighted>
0.0310

> <Gold.Chemscore.DEInternal.Weighted>
2.2626

> <Gold.Chemscore.Rot.Weighted>
4.0963

> <Gold.Chemscore.Internal.Correction.Weighted>
   9.000000E+99

> <Gold.Protein.RotatedTorsions>
[ 6907 6896 6895 6894 ] final   98.43 input  -60.11 | X-H torsion
[ 7974 7965 7964 7962 ] final -150.62 input  175.53 | X-H torsion
[ 8008 7997 7996 7995 ] final   61.14 input   59.86 | X-H torsion
[ 10167 10162 10161 10158 ] final   88.39 input  -65.29 | X-H torsion
[ 10718 10713 10712 10709 ] final   82.44 input   66.30 | X-H torsion
[ 10763 10752 10751 10750 ] final   -5.85 input  -60.55 | X-H torsion
[ 11005 11000 10999 10996 ] final  145.76 input  -57.11 | X-H torsion

> <Gold.Protein.ActiveResidues>
 VAL166  LYS551  ARG553  GLY616  TRP617  ASP618  TYR619  PRO620  LYS621  CYS622 
 ASP623  PHE694  ASN695  SER759  ASP760  ASP761  ALA762  ILE779  LEU786  VAL792 
 PHE793  MET794  SER795  GLU796  ALA797  LYS798  CYS799  TRP800  GLU811  SER814 

> <Gold.Protein.RotatedAtoms>
  152.5409  134.0582  159.8139 H   0  0  0  0  0  0  0  0  0  0  0  0  # atno 6907 bound_to 6896
  151.0713  133.5456  159.2634 H   0  0  0  0  0  0  0  0  0  0  0  0  # atno 6908 bound_to 6896
  151.2318  135.0565  159.9044 H   0  0  0  0  0  0  0  0  0  0  0  0  # atno 6909 bound_to 6896
  144.7897  140.4908  143.5781 H   0  0  0  0  0  0  0  0  0  0  0  0  # atno 7974 bound_to 7965
  155.5936  140.3493  155.4573 H   0  0  0  0  0  0  0  0  0  0  0  0  # atno 8008 bound_to 7997
  156.0282  140.1268  157.0311 H   0  0  0  0  0  0  0  0  0  0  0  0  # atno 8009 bound_to 7997
  154.4341  140.1048  156.6047 H   0  0  0  0  0  0  0  0  0  0  0  0  # atno 8010 bound_to 7997
  139.8678  144.6509  150.8984 H   0  0  0  0  0  0  0  0  0  0  0  0  # atno 10167 bound_to 10162
  157.6857  131.0048  150.2375 H   0  0  0  0  0  0  0  0  0  0  0  0  # atno 10718 bound_to 10713
  153.4043  135.7006  153.6404 H   0  0  0  0  0  0  0  0  0  0  0  0  # atno 10763 bound_to 10752
  153.4924  135.3670  155.2499 H   0  0  0  0  0  0  0  0  0  0  0  0  # atno 10764 bound_to 10752
  154.8713  135.4092  154.3383 H   0  0  0  0  0  0  0  0  0  0  0  0  # atno 10765 bound_to 10752
  140.0738  134.9137  157.1389 H   0  0  0  0  0  0  0  0  0  0  0  0  # atno 11005 bound_to 11000
  145.5827  139.1490  143.3226 LP  0  0  0  0  0  0  0  0  0  0  0  0  # atno 17320 bound_to 7965
  146.2144  140.5956  142.9045 LP  0  0  0  0  0  0  0  0  0  0  0  0  # atno 17321 bound_to 7965
  140.7765  143.3690  151.1685 LP  0  0  0  0  0  0  0  0  0  0  0  0  # atno 17342 bound_to 10162
  139.7313  143.9068  152.3020 LP  0  0  0  0  0  0  0  0  0  0  0  0  # atno 17343 bound_to 10162
  156.2995  130.3756  149.7763 LP  0  0  0  0  0  0  0  0  0  0  0  0  # atno 17370 bound_to 10713
  156.5398  130.8295  151.3265 LP  0  0  0  0  0  0  0  0  0  0  0  0  # atno 17371 bound_to 10713
  140.3588  134.2517  155.7189 LP  0  0  0  0  0  0  0  0  0  0  0  0  # atno 17394 bound_to 11000
  141.2022  133.7944  157.0404 LP  0  0  0  0  0  0  0  0  0  0  0  0  # atno 17395 bound_to 11000

$$$$
