AV-unprocessed.smi:2096|AV-procd|sdf|8562|dock6
  -GOLD-   2272011293D 1   1.00000     0.00000
 Structure written by MMmdl.
 35 36  0  0  0  0  0  0  0  0  1 V2000
  153.9057  141.9928  160.1686 C   0  0  0  0  0  0  0  0  0  0  0  0
  152.8093  142.2381  159.2551 N   0  0  0  0  0  0  0  0  0  0  0  0
  151.9985  143.3848  159.4382 C   0  0  0  0  0  0  0  0  0  0  0  0
  152.1881  144.1961  160.3448 O   0  0  0  0  0  0  0  0  0  0  0  0
  150.9233  143.5239  158.4630 C   0  0  0  0  0  0  0  0  0  0  0  0
  150.7538  142.6121  157.4805 C   0  0  0  0  0  0  0  0  0  0  0  0
  151.5632  141.5019  157.3228 N   0  0  0  0  0  0  0  0  0  0  0  0
  151.2982  140.5554  156.2319 C   0  0  0  0  0  0  0  0  0  0  0  0
  150.0714  140.9392  155.3940 C   0  0  0  0  0  0  0  0  0  0  0  0
  150.0546  141.9871  154.7465 O   0  0  0  0  0  0  0  0  0  0  0  0
  149.0561  140.0646  155.3986 N   0  0  0  0  0  0  0  0  0  0  0  0
  147.8101  140.2466  154.6676 C   0  0  0  0  0  0  0  0  0  0  0  0
  147.2495  141.6428  154.9087 C   0  0  0  0  0  0  0  0  0  0  0  0
  146.4605  141.9305  156.1945 C   0  0  0  0  0  0  0  0  0  0  0  0
  145.5748  142.8817  155.3851 C   0  0  0  0  0  0  0  0  0  0  0  0
  146.0087  142.1136  154.1340 C   0  0  0  0  0  0  0  0  0  0  0  0
  152.6263  141.2886  158.2262 C   0  0  0  0  0  0  0  0  0  0  0  0
  153.3627  140.3052  158.1122 O   0  0  0  0  0  0  0  0  0  0  0  0
  153.9664  142.7648  160.9348 H   0  0  0  0  0  0  0  0  0  0  0  0
  154.8230  141.9851  159.5771 H   0  0  0  0  0  0  0  0  0  0  0  0
  153.7255  141.0231  160.6363 H   0  0  0  0  0  0  0  0  0  0  0  0
  150.2532  144.3683  158.5288 H   0  0  0  0  0  0  0  0  0  0  0  0
  149.9400  142.7586  156.7853 H   0  0  0  0  0  0  0  0  0  0  0  0
  152.1611  140.5042  155.5667 H   0  0  0  0  0  0  0  0  0  0  0  0
  151.1754  139.5469  156.6318 H   0  0  0  0  0  0  0  0  0  0  0  0
  149.1473  139.2252  155.9521 H   0  0  0  0  0  0  0  0  0  0  0  0
  147.9873  140.0863  153.6027 H   0  0  0  0  0  0  0  0  0  0  0  0
  147.0937  139.4889  154.9876 H   0  0  0  0  0  0  0  0  0  0  0  0
  148.0328  142.3974  154.8081 H   0  0  0  0  0  0  0  0  0  0  0  0
  145.9153  141.0593  156.5618 H   0  0  0  0  0  0  0  0  0  0  0  0
  147.0385  142.4064  156.9873 H   0  0  0  0  0  0  0  0  0  0  0  0
  144.5102  142.8213  155.6128 H   0  0  0  0  0  0  0  0  0  0  0  0
  145.9364  143.9110  155.3975 H   0  0  0  0  0  0  0  0  0  0  0  0
  146.2225  142.7374  153.2657 H   0  0  0  0  0  0  0  0  0  0  0  0
  145.3290  141.2969  153.8846 H   0  0  0  0  0  0  0  0  0  0  0  0
  1  2  1  0  0  0  0
  1 19  1  0  0  0  0
  1 20  1  0  0  0  0
  1 21  1  0  0  0  0
  2 17  1  0  0  0  0
  2  3  1  0  0  0  0
  3  4  2  0  0  0  0
  3  5  1  0  0  0  0
  5  6  2  0  0  0  0
  5 22  1  0  0  0  0
  6  7  1  0  0  0  0
  6 23  1  0  0  0  0
  7  8  1  0  0  0  0
  7 17  1  0  0  0  0
  8  9  1  0  0  0  0
  8 24  1  0  0  0  0
  8 25  1  0  0  0  0
  9 10  2  0  0  0  0
  9 11  1  0  0  0  0
 11 12  1  0  0  0  0
 11 26  1  0  0  0  0
 12 13  1  0  0  0  0
 12 27  1  0  0  0  0
 12 28  1  0  0  0  0
 13 16  1  0  0  0  0
 13 14  1  0  0  0  0
 13 29  1  0  0  0  0
 14 15  1  0  0  0  0
 14 30  1  0  0  0  0
 14 31  1  0  0  0  0
 15 16  1  0  0  0  0
 15 32  1  0  0  0  0
 15 33  1  0  0  0  0
 16 34  1  0  0  0  0
 16 35  1  0  0  0  0
 17 18  2  0  0  0  0
M  END
> <s_m_source_file>
AV-unprocessed.smi

> <i_m_source_file_index>
2096

> <i_lp_mmshare_version>
43012

> <i_f3d_flags>
0

> <s_epik_input>
W0NIM11uMWMoPU8pW2NIXVtjSF1uKGMxPU8pW0NIMl1DKD1PKVtOSF1bQ0gyXVtDSF0yW0NIMl1bQ0gyXVtDSDJdMg==

> <s_epik_cmdline>
J2VwaWtfcHl0aG9uJywgJy1waCcsICc3LjAnLCAnLXRuJywgJzgnLCAnLW1hJywgJzIwMCcsICctbWV0YWxfYmluZGluZycsICctaW1hZScsICc8aW5maWxlLm1hZT4nLCAnLW9tYWUnLCAnPG91dGZpbGUubWFlPic=

> <r_lp_tautomer_probability>
1

> <r_epik_Ionization_Penalty>
3.11585e-08

> <r_epik_Ionization_Penalty_Charging>
1.18568e-08

> <r_epik_Ionization_Penalty_Neutral>
1.93017e-08

> <r_epik_State_Penalty>
-0

> <r_epik_Charging_Adjusted_Penalty>
1.18568e-08

> <i_epik_Tot_Q>
0

> <i_epik_Tot_abs_Q>
0

> <r_epik_Metal_State_Penalty>
-0

> <b_epik_Metal_Only>
0

> <s_lp_Force_Field>
OPLS_2005

> <r_lp_Energy>
20.363

> <b_lp_Chiralities_Consistent>
1

> <s_lp_Variant>
AV-unprocessed.smi:2096-1

> <Gold.Version>
5.8.1

> <Gold.Id.Protein>
6NUR|6NUR_protein|mol2

> <Gold.PLP.Fitness>
40.9018

> <Gold.PLP.PLP>
-34.4961

> <Gold.PLP.part.hbond>
-2.8778

> <Gold.PLP.part.metal>
0.0000

> <Gold.PLP.part.buried>
-1.1887

> <Gold.PLP.part.nonpolar>
-30.7525

> <Gold.PLP.part.repulsive>
0.2727

> <Gold.PLP.ligand.clash>
0.0000

> <Gold.PLP.ligand.torsion>
0.1847

> <Gold.PLP.Chemscore.Hbond>
1.2361

> <Gold.PLP.Chemscore.CHOScore>
1.0000

> <Gold.PLP.Chemscore.Metal>
0.0000

> <Gold.Chemscore.Hbonds>
donor molecule, donor type, donor heavy atom, donor atom, acceptor molecule, acceptor atom, score
      P1  H  7989  7998       L1    10  0.01
      P1  H  7997  8009       L1    18  0.88
      L1  C     6    23       P1  8028  1.00

> <Gold.PLP.Chemscore.Internal.Correction>
0.0670

> <Gold.Rescore>
     Score         DG    S(hbond)    S(metal)    S(lipo)     H(rot)  DE(clash)    DE(int)     intcor
      8.29     -12.54       1.35        0.00      60.80       1.78       1.63       2.61       ----

> <Gold.Chemscore.Fitness>
8.2925

> <Gold.Chemscore.DG>
-12.5398

> <Gold.Chemscore.ZeroCoef>
-5.4800

> <Gold.Chemscore.Hbond>
1.3503

> <Gold.Chemscore.Metal>
0.0000

> <Gold.Chemscore.Lipo>
60.7973

> <Gold.Chemscore.Internal_Hbond>
0.0000

> <Gold.Chemscore.DEClash>
1.6338

> <Gold.Chemscore.DEInternal>
2.6134

> <Gold.Chemscore.Rot>
1.7827

> <Gold.Chemscore.Internal.Correction>
   9.000000E+99

> <Gold.Chemscore.Hbonds>
donor molecule, donor type, donor heavy atom, donor atom, acceptor molecule, acceptor atom, score
      P1  H  7997  8009       L1    18  0.86
      P1  H  8011  8017       L1    10  0.01

> <Gold.Chemscore.Hbond.Weighted>
-4.5101

> <Gold.Chemscore.Metal.Weighted>
-0.0000

> <Gold.Chemscore.Lipo.Weighted>
-7.1133

> <Gold.Chemscore.Internal_Hbond.Weighted>
0.0000

> <Gold.Chemscore.DEClash.Weighted>
1.6338

> <Gold.Chemscore.DEInternal.Weighted>
2.6134

> <Gold.Chemscore.Rot.Weighted>
4.5636

> <Gold.Chemscore.Internal.Correction.Weighted>
   9.000000E+99

> <Gold.Protein.RotatedTorsions>
[ 6907 6896 6895 6894 ] final   26.69 input  -60.11 | X-H torsion
[ 7974 7965 7964 7962 ] final -160.58 input  175.53 | X-H torsion
[ 8008 7997 7996 7995 ] final  153.82 input   59.86 | X-H torsion
[ 10167 10162 10161 10158 ] final   37.88 input  -65.29 | X-H torsion
[ 10718 10713 10712 10709 ] final  -92.80 input   66.30 | X-H torsion
[ 10763 10752 10751 10750 ] final   11.16 input  -60.55 | X-H torsion
[ 11005 11000 10999 10996 ] final   -6.28 input  -57.11 | X-H torsion

> <Gold.Protein.ActiveResidues>
 VAL166  LYS551  ARG553  GLY616  TRP617  ASP618  TYR619  PRO620  LYS621  CYS622 
 ASP623  PHE694  ASN695  SER759  ASP760  ASP761  ALA762  ILE779  LEU786  VAL792 
 PHE793  MET794  SER795  GLU796  ALA797  LYS798  CYS799  TRP800  GLU811  SER814 

> <Gold.Protein.RotatedAtoms>
  151.9912  134.9978  160.0561 H   0  0  0  0  0  0  0  0  0  0  0  0  # atno 6907 bound_to 6896
  152.1606  133.4575  159.4867 H   0  0  0  0  0  0  0  0  0  0  0  0  # atno 6908 bound_to 6896
  150.6887  134.1994  159.4359 H   0  0  0  0  0  0  0  0  0  0  0  0  # atno 6909 bound_to 6896
  144.7422  140.3521  143.6113 H   0  0  0  0  0  0  0  0  0  0  0  0  # atno 7974 bound_to 7965
  156.2563  140.1983  156.6549 H   0  0  0  0  0  0  0  0  0  0  0  0  # atno 8008 bound_to 7997
  154.6508  140.0572  156.9978 H   0  0  0  0  0  0  0  0  0  0  0  0  # atno 8009 bound_to 7997
  155.1421  140.3243  155.4452 H   0  0  0  0  0  0  0  0  0  0  0  0  # atno 8010 bound_to 7997
  140.3990  144.1749  150.6133 H   0  0  0  0  0  0  0  0  0  0  0  0  # atno 10167 bound_to 10162
  156.0006  130.5001  150.5680 H   0  0  0  0  0  0  0  0  0  0  0  0  # atno 10718 bound_to 10713
  153.1955  135.6848  153.8297 H   0  0  0  0  0  0  0  0  0  0  0  0  # atno 10763 bound_to 10752
  153.7582  135.3214  155.3333 H   0  0  0  0  0  0  0  0  0  0  0  0  # atno 10764 bound_to 10752
  154.8142  135.4697  154.0697 H   0  0  0  0  0  0  0  0  0  0  0  0  # atno 10765 bound_to 10752
  140.7003  133.8995  155.8679 H   0  0  0  0  0  0  0  0  0  0  0  0  # atno 11005 bound_to 11000
  145.7265  139.1724  143.2455 LP  0  0  0  0  0  0  0  0  0  0  0  0  # atno 17320 bound_to 7965
  146.1238  140.7274  142.9445 LP  0  0  0  0  0  0  0  0  0  0  0  0  # atno 17321 bound_to 7965
  140.4760  143.2396  151.9023 LP  0  0  0  0  0  0  0  0  0  0  0  0  # atno 17342 bound_to 10162
  139.4785  144.5320  151.8653 LP  0  0  0  0  0  0  0  0  0  0  0  0  # atno 17343 bound_to 10162
  157.3579  131.0745  151.1660 LP  0  0  0  0  0  0  0  0  0  0  0  0  # atno 17370 bound_to 10713
  157.2455  130.6589  149.5908 LP  0  0  0  0  0  0  0  0  0  0  0  0  # atno 17371 bound_to 10713
  141.0169  134.0943  157.4162 LP  0  0  0  0  0  0  0  0  0  0  0  0  # atno 17394 bound_to 11000
  139.8898  135.0108  156.6703 LP  0  0  0  0  0  0  0  0  0  0  0  0  # atno 17395 bound_to 11000

$$$$
