AV-unprocessed.smi:38|AV-procd|sdf|348|dock7
  -GOLD-   2262016183D 1   1.00000     0.00000
 Structure written by MMmdl.
 27 28  0  0  0  0  0  0  0  0  2 V2000
  152.9056  140.8704  158.7800 O   0  0  0  0  0  0  0  0  0  0  0  0
  152.1454  140.9135  157.8138 C   0  0  0  0  0  0  0  0  0  0  0  0
  152.3204  140.1420  156.7016 N   0  5  0  0  0  0  0  0  0  0  0  0
  151.4738  140.1884  155.6310 C   0  0  0  0  0  0  0  0  0  0  0  0
  151.6380  139.5142  154.6141 O   0  0  0  0  0  0  0  0  0  0  0  0
  150.3526  141.0601  155.6815 N   0  0  0  0  0  0  0  0  0  0  0  0
  149.4132  141.1342  154.5023 C   0  0  2  0  0  0  0  0  0  0  0  0
  148.1535  141.9197  154.8507 C   0  0  0  0  0  0  0  0  0  0  0  0
  147.0958  141.2376  153.9885 C   0  0  2  0  0  0  0  0  0  0  0  0
  145.9532  140.9389  154.7695 O   0  0  0  0  0  0  0  0  0  0  0  0
  147.8009  139.9933  153.3973 C   0  0  2  0  0  0  0  0  0  0  0  0
  146.9963  138.6801  153.4184 C   0  0  0  0  0  0  0  0  0  0  0  0
  145.9578  138.7300  152.4633 O   0  0  0  0  0  0  0  0  0  0  0  0
  148.9803  139.8550  154.1789 O   0  0  0  0  0  0  0  0  0  0  0  0
  150.1605  141.8698  156.7879 C   0  0  0  0  0  0  0  0  0  0  0  0
  151.0038  141.8264  157.8397 C   0  0  0  0  0  0  0  0  0  0  0  0
  150.7935  142.6254  158.9001 F   0  0  0  0  0  0  0  0  0  0  0  0
  149.9714  141.5429  153.6578 H   0  0  0  0  0  0  0  0  0  0  0  0
  146.7847  141.8980  153.1784 H   0  0  0  0  0  0  0  0  0  0  0  0
  148.0983  140.2306  152.3737 H   0  0  0  0  0  0  0  0  0  0  0  0
  147.9374  141.8027  155.9145 H   0  0  0  0  0  0  0  0  0  0  0  0
  148.2855  142.9796  154.6306 H   0  0  0  0  0  0  0  0  0  0  0  0
  145.2227  141.4369  154.4362 H   0  0  0  0  0  0  0  0  0  0  0  0
  147.6392  137.8184  153.2365 H   0  0  0  0  0  0  0  0  0  0  0  0
  146.5238  138.5380  154.3905 H   0  0  0  0  0  0  0  0  0  0  0  0
  145.4334  139.4981  152.6298 H   0  0  0  0  0  0  0  0  0  0  0  0
  149.3272  142.5561  156.8154 H   0  0  0  0  0  0  0  0  0  0  0  0
  1  2  2  0  0  0  0
  2 16  1  0  0  0  0
  2  3  1  0  0  0  0
  3  4  1  0  0  0  0
  4  5  2  0  0  0  0
  4  6  1  0  0  0  0
  6  7  1  0  0  0  0
  6 15  1  0  0  0  0
  7 18  1  0  0  0  0
  7 14  1  0  0  0  0
  7  8  1  0  0  0  0
  8  9  1  0  0  0  0
  8 21  1  0  0  0  0
  8 22  1  0  0  0  0
  9 19  1  0  0  0  0
  9 10  1  0  0  0  0
  9 11  1  0  0  0  0
 10 23  1  0  0  0  0
 11 20  1  0  0  0  0
 11 12  1  0  0  0  0
 11 14  1  0  0  0  0
 12 13  1  0  0  0  0
 12 24  1  0  0  0  0
 12 25  1  0  0  0  0
 13 26  1  0  0  0  0
 15 16  2  0  0  0  0
 15 27  1  0  0  0  0
 16 17  1  0  0  0  0
M  CHG  1   3  -1
M  END
> <s_m_source_file>
AV-unprocessed.smi

> <i_m_source_file_index>
38

> <i_lp_mmshare_version>
43012

> <i_f3d_flags>
0

> <s_epik_input>
Tz1jMVtuSF1jKD1PKW4oW2NIXWMxRilbQ0BIXTJbQ0gyXVtDQEhdKFtPSF0pW0NASF0oTzIpW0NIMl1bT0hd

> <s_epik_cmdline>
J2VwaWtfcHl0aG9uJywgJy1waCcsICc3LjAnLCAnLXRuJywgJzgnLCAnLW1hJywgJzIwMCcsICctbWV0YWxfYmluZGluZycsICctaW1hZScsICc8aW5maWxlLm1hZT4nLCAnLW9tYWUnLCAnPG91dGZpbGUubWFlPic=

> <r_epik_Ionization_Penalty>
1.68146

> <r_epik_Ionization_Penalty_Charging>
3.4211e-08

> <r_epik_Ionization_Penalty_Neutral>
1.68146

> <r_epik_State_Penalty>
1.78593

> <r_epik_Charging_Adjusted_Penalty>
1.78593

> <i_epik_Tot_Q>
-1

> <i_epik_Tot_abs_Q>
1

> <r_epik_Metal_State_Penalty>
0.0113696

> <b_epik_Metal_Only>
0

> <s_epik_Chemistry_Notes>
This compound contains an acetal/aminal-like group ( X-CH(R)-Y where X, Y are N, S, or O) that may be acid/base labile, releasing an aldehyde.

> <s_lp_Force_Field>
OPLS_2005

> <r_lp_Energy>
42.0277

> <b_lp_Chiralities_Consistent>
1

> <s_lp_Variant>
AV-unprocessed.smi:38-14

> <Gold.Version>
5.8.1

> <Gold.Id.Protein>
6NUR|6NUR_protein|mol2

> <Gold.PLP.Fitness>
40.9389

> <Gold.PLP.PLP>
-26.8859

> <Gold.PLP.part.hbond>
-3.2631

> <Gold.PLP.part.metal>
0.0000

> <Gold.PLP.part.buried>
1.8597

> <Gold.PLP.part.nonpolar>
-24.3843

> <Gold.PLP.part.repulsive>
0.4728

> <Gold.PLP.ligand.clash>
0.0000

> <Gold.PLP.ligand.torsion>
0.2473

> <Gold.PLP.Chemscore.Hbond>
3.8420

> <Gold.PLP.Chemscore.CHOScore>
1.0000

> <Gold.PLP.Chemscore.Metal>
0.0000

> <Gold.Chemscore.Hbonds>
donor molecule, donor type, donor heavy atom, donor atom, acceptor molecule, acceptor atom, score
      L1  H    13    26       P1 10175  0.99
      P1  H  7989  7998       L1     5  0.85
      P1  H  7997  8010       L1     3  2.00
      L1  C    15    27       P1  8028  1.00

> <Gold.PLP.Chemscore.Internal.Correction>
0.0216

> <Gold.Rescore>
     Score         DG    S(hbond)    S(metal)    S(lipo)     H(rot)  DE(clash)    DE(int)     intcor
      7.84     -10.25       2.47        0.00      33.45       2.88       0.95       1.46       ----

> <Gold.Chemscore.Fitness>
7.8428

> <Gold.Chemscore.DG>
-10.2542

> <Gold.Chemscore.ZeroCoef>
-5.4800

> <Gold.Chemscore.Hbond>
2.4663

> <Gold.Chemscore.Metal>
0.0000

> <Gold.Chemscore.Lipo>
33.4455

> <Gold.Chemscore.Internal_Hbond>
0.0000

> <Gold.Chemscore.DEClash>
0.9521

> <Gold.Chemscore.DEInternal>
1.4593

> <Gold.Chemscore.Rot>
2.8815

> <Gold.Chemscore.Internal.Correction>
   9.000000E+99

> <Gold.Chemscore.Hbonds>
donor molecule, donor type, donor heavy atom, donor atom, acceptor molecule, acceptor atom, score
      L1  H    13    26       P1 10175  0.89
      P1  H  7989  7998       L1     5  0.14
      P1  H  7997  8010       L1     3  0.36

> <Gold.Chemscore.Hbond.Weighted>
-8.2376

> <Gold.Chemscore.Metal.Weighted>
-0.0000

> <Gold.Chemscore.Lipo.Weighted>
-3.9131

> <Gold.Chemscore.Internal_Hbond.Weighted>
0.0000

> <Gold.Chemscore.DEClash.Weighted>
0.9521

> <Gold.Chemscore.DEInternal.Weighted>
1.4593

> <Gold.Chemscore.Rot.Weighted>
7.3765

> <Gold.Chemscore.Internal.Correction.Weighted>
   9.000000E+99

> <Gold.Protein.RotatedTorsions>
[ 6907 6896 6895 6894 ] final -120.65 input  -60.11 | X-H torsion
[ 7974 7965 7964 7962 ] final  -26.22 input  175.53 | X-H torsion
[ 8008 7997 7996 7995 ] final   69.14 input   59.86 | X-H torsion
[ 10167 10162 10161 10158 ] final  148.18 input  -65.29 | X-H torsion
[ 10718 10713 10712 10709 ] final  -24.75 input   66.30 | X-H torsion
[ 10763 10752 10751 10750 ] final  130.60 input  -60.55 | X-H torsion
[ 11005 11000 10999 10996 ] final  145.32 input  -57.11 | X-H torsion

> <Gold.Protein.ActiveResidues>
 VAL166  LYS551  ARG553  GLY616  TRP617  ASP618  TYR619  PRO620  LYS621  CYS622 
 ASP623  PHE694  ASN695  SER759  ASP760  ASP761  ALA762  ILE779  LEU786  VAL792 
 PHE793  MET794  SER795  GLU796  ALA797  LYS798  CYS799  TRP800  GLU811  SER814 

> <Gold.Protein.RotatedAtoms>
  150.8412  133.7933  159.3059 H   0  0  0  0  0  0  0  0  0  0  0  0  # atno 6907 bound_to 6896
  151.5634  135.1063  159.9987 H   0  0  0  0  0  0  0  0  0  0  0  0  # atno 6908 bound_to 6896
  152.4475  133.7522  159.6757 H   0  0  0  0  0  0  0  0  0  0  0  0  # atno 6909 bound_to 6896
  146.1440  140.4990  142.8640 H   0  0  0  0  0  0  0  0  0  0  0  0  # atno 7974 bound_to 7965
  155.7191  140.3493  155.5008 H   0  0  0  0  0  0  0  0  0  0  0  0  # atno 8008 bound_to 7997
  155.9286  140.1080  157.1172 H   0  0  0  0  0  0  0  0  0  0  0  0  # atno 8009 bound_to 7997
  154.4081  140.1235  156.4759 H   0  0  0  0  0  0  0  0  0  0  0  0  # atno 8010 bound_to 7997
  139.4878  144.5699  151.7075 H   0  0  0  0  0  0  0  0  0  0  0  0  # atno 10167 bound_to 10162
  156.4734  130.4529  149.6855 H   0  0  0  0  0  0  0  0  0  0  0  0  # atno 10718 bound_to 10713
  153.7607  135.3196  155.3336 H   0  0  0  0  0  0  0  0  0  0  0  0  # atno 10763 bound_to 10752
  154.8231  135.4589  154.0840 H   0  0  0  0  0  0  0  0  0  0  0  0  # atno 10764 bound_to 10752
  153.2070  135.6930  153.8243 H   0  0  0  0  0  0  0  0  0  0  0  0  # atno 10765 bound_to 10752
  140.0703  134.9155  157.1333 H   0  0  0  0  0  0  0  0  0  0  0  0  # atno 11005 bound_to 11000
  144.7825  140.5869  143.6596 LP  0  0  0  0  0  0  0  0  0  0  0  0  # atno 17320 bound_to 7965
  145.4981  139.1485  143.3672 LP  0  0  0  0  0  0  0  0  0  0  0  0  # atno 17321 bound_to 7965
  140.5284  144.0769  150.6045 LP  0  0  0  0  0  0  0  0  0  0  0  0  # atno 17342 bound_to 10162
  140.3751  143.2833  152.0234 LP  0  0  0  0  0  0  0  0  0  0  0  0  # atno 17343 bound_to 10162
  156.3595  130.7474  151.2444 LP  0  0  0  0  0  0  0  0  0  0  0  0  # atno 17370 bound_to 10713
  157.7489  131.0354  150.4363 LP  0  0  0  0  0  0  0  0  0  0  0  0  # atno 17371 bound_to 10713
  140.3637  134.2466  155.7184 LP  0  0  0  0  0  0  0  0  0  0  0  0  # atno 17394 bound_to 11000
  141.2009  133.7976  157.0467 LP  0  0  0  0  0  0  0  0  0  0  0  0  # atno 17395 bound_to 11000

$$$$
