AV-unprocessed.smi:2820|AV-procd|sdf|10854|dock6
  -GOLD-   2272015293D 1   1.00000     0.00000
 Structure written by MMmdl.
 29 30  0  0  0  0  0  0  0  0  1 V2000
  147.4183  139.1508  153.1771 C   0  0  0  0  0  0  0  0  0  0  0  0
  148.8077  138.7778  153.3847 N   0  0  0  0  0  0  0  0  0  0  0  0
  149.6000  139.4475  154.3280 C   0  0  0  0  0  0  0  0  0  0  0  0
  150.8637  138.9776  154.7548 C   0  0  0  0  0  0  0  0  0  0  0  0
  151.5839  139.7238  155.7076 C   0  0  0  0  0  0  0  0  0  0  0  0
  151.0192  140.9162  156.2054 C   0  0  0  0  0  0  0  0  0  0  0  0
  151.7332  141.6639  157.1526 N   0  0  0  0  0  0  0  0  0  0  0  0
  151.1897  142.9997  157.3648 C   0  0  0  0  0  0  0  0  0  0  0  0
  152.1005  143.7931  158.3177 C   0  0  0  0  0  0  0  0  0  0  0  0
  152.2599  143.0734  159.5371 O   0  0  0  0  0  0  0  0  0  0  0  0
  152.8567  141.7960  159.3308 C   0  0  0  0  0  0  0  0  0  0  0  0
  151.9635  140.9529  158.4043 C   0  0  0  0  0  0  0  0  0  0  0  0
  149.8101  141.3730  155.8024 N   0  0  0  0  0  0  0  0  0  0  0  0
  149.1263  140.6524  154.8887 C   0  0  0  0  0  0  0  0  0  0  0  0
  146.9766  138.5193  152.4062 H   0  0  0  0  0  0  0  0  0  0  0  0
  147.3394  140.1886  152.8519 H   0  0  0  0  0  0  0  0  0  0  0  0
  146.8408  139.0224  154.0931 H   0  0  0  0  0  0  0  0  0  0  0  0
  149.2017  138.0276  152.8349 H   0  0  0  0  0  0  0  0  0  0  0  0
  151.2890  138.0632  154.3687 H   0  0  0  0  0  0  0  0  0  0  0  0
  152.5513  139.3850  156.0484 H   0  0  0  0  0  0  0  0  0  0  0  0
  151.1011  143.5197  156.4101 H   0  0  0  0  0  0  0  0  0  0  0  0
  150.1868  142.9273  157.7880 H   0  0  0  0  0  0  0  0  0  0  0  0
  153.0747  143.9767  157.8618 H   0  0  0  0  0  0  0  0  0  0  0  0
  151.6613  144.7668  158.5345 H   0  0  0  0  0  0  0  0  0  0  0  0
  153.8553  141.9137  158.9072 H   0  0  0  0  0  0  0  0  0  0  0  0
  152.9751  141.2992  160.2937 H   0  0  0  0  0  0  0  0  0  0  0  0
  151.0107  140.7502  158.8953 H   0  0  0  0  0  0  0  0  0  0  0  0
  152.4347  139.9904  158.2019 H   0  0  0  0  0  0  0  0  0  0  0  0
  148.1671  141.0539  154.5959 H   0  0  0  0  0  0  0  0  0  0  0  0
  1  2  1  0  0  0  0
  1 15  1  0  0  0  0
  1 16  1  0  0  0  0
  1 17  1  0  0  0  0
  2  3  1  0  0  0  0
  2 18  1  0  0  0  0
  3 14  1  0  0  0  0
  3  4  2  0  0  0  0
  4  5  1  0  0  0  0
  4 19  1  0  0  0  0
  5  6  2  0  0  0  0
  5 20  1  0  0  0  0
  6  7  1  0  0  0  0
  6 13  1  0  0  0  0
  7 12  1  0  0  0  0
  7  8  1  0  0  0  0
  8  9  1  0  0  0  0
  8 21  1  0  0  0  0
  8 22  1  0  0  0  0
  9 10  1  0  0  0  0
  9 23  1  0  0  0  0
  9 24  1  0  0  0  0
 10 11  1  0  0  0  0
 11 12  1  0  0  0  0
 11 25  1  0  0  0  0
 11 26  1  0  0  0  0
 12 27  1  0  0  0  0
 12 28  1  0  0  0  0
 13 14  2  0  0  0  0
 14 29  1  0  0  0  0
M  END
> <s_m_source_file>
AV-unprocessed.smi

> <i_m_source_file_index>
2820

> <i_lp_mmshare_version>
43012

> <i_f3d_flags>
0

> <s_epik_input>
W0NIM11bTkhdYzFbY0hdW2NIXWMobltjSF0xKU4yW0NIMl1bQ0gyXU9bQ0gyXVtDSDJdMg==

> <s_epik_cmdline>
J2VwaWtfcHl0aG9uJywgJy1waCcsICc3LjAnLCAnLXRuJywgJzgnLCAnLW1hJywgJzIwMCcsICctbWV0YWxfYmluZGluZycsICctaW1hZScsICc8aW5maWxlLm1hZT4nLCAnLW9tYWUnLCAnPG91dGZpbGUubWFlPic=

> <r_lp_tautomer_probability>
1

> <r_epik_Ionization_Penalty>
0.0411205

> <r_epik_Ionization_Penalty_Charging>
0

> <r_epik_Ionization_Penalty_Neutral>
0.0411205

> <r_epik_State_Penalty>
0.0346301

> <r_epik_Charging_Adjusted_Penalty>
0.0346301

> <i_epik_Tot_Q>
0

> <i_epik_Tot_abs_Q>
0

> <r_epik_Metal_State_Penalty>
3.56611e-05

> <b_epik_Metal_Only>
0

> <s_lp_Force_Field>
OPLS_2005

> <r_lp_Energy>
22.0638

> <b_lp_Chiralities_Consistent>
1

> <s_lp_Variant>
AV-unprocessed.smi:2820-1

> <Gold.Version>
5.8.1

> <Gold.Id.Protein>
6NUR|6NUR_protein|mol2

> <Gold.PLP.Fitness>
32.0760

> <Gold.PLP.PLP>
-29.3377

> <Gold.PLP.part.hbond>
-2.0000

> <Gold.PLP.part.metal>
0.0000

> <Gold.PLP.part.buried>
-1.7489

> <Gold.PLP.part.nonpolar>
-26.2774

> <Gold.PLP.part.repulsive>
0.1794

> <Gold.PLP.ligand.clash>
0.0000

> <Gold.PLP.ligand.torsion>
0.1805

> <Gold.PLP.Chemscore.Hbond>
1.0000

> <Gold.PLP.Chemscore.CHOScore>
0.0000

> <Gold.PLP.Chemscore.Metal>
0.0000

> <Gold.Chemscore.Hbonds>
donor molecule, donor type, donor heavy atom, donor atom, acceptor molecule, acceptor atom, score
      L1  H     2    18       P1  7948  1.00

> <Gold.PLP.Chemscore.Internal.Correction>
0.0992

> <Gold.Rescore>
     Score         DG    S(hbond)    S(metal)    S(lipo)     H(rot)  DE(clash)    DE(int)     intcor
     14.37     -14.77       0.99        0.00      73.17       1.00       0.30       0.11       ----

> <Gold.Chemscore.Fitness>
14.3684

> <Gold.Chemscore.DG>
-14.7749

> <Gold.Chemscore.ZeroCoef>
-5.4800

> <Gold.Chemscore.Hbond>
0.9863

> <Gold.Chemscore.Metal>
0.0000

> <Gold.Chemscore.Lipo>
73.1686

> <Gold.Chemscore.Internal_Hbond>
0.0000

> <Gold.Chemscore.DEClash>
0.2977

> <Gold.Chemscore.DEInternal>
0.1088

> <Gold.Chemscore.Rot>
1.0000

> <Gold.Chemscore.Internal.Correction>
   9.000000E+99

> <Gold.Chemscore.Hbonds>
donor molecule, donor type, donor heavy atom, donor atom, acceptor molecule, acceptor atom, score
      L1  H     2    18       P1  7948  0.88

> <Gold.Chemscore.Hbond.Weighted>
-3.2942

> <Gold.Chemscore.Metal.Weighted>
-0.0000

> <Gold.Chemscore.Lipo.Weighted>
-8.5607

> <Gold.Chemscore.Internal_Hbond.Weighted>
0.0000

> <Gold.Chemscore.DEClash.Weighted>
0.2977

> <Gold.Chemscore.DEInternal.Weighted>
0.1088

> <Gold.Chemscore.Rot.Weighted>
2.5600

> <Gold.Chemscore.Internal.Correction.Weighted>
   9.000000E+99

> <Gold.Protein.RotatedTorsions>
[ 6907 6896 6895 6894 ] final  121.80 input  -60.11 | X-H torsion
[ 7974 7965 7964 7962 ] final  -72.80 input  175.53 | X-H torsion
[ 8008 7997 7996 7995 ] final -123.18 input   59.86 | X-H torsion
[ 10167 10162 10161 10158 ] final -160.17 input  -65.29 | X-H torsion
[ 10718 10713 10712 10709 ] final -155.51 input   66.30 | X-H torsion
[ 10763 10752 10751 10750 ] final  109.30 input  -60.55 | X-H torsion
[ 11005 11000 10999 10996 ] final  173.96 input  -57.11 | X-H torsion

> <Gold.Protein.ActiveResidues>
 VAL166  LYS551  ARG553  GLY616  TRP617  ASP618  TYR619  PRO620  LYS621  CYS622 
 ASP623  PHE694  ASN695  SER759  ASP760  ASP761  ALA762  ILE779  LEU786  VAL792 
 PHE793  MET794  SER795  GLU796  ALA797  LYS798  CYS799  TRP800  GLU811  SER814 

> <Gold.Protein.RotatedAtoms>
  152.4293  133.7249  159.6554 H   0  0  0  0  0  0  0  0  0  0  0  0  # atno 6907 bound_to 6896
  150.8171  133.8307  159.3161 H   0  0  0  0  0  0  0  0  0  0  0  0  # atno 6908 bound_to 6896
  151.6000  135.1050  160.0110 H   0  0  0  0  0  0  0  0  0  0  0  0  # atno 6909 bound_to 6896
  145.6604  140.9254  143.0937 H   0  0  0  0  0  0  0  0  0  0  0  0  # atno 7974 bound_to 7965
  155.1763  140.0409  157.2873 H   0  0  0  0  0  0  0  0  0  0  0  0  # atno 8008 bound_to 7997
  154.6234  140.2506  155.7493 H   0  0  0  0  0  0  0  0  0  0  0  0  # atno 8009 bound_to 7997
  156.2446  140.2890  156.0553 H   0  0  0  0  0  0  0  0  0  0  0  0  # atno 8010 bound_to 7997
  139.6559  143.9999  152.2193 H   0  0  0  0  0  0  0  0  0  0  0  0  # atno 10167 bound_to 10162
  156.5139  130.8447  151.2657 H   0  0  0  0  0  0  0  0  0  0  0  0  # atno 10718 bound_to 10713
  153.4327  135.3784  155.2180 H   0  0  0  0  0  0  0  0  0  0  0  0  # atno 10763 bound_to 10752
  154.8751  135.3844  154.4248 H   0  0  0  0  0  0  0  0  0  0  0  0  # atno 10764 bound_to 10752
  153.4783  135.7088  153.6016 H   0  0  0  0  0  0  0  0  0  0  0  0  # atno 10765 bound_to 10752
  140.3461  134.7235  157.4236 H   0  0  0  0  0  0  0  0  0  0  0  0  # atno 11005 bound_to 11000
  144.7091  139.8442  143.7420 LP  0  0  0  0  0  0  0  0  0  0  0  0  # atno 17320 bound_to 7965
  146.1130  139.4137  143.0276 LP  0  0  0  0  0  0  0  0  0  0  0  0  # atno 17321 bound_to 7965
  139.9725  144.6484  150.7975 LP  0  0  0  0  0  0  0  0  0  0  0  0  # atno 17342 bound_to 10162
  140.7559  143.3055  151.2973 LP  0  0  0  0  0  0  0  0  0  0  0  0  # atno 17343 bound_to 10162
  157.7446  130.9940  150.2693 LP  0  0  0  0  0  0  0  0  0  0  0  0  # atno 17370 bound_to 10713
  156.3214  130.3786  149.7572 LP  0  0  0  0  0  0  0  0  0  0  0  0  # atno 17371 bound_to 10713
  140.0741  134.5822  155.8610 LP  0  0  0  0  0  0  0  0  0  0  0  0  # atno 17394 bound_to 11000
  141.2025  133.6625  156.6010 LP  0  0  0  0  0  0  0  0  0  0  0  0  # atno 17395 bound_to 11000

$$$$
