AV-unprocessed.smi:276|AV-procd|sdf|2080|dock4
  -GOLD-   2262021353D 1   1.00000     0.00000
 Structure written by MMmdl.
 57 61  0  0  0  0  0  0  0  0  1 V2000
  152.2486  145.2631  158.8687 C   0  0  0  0  0  0  0  0  0  0  0  0
  151.7513  144.1763  158.1080 O   0  0  0  0  0  0  0  0  0  0  0  0
  151.4284  143.0512  158.9093 C   0  0  2  0  0  0  0  0  0  0  0  0
  152.6215  142.1480  159.2424 C   0  0  0  0  0  0  0  0  0  0  0  0
  151.6668  140.9595  159.0675 C   0  0  2  0  0  0  0  0  0  0  0  0
  152.3119  139.7891  158.4675 N   0  0  0  0  0  0  0  0  0  0  0  0
  153.5147  139.3079  159.1354 C   0  0  0  0  0  0  0  0  0  0  0  0
  151.5014  138.7494  158.1660 C   0  0  0  0  0  0  0  0  0  0  0  0
  150.7911  138.2095  159.1880 N   0  0  0  0  0  0  0  0  0  0  0  0
  149.9771  137.1735  158.9650 C   0  0  0  0  0  0  0  0  0  0  0  0
  149.7241  136.5425  157.8165 N   0  0  0  0  0  0  0  0  0  0  0  0
  150.4191  137.0980  156.7826 C   0  0  0  0  0  0  0  0  0  0  0  0
  151.3186  138.1984  156.8647 C   0  0  0  0  0  0  0  0  0  0  0  0
  151.8214  138.4905  155.6016 N   0  0  0  0  0  0  0  0  0  0  0  0
  151.2619  137.6065  154.8215 C   0  0  0  0  0  0  0  0  0  0  0  0
  150.4050  136.7319  155.4487 N   0  0  0  0  0  0  0  0  0  0  0  0
  149.6487  135.6616  154.8228 C   0  0  0  0  0  0  0  0  0  0  0  0
  149.6048  134.3871  155.6891 C   0  0  2  0  0  0  0  0  0  0  0  0
  150.9251  133.9325  155.9198 O   0  0  0  0  0  0  0  0  0  0  0  0
  148.7969  133.2572  155.0239 C   0  0  1  0  0  0  0  0  0  0  0  0
  149.2990  132.8517  153.6372 C   0  0  0  0  0  0  0  0  0  0  0  0
  148.7560  131.4468  153.5146 C   0  0  0  0  0  0  0  0  0  0  0  0
  148.9265  130.9182  154.9358 C   0  0  0  0  0  0  0  0  0  0  0  0
  148.8909  132.0587  155.7908 O   0  0  0  0  0  0  0  0  0  0  0  0
  150.8419  141.8674  158.1154 C   0  0  0  0  0  0  0  0  0  0  0  0
  149.3235  141.7109  157.9614 C   0  0  0  0  0  0  0  0  0  0  0  0
  149.5403  141.2463  156.5176 C   0  0  0  0  0  0  0  0  0  0  0  0
  150.9633  141.8114  156.5786 C   0  0  0  0  0  0  0  0  0  0  0  0
  152.4753  146.0989  158.2070 H   0  0  0  0  0  0  0  0  0  0  0  0
  153.1649  144.9937  159.3951 H   0  0  0  0  0  0  0  0  0  0  0  0
  151.5120  145.6016  159.5985 H   0  0  0  0  0  0  0  0  0  0  0  0
  150.8224  143.2969  159.7844 H   0  0  0  0  0  0  0  0  0  0  0  0
  153.4087  142.1906  158.4868 H   0  0  0  0  0  0  0  0  0  0  0  0
  153.0192  142.2705  160.2499 H   0  0  0  0  0  0  0  0  0  0  0  0
  151.1395  140.7524  159.9996 H   0  0  0  0  0  0  0  0  0  0  0  0
  153.2768  138.9170  160.1254 H   0  0  0  0  0  0  0  0  0  0  0  0
  154.2405  140.1124  159.2537 H   0  0  0  0  0  0  0  0  0  0  0  0
  153.9941  138.5156  158.5590 H   0  0  0  0  0  0  0  0  0  0  0  0
  149.4550  136.7953  159.8313 H   0  0  0  0  0  0  0  0  0  0  0  0
  151.4563  137.5706  153.7595 H   0  0  0  0  0  0  0  0  0  0  0  0
  148.6385  136.0273  154.6360 H   0  0  0  0  0  0  0  0  0  0  0  0
  150.0854  135.4468  153.8467 H   0  0  0  0  0  0  0  0  0  0  0  0
  149.1598  134.6254  156.6562 H   0  0  0  0  0  0  0  0  0  0  0  0
  151.4065  133.9837  155.1080 H   0  0  0  0  0  0  0  0  0  0  0  0
  147.7422  133.5304  154.9583 H   0  0  0  0  0  0  0  0  0  0  0  0
  148.9476  133.5141  152.8458 H   0  0  0  0  0  0  0  0  0  0  0  0
  150.3895  132.8343  153.6108 H   0  0  0  0  0  0  0  0  0  0  0  0
  147.6984  131.4776  153.2489 H   0  0  0  0  0  0  0  0  0  0  0  0
  149.2792  130.8468  152.7696 H   0  0  0  0  0  0  0  0  0  0  0  0
  148.1528  130.1978  155.2026 H   0  0  0  0  0  0  0  0  0  0  0  0
  149.8957  130.4315  155.0494 H   0  0  0  0  0  0  0  0  0  0  0  0
  148.8714  140.9630  158.6125 H   0  0  0  0  0  0  0  0  0  0  0  0
  148.7964  142.6641  158.0192 H   0  0  0  0  0  0  0  0  0  0  0  0
  149.5135  140.1618  156.4119 H   0  0  0  0  0  0  0  0  0  0  0  0
  148.8937  141.7335  155.7874 H   0  0  0  0  0  0  0  0  0  0  0  0
  151.0266  142.7955  156.1135 H   0  0  0  0  0  0  0  0  0  0  0  0
  151.7334  141.1466  156.1888 H   0  0  0  0  0  0  0  0  0  0  0  0
  1  2  1  0  0  0  0
  1 29  1  0  0  0  0
  1 30  1  0  0  0  0
  1 31  1  0  0  0  0
  2  3  1  0  0  0  0
  3 25  1  0  0  0  0
  3  4  1  0  0  0  0
  3 32  1  0  0  0  0
  4  5  1  0  0  0  0
  4 33  1  0  0  0  0
  4 34  1  0  0  0  0
  5  6  1  0  0  0  0
  5 25  1  0  0  0  0
  5 35  1  0  0  0  0
  6  7  1  0  0  0  0
  6  8  1  0  0  0  0
  7 36  1  0  0  0  0
  7 37  1  0  0  0  0
  7 38  1  0  0  0  0
  8 13  1  0  0  0  0
  8  9  2  0  0  0  0
  9 10  1  0  0  0  0
 10 11  2  0  0  0  0
 10 39  1  0  0  0  0
 11 12  1  0  0  0  0
 12 16  1  0  0  0  0
 12 13  2  0  0  0  0
 13 14  1  0  0  0  0
 14 15  2  0  0  0  0
 15 16  1  0  0  0  0
 15 40  1  0  0  0  0
 16 17  1  0  0  0  0
 17 18  1  0  0  0  0
 17 41  1  0  0  0  0
 17 42  1  0  0  0  0
 18 19  1  0  0  0  0
 18 20  1  0  0  0  0
 18 43  1  0  0  0  0
 19 44  1  0  0  0  0
 20 24  1  0  0  0  0
 20 21  1  0  0  0  0
 20 45  1  0  0  0  0
 21 22  1  0  0  0  0
 21 46  1  0  0  0  0
 21 47  1  0  0  0  0
 22 23  1  0  0  0  0
 22 48  1  0  0  0  0
 22 49  1  0  0  0  0
 23 24  1  0  0  0  0
 23 50  1  0  0  0  0
 23 51  1  0  0  0  0
 25 28  1  0  0  0  0
 25 26  1  0  0  0  0
 26 27  1  0  0  0  0
 26 52  1  0  0  0  0
 26 53  1  0  0  0  0
 27 28  1  0  0  0  0
 27 54  1  0  0  0  0
 27 55  1  0  0  0  0
 28 56  1  0  0  0  0
 28 57  1  0  0  0  0
M  END
> <s_m_source_file>
AV-unprocessed.smi

> <i_m_source_file_index>
276

> <i_lp_mmshare_version>
43012

> <i_f3d_flags>
0

> <s_epik_input>
W0NIMl0xW0NIMl1bQ0gyXUMxMltDQEhdKE9bQ0gzXSlbQ0gyXVtDQEhdMk4oW0NIM10pYyhuW2NIXW4zKWMoYzM0KW5bY0hdbjRbQ0gyXVtDQEhdKFtPSF0pW0NAQEhdNVtDSDJdW0NIMl1bQ0gyXU81

> <s_epik_cmdline>
J2VwaWtfcHl0aG9uJywgJy1waCcsICc3LjAnLCAnLXRuJywgJzgnLCAnLW1hJywgJzIwMCcsICctbWV0YWxfYmluZGluZycsICctaW1hZScsICc8aW5maWxlLm1hZT4nLCAnLW9tYWUnLCAnPG91dGZpbGUubWFlPic=

> <r_lp_tautomer_probability>
1

> <r_epik_Ionization_Penalty>
0.00204117

> <r_epik_Ionization_Penalty_Charging>
0

> <r_epik_Ionization_Penalty_Neutral>
0.00204117

> <r_epik_State_Penalty>
0.00127401

> <r_epik_Charging_Adjusted_Penalty>
0.00127401

> <i_epik_Tot_Q>
0

> <i_epik_Tot_abs_Q>
0

> <r_epik_Metal_State_Penalty>
-0

> <b_epik_Metal_Only>
0

> <s_lp_Force_Field>
OPLS_2005

> <r_lp_Energy>
54.5778

> <b_lp_Chiralities_Consistent>
1

> <s_lp_Variant>
AV-unprocessed.smi:276-11

> <Gold.Version>
5.8.1

> <Gold.Id.Protein>
6NUR|6NUR_protein|mol2

> <Gold.PLP.Fitness>
41.4350

> <Gold.PLP.PLP>
-41.2179

> <Gold.PLP.part.hbond>
-0.2583

> <Gold.PLP.part.metal>
0.0000

> <Gold.PLP.part.buried>
-6.6128

> <Gold.PLP.part.nonpolar>
-33.8804

> <Gold.PLP.part.repulsive>
0.1086

> <Gold.PLP.ligand.clash>
0.0000

> <Gold.PLP.ligand.torsion>
0.8685

> <Gold.PLP.Chemscore.Hbond>
0.0000

> <Gold.PLP.Chemscore.CHOScore>
0.3912

> <Gold.PLP.Chemscore.Metal>
0.0000

> <Gold.Chemscore.Hbonds>
donor molecule, donor type, donor heavy atom, donor atom, acceptor molecule, acceptor atom, score
      L1  C    15    40       P1  7949  0.38

> <Gold.PLP.Chemscore.Internal.Correction>
0.7805

> <Gold.Rescore>
     Score         DG    S(hbond)    S(metal)    S(lipo)     H(rot)  DE(clash)    DE(int)     intcor
      8.88     -11.10       0.00        0.00     107.52       2.72       0.36       1.86       ----

> <Gold.Chemscore.Fitness>
8.8825

> <Gold.Chemscore.DG>
-11.1041

> <Gold.Chemscore.ZeroCoef>
-5.4800

> <Gold.Chemscore.Hbond>
0.0000

> <Gold.Chemscore.Metal>
0.0000

> <Gold.Chemscore.Lipo>
107.5223

> <Gold.Chemscore.Internal_Hbond>
0.0000

> <Gold.Chemscore.DEClash>
0.3634

> <Gold.Chemscore.DEInternal>
1.8582

> <Gold.Chemscore.Rot>
2.7172

> <Gold.Chemscore.Internal.Correction>
   9.000000E+99

> <Gold.Chemscore.Hbond.Weighted>
-0.0000

> <Gold.Chemscore.Metal.Weighted>
-0.0000

> <Gold.Chemscore.Lipo.Weighted>
-12.5801

> <Gold.Chemscore.Internal_Hbond.Weighted>
0.0000

> <Gold.Chemscore.DEClash.Weighted>
0.3634

> <Gold.Chemscore.DEInternal.Weighted>
1.8582

> <Gold.Chemscore.Rot.Weighted>
6.9560

> <Gold.Chemscore.Internal.Correction.Weighted>
   9.000000E+99

> <Gold.Protein.RotatedTorsions>
[ 6907 6896 6895 6894 ] final   32.11 input  -60.11 | X-H torsion
[ 7974 7965 7964 7962 ] final   -6.57 input  175.53 | X-H torsion
[ 8008 7997 7996 7995 ] final  -55.11 input   59.86 | X-H torsion
[ 10167 10162 10161 10158 ] final  165.88 input  -65.29 | X-H torsion
[ 10718 10713 10712 10709 ] final  -30.48 input   66.30 | X-H torsion
[ 10763 10752 10751 10750 ] final -121.39 input  -60.55 | X-H torsion
[ 11005 11000 10999 10996 ] final   57.69 input  -57.11 | X-H torsion

> <Gold.Protein.ActiveResidues>
 VAL166  LYS551  ARG553  GLY616  TRP617  ASP618  TYR619  PRO620  LYS621  CYS622 
 ASP623  PHE694  ASN695  SER759  ASP760  ASP761  ALA762  ILE779  LEU786  VAL792 
 PHE793  MET794  SER795  GLU796  ALA797  LYS798  CYS799  TRP800  GLU811  SER814 

> <Gold.Protein.RotatedAtoms>
  152.0698  134.9541  160.0574 H   0  0  0  0  0  0  0  0  0  0  0  0  # atno 6907 bound_to 6896
  152.0871  133.4177  159.4535 H   0  0  0  0  0  0  0  0  0  0  0  0  # atno 6908 bound_to 6896
  150.6836  134.2834  159.4680 H   0  0  0  0  0  0  0  0  0  0  0  0  # atno 6909 bound_to 6896
  146.2328  140.2190  142.8337 H   0  0  0  0  0  0  0  0  0  0  0  0  # atno 7974 bound_to 7965
  154.4184  140.1160  156.5423 H   0  0  0  0  0  0  0  0  0  0  0  0  # atno 8008 bound_to 7997
  155.6495  140.3496  155.4724 H   0  0  0  0  0  0  0  0  0  0  0  0  # atno 8009 bound_to 7997
  155.9804  140.1159  157.0721 H   0  0  0  0  0  0  0  0  0  0  0  0  # atno 8010 bound_to 7997
  139.4914  144.4085  151.9326 H   0  0  0  0  0  0  0  0  0  0  0  0  # atno 10167 bound_to 10162
  156.3992  130.4387  149.7335 H   0  0  0  0  0  0  0  0  0  0  0  0  # atno 10718 bound_to 10713
  154.8667  135.4169  154.2612 H   0  0  0  0  0  0  0  0  0  0  0  0  # atno 10763 bound_to 10752
  153.3540  135.7000  153.6771 H   0  0  0  0  0  0  0  0  0  0  0  0  # atno 10764 bound_to 10752
  153.5699  135.3593  155.2806 H   0  0  0  0  0  0  0  0  0  0  0  0  # atno 10765 bound_to 10752
  140.0434  134.5841  155.9353 H   0  0  0  0  0  0  0  0  0  0  0  0  # atno 11005 bound_to 11000
  144.9647  140.8310  143.5492 LP  0  0  0  0  0  0  0  0  0  0  0  0  # atno 17320 bound_to 7965
  145.2165  139.2179  143.5116 LP  0  0  0  0  0  0  0  0  0  0  0  0  # atno 17321 bound_to 7965
  140.3526  144.3070  150.5946 LP  0  0  0  0  0  0  0  0  0  0  0  0  # atno 17342 bound_to 10162
  140.5472  143.2212  151.7988 LP  0  0  0  0  0  0  0  0  0  0  0  0  # atno 17343 bound_to 10162
  156.4358  130.7837  151.2857 LP  0  0  0  0  0  0  0  0  0  0  0  0  # atno 17370 bound_to 10713
  157.7503  131.0140  150.3447 LP  0  0  0  0  0  0  0  0  0  0  0  0  # atno 17371 bound_to 10713
  141.1894  133.6565  156.5368 LP  0  0  0  0  0  0  0  0  0  0  0  0  # atno 17394 bound_to 11000
  140.4033  134.7337  157.4793 LP  0  0  0  0  0  0  0  0  0  0  0  0  # atno 17395 bound_to 11000

$$$$
