AV-unprocessed.smi:1057|AV-procd|sdf|4651|dock9
  -GOLD-   22720 3163D 1   1.00000     0.00000
 Structure written by MMmdl.
 45 46  0  0  0  0  0  0  0  0  2 V2000
  155.5250  135.1789  163.6782 C   0  0  0  0  0  0  0  0  0  0  0  0
  154.7818  136.0946  163.3618 C   0  0  0  0  0  0  0  0  0  0  0  0
  153.8760  137.1882  162.9805 C   0  0  0  0  0  0  0  0  0  0  0  0
  154.0315  137.5586  161.5818 N   0  0  0  0  0  0  0  0  0  0  0  0
  154.1810  136.6813  160.5795 C   0  0  0  0  0  0  0  0  0  0  0  0
  154.1936  135.4609  160.7491 O   0  0  0  0  0  0  0  0  0  0  0  0
  154.3153  137.2830  159.1753 C   0  0  0  0  0  0  0  0  0  0  0  0
  153.2868  138.2789  158.8831 N   0  0  0  0  0  0  0  0  0  0  0  0
  153.4723  139.6068  158.8994 C   0  0  0  0  0  0  0  0  0  0  0  0
  154.5397  140.1420  159.1981 O   0  0  0  0  0  0  0  0  0  0  0  0
  152.3587  140.2592  158.5277 N   0  0  0  0  0  0  0  0  0  0  0  0
  152.1649  141.6644  158.4076 C   0  0  0  0  0  0  0  0  0  0  0  0
  152.8814  142.6043  159.1916 C   0  0  0  0  0  0  0  0  0  0  0  0
  152.6222  143.9813  159.0398 C   0  0  0  0  0  0  0  0  0  0  0  0
  151.6467  144.3976  158.1148 C   0  0  0  0  0  0  0  0  0  0  0  0
  150.9720  143.4777  157.3935 N   0  3  0  0  0  0  0  0  0  0  0  0
  151.1849  142.1435  157.5019 C   0  0  0  0  0  0  0  0  0  0  0  0
  150.4246  141.2743  156.7032 N   0  0  0  0  0  0  0  0  0  0  0  0
  151.2222  140.5377  155.7266 C   0  0  0  0  0  0  0  0  0  0  0  0
  150.3134  139.7942  154.7326 C   0  0  0  0  0  0  0  0  0  0  0  0
  149.3082  138.8960  155.4719 C   0  0  0  0  0  0  0  0  0  0  0  0
  148.5217  139.7161  156.5076 C   0  0  0  0  0  0  0  0  0  0  0  0
  149.4754  140.4602  157.4580 C   0  0  0  0  0  0  0  0  0  0  0  0
  156.1709  134.3766  163.9568 H   0  0  0  0  0  0  0  0  0  0  0  0
  152.8521  136.8664  163.1757 H   0  0  0  0  0  0  0  0  0  0  0  0
  154.0861  138.0456  163.6212 H   0  0  0  0  0  0  0  0  0  0  0  0
  154.0271  138.5443  161.3625 H   0  0  0  0  0  0  0  0  0  0  0  0
  155.2902  137.7644  159.0967 H   0  0  0  0  0  0  0  0  0  0  0  0
  154.2974  136.4892  158.4263 H   0  0  0  0  0  0  0  0  0  0  0  0
  152.3796  137.9255  158.6166 H   0  0  0  0  0  0  0  0  0  0  0  0
  151.5917  139.6845  158.2103 H   0  0  0  0  0  0  0  0  0  0  0  0
  153.6156  142.2911  159.9183 H   0  0  0  0  0  0  0  0  0  0  0  0
  153.1615  144.7075  159.6304 H   0  0  0  0  0  0  0  0  0  0  0  0
  151.3829  145.4299  157.9361 H   0  0  0  0  0  0  0  0  0  0  0  0
  151.8761  141.2257  155.1887 H   0  0  0  0  0  0  0  0  0  0  0  0
  151.8646  139.8251  156.2457 H   0  0  0  0  0  0  0  0  0  0  0  0
  149.7735  140.5180  154.1205 H   0  0  0  0  0  0  0  0  0  0  0  0
  150.9164  139.1978  154.0476 H   0  0  0  0  0  0  0  0  0  0  0  0
  148.6245  138.4301  154.7617 H   0  0  0  0  0  0  0  0  0  0  0  0
  149.8392  138.0854  155.9727 H   0  0  0  0  0  0  0  0  0  0  0  0
  147.8833  140.4362  155.9937 H   0  0  0  0  0  0  0  0  0  0  0  0
  147.8585  139.0645  157.0770 H   0  0  0  0  0  0  0  0  0  0  0  0
  150.0189  139.7417  158.0732 H   0  0  0  0  0  0  0  0  0  0  0  0
  148.9034  141.0950  158.1361 H   0  0  0  0  0  0  0  0  0  0  0  0
  150.2660  143.8045  156.7336 H   0  0  0  0  0  0  0  0  0  0  0  0
  1  2  3  0  0  0  0
  1 24  1  0  0  0  0
  2  3  1  0  0  0  0
  3  4  1  0  0  0  0
  3 25  1  0  0  0  0
  3 26  1  0  0  0  0
  4  5  1  0  0  0  0
  4 27  1  0  0  0  0
  5  6  2  0  0  0  0
  5  7  1  0  0  0  0
  7  8  1  0  0  0  0
  7 28  1  0  0  0  0
  7 29  1  0  0  0  0
  8  9  1  0  0  0  0
  8 30  1  0  0  0  0
  9 10  2  0  0  0  0
  9 11  1  0  0  0  0
 11 12  1  0  0  0  0
 11 31  1  0  0  0  0
 12 17  1  0  0  0  0
 12 13  2  0  0  0  0
 13 14  1  0  0  0  0
 13 32  1  0  0  0  0
 14 15  2  0  0  0  0
 14 33  1  0  0  0  0
 15 16  1  0  0  0  0
 15 34  1  0  0  0  0
 16 17  2  0  0  0  0
 16 45  1  0  0  0  0
 17 18  1  0  0  0  0
 18 23  1  0  0  0  0
 18 19  1  0  0  0  0
 19 20  1  0  0  0  0
 19 35  1  0  0  0  0
 19 36  1  0  0  0  0
 20 21  1  0  0  0  0
 20 37  1  0  0  0  0
 20 38  1  0  0  0  0
 21 22  1  0  0  0  0
 21 39  1  0  0  0  0
 21 40  1  0  0  0  0
 22 23  1  0  0  0  0
 22 41  1  0  0  0  0
 22 42  1  0  0  0  0
 23 43  1  0  0  0  0
 23 44  1  0  0  0  0
M  CHG  1  16   1
M  END
> <s_m_source_file>
AV-unprocessed.smi

> <i_m_source_file_index>
1057

> <i_lp_mmshare_version>
43012

> <i_f3d_flags>
0

> <s_epik_input>
W0NIXSNDW0NIMl1bTkhdQyg9TylbQ0gyXVtOSF1DKD1PKVtOSF1jMVtjSF1bY0hdW2NIXW5jMU4yW0NIMl1bQ0gyXVtDSDJdW0NIMl1bQ0gyXTI=

> <s_epik_cmdline>
J2VwaWtfcHl0aG9uJywgJy1waCcsICc3LjAnLCAnLXRuJywgJzgnLCAnLW1hJywgJzIwMCcsICctbWV0YWxfYmluZGluZycsICctaW1hZScsICc8aW5maWxlLm1hZT4nLCAnLW9tYWUnLCAnPG91dGZpbGUubWFlPic=

> <r_lp_tautomer_probability>
0.999994

> <r_epik_Ionization_Penalty>
0.641093

> <r_epik_Ionization_Penalty_Charging>
0.641074

> <r_epik_Ionization_Penalty_Neutral>
1.89753e-05

> <r_epik_State_Penalty>
0.658761

> <r_epik_Charging_Adjusted_Penalty>
1.29984

> <i_epik_Tot_Q>
1

> <i_epik_Tot_abs_Q>
1

> <r_epik_Metal_State_Penalty>
0.833895

> <b_epik_Metal_Only>
0

> <s_lp_Force_Field>
OPLS_2005

> <r_lp_Energy>
23.0781

> <b_lp_Chiralities_Consistent>
1

> <s_lp_Variant>
AV-unprocessed.smi:1057-2

> <Gold.Version>
5.8.1

> <Gold.Id.Protein>
6NUR|6NUR_protein|mol2

> <Gold.PLP.Fitness>
47.9997

> <Gold.PLP.PLP>
-37.7763

> <Gold.PLP.part.hbond>
-3.0000

> <Gold.PLP.part.metal>
0.0000

> <Gold.PLP.part.buried>
-2.9371

> <Gold.PLP.part.nonpolar>
-31.1557

> <Gold.PLP.part.repulsive>
0.2841

> <Gold.PLP.ligand.clash>
0.0000

> <Gold.PLP.ligand.torsion>
0.6043

> <Gold.PLP.Chemscore.Hbond>
3.7454

> <Gold.PLP.Chemscore.CHOScore>
0.0000

> <Gold.PLP.Chemscore.Metal>
0.0000

> <Gold.Chemscore.Hbonds>
donor molecule, donor type, donor heavy atom, donor atom, acceptor molecule, acceptor atom, score
      L1  H    16    45       P1  8028  2.00
      P1  H  6896  6909       L1     6  0.91
      P1  H  7997  8008       L1    10  0.64

> <Gold.PLP.Chemscore.Internal.Correction>
0.1957

> <Gold.Rescore>
     Score         DG    S(hbond)    S(metal)    S(lipo)     H(rot)  DE(clash)    DE(int)     intcor
     15.47     -19.48       2.40        0.00      90.78       1.82       0.09       3.92       ----

> <Gold.Chemscore.Fitness>
15.4677

> <Gold.Chemscore.DG>
-19.4838

> <Gold.Chemscore.ZeroCoef>
-5.4800

> <Gold.Chemscore.Hbond>
2.4045

> <Gold.Chemscore.Metal>
0.0000

> <Gold.Chemscore.Lipo>
90.7825

> <Gold.Chemscore.Internal_Hbond>
0.0000

> <Gold.Chemscore.DEClash>
0.0949

> <Gold.Chemscore.DEInternal>
3.9212

> <Gold.Chemscore.Rot>
1.8159

> <Gold.Chemscore.Internal.Correction>
   9.000000E+99

> <Gold.Chemscore.Hbonds>
donor molecule, donor type, donor heavy atom, donor atom, acceptor molecule, acceptor atom, score
      L1  H    16    45       P1  8028  0.99
      P1  H  6896  6909       L1     6  0.47
      P1  H  7997  8008       L1    10  0.10

> <Gold.Chemscore.Hbond.Weighted>
-8.0309

> <Gold.Chemscore.Metal.Weighted>
-0.0000

> <Gold.Chemscore.Lipo.Weighted>
-10.6215

> <Gold.Chemscore.Internal_Hbond.Weighted>
0.0000

> <Gold.Chemscore.DEClash.Weighted>
0.0949

> <Gold.Chemscore.DEInternal.Weighted>
3.9212

> <Gold.Chemscore.Rot.Weighted>
4.6486

> <Gold.Chemscore.Internal.Correction.Weighted>
   9.000000E+99

> <Gold.Protein.RotatedTorsions>
[ 6907 6896 6895 6894 ] final  170.15 input  -60.11 | X-H torsion
[ 7974 7965 7964 7962 ] final   95.69 input  175.53 | X-H torsion
[ 8008 7997 7996 7995 ] final -137.59 input   59.86 | X-H torsion
[ 10167 10162 10161 10158 ] final  -47.04 input  -65.29 | X-H torsion
[ 10718 10713 10712 10709 ] final  -21.18 input   66.30 | X-H torsion
[ 10763 10752 10751 10750 ] final  109.26 input  -60.55 | X-H torsion
[ 11005 11000 10999 10996 ] final  112.24 input  -57.11 | X-H torsion

> <Gold.Protein.ActiveResidues>
 VAL166  LYS551  ARG553  GLY616  TRP617  ASP618  TYR619  PRO620  LYS621  CYS622 
 ASP623  PHE694  ASN695  SER759  ASP760  ASP761  ALA762  ILE779  LEU786  VAL792 
 PHE793  MET794  SER795  GLU796  ALA797  LYS798  CYS799  TRP800  GLU811  SER814 

> <Gold.Protein.RotatedAtoms>
  151.8206  133.3394  159.3582 H   0  0  0  0  0  0  0  0  0  0  0  0  # atno 6907 bound_to 6896
  150.7296  134.5578  159.5836 H   0  0  0  0  0  0  0  0  0  0  0  0  # atno 6908 bound_to 6896
  152.3009  134.7613  160.0409 H   0  0  0  0  0  0  0  0  0  0  0  0  # atno 6909 bound_to 6896
  145.4488  139.2295  143.3051 H   0  0  0  0  0  0  0  0  0  0  0  0  # atno 7974 bound_to 7965
  155.4143  140.0514  157.3030 H   0  0  0  0  0  0  0  0  0  0  0  0  # atno 8008 bound_to 7997
  154.4931  140.2128  155.9464 H   0  0  0  0  0  0  0  0  0  0  0  0  # atno 8009 bound_to 7997
  156.1370  140.3161  155.8441 H   0  0  0  0  0  0  0  0  0  0  0  0  # atno 8010 bound_to 7997
  140.6792  143.2803  151.3869 H   0  0  0  0  0  0  0  0  0  0  0  0  # atno 10167 bound_to 10162
  156.5217  130.4634  149.6593 H   0  0  0  0  0  0  0  0  0  0  0  0  # atno 10718 bound_to 10713
  153.4323  135.3785  155.2177 H   0  0  0  0  0  0  0  0  0  0  0  0  # atno 10763 bound_to 10752
  154.8750  135.3843  154.4253 H   0  0  0  0  0  0  0  0  0  0  0  0  # atno 10764 bound_to 10752
  153.4788  135.7088  153.6013 H   0  0  0  0  0  0  0  0  0  0  0  0  # atno 10765 bound_to 10752
  139.8922  134.9525  156.6555 H   0  0  0  0  0  0  0  0  0  0  0  0  # atno 11005 bound_to 11000
  146.2516  140.5245  142.8891 LP  0  0  0  0  0  0  0  0  0  0  0  0  # atno 17320 bound_to 7965
  144.8074  140.6325  143.6437 LP  0  0  0  0  0  0  0  0  0  0  0  0  # atno 17321 bound_to 7965
  139.6103  144.1112  152.2292 LP  0  0  0  0  0  0  0  0  0  0  0  0  # atno 17342 bound_to 10162
  140.0524  144.5922  150.7326 LP  0  0  0  0  0  0  0  0  0  0  0  0  # atno 17343 bound_to 10162
  156.3143  130.7246  151.2145 LP  0  0  0  0  0  0  0  0  0  0  0  0  # atno 17370 bound_to 10713
  157.7436  131.0473  150.4936 LP  0  0  0  0  0  0  0  0  0  0  0  0  # atno 17371 bound_to 10713
  140.7487  133.8916  155.8331 LP  0  0  0  0  0  0  0  0  0  0  0  0  # atno 17394 bound_to 11000
  141.0018  134.1140  157.4309 LP  0  0  0  0  0  0  0  0  0  0  0  0  # atno 17395 bound_to 11000

$$$$
