AV-unprocessed.smi:1913|AV-procd|sdf|7754|dock5
  -GOLD-   22720 9493D 1   1.00000     0.00000
 Structure written by MMmdl.
 41 43  0  0  0  0  0  0  0  0  2 V2000
  151.6858  145.3970  160.3334 C   0  0  0  0  0  0  0  0  0  0  0  0
  151.4179  144.4742  159.2879 O   0  0  0  0  0  0  0  0  0  0  0  0
  152.0178  143.2349  159.3479 C   0  0  0  0  0  0  0  0  0  0  0  0
  152.8694  142.8117  160.3949 C   0  0  0  0  0  0  0  0  0  0  0  0
  153.4310  141.5220  160.3799 C   0  0  0  0  0  0  0  0  0  0  0  0
  153.1583  140.6223  159.3199 C   0  0  0  0  0  0  0  0  0  0  0  0
  153.6631  139.3386  159.2687 O   0  0  0  0  0  0  0  0  0  0  0  0
  154.5778  138.9313  160.2750 C   0  0  0  0  0  0  0  0  0  0  0  0
  152.3126  141.0464  158.2650 C   0  0  0  0  0  0  0  0  0  0  0  0
  151.9631  140.0977  157.1187 C   0  0  2  0  0  0  0  0  0  0  0  0
  153.0669  139.3188  156.7036 O   0  0  0  0  0  0  0  0  0  0  0  0
  151.4171  140.8434  155.8828 C   0  0  0  0  0  0  0  0  0  0  0  0
  150.5132  140.0114  155.0760 N   0  0  0  0  0  0  0  0  0  0  0  0
  150.7195  138.7773  154.5419 C   0  0  0  0  0  0  0  0  0  0  0  0
  149.5742  138.4069  153.9058 N   0  3  0  0  0  0  0  0  0  0  0  0
  148.6215  139.4196  154.0329 C   0  0  0  0  0  0  0  0  0  0  0  0
  147.3131  139.5021  153.5670 C   0  0  0  0  0  0  0  0  0  0  0  0
  146.6041  140.6813  153.8760 C   0  0  0  0  0  0  0  0  0  0  0  0
  147.1980  141.7220  154.6190 C   0  0  0  0  0  0  0  0  0  0  0  0
  148.5259  141.6285  155.0843 C   0  0  0  0  0  0  0  0  0  0  0  0
  149.2200  140.4581  154.7776 C   0  0  0  0  0  0  0  0  0  0  0  0
  151.7515  142.3427  158.2927 C   0  0  0  0  0  0  0  0  0  0  0  0
  151.1399  146.3216  160.1460 H   0  0  0  0  0  0  0  0  0  0  0  0
  152.7467  145.6455  160.3846 H   0  0  0  0  0  0  0  0  0  0  0  0
  151.3578  145.0102  161.2992 H   0  0  0  0  0  0  0  0  0  0  0  0
  153.1066  143.4583  161.2259 H   0  0  0  0  0  0  0  0  0  0  0  0
  154.0712  141.2461  161.2038 H   0  0  0  0  0  0  0  0  0  0  0  0
  154.8228  137.8792  160.1310 H   0  0  0  0  0  0  0  0  0  0  0  0
  154.1451  139.0340  161.2713 H   0  0  0  0  0  0  0  0  0  0  0  0
  155.5086  139.4974  160.2214 H   0  0  0  0  0  0  0  0  0  0  0  0
  151.2161  139.3803  157.4587 H   0  0  0  0  0  0  0  0  0  0  0  0
  152.9212  138.4250  156.9744 H   0  0  0  0  0  0  0  0  0  0  0  0
  150.9164  141.7716  156.1594 H   0  0  0  0  0  0  0  0  0  0  0  0
  152.2425  141.1256  155.2275 H   0  0  0  0  0  0  0  0  0  0  0  0
  151.6249  138.1928  154.6193 H   0  0  0  0  0  0  0  0  0  0  0  0
  146.8552  138.7058  152.9987 H   0  0  0  0  0  0  0  0  0  0  0  0
  145.5843  140.7899  153.5364 H   0  0  0  0  0  0  0  0  0  0  0  0
  146.6236  142.6104  154.8382 H   0  0  0  0  0  0  0  0  0  0  0  0
  148.9668  142.4301  155.6581 H   0  0  0  0  0  0  0  0  0  0  0  0
  151.0923  142.6608  157.4980 H   0  0  0  0  0  0  0  0  0  0  0  0
  149.4541  137.5254  153.4235 H   0  0  0  0  0  0  0  0  0  0  0  0
  1  2  1  0  0  0  0
  1 23  1  0  0  0  0
  1 24  1  0  0  0  0
  1 25  1  0  0  0  0
  2  3  1  0  0  0  0
  3 22  1  0  0  0  0
  3  4  2  0  0  0  0
  4  5  1  0  0  0  0
  4 26  1  0  0  0  0
  5  6  2  0  0  0  0
  5 27  1  0  0  0  0
  6  7  1  0  0  0  0
  6  9  1  0  0  0  0
  7  8  1  0  0  0  0
  8 28  1  0  0  0  0
  8 29  1  0  0  0  0
  8 30  1  0  0  0  0
  9 10  1  0  0  0  0
  9 22  2  0  0  0  0
 10 11  1  0  0  0  0
 10 12  1  0  0  0  0
 10 31  1  0  0  0  0
 11 32  1  0  0  0  0
 12 13  1  0  0  0  0
 12 33  1  0  0  0  0
 12 34  1  0  0  0  0
 13 21  1  0  0  0  0
 13 14  1  0  0  0  0
 14 15  2  0  0  0  0
 14 35  1  0  0  0  0
 15 16  1  0  0  0  0
 15 41  1  0  0  0  0
 16 21  2  0  0  0  0
 16 17  1  0  0  0  0
 17 18  2  0  0  0  0
 17 36  1  0  0  0  0
 18 19  1  0  0  0  0
 18 37  1  0  0  0  0
 19 20  2  0  0  0  0
 19 38  1  0  0  0  0
 20 21  1  0  0  0  0
 20 39  1  0  0  0  0
 22 40  1  0  0  0  0
M  CHG  1  15   1
M  END
> <s_m_source_file>
AV-unprocessed.smi

> <i_m_source_file_index>
1913

> <i_lp_mmshare_version>
43012

> <i_f3d_flags>
0

> <s_epik_input>
W0NIM11PYzFbY0hdW2NIXWMoT1tDSDNdKWMoW2NIXTEpW0NASF0oW09IXSlbQ0gyXW4oW2NIXW4yKWMoYzIzKVtjSF1bY0hdW2NIXVtjSF0z

> <s_epik_cmdline>
J2VwaWtfcHl0aG9uJywgJy1waCcsICc3LjAnLCAnLXRuJywgJzgnLCAnLW1hJywgJzIwMCcsICctbWV0YWxfYmluZGluZycsICctaW1hZScsICc8aW5maWxlLm1hZT4nLCAnLW9tYWUnLCAnPG91dGZpbGUubWFlPic=

> <r_lp_tautomer_probability>
1

> <r_epik_Ionization_Penalty>
1.3029

> <r_epik_Ionization_Penalty_Charging>
1.3029

> <r_epik_Ionization_Penalty_Neutral>
1.34362e-06

> <r_epik_State_Penalty>
1.377

> <r_epik_Charging_Adjusted_Penalty>
2.6799

> <i_epik_Tot_Q>
1

> <i_epik_Tot_abs_Q>
1

> <r_epik_Metal_State_Penalty>
5.40879

> <b_epik_Metal_Only>
0

> <s_lp_Force_Field>
OPLS_2005

> <r_lp_Energy>
23.3485

> <b_lp_Chiralities_Consistent>
1

> <s_lp_Variant>
AV-unprocessed.smi:1913-3

> <Gold.Version>
5.8.1

> <Gold.Id.Protein>
6NUR|6NUR_protein|mol2

> <Gold.PLP.Fitness>
57.0849

> <Gold.PLP.PLP>
-49.8239

> <Gold.PLP.part.hbond>
-2.2016

> <Gold.PLP.part.metal>
0.0000

> <Gold.PLP.part.buried>
-0.9233

> <Gold.PLP.part.nonpolar>
-46.0771

> <Gold.PLP.part.repulsive>
0.1203

> <Gold.PLP.ligand.clash>
0.0000

> <Gold.PLP.ligand.torsion>
0.8892

> <Gold.PLP.Chemscore.Hbond>
2.9840

> <Gold.PLP.Chemscore.CHOScore>
0.0000

> <Gold.PLP.Chemscore.Metal>
0.0000

> <Gold.Chemscore.Hbonds>
donor molecule, donor type, donor heavy atom, donor atom, acceptor molecule, acceptor atom, score
      L1  H    15    41       P1  7948  1.85
      P1  H  7997  8010       L1    11  0.94

> <Gold.PLP.Chemscore.Internal.Correction>
0.0875

> <Gold.Rescore>
     Score         DG    S(hbond)    S(metal)    S(lipo)     H(rot)  DE(clash)    DE(int)     intcor
     18.61     -19.62       1.70        0.00     124.92       2.41       0.14       0.87       ----

> <Gold.Chemscore.Fitness>
18.6107

> <Gold.Chemscore.DG>
-19.6165

> <Gold.Chemscore.ZeroCoef>
-5.4800

> <Gold.Chemscore.Hbond>
1.7044

> <Gold.Chemscore.Metal>
0.0000

> <Gold.Chemscore.Lipo>
124.9226

> <Gold.Chemscore.Internal_Hbond>
0.0000

> <Gold.Chemscore.DEClash>
0.1398

> <Gold.Chemscore.DEInternal>
0.8661

> <Gold.Chemscore.Rot>
2.4109

> <Gold.Chemscore.Internal.Correction>
   9.000000E+99

> <Gold.Chemscore.Hbonds>
donor molecule, donor type, donor heavy atom, donor atom, acceptor molecule, acceptor atom, score
      L1  H    15    41       P1  7948  0.83
      P1  H  7997  8010       L1    11  0.82

> <Gold.Chemscore.Hbond.Weighted>
-5.6926

> <Gold.Chemscore.Metal.Weighted>
-0.0000

> <Gold.Chemscore.Lipo.Weighted>
-14.6159

> <Gold.Chemscore.Internal_Hbond.Weighted>
0.0000

> <Gold.Chemscore.DEClash.Weighted>
0.1398

> <Gold.Chemscore.DEInternal.Weighted>
0.8661

> <Gold.Chemscore.Rot.Weighted>
6.1720

> <Gold.Chemscore.Internal.Correction.Weighted>
   9.000000E+99

> <Gold.Protein.RotatedTorsions>
[ 6907 6896 6895 6894 ] final   39.24 input  -60.11 | X-H torsion
[ 7974 7965 7964 7962 ] final   33.72 input  175.53 | X-H torsion
[ 8008 7997 7996 7995 ] final   68.70 input   59.86 | X-H torsion
[ 10167 10162 10161 10158 ] final   64.91 input  -65.29 | X-H torsion
[ 10718 10713 10712 10709 ] final  -10.76 input   66.30 | X-H torsion
[ 10763 10752 10751 10750 ] final  -10.74 input  -60.55 | X-H torsion
[ 11005 11000 10999 10996 ] final  -71.36 input  -57.11 | X-H torsion

> <Gold.Protein.ActiveResidues>
 VAL166  LYS551  ARG553  GLY616  TRP617  ASP618  TYR619  PRO620  LYS621  CYS622 
 ASP623  PHE694  ASN695  SER759  ASP760  ASP761  ALA762  ILE779  LEU786  VAL792 
 PHE793  MET794  SER795  GLU796  ALA797  LYS798  CYS799  TRP800  GLU811  SER814 

> <Gold.Protein.RotatedAtoms>
  152.1669  134.8866  160.0537 H   0  0  0  0  0  0  0  0  0  0  0  0  # atno 6907 bound_to 6896
  151.9841  133.3763  159.4127 H   0  0  0  0  0  0  0  0  0  0  0  0  # atno 6908 bound_to 6896
  150.6896  134.3930  159.5129 H   0  0  0  0  0  0  0  0  0  0  0  0  # atno 6909 bound_to 6896
  146.1402  139.6361  142.9168 H   0  0  0  0  0  0  0  0  0  0  0  0  # atno 7974 bound_to 7965
  155.7124  140.3494  155.4979 H   0  0  0  0  0  0  0  0  0  0  0  0  # atno 8008 bound_to 7997
  155.9344  140.1090  157.1128 H   0  0  0  0  0  0  0  0  0  0  0  0  # atno 8009 bound_to 7997
  154.4091  140.1225  156.4831 H   0  0  0  0  0  0  0  0  0  0  0  0  # atno 8010 bound_to 7997
  140.1170  144.4766  150.6943 H   0  0  0  0  0  0  0  0  0  0  0  0  # atno 10167 bound_to 10162
  156.6688  130.5003  149.6006 H   0  0  0  0  0  0  0  0  0  0  0  0  # atno 10718 bound_to 10713
  153.4736  135.7017  153.5979 H   0  0  0  0  0  0  0  0  0  0  0  0  # atno 10763 bound_to 10752
  153.4222  135.3822  155.2118 H   0  0  0  0  0  0  0  0  0  0  0  0  # atno 10764 bound_to 10752
  154.8724  135.3930  154.4177 H   0  0  0  0  0  0  0  0  0  0  0  0  # atno 10765 bound_to 10752
  141.1591  133.6815  156.6893 H   0  0  0  0  0  0  0  0  0  0  0  0  # atno 11005 bound_to 11000
  145.5065  141.0436  143.2511 LP  0  0  0  0  0  0  0  0  0  0  0  0  # atno 17320 bound_to 7965
  144.7783  139.6580  143.7165 LP  0  0  0  0  0  0  0  0  0  0  0  0  # atno 17321 bound_to 7965
  140.6893  143.2367  151.5174 LP  0  0  0  0  0  0  0  0  0  0  0  0  # atno 17342 bound_to 10162
  139.5589  144.2207  152.1658 LP  0  0  0  0  0  0  0  0  0  0  0  0  # atno 17343 bound_to 10162
  156.1954  130.6586  151.1108 LP  0  0  0  0  0  0  0  0  0  0  0  0  # atno 17370 bound_to 10713
  157.7084  131.0746  150.6587 LP  0  0  0  0  0  0  0  0  0  0  0  0  # atno 17371 bound_to 10713
  140.3042  134.8139  157.4123 LP  0  0  0  0  0  0  0  0  0  0  0  0  # atno 17394 bound_to 11000
  140.1235  134.5189  155.8164 LP  0  0  0  0  0  0  0  0  0  0  0  0  # atno 17395 bound_to 11000

$$$$
