AV-unprocessed.smi:265|AV-procd|sdf|2027|dock5
  -GOLD-   2262021233D 1   1.00000     0.00000
 Structure written by MMmdl.
 52 56  0  0  0  0  0  0  0  0  1 V2000
  147.6559  133.2947  153.9942 C   0  0  0  0  0  0  0  0  0  0  0  0
  149.0766  133.1222  154.5522 C   0  0  2  0  0  0  0  0  0  0  0  0
  149.0980  132.1485  155.5925 O   0  0  0  0  0  0  0  0  0  0  0  0
  150.0739  132.4963  156.5714 C   0  0  0  0  0  0  0  0  0  0  0  0
  150.8095  133.7105  156.0111 C   0  0  0  0  0  0  0  0  0  0  0  0
  149.7432  134.3761  155.1489 C   0  0  1  0  0  0  0  0  0  0  0  0
  150.3767  135.1274  154.1300 O   0  0  0  0  0  0  0  0  0  0  0  0
  148.7734  135.2927  155.9435 C   0  0  0  0  0  0  0  0  0  0  0  0
  149.4023  136.4899  156.4785 N   0  0  0  0  0  0  0  0  0  0  0  0
  149.6717  136.7589  157.8013 C   0  0  0  0  0  0  0  0  0  0  0  0
  150.2444  137.9090  158.0298 N   0  0  0  0  0  0  0  0  0  0  0  0
  150.3927  138.4722  156.7676 C   0  0  0  0  0  0  0  0  0  0  0  0
  150.9287  139.7002  156.2864 C   0  0  0  0  0  0  0  0  0  0  0  0
  151.4754  140.6337  157.1061 N   0  0  0  0  0  0  0  0  0  0  0  0
  152.1050  140.1659  158.3460 C   0  0  0  0  0  0  0  0  0  0  0  0
  152.9692  141.2685  158.9871 C   0  0  0  0  0  0  0  0  0  0  0  0
  152.1380  142.5447  159.1706 C   0  0  1  0  0  0  0  0  0  0  0  0
  152.9184  143.6231  159.6641 O   0  0  0  0  0  0  0  0  0  0  0  0
  152.1424  144.7799  159.9963 C   0  0  0  0  0  0  0  0  0  0  0  0
  151.1262  145.1555  158.8964 C   0  0  0  0  0  0  0  0  0  0  0  0
  150.5631  146.2470  158.9309 O   0  0  0  0  0  0  0  0  0  0  0  0
  150.8552  144.2465  157.9453 N   0  0  0  0  0  0  0  0  0  0  0  0
  151.5818  142.9912  157.8097 C   0  0  2  0  0  0  0  0  0  0  0  0
  150.7090  141.8779  157.2102 C   0  0  0  0  0  0  0  0  0  0  0  0
  150.8806  139.9192  154.9447 N   0  0  0  0  0  0  0  0  0  0  0  0
  150.3580  138.9996  154.1280 C   0  0  0  0  0  0  0  0  0  0  0  0
  149.8327  137.8126  154.4356 N   0  0  0  0  0  0  0  0  0  0  0  0
  149.8670  137.5909  155.7807 C   0  0  0  0  0  0  0  0  0  0  0  0
  151.3252  142.3368  159.8700 H   0  0  0  0  0  0  0  0  0  0  0  0
  152.4138  143.1829  157.1294 H   0  0  0  0  0  0  0  0  0  0  0  0
  147.6292  134.0625  153.2208 H   0  0  0  0  0  0  0  0  0  0  0  0
  146.9455  133.5729  154.7726 H   0  0  0  0  0  0  0  0  0  0  0  0
  147.3025  132.3646  153.5487 H   0  0  0  0  0  0  0  0  0  0  0  0
  149.7144  132.7292  153.7578 H   0  0  0  0  0  0  0  0  0  0  0  0
  149.5621  132.7510  157.4999 H   0  0  0  0  0  0  0  0  0  0  0  0
  150.7469  131.6631  156.7745 H   0  0  0  0  0  0  0  0  0  0  0  0
  151.2387  134.3473  156.7837 H   0  0  0  0  0  0  0  0  0  0  0  0
  151.6351  133.3629  155.3873 H   0  0  0  0  0  0  0  0  0  0  0  0
  149.7122  135.5826  153.6361 H   0  0  0  0  0  0  0  0  0  0  0  0
  147.9438  135.6088  155.3099 H   0  0  0  0  0  0  0  0  0  0  0  0
  148.3271  134.7439  156.7736 H   0  0  0  0  0  0  0  0  0  0  0  0
  149.4236  136.0723  158.5976 H   0  0  0  0  0  0  0  0  0  0  0  0
  151.3284  139.8523  159.0450 H   0  0  0  0  0  0  0  0  0  0  0  0
  152.7269  139.2931  158.1423 H   0  0  0  0  0  0  0  0  0  0  0  0
  153.3595  140.9304  159.9473 H   0  0  0  0  0  0  0  0  0  0  0  0
  153.8321  141.4759  158.3530 H   0  0  0  0  0  0  0  0  0  0  0  0
  151.5996  144.5938  160.9239 H   0  0  0  0  0  0  0  0  0  0  0  0
  152.8150  145.6183  160.1788 H   0  0  0  0  0  0  0  0  0  0  0  0
  150.1694  144.4717  157.2393 H   0  0  0  0  0  0  0  0  0  0  0  0
  150.3324  142.1972  156.2392 H   0  0  0  0  0  0  0  0  0  0  0  0
  149.8371  141.7014  157.8417 H   0  0  0  0  0  0  0  0  0  0  0  0
  150.3626  139.2501  153.0773 H   0  0  0  0  0  0  0  0  0  0  0  0
  1  2  1  0  0  0  0
  1 31  1  0  0  0  0
  1 32  1  0  0  0  0
  1 33  1  0  0  0  0
  2  6  1  0  0  0  0
  2  3  1  0  0  0  0
  2 34  1  0  0  0  0
  3  4  1  0  0  0  0
  4  5  1  0  0  0  0
  4 35  1  0  0  0  0
  4 36  1  0  0  0  0
  5  6  1  0  0  0  0
  5 37  1  0  0  0  0
  5 38  1  0  0  0  0
  6  7  1  0  0  0  0
  6  8  1  0  0  0  0
  7 39  1  0  0  0  0
  8  9  1  0  0  0  0
  8 40  1  0  0  0  0
  8 41  1  0  0  0  0
  9 28  1  0  0  0  0
  9 10  1  0  0  0  0
 10 11  2  0  0  0  0
 10 42  1  0  0  0  0
 11 12  1  0  0  0  0
 12 28  2  0  0  0  0
 12 13  1  0  0  0  0
 13 14  1  0  0  0  0
 13 25  2  0  0  0  0
 14 24  1  0  0  0  0
 14 15  1  0  0  0  0
 15 16  1  0  0  0  0
 15 43  1  0  0  0  0
 15 44  1  0  0  0  0
 16 17  1  0  0  0  0
 16 45  1  0  0  0  0
 16 46  1  0  0  0  0
 17 29  1  0  0  0  0
 17 23  1  0  0  0  0
 17 18  1  0  0  0  0
 18 19  1  0  0  0  0
 19 20  1  0  0  0  0
 19 47  1  0  0  0  0
 19 48  1  0  0  0  0
 20 21  2  0  0  0  0
 20 22  1  0  0  0  0
 22 23  1  0  0  0  0
 22 49  1  0  0  0  0
 23 30  1  0  0  0  0
 23 24  1  0  0  0  0
 24 50  1  0  0  0  0
 24 51  1  0  0  0  0
 25 26  1  0  0  0  0
 26 27  2  0  0  0  0
 26 52  1  0  0  0  0
 27 28  1  0  0  0  0
M  END
> <s_m_source_file>
AV-unprocessed.smi

> <i_m_source_file_index>
265

> <i_lp_mmshare_version>
43012

> <i_f3d_flags>
0

> <s_epik_input>
W0NIMl0xW0NIMl1PW0NAQEhdKFtDSDNdKVtDQEBdMShbT0hdKVtDSDJdbihbY0hdbjIpYyhjMjMpbltjSF1uYzNOKFtDSDJdW0NIMl00KVtDSDJdW0NAQEhdKFtDQEhdNDUpW05IXUMoPU8pW0NIMl1PNQ==

> <s_epik_cmdline>
J2VwaWtfcHl0aG9uJywgJy1waCcsICc3LjAnLCAnLXRuJywgJzgnLCAnLW1hJywgJzIwMCcsICctbWV0YWxfYmluZGluZycsICctaW1hZScsICc8aW5maWxlLm1hZT4nLCAnLW9tYWUnLCAnPG91dGZpbGUubWFlPic=

> <r_lp_tautomer_probability>
1

> <r_epik_Ionization_Penalty>
0.00221504

> <r_epik_Ionization_Penalty_Charging>
0

> <r_epik_Ionization_Penalty_Neutral>
0.00221504

> <r_epik_State_Penalty>
-0

> <r_epik_Charging_Adjusted_Penalty>
0

> <i_epik_Tot_Q>
0

> <i_epik_Tot_abs_Q>
0

> <r_epik_Metal_State_Penalty>
-0

> <b_epik_Metal_Only>
0

> <s_lp_Force_Field>
OPLS_2005

> <r_lp_Energy>
44.3077

> <b_lp_Chiralities_Consistent>
1

> <s_lp_Variant>
AV-unprocessed.smi:265-13

> <Gold.Version>
5.8.1

> <Gold.Id.Protein>
6NUR|6NUR_protein|mol2

> <Gold.PLP.Fitness>
44.3783

> <Gold.PLP.PLP>
-35.3319

> <Gold.PLP.part.hbond>
-6.2159

> <Gold.PLP.part.metal>
0.0000

> <Gold.PLP.part.buried>
0.7235

> <Gold.PLP.part.nonpolar>
-29.7400

> <Gold.PLP.part.repulsive>
0.8562

> <Gold.PLP.ligand.clash>
0.0000

> <Gold.PLP.ligand.torsion>
0.5614

> <Gold.PLP.Chemscore.Hbond>
2.2448

> <Gold.PLP.Chemscore.CHOScore>
1.0000

> <Gold.PLP.Chemscore.Metal>
0.0000

> <Gold.Chemscore.Hbonds>
donor molecule, donor type, donor heavy atom, donor atom, acceptor molecule, acceptor atom, score
      L1  H     7    39       P1  7948  0.73
      L1  H    22    49       P1  8028  1.00
      P1  H  7989  7998       L1    25  0.60
      L1  C    26    52       P1  7957  1.00

> <Gold.PLP.Chemscore.Internal.Correction>
0.4348

> <Gold.Rescore>
     Score         DG    S(hbond)    S(metal)    S(lipo)     H(rot)  DE(clash)    DE(int)     intcor
      6.08     -15.08       1.94        0.00      75.94       2.25       5.09       3.91       ----

> <Gold.Chemscore.Fitness>
6.0810

> <Gold.Chemscore.DG>
-15.0805

> <Gold.Chemscore.ZeroCoef>
-5.4800

> <Gold.Chemscore.Hbond>
1.9352

> <Gold.Chemscore.Metal>
0.0000

> <Gold.Chemscore.Lipo>
75.9390

> <Gold.Chemscore.Internal_Hbond>
0.0000

> <Gold.Chemscore.DEClash>
5.0874

> <Gold.Chemscore.DEInternal>
3.9121

> <Gold.Chemscore.Rot>
2.2453

> <Gold.Chemscore.Internal.Correction>
   9.000000E+99

> <Gold.Chemscore.Hbonds>
donor molecule, donor type, donor heavy atom, donor atom, acceptor molecule, acceptor atom, score
      L1  H     7    39       P1  7948  0.08
      L1  H    22    49       P1  8028  0.52
      P1  H  7989  7998       L1    25  0.04

> <Gold.Chemscore.Hbond.Weighted>
-6.4636

> <Gold.Chemscore.Metal.Weighted>
-0.0000

> <Gold.Chemscore.Lipo.Weighted>
-8.8849

> <Gold.Chemscore.Internal_Hbond.Weighted>
0.0000

> <Gold.Chemscore.DEClash.Weighted>
5.0874

> <Gold.Chemscore.DEInternal.Weighted>
3.9121

> <Gold.Chemscore.Rot.Weighted>
5.7479

> <Gold.Chemscore.Internal.Correction.Weighted>
   9.000000E+99

> <Gold.Protein.RotatedTorsions>
[ 6907 6896 6895 6894 ] final   71.80 input  -60.11 | X-H torsion
[ 7974 7965 7964 7962 ] final  143.72 input  175.53 | X-H torsion
[ 8008 7997 7996 7995 ] final -123.80 input   59.86 | X-H torsion
[ 10167 10162 10161 10158 ] final  106.34 input  -65.29 | X-H torsion
[ 10718 10713 10712 10709 ] final  112.79 input   66.30 | X-H torsion
[ 10763 10752 10751 10750 ] final  165.29 input  -60.55 | X-H torsion
[ 11005 11000 10999 10996 ] final   43.76 input  -57.11 | X-H torsion

> <Gold.Protein.ActiveResidues>
 VAL166  LYS551  ARG553  GLY616  TRP617  ASP618  TYR619  PRO620  LYS621  CYS622 
 ASP623  PHE694  ASN695  SER759  ASP760  ASP761  ALA762  ILE779  LEU786  VAL792 
 PHE793  MET794  SER795  GLU796  ALA797  LYS798  CYS799  TRP800  GLU811  SER814 

> <Gold.Protein.RotatedAtoms>
  152.4831  134.4666  159.9621 H   0  0  0  0  0  0  0  0  0  0  0  0  # atno 6907 bound_to 6896
  151.4667  133.3573  159.2825 H   0  0  0  0  0  0  0  0  0  0  0  0  # atno 6908 bound_to 6896
  150.8920  134.8350  159.7360 H   0  0  0  0  0  0  0  0  0  0  0  0  # atno 6909 bound_to 6896
  144.8896  139.5577  143.5804 H   0  0  0  0  0  0  0  0  0  0  0  0  # atno 7974 bound_to 7965
  155.1864  140.0412  157.2892 H   0  0  0  0  0  0  0  0  0  0  0  0  # atno 8008 bound_to 7997
  154.6168  140.2491  155.7571 H   0  0  0  0  0  0  0  0  0  0  0  0  # atno 8009 bound_to 7997
  156.2411  140.2903  156.0457 H   0  0  0  0  0  0  0  0  0  0  0  0  # atno 8010 bound_to 7997
  139.7017  144.7093  151.1174 H   0  0  0  0  0  0  0  0  0  0  0  0  # atno 10167 bound_to 10162
  157.6374  131.0973  150.6946 H   0  0  0  0  0  0  0  0  0  0  0  0  # atno 10718 bound_to 10713
  154.3217  135.2756  155.2516 H   0  0  0  0  0  0  0  0  0  0  0  0  # atno 10763 bound_to 10752
  154.4866  135.5844  153.6432 H   0  0  0  0  0  0  0  0  0  0  0  0  # atno 10764 bound_to 10752
  152.9876  135.6124  154.3402 H   0  0  0  0  0  0  0  0  0  0  0  0  # atno 10765 bound_to 10752
  140.1615  134.4336  155.8315 H   0  0  0  0  0  0  0  0  0  0  0  0  # atno 11005 bound_to 11000
  146.3046  139.7537  142.9066 LP  0  0  0  0  0  0  0  0  0  0  0  0  # atno 17320 bound_to 7965
  145.3806  141.0357  143.3179 LP  0  0  0  0  0  0  0  0  0  0  0  0  # atno 17321 bound_to 7965
  140.7711  143.5414  150.9308 LP  0  0  0  0  0  0  0  0  0  0  0  0  # atno 17342 bound_to 10162
  139.9096  143.6736  152.3117 LP  0  0  0  0  0  0  0  0  0  0  0  0  # atno 17343 bound_to 10162
  156.7275  130.4699  149.5507 LP  0  0  0  0  0  0  0  0  0  0  0  0  # atno 17370 bound_to 10713
  156.1624  130.6383  151.0735 LP  0  0  0  0  0  0  0  0  0  0  0  0  # atno 17371 bound_to 10713
  141.2210  133.6915  156.7602 LP  0  0  0  0  0  0  0  0  0  0  0  0  # atno 17394 bound_to 11000
  140.2484  134.8559  157.3643 LP  0  0  0  0  0  0  0  0  0  0  0  0  # atno 17395 bound_to 11000

$$$$
