AV-unprocessed.smi:2378|AV-procd|sdf|9449|dock7
  -GOLD-   2272013 83D 1   1.00000     0.00000
 Structure written by MMmdl.
 40 41  0  0  0  0  0  0  0  0  1 V2000
  152.2126  145.8625  160.3367 C   0  0  0  0  0  0  0  0  0  0  0  0
  152.2507  144.5237  159.6300 C   0  0  0  0  0  0  0  0  0  0  0  0
  153.1700  143.5286  160.0130 C   0  0  0  0  0  0  0  0  0  0  0  0
  153.1552  142.3072  159.3145 C   0  0  0  0  0  0  0  0  0  0  0  0
  152.3047  142.0462  158.2995 N   0  0  0  0  0  0  0  0  0  0  0  0
  151.4139  142.9968  157.9218 C   0  0  0  0  0  0  0  0  0  0  0  0
  150.4729  142.8241  156.8717 N   0  0  0  0  0  0  0  0  0  0  0  0
  150.2910  141.7482  156.0857 C   0  0  0  0  0  0  0  0  0  0  0  0
  150.9492  140.7084  156.1361 O   0  0  0  0  0  0  0  0  0  0  0  0
  149.2886  141.9464  155.2172 N   0  0  0  0  0  0  0  0  0  0  0  0
  148.8362  140.9794  154.2237 C   0  0  0  0  0  0  0  0  0  0  0  0
  147.5469  141.4470  153.5271 C   0  0  0  0  0  0  0  0  0  0  0  0
  146.6912  142.3695  154.4094 C   0  0  2  0  0  0  0  0  0  0  0  0
  146.0330  141.6045  155.5742 C   0  0  0  0  0  0  0  0  0  0  0  0
  145.1296  142.5370  156.3894 C   0  0  0  0  0  0  0  0  0  0  0  0
  144.1358  143.2391  155.4584 C   0  0  0  0  0  0  0  0  0  0  0  0
  144.8798  143.9144  154.2955 C   0  0  0  0  0  0  0  0  0  0  0  0
  145.6699  142.9533  153.6020 O   0  0  0  0  0  0  0  0  0  0  0  0
  151.3617  144.2513  158.5707 C   0  0  0  0  0  0  0  0  0  0  0  0
  152.9185  145.8928  161.1672 H   0  0  0  0  0  0  0  0  0  0  0  0
  151.2141  146.0539  160.7308 H   0  0  0  0  0  0  0  0  0  0  0  0
  152.4678  146.6629  159.6419 H   0  0  0  0  0  0  0  0  0  0  0  0
  153.8697  143.6917  160.8196 H   0  0  0  0  0  0  0  0  0  0  0  0
  153.8438  141.5180  159.5776 H   0  0  0  0  0  0  0  0  0  0  0  0
  149.8622  143.6096  156.7037 H   0  0  0  0  0  0  0  0  0  0  0  0
  148.8015  142.8303  155.2444 H   0  0  0  0  0  0  0  0  0  0  0  0
  149.6229  140.7954  153.4901 H   0  0  0  0  0  0  0  0  0  0  0  0
  148.6622  140.0323  154.7349 H   0  0  0  0  0  0  0  0  0  0  0  0
  147.7950  141.9579  152.5958 H   0  0  0  0  0  0  0  0  0  0  0  0
  146.9549  140.5737  153.2496 H   0  0  0  0  0  0  0  0  0  0  0  0
  147.3278  143.1601  154.8107 H   0  0  0  0  0  0  0  0  0  0  0  0
  145.4417  140.7756  155.1827 H   0  0  0  0  0  0  0  0  0  0  0  0
  146.7952  141.1671  156.2199 H   0  0  0  0  0  0  0  0  0  0  0  0
  144.5995  141.9768  157.1602 H   0  0  0  0  0  0  0  0  0  0  0  0
  145.7393  143.2807  156.9038 H   0  0  0  0  0  0  0  0  0  0  0  0
  143.4269  142.5112  155.0621 H   0  0  0  0  0  0  0  0  0  0  0  0
  143.5530  143.9749  156.0132 H   0  0  0  0  0  0  0  0  0  0  0  0
  144.1657  144.3528  153.5981 H   0  0  0  0  0  0  0  0  0  0  0  0
  145.5116  144.7273  154.6567 H   0  0  0  0  0  0  0  0  0  0  0  0
  150.6471  145.0002  158.2605 H   0  0  0  0  0  0  0  0  0  0  0  0
  1  2  1  0  0  0  0
  1 20  1  0  0  0  0
  1 21  1  0  0  0  0
  1 22  1  0  0  0  0
  2 19  1  0  0  0  0
  2  3  2  0  0  0  0
  3  4  1  0  0  0  0
  3 23  1  0  0  0  0
  4  5  2  0  0  0  0
  4 24  1  0  0  0  0
  5  6  1  0  0  0  0
  6  7  1  0  0  0  0
  6 19  2  0  0  0  0
  7  8  1  0  0  0  0
  7 25  1  0  0  0  0
  8  9  2  0  0  0  0
  8 10  1  0  0  0  0
 10 11  1  0  0  0  0
 10 26  1  0  0  0  0
 11 12  1  0  0  0  0
 11 27  1  0  0  0  0
 11 28  1  0  0  0  0
 12 13  1  0  0  0  0
 12 29  1  0  0  0  0
 12 30  1  0  0  0  0
 13 18  1  0  0  0  0
 13 14  1  0  0  0  0
 13 31  1  0  0  0  0
 14 15  1  0  0  0  0
 14 32  1  0  0  0  0
 14 33  1  0  0  0  0
 15 16  1  0  0  0  0
 15 34  1  0  0  0  0
 15 35  1  0  0  0  0
 16 17  1  0  0  0  0
 16 36  1  0  0  0  0
 16 37  1  0  0  0  0
 17 18  1  0  0  0  0
 17 38  1  0  0  0  0
 17 39  1  0  0  0  0
 19 40  1  0  0  0  0
M  END
> <s_m_source_file>
AV-unprocessed.smi

> <i_m_source_file_index>
2378

> <i_lp_mmshare_version>
43012

> <i_f3d_flags>
0

> <s_epik_input>
W0NIM11jMVtjSF1bY0hdbmMoW2NIXTEpW05IXUMoPU8pW05IXVtDSDJdW0NIMl1bQ0BASF0yW0NIMl1bQ0gyXVtDSDJdW0NIMl1PMg==

> <s_epik_cmdline>
J2VwaWtfcHl0aG9uJywgJy1waCcsICc3LjAnLCAnLXRuJywgJzgnLCAnLW1hJywgJzIwMCcsICctbWV0YWxfYmluZGluZycsICctaW1hZScsICc8aW5maWxlLm1hZT4nLCAnLW9tYWUnLCAnPG91dGZpbGUubWFlPic=

> <r_lp_tautomer_probability>
1

> <r_epik_Ionization_Penalty>
8.60919e-05

> <r_epik_Ionization_Penalty_Charging>
0

> <r_epik_Ionization_Penalty_Neutral>
8.60919e-05

> <r_epik_State_Penalty>
-0

> <r_epik_Charging_Adjusted_Penalty>
0

> <i_epik_Tot_Q>
0

> <i_epik_Tot_abs_Q>
0

> <r_epik_Metal_State_Penalty>
-0

> <b_epik_Metal_Only>
0

> <s_lp_Force_Field>
OPLS_2005

> <r_lp_Energy>
11.3516

> <b_lp_Chiralities_Consistent>
1

> <s_lp_Variant>
AV-unprocessed.smi:2378-1

> <Gold.Version>
5.8.1

> <Gold.Id.Protein>
6NUR|6NUR_protein|mol2

> <Gold.PLP.Fitness>
47.6748

> <Gold.PLP.PLP>
-42.2685

> <Gold.PLP.part.hbond>
-2.0000

> <Gold.PLP.part.metal>
0.0000

> <Gold.PLP.part.buried>
-8.1343

> <Gold.PLP.part.nonpolar>
-33.2000

> <Gold.PLP.part.repulsive>
0.4433

> <Gold.PLP.ligand.clash>
0.0000

> <Gold.PLP.ligand.torsion>
0.3020

> <Gold.PLP.Chemscore.Hbond>
2.0000

> <Gold.PLP.Chemscore.CHOScore>
0.0000

> <Gold.PLP.Chemscore.Metal>
0.0000

> <Gold.Chemscore.Hbonds>
donor molecule, donor type, donor heavy atom, donor atom, acceptor molecule, acceptor atom, score
      L1  H     7    25       P1  8028  1.00
      L1  H    10    26       P1  8028  0.96

> <Gold.PLP.Chemscore.Internal.Correction>
0.0105

> <Gold.Rescore>
     Score         DG    S(hbond)    S(metal)    S(lipo)     H(rot)  DE(clash)    DE(int)     intcor
     17.22     -19.47       1.90        0.00      96.62       1.42       0.73       1.52       ----

> <Gold.Chemscore.Fitness>
17.2190

> <Gold.Chemscore.DG>
-19.4677

> <Gold.Chemscore.ZeroCoef>
-5.4800

> <Gold.Chemscore.Hbond>
1.8955

> <Gold.Chemscore.Metal>
0.0000

> <Gold.Chemscore.Lipo>
96.6195

> <Gold.Chemscore.Internal_Hbond>
0.0000

> <Gold.Chemscore.DEClash>
0.7307

> <Gold.Chemscore.DEInternal>
1.5180

> <Gold.Chemscore.Rot>
1.4248

> <Gold.Chemscore.Internal.Correction>
   9.000000E+99

> <Gold.Chemscore.Hbonds>
donor molecule, donor type, donor heavy atom, donor atom, acceptor molecule, acceptor atom, score
      L1  H     7    25       P1  8028  0.98
      L1  H    10    26       P1  8028  0.92

> <Gold.Chemscore.Hbond.Weighted>
-6.3308

> <Gold.Chemscore.Metal.Weighted>
-0.0000

> <Gold.Chemscore.Lipo.Weighted>
-11.3045

> <Gold.Chemscore.Internal_Hbond.Weighted>
0.0000

> <Gold.Chemscore.DEClash.Weighted>
0.7307

> <Gold.Chemscore.DEInternal.Weighted>
1.5180

> <Gold.Chemscore.Rot.Weighted>
3.6476

> <Gold.Chemscore.Internal.Correction.Weighted>
   9.000000E+99

> <Gold.Protein.RotatedTorsions>
[ 6907 6896 6895 6894 ] final   60.40 input  -60.11 | X-H torsion
[ 7974 7965 7964 7962 ] final  -88.51 input  175.53 | X-H torsion
[ 8008 7997 7996 7995 ] final  -78.02 input   59.86 | X-H torsion
[ 10167 10162 10161 10158 ] final   47.36 input  -65.29 | X-H torsion
[ 10718 10713 10712 10709 ] final   18.21 input   66.30 | X-H torsion
[ 10763 10752 10751 10750 ] final -158.19 input  -60.55 | X-H torsion
[ 11005 11000 10999 10996 ] final   32.27 input  -57.11 | X-H torsion

> <Gold.Protein.ActiveResidues>
 VAL166  LYS551  ARG553  GLY616  TRP617  ASP618  TYR619  PRO620  LYS621  CYS622 
 ASP623  PHE694  ASN695  SER759  ASP760  ASP761  ALA762  ILE779  LEU786  VAL792 
 PHE793  MET794  SER795  GLU796  ALA797  LYS798  CYS799  TRP800  GLU811  SER814 

> <Gold.Protein.RotatedAtoms>
  152.3999  134.6303  160.0073 H   0  0  0  0  0  0  0  0  0  0  0  0  # atno 6907 bound_to 6896
  151.6512  133.3315  159.3160 H   0  0  0  0  0  0  0  0  0  0  0  0  # atno 6908 bound_to 6896
  150.7901  134.6960  159.6568 H   0  0  0  0  0  0  0  0  0  0  0  0  # atno 6909 bound_to 6896
  145.4522  140.9561  143.2016 H   0  0  0  0  0  0  0  0  0  0  0  0  # atno 7974 bound_to 7965
  154.5650  140.0701  156.8877 H   0  0  0  0  0  0  0  0  0  0  0  0  # atno 8008 bound_to 7997
  155.2740  140.3367  155.4245 H   0  0  0  0  0  0  0  0  0  0  0  0  # atno 8009 bound_to 7997
  156.2073  140.1745  156.7757 H   0  0  0  0  0  0  0  0  0  0  0  0  # atno 8010 bound_to 7997
  140.3044  144.2895  150.6212 H   0  0  0  0  0  0  0  0  0  0  0  0  # atno 10167 bound_to 10162
  157.0931  130.6436  149.5854 H   0  0  0  0  0  0  0  0  0  0  0  0  # atno 10718 bound_to 10713
  154.7576  135.3109  154.8439 H   0  0  0  0  0  0  0  0  0  0  0  0  # atno 10763 bound_to 10752
  153.9209  135.6796  153.4752 H   0  0  0  0  0  0  0  0  0  0  0  0  # atno 10764 bound_to 10752
  153.1175  135.4838  154.9070 H   0  0  0  0  0  0  0  0  0  0  0  0  # atno 10765 bound_to 10752
  140.2752  134.3036  155.7816 H   0  0  0  0  0  0  0  0  0  0  0  0  # atno 11005 bound_to 11000
  144.8055  139.6060  143.7053 LP  0  0  0  0  0  0  0  0  0  0  0  0  # atno 17320 bound_to 7965
  146.2498  139.6175  142.9435 LP  0  0  0  0  0  0  0  0  0  0  0  0  # atno 17321 bound_to 7965
  140.5623  143.2190  151.7744 LP  0  0  0  0  0  0  0  0  0  0  0  0  # atno 17342 bound_to 10162
  139.4907  144.4332  151.9849 LP  0  0  0  0  0  0  0  0  0  0  0  0  # atno 17343 bound_to 10162
  155.9893  130.4939  150.7206 LP  0  0  0  0  0  0  0  0  0  0  0  0  # atno 17370 bound_to 10713
  157.4704  131.0892  151.0649 LP  0  0  0  0  0  0  0  0  0  0  0  0  # atno 17371 bound_to 10713
  141.2171  133.7491  156.9397 LP  0  0  0  0  0  0  0  0  0  0  0  0  # atno 17394 bound_to 11000
  140.1335  134.9340  157.2369 LP  0  0  0  0  0  0  0  0  0  0  0  0  # atno 17395 bound_to 11000

$$$$
