AV-unprocessed.smi:1932|AV-procd|sdf|7814|dock4
  -GOLD-   22720 9553D 1   1.00000     0.00000
 Structure written by MMmdl.
 44 45  0  0  0  0  0  0  0  0  1 V2000
  145.8236  135.3745  162.0775 C   0  0  0  0  0  0  0  0  0  0  0  0
  146.4588  136.1333  160.9085 C   0  0  0  0  0  0  0  0  0  0  0  0
  146.8801  137.2712  161.1175 O   0  0  0  0  0  0  0  0  0  0  0  0
  146.5376  135.5364  159.6935 N   0  0  0  0  0  0  0  0  0  0  0  0
  145.9999  134.1876  159.4946 C   0  0  0  0  0  0  0  0  0  0  0  0
  147.1103  136.1745  158.4947 C   0  0  0  0  0  0  0  0  0  0  0  0
  148.4518  136.8935  158.7166 C   0  0  0  0  0  0  0  0  0  0  0  0
  149.2762  136.3942  159.4813 O   0  0  0  0  0  0  0  0  0  0  0  0
  148.6649  138.0547  158.0764 N   0  0  0  0  0  0  0  0  0  0  0  0
  149.8392  138.9029  158.2361 C   0  0  0  0  0  0  0  0  0  0  0  0
  150.7449  138.8613  157.0123 C   0  0  0  0  0  0  0  0  0  0  0  0
  150.4008  138.0353  155.9216 C   0  0  0  0  0  0  0  0  0  0  0  0
  151.2612  137.9721  154.8106 C   0  0  0  0  0  0  0  0  0  0  0  0
  152.4406  138.7388  154.8362 C   0  0  0  0  0  0  0  0  0  0  0  0
  152.7822  139.5358  155.8700 N   0  0  0  0  0  0  0  0  0  0  0  0
  151.9546  139.6021  156.9411 C   0  0  0  0  0  0  0  0  0  0  0  0
  152.3191  140.4642  157.9899 N   0  0  0  0  0  0  0  0  0  0  0  0
  152.6681  139.7585  159.2156 C   0  0  0  0  0  0  0  0  0  0  0  0
  153.2804  140.7419  160.2278 C   0  0  0  0  0  0  0  0  0  0  0  0
  152.3750  141.8185  160.4561 O   0  0  0  0  0  0  0  0  0  0  0  0
  152.0963  142.5455  159.2626 C   0  0  0  0  0  0  0  0  0  0  0  0
  151.4477  141.6086  158.2284 C   0  0  0  0  0  0  0  0  0  0  0  0
  146.4342  134.5159  162.3567 H   0  0  0  0  0  0  0  0  0  0  0  0
  144.8209  135.0283  161.8277 H   0  0  0  0  0  0  0  0  0  0  0  0
  145.7413  136.0203  162.9523 H   0  0  0  0  0  0  0  0  0  0  0  0
  146.1568  133.5447  160.3608 H   0  0  0  0  0  0  0  0  0  0  0  0
  146.4743  133.6920  158.6466 H   0  0  0  0  0  0  0  0  0  0  0  0
  144.9284  134.2369  159.2990 H   0  0  0  0  0  0  0  0  0  0  0  0
  147.2647  135.4137  157.7281 H   0  0  0  0  0  0  0  0  0  0  0  0
  146.4073  136.8764  158.0460 H   0  0  0  0  0  0  0  0  0  0  0  0
  147.9370  138.3993  157.4671 H   0  0  0  0  0  0  0  0  0  0  0  0
  149.5443  139.9303  158.4562 H   0  0  0  0  0  0  0  0  0  0  0  0
  150.3940  138.5613  159.1093 H   0  0  0  0  0  0  0  0  0  0  0  0
  149.4934  137.4496  155.9373 H   0  0  0  0  0  0  0  0  0  0  0  0
  151.0256  137.3468  153.9622 H   0  0  0  0  0  0  0  0  0  0  0  0
  153.1278  138.7125  154.0036 H   0  0  0  0  0  0  0  0  0  0  0  0
  151.7712  139.3006  159.6350 H   0  0  0  0  0  0  0  0  0  0  0  0
  153.3701  138.9512  159.0058 H   0  0  0  0  0  0  0  0  0  0  0  0
  153.4781  140.2355  161.1726 H   0  0  0  0  0  0  0  0  0  0  0  0
  154.2354  141.1272  159.8659 H   0  0  0  0  0  0  0  0  0  0  0  0
  151.4252  143.3720  159.4958 H   0  0  0  0  0  0  0  0  0  0  0  0
  153.0172  142.9810  158.8721 H   0  0  0  0  0  0  0  0  0  0  0  0
  151.2716  142.1412  157.2932 H   0  0  0  0  0  0  0  0  0  0  0  0
  150.4793  141.2680  158.5972 H   0  0  0  0  0  0  0  0  0  0  0  0
  1  2  1  0  0  0  0
  1 23  1  0  0  0  0
  1 24  1  0  0  0  0
  1 25  1  0  0  0  0
  2  3  2  0  0  0  0
  2  4  1  0  0  0  0
  4  5  1  0  0  0  0
  4  6  1  0  0  0  0
  5 26  1  0  0  0  0
  5 27  1  0  0  0  0
  5 28  1  0  0  0  0
  6  7  1  0  0  0  0
  6 29  1  0  0  0  0
  6 30  1  0  0  0  0
  7  8  2  0  0  0  0
  7  9  1  0  0  0  0
  9 10  1  0  0  0  0
  9 31  1  0  0  0  0
 10 11  1  0  0  0  0
 10 32  1  0  0  0  0
 10 33  1  0  0  0  0
 11 16  1  0  0  0  0
 11 12  2  0  0  0  0
 12 13  1  0  0  0  0
 12 34  1  0  0  0  0
 13 14  2  0  0  0  0
 13 35  1  0  0  0  0
 14 15  1  0  0  0  0
 14 36  1  0  0  0  0
 15 16  2  0  0  0  0
 16 17  1  0  0  0  0
 17 22  1  0  0  0  0
 17 18  1  0  0  0  0
 18 19  1  0  0  0  0
 18 37  1  0  0  0  0
 18 38  1  0  0  0  0
 19 20  1  0  0  0  0
 19 39  1  0  0  0  0
 19 40  1  0  0  0  0
 20 21  1  0  0  0  0
 21 22  1  0  0  0  0
 21 41  1  0  0  0  0
 21 42  1  0  0  0  0
 22 43  1  0  0  0  0
 22 44  1  0  0  0  0
M  END
> <s_m_source_file>
AV-unprocessed.smi

> <i_m_source_file_index>
1932

> <i_lp_mmshare_version>
43012

> <i_f3d_flags>
0

> <s_epik_input>
W0NIM11DKD1PKU4oW0NIM10pW0NIMl1DKD1PKVtOSF1bQ0gyXWMxW2NIXVtjSF1bY0hdbmMxTjJbQ0gyXVtDSDJdT1tDSDJdW0NIMl0y

> <s_epik_cmdline>
J2VwaWtfcHl0aG9uJywgJy1waCcsICc3LjAnLCAnLXRuJywgJzgnLCAnLW1hJywgJzIwMCcsICctbWV0YWxfYmluZGluZycsICctaW1hZScsICc8aW5maWxlLm1hZT4nLCAnLW9tYWUnLCAnPG91dGZpbGUubWFlPic=

> <r_lp_tautomer_probability>
1

> <r_epik_Ionization_Penalty>
0.00462916

> <r_epik_Ionization_Penalty_Charging>
0

> <r_epik_Ionization_Penalty_Neutral>
0.00462916

> <r_epik_State_Penalty>
0.00334737

> <r_epik_Charging_Adjusted_Penalty>
0.00334737

> <i_epik_Tot_Q>
0

> <i_epik_Tot_abs_Q>
0

> <r_epik_Metal_State_Penalty>
-0

> <b_epik_Metal_Only>
0

> <s_lp_Force_Field>
OPLS_2005

> <r_lp_Energy>
20.2877

> <b_lp_Chiralities_Consistent>
1

> <s_lp_Variant>
AV-unprocessed.smi:1932-1

> <Gold.Version>
5.8.1

> <Gold.Id.Protein>
6NUR|6NUR_protein|mol2

> <Gold.PLP.Fitness>
48.5469

> <Gold.PLP.PLP>
-38.1941

> <Gold.PLP.part.hbond>
-4.8259

> <Gold.PLP.part.metal>
0.0000

> <Gold.PLP.part.buried>
-4.0714

> <Gold.PLP.part.nonpolar>
-29.4417

> <Gold.PLP.part.repulsive>
0.1199

> <Gold.PLP.ligand.clash>
0.0000

> <Gold.PLP.ligand.torsion>
0.6489

> <Gold.PLP.Chemscore.Hbond>
3.8080

> <Gold.PLP.Chemscore.CHOScore>
0.0000

> <Gold.PLP.Chemscore.Metal>
0.0000

> <Gold.Chemscore.Hbonds>
donor molecule, donor type, donor heavy atom, donor atom, acceptor molecule, acceptor atom, score
      P1  H  6896  6909       L1     8  0.60
      P1  H  6934  6947       L1     3  1.00
      P1  H  7997  8010       L1    15  1.00

> <Gold.PLP.Chemscore.Internal.Correction>
0.2265

> <Gold.Rescore>
     Score         DG    S(hbond)    S(metal)    S(lipo)     H(rot)  DE(clash)    DE(int)     intcor
     19.30     -21.22       3.62        0.00      74.93       2.00       0.00       1.92       ----

> <Gold.Chemscore.Fitness>
19.3046

> <Gold.Chemscore.DG>
-21.2217

> <Gold.Chemscore.ZeroCoef>
-5.4800

> <Gold.Chemscore.Hbond>
3.6178

> <Gold.Chemscore.Metal>
0.0000

> <Gold.Chemscore.Lipo>
74.9316

> <Gold.Chemscore.Internal_Hbond>
0.0000

> <Gold.Chemscore.DEClash>
0.0000

> <Gold.Chemscore.DEInternal>
1.9171

> <Gold.Chemscore.Rot>
1.9956

> <Gold.Chemscore.Internal.Correction>
   9.000000E+99

> <Gold.Chemscore.Hbonds>
donor molecule, donor type, donor heavy atom, donor atom, acceptor molecule, acceptor atom, score
      P1  H  6896  6909       L1     8  0.60
      P1  H  6931  6943       L1     3  0.02
      P1  H  6934  6947       L1     3  1.00
      P1  H  7997  8010       L1    15  0.92

> <Gold.Chemscore.Hbond.Weighted>
-12.0834

> <Gold.Chemscore.Metal.Weighted>
-0.0000

> <Gold.Chemscore.Lipo.Weighted>
-8.7670

> <Gold.Chemscore.Internal_Hbond.Weighted>
0.0000

> <Gold.Chemscore.DEClash.Weighted>
0.0000

> <Gold.Chemscore.DEInternal.Weighted>
1.9171

> <Gold.Chemscore.Rot.Weighted>
5.1087

> <Gold.Chemscore.Internal.Correction.Weighted>
   9.000000E+99

> <Gold.Protein.RotatedTorsions>
[ 6907 6896 6895 6894 ] final   68.98 input  -60.11 | X-H torsion
[ 7974 7965 7964 7962 ] final   69.05 input  175.53 | X-H torsion
[ 8008 7997 7996 7995 ] final   90.75 input   59.86 | X-H torsion
[ 10167 10162 10161 10158 ] final   99.05 input  -65.29 | X-H torsion
[ 10718 10713 10712 10709 ] final  -42.09 input   66.30 | X-H torsion
[ 10763 10752 10751 10750 ] final -145.79 input  -60.55 | X-H torsion
[ 11005 11000 10999 10996 ] final   59.93 input  -57.11 | X-H torsion

> <Gold.Protein.ActiveResidues>
 VAL166  LYS551  ARG553  GLY616  TRP617  ASP618  TYR619  PRO620  LYS621  CYS622 
 ASP623  PHE694  ASN695  SER759  ASP760  ASP761  ALA762  ILE779  LEU786  VAL792 
 PHE793  MET794  SER795  GLU796  ALA797  LYS798  CYS799  TRP800  GLU811  SER814 

> <Gold.Protein.RotatedAtoms>
  152.4656  134.5082  159.9745 H   0  0  0  0  0  0  0  0  0  0  0  0  # atno 6907 bound_to 6896
  151.5121  133.3477  159.2894 H   0  0  0  0  0  0  0  0  0  0  0  0  # atno 6908 bound_to 6896
  150.8639  134.8027  159.7166 H   0  0  0  0  0  0  0  0  0  0  0  0  # atno 6909 bound_to 6896
  145.7951  139.2954  143.1187 H   0  0  0  0  0  0  0  0  0  0  0  0  # atno 7974 bound_to 7965
  156.0157  140.3346  155.6986 H   0  0  0  0  0  0  0  0  0  0  0  0  # atno 8008 bound_to 7997
  155.6095  140.0664  157.2728 H   0  0  0  0  0  0  0  0  0  0  0  0  # atno 8009 bound_to 7997
  154.4297  140.1796  156.1245 H   0  0  0  0  0  0  0  0  0  0  0  0  # atno 8010 bound_to 7997
  139.7652  144.6941  151.0234 H   0  0  0  0  0  0  0  0  0  0  0  0  # atno 10167 bound_to 10162
  156.2633  130.4199  149.8518 H   0  0  0  0  0  0  0  0  0  0  0  0  # atno 10718 bound_to 10713
  154.8367  135.3403  154.6560 H   0  0  0  0  0  0  0  0  0  0  0  0  # atno 10763 bound_to 10752
  153.7174  135.6960  153.5026 H   0  0  0  0  0  0  0  0  0  0  0  0  # atno 10764 bound_to 10752
  153.2406  135.4386  155.0647 H   0  0  0  0  0  0  0  0  0  0  0  0  # atno 10765 bound_to 10752
  140.0268  134.6071  155.9561 H   0  0  0  0  0  0  0  0  0  0  0  0  # atno 11005 bound_to 11000
  145.9936  140.8581  143.0054 LP  0  0  0  0  0  0  0  0  0  0  0  0  # atno 17320 bound_to 7965
  144.6776  140.2251  143.7362 LP  0  0  0  0  0  0  0  0  0  0  0  0  # atno 17321 bound_to 7965
  140.7810  143.4650  151.0224 LP  0  0  0  0  0  0  0  0  0  0  0  0  # atno 17342 bound_to 10162
  139.8336  143.7658  152.3180 LP  0  0  0  0  0  0  0  0  0  0  0  0  # atno 17343 bound_to 10162
  156.6026  130.8553  151.3435 LP  0  0  0  0  0  0  0  0  0  0  0  0  # atno 17370 bound_to 10713
  157.7258  130.9621  150.1630 LP  0  0  0  0  0  0  0  0  0  0  0  0  # atno 17371 bound_to 10713
  141.1807  133.6546  156.5010 LP  0  0  0  0  0  0  0  0  0  0  0  0  # atno 17394 bound_to 11000
  140.4293  134.7117  157.4933 LP  0  0  0  0  0  0  0  0  0  0  0  0  # atno 17395 bound_to 11000

$$$$
