AV-unprocessed.smi:1508|AV-procd|sdf|6089|dock3
  -GOLD-   22720 6213D 1   1.00000     0.00000
 Structure written by MMmdl.
 37 38  0  0  0  0  0  0  0  0  3 V2000
  151.6318  144.6591  159.3015 C   0  0  0  0  0  0  0  0  0  0  0  0
  151.6148  144.3784  157.7904 C   0  0  0  0  0  0  0  0  0  0  0  0
  151.2119  142.9296  157.4019 C   0  0  1  0  0  0  0  0  0  0  0  0
  151.7040  141.8735  158.4265 C   0  0  0  0  0  0  0  0  0  0  0  0
  152.4422  140.7879  157.7860 N   0  0  0  0  0  0  0  0  0  0  0  0
  152.5118  139.5144  158.1993 C   0  0  0  0  0  0  0  0  0  0  0  0
  151.8874  139.1518  159.1984 O   0  0  0  0  0  0  0  0  0  0  0  0
  153.3095  138.7409  157.4302 N   0  5  0  0  0  0  0  0  0  0  0  0
  152.8209  138.1761  156.3135 C   0  0  0  0  0  0  0  0  0  0  0  0
  152.5972  136.8557  156.2172 N   0  0  0  0  0  0  0  0  0  0  0  0
  152.0925  136.4763  154.9808 N   0  0  0  0  0  0  0  0  0  0  0  0
  151.9549  137.5248  154.1698 C   0  0  0  0  0  0  0  0  0  0  0  0
  152.4334  139.0699  154.8408 S   0  0  0  0  0  0  0  0  0  0  0  0
  149.7417  142.8290  157.1630 N   0  3  0  0  0  0  0  0  0  0  0  0
  149.2941  141.5938  156.4701 C   0  0  0  0  0  0  0  0  0  0  0  0
  147.9334  141.2043  157.0651 C   0  0  0  0  0  0  0  0  0  0  0  0
  147.5359  142.3852  157.9434 C   0  0  0  0  0  0  0  0  0  0  0  0
  148.8785  142.9780  158.3544 C   0  0  0  0  0  0  0  0  0  0  0  0
  151.9283  145.6901  159.4952 H   0  0  0  0  0  0  0  0  0  0  0  0
  152.3369  144.0158  159.8258 H   0  0  0  0  0  0  0  0  0  0  0  0
  150.6490  144.5118  159.7489 H   0  0  0  0  0  0  0  0  0  0  0  0
  150.9455  145.0936  157.3126 H   0  0  0  0  0  0  0  0  0  0  0  0
  152.5976  144.6115  157.3802 H   0  0  0  0  0  0  0  0  0  0  0  0
  151.7022  142.7020  156.4538 H   0  0  0  0  0  0  0  0  0  0  0  0
  152.2874  142.3499  159.2156 H   0  0  0  0  0  0  0  0  0  0  0  0
  150.8584  141.4009  158.9253 H   0  0  0  0  0  0  0  0  0  0  0  0
  152.9697  141.0259  156.9585 H   0  0  0  0  0  0  0  0  0  0  0  0
  151.5735  137.3870  153.1693 H   0  0  0  0  0  0  0  0  0  0  0  0
  149.2211  141.7858  155.3992 H   0  0  0  0  0  0  0  0  0  0  0  0
  150.0006  140.7749  156.6139 H   0  0  0  0  0  0  0  0  0  0  0  0
  147.1878  140.9881  156.2993 H   0  0  0  0  0  0  0  0  0  0  0  0
  148.0448  140.3098  157.6794 H   0  0  0  0  0  0  0  0  0  0  0  0
  146.9747  143.1130  157.3554 H   0  0  0  0  0  0  0  0  0  0  0  0
  146.9210  142.0938  158.7956 H   0  0  0  0  0  0  0  0  0  0  0  0
  149.2951  142.4067  159.1860 H   0  0  0  0  0  0  0  0  0  0  0  0
  148.7847  144.0190  158.6649 H   0  0  0  0  0  0  0  0  0  0  0  0
  149.4948  143.5945  156.5520 H   0  0  0  0  0  0  0  0  0  0  0  0
  1  2  1  0  0  0  0
  1 19  1  0  0  0  0
  1 20  1  0  0  0  0
  1 21  1  0  0  0  0
  2  3  1  0  0  0  0
  2 22  1  0  0  0  0
  2 23  1  0  0  0  0
  3  4  1  0  0  0  0
  3 14  1  0  0  0  0
  3 24  1  0  0  0  0
  4  5  1  0  0  0  0
  4 25  1  0  0  0  0
  4 26  1  0  0  0  0
  5  6  1  0  0  0  0
  5 27  1  0  0  0  0
  6  7  2  0  0  0  0
  6  8  1  0  0  0  0
  8  9  1  0  0  0  0
  9 13  1  0  0  0  0
  9 10  2  0  0  0  0
 10 11  1  0  0  0  0
 11 12  2  0  0  0  0
 12 13  1  0  0  0  0
 12 28  1  0  0  0  0
 14 18  1  0  0  0  0
 14 15  1  0  0  0  0
 14 37  1  0  0  0  0
 15 16  1  0  0  0  0
 15 29  1  0  0  0  0
 15 30  1  0  0  0  0
 16 17  1  0  0  0  0
 16 31  1  0  0  0  0
 16 32  1  0  0  0  0
 17 18  1  0  0  0  0
 17 33  1  0  0  0  0
 17 34  1  0  0  0  0
 18 35  1  0  0  0  0
 18 36  1  0  0  0  0
M  CHG  1   8  -1
M  CHG  1  14   1
M  END
> <s_m_source_file>
AV-unprocessed.smi

> <i_m_source_file_index>
1508

> <i_lp_mmshare_version>
43012

> <i_f3d_flags>
0

> <s_epik_input>
W0NIMl0xW0NIMl1bQ0gyXVtDSDJdTjFbQ0BIXShbQ0gyXVtDSDNdKVtDSDJdW05IXUMoPU8pW05IXWMybm5bY0hdczI=

> <s_epik_cmdline>
J2VwaWtfcHl0aG9uJywgJy1waCcsICc3LjAnLCAnLXRuJywgJzgnLCAnLW1hJywgJzIwMCcsICctbWV0YWxfYmluZGluZycsICctaW1hZScsICc8aW5maWxlLm1hZT4nLCAnLW9tYWUnLCAnPG91dGZpbGUubWFlPic=

> <r_lp_tautomer_probability>
1

> <r_epik_Ionization_Penalty>
3.98086

> <r_epik_Ionization_Penalty_Charging>
3.94833

> <r_epik_Ionization_Penalty_Neutral>
0.032525

> <r_epik_State_Penalty>
3.94643

> <r_epik_Charging_Adjusted_Penalty>
7.89477

> <i_epik_Tot_Q>
0

> <i_epik_Tot_abs_Q>
2

> <r_epik_Metal_State_Penalty>
0.605555

> <b_epik_Metal_Only>
1

> <s_lp_Force_Field>
OPLS_2005

> <r_lp_Energy>
25.5937

> <b_lp_Chiralities_Consistent>
1

> <s_lp_Variant>
AV-unprocessed.smi:1508-4

> <Gold.Version>
5.8.1

> <Gold.Id.Protein>
6NUR|6NUR_protein|mol2

> <Gold.PLP.Fitness>
43.2536

> <Gold.PLP.PLP>
-30.5009

> <Gold.PLP.part.hbond>
-4.0000

> <Gold.PLP.part.metal>
0.0000

> <Gold.PLP.part.buried>
-2.1395

> <Gold.PLP.part.nonpolar>
-25.3090

> <Gold.PLP.part.repulsive>
0.2122

> <Gold.PLP.ligand.clash>
0.0000

> <Gold.PLP.ligand.torsion>
2.7285

> <Gold.PLP.Chemscore.Hbond>
5.0000

> <Gold.PLP.Chemscore.CHOScore>
1.0184

> <Gold.PLP.Chemscore.Metal>
0.0000

> <Gold.Chemscore.Hbonds>
donor molecule, donor type, donor heavy atom, donor atom, acceptor molecule, acceptor atom, score
      L1  H    14    37       P1  8028  2.00
      P1  H  7997  8008       L1     8  1.90
      P1  H 10752 10765       L1    11  0.37
      L1  C    12    28       P1  7949  1.00

> <Gold.PLP.Chemscore.Internal.Correction>
0.1546

> <Gold.Rescore>
     Score         DG    S(hbond)    S(metal)    S(lipo)     H(rot)  DE(clash)    DE(int)     intcor
     10.43     -13.57       1.31        0.00      72.27       1.86       0.08       3.06       ----

> <Gold.Chemscore.Fitness>
10.4254

> <Gold.Chemscore.DG>
-13.5686

> <Gold.Chemscore.ZeroCoef>
-5.4800

> <Gold.Chemscore.Hbond>
1.3139

> <Gold.Chemscore.Metal>
0.0000

> <Gold.Chemscore.Lipo>
72.2691

> <Gold.Chemscore.Internal_Hbond>
0.0000

> <Gold.Chemscore.DEClash>
0.0807

> <Gold.Chemscore.DEInternal>
3.0624

> <Gold.Chemscore.Rot>
1.8575

> <Gold.Chemscore.Internal.Correction>
   9.000000E+99

> <Gold.Chemscore.Hbonds>
donor molecule, donor type, donor heavy atom, donor atom, acceptor molecule, acceptor atom, score
      L1  H    14    37       P1  8028  0.96
      P1  H  7997  8008       L1     8  0.09
      P1  H 10752 10765       L1    11  0.13

> <Gold.Chemscore.Hbond.Weighted>
-4.3883

> <Gold.Chemscore.Metal.Weighted>
-0.0000

> <Gold.Chemscore.Lipo.Weighted>
-8.4555

> <Gold.Chemscore.Internal_Hbond.Weighted>
0.0000

> <Gold.Chemscore.DEClash.Weighted>
0.0807

> <Gold.Chemscore.DEInternal.Weighted>
3.0624

> <Gold.Chemscore.Rot.Weighted>
4.7551

> <Gold.Chemscore.Internal.Correction.Weighted>
   9.000000E+99

> <Gold.Protein.RotatedTorsions>
[ 6907 6896 6895 6894 ] final  110.34 input  -60.11 | X-H torsion
[ 7974 7965 7964 7962 ] final   44.55 input  175.53 | X-H torsion
[ 8008 7997 7996 7995 ] final  -68.35 input   59.86 | X-H torsion
[ 10167 10162 10161 10158 ] final   21.52 input  -65.29 | X-H torsion
[ 10718 10713 10712 10709 ] final   10.72 input   66.30 | X-H torsion
[ 10763 10752 10751 10750 ] final  178.80 input  -60.55 | X-H torsion
[ 11005 11000 10999 10996 ] final  -59.12 input  -57.11 | X-H torsion

> <Gold.Protein.ActiveResidues>
 VAL166  LYS551  ARG553  GLY616  TRP617  ASP618  TYR619  PRO620  LYS621  CYS622 
 ASP623  PHE694  ASN695  SER759  ASP760  ASP761  ALA762  ILE779  LEU786  VAL792 
 PHE793  MET794  SER795  GLU796  ALA797  LYS798  CYS799  TRP800  GLU811  SER814 

> <Gold.Protein.RotatedAtoms>
  152.5024  133.8814  159.7347 H   0  0  0  0  0  0  0  0  0  0  0  0  # atno 6907 bound_to 6896
  150.9276  133.6797  159.2825 H   0  0  0  0  0  0  0  0  0  0  0  0  # atno 6908 bound_to 6896
  151.4152  135.0995  159.9650 H   0  0  0  0  0  0  0  0  0  0  0  0  # atno 6909 bound_to 6896
  146.0558  139.5062  142.9689 H   0  0  0  0  0  0  0  0  0  0  0  0  # atno 7974 bound_to 7965
  154.4862  140.0874  156.7491 H   0  0  0  0  0  0  0  0  0  0  0  0  # atno 8008 bound_to 7997
  155.4345  140.3451  155.4265 H   0  0  0  0  0  0  0  0  0  0  0  0  # atno 8009 bound_to 7997
  156.1264  140.1489  156.9118 H   0  0  0  0  0  0  0  0  0  0  0  0  # atno 8010 bound_to 7997
  140.5420  143.9660  150.6525 H   0  0  0  0  0  0  0  0  0  0  0  0  # atno 10167 bound_to 10162
  156.9851  130.6020  149.5680 H   0  0  0  0  0  0  0  0  0  0  0  0  # atno 10718 bound_to 10713
  154.5124  135.2789  155.1331 H   0  0  0  0  0  0  0  0  0  0  0  0  # atno 10763 bound_to 10752
  154.2921  135.6265  153.5393 H   0  0  0  0  0  0  0  0  0  0  0  0  # atno 10764 bound_to 10752
  152.9921  135.5676  154.5593 H   0  0  0  0  0  0  0  0  0  0  0  0  # atno 10765 bound_to 10752
  141.1235  133.6615  156.5023 H   0  0  0  0  0  0  0  0  0  0  0  0  # atno 11005 bound_to 11000
  145.6646  141.0232  143.1691 LP  0  0  0  0  0  0  0  0  0  0  0  0  # atno 17320 bound_to 7965
  144.7147  139.8240  143.7402 LP  0  0  0  0  0  0  0  0  0  0  0  0  # atno 17321 bound_to 7965
  140.3063  143.3227  152.0922 LP  0  0  0  0  0  0  0  0  0  0  0  0  # atno 17342 bound_to 10162
  139.4992  144.6665  151.6345 LP  0  0  0  0  0  0  0  0  0  0  0  0  # atno 17343 bound_to 10162
  156.0229  130.5323  150.8326 LP  0  0  0  0  0  0  0  0  0  0  0  0  # atno 17370 bound_to 10713
  157.5499  131.0943  150.9710 LP  0  0  0  0  0  0  0  0  0  0  0  0  # atno 17371 bound_to 10713
  140.4436  134.6993  157.5004 LP  0  0  0  0  0  0  0  0  0  0  0  0  # atno 17394 bound_to 11000
  140.0212  134.6544  155.9236 LP  0  0  0  0  0  0  0  0  0  0  0  0  # atno 17395 bound_to 11000

$$$$
