AV-unprocessed.smi:513|AV-procd|sdf|2773|dock6
  -GOLD-   2262023243D 1   1.00000     0.00000
 Structure written by MMmdl.
 42 44  0  0  0  0  0  0  0  0  1 V2000
  149.4879  128.9638  148.5020 C   0  0  0  0  0  0  0  0  0  0  0  0
  149.2892  129.8194  149.6123 O   0  0  0  0  0  0  0  0  0  0  0  0
  148.2803  130.7895  149.3819 C   0  0  0  0  0  0  0  0  0  0  0  0
  148.2911  131.8195  150.5195 C   0  0  0  0  0  0  0  0  0  0  0  0
  148.3583  133.1883  150.0109 N   0  0  0  0  0  0  0  0  0  0  0  0
  147.3442  134.0369  149.6803 C   0  0  0  0  0  0  0  0  0  0  0  0
  145.9999  133.6992  149.8421 N   0  0  0  0  0  0  0  0  0  0  0  0
  145.4618  132.3522  149.6745 C   0  0  0  0  0  0  0  0  0  0  0  0
  144.5335  131.9796  150.8484 C   0  0  0  0  0  0  0  0  0  0  0  0
  143.4138  132.9134  150.9110 N   0  0  0  0  0  0  0  0  0  0  0  0
  143.9409  134.2615  151.0936 C   0  0  0  0  0  0  0  0  0  0  0  0
  144.8629  134.6147  149.9096 C   0  0  0  0  0  0  0  0  0  0  0  0
  147.7421  135.1971  149.1491 N   0  0  0  0  0  0  0  0  0  0  0  0
  149.1236  135.0941  149.1704 C   0  0  0  0  0  0  0  0  0  0  0  0
  149.5131  133.8986  149.6783 C   0  0  0  0  0  0  0  0  0  0  0  0
  150.9264  133.5122  149.7810 C   0  0  0  0  0  0  0  0  0  0  0  0
  151.3037  132.4291  150.2230 O   0  0  0  0  0  0  0  0  0  0  0  0
  151.7730  134.4706  149.3319 N   0  0  0  0  0  0  0  0  0  0  0  0
  151.4464  135.6941  148.8136 C   0  0  0  0  0  0  0  0  0  0  0  0
  152.3385  136.4563  148.4429 O   0  0  0  0  0  0  0  0  0  0  0  0
  150.1140  136.0150  148.7297 N   0  0  0  0  0  0  0  0  0  0  0  0
  149.6577  137.2954  148.1856 C   0  0  0  0  0  0  0  0  0  0  0  0
  152.7583  134.2556  149.3815 H   0  0  0  0  0  0  0  0  0  0  0  0
  150.2693  128.2402  148.7341 H   0  0  0  0  0  0  0  0  0  0  0  0
  149.8001  129.5269  147.6215 H   0  0  0  0  0  0  0  0  0  0  0  0
  148.5782  128.4116  148.2621 H   0  0  0  0  0  0  0  0  0  0  0  0
  148.4542  131.2900  148.4284 H   0  0  0  0  0  0  0  0  0  0  0  0
  147.3039  130.3060  149.3231 H   0  0  0  0  0  0  0  0  0  0  0  0
  147.4086  131.6832  151.1356 H   0  0  0  0  0  0  0  0  0  0  0  0
  149.1337  131.6438  151.1869 H   0  0  0  0  0  0  0  0  0  0  0  0
  144.9290  132.2841  148.7247 H   0  0  0  0  0  0  0  0  0  0  0  0
  146.2841  131.6378  149.6229 H   0  0  0  0  0  0  0  0  0  0  0  0
  144.1451  130.9699  150.7144 H   0  0  0  0  0  0  0  0  0  0  0  0
  145.0803  131.9903  151.7924 H   0  0  0  0  0  0  0  0  0  0  0  0
  142.8144  132.6744  151.6880 H   0  0  0  0  0  0  0  0  0  0  0  0
  143.1072  134.9622  151.1440 H   0  0  0  0  0  0  0  0  0  0  0  0
  144.4768  134.3278  152.0414 H   0  0  0  0  0  0  0  0  0  0  0  0
  145.2073  135.6454  149.9806 H   0  0  0  0  0  0  0  0  0  0  0  0
  144.3050  134.5581  148.9737 H   0  0  0  0  0  0  0  0  0  0  0  0
  150.4649  137.9784  147.9191 H   0  0  0  0  0  0  0  0  0  0  0  0
  149.0282  137.8065  148.9148 H   0  0  0  0  0  0  0  0  0  0  0  0
  149.0610  137.1261  147.2888 H   0  0  0  0  0  0  0  0  0  0  0  0
  1  2  1  0  0  0  0
  1 24  1  0  0  0  0
  1 25  1  0  0  0  0
  1 26  1  0  0  0  0
  2  3  1  0  0  0  0
  3  4  1  0  0  0  0
  3 27  1  0  0  0  0
  3 28  1  0  0  0  0
  4  5  1  0  0  0  0
  4 29  1  0  0  0  0
  4 30  1  0  0  0  0
  5 15  1  0  0  0  0
  5  6  1  0  0  0  0
  6  7  1  0  0  0  0
  6 13  2  0  0  0  0
  7 12  1  0  0  0  0
  7  8  1  0  0  0  0
  8  9  1  0  0  0  0
  8 31  1  0  0  0  0
  8 32  1  0  0  0  0
  9 10  1  0  0  0  0
  9 33  1  0  0  0  0
  9 34  1  0  0  0  0
 10 11  1  0  0  0  0
 10 35  1  0  0  0  0
 11 12  1  0  0  0  0
 11 36  1  0  0  0  0
 11 37  1  0  0  0  0
 12 38  1  0  0  0  0
 12 39  1  0  0  0  0
 13 14  1  0  0  0  0
 14 21  1  0  0  0  0
 14 15  2  0  0  0  0
 15 16  1  0  0  0  0
 16 17  2  0  0  0  0
 16 18  1  0  0  0  0
 18 23  1  0  0  0  0
 18 19  1  0  0  0  0
 19 20  2  0  0  0  0
 19 21  1  0  0  0  0
 21 22  1  0  0  0  0
 22 40  1  0  0  0  0
 22 41  1  0  0  0  0
 22 42  1  0  0  0  0
M  END
> <s_m_source_file>
AV-unprocessed.smi

> <i_m_source_file_index>
513

> <i_lp_mmshare_version>
43012

> <i_f3d_flags>
0

> <s_epik_input>
W0NIM11uMWMoPU8pW25IXWMoPU8pYyhjMTIpbihbQ0gyXVtDSDJdT1tDSDNdKWMobjIpTjNbQ0gyXVtDSDJdW05IXVtDSDJdW0NIMl0z

> <s_epik_cmdline>
J2VwaWtfcHl0aG9uJywgJy1waCcsICc3LjAnLCAnLXRuJywgJzgnLCAnLW1hJywgJzIwMCcsICctbWV0YWxfYmluZGluZycsICctaW1hZScsICc8aW5maWxlLm1hZT4nLCAnLW9tYWUnLCAnPG91dGZpbGUubWFlPic=

> <r_epik_Ionization_Penalty>
2.51416

> <r_epik_Ionization_Penalty_Charging>
1.6225e-05

> <r_epik_Ionization_Penalty_Neutral>
2.51414

> <r_epik_State_Penalty>
2.67993

> <r_epik_Charging_Adjusted_Penalty>
2.67995

> <i_epik_Tot_Q>
0

> <i_epik_Tot_abs_Q>
0

> <r_epik_Metal_State_Penalty>
2.70812

> <b_epik_Metal_Only>
0

> <s_lp_Force_Field>
OPLS_2005

> <r_lp_Energy>
48.0947

> <b_lp_Chiralities_Consistent>
1

> <s_lp_Variant>
AV-unprocessed.smi:513-2

> <Gold.Version>
5.8.1

> <Gold.Id.Protein>
6NUR|6NUR_protein|mol2

> <Gold.PLP.Fitness>
41.1493

> <Gold.PLP.PLP>
-40.0299

> <Gold.PLP.part.hbond>
-1.0000

> <Gold.PLP.part.metal>
0.0000

> <Gold.PLP.part.buried>
-4.5167

> <Gold.PLP.part.nonpolar>
-35.8095

> <Gold.PLP.part.repulsive>
0.7593

> <Gold.PLP.ligand.clash>
0.0000

> <Gold.PLP.ligand.torsion>
1.0946

> <Gold.PLP.Chemscore.Hbond>
1.0000

> <Gold.PLP.Chemscore.CHOScore>
0.0000

> <Gold.PLP.Chemscore.Metal>
0.0000

> <Gold.PLP.Chemscore.Internal.Correction>
0.3086

> <Gold.Rescore>
     Score         DG    S(hbond)    S(metal)    S(lipo)     H(rot)  DE(clash)    DE(int)     intcor
     10.19     -12.98       1.00        0.00      69.63       1.55       0.06       2.73       ----

> <Gold.Chemscore.Fitness>
10.1943

> <Gold.Chemscore.DG>
-12.9848

> <Gold.Chemscore.ZeroCoef>
-5.4800

> <Gold.Chemscore.Hbond>
0.9978

> <Gold.Chemscore.Metal>
0.0000

> <Gold.Chemscore.Lipo>
69.6292

> <Gold.Chemscore.Internal_Hbond>
0.0000

> <Gold.Chemscore.DEClash>
0.0625

> <Gold.Chemscore.DEInternal>
2.7280

> <Gold.Chemscore.Rot>
1.5526

> <Gold.Chemscore.Internal.Correction>
   9.000000E+99

> <Gold.Chemscore.Hbond.Weighted>
-3.3327

> <Gold.Chemscore.Metal.Weighted>
-0.0000

> <Gold.Chemscore.Lipo.Weighted>
-8.1466

> <Gold.Chemscore.Internal_Hbond.Weighted>
0.0000

> <Gold.Chemscore.DEClash.Weighted>
0.0625

> <Gold.Chemscore.DEInternal.Weighted>
2.7280

> <Gold.Chemscore.Rot.Weighted>
3.9745

> <Gold.Chemscore.Internal.Correction.Weighted>
   9.000000E+99

> <Gold.Protein.RotatedTorsions>
[ 6907 6896 6895 6894 ] final  158.28 input  -60.11 | X-H torsion
[ 7974 7965 7964 7962 ] final   68.91 input  175.53 | X-H torsion
[ 8008 7997 7996 7995 ] final  -80.16 input   59.86 | X-H torsion
[ 10167 10162 10161 10158 ] final  -33.71 input  -65.29 | X-H torsion
[ 10718 10713 10712 10709 ] final  -89.56 input   66.30 | X-H torsion
[ 10763 10752 10751 10750 ] final  176.28 input  -60.55 | X-H torsion
[ 11005 11000 10999 10996 ] final  145.96 input  -57.11 | X-H torsion

> <Gold.Protein.ActiveResidues>
 VAL166  LYS551  ARG553  GLY616  TRP617  ASP618  TYR619  PRO620  LYS621  CYS622 
 ASP623  PHE694  ASN695  SER759  ASP760  ASP761  ALA762  ILE779  LEU786  VAL792 
 PHE793  MET794  SER795  GLU796  ALA797  LYS798  CYS799  TRP800  GLU811  SER814 

> <Gold.Protein.RotatedAtoms>
  152.0027  133.3831  159.4188 H   0  0  0  0  0  0  0  0  0  0  0  0  # atno 6907 bound_to 6896
  150.6908  134.3816  159.5046 H   0  0  0  0  0  0  0  0  0  0  0  0  # atno 6908 bound_to 6896
  152.1565  134.8946  160.0595 H   0  0  0  0  0  0  0  0  0  0  0  0  # atno 6909 bound_to 6896
  145.7968  139.2962  143.1178 H   0  0  0  0  0  0  0  0  0  0  0  0  # atno 7974 bound_to 7965
  154.5856  140.0667  156.9166 H   0  0  0  0  0  0  0  0  0  0  0  0  # atno 8008 bound_to 7997
  155.2386  140.3343  155.4276 H   0  0  0  0  0  0  0  0  0  0  0  0  # atno 8009 bound_to 7997
  156.2220  140.1803  156.7439 H   0  0  0  0  0  0  0  0  0  0  0  0  # atno 8010 bound_to 7997
  140.7199  143.3601  151.1981 H   0  0  0  0  0  0  0  0  0  0  0  0  # atno 10167 bound_to 10162
  155.9985  130.4877  150.5190 H   0  0  0  0  0  0  0  0  0  0  0  0  # atno 10718 bound_to 10713
  154.4789  135.2774  155.1585 H   0  0  0  0  0  0  0  0  0  0  0  0  # atno 10763 bound_to 10752
  154.3304  135.6191  153.5552 H   0  0  0  0  0  0  0  0  0  0  0  0  # atno 10764 bound_to 10752
  152.9873  135.5764  154.5186 H   0  0  0  0  0  0  0  0  0  0  0  0  # atno 10765 bound_to 10752
  140.0754  134.9128  157.1414 H   0  0  0  0  0  0  0  0  0  0  0  0  # atno 11005 bound_to 11000
  145.9920  140.8595  143.0062 LP  0  0  0  0  0  0  0  0  0  0  0  0  # atno 17320 bound_to 7965
  144.6774  140.2229  143.7364 LP  0  0  0  0  0  0  0  0  0  0  0  0  # atno 17321 bound_to 7965
  139.7151  143.9314  152.2963 LP  0  0  0  0  0  0  0  0  0  0  0  0  # atno 17342 bound_to 10162
  139.9052  144.6889  150.8622 LP  0  0  0  0  0  0  0  0  0  0  0  0  # atno 17343 bound_to 10162
  157.3154  131.0672  151.1971 LP  0  0  0  0  0  0  0  0  0  0  0  0  # atno 17370 bound_to 10713
  157.2902  130.6792  149.6110 LP  0  0  0  0  0  0  0  0  0  0  0  0  # atno 17371 bound_to 10713
  140.3565  134.2541  155.7192 LP  0  0  0  0  0  0  0  0  0  0  0  0  # atno 17394 bound_to 11000
  141.2027  133.7930  157.0375 LP  0  0  0  0  0  0  0  0  0  0  0  0  # atno 17395 bound_to 11000

$$$$
