AV-unprocessed.smi:1824|AV-procd|sdf|7404|dock8
  -GOLD-   22720 9 73D 1   1.00000     0.00000
 Structure written by MMmdl.
 45 47  0  0  0  0  0  0  0  0  2 V2000
  149.8984  136.6153  155.3059 C   0  0  0  0  0  0  0  0  0  0  0  0
  150.9257  137.4269  154.4965 C   0  0  1  0  0  0  0  0  0  0  0  0
  150.5450  138.9114  154.3282 C   0  0  0  0  0  0  0  0  0  0  0  0
  150.7341  139.6583  155.5940 N   0  3  2  0  0  0  0  0  0  0  0  0
  150.3058  141.0768  155.4900 C   0  0  0  0  0  0  0  0  0  0  0  0
  150.2500  141.7783  156.8614 C   0  0  2  0  0  0  0  0  0  0  0  0
  149.0508  142.5262  156.9408 O   0  0  0  0  0  0  0  0  0  0  0  0
  151.4547  142.7156  157.0735 C   0  0  0  0  0  0  0  0  0  0  0  0
  151.4150  143.3940  158.3573 N   0  0  0  0  0  0  0  0  0  0  0  0
  150.6698  144.4677  158.6832 C   0  0  0  0  0  0  0  0  0  0  0  0
  150.7834  144.9349  159.9230 N   0  0  0  0  0  0  0  0  0  0  0  0
  151.7096  144.0622  160.4676 C   0  0  0  0  0  0  0  0  0  0  0  0
  152.2673  144.0086  161.7651 C   0  0  0  0  0  0  0  0  0  0  0  0
  153.2092  143.0130  162.0979 C   0  0  0  0  0  0  0  0  0  0  0  0
  153.7327  142.9750  163.3463 F   0  0  0  0  0  0  0  0  0  0  0  0
  153.6084  142.0583  161.1390 C   0  0  0  0  0  0  0  0  0  0  0  0
  154.5146  141.1067  161.4659 F   0  0  0  0  0  0  0  0  0  0  0  0
  153.0668  142.0919  159.8397 C   0  0  0  0  0  0  0  0  0  0  0  0
  152.1256  143.0856  159.5128 C   0  0  0  0  0  0  0  0  0  0  0  0
  152.1226  139.4910  156.0862 C   0  0  0  0  0  0  0  0  0  0  0  0
  152.4500  137.9977  156.2658 C   0  0  2  0  0  0  0  0  0  0  0  0
  153.9055  137.7744  156.6902 C   0  0  0  0  0  0  0  0  0  0  0  0
  152.2443  137.3151  155.0317 O   0  0  0  0  0  0  0  0  0  0  0  0
  148.9309  136.6056  154.8035 H   0  0  0  0  0  0  0  0  0  0  0  0
  149.7393  137.0233  156.3037 H   0  0  0  0  0  0  0  0  0  0  0  0
  150.2216  135.5797  155.4155 H   0  0  0  0  0  0  0  0  0  0  0  0
  150.9654  136.9801  153.5026 H   0  0  0  0  0  0  0  0  0  0  0  0
  151.1653  139.3648  153.5533 H   0  0  0  0  0  0  0  0  0  0  0  0
  149.5103  138.9925  153.9924 H   0  0  0  0  0  0  0  0  0  0  0  0
  150.9797  141.6060  154.8145 H   0  0  0  0  0  0  0  0  0  0  0  0
  149.3163  141.1315  155.0331 H   0  0  0  0  0  0  0  0  0  0  0  0
  150.2419  141.0412  157.6640 H   0  0  0  0  0  0  0  0  0  0  0  0
  149.2108  143.3942  156.6021 H   0  0  0  0  0  0  0  0  0  0  0  0
  152.3856  142.1497  157.0173 H   0  0  0  0  0  0  0  0  0  0  0  0
  151.5008  143.4656  156.2828 H   0  0  0  0  0  0  0  0  0  0  0  0
  150.0069  144.9337  157.9686 H   0  0  0  0  0  0  0  0  0  0  0  0
  151.9704  144.7347  162.5071 H   0  0  0  0  0  0  0  0  0  0  0  0
  153.3720  141.3617  159.1055 H   0  0  0  0  0  0  0  0  0  0  0  0
  152.8176  139.9476  155.3795 H   0  0  0  0  0  0  0  0  0  0  0  0
  152.2540  140.0052  157.0377 H   0  0  0  0  0  0  0  0  0  0  0  0
  151.8064  137.5720  157.0356 H   0  0  0  0  0  0  0  0  0  0  0  0
  154.1205  138.2742  157.6351 H   0  0  0  0  0  0  0  0  0  0  0  0
  154.5995  138.1583  155.9418 H   0  0  0  0  0  0  0  0  0  0  0  0
  154.1131  136.7122  156.8227 H   0  0  0  0  0  0  0  0  0  0  0  0
  150.1224  139.2255  156.2720 H   0  0  0  0  0  0  0  0  0  0  0  0
  1  2  1  0  0  0  0
  1 24  1  0  0  0  0
  1 25  1  0  0  0  0
  1 26  1  0  0  0  0
  2 23  1  0  0  0  0
  2  3  1  0  0  0  0
  2 27  1  0  0  0  0
  3  4  1  0  0  0  0
  3 28  1  0  0  0  0
  3 29  1  0  0  0  0
  4  5  1  0  0  0  0
  4 20  1  0  0  0  0
  4 45  1  0  0  0  0
  5  6  1  0  0  0  0
  5 30  1  0  0  0  0
  5 31  1  0  0  0  0
  6  7  1  0  0  0  0
  6  8  1  0  0  0  0
  6 32  1  0  0  0  0
  7 33  1  0  0  0  0
  8  9  1  0  0  0  0
  8 34  1  0  0  0  0
  8 35  1  0  0  0  0
  9 19  1  0  0  0  0
  9 10  1  0  0  0  0
 10 11  2  0  0  0  0
 10 36  1  0  0  0  0
 11 12  1  0  0  0  0
 12 19  2  0  0  0  0
 12 13  1  0  0  0  0
 13 14  2  0  0  0  0
 13 37  1  0  0  0  0
 14 15  1  0  0  0  0
 14 16  1  0  0  0  0
 16 17  1  0  0  0  0
 16 18  2  0  0  0  0
 18 19  1  0  0  0  0
 18 38  1  0  0  0  0
 20 21  1  0  0  0  0
 20 39  1  0  0  0  0
 20 40  1  0  0  0  0
 21 22  1  0  0  0  0
 21 23  1  0  0  0  0
 21 41  1  0  0  0  0
 22 42  1  0  0  0  0
 22 43  1  0  0  0  0
 22 44  1  0  0  0  0
M  CHG  1   4   1
M  END
> <s_m_source_file>
AV-unprocessed.smi

> <i_m_source_file_index>
1824

> <i_lp_mmshare_version>
43012

> <i_f3d_flags>
0

> <s_epik_input>
W0NIM11bQ0BASF0xW0NIMl1OKFtDSDJdW0NASF0oTzEpW0NIM10pW0NIMl1bQ0BIXShbT0hdKVtDSDJdbihbY0hdbjIpYyhjMjMpW2NIXWMoRiljKEYpW2NIXTM=

> <s_epik_cmdline>
J2VwaWtfcHl0aG9uJywgJy1waCcsICc3LjAnLCAnLXRuJywgJzgnLCAnLW1hJywgJzIwMCcsICctbWV0YWxfYmluZGluZycsICctaW1hZScsICc8aW5maWxlLm1hZT4nLCAnLW9tYWUnLCAnPG91dGZpbGUubWFlPic=

> <r_epik_Ionization_Penalty>
0.61967

> <r_epik_Ionization_Penalty_Charging>
0.608065

> <r_epik_Ionization_Penalty_Neutral>
0.0116057

> <r_epik_State_Penalty>
0.664205

> <r_epik_Charging_Adjusted_Penalty>
1.27227

> <i_epik_Tot_Q>
1

> <i_epik_Tot_abs_Q>
1

> <r_epik_Metal_State_Penalty>
0.654947

> <b_epik_Metal_Only>
0

> <s_lp_Force_Field>
OPLS_2005

> <r_lp_Energy>
23.1423

> <b_lp_Chiralities_Consistent>
1

> <s_lp_Variant>
AV-unprocessed.smi:1824-12

> <Gold.Version>
5.8.1

> <Gold.Id.Protein>
6NUR|6NUR_protein|mol2

> <Gold.PLP.Fitness>
60.9127

> <Gold.PLP.PLP>
-53.9679

> <Gold.PLP.part.hbond>
-1.7222

> <Gold.PLP.part.metal>
0.0000

> <Gold.PLP.part.buried>
-6.4156

> <Gold.PLP.part.nonpolar>
-46.3631

> <Gold.PLP.part.repulsive>
0.3148

> <Gold.PLP.ligand.clash>
0.0000

> <Gold.PLP.ligand.torsion>
0.9223

> <Gold.PLP.Chemscore.Hbond>
1.8640

> <Gold.PLP.Chemscore.CHOScore>
1.0322

> <Gold.PLP.Chemscore.Metal>
0.0000

> <Gold.Chemscore.Hbonds>
donor molecule, donor type, donor heavy atom, donor atom, acceptor molecule, acceptor atom, score
      L1  H     7    33       P1  8028  1.00
      P1  H 10752 10764       L1    23  0.75
      L1  C    10    36       P1  8028  0.40
      L1  C    10    36       P1  8029  0.64

> <Gold.PLP.Chemscore.Internal.Correction>
0.1009

> <Gold.Rescore>
     Score         DG    S(hbond)    S(metal)    S(lipo)     H(rot)  DE(clash)    DE(int)     intcor
     18.97     -20.28       1.86        0.00     124.42       2.33       0.19       1.12       ----

> <Gold.Chemscore.Fitness>
18.9728

> <Gold.Chemscore.DG>
-20.2806

> <Gold.Chemscore.ZeroCoef>
-5.4800

> <Gold.Chemscore.Hbond>
1.8551

> <Gold.Chemscore.Metal>
0.0000

> <Gold.Chemscore.Lipo>
124.4184

> <Gold.Chemscore.Internal_Hbond>
0.0000

> <Gold.Chemscore.DEClash>
0.1863

> <Gold.Chemscore.DEInternal>
1.1215

> <Gold.Chemscore.Rot>
2.3251

> <Gold.Chemscore.Internal.Correction>
   9.000000E+99

> <Gold.Chemscore.Hbonds>
donor molecule, donor type, donor heavy atom, donor atom, acceptor molecule, acceptor atom, score
      L1  H     7    33       P1  8028  0.96
      P1  H 10752 10764       L1    23  0.48

> <Gold.Chemscore.Hbond.Weighted>
-6.1960

> <Gold.Chemscore.Metal.Weighted>
-0.0000

> <Gold.Chemscore.Lipo.Weighted>
-14.5570

> <Gold.Chemscore.Internal_Hbond.Weighted>
0.0000

> <Gold.Chemscore.DEClash.Weighted>
0.1863

> <Gold.Chemscore.DEInternal.Weighted>
1.1215

> <Gold.Chemscore.Rot.Weighted>
5.9523

> <Gold.Chemscore.Internal.Correction.Weighted>
   9.000000E+99

> <Gold.Protein.RotatedTorsions>
[ 6907 6896 6895 6894 ] final  136.16 input  -60.11 | X-H torsion
[ 7974 7965 7964 7962 ] final  -69.25 input  175.53 | X-H torsion
[ 8008 7997 7996 7995 ] final    7.10 input   59.86 | X-H torsion
[ 10167 10162 10161 10158 ] final  -21.54 input  -65.29 | X-H torsion
[ 10718 10713 10712 10709 ] final  134.89 input   66.30 | X-H torsion
[ 10763 10752 10751 10750 ] final  -66.62 input  -60.55 | X-H torsion
[ 11005 11000 10999 10996 ] final -152.19 input  -57.11 | X-H torsion

> <Gold.Protein.ActiveResidues>
 VAL166  LYS551  ARG553  GLY616  TRP617  ASP618  TYR619  PRO620  LYS621  CYS622 
 ASP623  PHE694  ASN695  SER759  ASP760  ASP761  ALA762  ILE779  LEU786  VAL792 
 PHE793  MET794  SER795  GLU796  ALA797  LYS798  CYS799  TRP800  GLU811  SER814 

> <Gold.Protein.RotatedAtoms>
  152.2924  133.5575  159.5565 H   0  0  0  0  0  0  0  0  0  0  0  0  # atno 6907 bound_to 6896
  150.7241  134.0409  159.3774 H   0  0  0  0  0  0  0  0  0  0  0  0  # atno 6908 bound_to 6896
  151.8314  135.0620  160.0488 H   0  0  0  0  0  0  0  0  0  0  0  0  # atno 6909 bound_to 6896
  145.7062  140.9097  143.0705 H   0  0  0  0  0  0  0  0  0  0  0  0  # atno 7974 bound_to 7965
  154.7494  140.2764  155.6305 H   0  0  0  0  0  0  0  0  0  0  0  0  # atno 8008 bound_to 7997
  156.2892  140.2681  156.2170 H   0  0  0  0  0  0  0  0  0  0  0  0  # atno 8009 bound_to 7997
  155.0156  140.0372  157.2406 H   0  0  0  0  0  0  0  0  0  0  0  0  # atno 8010 bound_to 7997
  140.7282  143.4618  151.0369 H   0  0  0  0  0  0  0  0  0  0  0  0  # atno 10167 bound_to 10162
  157.4626  131.1074  150.9901 H   0  0  0  0  0  0  0  0  0  0  0  0  # atno 10718 bound_to 10713
  154.3624  135.6113  153.5697 H   0  0  0  0  0  0  0  0  0  0  0  0  # atno 10763 bound_to 10752
  152.9793  135.5818  154.4617 H   0  0  0  0  0  0  0  0  0  0  0  0  # atno 10764 bound_to 10752
  154.4357  135.2849  155.1859 H   0  0  0  0  0  0  0  0  0  0  0  0  # atno 10765 bound_to 10752
  140.7216  134.3721  157.5182 H   0  0  0  0  0  0  0  0  0  0  0  0  # atno 11005 bound_to 11000
  144.6954  139.9013  143.7458 LP  0  0  0  0  0  0  0  0  0  0  0  0  # atno 17320 bound_to 7965
  146.0754  139.3742  143.0497 LP  0  0  0  0  0  0  0  0  0  0  0  0  # atno 17321 bound_to 7965
  139.8303  143.7700  152.3179 LP  0  0  0  0  0  0  0  0  0  0  0  0  # atno 17342 bound_to 10162
  139.7813  144.7443  151.0084 LP  0  0  0  0  0  0  0  0  0  0  0  0  # atno 17343 bound_to 10162
  157.0693  130.5857  149.5399 LP  0  0  0  0  0  0  0  0  0  0  0  0  # atno 17370 bound_to 10713
  156.0036  130.5119  150.7750 LP  0  0  0  0  0  0  0  0  0  0  0  0  # atno 17371 bound_to 10713
  139.8847  134.8958  156.2688 LP  0  0  0  0  0  0  0  0  0  0  0  0  # atno 17394 bound_to 11000
  140.9999  133.7158  156.0944 LP  0  0  0  0  0  0  0  0  0  0  0  0  # atno 17395 bound_to 11000

$$$$
