AV-unprocessed.smi:2913|AV-procd|sdf|11184|dock6
  -GOLD-   2272016 73D 1   1.00000     0.00000
 Structure written by MMmdl.
 41 42  0  0  0  0  0  0  0  0  1 V2000
  145.6553  135.7209  151.0958 C   0  0  0  0  0  0  0  0  0  0  0  0
  145.5641  134.2062  151.1813 C   0  0  0  0  0  0  0  0  0  0  0  0
  144.5873  133.5532  150.5129 C   0  0  0  0  0  0  0  0  0  0  0  0
  144.4381  132.0974  150.5503 C   0  0  0  0  0  0  0  0  0  0  0  0
  143.5475  131.5114  149.9343 O   0  0  0  0  0  0  0  0  0  0  0  0
  145.3486  131.4337  151.3144 N   0  0  0  0  0  0  0  0  0  0  0  0
  145.2785  129.9743  151.4276 C   0  0  0  0  0  0  0  0  0  0  0  0
  146.3690  132.0999  152.0139 C   0  0  0  0  0  0  0  0  0  0  0  0
  146.5194  133.4425  151.9743 C   0  0  0  0  0  0  0  0  0  0  0  0
  147.5180  134.1494  152.6655 N   0  0  0  0  0  0  0  0  0  0  0  0
  148.1939  133.8109  153.7795 C   0  0  0  0  0  0  0  0  0  0  0  0
  148.0788  132.7543  154.4000 O   0  0  0  0  0  0  0  0  0  0  0  0
  149.0472  134.7845  154.1283 N   0  0  0  0  0  0  0  0  0  0  0  0
  149.9851  134.7446  155.2482 C   0  0  2  0  0  0  0  0  0  0  0  0
  149.1880  134.7389  156.5621 C   0  0  0  0  0  0  0  0  0  0  0  0
  150.9474  135.9443  155.1452 C   0  0  1  0  0  0  0  0  0  0  0  0
  150.2885  137.3114  155.3352 C   0  0  0  0  0  0  0  0  0  0  0  0
  151.4610  138.1571  155.7751 C   0  0  0  0  0  0  0  0  0  0  0  0
  152.2256  137.1861  156.6692 C   0  0  0  0  0  0  0  0  0  0  0  0
  151.9355  135.8818  156.1729 O   0  0  0  0  0  0  0  0  0  0  0  0
  144.8794  136.1372  150.4523 H   0  0  0  0  0  0  0  0  0  0  0  0
  146.6224  136.0205  150.6910 H   0  0  0  0  0  0  0  0  0  0  0  0
  145.5435  136.1639  152.0858 H   0  0  0  0  0  0  0  0  0  0  0  0
  143.8804  134.1190  149.9234 H   0  0  0  0  0  0  0  0  0  0  0  0
  146.0622  129.5594  152.0621 H   0  0  0  0  0  0  0  0  0  0  0  0
  145.3768  129.5092  150.4458 H   0  0  0  0  0  0  0  0  0  0  0  0
  144.3216  129.6697  151.8537 H   0  0  0  0  0  0  0  0  0  0  0  0
  146.9987  131.4362  152.5840 H   0  0  0  0  0  0  0  0  0  0  0  0
  147.7703  135.0326  152.2468 H   0  0  0  0  0  0  0  0  0  0  0  0
  149.0722  135.6139  153.5540 H   0  0  0  0  0  0  0  0  0  0  0  0
  150.5773  133.8287  155.2135 H   0  0  0  0  0  0  0  0  0  0  0  0
  149.8468  134.6571  157.4264 H   0  0  0  0  0  0  0  0  0  0  0  0
  148.5000  133.8936  156.5985 H   0  0  0  0  0  0  0  0  0  0  0  0
  148.6016  135.6513  156.6752 H   0  0  0  0  0  0  0  0  0  0  0  0
  151.4683  135.9299  154.1860 H   0  0  0  0  0  0  0  0  0  0  0  0
  149.8116  137.6856  154.4290 H   0  0  0  0  0  0  0  0  0  0  0  0
  149.5394  137.2727  156.1276 H   0  0  0  0  0  0  0  0  0  0  0  0
  152.0685  138.4328  154.9118 H   0  0  0  0  0  0  0  0  0  0  0  0
  151.1642  139.0703  156.2914 H   0  0  0  0  0  0  0  0  0  0  0  0
  153.2980  137.3819  156.6709 H   0  0  0  0  0  0  0  0  0  0  0  0
  151.8680  137.2515  157.6975 H   0  0  0  0  0  0  0  0  0  0  0  0
  1  2  1  0  0  0  0
  1 21  1  0  0  0  0
  1 22  1  0  0  0  0
  1 23  1  0  0  0  0
  2  9  1  0  0  0  0
  2  3  2  0  0  0  0
  3  4  1  0  0  0  0
  3 24  1  0  0  0  0
  4  5  2  0  0  0  0
  4  6  1  0  0  0  0
  6  7  1  0  0  0  0
  6  8  1  0  0  0  0
  7 25  1  0  0  0  0
  7 26  1  0  0  0  0
  7 27  1  0  0  0  0
  8  9  2  0  0  0  0
  8 28  1  0  0  0  0
  9 10  1  0  0  0  0
 10 11  1  0  0  0  0
 10 29  1  0  0  0  0
 11 12  2  0  0  0  0
 11 13  1  0  0  0  0
 13 14  1  0  0  0  0
 13 30  1  0  0  0  0
 14 15  1  0  0  0  0
 14 16  1  0  0  0  0
 14 31  1  0  0  0  0
 15 32  1  0  0  0  0
 15 33  1  0  0  0  0
 15 34  1  0  0  0  0
 16 20  1  0  0  0  0
 16 17  1  0  0  0  0
 16 35  1  0  0  0  0
 17 18  1  0  0  0  0
 17 36  1  0  0  0  0
 17 37  1  0  0  0  0
 18 19  1  0  0  0  0
 18 38  1  0  0  0  0
 18 39  1  0  0  0  0
 19 20  1  0  0  0  0
 19 40  1  0  0  0  0
 19 41  1  0  0  0  0
M  END
> <s_m_source_file>
AV-unprocessed.smi

> <i_m_source_file_index>
2913

> <i_lp_mmshare_version>
43012

> <i_f3d_flags>
0

> <s_epik_input>
W0NIM11jMVtjSF1jKD1PKW4oW0NIM10pW2NIXWMxW05IXUMoPU8pW05IXVtDQEhdKFtDSDNdKVtDQEBIXTJbQ0gyXVtDSDJdW0NIMl1PMg==

> <s_epik_cmdline>
J2VwaWtfcHl0aG9uJywgJy1waCcsICc3LjAnLCAnLXRuJywgJzgnLCAnLW1hJywgJzIwMCcsICctbWV0YWxfYmluZGluZycsICctaW1hZScsICc8aW5maWxlLm1hZT4nLCAnLW9tYWUnLCAnPG91dGZpbGUubWFlPic=

> <r_lp_tautomer_probability>
1

> <r_epik_Ionization_Penalty>
2.72039e-05

> <r_epik_Ionization_Penalty_Charging>
8.03976e-06

> <r_epik_Ionization_Penalty_Neutral>
1.91642e-05

> <r_epik_State_Penalty>
-0

> <r_epik_Charging_Adjusted_Penalty>
8.03976e-06

> <i_epik_Tot_Q>
0

> <i_epik_Tot_abs_Q>
0

> <r_epik_Metal_State_Penalty>
-0

> <b_epik_Metal_Only>
0

> <s_lp_Force_Field>
OPLS_2005

> <r_lp_Energy>
32.0319

> <b_lp_Chiralities_Consistent>
1

> <s_lp_Variant>
AV-unprocessed.smi:2913-3

> <Gold.Version>
5.8.1

> <Gold.Id.Protein>
6NUR|6NUR_protein|mol2

> <Gold.PLP.Fitness>
41.5593

> <Gold.PLP.PLP>
-30.5646

> <Gold.PLP.part.hbond>
-4.0000

> <Gold.PLP.part.metal>
0.0000

> <Gold.PLP.part.buried>
-3.8687

> <Gold.PLP.part.nonpolar>
-23.5042

> <Gold.PLP.part.repulsive>
1.2101

> <Gold.PLP.ligand.clash>
0.0000

> <Gold.PLP.ligand.torsion>
0.2328

> <Gold.PLP.Chemscore.Hbond>
3.8160

> <Gold.PLP.Chemscore.CHOScore>
0.0000

> <Gold.PLP.Chemscore.Metal>
0.0000

> <Gold.Chemscore.Hbonds>
donor molecule, donor type, donor heavy atom, donor atom, acceptor molecule, acceptor atom, score
      L1  H    10    29       P1  7948  0.99
      L1  H    13    30       P1  7948  0.86
      P1  H 10752 10763       L1    20  1.00
      P1  H 10785 10796       L1     5  0.93

> <Gold.PLP.Chemscore.Internal.Correction>
0.0123

> <Gold.Rescore>
     Score         DG    S(hbond)    S(metal)    S(lipo)     H(rot)  DE(clash)    DE(int)     intcor
     18.42     -20.19       2.95        0.00      68.02       1.21       0.47       1.30       ----

> <Gold.Chemscore.Fitness>
18.4249

> <Gold.Chemscore.DG>
-20.1936

> <Gold.Chemscore.ZeroCoef>
-5.4800

> <Gold.Chemscore.Hbond>
2.9501

> <Gold.Chemscore.Metal>
0.0000

> <Gold.Chemscore.Lipo>
68.0179

> <Gold.Chemscore.Internal_Hbond>
0.0000

> <Gold.Chemscore.DEClash>
0.4709

> <Gold.Chemscore.DEInternal>
1.2978

> <Gold.Chemscore.Rot>
1.2101

> <Gold.Chemscore.Internal.Correction>
   9.000000E+99

> <Gold.Chemscore.Hbonds>
donor molecule, donor type, donor heavy atom, donor atom, acceptor molecule, acceptor atom, score
      L1  H    10    29       P1  7948  0.86
      L1  H    13    30       P1  7948  0.64
      P1  H 10752 10763       L1    20  0.16
      P1  H 10785 10796       L1     5  0.91

> <Gold.Chemscore.Hbond.Weighted>
-9.8534

> <Gold.Chemscore.Metal.Weighted>
-0.0000

> <Gold.Chemscore.Lipo.Weighted>
-7.9581

> <Gold.Chemscore.Internal_Hbond.Weighted>
0.0000

> <Gold.Chemscore.DEClash.Weighted>
0.4709

> <Gold.Chemscore.DEInternal.Weighted>
1.2978

> <Gold.Chemscore.Rot.Weighted>
3.0979

> <Gold.Chemscore.Internal.Correction.Weighted>
   9.000000E+99

> <Gold.Protein.RotatedTorsions>
[ 6907 6896 6895 6894 ] final -118.67 input  -60.11 | X-H torsion
[ 7974 7965 7964 7962 ] final  -14.26 input  175.53 | X-H torsion
[ 8008 7997 7996 7995 ] final  159.60 input   59.86 | X-H torsion
[ 10167 10162 10161 10158 ] final    3.75 input  -65.29 | X-H torsion
[ 10718 10713 10712 10709 ] final   72.81 input   66.30 | X-H torsion
[ 10763 10752 10751 10750 ] final  107.29 input  -60.55 | X-H torsion
[ 11005 11000 10999 10996 ] final  -10.82 input  -57.11 | X-H torsion

> <Gold.Protein.ActiveResidues>
 VAL166  LYS551  ARG553  GLY616  TRP617  ASP618  TYR619  PRO620  LYS621  CYS622 
 ASP623  PHE694  ASN695  SER759  ASP760  ASP761  ALA762  ILE779  LEU786  VAL792 
 PHE793  MET794  SER795  GLU796  ALA797  LYS798  CYS799  TRP800  GLU811  SER814 

> <Gold.Protein.RotatedAtoms>
  150.8239  133.8204  159.3126 H   0  0  0  0  0  0  0  0  0  0  0  0  # atno 6907 bound_to 6896
  151.5954  135.1049  160.0058 H   0  0  0  0  0  0  0  0  0  0  0  0  # atno 6908 bound_to 6896
  152.4326  133.7264  159.6619 H   0  0  0  0  0  0  0  0  0  0  0  0  # atno 6909 bound_to 6896
  146.2081  140.3323  142.8400 H   0  0  0  0  0  0  0  0  0  0  0  0  # atno 7974 bound_to 7965
  156.2228  140.1827  156.7436 H   0  0  0  0  0  0  0  0  0  0  0  0  # atno 8008 bound_to 7997
  154.5892  140.0653  156.9243 H   0  0  0  0  0  0  0  0  0  0  0  0  # atno 8009 bound_to 7997
  155.2366  140.3319  155.4299 H   0  0  0  0  0  0  0  0  0  0  0  0  # atno 8010 bound_to 7997
  140.6570  143.7402  150.7671 H   0  0  0  0  0  0  0  0  0  0  0  0  # atno 10167 bound_to 10162
  157.6519  130.9597  150.0981 H   0  0  0  0  0  0  0  0  0  0  0  0  # atno 10718 bound_to 10713
  153.4048  135.3849  155.2011 H   0  0  0  0  0  0  0  0  0  0  0  0  # atno 10763 bound_to 10752
  154.8732  135.3780  154.4574 H   0  0  0  0  0  0  0  0  0  0  0  0  # atno 10764 bound_to 10752
  153.5076  135.7087  153.5860 H   0  0  0  0  0  0  0  0  0  0  0  0  # atno 10765 bound_to 10752
  140.7488  133.8610  155.9027 H   0  0  0  0  0  0  0  0  0  0  0  0  # atno 11005 bound_to 11000
  144.8844  140.7442  143.5966 LP  0  0  0  0  0  0  0  0  0  0  0  0  # atno 17320 bound_to 7965
  145.3244  139.1778  143.4571 LP  0  0  0  0  0  0  0  0  0  0  0  0  # atno 17321 bound_to 7965
  140.1063  143.4740  152.2396 LP  0  0  0  0  0  0  0  0  0  0  0  0  # atno 17342 bound_to 10162
  139.5795  144.7503  151.3678 LP  0  0  0  0  0  0  0  0  0  0  0  0  # atno 17343 bound_to 10162
  156.1911  130.3655  149.8908 LP  0  0  0  0  0  0  0  0  0  0  0  0  # atno 17370 bound_to 10713
  156.6836  130.8868  151.3579 LP  0  0  0  0  0  0  0  0  0  0  0  0  # atno 17371 bound_to 10713
  140.9770  134.1456  157.4527 LP  0  0  0  0  0  0  0  0  0  0  0  0  # atno 17394 bound_to 11000
  139.8791  134.9998  156.5974 LP  0  0  0  0  0  0  0  0  0  0  0  0  # atno 17395 bound_to 11000

$$$$
