AV-unprocessed.smi:1973|AV-procd|sdf|7976|dock3
  -GOLD-   2272010153D 1   1.00000     0.00000
 Structure written by MMmdl.
 48 50  0  0  0  0  0  0  0  0  2 V2000
  152.5887  142.9999  159.0070 C   0  0  0  0  0  0  0  0  0  0  0  0
  151.2666  142.5365  158.7957 O   0  0  0  0  0  0  0  0  0  0  0  0
  151.2254  141.3489  158.0227 C   0  0  0  0  0  0  0  0  0  0  0  0
  150.9469  141.7186  156.5578 C   0  0  0  0  0  0  0  0  0  0  0  0
  150.7026  140.5290  155.7350 N   0  0  0  0  0  0  0  0  0  0  0  0
  149.4573  140.5063  155.1291 N   0  0  0  0  0  0  0  0  0  0  0  0
  149.1111  139.5054  154.3879 C   0  0  0  0  0  0  0  0  0  0  0  0
  147.7628  139.4864  153.7517 C   0  0  0  0  0  0  0  0  0  0  0  0
  146.9568  140.3990  153.9419 O   0  0  0  0  0  0  0  0  0  0  0  0
  147.4832  138.4272  152.9722 N   0  0  0  0  0  0  0  0  0  0  0  0
  146.2217  138.2044  152.2737 C   0  0  0  0  0  0  0  0  0  0  0  0
  146.1588  136.8121  151.6169 C   0  0  2  0  0  0  0  0  0  0  0  0
  145.0383  136.6584  150.5923 C   0  0  0  0  0  0  0  0  0  0  0  0
  144.8926  135.1431  150.4878 C   0  0  0  0  0  0  0  0  0  0  0  0
  145.1255  134.6321  151.8552 N   0  3  1  0  0  0  0  0  0  0  0  0
  145.7073  133.2738  151.8969 C   0  0  0  0  0  0  0  0  0  0  0  0
  146.5626  132.9462  150.6966 C   0  0  0  0  0  0  0  0  0  0  0  0
  145.1742  132.3571  150.8219 C   0  0  0  0  0  0  0  0  0  0  0  0
  145.9086  135.6512  152.5927 C   0  0  0  0  0  0  0  0  0  0  0  0
  150.0263  138.3929  154.1655 C   0  0  0  0  0  0  0  0  0  0  0  0
  151.2396  138.4343  154.7580 C   0  0  0  0  0  0  0  0  0  0  0  0
  151.6505  139.5523  155.6078 C   0  0  0  0  0  0  0  0  0  0  0  0
  152.7498  139.6100  156.1580 O   0  0  0  0  0  0  0  0  0  0  0  0
  152.5661  143.9176  159.5950 H   0  0  0  0  0  0  0  0  0  0  0  0
  153.0873  143.2177  158.0615 H   0  0  0  0  0  0  0  0  0  0  0  0
  153.1804  142.2649  159.5541 H   0  0  0  0  0  0  0  0  0  0  0  0
  152.1767  140.8203  158.1026 H   0  0  0  0  0  0  0  0  0  0  0  0
  150.4467  140.6859  158.4027 H   0  0  0  0  0  0  0  0  0  0  0  0
  150.0959  142.3995  156.4995 H   0  0  0  0  0  0  0  0  0  0  0  0
  151.7943  142.2799  156.1597 H   0  0  0  0  0  0  0  0  0  0  0  0
  148.1925  137.7151  152.8728 H   0  0  0  0  0  0  0  0  0  0  0  0
  145.4134  138.3138  152.9976 H   0  0  0  0  0  0  0  0  0  0  0  0
  146.0702  138.9834  151.5247 H   0  0  0  0  0  0  0  0  0  0  0  0
  147.1006  136.6196  151.1001 H   0  0  0  0  0  0  0  0  0  0  0  0
  144.1130  137.0971  150.9689 H   0  0  0  0  0  0  0  0  0  0  0  0
  145.2706  137.1271  149.6355 H   0  0  0  0  0  0  0  0  0  0  0  0
  143.9169  134.8394  150.1077 H   0  0  0  0  0  0  0  0  0  0  0  0
  145.6539  134.7515  149.8108 H   0  0  0  0  0  0  0  0  0  0  0  0
  145.9599  132.8826  152.8813 H   0  0  0  0  0  0  0  0  0  0  0  0
  146.7145  133.7194  149.9453 H   0  0  0  0  0  0  0  0  0  0  0  0
  147.4045  132.2736  150.8480 H   0  0  0  0  0  0  0  0  0  0  0  0
  145.1023  131.2968  151.0563 H   0  0  0  0  0  0  0  0  0  0  0  0
  144.4040  132.7388  150.1536 H   0  0  0  0  0  0  0  0  0  0  0  0
  146.8477  135.2554  152.9830 H   0  0  0  0  0  0  0  0  0  0  0  0
  145.3124  135.9782  153.4453 H   0  0  0  0  0  0  0  0  0  0  0  0
  149.7649  137.5497  153.5442 H   0  0  0  0  0  0  0  0  0  0  0  0
  151.9299  137.6184  154.6010 H   0  0  0  0  0  0  0  0  0  0  0  0
  144.2232  134.5882  152.3069 H   0  0  0  0  0  0  0  0  0  0  0  0
  1  2  1  0  0  0  0
  1 24  1  0  0  0  0
  1 25  1  0  0  0  0
  1 26  1  0  0  0  0
  2  3  1  0  0  0  0
  3  4  1  0  0  0  0
  3 27  1  0  0  0  0
  3 28  1  0  0  0  0
  4  5  1  0  0  0  0
  4 29  1  0  0  0  0
  4 30  1  0  0  0  0
  5 22  1  0  0  0  0
  5  6  1  0  0  0  0
  6  7  2  0  0  0  0
  7  8  1  0  0  0  0
  7 20  1  0  0  0  0
  8  9  2  0  0  0  0
  8 10  1  0  0  0  0
 10 11  1  0  0  0  0
 10 31  1  0  0  0  0
 11 12  1  0  0  0  0
 11 32  1  0  0  0  0
 11 33  1  0  0  0  0
 12 19  1  0  0  0  0
 12 13  1  0  0  0  0
 12 34  1  0  0  0  0
 13 14  1  0  0  0  0
 13 35  1  0  0  0  0
 13 36  1  0  0  0  0
 14 15  1  0  0  0  0
 14 37  1  0  0  0  0
 14 38  1  0  0  0  0
 15 16  1  0  0  0  0
 15 19  1  0  0  0  0
 15 48  1  0  0  0  0
 16 18  1  0  0  0  0
 16 17  1  0  0  0  0
 16 39  1  0  0  0  0
 17 18  1  0  0  0  0
 17 40  1  0  0  0  0
 17 41  1  0  0  0  0
 18 42  1  0  0  0  0
 18 43  1  0  0  0  0
 19 44  1  0  0  0  0
 19 45  1  0  0  0  0
 20 21  2  0  0  0  0
 20 46  1  0  0  0  0
 21 22  1  0  0  0  0
 21 47  1  0  0  0  0
 22 23  2  0  0  0  0
M  CHG  1  15   1
M  END
> <s_m_source_file>
AV-unprocessed.smi

> <i_m_source_file_index>
1973

> <i_lp_mmshare_version>
43012

> <i_f3d_flags>
0

> <s_epik_input>
W0NIM11PW0NIMl1bQ0gyXW4xbmMoW2NIXVtjSF1jMT1PKUMoPU8pW05IXVtDSDJdW0NAQEhdMltDSDJdW0NIMl1OKFtDSDJdMilbQ0hdM1tDSDJdW0NIMl0z

> <s_epik_cmdline>
J2VwaWtfcHl0aG9uJywgJy1waCcsICc3LjAnLCAnLXRuJywgJzgnLCAnLW1hJywgJzIwMCcsICctbWV0YWxfYmluZGluZycsICctaW1hZScsICc8aW5maWxlLm1hZT4nLCAnLW9tYWUnLCAnPG91dGZpbGUubWFlPic=

> <r_lp_tautomer_probability>
1

> <r_epik_Ionization_Penalty>
0.000225706

> <r_epik_Ionization_Penalty_Charging>
0.000223776

> <r_epik_Ionization_Penalty_Neutral>
1.93004e-06

> <r_epik_State_Penalty>
-0

> <r_epik_Charging_Adjusted_Penalty>
0.000223776

> <i_epik_Tot_Q>
1

> <i_epik_Tot_abs_Q>
1

> <r_epik_Metal_State_Penalty>
-0

> <b_epik_Metal_Only>
0

> <s_lp_Force_Field>
OPLS_2005

> <r_lp_Energy>
57.8958

> <b_lp_Chiralities_Consistent>
1

> <s_lp_Variant>
AV-unprocessed.smi:1973-1

> <Gold.Version>
5.8.1

> <Gold.Id.Protein>
6NUR|6NUR_protein|mol2

> <Gold.PLP.Fitness>
45.2085

> <Gold.PLP.PLP>
-40.0266

> <Gold.PLP.part.hbond>
-2.4653

> <Gold.PLP.part.metal>
0.0000

> <Gold.PLP.part.buried>
3.8988

> <Gold.PLP.part.nonpolar>
-42.2468

> <Gold.PLP.part.repulsive>
0.2981

> <Gold.PLP.ligand.clash>
0.0000

> <Gold.PLP.ligand.torsion>
1.0481

> <Gold.PLP.Chemscore.Hbond>
2.0000

> <Gold.PLP.Chemscore.CHOScore>
0.0000

> <Gold.PLP.Chemscore.Metal>
0.0000

> <Gold.Chemscore.Hbonds>
donor molecule, donor type, donor heavy atom, donor atom, acceptor molecule, acceptor atom, score
      L1  H    10    31       P1  7948  0.99
      P1  H  7997  8009       L1    23  1.00

> <Gold.PLP.Chemscore.Internal.Correction>
1.2780

> <Gold.Rescore>
     Score         DG    S(hbond)    S(metal)    S(lipo)     H(rot)  DE(clash)    DE(int)     intcor
     15.66     -19.32       1.97        0.00     105.24       1.97       2.61       1.05       ----

> <Gold.Chemscore.Fitness>
15.6638

> <Gold.Chemscore.DG>
-19.3246

> <Gold.Chemscore.ZeroCoef>
-5.4800

> <Gold.Chemscore.Hbond>
1.9692

> <Gold.Chemscore.Metal>
0.0000

> <Gold.Chemscore.Lipo>
105.2428

> <Gold.Chemscore.Internal_Hbond>
0.0000

> <Gold.Chemscore.DEClash>
2.6085

> <Gold.Chemscore.DEInternal>
1.0523

> <Gold.Chemscore.Rot>
1.9711

> <Gold.Chemscore.Internal.Correction>
   9.000000E+99

> <Gold.Chemscore.Hbonds>
donor molecule, donor type, donor heavy atom, donor atom, acceptor molecule, acceptor atom, score
      L1  H    10    31       P1  7948  0.93
      P1  H  7997  8009       L1    23  1.00

> <Gold.Chemscore.Hbond.Weighted>
-6.5772

> <Gold.Chemscore.Metal.Weighted>
-0.0000

> <Gold.Chemscore.Lipo.Weighted>
-12.3134

> <Gold.Chemscore.Internal_Hbond.Weighted>
0.0000

> <Gold.Chemscore.DEClash.Weighted>
2.6085

> <Gold.Chemscore.DEInternal.Weighted>
1.0523

> <Gold.Chemscore.Rot.Weighted>
5.0460

> <Gold.Chemscore.Internal.Correction.Weighted>
   9.000000E+99

> <Gold.Protein.RotatedTorsions>
[ 6907 6896 6895 6894 ] final   -2.12 input  -60.11 | X-H torsion
[ 7974 7965 7964 7962 ] final   -9.61 input  175.53 | X-H torsion
[ 8008 7997 7996 7995 ] final -157.28 input   59.86 | X-H torsion
[ 10167 10162 10161 10158 ] final   17.20 input  -65.29 | X-H torsion
[ 10718 10713 10712 10709 ] final  -62.09 input   66.30 | X-H torsion
[ 10763 10752 10751 10750 ] final   35.22 input  -60.55 | X-H torsion
[ 11005 11000 10999 10996 ] final -143.26 input  -57.11 | X-H torsion

> <Gold.Protein.ActiveResidues>
 VAL166  LYS551  ARG553  GLY616  TRP617  ASP618  TYR619  PRO620  LYS621  CYS622 
 ASP623  PHE694  ASN695  SER759  ASP760  ASP761  ALA762  ILE779  LEU786  VAL792 
 PHE793  MET794  SER795  GLU796  ALA797  LYS798  CYS799  TRP800  GLU811  SER814 

> <Gold.Protein.RotatedAtoms>
  151.5350  135.1068  159.9911 H   0  0  0  0  0  0  0  0  0  0  0  0  # atno 6907 bound_to 6896
  152.4561  133.7722  159.6816 H   0  0  0  0  0  0  0  0  0  0  0  0  # atno 6908 bound_to 6896
  150.8505  133.7728  159.3052 H   0  0  0  0  0  0  0  0  0  0  0  0  # atno 6909 bound_to 6896
  146.2246  140.2642  142.8353 H   0  0  0  0  0  0  0  0  0  0  0  0  # atno 7974 bound_to 7965
  155.7300  140.0801  157.2293 H   0  0  0  0  0  0  0  0  0  0  0  0  # atno 8008 bound_to 7997
  154.4034  140.1597  156.2553 H   0  0  0  0  0  0  0  0  0  0  0  0  # atno 8009 bound_to 7997
  155.9118  140.3403  155.6107 H   0  0  0  0  0  0  0  0  0  0  0  0  # atno 8010 bound_to 7997
  140.5743  143.9103  150.6737 H   0  0  0  0  0  0  0  0  0  0  0  0  # atno 10167 bound_to 10162
  156.0878  130.4205  150.1086 H   0  0  0  0  0  0  0  0  0  0  0  0  # atno 10718 bound_to 10713
  153.0129  135.6339  154.1792 H   0  0  0  0  0  0  0  0  0  0  0  0  # atno 10763 bound_to 10752
  154.1533  135.2828  155.3131 H   0  0  0  0  0  0  0  0  0  0  0  0  # atno 10764 bound_to 10752
  154.6037  135.5579  153.7462 H   0  0  0  0  0  0  0  0  0  0  0  0  # atno 10765 bound_to 10752
  140.8143  134.2707  157.4927 H   0  0  0  0  0  0  0  0  0  0  0  0  # atno 11005 bound_to 11000
  144.9317  140.7982  143.5685 LP  0  0  0  0  0  0  0  0  0  0  0  0  # atno 17320 bound_to 7965
  145.2586  139.2002  143.4904 LP  0  0  0  0  0  0  0  0  0  0  0  0  # atno 17321 bound_to 7965
  140.2586  143.3541  152.1343 LP  0  0  0  0  0  0  0  0  0  0  0  0  # atno 17342 bound_to 10162
  139.5134  144.6932  151.5703 LP  0  0  0  0  0  0  0  0  0  0  0  0  # atno 17343 bound_to 10162
  156.9103  130.9649  151.3564 LP  0  0  0  0  0  0  0  0  0  0  0  0  # atno 17370 bound_to 10713
  157.6018  130.8518  149.8813 LP  0  0  0  0  0  0  0  0  0  0  0  0  # atno 17371 bound_to 10713
  139.8712  134.9500  156.4044 LP  0  0  0  0  0  0  0  0  0  0  0  0  # atno 17394 bound_to 11000
  140.9165  133.7675  155.9854 LP  0  0  0  0  0  0  0  0  0  0  0  0  # atno 17395 bound_to 11000

$$$$
