AV-unprocessed.smi:2069|AV-procd|sdf|8432|dock6
  -GOLD-   2272011133D 1   1.00000     0.00000
 Structure written by MMmdl.
 38 39  0  0  0  0  0  0  0  0  1 V2000
  143.8092  132.1459  150.3457 C   0  0  0  0  0  0  0  0  0  0  0  0
  144.3044  133.3577  151.0587 C   0  0  0  0  0  0  0  0  0  0  0  0
  143.5110  134.1338  151.8072 N   0  0  0  0  0  0  0  0  0  0  0  0
  144.1977  135.2005  152.3703 N   0  0  0  0  0  0  0  0  0  0  0  0
  145.4938  135.1964  152.0298 C   0  0  0  0  0  0  0  0  0  0  0  0
  146.4280  136.1728  152.4664 N   0  0  0  0  0  0  0  0  0  0  0  0
  146.2123  137.2378  153.2585 C   0  0  0  0  0  0  0  0  0  0  0  0
  145.1272  137.5513  153.7486 O   0  0  0  0  0  0  0  0  0  0  0  0
  147.3428  137.9342  153.4496 N   0  0  0  0  0  0  0  0  0  0  0  0
  147.4716  139.1449  154.2582 C   0  0  0  0  0  0  0  0  0  0  0  0
  148.3856  140.2193  153.6034 C   0  0  1  0  0  0  0  0  0  0  0  0
  147.7445  141.6167  153.7998 C   0  0  0  0  0  0  0  0  0  0  0  0
  149.7871  140.1614  154.0824 N   0  0  0  0  0  0  0  0  0  0  0  0
  149.9624  140.7713  155.4061 C   0  0  0  0  0  0  0  0  0  0  0  0
  151.4115  140.6863  155.9169 C   0  0  0  0  0  0  0  0  0  0  0  0
  151.8316  139.3297  155.9452 O   0  0  0  0  0  0  0  0  0  0  0  0
  151.7552  138.7231  154.6628 C   0  0  0  0  0  0  0  0  0  0  0  0
  150.3083  138.7905  154.1440 C   0  0  0  0  0  0  0  0  0  0  0  0
  145.9844  133.8748  150.9832 S   0  0  0  0  0  0  0  0  0  0  0  0
  142.7200  132.1507  150.2906 H   0  0  0  0  0  0  0  0  0  0  0  0
  144.1292  131.2472  150.8730 H   0  0  0  0  0  0  0  0  0  0  0  0
  144.2084  132.1189  149.3317 H   0  0  0  0  0  0  0  0  0  0  0  0
  147.3731  136.0444  152.1364 H   0  0  0  0  0  0  0  0  0  0  0  0
  148.1843  137.6013  153.0025 H   0  0  0  0  0  0  0  0  0  0  0  0
  146.4973  139.5779  154.4915 H   0  0  0  0  0  0  0  0  0  0  0  0
  147.8851  138.7971  155.2028 H   0  0  0  0  0  0  0  0  0  0  0  0
  148.3901  140.0215  152.5303 H   0  0  0  0  0  0  0  0  0  0  0  0
  146.7044  141.6464  153.4783 H   0  0  0  0  0  0  0  0  0  0  0  0
  148.2402  142.3874  153.2117 H   0  0  0  0  0  0  0  0  0  0  0  0
  147.7726  141.9188  154.8472 H   0  0  0  0  0  0  0  0  0  0  0  0
  149.7003  141.8270  155.3825 H   0  0  0  0  0  0  0  0  0  0  0  0
  149.2958  140.2932  156.1254 H   0  0  0  0  0  0  0  0  0  0  0  0
  152.0795  141.2695  155.2812 H   0  0  0  0  0  0  0  0  0  0  0  0
  151.4833  141.1017  156.9222 H   0  0  0  0  0  0  0  0  0  0  0  0
  152.4371  139.2227  153.9731 H   0  0  0  0  0  0  0  0  0  0  0  0
  152.0815  137.6859  154.7395 H   0  0  0  0  0  0  0  0  0  0  0  0
  149.6674  138.1785  154.7804 H   0  0  0  0  0  0  0  0  0  0  0  0
  150.3048  138.3330  153.1565 H   0  0  0  0  0  0  0  0  0  0  0  0
  1  2  1  0  0  0  0
  1 20  1  0  0  0  0
  1 21  1  0  0  0  0
  1 22  1  0  0  0  0
  2 19  1  0  0  0  0
  2  3  2  0  0  0  0
  3  4  1  0  0  0  0
  4  5  2  0  0  0  0
  5  6  1  0  0  0  0
  5 19  1  0  0  0  0
  6  7  1  0  0  0  0
  6 23  1  0  0  0  0
  7  8  2  0  0  0  0
  7  9  1  0  0  0  0
  9 10  1  0  0  0  0
  9 24  1  0  0  0  0
 10 11  1  0  0  0  0
 10 25  1  0  0  0  0
 10 26  1  0  0  0  0
 11 12  1  0  0  0  0
 11 13  1  0  0  0  0
 11 27  1  0  0  0  0
 12 28  1  0  0  0  0
 12 29  1  0  0  0  0
 12 30  1  0  0  0  0
 13 18  1  0  0  0  0
 13 14  1  0  0  0  0
 14 15  1  0  0  0  0
 14 31  1  0  0  0  0
 14 32  1  0  0  0  0
 15 16  1  0  0  0  0
 15 33  1  0  0  0  0
 15 34  1  0  0  0  0
 16 17  1  0  0  0  0
 17 18  1  0  0  0  0
 17 35  1  0  0  0  0
 17 36  1  0  0  0  0
 18 37  1  0  0  0  0
 18 38  1  0  0  0  0
M  END
> <s_m_source_file>
AV-unprocessed.smi

> <i_m_source_file_index>
2069

> <i_lp_mmshare_version>
43012

> <i_f3d_flags>
0

> <s_epik_input>
W0NIM11jMW5uYyhzMSlbTkhdQyg9TylbTkhdW0NIMl1bQ0BIXShbQ0gzXSlOMltDSDJdW0NIMl1PW0NIMl1bQ0gyXTI=

> <s_epik_cmdline>
J2VwaWtfcHl0aG9uJywgJy1waCcsICc3LjAnLCAnLXRuJywgJzgnLCAnLW1hJywgJzIwMCcsICctbWV0YWxfYmluZGluZycsICctaW1hZScsICc8aW5maWxlLm1hZT4nLCAnLW9tYWUnLCAnPG91dGZpbGUubWFlPic=

> <r_lp_tautomer_probability>
1

> <r_epik_Ionization_Penalty>
0.221104

> <r_epik_Ionization_Penalty_Charging>
0

> <r_epik_Ionization_Penalty_Neutral>
0.221104

> <r_epik_State_Penalty>
0.209349

> <r_epik_Charging_Adjusted_Penalty>
0.209349

> <i_epik_Tot_Q>
0

> <i_epik_Tot_abs_Q>
0

> <r_epik_Metal_State_Penalty>
0.561068

> <b_epik_Metal_Only>
0

> <s_lp_Force_Field>
OPLS_2005

> <r_lp_Energy>
28.2693

> <b_lp_Chiralities_Consistent>
1

> <s_lp_Variant>
AV-unprocessed.smi:2069-2

> <Gold.Version>
5.8.1

> <Gold.Id.Protein>
6NUR|6NUR_protein|mol2

> <Gold.PLP.Fitness>
36.3421

> <Gold.PLP.PLP>
-31.4246

> <Gold.PLP.part.hbond>
-3.0000

> <Gold.PLP.part.metal>
0.0000

> <Gold.PLP.part.buried>
-3.5356

> <Gold.PLP.part.nonpolar>
-26.0351

> <Gold.PLP.part.repulsive>
1.7436

> <Gold.PLP.ligand.clash>
0.0000

> <Gold.PLP.ligand.torsion>
0.8790

> <Gold.PLP.Chemscore.Hbond>
2.2157

> <Gold.PLP.Chemscore.CHOScore>
0.0000

> <Gold.PLP.Chemscore.Metal>
0.0000

> <Gold.Chemscore.Hbonds>
donor molecule, donor type, donor heavy atom, donor atom, acceptor molecule, acceptor atom, score
      L1  H     6    23       P1  7948  1.00
      L1  H     9    24       P1  7948  0.93
      P1  H  7989  7998       L1    13  0.24

> <Gold.PLP.Chemscore.Internal.Correction>
0.0284

> <Gold.Rescore>
     Score         DG    S(hbond)    S(metal)    S(lipo)     H(rot)  DE(clash)    DE(int)     intcor
     13.67     -15.78       1.91        0.00      68.49       1.60       0.04       2.07       ----

> <Gold.Chemscore.Fitness>
13.6732

> <Gold.Chemscore.DG>
-15.7833

> <Gold.Chemscore.ZeroCoef>
-5.4800

> <Gold.Chemscore.Hbond>
1.9132

> <Gold.Chemscore.Metal>
0.0000

> <Gold.Chemscore.Lipo>
68.4888

> <Gold.Chemscore.Internal_Hbond>
0.0000

> <Gold.Chemscore.DEClash>
0.0441

> <Gold.Chemscore.DEInternal>
2.0660

> <Gold.Chemscore.Rot>
1.6016

> <Gold.Chemscore.Internal.Correction>
   9.000000E+99

> <Gold.Chemscore.Hbonds>
donor molecule, donor type, donor heavy atom, donor atom, acceptor molecule, acceptor atom, score
      L1  H     6    23       P1  7948  0.98
      L1  H     9    24       P1  7948  0.89

> <Gold.Chemscore.Hbond.Weighted>
-6.3903

> <Gold.Chemscore.Metal.Weighted>
-0.0000

> <Gold.Chemscore.Lipo.Weighted>
-8.0132

> <Gold.Chemscore.Internal_Hbond.Weighted>
0.0000

> <Gold.Chemscore.DEClash.Weighted>
0.0441

> <Gold.Chemscore.DEInternal.Weighted>
2.0660

> <Gold.Chemscore.Rot.Weighted>
4.1001

> <Gold.Chemscore.Internal.Correction.Weighted>
   9.000000E+99

> <Gold.Protein.RotatedTorsions>
[ 6907 6896 6895 6894 ] final -168.96 input  -60.11 | X-H torsion
[ 7974 7965 7964 7962 ] final -147.42 input  175.53 | X-H torsion
[ 8008 7997 7996 7995 ] final  125.19 input   59.86 | X-H torsion
[ 10167 10162 10161 10158 ] final   15.40 input  -65.29 | X-H torsion
[ 10718 10713 10712 10709 ] final  106.48 input   66.30 | X-H torsion
[ 10763 10752 10751 10750 ] final    0.82 input  -60.55 | X-H torsion
[ 11005 11000 10999 10996 ] final  -36.14 input  -57.11 | X-H torsion

> <Gold.Protein.ActiveResidues>
 VAL166  LYS551  ARG553  GLY616  TRP617  ASP618  TYR619  PRO620  LYS621  CYS622 
 ASP623  PHE694  ASN695  SER759  ASP760  ASP761  ALA762  ILE779  LEU786  VAL792 
 PHE793  MET794  SER795  GLU796  ALA797  LYS798  CYS799  TRP800  GLU811  SER814 

> <Gold.Protein.RotatedAtoms>
  151.4840  133.3540  159.2842 H   0  0  0  0  0  0  0  0  0  0  0  0  # atno 6907 bound_to 6896
  150.8878  134.8280  159.7283 H   0  0  0  0  0  0  0  0  0  0  0  0  # atno 6908 bound_to 6896
  152.4804  134.4746  159.9698 H   0  0  0  0  0  0  0  0  0  0  0  0  # atno 6909 bound_to 6896
  144.8095  140.5330  143.5652 H   0  0  0  0  0  0  0  0  0  0  0  0  # atno 7974 bound_to 7965
  156.2826  140.2722  156.1909 H   0  0  0  0  0  0  0  0  0  0  0  0  # atno 8008 bound_to 7997
  155.0460  140.0386  157.2544 H   0  0  0  0  0  0  0  0  0  0  0  0  # atno 8009 bound_to 7997
  154.7235  140.2692  155.6525 H   0  0  0  0  0  0  0  0  0  0  0  0  # atno 8010 bound_to 7997
  140.5869  143.8871  150.6839 H   0  0  0  0  0  0  0  0  0  0  0  0  # atno 10167 bound_to 10162
  157.6666  131.0852  150.6014 H   0  0  0  0  0  0  0  0  0  0  0  0  # atno 10718 bound_to 10713
  153.3158  135.6966  153.7075 H   0  0  0  0  0  0  0  0  0  0  0  0  # atno 10763 bound_to 10752
  153.5934  135.3475  155.2920 H   0  0  0  0  0  0  0  0  0  0  0  0  # atno 10764 bound_to 10752
  154.8586  135.4323  154.2308 H   0  0  0  0  0  0  0  0  0  0  0  0  # atno 10765 bound_to 10752
  140.9851  133.7035  156.1752 H   0  0  0  0  0  0  0  0  0  0  0  0  # atno 11005 bound_to 11000
  145.5358  139.1475  143.3474 LP  0  0  0  0  0  0  0  0  0  0  0  0  # atno 17320 bound_to 7965
  146.2391  140.5498  142.8942 LP  0  0  0  0  0  0  0  0  0  0  0  0  # atno 17321 bound_to 7965
  140.2385  143.3682  152.1507 LP  0  0  0  0  0  0  0  0  0  0  0  0  # atno 17342 bound_to 10162
  139.5203  144.7031  151.5434 LP  0  0  0  0  0  0  0  0  0  0  0  0  # atno 17343 bound_to 10162
  156.6314  130.4433  149.5785 LP  0  0  0  0  0  0  0  0  0  0  0  0  # atno 17370 bound_to 10713
  156.2279  130.6776  151.1434 LP  0  0  0  0  0  0  0  0  0  0  0  0  # atno 17371 bound_to 10713
  140.7126  134.4444  157.5580 LP  0  0  0  0  0  0  0  0  0  0  0  0  # atno 17394 bound_to 11000
  139.8967  134.8653  156.2076 LP  0  0  0  0  0  0  0  0  0  0  0  0  # atno 17395 bound_to 11000

$$$$
