AV-unprocessed.smi:2684|AV-procd|sdf|10381|dock9
  -GOLD-   2272014413D 1   1.00000     0.00000
 Structure written by MMmdl.
 44 45  0  0  0  0  0  0  0  0  1 V2000
  150.9982  142.5390  157.6865 C   0  0  0  0  0  0  0  0  0  0  0  0
  150.5747  141.7379  156.4891 C   0  0  0  0  0  0  0  0  0  0  0  0
  151.2673  140.6577  155.8724 C   0  0  0  0  0  0  0  0  0  0  0  0
  150.6190  140.1570  154.8334 N   0  0  0  0  0  0  0  0  0  0  0  0
  149.4998  140.9068  154.7404 N   0  0  0  0  0  0  0  0  0  0  0  0
  148.5274  140.6341  153.6963 C   0  0  0  0  0  0  0  0  0  0  0  0
  147.0694  140.5352  154.2040 C   0  0  1  0  0  0  0  0  0  0  0  0
  146.4470  141.9325  154.3327 C   0  0  0  0  0  0  0  0  0  0  0  0
  146.2337  139.7809  153.2730 N   0  0  0  0  0  0  0  0  0  0  0  0
  146.8124  138.4797  152.9091 C   0  0  0  0  0  0  0  0  0  0  0  0
  145.7651  137.4630  152.4307 C   0  0  0  0  0  0  0  0  0  0  0  0
  144.5716  137.6395  152.6716 O   0  0  0  0  0  0  0  0  0  0  0  0
  146.1746  136.3793  151.7490 N   0  0  0  0  0  0  0  0  0  0  0  0
  145.3449  135.3025  151.2108 C   0  0  0  0  0  0  0  0  0  0  0  0
  144.2897  134.8641  152.2404 C   0  0  0  0  0  0  0  0  0  0  0  0
  143.5167  133.6368  151.7324 C   0  0  0  0  0  0  0  0  0  0  0  0
  144.4224  132.5785  151.4373 O   0  0  0  0  0  0  0  0  0  0  0  0
  145.3484  132.9085  150.4073 C   0  0  0  0  0  0  0  0  0  0  0  0
  146.2219  134.0965  150.8444 C   0  0  0  0  0  0  0  0  0  0  0  0
  149.4441  141.8630  155.7322 C   0  0  0  0  0  0  0  0  0  0  0  0
  151.3531  141.8982  158.4938 H   0  0  0  0  0  0  0  0  0  0  0  0
  150.1779  143.1350  158.0869 H   0  0  0  0  0  0  0  0  0  0  0  0
  151.8065  143.2282  157.4442 H   0  0  0  0  0  0  0  0  0  0  0  0
  152.2156  140.2222  156.1511 H   0  0  0  0  0  0  0  0  0  0  0  0
  148.6076  141.4351  152.9603 H   0  0  0  0  0  0  0  0  0  0  0  0
  148.8150  139.7166  153.1807 H   0  0  0  0  0  0  0  0  0  0  0  0
  147.0458  140.0800  155.1956 H   0  0  0  0  0  0  0  0  0  0  0  0
  147.0103  142.5474  155.0354 H   0  0  0  0  0  0  0  0  0  0  0  0
  145.4211  141.8759  154.6987 H   0  0  0  0  0  0  0  0  0  0  0  0
  146.4316  142.4544  153.3749 H   0  0  0  0  0  0  0  0  0  0  0  0
  146.0302  140.3453  152.4608 H   0  0  0  0  0  0  0  0  0  0  0  0
  147.5523  138.6181  152.1248 H   0  0  0  0  0  0  0  0  0  0  0  0
  147.3268  138.0578  153.7736 H   0  0  0  0  0  0  0  0  0  0  0  0
  147.1687  136.2893  151.5954 H   0  0  0  0  0  0  0  0  0  0  0  0
  144.8417  135.6300  150.3000 H   0  0  0  0  0  0  0  0  0  0  0  0
  144.7738  134.6161  153.1860 H   0  0  0  0  0  0  0  0  0  0  0  0
  143.5967  135.6778  152.4520 H   0  0  0  0  0  0  0  0  0  0  0  0
  142.8146  133.2952  152.4928 H   0  0  0  0  0  0  0  0  0  0  0  0
  142.9297  133.8872  150.8474 H   0  0  0  0  0  0  0  0  0  0  0  0
  145.9734  132.0387  150.2043 H   0  0  0  0  0  0  0  0  0  0  0  0
  144.8140  133.1375  149.4841 H   0  0  0  0  0  0  0  0  0  0  0  0
  146.9173  134.3618  150.0473 H   0  0  0  0  0  0  0  0  0  0  0  0
  146.8270  133.8000  151.7025 H   0  0  0  0  0  0  0  0  0  0  0  0
  148.6136  142.5485  155.8151 H   0  0  0  0  0  0  0  0  0  0  0  0
  1  2  1  0  0  0  0
  1 21  1  0  0  0  0
  1 22  1  0  0  0  0
  1 23  1  0  0  0  0
  2 20  2  0  0  0  0
  2  3  1  0  0  0  0
  3  4  2  0  0  0  0
  3 24  1  0  0  0  0
  4  5  1  0  0  0  0
  5  6  1  0  0  0  0
  5 20  1  0  0  0  0
  6  7  1  0  0  0  0
  6 25  1  0  0  0  0
  6 26  1  0  0  0  0
  7  8  1  0  0  0  0
  7  9  1  0  0  0  0
  7 27  1  0  0  0  0
  8 28  1  0  0  0  0
  8 29  1  0  0  0  0
  8 30  1  0  0  0  0
  9 10  1  0  0  0  0
  9 31  1  0  0  0  0
 10 11  1  0  0  0  0
 10 32  1  0  0  0  0
 10 33  1  0  0  0  0
 11 12  2  0  0  0  0
 11 13  1  0  0  0  0
 13 14  1  0  0  0  0
 13 34  1  0  0  0  0
 14 19  1  0  0  0  0
 14 15  1  0  0  0  0
 14 35  1  0  0  0  0
 15 16  1  0  0  0  0
 15 36  1  0  0  0  0
 15 37  1  0  0  0  0
 16 17  1  0  0  0  0
 16 38  1  0  0  0  0
 16 39  1  0  0  0  0
 17 18  1  0  0  0  0
 18 19  1  0  0  0  0
 18 40  1  0  0  0  0
 18 41  1  0  0  0  0
 19 42  1  0  0  0  0
 19 43  1  0  0  0  0
 20 44  1  0  0  0  0
M  END
> <s_m_source_file>
AV-unprocessed.smi

> <i_m_source_file_index>
2684

> <i_lp_mmshare_version>
43012

> <i_f3d_flags>
0

> <s_epik_input>
W0NIM11jMVtjSF1ubihbY0hdMSlbQ0gyXVtDQEhdKFtDSDNdKVtOSF1bQ0gyXUMoPU8pW05IXVtDSF0yW0NIMl1bQ0gyXU9bQ0gyXVtDSDJdMg==

> <s_epik_cmdline>
J2VwaWtfcHl0aG9uJywgJy1waCcsICc3LjAnLCAnLXRuJywgJzgnLCAnLW1hJywgJzIwMCcsICctbWV0YWxfYmluZGluZycsICctaW1hZScsICc8aW5maWxlLm1hZT4nLCAnLW9tYWUnLCAnPG91dGZpbGUubWFlPic=

> <r_lp_tautomer_probability>
1

> <r_epik_Ionization_Penalty>
0.968507

> <r_epik_Ionization_Penalty_Charging>
0

> <r_epik_Ionization_Penalty_Neutral>
0.968507

> <r_epik_State_Penalty>
1.01412

> <r_epik_Charging_Adjusted_Penalty>
1.01412

> <i_epik_Tot_Q>
0

> <i_epik_Tot_abs_Q>
0

> <r_epik_Metal_State_Penalty>
1.01401

> <b_epik_Metal_Only>
0

> <s_lp_Force_Field>
OPLS_2005

> <r_lp_Energy>
12.4601

> <b_lp_Chiralities_Consistent>
1

> <s_lp_Variant>
AV-unprocessed.smi:2684-4

> <Gold.Version>
5.8.1

> <Gold.Id.Protein>
6NUR|6NUR_protein|mol2

> <Gold.PLP.Fitness>
43.0250

> <Gold.PLP.PLP>
-36.3397

> <Gold.PLP.part.hbond>
-3.0000

> <Gold.PLP.part.metal>
0.0000

> <Gold.PLP.part.buried>
-1.3972

> <Gold.PLP.part.nonpolar>
-33.1877

> <Gold.PLP.part.repulsive>
1.8499

> <Gold.PLP.ligand.clash>
0.0000

> <Gold.PLP.ligand.torsion>
0.9431

> <Gold.PLP.Chemscore.Hbond>
1.9687

> <Gold.PLP.Chemscore.CHOScore>
0.8730

> <Gold.PLP.Chemscore.Metal>
0.0000

> <Gold.Chemscore.Hbonds>
donor molecule, donor type, donor heavy atom, donor atom, acceptor molecule, acceptor atom, score
      L1  H     9    31       P1 10175  0.02
      L1  H    13    34       P1  7948  1.00
      P1  H  7989  7998       L1     4  0.95
      L1  C    20    44       P1  8028  0.85

> <Gold.PLP.Chemscore.Internal.Correction>
0.0463

> <Gold.Rescore>
     Score         DG    S(hbond)    S(metal)    S(lipo)     H(rot)  DE(clash)    DE(int)     intcor
     12.33     -14.76       1.68        0.00      74.59       1.97       0.03       2.39       ----

> <Gold.Chemscore.Fitness>
12.3304

> <Gold.Chemscore.DG>
-14.7552

> <Gold.Chemscore.ZeroCoef>
-5.4800

> <Gold.Chemscore.Hbond>
1.6769

> <Gold.Chemscore.Metal>
0.0000

> <Gold.Chemscore.Lipo>
74.5881

> <Gold.Chemscore.Internal_Hbond>
0.0000

> <Gold.Chemscore.DEClash>
0.0323

> <Gold.Chemscore.DEInternal>
2.3925

> <Gold.Chemscore.Rot>
1.9736

> <Gold.Chemscore.Internal.Correction>
   9.000000E+99

> <Gold.Chemscore.Hbonds>
donor molecule, donor type, donor heavy atom, donor atom, acceptor molecule, acceptor atom, score
      L1  H     9    31       P1 10175  0.01
      L1  H    13    34       P1  7948  1.00
      P1  H  7989  7998       L1     4  0.06

> <Gold.Chemscore.Hbond.Weighted>
-5.6007

> <Gold.Chemscore.Metal.Weighted>
-0.0000

> <Gold.Chemscore.Lipo.Weighted>
-8.7268

> <Gold.Chemscore.Internal_Hbond.Weighted>
0.0000

> <Gold.Chemscore.DEClash.Weighted>
0.0323

> <Gold.Chemscore.DEInternal.Weighted>
2.3925

> <Gold.Chemscore.Rot.Weighted>
5.0523

> <Gold.Chemscore.Internal.Correction.Weighted>
   9.000000E+99

> <Gold.Protein.RotatedTorsions>
[ 6907 6896 6895 6894 ] final   56.77 input  -60.11 | X-H torsion
[ 7974 7965 7964 7962 ] final -109.16 input  175.53 | X-H torsion
[ 8008 7997 7996 7995 ] final -121.45 input   59.86 | X-H torsion
[ 10167 10162 10161 10158 ] final  -61.61 input  -65.29 | X-H torsion
[ 10718 10713 10712 10709 ] final -116.30 input   66.30 | X-H torsion
[ 10763 10752 10751 10750 ] final -101.95 input  -60.55 | X-H torsion
[ 11005 11000 10999 10996 ] final   91.40 input  -57.11 | X-H torsion

> <Gold.Protein.ActiveResidues>
 VAL166  LYS551  ARG553  GLY616  TRP617  ASP618  TYR619  PRO620  LYS621  CYS622 
 ASP623  PHE694  ASN695  SER759  ASP760  ASP761  ALA762  ILE779  LEU786  VAL792 
 PHE793  MET794  SER795  GLU796  ALA797  LYS798  CYS799  TRP800  GLU811  SER814 

> <Gold.Protein.RotatedAtoms>
  152.3668  134.6793  160.0189 H   0  0  0  0  0  0  0  0  0  0  0  0  # atno 6907 bound_to 6896
  151.7099  133.3306  159.3296 H   0  0  0  0  0  0  0  0  0  0  0  0  # atno 6908 bound_to 6896
  150.7644  134.6476  159.6315 H   0  0  0  0  0  0  0  0  0  0  0  0  # atno 6909 bound_to 6896
  145.1839  140.8984  143.3464 H   0  0  0  0  0  0  0  0  0  0  0  0  # atno 7974 bound_to 7965
  155.1482  140.0403  157.2815 H   0  0  0  0  0  0  0  0  0  0  0  0  # atno 8008 bound_to 7997
  154.6423  140.2550  155.7281 H   0  0  0  0  0  0  0  0  0  0  0  0  # atno 8009 bound_to 7997
  156.2538  140.2853  156.0822 H   0  0  0  0  0  0  0  0  0  0  0  0  # atno 8010 bound_to 7997
  140.5994  143.2358  151.5962 H   0  0  0  0  0  0  0  0  0  0  0  0  # atno 10167 bound_to 10162
  156.0954  130.6128  150.9017 H   0  0  0  0  0  0  0  0  0  0  0  0  # atno 10718 bound_to 10713
  154.7697  135.4879  153.9624 H   0  0  0  0  0  0  0  0  0  0  0  0  # atno 10763 bound_to 10752
  153.1352  135.6761  153.9122 H   0  0  0  0  0  0  0  0  0  0  0  0  # atno 10764 bound_to 10752
  153.8813  135.3132  155.3424 H   0  0  0  0  0  0  0  0  0  0  0  0  # atno 10765 bound_to 10752
  139.8839  134.8672  156.3423 H   0  0  0  0  0  0  0  0  0  0  0  0  # atno 11005 bound_to 11000
  145.0108  139.3511  143.6121 LP  0  0  0  0  0  0  0  0  0  0  0  0  # atno 17320 bound_to 7965
  146.3448  139.9370  142.8746 LP  0  0  0  0  0  0  0  0  0  0  0  0  # atno 17321 bound_to 7965
  139.5281  144.2999  152.1082 LP  0  0  0  0  0  0  0  0  0  0  0  0  # atno 17342 bound_to 10162
  140.2177  144.4498  150.6356 LP  0  0  0  0  0  0  0  0  0  0  0  0  # atno 17343 bound_to 10162
  157.6113  131.0936  150.8789 LP  0  0  0  0  0  0  0  0  0  0  0  0  # atno 17370 bound_to 10713
  156.8928  130.5219  149.5285 LP  0  0  0  0  0  0  0  0  0  0  0  0  # atno 17371 bound_to 10713
  140.9650  133.7364  156.0454 LP  0  0  0  0  0  0  0  0  0  0  0  0  # atno 17394 bound_to 11000
  140.7942  134.3583  157.5457 LP  0  0  0  0  0  0  0  0  0  0  0  0  # atno 17395 bound_to 11000

$$$$
