AV-unprocessed.smi:35|AV-procd|sdf|275|dock4
  -GOLD-   2262016 43D 1   1.00000     0.00000
 Structure written by MMmdl.
 28 29  0  0  0  0  0  0  0  0  2 V2000
  152.7848  140.9115  158.7130 O   0  0  0  0  0  0  0  0  0  0  0  0
  152.0744  140.8736  157.7100 C   0  0  0  0  0  0  0  0  0  0  0  0
  152.3140  140.0301  156.6644 N   0  5  0  0  0  0  0  0  0  0  0  0
  151.5222  139.9921  155.5526 C   0  0  0  0  0  0  0  0  0  0  0  0
  151.7196  139.2237  154.6109 O   0  0  0  0  0  0  0  0  0  0  0  0
  150.4048  140.8678  155.4713 N   0  0  0  0  0  0  0  0  0  0  0  0
  149.5328  140.8261  154.2296 C   0  0  2  0  0  0  0  0  0  0  0  0
  148.7105  141.9584  154.1935 O   0  0  0  0  0  0  0  0  0  0  0  0
  147.3625  141.5961  154.4802 C   0  0  1  0  0  0  0  0  0  0  0  0
  146.4045  142.6394  153.8854 C   0  0  0  0  0  0  0  0  0  0  0  0
  145.0778  142.3616  154.2797 O   0  0  0  0  0  0  0  0  0  0  0  0
  147.2690  140.2251  153.8122 C   0  0  2  0  0  0  0  0  0  0  0  0
  146.1477  139.4716  154.2355 O   0  0  0  0  0  0  0  0  0  0  0  0
  148.6064  139.5872  154.1748 C   0  0  2  0  0  0  0  0  0  0  0  0
  148.5385  138.8700  155.3985 O   0  0  0  0  0  0  0  0  0  0  0  0
  150.1347  141.7328  156.5193 C   0  0  0  0  0  0  0  0  0  0  0  0
  150.9189  141.7621  157.6158 C   0  0  0  0  0  0  0  0  0  0  0  0
  150.4134  143.0472  159.0372 Br  0  0  0  0  0  0  0  0  0  0  0  0
  150.2206  140.8923  153.3848 H   0  0  0  0  0  0  0  0  0  0  0  0
  147.2190  141.4923  155.5575 H   0  0  0  0  0  0  0  0  0  0  0  0
  146.6854  143.6510  154.1798 H   0  0  0  0  0  0  0  0  0  0  0  0
  146.4358  142.5990  152.7961 H   0  0  0  0  0  0  0  0  0  0  0  0
  144.8089  141.5496  153.8781 H   0  0  0  0  0  0  0  0  0  0  0  0
  147.2185  140.3516  152.7296 H   0  0  0  0  0  0  0  0  0  0  0  0
  145.3892  139.7742  153.7602 H   0  0  0  0  0  0  0  0  0  0  0  0
  148.9515  138.9077  153.3947 H   0  0  0  0  0  0  0  0  0  0  0  0
  147.6737  138.9874  155.7622 H   0  0  0  0  0  0  0  0  0  0  0  0
  149.2870  142.3989  156.4744 H   0  0  0  0  0  0  0  0  0  0  0  0
  1  2  2  0  0  0  0
  2 17  1  0  0  0  0
  2  3  1  0  0  0  0
  3  4  1  0  0  0  0
  4  5  2  0  0  0  0
  4  6  1  0  0  0  0
  6  7  1  0  0  0  0
  6 16  1  0  0  0  0
  7 14  1  0  0  0  0
  7  8  1  0  0  0  0
  7 19  1  0  0  0  0
  8  9  1  0  0  0  0
  9 10  1  0  0  0  0
  9 12  1  0  0  0  0
  9 20  1  0  0  0  0
 10 11  1  0  0  0  0
 10 21  1  0  0  0  0
 10 22  1  0  0  0  0
 11 23  1  0  0  0  0
 12 13  1  0  0  0  0
 12 14  1  0  0  0  0
 12 24  1  0  0  0  0
 13 25  1  0  0  0  0
 14 15  1  0  0  0  0
 14 26  1  0  0  0  0
 15 27  1  0  0  0  0
 16 17  2  0  0  0  0
 16 28  1  0  0  0  0
 17 18  1  0  0  0  0
M  CHG  1   3  -1
M  END
> <s_m_source_file>
AV-unprocessed.smi

> <i_m_source_file_index>
35

> <i_lp_mmshare_version>
43012

> <i_f3d_flags>
0

> <s_epik_input>
Tz1jMVtuSF1jKD1PKW4oW2NIXWMxQnIpW0NAQEhdMk9bQ0BASF0oW0NIMl1bT0hdKVtDQEBIXShbT0hdKVtDQEhdMltPSF0=

> <s_epik_cmdline>
J2VwaWtfcHl0aG9uJywgJy1waCcsICc3LjAnLCAnLXRuJywgJzgnLCAnLW1hJywgJzIwMCcsICctbWV0YWxfYmluZGluZycsICctaW1hZScsICc8aW5maWxlLm1hZT4nLCAnLW9tYWUnLCAnPG91dGZpbGUubWFlPic=

> <r_epik_Ionization_Penalty>
1.06112

> <r_epik_Ionization_Penalty_Charging>
2.1796e-09

> <r_epik_Ionization_Penalty_Neutral>
1.06112

> <r_epik_State_Penalty>
1.11484

> <r_epik_Charging_Adjusted_Penalty>
1.11484

> <i_epik_Tot_Q>
-1

> <i_epik_Tot_abs_Q>
1

> <r_epik_Metal_State_Penalty>
0.0032876

> <b_epik_Metal_Only>
0

> <s_epik_Chemistry_Notes>
This compound contains an acetal/aminal-like group ( X-CH(R)-Y where X, Y are N, S, or O) that may be acid/base labile, releasing an aldehyde.

> <s_lp_Force_Field>
OPLS_2005

> <r_lp_Energy>
47.3884

> <b_lp_Chiralities_Consistent>
1

> <s_lp_Variant>
AV-unprocessed.smi:35-29

> <Gold.Version>
5.8.1

> <Gold.Id.Protein>
6NUR|6NUR_protein|mol2

> <Gold.PLP.Fitness>
41.2102

> <Gold.PLP.PLP>
-28.2562

> <Gold.PLP.part.hbond>
-4.9512

> <Gold.PLP.part.metal>
0.0000

> <Gold.PLP.part.buried>
0.4444

> <Gold.PLP.part.nonpolar>
-23.8540

> <Gold.PLP.part.repulsive>
0.2664

> <Gold.PLP.ligand.clash>
0.0000

> <Gold.PLP.ligand.torsion>
0.4166

> <Gold.PLP.Chemscore.Hbond>
3.5711

> <Gold.PLP.Chemscore.CHOScore>
1.0000

> <Gold.PLP.Chemscore.Metal>
0.0000

> <Gold.Chemscore.Hbonds>
donor molecule, donor type, donor heavy atom, donor atom, acceptor molecule, acceptor atom, score
      L1  H    11    23       P1 10175  0.81
      L1  H    13    25       P1 10175  0.46
      P1  H  7989  7998       L1     5  0.25
      P1  H  7997  8009       L1     3  1.98
      P1  H  8011  8017       L1     8  0.06
      L1  C    16    28       P1  8028  1.00

> <Gold.PLP.Chemscore.Internal.Correction>
0.0740

> <Gold.Rescore>
     Score         DG    S(hbond)    S(metal)    S(lipo)     H(rot)  DE(clash)    DE(int)     intcor
      4.37      -5.15       1.23        0.00      41.36       3.63       0.31       0.47       ----

> <Gold.Chemscore.Fitness>
4.3729

> <Gold.Chemscore.DG>
-5.1454

> <Gold.Chemscore.ZeroCoef>
-5.4800

> <Gold.Chemscore.Hbond>
1.2304

> <Gold.Chemscore.Metal>
0.0000

> <Gold.Chemscore.Lipo>
41.3554

> <Gold.Chemscore.Internal_Hbond>
0.0000

> <Gold.Chemscore.DEClash>
0.3061

> <Gold.Chemscore.DEInternal>
0.4664

> <Gold.Chemscore.Rot>
3.6261

> <Gold.Chemscore.Internal.Correction>
   9.000000E+99

> <Gold.Chemscore.Hbonds>
donor molecule, donor type, donor heavy atom, donor atom, acceptor molecule, acceptor atom, score
      L1  H    11    23       P1 10175  0.15
      L1  H    13    25       P1 10175  0.46
      P1  H  7997  8009       L1     3  0.35

> <Gold.Chemscore.Hbond.Weighted>
-4.1096

> <Gold.Chemscore.Metal.Weighted>
-0.0000

> <Gold.Chemscore.Lipo.Weighted>
-4.8386

> <Gold.Chemscore.Internal_Hbond.Weighted>
0.0000

> <Gold.Chemscore.DEClash.Weighted>
0.3061

> <Gold.Chemscore.DEInternal.Weighted>
0.4664

> <Gold.Chemscore.Rot.Weighted>
9.2828

> <Gold.Chemscore.Internal.Correction.Weighted>
   9.000000E+99

> <Gold.Protein.RotatedTorsions>
[ 6907 6896 6895 6894 ] final   -1.43 input  -60.11 | X-H torsion
[ 7974 7965 7964 7962 ] final -104.56 input  175.53 | X-H torsion
[ 8008 7997 7996 7995 ] final -168.60 input   59.86 | X-H torsion
[ 10167 10162 10161 10158 ] final  -27.37 input  -65.29 | X-H torsion
[ 10718 10713 10712 10709 ] final  -94.38 input   66.30 | X-H torsion
[ 10763 10752 10751 10750 ] final -177.13 input  -60.55 | X-H torsion
[ 11005 11000 10999 10996 ] final -172.83 input  -57.11 | X-H torsion

> <Gold.Protein.ActiveResidues>
 VAL166  LYS551  ARG553  GLY616  TRP617  ASP618  TYR619  PRO620  LYS621  CYS622 
 ASP623  PHE694  ASN695  SER759  ASP760  ASP761  ALA762  ILE779  LEU786  VAL792 
 PHE793  MET794  SER795  GLU796  ALA797  LYS798  CYS799  TRP800  GLU811  SER814 

> <Gold.Protein.RotatedAtoms>
  151.5462  135.1068  159.9938 H   0  0  0  0  0  0  0  0  0  0  0  0  # atno 6907 bound_to 6896
  152.4513  133.7630  159.6767 H   0  0  0  0  0  0  0  0  0  0  0  0  # atno 6908 bound_to 6896
  150.8442  133.7821  159.3074 H   0  0  0  0  0  0  0  0  0  0  0  0  # atno 6909 bound_to 6896
  145.2416  140.9207  143.3146 H   0  0  0  0  0  0  0  0  0  0  0  0  # atno 7974 bound_to 7965
  155.8937  140.1029  157.1400 H   0  0  0  0  0  0  0  0  0  0  0  0  # atno 8008 bound_to 7997
  154.4018  140.1306  156.4412 H   0  0  0  0  0  0  0  0  0  0  0  0  # atno 8009 bound_to 7997
  155.7504  140.3465  155.5150 H   0  0  0  0  0  0  0  0  0  0  0  0  # atno 8010 bound_to 7997
  140.7277  143.4099  151.1123 H   0  0  0  0  0  0  0  0  0  0  0  0  # atno 10167 bound_to 10162
  156.0026  130.5065  150.5918 H   0  0  0  0  0  0  0  0  0  0  0  0  # atno 10718 bound_to 10713
  154.5639  135.2822  155.0893 H   0  0  0  0  0  0  0  0  0  0  0  0  # atno 10763 bound_to 10752
  154.2291  135.6377  153.5173 H   0  0  0  0  0  0  0  0  0  0  0  0  # atno 10764 bound_to 10752
  153.0037  135.5533  154.6241 H   0  0  0  0  0  0  0  0  0  0  0  0  # atno 10765 bound_to 10752
  140.4925  134.5971  157.4960 H   0  0  0  0  0  0  0  0  0  0  0  0  # atno 11005 bound_to 11000
  144.9583  139.4007  143.6368 LP  0  0  0  0  0  0  0  0  0  0  0  0  # atno 17320 bound_to 7965
  146.3327  139.8624  142.8854 LP  0  0  0  0  0  0  0  0  0  0  0  0  # atno 17321 bound_to 7965
  139.7730  143.8466  152.3124 LP  0  0  0  0  0  0  0  0  0  0  0  0  # atno 17342 bound_to 10162
  139.8391  144.7218  150.9354 LP  0  0  0  0  0  0  0  0  0  0  0  0  # atno 17343 bound_to 10162
  157.3781  131.0776  151.1500 LP  0  0  0  0  0  0  0  0  0  0  0  0  # atno 17370 bound_to 10713
  157.2231  130.6490  149.5819 LP  0  0  0  0  0  0  0  0  0  0  0  0  # atno 17371 bound_to 10713
  139.9760  134.7214  155.9948 LP  0  0  0  0  0  0  0  0  0  0  0  0  # atno 17394 bound_to 11000
  141.1477  133.6553  156.3916 LP  0  0  0  0  0  0  0  0  0  0  0  0  # atno 17395 bound_to 11000

$$$$
