AV-unprocessed.smi:199|AV-procd|sdf|1571|dock2
  -GOLD-   2262019453D 1   1.00000     0.00000
 Structure written by MMmdl.
 51 55  0  0  0  0  0  0  0  0  1 V2000
  145.7521  129.8534  151.6080 C   0  0  0  0  0  0  0  0  0  0  0  0
  145.9769  131.2119  150.9259 C   0  0  1  0  0  0  0  0  0  0  0  0
  144.6957  131.7838  150.6737 O   0  0  0  0  0  0  0  0  0  0  0  0
  144.8029  133.1951  150.7336 C   0  0  0  0  0  0  0  0  0  0  0  0
  145.7432  133.4013  151.9108 C   0  0  0  0  0  0  0  0  0  0  0  0
  146.7652  132.2815  151.7344 C   0  0  2  0  0  0  0  0  0  0  0  0
  147.8020  132.7712  150.8998 O   0  0  0  0  0  0  0  0  0  0  0  0
  147.4093  131.8095  153.0652 C   0  0  0  0  0  0  0  0  0  0  0  0
  148.2808  132.8071  153.6683 N   0  0  0  0  0  0  0  0  0  0  0  0
  149.6359  132.6999  153.8787 C   0  0  0  0  0  0  0  0  0  0  0  0
  150.1951  133.7399  154.4326 N   0  0  0  0  0  0  0  0  0  0  0  0
  149.1499  134.6372  154.6219 C   0  0  0  0  0  0  0  0  0  0  0  0
  149.0443  135.9538  155.1612 C   0  0  0  0  0  0  0  0  0  0  0  0
  150.0952  136.6752  155.6423 N   0  0  0  0  0  0  0  0  0  0  0  0
  151.1523  137.1386  154.7542 C   0  0  1  0  0  0  0  0  0  0  0  0
  150.4969  138.2891  153.9658 C   0  0  0  0  0  0  0  0  0  0  0  0
  149.5711  138.8916  155.0334 C   0  0  0  0  0  0  0  0  0  0  0  0
  149.8739  137.9825  156.2479 C   0  0  2  0  0  0  0  0  0  0  0  0
  151.2661  138.2803  156.8455 C   0  0  2  0  0  0  0  0  0  0  0  0
  151.5331  139.7380  157.2646 C   0  0  0  0  0  0  0  0  0  0  0  0
  152.8645  139.8741  157.7133 O   0  0  0  0  0  0  0  0  0  0  0  0
  152.1807  137.7326  155.7341 C   0  0  0  0  0  0  0  0  0  0  0  0
  147.8017  136.5039  155.2123 N   0  0  0  0  0  0  0  0  0  0  0  0
  146.7421  135.8381  154.7471 C   0  0  0  0  0  0  0  0  0  0  0  0
  146.6964  134.6228  154.2014 N   0  0  0  0  0  0  0  0  0  0  0  0
  147.9343  134.0531  154.1608 C   0  0  0  0  0  0  0  0  0  0  0  0
  146.6969  129.3550  151.8251 H   0  0  0  0  0  0  0  0  0  0  0  0
  145.1753  129.1910  150.9623 H   0  0  0  0  0  0  0  0  0  0  0  0
  145.1980  129.9607  152.5407 H   0  0  0  0  0  0  0  0  0  0  0  0
  146.4549  131.0362  149.9602 H   0  0  0  0  0  0  0  0  0  0  0  0
  145.2387  133.5739  149.8076 H   0  0  0  0  0  0  0  0  0  0  0  0
  143.8315  133.6675  150.8801 H   0  0  0  0  0  0  0  0  0  0  0  0
  146.1818  134.3997  151.9430 H   0  0  0  0  0  0  0  0  0  0  0  0
  145.1810  133.2552  152.8337 H   0  0  0  0  0  0  0  0  0  0  0  0
  148.3660  132.0494  150.6683 H   0  0  0  0  0  0  0  0  0  0  0  0
  146.6397  131.5612  153.7962 H   0  0  0  0  0  0  0  0  0  0  0  0
  147.9901  130.8996  152.9083 H   0  0  0  0  0  0  0  0  0  0  0  0
  150.2018  131.8224  153.6011 H   0  0  0  0  0  0  0  0  0  0  0  0
  151.6014  136.3813  154.1149 H   0  0  0  0  0  0  0  0  0  0  0  0
  151.2238  139.0046  153.5803 H   0  0  0  0  0  0  0  0  0  0  0  0
  149.9177  137.9078  153.1238 H   0  0  0  0  0  0  0  0  0  0  0  0
  149.7548  139.9494  155.2157 H   0  0  0  0  0  0  0  0  0  0  0  0
  148.5292  138.7940  154.7265 H   0  0  0  0  0  0  0  0  0  0  0  0
  149.0911  138.0051  157.0069 H   0  0  0  0  0  0  0  0  0  0  0  0
  151.3778  137.6484  157.7290 H   0  0  0  0  0  0  0  0  0  0  0  0
  151.3724  140.4326  156.4405 H   0  0  0  0  0  0  0  0  0  0  0  0
  150.8635  140.0280  158.0745 H   0  0  0  0  0  0  0  0  0  0  0  0
  152.8538  140.0116  158.6483 H   0  0  0  0  0  0  0  0  0  0  0  0
  152.8390  136.9581  156.1294 H   0  0  0  0  0  0  0  0  0  0  0  0
  152.8040  138.4961  155.2674 H   0  0  0  0  0  0  0  0  0  0  0  0
  145.7960  136.3532  154.8226 H   0  0  0  0  0  0  0  0  0  0  0  0
  1  2  1  0  0  0  0
  1 27  1  0  0  0  0
  1 28  1  0  0  0  0
  1 29  1  0  0  0  0
  2  6  1  0  0  0  0
  2  3  1  0  0  0  0
  2 30  1  0  0  0  0
  3  4  1  0  0  0  0
  4  5  1  0  0  0  0
  4 31  1  0  0  0  0
  4 32  1  0  0  0  0
  5  6  1  0  0  0  0
  5 33  1  0  0  0  0
  5 34  1  0  0  0  0
  6  7  1  0  0  0  0
  6  8  1  0  0  0  0
  7 35  1  0  0  0  0
  8  9  1  0  0  0  0
  8 36  1  0  0  0  0
  8 37  1  0  0  0  0
  9 26  1  0  0  0  0
  9 10  1  0  0  0  0
 10 11  2  0  0  0  0
 10 38  1  0  0  0  0
 11 12  1  0  0  0  0
 12 26  2  0  0  0  0
 12 13  1  0  0  0  0
 13 14  1  0  0  0  0
 13 23  2  0  0  0  0
 14 18  1  0  0  0  0
 14 15  1  0  0  0  0
 15 22  1  0  0  0  0
 15 16  1  0  0  0  0
 15 39  1  0  0  0  0
 16 17  1  0  0  0  0
 16 40  1  0  0  0  0
 16 41  1  0  0  0  0
 17 18  1  0  0  0  0
 17 42  1  0  0  0  0
 17 43  1  0  0  0  0
 18 19  1  0  0  0  0
 18 44  1  0  0  0  0
 19 20  1  0  0  0  0
 19 22  1  0  0  0  0
 19 45  1  0  0  0  0
 20 21  1  0  0  0  0
 20 46  1  0  0  0  0
 20 47  1  0  0  0  0
 21 48  1  0  0  0  0
 22 49  1  0  0  0  0
 22 50  1  0  0  0  0
 23 24  1  0  0  0  0
 24 25  2  0  0  0  0
 24 51  1  0  0  0  0
 25 26  1  0  0  0  0
M  END
> <s_m_source_file>
AV-unprocessed.smi

> <i_m_source_file_index>
199

> <i_lp_mmshare_version>
43012

> <i_f3d_flags>
0

> <s_epik_input>
W0NIMl0xW0NIMl1PW0NAQEhdKFtDSDNdKVtDQEBdMShbT0hdKVtDSDJdbihbY0hdbjIpYyhjMjMpbltjSF1uYzNOKFtDQEBIXTQ1KVtDQEhdKFtDSDJdW0NIMl00KVtDQEhdKFtDSDJdNSlbQ0gyXVtPSF0=

> <s_epik_cmdline>
J2VwaWtfcHl0aG9uJywgJy1waCcsICc3LjAnLCAnLXRuJywgJzgnLCAnLW1hJywgJzIwMCcsICctbWV0YWxfYmluZGluZycsICctaW1hZScsICc8aW5maWxlLm1hZT4nLCAnLW9tYWUnLCAnPG91dGZpbGUubWFlPic=

> <r_lp_tautomer_probability>
1

> <r_epik_Ionization_Penalty>
0.00583903

> <r_epik_Ionization_Penalty_Charging>
0

> <r_epik_Ionization_Penalty_Neutral>
0.00583903

> <r_epik_State_Penalty>
-0

> <r_epik_Charging_Adjusted_Penalty>
0

> <i_epik_Tot_Q>
0

> <i_epik_Tot_abs_Q>
0

> <r_epik_Metal_State_Penalty>
-0

> <b_epik_Metal_Only>
0

> <s_lp_Force_Field>
OPLS_2005

> <r_lp_Energy>
83.1527

> <b_lp_Chiralities_Consistent>
1

> <s_lp_Variant>
AV-unprocessed.smi:199-12

> <Gold.Version>
5.8.1

> <Gold.Id.Protein>
6NUR|6NUR_protein|mol2

> <Gold.PLP.Fitness>
38.6348

> <Gold.PLP.PLP>
-32.8146

> <Gold.PLP.part.hbond>
-2.0000

> <Gold.PLP.part.metal>
0.0000

> <Gold.PLP.part.buried>
-3.5649

> <Gold.PLP.part.nonpolar>
-28.0173

> <Gold.PLP.part.repulsive>
0.5022

> <Gold.PLP.ligand.clash>
0.0000

> <Gold.PLP.ligand.torsion>
0.1217

> <Gold.PLP.Chemscore.Hbond>
2.0000

> <Gold.PLP.Chemscore.CHOScore>
0.0000

> <Gold.PLP.Chemscore.Metal>
0.0000

> <Gold.Chemscore.Hbonds>
donor molecule, donor type, donor heavy atom, donor atom, acceptor molecule, acceptor atom, score
      L1  H     7    35       P1 10747  0.63
      P1  H  7997  8010       L1    21  1.00

> <Gold.PLP.Chemscore.Internal.Correction>
0.0636

> <Gold.Rescore>
     Score         DG    S(hbond)    S(metal)    S(lipo)     H(rot)  DE(clash)    DE(int)     intcor
     12.20     -13.88       1.93        0.00      83.90       3.07       0.07       1.60       ----

> <Gold.Chemscore.Fitness>
12.2015

> <Gold.Chemscore.DG>
-13.8785

> <Gold.Chemscore.ZeroCoef>
-5.4800

> <Gold.Chemscore.Hbond>
1.9309

> <Gold.Chemscore.Metal>
0.0000

> <Gold.Chemscore.Lipo>
83.8966

> <Gold.Chemscore.Internal_Hbond>
0.0000

> <Gold.Chemscore.DEClash>
0.0727

> <Gold.Chemscore.DEInternal>
1.6043

> <Gold.Chemscore.Rot>
3.0729

> <Gold.Chemscore.Internal.Correction>
   9.000000E+99

> <Gold.Chemscore.Hbonds>
donor molecule, donor type, donor heavy atom, donor atom, acceptor molecule, acceptor atom, score
      L1  H     7    35       P1 10747  0.63
      P1  H  7997  8010       L1    21  0.87

> <Gold.Chemscore.Hbond.Weighted>
-6.4493

> <Gold.Chemscore.Metal.Weighted>
-0.0000

> <Gold.Chemscore.Lipo.Weighted>
-9.8159

> <Gold.Chemscore.Internal_Hbond.Weighted>
0.0000

> <Gold.Chemscore.DEClash.Weighted>
0.0727

> <Gold.Chemscore.DEInternal.Weighted>
1.6043

> <Gold.Chemscore.Rot.Weighted>
7.8667

> <Gold.Chemscore.Internal.Correction.Weighted>
   9.000000E+99

> <Gold.Protein.RotatedTorsions>
[ 6907 6896 6895 6894 ] final  -33.89 input  -60.11 | X-H torsion
[ 7974 7965 7964 7962 ] final  104.50 input  175.53 | X-H torsion
[ 8008 7997 7996 7995 ] final   39.34 input   59.86 | X-H torsion
[ 10167 10162 10161 10158 ] final -107.64 input  -65.29 | X-H torsion
[ 10718 10713 10712 10709 ] final -136.14 input   66.30 | X-H torsion
[ 10763 10752 10751 10750 ] final  116.98 input  -60.55 | X-H torsion
[ 11005 11000 10999 10996 ] final -153.24 input  -57.11 | X-H torsion

> <Gold.Protein.ActiveResidues>
 VAL166  LYS551  ARG553  GLY616  TRP617  ASP618  TYR619  PRO620  LYS621  CYS622 
 ASP623  PHE694  ASN695  SER759  ASP760  ASP761  ALA762  ILE779  LEU786  VAL792 
 PHE793  MET794  SER795  GLU796  ALA797  LYS798  CYS799  TRP800  GLU811  SER814 

> <Gold.Protein.RotatedAtoms>
  151.0598  134.9729  159.8254 H   0  0  0  0  0  0  0  0  0  0  0  0  # atno 6907 bound_to 6896
  152.5393  134.2432  159.8880 H   0  0  0  0  0  0  0  0  0  0  0  0  # atno 6908 bound_to 6896
  151.2452  133.4336  159.2643 H   0  0  0  0  0  0  0  0  0  0  0  0  # atno 6909 bound_to 6896
  145.3320  139.2484  143.3655 H   0  0  0  0  0  0  0  0  0  0  0  0  # atno 7974 bound_to 7965
  155.2351  140.3341  155.4299 H   0  0  0  0  0  0  0  0  0  0  0  0  # atno 8008 bound_to 7997
  156.2279  140.1837  156.7362 H   0  0  0  0  0  0  0  0  0  0  0  0  # atno 8009 bound_to 7997
  154.5929  140.0635  156.9249 H   0  0  0  0  0  0  0  0  0  0  0  0  # atno 8010 bound_to 7997
  140.1747  143.4014  152.1327 H   0  0  0  0  0  0  0  0  0  0  0  0  # atno 10167 bound_to 10162
  156.2738  130.7281  151.1257 H   0  0  0  0  0  0  0  0  0  0  0  0  # atno 10718 bound_to 10713
  153.5454  135.3550  155.2736 H   0  0  0  0  0  0  0  0  0  0  0  0  # atno 10763 bound_to 10752
  154.8713  135.4101  154.2997 H   0  0  0  0  0  0  0  0  0  0  0  0  # atno 10764 bound_to 10752
  153.3712  135.7064  153.6704 H   0  0  0  0  0  0  0  0  0  0  0  0  # atno 10765 bound_to 10752
  140.7102  134.3841  157.5198 H   0  0  0  0  0  0  0  0  0  0  0  0  # atno 11005 bound_to 11000
  146.3042  140.3900  142.8693 LP  0  0  0  0  0  0  0  0  0  0  0  0  # atno 17320 bound_to 7965
  144.8857  140.7458  143.5958 LP  0  0  0  0  0  0  0  0  0  0  0  0  # atno 17321 bound_to 7965
  139.5322  144.7171  151.5016 LP  0  0  0  0  0  0  0  0  0  0  0  0  # atno 17342 bound_to 10162
  140.6559  143.8601  150.6834 LP  0  0  0  0  0  0  0  0  0  0  0  0  # atno 17343 bound_to 10162
  157.7292  131.0625  150.5782 LP  0  0  0  0  0  0  0  0  0  0  0  0  # atno 17370 bound_to 10713
  156.5881  130.4322  149.5948 LP  0  0  0  0  0  0  0  0  0  0  0  0  # atno 17371 bound_to 10713
  139.8873  134.8885  156.2533 LP  0  0  0  0  0  0  0  0  0  0  0  0  # atno 17394 bound_to 11000
  141.0091  133.7106  156.1082 LP  0  0  0  0  0  0  0  0  0  0  0  0  # atno 17395 bound_to 11000

$$$$
