AV-unprocessed.smi:160|AV-procd|sdf|1359|dock9
  -GOLD-   2262019 63D 1   1.00000     0.00000
 Structure written by MMmdl.
 28 29  0  0  0  0  0  0  0  0  2 V2000
  147.9291  143.4546  158.8367 N   0  5  0  0  0  0  0  0  0  0  0  0
  146.8656  142.6314  158.7075 C   0  0  0  0  0  0  0  0  0  0  0  0
  146.1609  142.2037  159.6210 O   0  0  0  0  0  0  0  0  0  0  0  0
  146.5545  142.2296  157.2854 C   0  0  0  0  0  0  0  0  0  0  0  0
  145.2599  142.0935  156.8648 N   0  0  0  0  0  0  0  0  0  0  0  0
  145.4815  141.7419  155.6049 C   0  0  0  0  0  0  0  0  0  0  0  0
  146.7743  141.6787  155.2736 N   0  0  0  0  0  0  0  0  0  0  0  0
  147.4179  141.2941  153.9805 C   0  0  2  0  0  0  0  0  0  0  0  0
  146.5384  140.4320  153.3208 O   0  0  0  0  0  0  0  0  0  0  0  0
  147.1458  139.1651  153.0719 C   0  0  2  0  0  0  0  0  0  0  0  0
  146.0953  138.0541  153.2249 C   0  0  0  0  0  0  0  0  0  0  0  0
  146.6887  136.7894  153.0220 O   0  0  0  0  0  0  0  0  0  0  0  0
  148.2722  139.0811  154.1044 C   0  0  1  0  0  0  0  0  0  0  0  0
  149.3186  138.2068  153.7224 O   0  0  0  0  0  0  0  0  0  0  0  0
  148.7258  140.5300  154.2285 C   0  0  1  0  0  0  0  0  0  0  0  0
  149.7043  140.8840  153.2680 O   0  0  0  0  0  0  0  0  0  0  0  0
  147.5021  141.9859  156.3752 N   0  0  0  0  0  0  0  0  0  0  0  0
  147.5443  142.2369  153.4465 H   0  0  0  0  0  0  0  0  0  0  0  0
  147.5751  139.1739  152.0680 H   0  0  0  0  0  0  0  0  0  0  0  0
  147.8708  138.7448  155.0611 H   0  0  0  0  0  0  0  0  0  0  0  0
  149.1289  140.7504  155.2184 H   0  0  0  0  0  0  0  0  0  0  0  0
  147.9278  144.3398  158.3163 H   0  0  0  0  0  0  0  0  0  0  0  0
  144.6843  141.5252  154.9092 H   0  0  0  0  0  0  0  0  0  0  0  0
  145.6839  138.0617  154.2343 H   0  0  0  0  0  0  0  0  0  0  0  0
  145.2627  138.2003  152.5357 H   0  0  0  0  0  0  0  0  0  0  0  0
  147.5212  136.9148  152.5927 H   0  0  0  0  0  0  0  0  0  0  0  0
  149.0543  137.7491  152.9392 H   0  0  0  0  0  0  0  0  0  0  0  0
  149.6798  140.2429  152.5740 H   0  0  0  0  0  0  0  0  0  0  0  0
  1  2  1  0  0  0  0
  1 22  1  0  0  0  0
  2  3  2  0  0  0  0
  2  4  1  0  0  0  0
  4 17  2  0  0  0  0
  4  5  1  0  0  0  0
  5  6  2  0  0  0  0
  6  7  1  0  0  0  0
  6 23  1  0  0  0  0
  7  8  1  0  0  0  0
  7 17  1  0  0  0  0
  8 18  1  0  0  0  0
  8 15  1  0  0  0  0
  8  9  1  0  0  0  0
  9 10  1  0  0  0  0
 10 19  1  0  0  0  0
 10 11  1  0  0  0  0
 10 13  1  0  0  0  0
 11 12  1  0  0  0  0
 11 24  1  0  0  0  0
 11 25  1  0  0  0  0
 12 26  1  0  0  0  0
 13 20  1  0  0  0  0
 13 14  1  0  0  0  0
 13 15  1  0  0  0  0
 14 27  1  0  0  0  0
 15 21  1  0  0  0  0
 15 16  1  0  0  0  0
 16 28  1  0  0  0  0
M  CHG  1   1  -1
M  END
> <s_m_source_file>
AV-unprocessed.smi

> <i_m_source_file_index>
160

> <i_lp_mmshare_version>
43012

> <i_f3d_flags>
0

> <s_epik_input>
W05IMl1DKD1PKWMxbltjSF1uKG4xKVtDQEBIXTJPW0NASF0oW0NIMl1bT0hdKVtDQEBIXShbT0hdKVtDQEhdMltPSF0=

> <s_epik_cmdline>
J2VwaWtfcHl0aG9uJywgJy1waCcsICc3LjAnLCAnLXRuJywgJzgnLCAnLW1hJywgJzIwMCcsICctbWV0YWxfYmluZGluZycsICctaW1hZScsICc8aW5maWxlLm1hZT4nLCAnLW9tYWUnLCAnPG91dGZpbGUubWFlPic=

> <r_lp_tautomer_probability>
1

> <r_epik_Ionization_Penalty>
6.6993

> <r_epik_Ionization_Penalty_Charging>
6.6993

> <r_epik_Ionization_Penalty_Neutral>
6.01698e-06

> <r_epik_State_Penalty>
6.69929

> <r_epik_Charging_Adjusted_Penalty>
13.3986

> <i_epik_Tot_Q>
-1

> <i_epik_Tot_abs_Q>
1

> <r_epik_Metal_State_Penalty>
2.62798

> <b_epik_Metal_Only>
1

> <s_epik_Chemistry_Notes>
This compound contains an acetal/aminal-like group ( X-CH(R)-Y where X, Y are N, S, or O) that may be acid/base labile, releasing an aldehyde.

> <s_lp_Force_Field>
OPLS_2005

> <r_lp_Energy>
41.4703

> <b_lp_Chiralities_Consistent>
1

> <s_lp_Variant>
AV-unprocessed.smi:160-17

> <Gold.Version>
5.8.1

> <Gold.Id.Protein>
6NUR|6NUR_protein|mol2

> <Gold.PLP.Fitness>
38.4554

> <Gold.PLP.PLP>
-21.3722

> <Gold.PLP.part.hbond>
-6.4494

> <Gold.PLP.part.metal>
0.0000

> <Gold.PLP.part.buried>
-3.5071

> <Gold.PLP.part.nonpolar>
-13.8484

> <Gold.PLP.part.repulsive>
1.4397

> <Gold.PLP.ligand.clash>
0.0000

> <Gold.PLP.ligand.torsion>
1.2741

> <Gold.PLP.Chemscore.Hbond>
5.8933

> <Gold.PLP.Chemscore.CHOScore>
0.6430

> <Gold.PLP.Chemscore.Metal>
0.0000

> <Gold.Chemscore.Hbonds>
donor molecule, donor type, donor heavy atom, donor atom, acceptor molecule, acceptor atom, score
      L1  H     1    22       P1  8029  1.00
      L1  H    12    26       P1  7948  0.99
      L1  H    14    27       P1  7948  1.00
      L1  H    16    28       P1  7957  0.67
      P1  H  6934  6946       L1     3  1.00
      P1  H  7989  7998       L1    16  0.18
      P1  H  8011  8017       L1    16  1.00
      L1  C     6    23       P1 10175  0.32

> <Gold.PLP.Chemscore.Internal.Correction>
0.0227

> <Gold.Rescore>
     Score         DG    S(hbond)    S(metal)    S(lipo)     H(rot)  DE(clash)    DE(int)     intcor
     11.68     -13.22       4.77        0.00      18.25       4.04       0.34       1.20       ----

> <Gold.Chemscore.Fitness>
11.6787

> <Gold.Chemscore.DG>
-13.2162

> <Gold.Chemscore.ZeroCoef>
-5.4800

> <Gold.Chemscore.Hbond>
4.7737

> <Gold.Chemscore.Metal>
0.0000

> <Gold.Chemscore.Lipo>
18.2502

> <Gold.Chemscore.Internal_Hbond>
0.0000

> <Gold.Chemscore.DEClash>
0.3364

> <Gold.Chemscore.DEInternal>
1.2012

> <Gold.Chemscore.Rot>
4.0403

> <Gold.Chemscore.Internal.Correction>
   9.000000E+99

> <Gold.Chemscore.Hbonds>
donor molecule, donor type, donor heavy atom, donor atom, acceptor molecule, acceptor atom, score
      L1  H     1    22       P1  8029  0.65
      L1  H    12    26       P1  7948  0.94
      L1  H    14    27       P1  7948  0.97
      L1  H    16    28       P1  7957  0.64
      P1  H  6934  6946       L1     3  0.94
      P1  H  7989  7998       L1    16  0.03
      P1  H  8011  8017       L1    16  0.30

> <Gold.Chemscore.Hbond.Weighted>
-15.9441

> <Gold.Chemscore.Metal.Weighted>
-0.0000

> <Gold.Chemscore.Lipo.Weighted>
-2.1353

> <Gold.Chemscore.Internal_Hbond.Weighted>
0.0000

> <Gold.Chemscore.DEClash.Weighted>
0.3364

> <Gold.Chemscore.DEInternal.Weighted>
1.2012

> <Gold.Chemscore.Rot.Weighted>
10.3431

> <Gold.Chemscore.Internal.Correction.Weighted>
   9.000000E+99

> <Gold.Protein.RotatedTorsions>
[ 6907 6896 6895 6894 ] final   75.75 input  -60.11 | X-H torsion
[ 7974 7965 7964 7962 ] final -137.05 input  175.53 | X-H torsion
[ 8008 7997 7996 7995 ] final  161.47 input   59.86 | X-H torsion
[ 10167 10162 10161 10158 ] final  -52.89 input  -65.29 | X-H torsion
[ 10718 10713 10712 10709 ] final  148.61 input   66.30 | X-H torsion
[ 10763 10752 10751 10750 ] final  -72.84 input  -60.55 | X-H torsion
[ 11005 11000 10999 10996 ] final   56.18 input  -57.11 | X-H torsion

> <Gold.Protein.ActiveResidues>
 VAL166  LYS551  ARG553  GLY616  TRP617  ASP618  TYR619  PRO620  LYS621  CYS622 
 ASP623  PHE694  ASN695  SER759  ASP760  ASP761  ALA762  ILE779  LEU786  VAL792 
 PHE793  MET794  SER795  GLU796  ALA797  LYS798  CYS799  TRP800  GLU811  SER814 

> <Gold.Protein.RotatedAtoms>
  152.5041  134.4073  159.9436 H   0  0  0  0  0  0  0  0  0  0  0  0  # atno 6907 bound_to 6896
  151.4040  133.3742  159.2743 H   0  0  0  0  0  0  0  0  0  0  0  0  # atno 6908 bound_to 6896
  150.9341  134.8775  159.7629 H   0  0  0  0  0  0  0  0  0  0  0  0  # atno 6909 bound_to 6896
  144.8874  140.6594  143.5167 H   0  0  0  0  0  0  0  0  0  0  0  0  # atno 7974 bound_to 7965
  156.2101  140.1776  156.7714 H   0  0  0  0  0  0  0  0  0  0  0  0  # atno 8008 bound_to 7997
  154.5710  140.0682  156.8994 H   0  0  0  0  0  0  0  0  0  0  0  0  # atno 8009 bound_to 7997
  155.2673  140.3340  155.4270 H   0  0  0  0  0  0  0  0  0  0  0  0  # atno 8010 bound_to 7997
  140.6514  143.2568  151.4713 H   0  0  0  0  0  0  0  0  0  0  0  0  # atno 10167 bound_to 10162
  157.3065  131.0880  151.1350 H   0  0  0  0  0  0  0  0  0  0  0  0  # atno 10718 bound_to 10713
  154.4513  135.5917  153.6193 H   0  0  0  0  0  0  0  0  0  0  0  0  # atno 10763 bound_to 10752
  152.9814  135.6021  154.3601 H   0  0  0  0  0  0  0  0  0  0  0  0  # atno 10764 bound_to 10752
  154.3463  135.2841  155.2375 H   0  0  0  0  0  0  0  0  0  0  0  0  # atno 10765 bound_to 10752
  140.0549  134.5684  155.9219 H   0  0  0  0  0  0  0  0  0  0  0  0  # atno 11005 bound_to 11000
  145.3844  139.1630  143.4263 LP  0  0  0  0  0  0  0  0  0  0  0  0  # atno 17320 bound_to 7965
  146.3033  140.3927  142.8696 LP  0  0  0  0  0  0  0  0  0  0  0  0  # atno 17321 bound_to 7965
  139.5729  144.1885  152.1863 LP  0  0  0  0  0  0  0  0  0  0  0  0  # atno 17342 bound_to 10162
  140.1187  144.5392  150.6877 LP  0  0  0  0  0  0  0  0  0  0  0  0  # atno 17343 bound_to 10162
  157.2688  130.6694  149.6009 LP  0  0  0  0  0  0  0  0  0  0  0  0  # atno 17370 bound_to 10713
  155.9675  130.4485  150.5623 LP  0  0  0  0  0  0  0  0  0  0  0  0  # atno 17371 bound_to 10713
  141.1947  133.6584  156.5609 LP  0  0  0  0  0  0  0  0  0  0  0  0  # atno 17394 bound_to 11000
  140.3859  134.7482  157.4691 LP  0  0  0  0  0  0  0  0  0  0  0  0  # atno 17395 bound_to 11000

$$$$
