AV-unprocessed.smi:1781|AV-procd|sdf|7187|dock3
  -GOLD-   22720 8423D 1   1.00000     0.00000
 Structure written by MMmdl.
 38 39  0  0  0  0  0  0  0  0  1 V2000
  154.2651  137.1453  164.5205 C   0  0  0  0  0  0  0  0  0  0  0  0
  154.0227  136.0600  163.4693 C   0  0  0  0  0  0  0  0  0  0  0  0
  155.2041  135.8859  162.7055 O   0  0  0  0  0  0  0  0  0  0  0  0
  154.9403  135.6999  161.3229 C   0  0  0  0  0  0  0  0  0  0  0  0
  154.1275  136.8807  160.7878 C   0  0  0  0  0  0  0  0  0  0  0  0
  153.0465  136.6862  160.2304 O   0  0  0  0  0  0  0  0  0  0  0  0
  154.6853  138.0919  160.9746 N   0  0  0  0  0  0  0  0  0  0  0  0
  154.1860  139.3630  160.5840 C   0  0  0  0  0  0  0  0  0  0  0  0
  154.4459  140.4130  161.4927 C   0  0  0  0  0  0  0  0  0  0  0  0
  153.9962  141.7141  161.1963 C   0  0  0  0  0  0  0  0  0  0  0  0
  153.2926  141.9384  159.9976 C   0  0  0  0  0  0  0  0  0  0  0  0
  152.8431  143.2292  159.6839 N   0  0  0  0  0  0  0  0  0  0  0  0
  152.2034  143.3076  158.3768 C   0  0  0  0  0  0  0  0  0  0  0  0
  151.8535  144.7698  158.0475 C   0  0  0  0  0  0  0  0  0  0  0  0
  151.0427  145.3153  159.0849 O   0  0  0  0  0  0  0  0  0  0  0  0
  151.7063  145.3010  160.3460 C   0  0  0  0  0  0  0  0  0  0  0  0
  152.0444  143.8507  160.7333 C   0  0  0  0  0  0  0  0  0  0  0  0
  153.0786  140.8314  159.1468 C   0  0  0  0  0  0  0  0  0  0  0  0
  153.5103  139.5845  159.4295 N   0  0  0  0  0  0  0  0  0  0  0  0
  153.3739  137.3069  165.1271 H   0  0  0  0  0  0  0  0  0  0  0  0
  154.5271  138.0937  164.0507 H   0  0  0  0  0  0  0  0  0  0  0  0
  155.0791  136.8661  165.1898 H   0  0  0  0  0  0  0  0  0  0  0  0
  153.7502  135.1237  163.9584 H   0  0  0  0  0  0  0  0  0  0  0  0
  153.1939  136.3485  162.8211 H   0  0  0  0  0  0  0  0  0  0  0  0
  155.8768  135.6221  160.7680 H   0  0  0  0  0  0  0  0  0  0  0  0
  154.3766  134.7792  161.1648 H   0  0  0  0  0  0  0  0  0  0  0  0
  155.5753  138.1027  161.4507 H   0  0  0  0  0  0  0  0  0  0  0  0
  154.9855  140.2287  162.4103 H   0  0  0  0  0  0  0  0  0  0  0  0
  154.1897  142.5263  161.8822 H   0  0  0  0  0  0  0  0  0  0  0  0
  152.8677  142.9013  157.6131 H   0  0  0  0  0  0  0  0  0  0  0  0
  151.2967  142.7008  158.3738 H   0  0  0  0  0  0  0  0  0  0  0  0
  152.7582  145.3680  157.9267 H   0  0  0  0  0  0  0  0  0  0  0  0
  151.3082  144.8226  157.1051 H   0  0  0  0  0  0  0  0  0  0  0  0
  152.6091  145.9125  160.3010 H   0  0  0  0  0  0  0  0  0  0  0  0
  151.0546  145.7484  161.0964 H   0  0  0  0  0  0  0  0  0  0  0  0
  151.1222  143.2885  160.8840 H   0  0  0  0  0  0  0  0  0  0  0  0
  152.5936  143.8328  161.6754 H   0  0  0  0  0  0  0  0  0  0  0  0
  152.5541  140.9451  158.2096 H   0  0  0  0  0  0  0  0  0  0  0  0
  1  2  1  0  0  0  0
  1 20  1  0  0  0  0
  1 21  1  0  0  0  0
  1 22  1  0  0  0  0
  2  3  1  0  0  0  0
  2 23  1  0  0  0  0
  2 24  1  0  0  0  0
  3  4  1  0  0  0  0
  4  5  1  0  0  0  0
  4 25  1  0  0  0  0
  4 26  1  0  0  0  0
  5  6  2  0  0  0  0
  5  7  1  0  0  0  0
  7  8  1  0  0  0  0
  7 27  1  0  0  0  0
  8 19  1  0  0  0  0
  8  9  2  0  0  0  0
  9 10  1  0  0  0  0
  9 28  1  0  0  0  0
 10 11  2  0  0  0  0
 10 29  1  0  0  0  0
 11 12  1  0  0  0  0
 11 18  1  0  0  0  0
 12 17  1  0  0  0  0
 12 13  1  0  0  0  0
 13 14  1  0  0  0  0
 13 30  1  0  0  0  0
 13 31  1  0  0  0  0
 14 15  1  0  0  0  0
 14 32  1  0  0  0  0
 14 33  1  0  0  0  0
 15 16  1  0  0  0  0
 16 17  1  0  0  0  0
 16 34  1  0  0  0  0
 16 35  1  0  0  0  0
 17 36  1  0  0  0  0
 17 37  1  0  0  0  0
 18 19  2  0  0  0  0
 18 38  1  0  0  0  0
M  END
> <s_m_source_file>
AV-unprocessed.smi

> <i_m_source_file_index>
1781

> <i_lp_mmshare_version>
43012

> <i_f3d_flags>
0

> <s_epik_input>
W0NIM11bQ0gyXU9bQ0gyXUMoPU8pW05IXWMxW2NIXVtjSF1jKFtjSF1uMSlOMltDSDJdW0NIMl1PW0NIMl1bQ0gyXTI=

> <s_epik_cmdline>
J2VwaWtfcHl0aG9uJywgJy1waCcsICc3LjAnLCAnLXRuJywgJzgnLCAnLW1hJywgJzIwMCcsICctbWV0YWxfYmluZGluZycsICctaW1hZScsICc8aW5maWxlLm1hZT4nLCAnLW9tYWUnLCAnPG91dGZpbGUubWFlPic=

> <r_lp_tautomer_probability>
1

> <r_epik_Ionization_Penalty>
0.00358585

> <r_epik_Ionization_Penalty_Charging>
0

> <r_epik_Ionization_Penalty_Neutral>
0.00358585

> <r_epik_State_Penalty>
0.00535288

> <r_epik_Charging_Adjusted_Penalty>
0.00535288

> <i_epik_Tot_Q>
0

> <i_epik_Tot_abs_Q>
0

> <r_epik_Metal_State_Penalty>
-0

> <b_epik_Metal_Only>
0

> <s_lp_Force_Field>
OPLS_2005

> <r_lp_Energy>
27.8059

> <b_lp_Chiralities_Consistent>
1

> <s_lp_Variant>
AV-unprocessed.smi:1781-1

> <Gold.Version>
5.8.1

> <Gold.Id.Protein>
6NUR|6NUR_protein|mol2

> <Gold.PLP.Fitness>
43.4632

> <Gold.PLP.PLP>
-42.0744

> <Gold.PLP.part.hbond>
-1.1711

> <Gold.PLP.part.metal>
0.0000

> <Gold.PLP.part.buried>
-5.9426

> <Gold.PLP.part.nonpolar>
-34.6959

> <Gold.PLP.part.repulsive>
0.1520

> <Gold.PLP.ligand.clash>
0.4752

> <Gold.PLP.ligand.torsion>
0.6252

> <Gold.PLP.Chemscore.Hbond>
1.0000

> <Gold.PLP.Chemscore.CHOScore>
0.0000

> <Gold.PLP.Chemscore.Metal>
0.0000

> <Gold.Chemscore.Hbonds>
donor molecule, donor type, donor heavy atom, donor atom, acceptor molecule, acceptor atom, score
      P1  H  6896  6909       L1     6  1.00

> <Gold.PLP.Chemscore.Internal.Correction>
0.1145

> <Gold.Rescore>
     Score         DG    S(hbond)    S(metal)    S(lipo)     H(rot)  DE(clash)    DE(int)     intcor
     16.62     -17.97       1.00        0.00     112.43       1.56       0.04       1.31       ----

> <Gold.Chemscore.Fitness>
16.6158

> <Gold.Chemscore.DG>
-17.9651

> <Gold.Chemscore.ZeroCoef>
-5.4800

> <Gold.Chemscore.Hbond>
0.9985

> <Gold.Chemscore.Metal>
0.0000

> <Gold.Chemscore.Lipo>
112.4261

> <Gold.Chemscore.Internal_Hbond>
0.0000

> <Gold.Chemscore.DEClash>
0.0436

> <Gold.Chemscore.DEInternal>
1.3057

> <Gold.Chemscore.Rot>
1.5639

> <Gold.Chemscore.Internal.Correction>
   9.000000E+99

> <Gold.Chemscore.Hbonds>
donor molecule, donor type, donor heavy atom, donor atom, acceptor molecule, acceptor atom, score
      P1  H  6896  6909       L1     6  1.00

> <Gold.Chemscore.Hbond.Weighted>
-3.3348

> <Gold.Chemscore.Metal.Weighted>
-0.0000

> <Gold.Chemscore.Lipo.Weighted>
-13.1539

> <Gold.Chemscore.Internal_Hbond.Weighted>
0.0000

> <Gold.Chemscore.DEClash.Weighted>
0.0436

> <Gold.Chemscore.DEInternal.Weighted>
1.3057

> <Gold.Chemscore.Rot.Weighted>
4.0036

> <Gold.Chemscore.Internal.Correction.Weighted>
   9.000000E+99

> <Gold.Protein.RotatedTorsions>
[ 6907 6896 6895 6894 ] final  151.03 input  -60.11 | X-H torsion
[ 7974 7965 7964 7962 ] final  156.95 input  175.53 | X-H torsion
[ 8008 7997 7996 7995 ] final   12.17 input   59.86 | X-H torsion
[ 10167 10162 10161 10158 ] final -144.92 input  -65.29 | X-H torsion
[ 10718 10713 10712 10709 ] final   14.08 input   66.30 | X-H torsion
[ 10763 10752 10751 10750 ] final  -47.18 input  -60.55 | X-H torsion
[ 11005 11000 10999 10996 ] final  112.89 input  -57.11 | X-H torsion

> <Gold.Protein.ActiveResidues>
 VAL166  LYS551  ARG553  GLY616  TRP617  ASP618  TYR619  PRO620  LYS621  CYS622 
 ASP623  PHE694  ASN695  SER759  ASP760  ASP761  ALA762  ILE779  LEU786  VAL792 
 PHE793  MET794  SER795  GLU796  ALA797  LYS798  CYS799  TRP800  GLU811  SER814 

> <Gold.Protein.RotatedAtoms>
  152.1063  133.4276  159.4609 H   0  0  0  0  0  0  0  0  0  0  0  0  # atno 6907 bound_to 6896
  150.6865  134.2701  159.4594 H   0  0  0  0  0  0  0  0  0  0  0  0  # atno 6908 bound_to 6896
  152.0566  134.9620  160.0625 H   0  0  0  0  0  0  0  0  0  0  0  0  # atno 6909 bound_to 6896
  144.7932  139.7274  143.6212 H   0  0  0  0  0  0  0  0  0  0  0  0  # atno 7974 bound_to 7965
  154.8169  140.2877  155.5813 H   0  0  0  0  0  0  0  0  0  0  0  0  # atno 8008 bound_to 7997
  156.2994  140.2557  156.2999 H   0  0  0  0  0  0  0  0  0  0  0  0  # atno 8009 bound_to 7997
  154.9383  140.0382  157.2073 H   0  0  0  0  0  0  0  0  0  0  0  0  # atno 8010 bound_to 7997
  139.7854  143.8042  152.2644 H   0  0  0  0  0  0  0  0  0  0  0  0  # atno 10167 bound_to 10162
  157.0339  130.6204  149.5740 H   0  0  0  0  0  0  0  0  0  0  0  0  # atno 10718 bound_to 10713
  154.0572  135.6623  153.4807 H   0  0  0  0  0  0  0  0  0  0  0  0  # atno 10763 bound_to 10752
  153.0440  135.5126  154.7693 H   0  0  0  0  0  0  0  0  0  0  0  0  # atno 10764 bound_to 10752
  154.6719  135.3031  154.9698 H   0  0  0  0  0  0  0  0  0  0  0  0  # atno 10765 bound_to 10752
  139.8939  134.9539  156.6656 H   0  0  0  0  0  0  0  0  0  0  0  0  # atno 11005 bound_to 11000
  146.2192  139.5604  142.9630 LP  0  0  0  0  0  0  0  0  0  0  0  0  # atno 17320 bound_to 7965
  145.5740  141.0391  143.2158 LP  0  0  0  0  0  0  0  0  0  0  0  0  # atno 17321 bound_to 7965
  139.8117  144.7333  150.9689 LP  0  0  0  0  0  0  0  0  0  0  0  0  # atno 17342 bound_to 10162
  140.7819  143.4244  151.0791 LP  0  0  0  0  0  0  0  0  0  0  0  0  # atno 17343 bound_to 10162
  156.0060  130.5147  150.7831 LP  0  0  0  0  0  0  0  0  0  0  0  0  # atno 17370 bound_to 10713
  157.5156  131.0928  151.0143 LP  0  0  0  0  0  0  0  0  0  0  0  0  # atno 17371 bound_to 10713
  140.7413  133.8975  155.8280 LP  0  0  0  0  0  0  0  0  0  0  0  0  # atno 17394 bound_to 11000
  141.0075  134.1066  157.4255 LP  0  0  0  0  0  0  0  0  0  0  0  0  # atno 17395 bound_to 11000

$$$$
