AV-unprocessed.smi:36|AV-procd|sdf|295|dock4
  -GOLD-   2262016 93D 1   1.00000     0.00000
 Structure written by MMmdl.
 63 66  0  0  0  0  0  0  0  0  2 V2000
  144.0359  132.1334  149.9612 C   0  0  0  0  0  0  0  0  0  0  0  0
  145.0361  132.1233  151.1292 C   0  0  0  0  0  0  0  0  0  0  0  0
  145.0160  130.7467  151.8153 C   0  0  0  0  0  0  0  0  0  0  0  0
  146.4505  132.4300  150.6100 C   0  0  0  0  0  0  0  0  0  0  0  0
  144.5254  133.4532  152.4016 Si  0  0  0  0  0  0  0  0  0  0  0  0
  144.6084  135.1925  151.6356 C   0  0  0  0  0  0  0  0  0  0  0  0
  142.7751  133.1331  153.0674 C   0  0  0  0  0  0  0  0  0  0  0  0
  145.6030  133.3617  153.7049 O   0  0  0  0  0  0  0  0  0  0  0  0
  146.9656  133.7294  153.6356 C   0  0  0  0  0  0  0  0  0  0  0  0
  147.3713  134.4082  154.9508 C   0  0  2  0  0  0  0  0  0  0  0  0
  148.7282  134.8341  154.8726 O   0  0  0  0  0  0  0  0  0  0  0  0
  149.3124  134.8154  156.1413 C   0  0  1  0  0  0  0  0  0  0  0  0
  149.6477  136.2199  156.5228 N   0  0  0  0  0  0  0  0  0  0  0  0
  149.3490  136.8791  157.6613 C   0  0  0  0  0  0  0  0  0  0  0  0
  149.7575  138.1428  157.7627 N   0  0  0  0  0  0  0  0  0  0  0  0
  150.3945  138.3307  156.5444 C   0  0  0  0  0  0  0  0  0  0  0  0
  151.0566  139.4509  155.9696 C   0  0  0  0  0  0  0  0  0  0  0  0
  151.1822  140.6275  156.6026 N   0  5  0  0  0  0  0  0  0  0  0  0
  152.1503  140.7924  157.5394 C   0  0  0  0  0  0  0  0  0  0  0  0
  153.0006  139.9759  157.9001 O   0  0  0  0  0  0  0  0  0  0  0  0
  152.0856  142.1264  158.2348 C   0  0  0  0  0  0  0  0  0  0  0  0
  151.2622  143.1493  157.7111 C   0  0  0  0  0  0  0  0  0  0  0  0
  151.1691  144.3967  158.3586 C   0  0  0  0  0  0  0  0  0  0  0  0
  151.8918  144.6319  159.5429 C   0  0  0  0  0  0  0  0  0  0  0  0
  152.7040  143.6169  160.0818 C   0  0  0  0  0  0  0  0  0  0  0  0
  152.7972  142.3689  159.4352 C   0  0  0  0  0  0  0  0  0  0  0  0
  151.5899  139.2812  154.7324 N   0  0  0  0  0  0  0  0  0  0  0  0
  151.4710  138.1081  154.0992 C   0  0  0  0  0  0  0  0  0  0  0  0
  150.8737  136.9859  154.5126 N   0  0  0  0  0  0  0  0  0  0  0  0
  150.3401  137.1426  155.7590 C   0  0  0  0  0  0  0  0  0  0  0  0
  148.2827  134.2273  157.1107 C   0  0  0  0  0  0  0  0  0  0  0  0
  147.3705  133.4764  156.1625 C   0  0  1  0  0  0  0  0  0  0  0  0
  146.0809  133.3149  156.7175 O   0  0  0  0  0  0  0  0  0  0  0  0
  144.2864  131.3756  149.2180 H   0  0  0  0  0  0  0  0  0  0  0  0
  144.0253  133.0983  149.4540 H   0  0  0  0  0  0  0  0  0  0  0  0
  143.0216  131.9324  150.3071 H   0  0  0  0  0  0  0  0  0  0  0  0
  144.0276  130.5183  152.2157 H   0  0  0  0  0  0  0  0  0  0  0  0
  145.7229  130.7035  152.6440 H   0  0  0  0  0  0  0  0  0  0  0  0
  145.2804  129.9513  151.1179 H   0  0  0  0  0  0  0  0  0  0  0  0
  146.7755  131.6850  149.8831 H   0  0  0  0  0  0  0  0  0  0  0  0
  147.1792  132.4366  151.4211 H   0  0  0  0  0  0  0  0  0  0  0  0
  146.4918  133.4043  150.1226 H   0  0  0  0  0  0  0  0  0  0  0  0
  143.9004  135.3000  150.8141 H   0  0  0  0  0  0  0  0  0  0  0  0
  145.5989  135.4120  151.2382 H   0  0  0  0  0  0  0  0  0  0  0  0
  144.3737  135.9657  152.3666 H   0  0  0  0  0  0  0  0  0  0  0  0
  142.0315  133.1613  152.2714 H   0  0  0  0  0  0  0  0  0  0  0  0
  142.4872  133.8798  153.8071 H   0  0  0  0  0  0  0  0  0  0  0  0
  142.7016  132.1575  153.5473 H   0  0  0  0  0  0  0  0  0  0  0  0
  147.5701  132.8382  153.4636 H   0  0  0  0  0  0  0  0  0  0  0  0
  147.1268  134.3935  152.7864 H   0  0  0  0  0  0  0  0  0  0  0  0
  146.7441  135.2773  155.1545 H   0  0  0  0  0  0  0  0  0  0  0  0
  150.2592  134.2751  156.1156 H   0  0  0  0  0  0  0  0  0  0  0  0
  148.7992  136.4057  158.4612 H   0  0  0  0  0  0  0  0  0  0  0  0
  150.6998  142.9848  156.8034 H   0  0  0  0  0  0  0  0  0  0  0  0
  150.5413  145.1723  157.9459 H   0  0  0  0  0  0  0  0  0  0  0  0
  151.8201  145.5882  160.0394 H   0  0  0  0  0  0  0  0  0  0  0  0
  153.2540  143.7932  160.9941 H   0  0  0  0  0  0  0  0  0  0  0  0
  153.4182  141.6001  159.8719 H   0  0  0  0  0  0  0  0  0  0  0  0
  151.9203  138.0620  153.1184 H   0  0  0  0  0  0  0  0  0  0  0  0
  148.7598  133.5941  157.8592 H   0  0  0  0  0  0  0  0  0  0  0  0
  147.7435  135.0314  157.6154 H   0  0  0  0  0  0  0  0  0  0  0  0
  147.8012  132.5066  155.9087 H   0  0  0  0  0  0  0  0  0  0  0  0
  145.4466  133.3322  156.0170 H   0  0  0  0  0  0  0  0  0  0  0  0
  1  2  1  0  0  0  0
  1 34  1  0  0  0  0
  1 35  1  0  0  0  0
  1 36  1  0  0  0  0
  2  3  1  0  0  0  0
  2  4  1  0  0  0  0
  2  5  1  0  0  0  0
  3 37  1  0  0  0  0
  3 38  1  0  0  0  0
  3 39  1  0  0  0  0
  4 40  1  0  0  0  0
  4 41  1  0  0  0  0
  4 42  1  0  0  0  0
  5  6  1  0  0  0  0
  5  7  1  0  0  0  0
  5  8  1  0  0  0  0
  6 43  1  0  0  0  0
  6 44  1  0  0  0  0
  6 45  1  0  0  0  0
  7 46  1  0  0  0  0
  7 47  1  0  0  0  0
  7 48  1  0  0  0  0
  8  9  1  0  0  0  0
  9 10  1  0  0  0  0
  9 49  1  0  0  0  0
  9 50  1  0  0  0  0
 10 32  1  0  0  0  0
 10 11  1  0  0  0  0
 10 51  1  0  0  0  0
 11 12  1  0  0  0  0
 12 13  1  0  0  0  0
 12 31  1  0  0  0  0
 12 52  1  0  0  0  0
 13 30  1  0  0  0  0
 13 14  1  0  0  0  0
 14 15  2  0  0  0  0
 14 53  1  0  0  0  0
 15 16  1  0  0  0  0
 16 30  2  0  0  0  0
 16 17  1  0  0  0  0
 17 18  1  0  0  0  0
 17 27  2  0  0  0  0
 18 19  1  0  0  0  0
 19 20  2  0  0  0  0
 19 21  1  0  0  0  0
 21 26  1  0  0  0  0
 21 22  2  0  0  0  0
 22 23  1  0  0  0  0
 22 54  1  0  0  0  0
 23 24  2  0  0  0  0
 23 55  1  0  0  0  0
 24 25  1  0  0  0  0
 24 56  1  0  0  0  0
 25 26  2  0  0  0  0
 25 57  1  0  0  0  0
 26 58  1  0  0  0  0
 27 28  1  0  0  0  0
 28 29  2  0  0  0  0
 28 59  1  0  0  0  0
 29 30  1  0  0  0  0
 31 32  1  0  0  0  0
 31 60  1  0  0  0  0
 31 61  1  0  0  0  0
 32 33  1  0  0  0  0
 32 62  1  0  0  0  0
 33 63  1  0  0  0  0
M  CHG  1  18  -1
M  END
> <s_m_source_file>
AV-unprocessed.smi

> <i_m_source_file_index>
36

> <i_lp_mmshare_version>
43012

> <i_f3d_flags>
0

> <s_epik_input>
W0NIM11DKFtDSDNdKShbQ0gzXSlbU2ldKFtDSDNdKShbQ0gzXSlPW0NIMl1bQ0BASF0xT1tDQEhdKFtDSDJdW0NASF0xW09IXSluKFtjSF1uMiljKGMyMyluW2NIXW5jM1tOSF1DKD1PKWM0W2NIXVtjSF1bY0hdW2NIXVtjSF00

> <s_epik_cmdline>
J2VwaWtfcHl0aG9uJywgJy1waCcsICc3LjAnLCAnLXRuJywgJzgnLCAnLW1hJywgJzIwMCcsICctbWV0YWxfYmluZGluZycsICctaW1hZScsICc8aW5maWxlLm1hZT4nLCAnLW9tYWUnLCAnPG91dGZpbGUubWFlPic=

> <r_lp_tautomer_probability>
1

> <r_epik_Ionization_Penalty>
4.75685

> <r_epik_Ionization_Penalty_Charging>
3.55822

> <r_epik_Ionization_Penalty_Neutral>
1.19863

> <r_epik_State_Penalty>
3.564

> <r_epik_Charging_Adjusted_Penalty>
7.12222

> <i_epik_Tot_Q>
-1

> <i_epik_Tot_abs_Q>
1

> <r_epik_Metal_State_Penalty>
0.523258

> <b_epik_Metal_Only>
1

> <s_epik_Chemistry_Notes>
This compound contains an acetal/aminal-like group ( X-CH(R)-Y where X, Y are N, S, or O) that may be acid/base labile, releasing an aldehyde.

> <s_lp_Force_Field>
OPLS_2005

> <r_lp_Energy>
36.9476

> <b_lp_Chiralities_Consistent>
1

> <s_lp_Variant>
AV-unprocessed.smi:36-17

> <Gold.Version>
5.8.1

> <Gold.Id.Protein>
6NUR|6NUR_protein|mol2

> <Gold.PLP.Fitness>
55.6723

> <Gold.PLP.PLP>
-51.0715

> <Gold.PLP.part.hbond>
-2.0000

> <Gold.PLP.part.metal>
0.0000

> <Gold.PLP.part.buried>
-7.7020

> <Gold.PLP.part.nonpolar>
-42.3267

> <Gold.PLP.part.repulsive>
1.1231

> <Gold.PLP.ligand.clash>
0.0000

> <Gold.PLP.ligand.torsion>
1.3742

> <Gold.PLP.Chemscore.Hbond>
2.0000

> <Gold.PLP.Chemscore.CHOScore>
0.3416

> <Gold.PLP.Chemscore.Metal>
0.0000

> <Gold.Chemscore.Hbonds>
donor molecule, donor type, donor heavy atom, donor atom, acceptor molecule, acceptor atom, score
      P1  H  7989  7998       L1    27  1.00
      P1  H  7997  8010       L1    20  1.00
      L1  C    28    59       P1  7949  0.37

> <Gold.PLP.Chemscore.Internal.Correction>
0.3245

> <Gold.Rescore>
     Score         DG    S(hbond)    S(metal)    S(lipo)     H(rot)  DE(clash)    DE(int)     intcor
     15.90     -18.81       1.63        0.00     125.69       2.67       0.22       2.68       ----

> <Gold.Chemscore.Fitness>
15.9023

> <Gold.Chemscore.DG>
-18.8055

> <Gold.Chemscore.ZeroCoef>
-5.4800

> <Gold.Chemscore.Hbond>
1.6335

> <Gold.Chemscore.Metal>
0.0000

> <Gold.Chemscore.Lipo>
125.6876

> <Gold.Chemscore.Internal_Hbond>
0.0000

> <Gold.Chemscore.DEClash>
0.2200

> <Gold.Chemscore.DEInternal>
2.6833

> <Gold.Chemscore.Rot>
2.6702

> <Gold.Chemscore.Internal.Correction>
   9.000000E+99

> <Gold.Chemscore.Hbonds>
donor molecule, donor type, donor heavy atom, donor atom, acceptor molecule, acceptor atom, score
      P1  H  7989  7998       L1    27  0.79
      P1  H  7997  8010       L1    20  0.88

> <Gold.Chemscore.Hbond.Weighted>
-5.4558

> <Gold.Chemscore.Metal.Weighted>
-0.0000

> <Gold.Chemscore.Lipo.Weighted>
-14.7055

> <Gold.Chemscore.Internal_Hbond.Weighted>
0.0000

> <Gold.Chemscore.DEClash.Weighted>
0.2200

> <Gold.Chemscore.DEInternal.Weighted>
2.6833

> <Gold.Chemscore.Rot.Weighted>
6.8358

> <Gold.Chemscore.Internal.Correction.Weighted>
   9.000000E+99

> <Gold.Protein.RotatedTorsions>
[ 6907 6896 6895 6894 ] final  151.49 input  -60.11 | X-H torsion
[ 7974 7965 7964 7962 ] final -163.21 input  175.53 | X-H torsion
[ 8008 7997 7996 7995 ] final   35.72 input   59.86 | X-H torsion
[ 10167 10162 10161 10158 ] final -152.53 input  -65.29 | X-H torsion
[ 10718 10713 10712 10709 ] final  127.15 input   66.30 | X-H torsion
[ 10763 10752 10751 10750 ] final  164.69 input  -60.55 | X-H torsion
[ 11005 11000 10999 10996 ] final   89.49 input  -57.11 | X-H torsion

> <Gold.Protein.ActiveResidues>
 VAL166  LYS551  ARG553  GLY616  TRP617  ASP618  TYR619  PRO620  LYS621  CYS622 
 ASP623  PHE694  ASN695  SER759  ASP760  ASP761  ALA762  ILE779  LEU786  VAL792 
 PHE793  MET794  SER795  GLU796  ALA797  LYS798  CYS799  TRP800  GLU811  SER814 

> <Gold.Protein.RotatedAtoms>
  152.0999  133.4244  159.4581 H   0  0  0  0  0  0  0  0  0  0  0  0  # atno 6907 bound_to 6896
  150.6864  134.2773  159.4622 H   0  0  0  0  0  0  0  0  0  0  0  0  # atno 6908 bound_to 6896
  152.0632  134.9580  160.0625 H   0  0  0  0  0  0  0  0  0  0  0  0  # atno 6909 bound_to 6896
  144.7333  140.3141  143.6183 H   0  0  0  0  0  0  0  0  0  0  0  0  # atno 7974 bound_to 7965
  155.1756  140.3295  155.4384 H   0  0  0  0  0  0  0  0  0  0  0  0  # atno 8008 bound_to 7997
  156.2495  140.1936  156.6807 H   0  0  0  0  0  0  0  0  0  0  0  0  # atno 8009 bound_to 7997
  154.6307  140.0583  156.9714 H   0  0  0  0  0  0  0  0  0  0  0  0  # atno 8010 bound_to 7997
  139.7174  143.9012  152.2491 H   0  0  0  0  0  0  0  0  0  0  0  0  # atno 10167 bound_to 10162
  157.5358  131.1097  150.8938 H   0  0  0  0  0  0  0  0  0  0  0  0  # atno 10718 bound_to 10713
  154.3128  135.2757  155.2558 H   0  0  0  0  0  0  0  0  0  0  0  0  # atno 10763 bound_to 10752
  154.4946  135.5824  153.6488 H   0  0  0  0  0  0  0  0  0  0  0  0  # atno 10764 bound_to 10752
  152.9886  135.6143  154.3306 H   0  0  0  0  0  0  0  0  0  0  0  0  # atno 10765 bound_to 10752
  139.8874  134.8555  156.3149 H   0  0  0  0  0  0  0  0  0  0  0  0  # atno 11005 bound_to 11000
  145.7635  139.1833  143.2253 LP  0  0  0  0  0  0  0  0  0  0  0  0  # atno 17320 bound_to 7965
  146.0967  140.7592  142.9569 LP  0  0  0  0  0  0  0  0  0  0  0  0  # atno 17321 bound_to 7965
  139.8898  144.6972  150.8783 LP  0  0  0  0  0  0  0  0  0  0  0  0  # atno 17342 bound_to 10162
  140.7746  143.3595  151.1855 LP  0  0  0  0  0  0  0  0  0  0  0  0  # atno 17343 bound_to 10162
  156.9505  130.5418  149.5282 LP  0  0  0  0  0  0  0  0  0  0  0  0  # atno 17370 bound_to 10713
  156.0457  130.5534  150.8876 LP  0  0  0  0  0  0  0  0  0  0  0  0  # atno 17371 bound_to 10713
  140.9825  133.7258  156.0693 LP  0  0  0  0  0  0  0  0  0  0  0  0  # atno 17394 bound_to 11000
  140.7730  134.3811  157.5503 LP  0  0  0  0  0  0  0  0  0  0  0  0  # atno 17395 bound_to 11000

$$$$
