AV-unprocessed.smi:686|AV-procd|sdf|3347|dock7
  -GOLD-   22720 0323D 1   1.00000     0.00000
 Structure written by MMmdl.
 40 41  0  0  0  0  0  0  0  0  3 V2000
  150.0256  139.9954  155.9421 C   0  0  0  0  0  0  0  0  0  0  0  0
  149.3672  138.8032  155.2210 C   0  0  2  0  0  0  0  0  0  0  0  0
  148.5266  139.2154  154.0109 C   0  0  0  0  0  0  0  0  0  0  0  0
  147.6613  138.0484  153.7322 N   0  3  2  0  0  0  0  0  0  0  0  0
  146.4503  138.3232  152.9075 C   0  0  0  0  0  0  0  0  0  0  0  0
  145.6514  137.0324  152.6456 C   0  0  0  0  0  0  0  0  0  0  0  0
  146.8142  138.9848  151.5648 C   0  0  0  0  0  0  0  0  0  0  0  0
  147.4052  137.3776  155.0318 C   0  0  0  0  0  0  0  0  0  0  0  0
  148.3733  137.9870  156.0637 C   0  0  1  0  0  0  0  0  0  0  0  0
  149.0575  136.9622  156.8430 N   0  5  0  0  0  0  0  0  0  0  0  0
  149.2202  137.0909  158.4576 S   0  0  0  0  0  0  0  0  0  0  0  0
  150.3783  136.3557  158.9951 O   0  0  0  0  0  0  0  0  0  0  0  0
  149.0716  138.4881  158.8912 O   0  0  0  0  0  0  0  0  0  0  0  0
  147.7096  136.2180  159.0760 C   0  0  0  0  0  0  0  0  0  0  0  0
  147.5844  136.3931  160.5640 C   0  0  0  0  0  0  0  0  0  0  0  0
  147.6679  135.4042  161.5836 C   0  0  0  0  0  0  0  0  0  0  0  0
  147.4778  136.1139  162.7339 C   0  0  0  0  0  0  0  0  0  0  0  0
  147.2823  137.4271  162.4550 O   0  0  0  0  0  0  0  0  0  0  0  0
  147.3486  137.5951  161.0672 N   0  0  0  0  0  0  0  0  0  0  0  0
  149.2917  140.7170  156.3062 H   0  0  0  0  0  0  0  0  0  0  0  0
  150.6923  140.5288  155.2643 H   0  0  0  0  0  0  0  0  0  0  0  0
  150.6270  139.6716  156.7935 H   0  0  0  0  0  0  0  0  0  0  0  0
  150.1564  138.1402  154.8594 H   0  0  0  0  0  0  0  0  0  0  0  0
  147.9150  140.0946  154.2326 H   0  0  0  0  0  0  0  0  0  0  0  0
  149.1536  139.4578  153.1521 H   0  0  0  0  0  0  0  0  0  0  0  0
  145.8133  139.0137  153.4626 H   0  0  0  0  0  0  0  0  0  0  0  0
  144.7782  137.2330  152.0240 H   0  0  0  0  0  0  0  0  0  0  0  0
  145.2852  136.5807  153.5675 H   0  0  0  0  0  0  0  0  0  0  0  0
  146.2595  136.2887  152.1294 H   0  0  0  0  0  0  0  0  0  0  0  0
  145.9252  139.1370  150.9520 H   0  0  0  0  0  0  0  0  0  0  0  0
  147.5066  138.3664  150.9925 H   0  0  0  0  0  0  0  0  0  0  0  0
  147.2722  139.9642  151.7018 H   0  0  0  0  0  0  0  0  0  0  0  0
  146.3786  137.5318  155.3675 H   0  0  0  0  0  0  0  0  0  0  0  0
  147.5480  136.3036  154.9013 H   0  0  0  0  0  0  0  0  0  0  0  0
  147.8122  138.6789  156.6932 H   0  0  0  0  0  0  0  0  0  0  0  0
  146.8442  136.6298  158.5558 H   0  0  0  0  0  0  0  0  0  0  0  0
  147.7811  135.1622  158.8181 H   0  0  0  0  0  0  0  0  0  0  0  0
  147.8475  134.3438  161.4852 H   0  0  0  0  0  0  0  0  0  0  0  0
  147.4529  135.8413  163.7785 H   0  0  0  0  0  0  0  0  0  0  0  0
  148.2371  137.4056  153.2077 H   0  0  0  0  0  0  0  0  0  0  0  0
  1  2  1  0  0  0  0
  1 20  1  0  0  0  0
  1 21  1  0  0  0  0
  1 22  1  0  0  0  0
  2  9  1  0  0  0  0
  2  3  1  0  0  0  0
  2 23  1  0  0  0  0
  3  4  1  0  0  0  0
  3 24  1  0  0  0  0
  3 25  1  0  0  0  0
  4  5  1  0  0  0  0
  4  8  1  0  0  0  0
  4 40  1  0  0  0  0
  5  6  1  0  0  0  0
  5  7  1  0  0  0  0
  5 26  1  0  0  0  0
  6 27  1  0  0  0  0
  6 28  1  0  0  0  0
  6 29  1  0  0  0  0
  7 30  1  0  0  0  0
  7 31  1  0  0  0  0
  7 32  1  0  0  0  0
  8  9  1  0  0  0  0
  8 33  1  0  0  0  0
  8 34  1  0  0  0  0
  9 10  1  0  0  0  0
  9 35  1  0  0  0  0
 10 11  1  0  0  0  0
 11 12  2  0  0  0  0
 11 13  2  0  0  0  0
 11 14  1  0  0  0  0
 14 15  1  0  0  0  0
 14 36  1  0  0  0  0
 14 37  1  0  0  0  0
 15 19  2  0  0  0  0
 15 16  1  0  0  0  0
 16 17  2  0  0  0  0
 16 38  1  0  0  0  0
 17 18  1  0  0  0  0
 17 39  1  0  0  0  0
 18 19  1  0  0  0  0
M  CHG  1   4   1
M  CHG  1  10  -1
M  END
> <s_m_source_file>
AV-unprocessed.smi

> <i_m_source_file_index>
686

> <i_lp_mmshare_version>
43012

> <i_f3d_flags>
0

> <s_epik_input>
W0NIM11bQ0BASF0xW0NIMl1OKFtDSF0oW0NIM10pW0NIM10pW0NIMl1bQ0BIXTFbTkhdUyg9TykoPU8pW0NIMl1jMltjSF1bY0hdb24y

> <s_epik_cmdline>
J2VwaWtfcHl0aG9uJywgJy1waCcsICc3LjAnLCAnLXRuJywgJzgnLCAnLW1hJywgJzIwMCcsICctbWV0YWxfYmluZGluZycsICctaW1hZScsICc8aW5maWxlLm1hZT4nLCAnLW9tYWUnLCAnPG91dGZpbGUubWFlPic=

> <r_epik_Ionization_Penalty>
3.62478

> <r_epik_Ionization_Penalty_Charging>
3.62478

> <r_epik_Ionization_Penalty_Neutral>
2.03645e-10

> <r_epik_State_Penalty>
3.6247

> <r_epik_Charging_Adjusted_Penalty>
7.24949

> <i_epik_Tot_Q>
0

> <i_epik_Tot_abs_Q>
2

> <r_epik_Metal_State_Penalty>
0.530836

> <b_epik_Metal_Only>
1

> <s_lp_Force_Field>
OPLS_2005

> <r_lp_Energy>
16.7108

> <b_lp_Chiralities_Consistent>
1

> <s_lp_Variant>
AV-unprocessed.smi:686-11

> <Gold.Version>
5.8.1

> <Gold.Id.Protein>
6NUR|6NUR_protein|mol2

> <Gold.PLP.Fitness>
40.9208

> <Gold.PLP.PLP>
-29.4055

> <Gold.PLP.part.hbond>
-7.1842

> <Gold.PLP.part.metal>
0.0000

> <Gold.PLP.part.buried>
-0.5730

> <Gold.PLP.part.nonpolar>
-21.6974

> <Gold.PLP.part.repulsive>
0.0089

> <Gold.PLP.ligand.clash>
0.0000

> <Gold.PLP.ligand.torsion>
0.7673

> <Gold.PLP.Chemscore.Hbond>
4.0000

> <Gold.PLP.Chemscore.CHOScore>
0.0000

> <Gold.PLP.Chemscore.Metal>
0.0000

> <Gold.Chemscore.Hbonds>
donor molecule, donor type, donor heavy atom, donor atom, acceptor molecule, acceptor atom, score
      L1  H     4    40       P1  7948  2.00
      P1  H  6896  6909       L1    12  1.00
      P1  H  6934  6947       L1    19  0.78

> <Gold.PLP.Chemscore.Internal.Correction>
1.0499

> <Gold.Rescore>
     Score         DG    S(hbond)    S(metal)    S(lipo)     H(rot)  DE(clash)    DE(int)     intcor
     16.73     -17.87       2.68        0.00      64.59       1.61       0.20       0.95       ----

> <Gold.Chemscore.Fitness>
16.7271

> <Gold.Chemscore.DG>
-17.8693

> <Gold.Chemscore.ZeroCoef>
-5.4800

> <Gold.Chemscore.Hbond>
2.6846

> <Gold.Chemscore.Metal>
0.0000

> <Gold.Chemscore.Lipo>
64.5881

> <Gold.Chemscore.Internal_Hbond>
0.0000

> <Gold.Chemscore.DEClash>
0.1963

> <Gold.Chemscore.DEInternal>
0.9459

> <Gold.Chemscore.Rot>
1.6149

> <Gold.Chemscore.Internal.Correction>
   9.000000E+99

> <Gold.Chemscore.Hbonds>
donor molecule, donor type, donor heavy atom, donor atom, acceptor molecule, acceptor atom, score
      L1  H     4    40       P1  7948  1.00
      P1  H  6896  6909       L1    12  0.98
      P1  H  6934  6947       L1    19  0.26

> <Gold.Chemscore.Hbond.Weighted>
-8.9666

> <Gold.Chemscore.Metal.Weighted>
-0.0000

> <Gold.Chemscore.Lipo.Weighted>
-7.5568

> <Gold.Chemscore.Internal_Hbond.Weighted>
0.0000

> <Gold.Chemscore.DEClash.Weighted>
0.1963

> <Gold.Chemscore.DEInternal.Weighted>
0.9459

> <Gold.Chemscore.Rot.Weighted>
4.1341

> <Gold.Chemscore.Internal.Correction.Weighted>
   9.000000E+99

> <Gold.Protein.RotatedTorsions>
[ 6907 6896 6895 6894 ] final   71.19 input  -60.11 | X-H torsion
[ 7974 7965 7964 7962 ] final   25.78 input  175.53 | X-H torsion
[ 8008 7997 7996 7995 ] final  164.25 input   59.86 | X-H torsion
[ 10167 10162 10161 10158 ] final  -59.74 input  -65.29 | X-H torsion
[ 10718 10713 10712 10709 ] final -170.16 input   66.30 | X-H torsion
[ 10763 10752 10751 10750 ] final  -45.46 input  -60.55 | X-H torsion
[ 11005 11000 10999 10996 ] final   73.77 input  -57.11 | X-H torsion

> <Gold.Protein.ActiveResidues>
 VAL166  LYS551  ARG553  GLY616  TRP617  ASP618  TYR619  PRO620  LYS621  CYS622 
 ASP623  PHE694  ASN695  SER759  ASP760  ASP761  ALA762  ILE779  LEU786  VAL792 
 PHE793  MET794  SER795  GLU796  ALA797  LYS798  CYS799  TRP800  GLU811  SER814 

> <Gold.Protein.RotatedAtoms>
  152.4795  134.4757  159.9649 H   0  0  0  0  0  0  0  0  0  0  0  0  # atno 6907 bound_to 6896
  151.4766  133.3550  159.2839 H   0  0  0  0  0  0  0  0  0  0  0  0  # atno 6908 bound_to 6896
  150.8857  134.8281  159.7318 H   0  0  0  0  0  0  0  0  0  0  0  0  # atno 6909 bound_to 6896
  146.1871  139.7418  142.8859 H   0  0  0  0  0  0  0  0  0  0  0  0  # atno 7974 bound_to 7965
  156.1895  140.1702  156.8120 H   0  0  0  0  0  0  0  0  0  0  0  0  # atno 8008 bound_to 7997
  154.5454  140.0728  156.8611 H   0  0  0  0  0  0  0  0  0  0  0  0  # atno 8009 bound_to 7997
  155.3133  140.3369  155.4245 H   0  0  0  0  0  0  0  0  0  0  0  0  # atno 8010 bound_to 7997
  140.6116  143.2389  151.5696 H   0  0  0  0  0  0  0  0  0  0  0  0  # atno 10167 bound_to 10162
  156.7221  130.9274  151.3098 H   0  0  0  0  0  0  0  0  0  0  0  0  # atno 10718 bound_to 10713
  154.0290  135.6659  153.4779 H   0  0  0  0  0  0  0  0  0  0  0  0  # atno 10763 bound_to 10752
  153.0548  135.5062  154.7951 H   0  0  0  0  0  0  0  0  0  0  0  0  # atno 10764 bound_to 10752
  154.6890  135.3058  154.9471 H   0  0  0  0  0  0  0  0  0  0  0  0  # atno 10765 bound_to 10752
  139.9424  134.7375  156.1066 H   0  0  0  0  0  0  0  0  0  0  0  0  # atno 11005 bound_to 11000
  145.3905  141.0372  143.3126 LP  0  0  0  0  0  0  0  0  0  0  0  0  # atno 17320 bound_to 7965
  144.8417  139.5461  143.6897 LP  0  0  0  0  0  0  0  0  0  0  0  0  # atno 17321 bound_to 7965
  139.5366  144.2765  152.1263 LP  0  0  0  0  0  0  0  0  0  0  0  0  # atno 17342 bound_to 10162
  140.1965  144.4700  150.6452 LP  0  0  0  0  0  0  0  0  0  0  0  0  # atno 17343 bound_to 10162
  157.6893  130.9217  150.0471 LP  0  0  0  0  0  0  0  0  0  0  0  0  # atno 17370 bound_to 10713
  156.1587  130.3643  149.9331 LP  0  0  0  0  0  0  0  0  0  0  0  0  # atno 17371 bound_to 10713
  141.1063  133.6659  156.2871 LP  0  0  0  0  0  0  0  0  0  0  0  0  # atno 17394 bound_to 11000
  140.5919  134.5641  157.5501 LP  0  0  0  0  0  0  0  0  0  0  0  0  # atno 17395 bound_to 11000

$$$$
