AV-unprocessed.smi:555|AV-procd|sdf|2911|dock7
  -GOLD-   2262023403D 1   1.00000     0.00000
 Structure written by MMmdl.
 50 51  0  0  0  0  0  0  0  0  2 V2000
  148.3088  131.5322  161.2701 C   0  0  0  0  0  0  0  0  0  0  0  0
  147.3480  130.6115  160.7836 O   0  0  0  0  0  0  0  0  0  0  0  0
  146.0182  131.0257  161.0463 C   0  0  0  0  0  0  0  0  0  0  0  0
  145.6879  132.2323  160.1550 C   0  0  0  0  0  0  0  0  0  0  0  0
  146.3799  133.4417  160.6113 N   0  0  0  0  0  0  0  0  0  0  0  0
  147.0991  134.0867  159.6196 N   0  0  0  0  0  0  0  0  0  0  0  0
  147.7667  135.1605  159.8943 C   0  0  0  0  0  0  0  0  0  0  0  0
  148.5576  135.8775  158.8560 C   0  0  0  0  0  0  0  0  0  0  0  0
  149.6322  136.4216  159.1140 O   0  0  0  0  0  0  0  0  0  0  0  0
  148.0163  135.8807  157.6245 N   0  0  0  0  0  0  0  0  0  0  0  0
  148.5993  136.5060  156.4389 C   0  0  2  0  0  0  0  0  0  0  0  0
  147.5391  136.6712  155.3431 C   0  0  0  0  0  0  0  0  0  0  0  0
  147.1073  135.3209  154.7418 C   0  0  0  0  0  0  0  0  0  0  0  0
  148.2648  134.5379  154.2152 N   0  3  2  0  0  0  0  0  0  0  0  0
  147.8682  133.2552  153.5451 C   0  0  0  0  0  0  0  0  0  0  0  0
  149.0878  132.4726  153.0134 C   0  0  0  0  0  0  0  0  0  0  0  0
  146.8810  133.4684  152.3774 C   0  0  0  0  0  0  0  0  0  0  0  0
  149.3004  134.3477  155.2735 C   0  0  0  0  0  0  0  0  0  0  0  0
  149.7694  135.6839  155.8760 C   0  0  0  0  0  0  0  0  0  0  0  0
  147.7736  135.7092  161.2397 C   0  0  0  0  0  0  0  0  0  0  0  0
  147.0703  135.0661  162.1976 C   0  0  0  0  0  0  0  0  0  0  0  0
  146.3119  133.8462  161.9155 C   0  0  0  0  0  0  0  0  0  0  0  0
  145.6746  133.2360  162.7731 O   0  0  0  0  0  0  0  0  0  0  0  0
  149.3114  131.1682  161.0457 H   0  0  0  0  0  0  0  0  0  0  0  0
  148.2288  131.6522  162.3514 H   0  0  0  0  0  0  0  0  0  0  0  0
  148.1928  132.5092  160.7994 H   0  0  0  0  0  0  0  0  0  0  0  0
  145.3265  130.2054  160.8479 H   0  0  0  0  0  0  0  0  0  0  0  0
  145.9156  131.2971  162.0983 H   0  0  0  0  0  0  0  0  0  0  0  0
  145.9729  132.0101  159.1250 H   0  0  0  0  0  0  0  0  0  0  0  0
  144.6091  132.3948  160.1279 H   0  0  0  0  0  0  0  0  0  0  0  0
  147.1275  135.4157  157.5062 H   0  0  0  0  0  0  0  0  0  0  0  0
  148.9610  137.4972  156.7183 H   0  0  0  0  0  0  0  0  0  0  0  0
  146.6697  137.1987  155.7377 H   0  0  0  0  0  0  0  0  0  0  0  0
  147.9397  137.3026  154.5488 H   0  0  0  0  0  0  0  0  0  0  0  0
  146.5729  134.7265  155.4847 H   0  0  0  0  0  0  0  0  0  0  0  0
  146.3985  135.5474  153.9476 H   0  0  0  0  0  0  0  0  0  0  0  0
  147.3676  132.6308  154.2872 H   0  0  0  0  0  0  0  0  0  0  0  0
  148.7743  131.6116  152.4220 H   0  0  0  0  0  0  0  0  0  0  0  0
  149.7080  132.0716  153.8139 H   0  0  0  0  0  0  0  0  0  0  0  0
  149.7137  133.0968  152.3750 H   0  0  0  0  0  0  0  0  0  0  0  0
  146.7132  132.5398  151.8310 H   0  0  0  0  0  0  0  0  0  0  0  0
  147.2574  134.2033  151.6649 H   0  0  0  0  0  0  0  0  0  0  0  0
  145.8985  133.7928  152.7201 H   0  0  0  0  0  0  0  0  0  0  0  0
  148.9075  133.6961  156.0557 H   0  0  0  0  0  0  0  0  0  0  0  0
  150.1841  133.8572  154.8702 H   0  0  0  0  0  0  0  0  0  0  0  0
  150.2754  136.2644  155.1034 H   0  0  0  0  0  0  0  0  0  0  0  0
  150.5159  135.5024  156.6502 H   0  0  0  0  0  0  0  0  0  0  0  0
  148.3241  136.6086  161.4762 H   0  0  0  0  0  0  0  0  0  0  0  0
  147.0662  135.4626  163.2023 H   0  0  0  0  0  0  0  0  0  0  0  0
  148.6901  135.1111  153.5001 H   0  0  0  0  0  0  0  0  0  0  0  0
  1  2  1  0  0  0  0
  1 24  1  0  0  0  0
  1 25  1  0  0  0  0
  1 26  1  0  0  0  0
  2  3  1  0  0  0  0
  3  4  1  0  0  0  0
  3 27  1  0  0  0  0
  3 28  1  0  0  0  0
  4  5  1  0  0  0  0
  4 29  1  0  0  0  0
  4 30  1  0  0  0  0
  5 22  1  0  0  0  0
  5  6  1  0  0  0  0
  6  7  2  0  0  0  0
  7  8  1  0  0  0  0
  7 20  1  0  0  0  0
  8  9  2  0  0  0  0
  8 10  1  0  0  0  0
 10 11  1  0  0  0  0
 10 31  1  0  0  0  0
 11 19  1  0  0  0  0
 11 12  1  0  0  0  0
 11 32  1  0  0  0  0
 12 13  1  0  0  0  0
 12 33  1  0  0  0  0
 12 34  1  0  0  0  0
 13 14  1  0  0  0  0
 13 35  1  0  0  0  0
 13 36  1  0  0  0  0
 14 15  1  0  0  0  0
 14 18  1  0  0  0  0
 14 50  1  0  0  0  0
 15 16  1  0  0  0  0
 15 17  1  0  0  0  0
 15 37  1  0  0  0  0
 16 38  1  0  0  0  0
 16 39  1  0  0  0  0
 16 40  1  0  0  0  0
 17 41  1  0  0  0  0
 17 42  1  0  0  0  0
 17 43  1  0  0  0  0
 18 19  1  0  0  0  0
 18 44  1  0  0  0  0
 18 45  1  0  0  0  0
 19 46  1  0  0  0  0
 19 47  1  0  0  0  0
 20 21  2  0  0  0  0
 20 48  1  0  0  0  0
 21 22  1  0  0  0  0
 21 49  1  0  0  0  0
 22 23  2  0  0  0  0
M  CHG  1  14   1
M  END
> <s_m_source_file>
AV-unprocessed.smi

> <i_m_source_file_index>
555

> <i_lp_mmshare_version>
43012

> <i_f3d_flags>
0

> <s_epik_input>
W0NIM11PW0NIMl1bQ0gyXW4xbmMoW2NIXVtjSF1jMT1PKUMoPU8pW05IXVtDSF0yW0NIMl1bQ0gyXU4oW0NIXShbQ0gzXSlbQ0gzXSlbQ0gyXVtDSDJdMg==

> <s_epik_cmdline>
J2VwaWtfcHl0aG9uJywgJy1waCcsICc3LjAnLCAnLXRuJywgJzgnLCAnLW1hJywgJzIwMCcsICctbWV0YWxfYmluZGluZycsICctaW1hZScsICc8aW5maWxlLm1hZT4nLCAnLW9tYWUnLCAnPG91dGZpbGUubWFlPic=

> <r_lp_tautomer_probability>
1

> <r_epik_Ionization_Penalty>
0.00560205

> <r_epik_Ionization_Penalty_Charging>
0.00559911

> <r_epik_Ionization_Penalty_Neutral>
2.94673e-06

> <r_epik_State_Penalty>
0.00410202

> <r_epik_Charging_Adjusted_Penalty>
0.00970113

> <i_epik_Tot_Q>
1

> <i_epik_Tot_abs_Q>
1

> <r_epik_Metal_State_Penalty>
-0

> <b_epik_Metal_Only>
0

> <s_lp_Force_Field>
OPLS_2005

> <r_lp_Energy>
41.3332

> <b_lp_Chiralities_Consistent>
1

> <s_lp_Variant>
AV-unprocessed.smi:555-2

> <Gold.Version>
5.8.1

> <Gold.Id.Protein>
6NUR|6NUR_protein|mol2

> <Gold.PLP.Fitness>
39.9497

> <Gold.PLP.PLP>
-32.5935

> <Gold.PLP.part.hbond>
-3.0000

> <Gold.PLP.part.metal>
0.0000

> <Gold.PLP.part.buried>
-4.4588

> <Gold.PLP.part.nonpolar>
-24.1585

> <Gold.PLP.part.repulsive>
0.0607

> <Gold.PLP.ligand.clash>
0.0000

> <Gold.PLP.ligand.torsion>
0.8828

> <Gold.PLP.Chemscore.Hbond>
3.0000

> <Gold.PLP.Chemscore.CHOScore>
0.0000

> <Gold.PLP.Chemscore.Metal>
0.0000

> <Gold.Chemscore.Hbonds>
donor molecule, donor type, donor heavy atom, donor atom, acceptor molecule, acceptor atom, score
      L1  H    14    50       P1  7948  2.00
      P1  H  6896  6909       L1     9  0.83

> <Gold.PLP.Chemscore.Internal.Correction>
0.1218

> <Gold.Rescore>
     Score         DG    S(hbond)    S(metal)    S(lipo)     H(rot)  DE(clash)    DE(int)     intcor
     12.09     -14.26       1.90        0.00      59.03       1.74       0.06       2.11       ----

> <Gold.Chemscore.Fitness>
12.0912

> <Gold.Chemscore.DG>
-14.2570

> <Gold.Chemscore.ZeroCoef>
-5.4800

> <Gold.Chemscore.Hbond>
1.8968

> <Gold.Chemscore.Metal>
0.0000

> <Gold.Chemscore.Lipo>
59.0253

> <Gold.Chemscore.Internal_Hbond>
0.0000

> <Gold.Chemscore.DEClash>
0.0565

> <Gold.Chemscore.DEInternal>
2.1093

> <Gold.Chemscore.Rot>
1.7438

> <Gold.Chemscore.Internal.Correction>
   9.000000E+99

> <Gold.Chemscore.Hbonds>
donor molecule, donor type, donor heavy atom, donor atom, acceptor molecule, acceptor atom, score
      L1  H    14    50       P1  7948  0.73
      P1  H  6896  6909       L1     9  0.65

> <Gold.Chemscore.Hbond.Weighted>
-6.3352

> <Gold.Chemscore.Metal.Weighted>
-0.0000

> <Gold.Chemscore.Lipo.Weighted>
-6.9060

> <Gold.Chemscore.Internal_Hbond.Weighted>
0.0000

> <Gold.Chemscore.DEClash.Weighted>
0.0565

> <Gold.Chemscore.DEInternal.Weighted>
2.1093

> <Gold.Chemscore.Rot.Weighted>
4.4642

> <Gold.Chemscore.Internal.Correction.Weighted>
   9.000000E+99

> <Gold.Protein.RotatedTorsions>
[ 6907 6896 6895 6894 ] final   88.60 input  -60.11 | X-H torsion
[ 7974 7965 7964 7962 ] final  -99.07 input  175.53 | X-H torsion
[ 8008 7997 7996 7995 ] final   14.18 input   59.86 | X-H torsion
[ 10167 10162 10161 10158 ] final  -43.32 input  -65.29 | X-H torsion
[ 10718 10713 10712 10709 ] final  179.73 input   66.30 | X-H torsion
[ 10763 10752 10751 10750 ] final  133.64 input  -60.55 | X-H torsion
[ 11005 11000 10999 10996 ] final -165.22 input  -57.11 | X-H torsion

> <Gold.Protein.ActiveResidues>
 VAL166  LYS551  ARG553  GLY616  TRP617  ASP618  TYR619  PRO620  LYS621  CYS622 
 ASP623  PHE694  ASN695  SER759  ASP760  ASP761  ALA762  ILE779  LEU786  VAL792 
 PHE793  MET794  SER795  GLU796  ALA797  LYS798  CYS799  TRP800  GLU811  SER814 

> <Gold.Protein.RotatedAtoms>
  152.5427  134.2097  159.8744 H   0  0  0  0  0  0  0  0  0  0  0  0  # atno 6907 bound_to 6896
  151.2080  133.4565  159.2605 H   0  0  0  0  0  0  0  0  0  0  0  0  # atno 6908 bound_to 6896
  151.0924  134.9937  159.8465 H   0  0  0  0  0  0  0  0  0  0  0  0  # atno 6909 bound_to 6896
  145.3124  140.9403  143.2762 H   0  0  0  0  0  0  0  0  0  0  0  0  # atno 7974 bound_to 7965
  154.8449  140.2920  155.5635 H   0  0  0  0  0  0  0  0  0  0  0  0  # atno 8008 bound_to 7997
  156.3013  140.2507  156.3329 H   0  0  0  0  0  0  0  0  0  0  0  0  # atno 8009 bound_to 7997
  154.9085  140.0389  157.1922 H   0  0  0  0  0  0  0  0  0  0  0  0  # atno 8010 bound_to 7997
  140.6938  143.2989  151.3335 H   0  0  0  0  0  0  0  0  0  0  0  0  # atno 10167 bound_to 10162
  156.8715  130.9785  151.3073 H   0  0  0  0  0  0  0  0  0  0  0  0  # atno 10718 bound_to 10713
  153.8104  135.3129  155.3400 H   0  0  0  0  0  0  0  0  0  0  0  0  # atno 10763 bound_to 10752
  154.8053  135.4701  154.0381 H   0  0  0  0  0  0  0  0  0  0  0  0  # atno 10764 bound_to 10752
  153.1757  135.6885  153.8635 H   0  0  0  0  0  0  0  0  0  0  0  0  # atno 10765 bound_to 10752
  140.5782  134.5169  157.5174 H   0  0  0  0  0  0  0  0  0  0  0  0  # atno 11005 bound_to 11000
  144.9005  139.4655  143.6634 LP  0  0  0  0  0  0  0  0  0  0  0  0  # atno 17320 bound_to 7965
  146.3113  139.7757  142.9017 LP  0  0  0  0  0  0  0  0  0  0  0  0  # atno 17321 bound_to 7965
  139.6370  144.0612  152.2523 LP  0  0  0  0  0  0  0  0  0  0  0  0  # atno 17342 bound_to 10162
  140.0105  144.6227  150.7651 LP  0  0  0  0  0  0  0  0  0  0  0  0  # atno 17343 bound_to 10162
  157.6193  130.8643  149.9081 LP  0  0  0  0  0  0  0  0  0  0  0  0  # atno 17370 bound_to 10713
  156.0724  130.3683  150.0748 LP  0  0  0  0  0  0  0  0  0  0  0  0  # atno 17371 bound_to 10713
  139.9330  134.7928  156.0880 LP  0  0  0  0  0  0  0  0  0  0  0  0  # atno 17394 bound_to 11000
  141.1013  133.6676  156.2761 LP  0  0  0  0  0  0  0  0  0  0  0  0  # atno 17395 bound_to 11000

$$$$
