AV-unprocessed.smi:2203|AV-procd|sdf|8936|dock1
  -GOLD-   2272012153D 1   1.00000     0.00000
 Structure written by MMmdl.
 48 49  0  0  0  0  0  0  0  0  1 V2000
  152.7606  138.3453  155.4368 C   0  0  0  0  0  0  0  0  0  0  0  0
  151.7651  139.4550  155.6208 C   0  0  0  0  0  0  0  0  0  0  0  0
  152.1401  140.5613  156.2389 N   0  0  0  0  0  0  0  0  0  0  0  0
  151.0415  141.3444  156.2488 N   0  0  0  0  0  0  0  0  0  0  0  0
  151.1123  142.6534  156.8812 C   0  0  0  0  0  0  0  0  0  0  0  0
  151.2209  142.5810  158.4200 C   0  0  0  0  0  0  0  0  0  0  0  0
  151.6291  143.9428  159.0004 C   0  0  0  0  0  0  0  0  0  0  0  0
  152.1726  141.4729  158.9048 C   0  0  0  0  0  0  0  0  0  0  0  0
  149.9724  140.7330  155.6187 C   0  0  0  0  0  0  0  0  0  0  0  0
  148.6340  141.3858  155.4814 C   0  0  0  0  0  0  0  0  0  0  0  0
  150.4031  139.5019  155.2009 C   0  0  0  0  0  0  0  0  0  0  0  0
  149.6276  138.4338  154.4705 C   0  0  0  0  0  0  0  0  0  0  0  0
  149.6718  137.1190  155.2504 C   0  0  0  0  0  0  0  0  0  0  0  0
  149.8108  137.1330  156.4732 O   0  0  0  0  0  0  0  0  0  0  0  0
  149.5674  135.9908  154.5310 N   0  0  0  0  0  0  0  0  0  0  0  0
  149.6247  134.6386  155.0723 C   0  0  0  0  0  0  0  0  0  0  0  0
  149.3411  133.5882  153.9863 C   0  0  1  0  0  0  0  0  0  0  0  0
  149.3925  132.1475  154.4876 C   0  0  0  0  0  0  0  0  0  0  0  0
  148.5225  131.3988  153.4902 C   0  0  0  0  0  0  0  0  0  0  0  0
  147.7070  132.5000  152.8047 C   0  0  0  0  0  0  0  0  0  0  0  0
  148.0051  133.6916  153.5199 O   0  0  0  0  0  0  0  0  0  0  0  0
  153.1784  138.3603  154.4302 H   0  0  0  0  0  0  0  0  0  0  0  0
  152.2968  137.3713  155.5903 H   0  0  0  0  0  0  0  0  0  0  0  0
  153.5891  138.4277  156.1412 H   0  0  0  0  0  0  0  0  0  0  0  0
  151.9684  143.1935  156.4732 H   0  0  0  0  0  0  0  0  0  0  0  0
  150.2302  143.2240  156.5899 H   0  0  0  0  0  0  0  0  0  0  0  0
  150.2310  142.3494  158.8138 H   0  0  0  0  0  0  0  0  0  0  0  0
  152.6205  144.2388  158.6559 H   0  0  0  0  0  0  0  0  0  0  0  0
  151.6494  143.9164  160.0903 H   0  0  0  0  0  0  0  0  0  0  0  0
  150.9272  144.7230  158.7047 H   0  0  0  0  0  0  0  0  0  0  0  0
  153.1788  141.6158  158.5096 H   0  0  0  0  0  0  0  0  0  0  0  0
  151.8300  140.4850  158.5965 H   0  0  0  0  0  0  0  0  0  0  0  0
  152.2410  141.4626  159.9929 H   0  0  0  0  0  0  0  0  0  0  0  0
  148.0112  140.8575  154.7596 H   0  0  0  0  0  0  0  0  0  0  0  0
  148.7300  142.4157  155.1381 H   0  0  0  0  0  0  0  0  0  0  0  0
  148.1071  141.3918  156.4356 H   0  0  0  0  0  0  0  0  0  0  0  0
  148.5855  138.7215  154.3283 H   0  0  0  0  0  0  0  0  0  0  0  0
  150.0286  138.2686  153.4698 H   0  0  0  0  0  0  0  0  0  0  0  0
  149.4547  136.0757  153.5314 H   0  0  0  0  0  0  0  0  0  0  0  0
  150.6013  134.4611  155.5257 H   0  0  0  0  0  0  0  0  0  0  0  0
  148.8910  134.5579  155.8748 H   0  0  0  0  0  0  0  0  0  0  0  0
  150.0247  133.7078  153.1433 H   0  0  0  0  0  0  0  0  0  0  0  0
  150.4088  131.7565  154.5438 H   0  0  0  0  0  0  0  0  0  0  0  0
  148.9491  132.0785  155.4819 H   0  0  0  0  0  0  0  0  0  0  0  0
  149.1298  130.8642  152.7592 H   0  0  0  0  0  0  0  0  0  0  0  0
  147.8839  130.6716  153.9927 H   0  0  0  0  0  0  0  0  0  0  0  0
  148.0184  132.6170  151.7658 H   0  0  0  0  0  0  0  0  0  0  0  0
  146.6358  132.2967  152.8173 H   0  0  0  0  0  0  0  0  0  0  0  0
  1  2  1  0  0  0  0
  1 22  1  0  0  0  0
  1 23  1  0  0  0  0
  1 24  1  0  0  0  0
  2 11  1  0  0  0  0
  2  3  2  0  0  0  0
  3  4  1  0  0  0  0
  4  5  1  0  0  0  0
  4  9  1  0  0  0  0
  5  6  1  0  0  0  0
  5 25  1  0  0  0  0
  5 26  1  0  0  0  0
  6  7  1  0  0  0  0
  6  8  1  0  0  0  0
  6 27  1  0  0  0  0
  7 28  1  0  0  0  0
  7 29  1  0  0  0  0
  7 30  1  0  0  0  0
  8 31  1  0  0  0  0
  8 32  1  0  0  0  0
  8 33  1  0  0  0  0
  9 10  1  0  0  0  0
  9 11  2  0  0  0  0
 10 34  1  0  0  0  0
 10 35  1  0  0  0  0
 10 36  1  0  0  0  0
 11 12  1  0  0  0  0
 12 13  1  0  0  0  0
 12 37  1  0  0  0  0
 12 38  1  0  0  0  0
 13 14  2  0  0  0  0
 13 15  1  0  0  0  0
 15 16  1  0  0  0  0
 15 39  1  0  0  0  0
 16 17  1  0  0  0  0
 16 40  1  0  0  0  0
 16 41  1  0  0  0  0
 17 21  1  0  0  0  0
 17 18  1  0  0  0  0
 17 42  1  0  0  0  0
 18 19  1  0  0  0  0
 18 43  1  0  0  0  0
 18 44  1  0  0  0  0
 19 20  1  0  0  0  0
 19 45  1  0  0  0  0
 19 46  1  0  0  0  0
 20 21  1  0  0  0  0
 20 47  1  0  0  0  0
 20 48  1  0  0  0  0
M  END
> <s_m_source_file>
AV-unprocessed.smi

> <i_m_source_file_index>
2203

> <i_lp_mmshare_version>
43012

> <i_f3d_flags>
0

> <s_epik_input>
W0NIM11jMW5uKFtDSDJdW0NIXShbQ0gzXSlbQ0gzXSljKFtDSDNdKWMxW0NIMl1DKD1PKVtOSF1bQ0gyXVtDQEBIXTJbQ0gyXVtDSDJdW0NIMl1PMg==

> <s_epik_cmdline>
J2VwaWtfcHl0aG9uJywgJy1waCcsICc3LjAnLCAnLXRuJywgJzgnLCAnLW1hJywgJzIwMCcsICctbWV0YWxfYmluZGluZycsICctaW1hZScsICc8aW5maWxlLm1hZT4nLCAnLW9tYWUnLCAnPG91dGZpbGUubWFlPic=

> <r_lp_tautomer_probability>
1

> <r_epik_Ionization_Penalty>
0.00306713

> <r_epik_Ionization_Penalty_Charging>
0

> <r_epik_Ionization_Penalty_Neutral>
0.00306713

> <r_epik_State_Penalty>
0.00215672

> <r_epik_Charging_Adjusted_Penalty>
0.00215672

> <i_epik_Tot_Q>
0

> <i_epik_Tot_abs_Q>
0

> <r_epik_Metal_State_Penalty>
-0

> <b_epik_Metal_Only>
0

> <s_lp_Force_Field>
OPLS_2005

> <r_lp_Energy>
15.0648

> <b_lp_Chiralities_Consistent>
1

> <s_lp_Variant>
AV-unprocessed.smi:2203-2

> <Gold.Version>
5.8.1

> <Gold.Id.Protein>
6NUR|6NUR_protein|mol2

> <Gold.PLP.Fitness>
43.6739

> <Gold.PLP.PLP>
-39.3074

> <Gold.PLP.part.hbond>
-2.0000

> <Gold.PLP.part.metal>
0.0000

> <Gold.PLP.part.buried>
-1.4241

> <Gold.PLP.part.nonpolar>
-36.2312

> <Gold.PLP.part.repulsive>
0.2104

> <Gold.PLP.ligand.clash>
0.0000

> <Gold.PLP.ligand.torsion>
0.6410

> <Gold.PLP.Chemscore.Hbond>
1.8130

> <Gold.PLP.Chemscore.CHOScore>
0.0000

> <Gold.PLP.Chemscore.Metal>
0.0000

> <Gold.Chemscore.Hbonds>
donor molecule, donor type, donor heavy atom, donor atom, acceptor molecule, acceptor atom, score
      L1  H    15    39       P1  7948  1.00
      P1  H  7997  8008       L1     3  0.43

> <Gold.PLP.Chemscore.Internal.Correction>
0.2096

> <Gold.Rescore>
     Score         DG    S(hbond)    S(metal)    S(lipo)     H(rot)  DE(clash)    DE(int)     intcor
     17.13     -19.69       1.96        0.00     101.22       1.63       1.80       0.75       ----

> <Gold.Chemscore.Fitness>
17.1342

> <Gold.Chemscore.DG>
-19.6878

> <Gold.Chemscore.ZeroCoef>
-5.4800

> <Gold.Chemscore.Hbond>
1.9595

> <Gold.Chemscore.Metal>
0.0000

> <Gold.Chemscore.Lipo>
101.2245

> <Gold.Chemscore.Internal_Hbond>
0.0000

> <Gold.Chemscore.DEClash>
1.8029

> <Gold.Chemscore.DEInternal>
0.7507

> <Gold.Chemscore.Rot>
1.6329

> <Gold.Chemscore.Internal.Correction>
   9.000000E+99

> <Gold.Chemscore.Hbonds>
donor molecule, donor type, donor heavy atom, donor atom, acceptor molecule, acceptor atom, score
      L1  H    15    39       P1  7948  0.55
      P1  H  7997  8008       L1     3  0.08

> <Gold.Chemscore.Hbond.Weighted>
-6.5448

> <Gold.Chemscore.Metal.Weighted>
-0.0000

> <Gold.Chemscore.Lipo.Weighted>
-11.8433

> <Gold.Chemscore.Internal_Hbond.Weighted>
0.0000

> <Gold.Chemscore.DEClash.Weighted>
1.8029

> <Gold.Chemscore.DEInternal.Weighted>
0.7507

> <Gold.Chemscore.Rot.Weighted>
4.1803

> <Gold.Chemscore.Internal.Correction.Weighted>
   9.000000E+99

> <Gold.Protein.RotatedTorsions>
[ 6907 6896 6895 6894 ] final -125.82 input  -60.11 | X-H torsion
[ 7974 7965 7964 7962 ] final   40.21 input  175.53 | X-H torsion
[ 8008 7997 7996 7995 ] final  -36.67 input   59.86 | X-H torsion
[ 10167 10162 10161 10158 ] final  -30.67 input  -65.29 | X-H torsion
[ 10718 10713 10712 10709 ] final  113.46 input   66.30 | X-H torsion
[ 10763 10752 10751 10750 ] final  -74.13 input  -60.55 | X-H torsion
[ 11005 11000 10999 10996 ] final  173.85 input  -57.11 | X-H torsion

> <Gold.Protein.ActiveResidues>
 VAL166  LYS551  ARG553  GLY616  TRP617  ASP618  TYR619  PRO620  LYS621  CYS622 
 ASP623  PHE694  ASN695  SER759  ASP760  ASP761  ALA762  ILE779  LEU786  VAL792 
 PHE793  MET794  SER795  GLU796  ALA797  LYS798  CYS799  TRP800  GLU811  SER814 

> <Gold.Protein.RotatedAtoms>
  150.8906  133.7248  159.2905 H   0  0  0  0  0  0  0  0  0  0  0  0  # atno 6907 bound_to 6896
  151.4800  135.1050  159.9784 H   0  0  0  0  0  0  0  0  0  0  0  0  # atno 6908 bound_to 6896
  152.4817  133.8225  159.7116 H   0  0  0  0  0  0  0  0  0  0  0  0  # atno 6909 bound_to 6896
  146.0923  139.5560  142.9467 H   0  0  0  0  0  0  0  0  0  0  0  0  # atno 7974 bound_to 7965
  154.4068  140.1624  156.2411 H   0  0  0  0  0  0  0  0  0  0  0  0  # atno 8008 bound_to 7997
  155.9200  140.3422  155.6142 H   0  0  0  0  0  0  0  0  0  0  0  0  # atno 8009 bound_to 7997
  155.7233  140.0771  157.2311 H   0  0  0  0  0  0  0  0  0  0  0  0  # atno 8010 bound_to 7997
  140.7246  143.3831  151.1565 H   0  0  0  0  0  0  0  0  0  0  0  0  # atno 10167 bound_to 10162
  157.6337  131.0984  150.7043 H   0  0  0  0  0  0  0  0  0  0  0  0  # atno 10718 bound_to 10713
  154.4689  135.5874  153.6308 H   0  0  0  0  0  0  0  0  0  0  0  0  # atno 10763 bound_to 10752
  152.9832  135.6062  154.3392 H   0  0  0  0  0  0  0  0  0  0  0  0  # atno 10764 bound_to 10752
  154.3272  135.2843  155.2469 H   0  0  0  0  0  0  0  0  0  0  0  0  # atno 10765 bound_to 10752
  140.3449  134.7245  157.4228 H   0  0  0  0  0  0  0  0  0  0  0  0  # atno 11005 bound_to 11000
  145.6015  141.0354  143.2016 LP  0  0  0  0  0  0  0  0  0  0  0  0  # atno 17320 bound_to 7965
  144.7369  139.7559  143.7326 LP  0  0  0  0  0  0  0  0  0  0  0  0  # atno 17321 bound_to 7965
  139.7423  143.8905  152.3053 LP  0  0  0  0  0  0  0  0  0  0  0  0  # atno 17342 bound_to 10162
  139.8731  144.7058  150.8964 LP  0  0  0  0  0  0  0  0  0  0  0  0  # atno 17343 bound_to 10162
  156.7378  130.4729  149.5484 LP  0  0  0  0  0  0  0  0  0  0  0  0  # atno 17370 bound_to 10713
  156.1559  130.6341  151.0657 LP  0  0  0  0  0  0  0  0  0  0  0  0  # atno 17371 bound_to 10713
  140.0750  134.5809  155.8600 LP  0  0  0  0  0  0  0  0  0  0  0  0  # atno 17394 bound_to 11000
  141.2028  133.6627  156.6028 LP  0  0  0  0  0  0  0  0  0  0  0  0  # atno 17395 bound_to 11000

$$$$
