AV-unprocessed.smi:2955|AV-procd|sdf|11304|dock9
  -GOLD-   2272016203D 1   1.00000     0.00000
 Structure written by MMmdl.
 46 48  0  0  0  0  0  0  0  0  2 V2000
  147.6604  132.3496  160.3363 C   0  0  0  0  0  0  0  0  0  0  0  0
  147.6375  133.7098  161.0034 C   0  0  0  0  0  0  0  0  0  0  0  0
  147.5410  133.8084  162.4055 C   0  0  0  0  0  0  0  0  0  0  0  0
  147.5199  135.0733  163.0209 C   0  0  0  0  0  0  0  0  0  0  0  0
  147.5960  136.2395  162.2364 C   0  0  0  0  0  0  0  0  0  0  0  0
  147.6958  136.1592  160.8324 C   0  0  0  0  0  0  0  0  0  0  0  0
  147.7658  137.3501  160.1430 O   0  0  0  0  0  0  0  0  0  0  0  0
  147.6774  137.3164  158.7244 C   0  0  0  0  0  0  0  0  0  0  0  0
  149.0621  137.0026  158.1412 C   0  0  0  0  0  0  0  0  0  0  0  0
  149.1766  137.4084  156.7319 N   0  0  0  0  0  0  0  0  0  0  0  0
  149.1551  136.6635  155.5872 C   0  0  0  0  0  0  0  0  0  0  0  0
  149.0196  135.1722  155.4769 C   0  0  1  0  0  0  0  0  0  0  0  0
  147.6761  134.6977  156.0496 C   0  0  0  0  0  0  0  0  0  0  0  0
  149.1545  134.7209  154.0978 N   0  0  0  0  0  0  0  0  0  0  0  0
  149.2500  133.4360  153.7342 C   0  0  0  0  0  0  0  0  0  0  0  0
  149.2287  132.5076  154.5377 O   0  0  0  0  0  0  0  0  0  0  0  0
  149.3131  137.5286  154.5443 N   0  3  0  0  0  0  0  0  0  0  0  0
  149.4127  138.8351  155.0214 C   0  0  0  0  0  0  0  0  0  0  0  0
  149.5724  140.0415  154.3468 C   0  0  0  0  0  0  0  0  0  0  0  0
  149.6343  141.2061  155.1396 C   0  0  0  0  0  0  0  0  0  0  0  0
  149.5375  141.1434  156.5450 C   0  0  0  0  0  0  0  0  0  0  0  0
  149.3772  139.9139  157.2174 C   0  0  0  0  0  0  0  0  0  0  0  0
  149.3200  138.7666  156.4262 C   0  0  0  0  0  0  0  0  0  0  0  0
  147.7172  134.8802  160.2203 C   0  0  0  0  0  0  0  0  0  0  0  0
  147.2040  131.5917  160.9739 H   0  0  0  0  0  0  0  0  0  0  0  0
  148.6875  132.0498  160.1278 H   0  0  0  0  0  0  0  0  0  0  0  0
  147.1106  132.3728  159.3949 H   0  0  0  0  0  0  0  0  0  0  0  0
  147.4824  132.9166  163.0124 H   0  0  0  0  0  0  0  0  0  0  0  0
  147.4446  135.1494  164.0955 H   0  0  0  0  0  0  0  0  0  0  0  0
  147.5759  137.2058  162.7181 H   0  0  0  0  0  0  0  0  0  0  0  0
  146.9632  136.5541  158.4091 H   0  0  0  0  0  0  0  0  0  0  0  0
  147.3354  138.2795  158.3430 H   0  0  0  0  0  0  0  0  0  0  0  0
  149.8488  137.4873  158.7193 H   0  0  0  0  0  0  0  0  0  0  0  0
  149.2621  135.9330  158.2014 H   0  0  0  0  0  0  0  0  0  0  0  0
  149.8069  134.7012  156.0663 H   0  0  0  0  0  0  0  0  0  0  0  0
  147.5669  135.0020  157.0910 H   0  0  0  0  0  0  0  0  0  0  0  0
  147.5979  133.6106  156.0158 H   0  0  0  0  0  0  0  0  0  0  0  0
  146.8325  135.1080  155.4934 H   0  0  0  0  0  0  0  0  0  0  0  0
  149.1693  135.4263  153.3755 H   0  0  0  0  0  0  0  0  0  0  0  0
  149.3443  133.3227  152.6430 H   0  0  0  0  0  0  0  0  0  0  0  0
  149.6446  140.0918  153.2702 H   0  0  0  0  0  0  0  0  0  0  0  0
  149.7571  142.1668  154.6604 H   0  0  0  0  0  0  0  0  0  0  0  0
  149.5875  142.0571  157.1194 H   0  0  0  0  0  0  0  0  0  0  0  0
  149.3013  139.8785  158.2939 H   0  0  0  0  0  0  0  0  0  0  0  0
  147.7933  134.7726  159.1491 H   0  0  0  0  0  0  0  0  0  0  0  0
  149.3452  137.2407  153.5749 H   0  0  0  0  0  0  0  0  0  0  0  0
  1  2  1  0  0  0  0
  1 25  1  0  0  0  0
  1 26  1  0  0  0  0
  1 27  1  0  0  0  0
  2 24  1  0  0  0  0
  2  3  2  0  0  0  0
  3  4  1  0  0  0  0
  3 28  1  0  0  0  0
  4  5  2  0  0  0  0
  4 29  1  0  0  0  0
  5  6  1  0  0  0  0
  5 30  1  0  0  0  0
  6  7  1  0  0  0  0
  6 24  2  0  0  0  0
  7  8  1  0  0  0  0
  8  9  1  0  0  0  0
  8 31  1  0  0  0  0
  8 32  1  0  0  0  0
  9 10  1  0  0  0  0
  9 33  1  0  0  0  0
  9 34  1  0  0  0  0
 10 23  1  0  0  0  0
 10 11  1  0  0  0  0
 11 12  1  0  0  0  0
 11 17  2  0  0  0  0
 12 13  1  0  0  0  0
 12 14  1  0  0  0  0
 12 35  1  0  0  0  0
 13 36  1  0  0  0  0
 13 37  1  0  0  0  0
 13 38  1  0  0  0  0
 14 15  1  0  0  0  0
 14 39  1  0  0  0  0
 15 16  2  0  0  0  0
 15 40  1  0  0  0  0
 17 18  1  0  0  0  0
 17 46  1  0  0  0  0
 18 23  2  0  0  0  0
 18 19  1  0  0  0  0
 19 20  2  0  0  0  0
 19 41  1  0  0  0  0
 20 21  1  0  0  0  0
 20 42  1  0  0  0  0
 21 22  2  0  0  0  0
 21 43  1  0  0  0  0
 22 23  1  0  0  0  0
 22 44  1  0  0  0  0
 24 45  1  0  0  0  0
M  CHG  1  17   1
M  END
> <s_m_source_file>
AV-unprocessed.smi

> <i_m_source_file_index>
2955

> <i_lp_mmshare_version>
43012

> <i_f3d_flags>
0

> <s_epik_input>
W0NIM11jMVtjSF1bY0hdW2NIXWMoW2NIXTEpT1tDSDJdW0NIMl1uKGMobjIpW0NASF0oW0NIM10pW05IXVtDSF09TyljKGMyMylbY0hdW2NIXVtjSF1bY0hdMw==

> <s_epik_cmdline>
J2VwaWtfcHl0aG9uJywgJy1waCcsICc3LjAnLCAnLXRuJywgJzgnLCAnLW1hJywgJzIwMCcsICctbWV0YWxfYmluZGluZycsICctaW1hZScsICc8aW5maWxlLm1hZT4nLCAnLW9tYWUnLCAnPG91dGZpbGUubWFlPic=

> <r_lp_tautomer_probability>
1

> <r_epik_Ionization_Penalty>
1.15027

> <r_epik_Ionization_Penalty_Charging>
1.15027

> <r_epik_Ionization_Penalty_Neutral>
5.5802e-08

> <r_epik_State_Penalty>
1.21159

> <r_epik_Charging_Adjusted_Penalty>
2.36186

> <i_epik_Tot_Q>
1

> <i_epik_Tot_abs_Q>
1

> <r_epik_Metal_State_Penalty>
1.29223

> <b_epik_Metal_Only>
0

> <s_lp_Force_Field>
OPLS_2005

> <r_lp_Energy>
16.9999

> <b_lp_Chiralities_Consistent>
1

> <s_lp_Variant>
AV-unprocessed.smi:2955-4

> <Gold.Version>
5.8.1

> <Gold.Id.Protein>
6NUR|6NUR_protein|mol2

> <Gold.PLP.Fitness>
49.4112

> <Gold.PLP.PLP>
-38.8304

> <Gold.PLP.part.hbond>
-4.0000

> <Gold.PLP.part.metal>
0.0000

> <Gold.PLP.part.buried>
-3.8668

> <Gold.PLP.part.nonpolar>
-31.2815

> <Gold.PLP.part.repulsive>
0.0427

> <Gold.PLP.ligand.clash>
0.0000

> <Gold.PLP.ligand.torsion>
0.5694

> <Gold.PLP.Chemscore.Hbond>
3.8817

> <Gold.PLP.Chemscore.CHOScore>
0.0000

> <Gold.PLP.Chemscore.Metal>
0.0000

> <Gold.Chemscore.Hbonds>
donor molecule, donor type, donor heavy atom, donor atom, acceptor molecule, acceptor atom, score
      L1  H    14    39       P1  7948  1.00
      L1  H    17    46       P1  7948  2.00
      P1  H  6931  6943       L1     7  0.07
      P1  H  6934  6947       L1     7  0.82

> <Gold.PLP.Chemscore.Internal.Correction>
0.0745

> <Gold.Rescore>
     Score         DG    S(hbond)    S(metal)    S(lipo)     H(rot)  DE(clash)    DE(int)     intcor
     18.51     -19.12       2.69        0.00      90.46       2.32       0.00       0.60       ----

> <Gold.Chemscore.Fitness>
18.5127

> <Gold.Chemscore.DG>
-19.1194

> <Gold.Chemscore.ZeroCoef>
-5.4800

> <Gold.Chemscore.Hbond>
2.6948

> <Gold.Chemscore.Metal>
0.0000

> <Gold.Chemscore.Lipo>
90.4610

> <Gold.Chemscore.Internal_Hbond>
0.0000

> <Gold.Chemscore.DEClash>
0.0029

> <Gold.Chemscore.DEInternal>
0.6038

> <Gold.Chemscore.Rot>
2.3223

> <Gold.Chemscore.Internal.Correction>
   9.000000E+99

> <Gold.Chemscore.Hbonds>
donor molecule, donor type, donor heavy atom, donor atom, acceptor molecule, acceptor atom, score
      L1  H    14    39       P1  7948  0.40
      L1  H    17    46       P1  7948  0.93
      P1  H  6934  6947       L1     7  0.69

> <Gold.Chemscore.Hbond.Weighted>
-9.0005

> <Gold.Chemscore.Metal.Weighted>
-0.0000

> <Gold.Chemscore.Lipo.Weighted>
-10.5839

> <Gold.Chemscore.Internal_Hbond.Weighted>
0.0000

> <Gold.Chemscore.DEClash.Weighted>
0.0029

> <Gold.Chemscore.DEInternal.Weighted>
0.6038

> <Gold.Chemscore.Rot.Weighted>
5.9450

> <Gold.Chemscore.Internal.Correction.Weighted>
   9.000000E+99

> <Gold.Protein.RotatedTorsions>
[ 6907 6896 6895 6894 ] final   65.58 input  -60.11 | X-H torsion
[ 7974 7965 7964 7962 ] final  171.41 input  175.53 | X-H torsion
[ 8008 7997 7996 7995 ] final  101.18 input   59.86 | X-H torsion
[ 10167 10162 10161 10158 ] final -128.53 input  -65.29 | X-H torsion
[ 10718 10713 10712 10709 ] final -104.54 input   66.30 | X-H torsion
[ 10763 10752 10751 10750 ] final -150.33 input  -60.55 | X-H torsion
[ 11005 11000 10999 10996 ] final  126.14 input  -57.11 | X-H torsion

> <Gold.Protein.ActiveResidues>
 VAL166  LYS551  ARG553  GLY616  TRP617  ASP618  TYR619  PRO620  LYS621  CYS622 
 ASP623  PHE694  ASN695  SER759  ASP760  ASP761  ALA762  ILE779  LEU786  VAL792 
 PHE793  MET794  SER795  GLU796  ALA797  LYS798  CYS799  TRP800  GLU811  SER814 

> <Gold.Protein.RotatedAtoms>
  152.4418  134.5575  159.9884 H   0  0  0  0  0  0  0  0  0  0  0  0  # atno 6907 bound_to 6896
  151.5670  133.3389  159.2990 H   0  0  0  0  0  0  0  0  0  0  0  0  # atno 6908 bound_to 6896
  150.8326  134.7619  159.6930 H   0  0  0  0  0  0  0  0  0  0  0  0  # atno 6909 bound_to 6896
  144.7296  139.9345  143.6426 H   0  0  0  0  0  0  0  0  0  0  0  0  # atno 7974 bound_to 7965
  156.1275  140.3201  155.8298 H   0  0  0  0  0  0  0  0  0  0  0  0  # atno 8008 bound_to 7997
  155.4394  140.0524  157.3029 H   0  0  0  0  0  0  0  0  0  0  0  0  # atno 8009 bound_to 7997
  154.4873  140.2078  155.9639 H   0  0  0  0  0  0  0  0  0  0  0  0  # atno 8010 bound_to 7997
  139.9494  143.6073  152.2480 H   0  0  0  0  0  0  0  0  0  0  0  0  # atno 10167 bound_to 10162
  156.0308  130.5520  150.7411 H   0  0  0  0  0  0  0  0  0  0  0  0  # atno 10718 bound_to 10713
  154.8125  135.3287  154.7266 H   0  0  0  0  0  0  0  0  0  0  0  0  # atno 10763 bound_to 10752
  153.7912  135.6911  153.4875 H   0  0  0  0  0  0  0  0  0  0  0  0  # atno 10764 bound_to 10752
  153.1915  135.4549  155.0102 H   0  0  0  0  0  0  0  0  0  0  0  0  # atno 10765 bound_to 10752
  139.9441  134.9632  156.8662 H   0  0  0  0  0  0  0  0  0  0  0  0  # atno 11005 bound_to 11000
  146.0832  139.3820  143.0452 LP  0  0  0  0  0  0  0  0  0  0  0  0  # atno 17320 bound_to 7965
  145.7813  140.9855  143.1098 LP  0  0  0  0  0  0  0  0  0  0  0  0  # atno 17321 bound_to 7965
  139.6641  144.7662  151.1907 LP  0  0  0  0  0  0  0  0  0  0  0  0  # atno 17342 bound_to 10162
  140.7587  143.5965  150.8743 LP  0  0  0  0  0  0  0  0  0  0  0  0  # atno 17343 bound_to 10162
  157.4979  131.0916  151.0349 LP  0  0  0  0  0  0  0  0  0  0  0  0  # atno 17370 bound_to 10713
  157.0738  130.5875  149.5407 LP  0  0  0  0  0  0  0  0  0  0  0  0  # atno 17371 bound_to 10713
  140.5878  134.0290  155.7488 LP  0  0  0  0  0  0  0  0  0  0  0  0  # atno 17394 bound_to 11000
  141.1085  133.9654  157.2952 LP  0  0  0  0  0  0  0  0  0  0  0  0  # atno 17395 bound_to 11000

$$$$
