AV-unprocessed.smi:3175|AV-procd|sdf|12122|dock3
  -GOLD-   2272017563D 1   1.00000     0.00000
 Structure written by MMmdl.
 37 38  0  0  0  0  0  0  0  0  1 V2000
  151.3589  140.9426  156.9682 O   0  0  0  0  0  0  0  0  0  0  0  0
  150.8446  142.0424  156.7651 C   0  0  0  0  0  0  0  0  0  0  0  0
  151.3957  143.2939  157.4558 C   0  0  0  0  0  0  0  0  0  0  0  0
  151.2937  143.2381  158.9942 C   0  0  0  0  0  0  0  0  0  0  0  0
  151.6828  144.5508  159.6782 C   0  0  0  0  0  0  0  0  0  0  0  0
  151.9850  144.1687  161.1315 C   0  0  0  0  0  0  0  0  0  0  0  0
  152.3308  142.6715  161.1210 C   0  0  0  0  0  0  0  0  0  0  0  0
  152.2186  142.2145  159.6626 C   0  0  0  0  0  0  0  0  0  0  0  0
  149.7875  142.2220  155.9589 N   0  0  0  0  0  0  0  0  0  0  0  0
  149.0976  141.1596  155.2340 C   0  0  0  0  0  0  0  0  0  0  0  0
  148.3661  141.6787  153.9816 C   0  0  0  0  0  0  0  0  0  0  0  0
  147.1497  142.5291  154.3051 C   0  0  0  0  0  0  0  0  0  0  0  0
  146.5413  143.3255  153.3133 C   0  0  0  0  0  0  0  0  0  0  0  0
  145.4212  144.1045  153.6617 C   0  0  0  0  0  0  0  0  0  0  0  0
  144.9559  144.0530  154.9909 C   0  0  0  0  0  0  0  0  0  0  0  0
  145.5298  143.2937  155.9488 N   0  0  0  0  0  0  0  0  0  0  0  0
  146.6027  142.5485  155.6062 C   0  0  0  0  0  0  0  0  0  0  0  0
  152.4338  143.4518  157.1585 H   0  0  0  0  0  0  0  0  0  0  0  0
  150.8364  144.1529  157.0836 H   0  0  0  0  0  0  0  0  0  0  0  0
  150.2656  143.0080  159.2804 H   0  0  0  0  0  0  0  0  0  0  0  0
  152.5838  144.9578  159.2169 H   0  0  0  0  0  0  0  0  0  0  0  0
  150.9026  145.3086  159.6011 H   0  0  0  0  0  0  0  0  0  0  0  0
  152.7958  144.7724  161.5401 H   0  0  0  0  0  0  0  0  0  0  0  0
  151.1065  144.3386  161.7552 H   0  0  0  0  0  0  0  0  0  0  0  0
  153.3267  142.4797  161.5217 H   0  0  0  0  0  0  0  0  0  0  0  0
  151.6193  142.1249  161.7412 H   0  0  0  0  0  0  0  0  0  0  0  0
  151.8467  141.1928  159.5772 H   0  0  0  0  0  0  0  0  0  0  0  0
  153.2045  142.2462  159.1964 H   0  0  0  0  0  0  0  0  0  0  0  0
  149.4240  143.1581  155.8529 H   0  0  0  0  0  0  0  0  0  0  0  0
  149.8451  140.4222  154.9404 H   0  0  0  0  0  0  0  0  0  0  0  0
  148.3994  140.6422  155.8940 H   0  0  0  0  0  0  0  0  0  0  0  0
  149.0541  142.2651  153.3716 H   0  0  0  0  0  0  0  0  0  0  0  0
  148.0559  140.8376  153.3597 H   0  0  0  0  0  0  0  0  0  0  0  0
  146.9266  143.3422  152.3043 H   0  0  0  0  0  0  0  0  0  0  0  0
  144.9303  144.7269  152.9283 H   0  0  0  0  0  0  0  0  0  0  0  0
  144.0997  144.6378  155.2927 H   0  0  0  0  0  0  0  0  0  0  0  0
  147.0413  141.9565  156.3961 H   0  0  0  0  0  0  0  0  0  0  0  0
  1  2  2  0  0  0  0
  2  3  1  0  0  0  0
  2  9  1  0  0  0  0
  3  4  1  0  0  0  0
  3 18  1  0  0  0  0
  3 19  1  0  0  0  0
  4  8  1  0  0  0  0
  4  5  1  0  0  0  0
  4 20  1  0  0  0  0
  5  6  1  0  0  0  0
  5 21  1  0  0  0  0
  5 22  1  0  0  0  0
  6  7  1  0  0  0  0
  6 23  1  0  0  0  0
  6 24  1  0  0  0  0
  7  8  1  0  0  0  0
  7 25  1  0  0  0  0
  7 26  1  0  0  0  0
  8 27  1  0  0  0  0
  8 28  1  0  0  0  0
  9 10  1  0  0  0  0
  9 29  1  0  0  0  0
 10 11  1  0  0  0  0
 10 30  1  0  0  0  0
 10 31  1  0  0  0  0
 11 12  1  0  0  0  0
 11 32  1  0  0  0  0
 11 33  1  0  0  0  0
 12 17  1  0  0  0  0
 12 13  2  0  0  0  0
 13 14  1  0  0  0  0
 13 34  1  0  0  0  0
 14 15  2  0  0  0  0
 14 35  1  0  0  0  0
 15 16  1  0  0  0  0
 15 36  1  0  0  0  0
 16 17  2  0  0  0  0
 17 37  1  0  0  0  0
M  END
> <s_m_source_file>
AV-unprocessed.smi

> <i_m_source_file_index>
3175

> <i_lp_mmshare_version>
43012

> <i_f3d_flags>
0

> <s_epik_input>
W0NIMl0xW0NIMl1bQ0gyXVtDSDJdW0NIXTFbQ0gyXUMoPU8pW05IXVtDSDJdW0NIMl1jMltjSF1bY0hdW2NIXW5bY0hdMg==

> <s_epik_cmdline>
J2VwaWtfcHl0aG9uJywgJy1waCcsICc3LjAnLCAnLXRuJywgJzgnLCAnLW1hJywgJzIwMCcsICctbWV0YWxfYmluZGluZycsICctaW1hZScsICc8aW5maWxlLm1hZT4nLCAnLW9tYWUnLCAnPG91dGZpbGUubWFlPic=

> <r_epik_Ionization_Penalty>
0.013409

> <r_epik_Ionization_Penalty_Charging>
0

> <r_epik_Ionization_Penalty_Neutral>
0.013409

> <r_epik_State_Penalty>
0.010434

> <r_epik_Charging_Adjusted_Penalty>
0.010434

> <i_epik_Tot_Q>
0

> <i_epik_Tot_abs_Q>
0

> <r_epik_Metal_State_Penalty>
0.0102027

> <b_epik_Metal_Only>
0

> <s_lp_Force_Field>
OPLS_2005

> <r_lp_Energy>
19.7305

> <b_lp_Chiralities_Consistent>
1

> <s_lp_Variant>
AV-unprocessed.smi:3175-1

> <Gold.Version>
5.8.1

> <Gold.Id.Protein>
6NUR|6NUR_protein|mol2

> <Gold.PLP.Fitness>
44.5437

> <Gold.PLP.PLP>
-42.3475

> <Gold.PLP.part.hbond>
-1.0000

> <Gold.PLP.part.metal>
0.0000

> <Gold.PLP.part.buried>
-4.3277

> <Gold.PLP.part.nonpolar>
-37.0589

> <Gold.PLP.part.repulsive>
0.2347

> <Gold.PLP.ligand.clash>
0.0000

> <Gold.PLP.ligand.torsion>
0.4099

> <Gold.PLP.Chemscore.Hbond>
1.0000

> <Gold.PLP.Chemscore.CHOScore>
0.0000

> <Gold.PLP.Chemscore.Metal>
0.0000

> <Gold.Chemscore.Hbonds>
donor molecule, donor type, donor heavy atom, donor atom, acceptor molecule, acceptor atom, score
      L1  H     9    29       P1  8028  1.00

> <Gold.PLP.Chemscore.Internal.Correction>
0.0160

> <Gold.Rescore>
     Score         DG    S(hbond)    S(metal)    S(lipo)     H(rot)  DE(clash)    DE(int)     intcor
     16.94     -17.64       1.00        0.00     107.89       1.48       0.06       0.63       ----

> <Gold.Chemscore.Fitness>
16.9431

> <Gold.Chemscore.DG>
-17.6352

> <Gold.Chemscore.ZeroCoef>
-5.4800

> <Gold.Chemscore.Hbond>
0.9979

> <Gold.Chemscore.Metal>
0.0000

> <Gold.Chemscore.Lipo>
107.8920

> <Gold.Chemscore.Internal_Hbond>
0.0000

> <Gold.Chemscore.DEClash>
0.0632

> <Gold.Chemscore.DEInternal>
0.6289

> <Gold.Chemscore.Rot>
1.4848

> <Gold.Chemscore.Internal.Correction>
   9.000000E+99

> <Gold.Chemscore.Hbonds>
donor molecule, donor type, donor heavy atom, donor atom, acceptor molecule, acceptor atom, score
      L1  H     9    29       P1  8028  1.00

> <Gold.Chemscore.Hbond.Weighted>
-3.3330

> <Gold.Chemscore.Metal.Weighted>
-0.0000

> <Gold.Chemscore.Lipo.Weighted>
-12.6234

> <Gold.Chemscore.Internal_Hbond.Weighted>
0.0000

> <Gold.Chemscore.DEClash.Weighted>
0.0632

> <Gold.Chemscore.DEInternal.Weighted>
0.6289

> <Gold.Chemscore.Rot.Weighted>
3.8012

> <Gold.Chemscore.Internal.Correction.Weighted>
   9.000000E+99

> <Gold.Protein.RotatedTorsions>
[ 6907 6896 6895 6894 ] final   96.52 input  -60.11 | X-H torsion
[ 7974 7965 7964 7962 ] final  -74.85 input  175.53 | X-H torsion
[ 8008 7997 7996 7995 ] final  -38.40 input   59.86 | X-H torsion
[ 10167 10162 10161 10158 ] final  121.53 input  -65.29 | X-H torsion
[ 10718 10713 10712 10709 ] final  100.13 input   66.30 | X-H torsion
[ 10763 10752 10751 10750 ] final  167.28 input  -60.55 | X-H torsion
[ 11005 11000 10999 10996 ] final   70.52 input  -57.11 | X-H torsion

> <Gold.Protein.ActiveResidues>
 VAL166  LYS551  ARG553  GLY616  TRP617  ASP618  TYR619  PRO620  LYS621  CYS622 
 ASP623  PHE694  ASN695  SER759  ASP760  ASP761  ALA762  ILE779  LEU786  VAL792 
 PHE793  MET794  SER795  GLU796  ALA797  LYS798  CYS799  TRP800  GLU811  SER814 

> <Gold.Protein.RotatedAtoms>
  152.5434  134.0873  159.8261 H   0  0  0  0  0  0  0  0  0  0  0  0  # atno 6907 bound_to 6896
  151.0967  133.5267  159.2619 H   0  0  0  0  0  0  0  0  0  0  0  0  # atno 6908 bound_to 6896
  151.2037  135.0462  159.8937 H   0  0  0  0  0  0  0  0  0  0  0  0  # atno 6909 bound_to 6896
  145.6337  140.9330  143.1073 H   0  0  0  0  0  0  0  0  0  0  0  0  # atno 7974 bound_to 7965
  154.4037  140.1579  156.2693 H   0  0  0  0  0  0  0  0  0  0  0  0  # atno 8008 bound_to 7997
  155.8967  140.3435  155.5974 H   0  0  0  0  0  0  0  0  0  0  0  0  # atno 8009 bound_to 7997
  155.7495  140.0803  157.2198 H   0  0  0  0  0  0  0  0  0  0  0  0  # atno 8010 bound_to 7997
  139.5914  144.7026  151.3281 H   0  0  0  0  0  0  0  0  0  0  0  0  # atno 10167 bound_to 10162
  157.6861  131.0690  150.5054 H   0  0  0  0  0  0  0  0  0  0  0  0  # atno 10718 bound_to 10713
  154.3514  135.2753  155.2370 H   0  0  0  0  0  0  0  0  0  0  0  0  # atno 10763 bound_to 10752
  154.4597  135.5910  153.6251 H   0  0  0  0  0  0  0  0  0  0  0  0  # atno 10764 bound_to 10752
  152.9849  135.6062  154.3725 H   0  0  0  0  0  0  0  0  0  0  0  0  # atno 10765 bound_to 10752
  139.9593  134.7089  156.0681 H   0  0  0  0  0  0  0  0  0  0  0  0  # atno 11005 bound_to 11000
  144.7184  139.8117  143.7391 LP  0  0  0  0  0  0  0  0  0  0  0  0  # atno 17320 bound_to 7965
  146.1336  139.4377  143.0153 LP  0  0  0  0  0  0  0  0  0  0  0  0  # atno 17321 bound_to 7965
  140.7176  143.7223  150.7686 LP  0  0  0  0  0  0  0  0  0  0  0  0  # atno 17342 bound_to 10162
  140.0780  143.4996  152.2545 LP  0  0  0  0  0  0  0  0  0  0  0  0  # atno 17343 bound_to 10162
  156.5374  130.4199  149.6171 LP  0  0  0  0  0  0  0  0  0  0  0  0  # atno 17370 bound_to 10713
  156.3016  130.7180  151.2052 LP  0  0  0  0  0  0  0  0  0  0  0  0  # atno 17371 bound_to 10713
  141.1269  133.6597  156.3359 LP  0  0  0  0  0  0  0  0  0  0  0  0  # atno 17394 bound_to 11000
  140.5536  134.6003  157.5414 LP  0  0  0  0  0  0  0  0  0  0  0  0  # atno 17395 bound_to 11000

$$$$
