AV-unprocessed.smi:2773|AV-procd|sdf|10678|dock3
  -GOLD-   2272015123D 1   1.00000     0.00000
 Structure written by MMmdl.
 30 31  0  0  0  0  0  0  0  0  1 V2000
  146.8365  142.4610  154.1697 C   0  0  0  0  0  0  0  0  0  0  0  0
  147.7944  141.3471  153.7952 C   0  0  2  0  0  0  0  0  0  0  0  0
  148.1183  140.2512  154.7755 C   0  0  0  0  0  0  0  0  0  0  0  0
  149.1885  141.2482  154.3870 C   0  0  2  0  0  0  0  0  0  0  0  0
  149.5914  142.1927  155.3868 N   0  0  0  0  0  0  0  0  0  0  0  0
  150.3206  141.9660  156.4942 C   0  0  0  0  0  0  0  0  0  0  0  0
  150.7081  140.8332  156.7761 O   0  0  0  0  0  0  0  0  0  0  0  0
  150.5398  143.0615  157.2491 N   0  0  0  0  0  0  0  0  0  0  0  0
  151.2716  143.1654  158.4613 C   0  0  0  0  0  0  0  0  0  0  0  0
  151.0389  144.3453  159.2017 C   0  0  0  0  0  0  0  0  0  0  0  0
  151.7176  144.5433  160.4191 C   0  0  0  0  0  0  0  0  0  0  0  0
  152.6136  143.5562  160.8660 C   0  0  0  0  0  0  0  0  0  0  0  0
  152.7929  142.4053  160.0692 C   0  0  0  0  0  0  0  0  0  0  0  0
  153.7450  141.2906  160.4789 C   0  0  0  0  0  0  0  0  0  0  0  0
  153.2267  140.0856  160.2378 F   0  0  0  0  0  0  0  0  0  0  0  0
  154.8866  141.4010  159.7993 F   0  0  0  0  0  0  0  0  0  0  0  0
  154.0098  141.3819  161.7825 F   0  0  0  0  0  0  0  0  0  0  0  0
  152.1380  142.2199  158.9005 N   0  0  0  0  0  0  0  0  0  0  0  0
  146.8855  142.6822  155.2363 H   0  0  0  0  0  0  0  0  0  0  0  0
  145.8147  142.1705  153.9257 H   0  0  0  0  0  0  0  0  0  0  0  0
  147.0820  143.3666  153.6145 H   0  0  0  0  0  0  0  0  0  0  0  0
  147.7115  141.0452  152.7529 H   0  0  0  0  0  0  0  0  0  0  0  0
  147.6941  140.3242  155.7754 H   0  0  0  0  0  0  0  0  0  0  0  0
  148.2086  139.2400  154.3841 H   0  0  0  0  0  0  0  0  0  0  0  0
  149.9636  140.8473  153.7355 H   0  0  0  0  0  0  0  0  0  0  0  0
  149.2324  143.1296  155.2719 H   0  0  0  0  0  0  0  0  0  0  0  0
  150.1411  143.9234  156.9077 H   0  0  0  0  0  0  0  0  0  0  0  0
  150.3474  145.0945  158.8443 H   0  0  0  0  0  0  0  0  0  0  0  0
  151.5533  145.4388  160.9998 H   0  0  0  0  0  0  0  0  0  0  0  0
  153.1457  143.6869  161.7967 H   0  0  0  0  0  0  0  0  0  0  0  0
  1  2  1  0  0  0  0
  1 19  1  0  0  0  0
  1 20  1  0  0  0  0
  1 21  1  0  0  0  0
  2  4  1  0  0  0  0
  2  3  1  0  0  0  0
  2 22  1  0  0  0  0
  3  4  1  0  0  0  0
  3 23  1  0  0  0  0
  3 24  1  0  0  0  0
  4  5  1  0  0  0  0
  4 25  1  0  0  0  0
  5  6  1  0  0  0  0
  5 26  1  0  0  0  0
  6  7  2  0  0  0  0
  6  8  1  0  0  0  0
  8  9  1  0  0  0  0
  8 27  1  0  0  0  0
  9 18  1  0  0  0  0
  9 10  2  0  0  0  0
 10 11  1  0  0  0  0
 10 28  1  0  0  0  0
 11 12  2  0  0  0  0
 11 29  1  0  0  0  0
 12 13  1  0  0  0  0
 12 30  1  0  0  0  0
 13 14  1  0  0  0  0
 13 18  2  0  0  0  0
 14 15  1  0  0  0  0
 14 16  1  0  0  0  0
 14 17  1  0  0  0  0
M  END
> <s_m_source_file>
AV-unprocessed.smi

> <i_m_source_file_index>
2773

> <i_lp_mmshare_version>
43012

> <i_f3d_flags>
0

> <s_epik_input>
W0NIM11bQ0BASF0xW0NIMl1bQ0BIXTFbTkhdQyg9TylbTkhdYzJbY0hdW2NIXVtjSF1jKG4yKUMoRikoRilG

> <s_epik_cmdline>
J2VwaWtfcHl0aG9uJywgJy1waCcsICc3LjAnLCAnLXRuJywgJzgnLCAnLW1hJywgJzIwMCcsICctbWV0YWxfYmluZGluZycsICctaW1hZScsICc8aW5maWxlLm1hZT4nLCAnLW9tYWUnLCAnPG91dGZpbGUubWFlPic=

> <r_lp_tautomer_probability>
1

> <r_epik_Ionization_Penalty>
4.04275e-05

> <r_epik_Ionization_Penalty_Charging>
0

> <r_epik_Ionization_Penalty_Neutral>
4.04275e-05

> <r_epik_State_Penalty>
-0

> <r_epik_Charging_Adjusted_Penalty>
0

> <i_epik_Tot_Q>
0

> <i_epik_Tot_abs_Q>
0

> <r_epik_Metal_State_Penalty>
-0

> <b_epik_Metal_Only>
0

> <s_lp_Force_Field>
OPLS_2005

> <r_lp_Energy>
32.9292

> <b_lp_Chiralities_Consistent>
1

> <s_lp_Variant>
AV-unprocessed.smi:2773-3

> <Gold.Version>
5.8.1

> <Gold.Id.Protein>
6NUR|6NUR_protein|mol2

> <Gold.PLP.Fitness>
46.9553

> <Gold.PLP.PLP>
-43.4753

> <Gold.PLP.part.hbond>
-2.0000

> <Gold.PLP.part.metal>
0.0000

> <Gold.PLP.part.buried>
-5.5462

> <Gold.PLP.part.nonpolar>
-36.0016

> <Gold.PLP.part.repulsive>
0.2218

> <Gold.PLP.ligand.clash>
0.3029

> <Gold.PLP.ligand.torsion>
1.0433

> <Gold.PLP.Chemscore.Hbond>
1.9440

> <Gold.PLP.Chemscore.CHOScore>
0.0000

> <Gold.PLP.Chemscore.Metal>
0.0000

> <Gold.Chemscore.Hbonds>
donor molecule, donor type, donor heavy atom, donor atom, acceptor molecule, acceptor atom, score
      L1  H     5    26       P1  8028  1.00
      L1  H     8    27       P1  8028  0.93

> <Gold.PLP.Chemscore.Internal.Correction>
0.0374

> <Gold.Rescore>
     Score         DG    S(hbond)    S(metal)    S(lipo)     H(rot)  DE(clash)    DE(int)     intcor
     17.19     -18.93       1.94        0.00      81.52       1.00       0.03       1.71       ----

> <Gold.Chemscore.Fitness>
17.1931

> <Gold.Chemscore.DG>
-18.9348

> <Gold.Chemscore.ZeroCoef>
-5.4800

> <Gold.Chemscore.Hbond>
1.9391

> <Gold.Chemscore.Metal>
0.0000

> <Gold.Chemscore.Lipo>
81.5239

> <Gold.Chemscore.Internal_Hbond>
0.0000

> <Gold.Chemscore.DEClash>
0.0304

> <Gold.Chemscore.DEInternal>
1.7114

> <Gold.Chemscore.Rot>
1.0000

> <Gold.Chemscore.Internal.Correction>
   9.000000E+99

> <Gold.Chemscore.Hbonds>
donor molecule, donor type, donor heavy atom, donor atom, acceptor molecule, acceptor atom, score
      L1  H     5    26       P1  8028  0.99
      L1  H     8    27       P1  8028  0.89

> <Gold.Chemscore.Hbond.Weighted>
-6.4766

> <Gold.Chemscore.Metal.Weighted>
-0.0000

> <Gold.Chemscore.Lipo.Weighted>
-9.5383

> <Gold.Chemscore.Internal_Hbond.Weighted>
0.0000

> <Gold.Chemscore.DEClash.Weighted>
0.0304

> <Gold.Chemscore.DEInternal.Weighted>
1.7114

> <Gold.Chemscore.Rot.Weighted>
2.5600

> <Gold.Chemscore.Internal.Correction.Weighted>
   9.000000E+99

> <Gold.Protein.RotatedTorsions>
[ 6907 6896 6895 6894 ] final   28.33 input  -60.11 | X-H torsion
[ 7974 7965 7964 7962 ] final  -43.51 input  175.53 | X-H torsion
[ 8008 7997 7996 7995 ] final   67.75 input   59.86 | X-H torsion
[ 10167 10162 10161 10158 ] final -151.28 input  -65.29 | X-H torsion
[ 10718 10713 10712 10709 ] final -163.14 input   66.30 | X-H torsion
[ 10763 10752 10751 10750 ] final  -61.21 input  -60.55 | X-H torsion
[ 11005 11000 10999 10996 ] final   92.26 input  -57.11 | X-H torsion

> <Gold.Protein.ActiveResidues>
 VAL166  LYS551  ARG553  GLY616  TRP617  ASP618  TYR619  PRO620  LYS621  CYS622 
 ASP623  PHE694  ASN695  SER759  ASP760  ASP761  ALA762  ILE779  LEU786  VAL792 
 PHE793  MET794  SER795  GLU796  ALA797  LYS798  CYS799  TRP800  GLU811  SER814 

> <Gold.Protein.RotatedAtoms>
  152.0153  134.9853  160.0569 H   0  0  0  0  0  0  0  0  0  0  0  0  # atno 6907 bound_to 6896
  152.1389  133.4447  159.4765 H   0  0  0  0  0  0  0  0  0  0  0  0  # atno 6908 bound_to 6896
  150.6863  134.2248  159.4454 H   0  0  0  0  0  0  0  0  0  0  0  0  # atno 6909 bound_to 6896
  146.0011  140.7073  142.9270 H   0  0  0  0  0  0  0  0  0  0  0  0  # atno 7974 bound_to 7965
  155.6978  140.3495  155.4920 H   0  0  0  0  0  0  0  0  0  0  0  0  # atno 8008 bound_to 7997
  155.9468  140.1111  157.1032 H   0  0  0  0  0  0  0  0  0  0  0  0  # atno 8009 bound_to 7997
  154.4113  140.1202  156.4985 H   0  0  0  0  0  0  0  0  0  0  0  0  # atno 8010 bound_to 7997
  139.7281  143.8851  152.2526 H   0  0  0  0  0  0  0  0  0  0  0  0  # atno 10167 bound_to 10162
  156.6204  130.8888  151.2956 H   0  0  0  0  0  0  0  0  0  0  0  0  # atno 10718 bound_to 10713
  154.2810  135.6272  153.5347 H   0  0  0  0  0  0  0  0  0  0  0  0  # atno 10763 bound_to 10752
  152.9866  135.5633  154.5495 H   0  0  0  0  0  0  0  0  0  0  0  0  # atno 10764 bound_to 10752
  154.5086  135.2876  155.1337 H   0  0  0  0  0  0  0  0  0  0  0  0  # atno 10765 bound_to 10752
  139.8826  134.8722  156.3547 H   0  0  0  0  0  0  0  0  0  0  0  0  # atno 11005 bound_to 11000
  144.6920  140.3235  143.7228 LP  0  0  0  0  0  0  0  0  0  0  0  0  # atno 17320 bound_to 7965
  145.7485  139.1786  143.2335 LP  0  0  0  0  0  0  0  0  0  0  0  0  # atno 17321 bound_to 7965
  139.8766  144.7040  150.8925 LP  0  0  0  0  0  0  0  0  0  0  0  0  # atno 17342 bound_to 10162
  140.7766  143.3694  151.1677 LP  0  0  0  0  0  0  0  0  0  0  0  0  # atno 17343 bound_to 10162
  157.7229  130.9583  150.1512 LP  0  0  0  0  0  0  0  0  0  0  0  0  # atno 17370 bound_to 10713
  156.2316  130.3682  149.8438 LP  0  0  0  0  0  0  0  0  0  0  0  0  # atno 17371 bound_to 10713
  140.9570  133.7413  156.0349 LP  0  0  0  0  0  0  0  0  0  0  0  0  # atno 17394 bound_to 11000
  140.8036  134.3480  157.5432 LP  0  0  0  0  0  0  0  0  0  0  0  0  # atno 17395 bound_to 11000

$$$$
