AV-unprocessed.smi:1439|AV-procd|sdf|5872|dock6
  -GOLD-   22720 5543D 1   1.00000     0.00000
 Structure written by MMmdl.
 35 36  0  0  0  0  0  0  0  0  2 V2000
  148.4685  135.2847  154.0429 N   0  0  0  0  0  0  0  0  0  0  0  0
  149.0428  134.8816  155.1807 C   0  0  0  0  0  0  0  0  0  0  0  0
  148.3862  134.4230  156.1134 O   0  0  0  0  0  0  0  0  0  0  0  0
  150.5699  134.9785  155.2867 C   0  0  0  0  0  0  0  0  0  0  0  0
  151.0383  136.4069  155.3091 C   0  0  0  0  0  0  0  0  0  0  0  0
  150.8171  137.3590  154.3473 C   0  0  0  0  0  0  0  0  0  0  0  0
  151.5292  138.8872  154.7776 S   0  0  0  0  0  0  0  0  0  0  0  0
  152.1195  138.1765  156.2807 C   0  0  0  0  0  0  0  0  0  0  0  0
  152.8300  138.8313  157.2119 N   0  5  0  0  0  0  0  0  0  0  0  0
  152.1850  139.4595  158.2240 C   0  0  0  0  0  0  0  0  0  0  0  0
  151.4114  138.9834  159.0569 O   0  0  0  0  0  0  0  0  0  0  0  0
  152.5121  140.9578  158.2724 C   0  0  0  0  0  0  0  0  0  0  0  0
  151.8131  141.6685  159.4452 C   0  0  0  0  0  0  0  0  0  0  0  0
  152.2950  143.1142  159.6343 C   0  0  1  0  0  0  0  0  0  0  0  0
  152.4380  143.8929  158.3288 C   0  0  0  0  0  0  0  0  0  0  0  0
  152.3579  145.3201  158.8203 C   0  0  0  0  0  0  0  0  0  0  0  0
  151.3145  145.2171  159.9309 C   0  0  0  0  0  0  0  0  0  0  0  0
  151.3590  143.8704  160.3977 O   0  0  0  0  0  0  0  0  0  0  0  0
  151.7897  136.8847  156.3872 N   0  0  0  0  0  0  0  0  0  0  0  0
  147.4634  135.2612  153.9525 H   0  0  0  0  0  0  0  0  0  0  0  0
  149.0403  135.6386  153.2894 H   0  0  0  0  0  0  0  0  0  0  0  0
  150.9004  134.4584  156.1867 H   0  0  0  0  0  0  0  0  0  0  0  0
  151.0098  134.4431  154.4449 H   0  0  0  0  0  0  0  0  0  0  0  0
  150.2781  137.2565  153.4176 H   0  0  0  0  0  0  0  0  0  0  0  0
  153.5934  141.0652  158.3654 H   0  0  0  0  0  0  0  0  0  0  0  0
  152.2352  141.4491  157.3374 H   0  0  0  0  0  0  0  0  0  0  0  0
  150.7363  141.6754  159.2696 H   0  0  0  0  0  0  0  0  0  0  0  0
  151.9711  141.1102  160.3690 H   0  0  0  0  0  0  0  0  0  0  0  0
  153.2505  143.1272  160.1616 H   0  0  0  0  0  0  0  0  0  0  0  0
  153.3662  143.6727  157.8007 H   0  0  0  0  0  0  0  0  0  0  0  0
  151.6029  143.6811  157.6594 H   0  0  0  0  0  0  0  0  0  0  0  0
  153.3193  145.6251  159.2358 H   0  0  0  0  0  0  0  0  0  0  0  0
  152.0820  146.0294  158.0396 H   0  0  0  0  0  0  0  0  0  0  0  0
  151.5055  145.9230  160.7396 H   0  0  0  0  0  0  0  0  0  0  0  0
  150.3160  145.4135  159.5391 H   0  0  0  0  0  0  0  0  0  0  0  0
  1  2  1  0  0  0  0
  1 20  1  0  0  0  0
  1 21  1  0  0  0  0
  2  3  2  0  0  0  0
  2  4  1  0  0  0  0
  4  5  1  0  0  0  0
  4 22  1  0  0  0  0
  4 23  1  0  0  0  0
  5 19  1  0  0  0  0
  5  6  2  0  0  0  0
  6  7  1  0  0  0  0
  6 24  1  0  0  0  0
  7  8  1  0  0  0  0
  8  9  1  0  0  0  0
  8 19  2  0  0  0  0
  9 10  1  0  0  0  0
 10 11  2  0  0  0  0
 10 12  1  0  0  0  0
 12 13  1  0  0  0  0
 12 25  1  0  0  0  0
 12 26  1  0  0  0  0
 13 14  1  0  0  0  0
 13 27  1  0  0  0  0
 13 28  1  0  0  0  0
 14 18  1  0  0  0  0
 14 15  1  0  0  0  0
 14 29  1  0  0  0  0
 15 16  1  0  0  0  0
 15 30  1  0  0  0  0
 15 31  1  0  0  0  0
 16 17  1  0  0  0  0
 16 32  1  0  0  0  0
 16 33  1  0  0  0  0
 17 18  1  0  0  0  0
 17 34  1  0  0  0  0
 17 35  1  0  0  0  0
M  CHG  1   9  -1
M  END
> <s_m_source_file>
AV-unprocessed.smi

> <i_m_source_file_index>
1439

> <i_lp_mmshare_version>
43012

> <i_f3d_flags>
0

> <s_epik_input>
W05IMl1DKD1PKVtDSDJdYzFbY0hdc2MobjEpW05IXUMoPU8pW0NIMl1bQ0gyXVtDQEBIXTJbQ0gyXVtDSDJdW0NIMl1PMg==

> <s_epik_cmdline>
J2VwaWtfcHl0aG9uJywgJy1waCcsICc3LjAnLCAnLXRuJywgJzgnLCAnLW1hJywgJzIwMCcsICctbWV0YWxfYmluZGluZycsICctaW1hZScsICc8aW5maWxlLm1hZT4nLCAnLW9tYWUnLCAnPG91dGZpbGUubWFlPic=

> <r_lp_tautomer_probability>
1

> <r_epik_Ionization_Penalty>
4.85214

> <r_epik_Ionization_Penalty_Charging>
4.5239

> <r_epik_Ionization_Penalty_Neutral>
0.32824

> <r_epik_State_Penalty>
4.52362

> <r_epik_Charging_Adjusted_Penalty>
9.04752

> <i_epik_Tot_Q>
-1

> <i_epik_Tot_abs_Q>
1

> <r_epik_Metal_State_Penalty>
0.831335

> <b_epik_Metal_Only>
1

> <s_lp_Force_Field>
OPLS_2005

> <r_lp_Energy>
13.9468

> <b_lp_Chiralities_Consistent>
1

> <s_lp_Variant>
AV-unprocessed.smi:1439-4

> <Gold.Version>
5.8.1

> <Gold.Id.Protein>
6NUR|6NUR_protein|mol2

> <Gold.PLP.Fitness>
45.5813

> <Gold.PLP.PLP>
-36.2189

> <Gold.PLP.part.hbond>
-2.0000

> <Gold.PLP.part.metal>
0.0000

> <Gold.PLP.part.buried>
-4.1288

> <Gold.PLP.part.nonpolar>
-29.6268

> <Gold.PLP.part.repulsive>
0.1181

> <Gold.PLP.ligand.clash>
0.0000

> <Gold.PLP.ligand.torsion>
1.5188

> <Gold.PLP.Chemscore.Hbond>
3.0000

> <Gold.PLP.Chemscore.CHOScore>
1.0725

> <Gold.PLP.Chemscore.Metal>
0.0000

> <Gold.Chemscore.Hbonds>
donor molecule, donor type, donor heavy atom, donor atom, acceptor molecule, acceptor atom, score
      L1  H     1    21       P1  7948  0.86
      P1  H  7997  8010       L1     9  1.76
      L1  C     6    24       P1  7948  0.77
      L1  C     6    24       P1  7949  0.21

> <Gold.PLP.Chemscore.Internal.Correction>
0.1825

> <Gold.Rescore>
     Score         DG    S(hbond)    S(metal)    S(lipo)     H(rot)  DE(clash)    DE(int)     intcor
     14.66     -16.32       1.89        0.00      93.58       2.51       0.11       1.56       ----

> <Gold.Chemscore.Fitness>
14.6568

> <Gold.Chemscore.DG>
-16.3241

> <Gold.Chemscore.ZeroCoef>
-5.4800

> <Gold.Chemscore.Hbond>
1.8928

> <Gold.Chemscore.Metal>
0.0000

> <Gold.Chemscore.Lipo>
93.5774

> <Gold.Chemscore.Internal_Hbond>
0.0000

> <Gold.Chemscore.DEClash>
0.1118

> <Gold.Chemscore.DEInternal>
1.5555

> <Gold.Chemscore.Rot>
2.5103

> <Gold.Chemscore.Internal.Correction>
   9.000000E+99

> <Gold.Chemscore.Hbonds>
donor molecule, donor type, donor heavy atom, donor atom, acceptor molecule, acceptor atom, score
      L1  H     1    21       P1  7948  0.55
      P1  H  7997  8010       L1     9  0.53

> <Gold.Chemscore.Hbond.Weighted>
-6.3220

> <Gold.Chemscore.Metal.Weighted>
-0.0000

> <Gold.Chemscore.Lipo.Weighted>
-10.9486

> <Gold.Chemscore.Internal_Hbond.Weighted>
0.0000

> <Gold.Chemscore.DEClash.Weighted>
0.1118

> <Gold.Chemscore.DEInternal.Weighted>
1.5555

> <Gold.Chemscore.Rot.Weighted>
6.4264

> <Gold.Chemscore.Internal.Correction.Weighted>
   9.000000E+99

> <Gold.Protein.RotatedTorsions>
[ 6907 6896 6895 6894 ] final  145.48 input  -60.11 | X-H torsion
[ 7974 7965 7964 7962 ] final -135.63 input  175.53 | X-H torsion
[ 8008 7997 7996 7995 ] final   64.56 input   59.86 | X-H torsion
[ 10167 10162 10161 10158 ] final  148.67 input  -65.29 | X-H torsion
[ 10718 10713 10712 10709 ] final   26.49 input   66.30 | X-H torsion
[ 10763 10752 10751 10750 ] final -104.81 input  -60.55 | X-H torsion
[ 11005 11000 10999 10996 ] final  -12.26 input  -57.11 | X-H torsion

> <Gold.Protein.ActiveResidues>
 VAL166  LYS551  ARG553  GLY616  TRP617  ASP618  TYR619  PRO620  LYS621  CYS622 
 ASP623  PHE694  ASN695  SER759  ASP760  ASP761  ALA762  ILE779  LEU786  VAL792 
 PHE793  MET794  SER795  GLU796  ALA797  LYS798  CYS799  TRP800  GLU811  SER814 

> <Gold.Protein.RotatedAtoms>
  152.1804  133.4703  159.4954 H   0  0  0  0  0  0  0  0  0  0  0  0  # atno 6907 bound_to 6896
  150.6933  134.1841  159.4269 H   0  0  0  0  0  0  0  0  0  0  0  0  # atno 6908 bound_to 6896
  151.9752  135.0056  160.0605 H   0  0  0  0  0  0  0  0  0  0  0  0  # atno 6909 bound_to 6896
  144.8997  140.6754  143.5093 H   0  0  0  0  0  0  0  0  0  0  0  0  # atno 7974 bound_to 7965
  155.6479  140.3497  155.4738 H   0  0  0  0  0  0  0  0  0  0  0  0  # atno 8008 bound_to 7997
  155.9872  140.1186  157.0695 H   0  0  0  0  0  0  0  0  0  0  0  0  # atno 8009 bound_to 7997
  154.4208  140.1126  156.5501 H   0  0  0  0  0  0  0  0  0  0  0  0  # atno 8010 bound_to 7997
  139.4871  144.5661  151.7142 H   0  0  0  0  0  0  0  0  0  0  0  0  # atno 10167 bound_to 10162
  157.2075  130.6919  149.6214 H   0  0  0  0  0  0  0  0  0  0  0  0  # atno 10718 bound_to 10713
  154.7904  135.4772  154.0039 H   0  0  0  0  0  0  0  0  0  0  0  0  # atno 10763 bound_to 10752
  153.1622  135.6810  153.8734 H   0  0  0  0  0  0  0  0  0  0  0  0  # atno 10764 bound_to 10752
  153.8344  135.3187  155.3399 H   0  0  0  0  0  0  0  0  0  0  0  0  # atno 10765 bound_to 10752
  140.7639  133.8493  155.9148 H   0  0  0  0  0  0  0  0  0  0  0  0  # atno 11005 bound_to 11000
  145.3638  139.1675  143.4369 LP  0  0  0  0  0  0  0  0  0  0  0  0  # atno 17320 bound_to 7965
  146.3101  140.3703  142.8673 LP  0  0  0  0  0  0  0  0  0  0  0  0  # atno 17321 bound_to 7965
  140.5239  144.0835  150.6031 LP  0  0  0  0  0  0  0  0  0  0  0  0  # atno 17342 bound_to 10162
  140.3803  143.2806  152.0178 LP  0  0  0  0  0  0  0  0  0  0  0  0  # atno 17343 bound_to 10162
  155.9694  130.4562  150.5916 LP  0  0  0  0  0  0  0  0  0  0  0  0  # atno 17370 bound_to 10713
  157.3705  131.0765  151.1561 LP  0  0  0  0  0  0  0  0  0  0  0  0  # atno 17371 bound_to 10713
  140.9637  134.1622  157.4633 LP  0  0  0  0  0  0  0  0  0  0  0  0  # atno 17394 bound_to 11000
  139.8766  134.9954  156.5742 LP  0  0  0  0  0  0  0  0  0  0  0  0  # atno 17395 bound_to 11000

$$$$
