AV-unprocessed.smi:147|AV-procd|sdf|1201|dock4
  -GOLD-   2262018363D 1   1.00000     0.00000
 Structure written by MMmdl.
 55 57  0  0  0  0  0  0  0  0  1 V2000
  152.8200  144.7208  158.3710 C   0  0  0  0  0  0  0  0  0  0  0  0
  151.3419  144.3484  158.1689 C   0  0  0  0  0  0  0  0  0  0  0  0
  150.5302  144.5723  159.4550 C   0  0  0  0  0  0  0  0  0  0  0  0
  151.2056  142.8970  157.6910 C   0  0  0  0  0  0  0  0  0  0  0  0
  151.6699  141.9761  158.3642 O   0  0  0  0  0  0  0  0  0  0  0  0
  150.5629  142.7060  156.5286 N   0  0  0  0  0  0  0  0  0  0  0  0
  150.3138  141.4083  155.9140 C   0  0  0  0  0  0  0  0  0  0  0  0
  148.8540  140.9635  156.1199 C   0  0  0  0  0  0  0  0  0  0  0  0
  148.2166  140.5410  154.8722 N   0  0  0  0  0  0  0  0  0  0  0  0
  147.8940  141.5695  153.8902 C   0  0  0  0  0  0  0  0  0  0  0  0
  147.6316  139.3120  154.7722 C   0  0  0  0  0  0  0  0  0  0  0  0
  147.6233  138.5012  155.8652 N   0  0  0  0  0  0  0  0  0  0  0  0
  147.0581  137.2927  155.8214 C   0  0  0  0  0  0  0  0  0  0  0  0
  146.4558  136.6932  154.7957 N   0  0  0  0  0  0  0  0  0  0  0  0
  146.4672  137.4850  153.6864 C   0  0  0  0  0  0  0  0  0  0  0  0
  147.0209  138.7958  153.5868 C   0  0  0  0  0  0  0  0  0  0  0  0
  146.8273  139.2778  152.2954 N   0  0  0  0  0  0  0  0  0  0  0  0
  146.1923  138.3203  151.6782 C   0  0  0  0  0  0  0  0  0  0  0  0
  145.9624  137.1930  152.4312 N   0  0  0  0  0  0  0  0  0  0  0  0
  145.2621  136.0124  152.0177 C   0  0  0  0  0  0  0  0  0  0  0  0
  145.3849  134.7055  152.8042 C   0  0  0  0  0  0  0  0  0  0  0  0
  145.2331  133.9069  151.4903 C   0  0  0  0  0  0  0  0  0  0  0  0
  146.1662  132.6940  151.3432 C   0  0  0  0  0  0  0  0  0  0  0  0
  146.5025  132.4675  149.9898 O   0  0  0  0  0  0  0  0  0  0  0  0
  143.7924  133.4834  151.1407 C   0  0  0  0  0  0  0  0  0  0  0  0
  143.6543  133.2122  149.7605 O   0  0  0  0  0  0  0  0  0  0  0  0
  145.7227  135.2013  150.8036 C   0  0  0  0  0  0  0  0  0  0  0  0
  153.3979  144.5606  157.4601 H   0  0  0  0  0  0  0  0  0  0  0  0
  153.2786  144.1301  159.1652 H   0  0  0  0  0  0  0  0  0  0  0  0
  152.9225  145.7719  158.6416 H   0  0  0  0  0  0  0  0  0  0  0  0
  150.9350  145.0039  157.3972 H   0  0  0  0  0  0  0  0  0  0  0  0
  149.4807  144.3112  159.3124 H   0  0  0  0  0  0  0  0  0  0  0  0
  150.5670  145.6180  159.7610 H   0  0  0  0  0  0  0  0  0  0  0  0
  150.9134  143.9729  160.2818 H   0  0  0  0  0  0  0  0  0  0  0  0
  150.2134  143.5172  156.0394 H   0  0  0  0  0  0  0  0  0  0  0  0
  150.5358  141.4955  154.8503 H   0  0  0  0  0  0  0  0  0  0  0  0
  151.0056  140.6657  156.3146 H   0  0  0  0  0  0  0  0  0  0  0  0
  148.8227  140.1241  156.8153 H   0  0  0  0  0  0  0  0  0  0  0  0
  148.2761  141.7554  156.5981 H   0  0  0  0  0  0  0  0  0  0  0  0
  148.4169  141.3808  152.9526 H   0  0  0  0  0  0  0  0  0  0  0  0
  148.1957  142.5559  154.2432 H   0  0  0  0  0  0  0  0  0  0  0  0
  146.8214  141.6029  153.6964 H   0  0  0  0  0  0  0  0  0  0  0  0
  147.0966  136.7240  156.7388 H   0  0  0  0  0  0  0  0  0  0  0  0
  145.8815  138.4087  150.6473 H   0  0  0  0  0  0  0  0  0  0  0  0
  144.2154  136.3030  151.9149 H   0  0  0  0  0  0  0  0  0  0  0  0
  146.3683  134.5896  153.2638 H   0  0  0  0  0  0  0  0  0  0  0  0
  144.5937  134.5483  153.5379 H   0  0  0  0  0  0  0  0  0  0  0  0
  147.0944  132.8514  151.8935 H   0  0  0  0  0  0  0  0  0  0  0  0
  145.7179  131.7893  151.7544 H   0  0  0  0  0  0  0  0  0  0  0  0
  147.2603  131.9037  149.9600 H   0  0  0  0  0  0  0  0  0  0  0  0
  143.5026  132.5853  151.6862 H   0  0  0  0  0  0  0  0  0  0  0  0
  143.0713  134.2515  151.4208 H   0  0  0  0  0  0  0  0  0  0  0  0
  142.7558  133.3679  149.5125 H   0  0  0  0  0  0  0  0  0  0  0  0
  145.2102  135.4488  149.8736 H   0  0  0  0  0  0  0  0  0  0  0  0
  146.8061  135.2258  150.6703 H   0  0  0  0  0  0  0  0  0  0  0  0
  1  2  1  0  0  0  0
  1 28  1  0  0  0  0
  1 29  1  0  0  0  0
  1 30  1  0  0  0  0
  2  3  1  0  0  0  0
  2  4  1  0  0  0  0
  2 31  1  0  0  0  0
  3 32  1  0  0  0  0
  3 33  1  0  0  0  0
  3 34  1  0  0  0  0
  4  5  2  0  0  0  0
  4  6  1  0  0  0  0
  6  7  1  0  0  0  0
  6 35  1  0  0  0  0
  7  8  1  0  0  0  0
  7 36  1  0  0  0  0
  7 37  1  0  0  0  0
  8  9  1  0  0  0  0
  8 38  1  0  0  0  0
  8 39  1  0  0  0  0
  9 10  1  0  0  0  0
  9 11  1  0  0  0  0
 10 40  1  0  0  0  0
 10 41  1  0  0  0  0
 10 42  1  0  0  0  0
 11 16  1  0  0  0  0
 11 12  2  0  0  0  0
 12 13  1  0  0  0  0
 13 14  2  0  0  0  0
 13 43  1  0  0  0  0
 14 15  1  0  0  0  0
 15 19  1  0  0  0  0
 15 16  2  0  0  0  0
 16 17  1  0  0  0  0
 17 18  2  0  0  0  0
 18 19  1  0  0  0  0
 18 44  1  0  0  0  0
 19 20  1  0  0  0  0
 20 27  1  0  0  0  0
 20 21  1  0  0  0  0
 20 45  1  0  0  0  0
 21 22  1  0  0  0  0
 21 46  1  0  0  0  0
 21 47  1  0  0  0  0
 22 23  1  0  0  0  0
 22 25  1  0  0  0  0
 22 27  1  0  0  0  0
 23 24  1  0  0  0  0
 23 48  1  0  0  0  0
 23 49  1  0  0  0  0
 24 50  1  0  0  0  0
 25 26  1  0  0  0  0
 25 51  1  0  0  0  0
 25 52  1  0  0  0  0
 26 53  1  0  0  0  0
 27 54  1  0  0  0  0
 27 55  1  0  0  0  0
M  END
> <s_m_source_file>
AV-unprocessed.smi

> <i_m_source_file_index>
147

> <i_lp_mmshare_version>
43012

> <i_f3d_flags>
0

> <s_epik_input>
W0NIM11bQ0hdKFtDSDNdKUMoPU8pW05IXVtDSDJdW0NIMl1OKFtDSDNdKWMobltjSF1uMSljKGMxMiluW2NIXW4yW0NIXShbQ0gyXTMpW0NIMl1DMyhbQ0gyXVtPSF0pW0NIMl1bT0hd

> <s_epik_cmdline>
J2VwaWtfcHl0aG9uJywgJy1waCcsICc3LjAnLCAnLXRuJywgJzgnLCAnLW1hJywgJzIwMCcsICctbWV0YWxfYmluZGluZycsICctaW1hZScsICc8aW5maWxlLm1hZT4nLCAnLW9tYWUnLCAnPG91dGZpbGUubWFlPic=

> <r_lp_tautomer_probability>
1

> <r_epik_Ionization_Penalty>
0.00124047

> <r_epik_Ionization_Penalty_Charging>
0

> <r_epik_Ionization_Penalty_Neutral>
0.00124047

> <r_epik_State_Penalty>
0.000682986

> <r_epik_Charging_Adjusted_Penalty>
0.000682986

> <i_epik_Tot_Q>
0

> <i_epik_Tot_abs_Q>
0

> <r_epik_Metal_State_Penalty>
-0

> <b_epik_Metal_Only>
0

> <s_lp_Force_Field>
OPLS_2005

> <r_lp_Energy>
28.5646

> <b_lp_Chiralities_Consistent>
1

> <s_lp_Variant>
AV-unprocessed.smi:147-1

> <Gold.Version>
5.8.1

> <Gold.Id.Protein>
6NUR|6NUR_protein|mol2

> <Gold.PLP.Fitness>
55.5177

> <Gold.PLP.PLP>
-45.5655

> <Gold.PLP.part.hbond>
-3.0000

> <Gold.PLP.part.metal>
0.0000

> <Gold.PLP.part.buried>
-6.9478

> <Gold.PLP.part.nonpolar>
-37.4997

> <Gold.PLP.part.repulsive>
0.9705

> <Gold.PLP.ligand.clash>
0.0000

> <Gold.PLP.ligand.torsion>
1.3770

> <Gold.PLP.Chemscore.Hbond>
2.9913

> <Gold.PLP.Chemscore.CHOScore>
0.9825

> <Gold.PLP.Chemscore.Metal>
0.0000

> <Gold.Chemscore.Hbonds>
donor molecule, donor type, donor heavy atom, donor atom, acceptor molecule, acceptor atom, score
      L1  H     6    35       P1  8028  1.00
      L1  H    24    50       P1 10747  1.00
      L1  H    26    53       P1 10186  0.98
      L1  C    18    44       P1 10171  1.00

> <Gold.PLP.Chemscore.Internal.Correction>
0.7850

> <Gold.Rescore>
     Score         DG    S(hbond)    S(metal)    S(lipo)     H(rot)  DE(clash)    DE(int)     intcor
     11.48     -15.44       2.95        0.00      91.53       4.15       0.29       3.66       ----

> <Gold.Chemscore.Fitness>
11.4762

> <Gold.Chemscore.DG>
-15.4357

> <Gold.Chemscore.ZeroCoef>
-5.4800

> <Gold.Chemscore.Hbond>
2.9530

> <Gold.Chemscore.Metal>
0.0000

> <Gold.Chemscore.Lipo>
91.5345

> <Gold.Chemscore.Internal_Hbond>
0.0000

> <Gold.Chemscore.DEClash>
0.2946

> <Gold.Chemscore.DEInternal>
3.6649

> <Gold.Chemscore.Rot>
4.1472

> <Gold.Chemscore.Internal.Correction>
   9.000000E+99

> <Gold.Chemscore.Hbonds>
donor molecule, donor type, donor heavy atom, donor atom, acceptor molecule, acceptor atom, score
      L1  H     6    35       P1  8028  0.96
      L1  H    24    50       P1 10747  0.94
      L1  H    26    53       P1 10186  0.90

> <Gold.Chemscore.Hbond.Weighted>
-9.8629

> <Gold.Chemscore.Metal.Weighted>
-0.0000

> <Gold.Chemscore.Lipo.Weighted>
-10.7095

> <Gold.Chemscore.Internal_Hbond.Weighted>
0.0000

> <Gold.Chemscore.DEClash.Weighted>
0.2946

> <Gold.Chemscore.DEInternal.Weighted>
3.6649

> <Gold.Chemscore.Rot.Weighted>
10.6167

> <Gold.Chemscore.Internal.Correction.Weighted>
   9.000000E+99

> <Gold.Protein.RotatedTorsions>
[ 6907 6896 6895 6894 ] final  -45.53 input  -60.11 | X-H torsion
[ 7974 7965 7964 7962 ] final   24.49 input  175.53 | X-H torsion
[ 8008 7997 7996 7995 ] final   82.41 input   59.86 | X-H torsion
[ 10167 10162 10161 10158 ] final  142.53 input  -65.29 | X-H torsion
[ 10718 10713 10712 10709 ] final -143.99 input   66.30 | X-H torsion
[ 10763 10752 10751 10750 ] final  -82.29 input  -60.55 | X-H torsion
[ 11005 11000 10999 10996 ] final   23.36 input  -57.11 | X-H torsion

> <Gold.Protein.ActiveResidues>
 VAL166  LYS551  ARG553  GLY616  TRP617  ASP618  TYR619  PRO620  LYS621  CYS622 
 ASP623  PHE694  ASN695  SER759  ASP760  ASP761  ALA762  ILE779  LEU786  VAL792 
 PHE793  MET794  SER795  GLU796  ALA797  LYS798  CYS799  TRP800  GLU811  SER814 

> <Gold.Protein.RotatedAtoms>
  150.9209  134.8627  159.7487 H   0  0  0  0  0  0  0  0  0  0  0  0  # atno 6907 bound_to 6896
  152.4992  134.4220  159.9493 H   0  0  0  0  0  0  0  0  0  0  0  0  # atno 6908 bound_to 6896
  151.4254  133.3646  159.2796 H   0  0  0  0  0  0  0  0  0  0  0  0  # atno 6909 bound_to 6896
  146.1935  139.7597  142.8815 H   0  0  0  0  0  0  0  0  0  0  0  0  # atno 7974 bound_to 7965
  155.9103  140.3428  155.6093 H   0  0  0  0  0  0  0  0  0  0  0  0  # atno 8008 bound_to 7997
  155.7396  140.0806  157.2271 H   0  0  0  0  0  0  0  0  0  0  0  0  # atno 8009 bound_to 7997
  154.4055  140.1573  156.2588 H   0  0  0  0  0  0  0  0  0  0  0  0  # atno 8010 bound_to 7997
  139.4992  144.6101  151.6291 H   0  0  0  0  0  0  0  0  0  0  0  0  # atno 10167 bound_to 10162
  156.3647  130.7756  151.1929 H   0  0  0  0  0  0  0  0  0  0  0  0  # atno 10718 bound_to 10713
  154.5739  135.5596  153.7121 H   0  0  0  0  0  0  0  0  0  0  0  0  # atno 10763 bound_to 10752
  153.0058  135.6304  154.2075 H   0  0  0  0  0  0  0  0  0  0  0  0  # atno 10764 bound_to 10752
  154.2016  135.2877  155.2969 H   0  0  0  0  0  0  0  0  0  0  0  0  # atno 10765 bound_to 10752
  140.3705  134.2028  155.7667 H   0  0  0  0  0  0  0  0  0  0  0  0  # atno 11005 bound_to 11000
  145.3719  141.0344  143.3226 LP  0  0  0  0  0  0  0  0  0  0  0  0  # atno 17320 bound_to 7965
  144.8533  139.5289  143.6846 LP  0  0  0  0  0  0  0  0  0  0  0  0  # atno 17321 bound_to 7965
  140.5773  144.0006  150.6249 LP  0  0  0  0  0  0  0  0  0  0  0  0  # atno 17342 bound_to 10162
  140.3144  143.3177  152.0847 LP  0  0  0  0  0  0  0  0  0  0  0  0  # atno 17343 bound_to 10162
  157.7477  131.0390  150.4528 LP  0  0  0  0  0  0  0  0  0  0  0  0  # atno 17370 bound_to 10713
  156.4745  130.4060  149.6498 LP  0  0  0  0  0  0  0  0  0  0  0  0  # atno 17371 bound_to 10713
  141.1956  133.8102  157.0708 LP  0  0  0  0  0  0  0  0  0  0  0  0  # atno 17394 bound_to 11000
  140.0556  134.9782  157.1214 LP  0  0  0  0  0  0  0  0  0  0  0  0  # atno 17395 bound_to 11000

$$$$
