AV-unprocessed.smi:1995|AV-procd|sdf|8079|dock10
  -GOLD-   2272010293D 1   1.00000     0.00000
 Structure written by MMmdl.
 43 44  0  0  0  0  0  0  0  0  2 V2000
  145.1981  143.2724  155.5138 C   0  0  0  0  0  0  0  0  0  0  0  0
  146.1326  142.6449  154.4638 C   0  0  0  0  0  0  0  0  0  0  0  0
  147.0391  141.4826  154.9738 C   0  0  2  0  0  0  0  0  0  0  0  0
  147.8527  140.9660  153.7580 C   0  0  0  0  0  0  0  0  0  0  0  0
  146.1552  140.3172  155.5186 C   0  0  0  0  0  0  0  0  0  0  0  0
  145.5148  139.5210  154.4716 N   0  0  0  0  0  0  0  0  0  0  0  0
  145.6101  138.1898  154.3375 C   0  0  0  0  0  0  0  0  0  0  0  0
  146.2378  137.4728  155.1172 O   0  0  0  0  0  0  0  0  0  0  0  0
  144.9337  137.7599  153.2583 N   0  0  0  0  0  0  0  0  0  0  0  0
  144.7986  136.4301  152.7803 C   0  0  0  0  0  0  0  0  0  0  0  0
  144.1369  135.4607  153.4230 N   0  0  0  0  0  0  0  0  0  0  0  0
  144.1657  134.2524  152.7220 C   0  0  0  0  0  0  0  0  0  0  0  0
  144.8587  134.3204  151.5388 C   0  0  0  0  0  0  0  0  0  0  0  0
  145.5062  135.9144  151.2563 S   0  0  0  0  0  0  0  0  0  0  0  0
  147.9673  141.9910  156.0493 N   0  3  0  0  0  0  0  0  0  0  0  0
  147.3801  142.1059  157.4148 C   0  0  0  0  0  0  0  0  0  0  0  0
  148.3510  142.8337  158.3579 C   0  0  0  0  0  0  0  0  0  0  0  0
  149.5822  142.1265  158.4071 O   0  0  0  0  0  0  0  0  0  0  0  0
  150.2068  142.0697  157.1327 C   0  0  0  0  0  0  0  0  0  0  0  0
  149.2992  141.3274  156.1367 C   0  0  0  0  0  0  0  0  0  0  0  0
  144.6102  144.0738  155.0657 H   0  0  0  0  0  0  0  0  0  0  0  0
  145.7541  143.7069  156.3443 H   0  0  0  0  0  0  0  0  0  0  0  0
  144.4952  142.5461  155.9215 H   0  0  0  0  0  0  0  0  0  0  0  0
  145.5371  142.3180  153.6117 H   0  0  0  0  0  0  0  0  0  0  0  0
  146.7552  143.4469  154.0662 H   0  0  0  0  0  0  0  0  0  0  0  0
  147.2176  140.8061  152.8860 H   0  0  0  0  0  0  0  0  0  0  0  0
  148.3337  140.0095  153.9635 H   0  0  0  0  0  0  0  0  0  0  0  0
  148.6315  141.6695  153.4623 H   0  0  0  0  0  0  0  0  0  0  0  0
  146.7598  139.6237  156.1021 H   0  0  0  0  0  0  0  0  0  0  0  0
  145.3927  140.6897  156.2026 H   0  0  0  0  0  0  0  0  0  0  0  0
  144.9734  140.0267  153.7856 H   0  0  0  0  0  0  0  0  0  0  0  0
  144.4647  138.4655  152.7100 H   0  0  0  0  0  0  0  0  0  0  0  0
  143.6647  133.3917  153.1397 H   0  0  0  0  0  0  0  0  0  0  0  0
  145.0261  133.5324  150.8193 H   0  0  0  0  0  0  0  0  0  0  0  0
  146.4417  142.6568  157.4040 H   0  0  0  0  0  0  0  0  0  0  0  0
  147.1679  141.1176  157.8224 H   0  0  0  0  0  0  0  0  0  0  0  0
  148.5159  143.8624  158.0326 H   0  0  0  0  0  0  0  0  0  0  0  0
  147.9323  142.8805  159.3635 H   0  0  0  0  0  0  0  0  0  0  0  0
  150.4301  143.0773  156.7785 H   0  0  0  0  0  0  0  0  0  0  0  0
  151.1599  141.5494  157.2308 H   0  0  0  0  0  0  0  0  0  0  0  0
  149.1849  140.2900  156.4518 H   0  0  0  0  0  0  0  0  0  0  0  0
  149.8088  141.3181  155.1752 H   0  0  0  0  0  0  0  0  0  0  0  0
  148.1704  142.9404  155.7708 H   0  0  0  0  0  0  0  0  0  0  0  0
  1  2  1  0  0  0  0
  1 21  1  0  0  0  0
  1 22  1  0  0  0  0
  1 23  1  0  0  0  0
  2  3  1  0  0  0  0
  2 24  1  0  0  0  0
  2 25  1  0  0  0  0
  3  4  1  0  0  0  0
  3  5  1  0  0  0  0
  3 15  1  0  0  0  0
  4 26  1  0  0  0  0
  4 27  1  0  0  0  0
  4 28  1  0  0  0  0
  5  6  1  0  0  0  0
  5 29  1  0  0  0  0
  5 30  1  0  0  0  0
  6  7  1  0  0  0  0
  6 31  1  0  0  0  0
  7  8  2  0  0  0  0
  7  9  1  0  0  0  0
  9 10  1  0  0  0  0
  9 32  1  0  0  0  0
 10 14  1  0  0  0  0
 10 11  2  0  0  0  0
 11 12  1  0  0  0  0
 12 13  2  0  0  0  0
 12 33  1  0  0  0  0
 13 14  1  0  0  0  0
 13 34  1  0  0  0  0
 15 20  1  0  0  0  0
 15 16  1  0  0  0  0
 15 43  1  0  0  0  0
 16 17  1  0  0  0  0
 16 35  1  0  0  0  0
 16 36  1  0  0  0  0
 17 18  1  0  0  0  0
 17 37  1  0  0  0  0
 17 38  1  0  0  0  0
 18 19  1  0  0  0  0
 19 20  1  0  0  0  0
 19 39  1  0  0  0  0
 19 40  1  0  0  0  0
 20 41  1  0  0  0  0
 20 42  1  0  0  0  0
M  CHG  1  15   1
M  END
> <s_m_source_file>
AV-unprocessed.smi

> <i_m_source_file_index>
1995

> <i_lp_mmshare_version>
43012

> <i_f3d_flags>
0

> <s_epik_input>
W0NIMl0xW0NIMl1PW0NIMl1bQ0gyXU4xW0NAQF0oW0NIM10pKFtDSDJdW0NIM10pW0NIMl1bTkhdQyg9TylbTkhdYzJuW2NIXVtjSF1zMg==

> <s_epik_cmdline>
J2VwaWtfcHl0aG9uJywgJy1waCcsICc3LjAnLCAnLXRuJywgJzgnLCAnLW1hJywgJzIwMCcsICctbWV0YWxfYmluZGluZycsICctaW1hZScsICc8aW5maWxlLm1hZT4nLCAnLW9tYWUnLCAnPG91dGZpbGUubWFlPic=

> <r_lp_tautomer_probability>
0.999

> <r_epik_Ionization_Penalty>
0.55406

> <r_epik_Ionization_Penalty_Charging>
0.553838

> <r_epik_Ionization_Penalty_Neutral>
0.000222147

> <r_epik_State_Penalty>
0.564424

> <r_epik_Charging_Adjusted_Penalty>
1.11826

> <i_epik_Tot_Q>
1

> <i_epik_Tot_abs_Q>
1

> <r_epik_Metal_State_Penalty>
0.573776

> <b_epik_Metal_Only>
0

> <s_lp_Force_Field>
OPLS_2005

> <r_lp_Energy>
26.593

> <b_lp_Chiralities_Consistent>
1

> <s_lp_Variant>
AV-unprocessed.smi:1995-4

> <Gold.Version>
5.8.1

> <Gold.Id.Protein>
6NUR|6NUR_protein|mol2

> <Gold.PLP.Fitness>
40.5073

> <Gold.PLP.PLP>
-28.7844

> <Gold.PLP.part.hbond>
-3.0000

> <Gold.PLP.part.metal>
0.0000

> <Gold.PLP.part.buried>
-4.3468

> <Gold.PLP.part.nonpolar>
-21.7804

> <Gold.PLP.part.repulsive>
0.2252

> <Gold.PLP.ligand.clash>
0.0000

> <Gold.PLP.ligand.torsion>
1.6861

> <Gold.PLP.Chemscore.Hbond>
3.9920

> <Gold.PLP.Chemscore.CHOScore>
0.9955

> <Gold.PLP.Chemscore.Metal>
0.0000

> <Gold.Chemscore.Hbonds>
donor molecule, donor type, donor heavy atom, donor atom, acceptor molecule, acceptor atom, score
      L1  H     6    31       P1 10175  1.00
      L1  H     9    32       P1 10175  0.70
      L1  H    15    43       P1  8028  2.00
      L1  C    12    33       P1 10957  1.00

> <Gold.PLP.Chemscore.Internal.Correction>
0.1326

> <Gold.Rescore>
     Score         DG    S(hbond)    S(metal)    S(lipo)     H(rot)  DE(clash)    DE(int)     intcor
     15.46     -17.38       2.94        0.00      56.95       1.79       0.14       1.78       ----

> <Gold.Chemscore.Fitness>
15.4597

> <Gold.Chemscore.DG>
-17.3815

> <Gold.Chemscore.ZeroCoef>
-5.4800

> <Gold.Chemscore.Hbond>
2.9437

> <Gold.Chemscore.Metal>
0.0000

> <Gold.Chemscore.Lipo>
56.9455

> <Gold.Chemscore.Internal_Hbond>
0.0000

> <Gold.Chemscore.DEClash>
0.1424

> <Gold.Chemscore.DEInternal>
1.7795

> <Gold.Chemscore.Rot>
1.7942

> <Gold.Chemscore.Internal.Correction>
   9.000000E+99

> <Gold.Chemscore.Hbonds>
donor molecule, donor type, donor heavy atom, donor atom, acceptor molecule, acceptor atom, score
      L1  H     6    31       P1 10175  1.00
      L1  H     9    32       P1 10175  0.68
      L1  H    15    43       P1  8028  0.88

> <Gold.Chemscore.Hbond.Weighted>
-9.8319

> <Gold.Chemscore.Metal.Weighted>
-0.0000

> <Gold.Chemscore.Lipo.Weighted>
-6.6626

> <Gold.Chemscore.Internal_Hbond.Weighted>
0.0000

> <Gold.Chemscore.DEClash.Weighted>
0.1424

> <Gold.Chemscore.DEInternal.Weighted>
1.7795

> <Gold.Chemscore.Rot.Weighted>
4.5931

> <Gold.Chemscore.Internal.Correction.Weighted>
   9.000000E+99

> <Gold.Protein.RotatedTorsions>
[ 6907 6896 6895 6894 ] final   56.76 input  -60.11 | X-H torsion
[ 7974 7965 7964 7962 ] final   51.12 input  175.53 | X-H torsion
[ 8008 7997 7996 7995 ] final   67.53 input   59.86 | X-H torsion
[ 10167 10162 10161 10158 ] final   66.08 input  -65.29 | X-H torsion
[ 10718 10713 10712 10709 ] final  -89.87 input   66.30 | X-H torsion
[ 10763 10752 10751 10750 ] final  -14.22 input  -60.55 | X-H torsion
[ 11005 11000 10999 10996 ] final   50.42 input  -57.11 | X-H torsion

> <Gold.Protein.ActiveResidues>
 VAL166  LYS551  ARG553  GLY616  TRP617  ASP618  TYR619  PRO620  LYS621  CYS622 
 ASP623  PHE694  ASN695  SER759  ASP760  ASP761  ALA762  ILE779  LEU786  VAL792 
 PHE793  MET794  SER795  GLU796  ALA797  LYS798  CYS799  TRP800  GLU811  SER814 

> <Gold.Protein.RotatedAtoms>
  152.3667  134.6794  160.0189 H   0  0  0  0  0  0  0  0  0  0  0  0  # atno 6907 bound_to 6896
  151.7100  133.3306  159.3296 H   0  0  0  0  0  0  0  0  0  0  0  0  # atno 6908 bound_to 6896
  150.7643  134.6475  159.6315 H   0  0  0  0  0  0  0  0  0  0  0  0  # atno 6909 bound_to 6896
  145.9944  139.4373  143.0053 H   0  0  0  0  0  0  0  0  0  0  0  0  # atno 7974 bound_to 7965
  155.6943  140.3496  155.4906 H   0  0  0  0  0  0  0  0  0  0  0  0  # atno 8008 bound_to 7997
  155.9497  140.1117  157.1009 H   0  0  0  0  0  0  0  0  0  0  0  0  # atno 8009 bound_to 7997
  154.4119  140.1196  156.5022 H   0  0  0  0  0  0  0  0  0  0  0  0  # atno 8010 bound_to 7997
  140.1043  144.4875  150.7017 H   0  0  0  0  0  0  0  0  0  0  0  0  # atno 10167 bound_to 10162
  155.9985  130.4888  150.5237 H   0  0  0  0  0  0  0  0  0  0  0  0  # atno 10718 bound_to 10713
  153.5250  135.7015  153.5712 H   0  0  0  0  0  0  0  0  0  0  0  0  # atno 10763 bound_to 10752
  153.3744  135.3936  155.1812 H   0  0  0  0  0  0  0  0  0  0  0  0  # atno 10764 bound_to 10752
  154.8690  135.3820  154.4742 H   0  0  0  0  0  0  0  0  0  0  0  0  # atno 10765 bound_to 10752
  140.1019  134.5070  155.8755 H   0  0  0  0  0  0  0  0  0  0  0  0  # atno 11005 bound_to 11000
  145.7581  140.9946  143.1214 LP  0  0  0  0  0  0  0  0  0  0  0  0  # atno 17320 bound_to 7965
  144.6899  139.9297  143.7471 LP  0  0  0  0  0  0  0  0  0  0  0  0  # atno 17321 bound_to 7965
  140.6960  143.2404  151.4998 LP  0  0  0  0  0  0  0  0  0  0  0  0  # atno 17342 bound_to 10162
  139.5654  144.2056  152.1756 LP  0  0  0  0  0  0  0  0  0  0  0  0  # atno 17343 bound_to 10162
  157.3195  131.0679  151.1942 LP  0  0  0  0  0  0  0  0  0  0  0  0  # atno 17370 bound_to 10713
  157.2860  130.6773  149.6090 LP  0  0  0  0  0  0  0  0  0  0  0  0  # atno 17371 bound_to 10713
  141.2108  133.6699  156.6534 LP  0  0  0  0  0  0  0  0  0  0  0  0  # atno 17394 bound_to 11000
  140.3208  134.8009  157.4251 LP  0  0  0  0  0  0  0  0  0  0  0  0  # atno 17395 bound_to 11000

$$$$
