AV-unprocessed.smi:117|AV-procd|sdf|1130|dock9
  -GOLD-   2262018263D 1   1.00000     0.00000
 Structure written by MMmdl.
 53 55  0  0  0  0  0  0  0  0  1 V2000
  153.5658  142.1203  161.0962 C   0  0  0  0  0  0  0  0  0  0  0  0
  152.7643  142.0604  159.8070 C   0  0  0  0  0  0  0  0  0  0  0  0
  152.1595  143.2403  159.3277 C   0  0  0  0  0  0  0  0  0  0  0  0
  151.4245  143.2259  158.1308 C   0  0  0  0  0  0  0  0  0  0  0  0
  151.2884  142.0301  157.4059 C   0  0  0  0  0  0  0  0  0  0  0  0
  151.8760  140.8335  157.8785 C   0  0  0  0  0  0  0  0  0  0  0  0
  151.7936  139.6381  157.1162 N   0  0  0  0  0  0  0  0  0  0  0  0
  151.4461  139.4955  155.8221 C   0  0  0  0  0  0  0  0  0  0  0  0
  151.0860  140.4282  155.1048 O   0  0  0  0  0  0  0  0  0  0  0  0
  151.4990  138.0798  155.2229 C   0  0  0  0  0  0  0  0  0  0  0  0
  150.3309  137.2623  155.5471 N   0  0  0  0  0  0  0  0  0  0  0  0
  150.3054  135.9218  155.6468 C   0  0  0  0  0  0  0  0  0  0  0  0
  151.3182  135.2277  155.5740 O   0  0  0  0  0  0  0  0  0  0  0  0
  148.9339  135.2384  155.7987 C   0  0  0  0  0  0  0  0  0  0  0  0
  148.6422  134.2083  154.7728 N   0  0  0  0  0  0  0  0  0  0  0  0
  149.3802  132.9990  154.7804 C   0  0  0  0  0  0  0  0  0  0  0  0
  150.2532  132.7877  155.6227 O   0  0  0  0  0  0  0  0  0  0  0  0
  149.0268  132.0402  153.7394 C   0  0  0  0  0  0  0  0  0  0  0  0
  149.6956  130.8782  153.6497 F   0  0  0  0  0  0  0  0  0  0  0  0
  148.0329  132.2989  152.8646 C   0  0  0  0  0  0  0  0  0  0  0  0
  147.2890  133.4622  152.8958 N   0  0  0  0  0  0  0  0  0  0  0  0
  146.1860  133.6576  151.8781 C   0  0  1  0  0  0  0  0  0  0  0  0
  146.2558  132.6667  150.7072 C   0  0  0  0  0  0  0  0  0  0  0  0
  144.7873  132.4598  150.4100 C   0  0  0  0  0  0  0  0  0  0  0  0
  144.1707  132.5286  151.8027 C   0  0  0  0  0  0  0  0  0  0  0  0
  144.9437  133.5024  152.5023 O   0  0  0  0  0  0  0  0  0  0  0  0
  147.6072  134.4645  153.8404 C   0  0  0  0  0  0  0  0  0  0  0  0
  146.9958  135.5325  153.8647 O   0  0  0  0  0  0  0  0  0  0  0  0
  152.6261  140.8469  159.0855 C   0  0  0  0  0  0  0  0  0  0  0  0
  153.2773  139.5783  159.6313 C   0  0  0  0  0  0  0  0  0  0  0  0
  153.5882  143.1311  161.5041 H   0  0  0  0  0  0  0  0  0  0  0  0
  154.5962  141.8103  160.9204 H   0  0  0  0  0  0  0  0  0  0  0  0
  153.1286  141.4663  161.8508 H   0  0  0  0  0  0  0  0  0  0  0  0
  152.2628  144.1667  159.8736 H   0  0  0  0  0  0  0  0  0  0  0  0
  150.9724  144.1351  157.7628 H   0  0  0  0  0  0  0  0  0  0  0  0
  150.7430  142.0494  156.4742 H   0  0  0  0  0  0  0  0  0  0  0  0
  151.9392  138.7819  157.6318 H   0  0  0  0  0  0  0  0  0  0  0  0
  151.6342  138.1530  154.1427 H   0  0  0  0  0  0  0  0  0  0  0  0
  152.3824  137.5723  155.6113 H   0  0  0  0  0  0  0  0  0  0  0  0
  149.4514  137.7513  155.6275 H   0  0  0  0  0  0  0  0  0  0  0  0
  148.8818  134.7933  156.7942 H   0  0  0  0  0  0  0  0  0  0  0  0
  148.1726  136.0191  155.8212 H   0  0  0  0  0  0  0  0  0  0  0  0
  147.8098  131.5536  152.1149 H   0  0  0  0  0  0  0  0  0  0  0  0
  146.2665  134.6915  151.5404 H   0  0  0  0  0  0  0  0  0  0  0  0
  146.8173  133.0848  149.8715 H   0  0  0  0  0  0  0  0  0  0  0  0
  146.7214  131.7294  151.0066 H   0  0  0  0  0  0  0  0  0  0  0  0
  144.4112  133.2770  149.7933 H   0  0  0  0  0  0  0  0  0  0  0  0
  144.5813  131.5205  149.8970 H   0  0  0  0  0  0  0  0  0  0  0  0
  143.1155  132.8008  151.7792 H   0  0  0  0  0  0  0  0  0  0  0  0
  144.2566  131.5652  152.3051 H   0  0  0  0  0  0  0  0  0  0  0  0
  152.9120  139.3720  160.6375 H   0  0  0  0  0  0  0  0  0  0  0  0
  154.3589  139.7013  159.6822 H   0  0  0  0  0  0  0  0  0  0  0  0
  153.0792  138.6886  159.0354 H   0  0  0  0  0  0  0  0  0  0  0  0
  1  2  1  0  0  0  0
  1 31  1  0  0  0  0
  1 32  1  0  0  0  0
  1 33  1  0  0  0  0
  2 29  1  0  0  0  0
  2  3  2  0  0  0  0
  3  4  1  0  0  0  0
  3 34  1  0  0  0  0
  4  5  2  0  0  0  0
  4 35  1  0  0  0  0
  5  6  1  0  0  0  0
  5 36  1  0  0  0  0
  6  7  1  0  0  0  0
  6 29  2  0  0  0  0
  7  8  1  0  0  0  0
  7 37  1  0  0  0  0
  8  9  2  0  0  0  0
  8 10  1  0  0  0  0
 10 11  1  0  0  0  0
 10 38  1  0  0  0  0
 10 39  1  0  0  0  0
 11 12  1  0  0  0  0
 11 40  1  0  0  0  0
 12 13  2  0  0  0  0
 12 14  1  0  0  0  0
 14 15  1  0  0  0  0
 14 41  1  0  0  0  0
 14 42  1  0  0  0  0
 15 27  1  0  0  0  0
 15 16  1  0  0  0  0
 16 17  2  0  0  0  0
 16 18  1  0  0  0  0
 18 19  1  0  0  0  0
 18 20  2  0  0  0  0
 20 21  1  0  0  0  0
 20 43  1  0  0  0  0
 21 22  1  0  0  0  0
 21 27  1  0  0  0  0
 22 26  1  0  0  0  0
 22 23  1  0  0  0  0
 22 44  1  0  0  0  0
 23 24  1  0  0  0  0
 23 45  1  0  0  0  0
 23 46  1  0  0  0  0
 24 25  1  0  0  0  0
 24 47  1  0  0  0  0
 24 48  1  0  0  0  0
 25 26  1  0  0  0  0
 25 49  1  0  0  0  0
 25 50  1  0  0  0  0
 27 28  2  0  0  0  0
 29 30  1  0  0  0  0
 30 51  1  0  0  0  0
 30 52  1  0  0  0  0
 30 53  1  0  0  0  0
M  END
> <s_m_source_file>
AV-unprocessed.smi

> <i_m_source_file_index>
117

> <i_lp_mmshare_version>
43012

> <i_f3d_flags>
0

> <s_epik_input>
W0NIM11jMVtjSF1bY0hdW2NIXWMoYzFbQ0gzXSlbTkhdQyg9TylbQ0gyXVtOSF1DKD1PKVtDSDJdbjJjKD1PKWMoRilbY0hdbihjMj1PKVtDQEBIXTNbQ0gyXVtDSDJdW0NIMl1PMw==

> <s_epik_cmdline>
J2VwaWtfcHl0aG9uJywgJy1waCcsICc3LjAnLCAnLXRuJywgJzgnLCAnLW1hJywgJzIwMCcsICctbWV0YWxfYmluZGluZycsICctaW1hZScsICc8aW5maWxlLm1hZT4nLCAnLW9tYWUnLCAnPG91dGZpbGUubWFlPic=

> <r_lp_tautomer_probability>
1

> <r_epik_Ionization_Penalty>
1.58439e-06

> <r_epik_Ionization_Penalty_Charging>
4.14583e-09

> <r_epik_Ionization_Penalty_Neutral>
1.58025e-06

> <r_epik_State_Penalty>
-0

> <r_epik_Charging_Adjusted_Penalty>
4.14583e-09

> <i_epik_Tot_Q>
0

> <i_epik_Tot_abs_Q>
0

> <r_epik_Metal_State_Penalty>
-0

> <b_epik_Metal_Only>
0

> <s_epik_Chemistry_Notes>
This compound contains an acetal/aminal-like group ( X-CH(R)-Y where X, Y are N, S, or O) that may be acid/base labile, releasing an aldehyde.

> <s_lp_Force_Field>
OPLS_2005

> <r_lp_Energy>
23.1061

> <b_lp_Chiralities_Consistent>
1

> <s_lp_Variant>
AV-unprocessed.smi:117-2

> <Gold.Version>
5.8.1

> <Gold.Id.Protein>
6NUR|6NUR_protein|mol2

> <Gold.PLP.Fitness>
58.9293

> <Gold.PLP.PLP>
-51.9505

> <Gold.PLP.part.hbond>
-2.0000

> <Gold.PLP.part.metal>
0.0000

> <Gold.PLP.part.buried>
-5.2134

> <Gold.PLP.part.nonpolar>
-45.1180

> <Gold.PLP.part.repulsive>
2.2122

> <Gold.PLP.ligand.clash>
0.0000

> <Gold.PLP.ligand.torsion>
1.0180

> <Gold.PLP.Chemscore.Hbond>
2.0000

> <Gold.PLP.Chemscore.CHOScore>
0.9906

> <Gold.PLP.Chemscore.Metal>
0.0000

> <Gold.Chemscore.Hbonds>
donor molecule, donor type, donor heavy atom, donor atom, acceptor molecule, acceptor atom, score
      P1  H  7989  7998       L1     9  1.00
      P1  H 10752 10765       L1    13  1.00
      L1  C    20    43       P1 10747  1.00

> <Gold.PLP.Chemscore.Internal.Correction>
0.0429

> <Gold.Rescore>
     Score         DG    S(hbond)    S(metal)    S(lipo)     H(rot)  DE(clash)    DE(int)     intcor
     14.58     -19.70       1.88        0.00     118.53       2.32       0.54       4.58       ----

> <Gold.Chemscore.Fitness>
14.5787

> <Gold.Chemscore.DG>
-19.6956

> <Gold.Chemscore.ZeroCoef>
-5.4800

> <Gold.Chemscore.Hbond>
1.8797

> <Gold.Chemscore.Metal>
0.0000

> <Gold.Chemscore.Lipo>
118.5295

> <Gold.Chemscore.Internal_Hbond>
0.0000

> <Gold.Chemscore.DEClash>
0.5355

> <Gold.Chemscore.DEInternal>
4.5815

> <Gold.Chemscore.Rot>
2.3166

> <Gold.Chemscore.Internal.Correction>
   9.000000E+99

> <Gold.Chemscore.Hbonds>
donor molecule, donor type, donor heavy atom, donor atom, acceptor molecule, acceptor atom, score
      P1  H  7989  7998       L1     9  0.95
      P1  H 10752 10765       L1    13  0.95

> <Gold.Chemscore.Hbond.Weighted>
-6.2782

> <Gold.Chemscore.Metal.Weighted>
-0.0000

> <Gold.Chemscore.Lipo.Weighted>
-13.8679

> <Gold.Chemscore.Internal_Hbond.Weighted>
0.0000

> <Gold.Chemscore.DEClash.Weighted>
0.5355

> <Gold.Chemscore.DEInternal.Weighted>
4.5815

> <Gold.Chemscore.Rot.Weighted>
5.9306

> <Gold.Chemscore.Internal.Correction.Weighted>
   9.000000E+99

> <Gold.Protein.RotatedTorsions>
[ 6907 6896 6895 6894 ] final   62.33 input  -60.11 | X-H torsion
[ 7974 7965 7964 7962 ] final  -18.66 input  175.53 | X-H torsion
[ 8008 7997 7996 7995 ] final  -17.04 input   59.86 | X-H torsion
[ 10167 10162 10161 10158 ] final  -70.80 input  -65.29 | X-H torsion
[ 10718 10713 10712 10709 ] final -134.30 input   66.30 | X-H torsion
[ 10763 10752 10751 10750 ] final -164.05 input  -60.55 | X-H torsion
[ 11005 11000 10999 10996 ] final  128.58 input  -57.11 | X-H torsion

> <Gold.Protein.ActiveResidues>
 VAL166  LYS551  ARG553  GLY616  TRP617  ASP618  TYR619  PRO620  LYS621  CYS622 
 ASP623  PHE694  ASN695  SER759  ASP760  ASP761  ALA762  ILE779  LEU786  VAL792 
 PHE793  MET794  SER795  GLU796  ALA797  LYS798  CYS799  TRP800  GLU811  SER814 

> <Gold.Protein.RotatedAtoms>
  152.4163  134.6035  160.0006 H   0  0  0  0  0  0  0  0  0  0  0  0  # atno 6907 bound_to 6896
  151.6198  133.3334  159.3093 H   0  0  0  0  0  0  0  0  0  0  0  0  # atno 6908 bound_to 6896
  150.8052  134.7211  159.6703 H   0  0  0  0  0  0  0  0  0  0  0  0  # atno 6909 bound_to 6896
  146.1881  140.3952  142.8468 H   0  0  0  0  0  0  0  0  0  0  0  0  # atno 7974 bound_to 7965
  154.5008  140.2153  155.9351 H   0  0  0  0  0  0  0  0  0  0  0  0  # atno 8008 bound_to 7997
  156.1431  140.3176  155.8494 H   0  0  0  0  0  0  0  0  0  0  0  0  # atno 8009 bound_to 7997
  155.4083  140.0489  157.3024 H   0  0  0  0  0  0  0  0  0  0  0  0  # atno 8010 bound_to 7997
  140.5323  143.2320  151.7239 H   0  0  0  0  0  0  0  0  0  0  0  0  # atno 10167 bound_to 10162
  156.2540  130.7170  151.1079 H   0  0  0  0  0  0  0  0  0  0  0  0  # atno 10718 bound_to 10713
  154.7065  135.2998  154.9263 H   0  0  0  0  0  0  0  0  0  0  0  0  # atno 10763 bound_to 10752
  154.0178  135.6686  153.4774 H   0  0  0  0  0  0  0  0  0  0  0  0  # atno 10764 bound_to 10752
  153.0721  135.5055  154.8238 H   0  0  0  0  0  0  0  0  0  0  0  0  # atno 10765 bound_to 10752
  139.9568  134.9611  156.9023 H   0  0  0  0  0  0  0  0  0  0  0  0  # atno 11005 bound_to 11000
  144.8435  140.6893  143.6214 LP  0  0  0  0  0  0  0  0  0  0  0  0  # atno 17320 bound_to 7965
  145.3877  139.1623  143.4246 LP  0  0  0  0  0  0  0  0  0  0  0  0  # atno 17321 bound_to 7965
  139.4958  144.4095  152.0096 LP  0  0  0  0  0  0  0  0  0  0  0  0  # atno 17342 bound_to 10162
  140.3198  144.3441  150.6012 LP  0  0  0  0  0  0  0  0  0  0  0  0  # atno 17343 bound_to 10162
  157.7225  131.0672  150.6074 LP  0  0  0  0  0  0  0  0  0  0  0  0  # atno 17370 bound_to 10713
  156.6156  130.4392  149.5842 LP  0  0  0  0  0  0  0  0  0  0  0  0  # atno 17371 bound_to 10713
  140.5590  134.0553  155.7393 LP  0  0  0  0  0  0  0  0  0  0  0  0  # atno 17394 bound_to 11000
  141.1241  133.9412  157.2671 LP  0  0  0  0  0  0  0  0  0  0  0  0  # atno 17395 bound_to 11000

$$$$
