AV-unprocessed.smi:2167|AV-procd|sdf|8816|dock5
  -GOLD-   2272012 03D 1   1.00000     0.00000
 Structure written by MMmdl.
 41 42  0  0  0  0  0  0  0  0  1 V2000
  147.2357  136.4486  161.5099 C   0  0  0  0  0  0  0  0  0  0  0  0
  147.2369  135.9963  160.0425 C   0  0  0  0  0  0  0  0  0  0  0  0
  147.4025  134.4786  159.8788 C   0  0  0  0  0  0  0  0  0  0  0  0
  148.2251  136.7610  159.2194 C   0  0  0  0  0  0  0  0  0  0  0  0
  149.5378  136.7841  159.4691 N   0  0  0  0  0  0  0  0  0  0  0  0
  150.2502  137.5641  158.5521 C   0  0  0  0  0  0  0  0  0  0  0  0
  151.7397  137.6970  158.6773 C   0  0  0  0  0  0  0  0  0  0  0  0
  152.1832  139.0926  158.2376 C   0  0  0  0  0  0  0  0  0  0  0  0
  153.0223  139.2203  157.3459 O   0  0  0  0  0  0  0  0  0  0  0  0
  151.6102  140.1301  158.8701 N   0  0  0  0  0  0  0  0  0  0  0  0
  151.8814  141.5446  158.6051 C   0  0  2  0  0  0  0  0  0  0  0  0
  151.8905  142.2799  159.9651 C   0  0  0  0  0  0  0  0  0  0  0  0
  152.6683  143.6074  159.9473 C   0  0  0  0  0  0  0  0  0  0  0  0
  152.0695  144.6994  159.0475 C   0  0  0  0  0  0  0  0  0  0  0  0
  152.0307  144.3218  157.5567 C   0  0  0  0  0  0  0  0  0  0  0  0
  150.9378  143.4083  157.2497 N   0  0  0  0  0  0  0  0  0  0  0  0
  150.7824  142.1557  157.7044 C   0  0  0  0  0  0  0  0  0  0  0  0
  149.7774  141.5085  157.4103 O   0  0  0  0  0  0  0  0  0  0  0  0
  149.4487  138.1450  157.6009 C   0  0  0  0  0  0  0  0  0  0  0  0
  147.7724  137.7239  157.8170 S   0  0  0  0  0  0  0  0  0  0  0  0
  147.0249  137.5155  161.5907 H   0  0  0  0  0  0  0  0  0  0  0  0
  148.2003  136.2626  161.9834 H   0  0  0  0  0  0  0  0  0  0  0  0
  146.4762  135.9175  162.0840 H   0  0  0  0  0  0  0  0  0  0  0  0
  146.2514  136.2420  159.6446 H   0  0  0  0  0  0  0  0  0  0  0  0
  147.3136  134.1852  158.8325 H   0  0  0  0  0  0  0  0  0  0  0  0
  146.6401  133.9373  160.4396 H   0  0  0  0  0  0  0  0  0  0  0  0
  148.3773  134.1452  160.2367 H   0  0  0  0  0  0  0  0  0  0  0  0
  152.0543  137.5282  159.7080 H   0  0  0  0  0  0  0  0  0  0  0  0
  152.2518  136.9464  158.0734 H   0  0  0  0  0  0  0  0  0  0  0  0
  150.9297  139.9258  159.5875 H   0  0  0  0  0  0  0  0  0  0  0  0
  152.8560  141.6347  158.1220 H   0  0  0  0  0  0  0  0  0  0  0  0
  150.8745  142.4425  160.3294 H   0  0  0  0  0  0  0  0  0  0  0  0
  152.3674  141.6415  160.7109 H   0  0  0  0  0  0  0  0  0  0  0  0
  152.7211  143.9913  160.9666 H   0  0  0  0  0  0  0  0  0  0  0  0
  153.7002  143.4177  159.6491 H   0  0  0  0  0  0  0  0  0  0  0  0
  151.0708  144.9686  159.3939 H   0  0  0  0  0  0  0  0  0  0  0  0
  152.6761  145.5986  159.1588 H   0  0  0  0  0  0  0  0  0  0  0  0
  151.8704  145.2224  156.9637 H   0  0  0  0  0  0  0  0  0  0  0  0
  152.9835  143.9042  157.2285 H   0  0  0  0  0  0  0  0  0  0  0  0
  150.2083  143.7721  156.6537 H   0  0  0  0  0  0  0  0  0  0  0  0
  149.7439  138.7893  156.7858 H   0  0  0  0  0  0  0  0  0  0  0  0
  1  2  1  0  0  0  0
  1 21  1  0  0  0  0
  1 22  1  0  0  0  0
  1 23  1  0  0  0  0
  2  3  1  0  0  0  0
  2  4  1  0  0  0  0
  2 24  1  0  0  0  0
  3 25  1  0  0  0  0
  3 26  1  0  0  0  0
  3 27  1  0  0  0  0
  4 20  1  0  0  0  0
  4  5  2  0  0  0  0
  5  6  1  0  0  0  0
  6  7  1  0  0  0  0
  6 19  2  0  0  0  0
  7  8  1  0  0  0  0
  7 28  1  0  0  0  0
  7 29  1  0  0  0  0
  8  9  2  0  0  0  0
  8 10  1  0  0  0  0
 10 11  1  0  0  0  0
 10 30  1  0  0  0  0
 11 17  1  0  0  0  0
 11 12  1  0  0  0  0
 11 31  1  0  0  0  0
 12 13  1  0  0  0  0
 12 32  1  0  0  0  0
 12 33  1  0  0  0  0
 13 14  1  0  0  0  0
 13 34  1  0  0  0  0
 13 35  1  0  0  0  0
 14 15  1  0  0  0  0
 14 36  1  0  0  0  0
 14 37  1  0  0  0  0
 15 16  1  0  0  0  0
 15 38  1  0  0  0  0
 15 39  1  0  0  0  0
 16 17  1  0  0  0  0
 16 40  1  0  0  0  0
 17 18  2  0  0  0  0
 19 20  1  0  0  0  0
 19 41  1  0  0  0  0
M  END
> <s_m_source_file>
AV-unprocessed.smi

> <i_m_source_file_index>
2167

> <i_lp_mmshare_version>
43012

> <i_f3d_flags>
0

> <s_epik_input>
W0NIM11bQ0hdKFtDSDNdKWMxbmMoW2NIXXMxKVtDSDJdQyg9TylbTkhdW0NAQEhdMltDSDJdW0NIMl1bQ0gyXVtDSDJdW05IXUMyPU8=

> <s_epik_cmdline>
J2VwaWtfcHl0aG9uJywgJy1waCcsICc3LjAnLCAnLXRuJywgJzgnLCAnLW1hJywgJzIwMCcsICctbWV0YWxfYmluZGluZycsICctaW1hZScsICc8aW5maWxlLm1hZT4nLCAnLW9tYWUnLCAnPG91dGZpbGUubWFlPic=

> <r_lp_tautomer_probability>
1

> <r_epik_Ionization_Penalty>
3.1619e-05

> <r_epik_Ionization_Penalty_Charging>
0

> <r_epik_Ionization_Penalty_Neutral>
3.1619e-05

> <r_epik_State_Penalty>
-0

> <r_epik_Charging_Adjusted_Penalty>
0

> <i_epik_Tot_Q>
0

> <i_epik_Tot_abs_Q>
0

> <r_epik_Metal_State_Penalty>
-0

> <b_epik_Metal_Only>
0

> <s_lp_Force_Field>
OPLS_2005

> <r_lp_Energy>
2.42102

> <b_lp_Chiralities_Consistent>
1

> <s_lp_Variant>
AV-unprocessed.smi:2167-1

> <Gold.Version>
5.8.1

> <Gold.Id.Protein>
6NUR|6NUR_protein|mol2

> <Gold.PLP.Fitness>
47.2019

> <Gold.PLP.PLP>
-39.7363

> <Gold.PLP.part.hbond>
-3.0330

> <Gold.PLP.part.metal>
0.0000

> <Gold.PLP.part.buried>
-5.8432

> <Gold.PLP.part.nonpolar>
-31.7982

> <Gold.PLP.part.repulsive>
0.2089

> <Gold.PLP.ligand.clash>
0.0000

> <Gold.PLP.ligand.torsion>
0.7438

> <Gold.PLP.Chemscore.Hbond>
2.9588

> <Gold.PLP.Chemscore.CHOScore>
0.0000

> <Gold.PLP.Chemscore.Metal>
0.0000

> <Gold.Chemscore.Hbonds>
donor molecule, donor type, donor heavy atom, donor atom, acceptor molecule, acceptor atom, score
      L1  H    16    40       P1  8028  1.00
      P1  H  6896  6909       L1     5  0.29
      P1  H  7997  8009       L1     9  0.88

> <Gold.PLP.Chemscore.Internal.Correction>
0.0769

> <Gold.Rescore>
     Score         DG    S(hbond)    S(metal)    S(lipo)     H(rot)  DE(clash)    DE(int)     intcor
     20.53     -21.48       2.79        0.00      91.55       1.57       0.01       0.94       ----

> <Gold.Chemscore.Fitness>
20.5296

> <Gold.Chemscore.DG>
-21.4806

> <Gold.Chemscore.ZeroCoef>
-5.4800

> <Gold.Chemscore.Hbond>
2.7896

> <Gold.Chemscore.Metal>
0.0000

> <Gold.Chemscore.Lipo>
91.5461

> <Gold.Chemscore.Internal_Hbond>
0.0000

> <Gold.Chemscore.DEClash>
0.0141

> <Gold.Chemscore.DEInternal>
0.9369

> <Gold.Chemscore.Rot>
1.5733

> <Gold.Chemscore.Internal.Correction>
   9.000000E+99

> <Gold.Chemscore.Hbonds>
donor molecule, donor type, donor heavy atom, donor atom, acceptor molecule, acceptor atom, score
      L1  H    16    40       P1  8028  1.00
      P1  H  6896  6909       L1     5  0.13
      P1  H  7997  8009       L1     9  0.86

> <Gold.Chemscore.Hbond.Weighted>
-9.3173

> <Gold.Chemscore.Metal.Weighted>
-0.0000

> <Gold.Chemscore.Lipo.Weighted>
-10.7109

> <Gold.Chemscore.Internal_Hbond.Weighted>
0.0000

> <Gold.Chemscore.DEClash.Weighted>
0.0141

> <Gold.Chemscore.DEInternal.Weighted>
0.9369

> <Gold.Chemscore.Rot.Weighted>
4.0276

> <Gold.Chemscore.Internal.Correction.Weighted>
   9.000000E+99

> <Gold.Protein.RotatedTorsions>
[ 6907 6896 6895 6894 ] final   74.01 input  -60.11 | X-H torsion
[ 7974 7965 7964 7962 ] final  -92.99 input  175.53 | X-H torsion
[ 8008 7997 7996 7995 ] final -163.31 input   59.86 | X-H torsion
[ 10167 10162 10161 10158 ] final  122.74 input  -65.29 | X-H torsion
[ 10718 10713 10712 10709 ] final   96.28 input   66.30 | X-H torsion
[ 10763 10752 10751 10750 ] final  -77.31 input  -60.55 | X-H torsion
[ 11005 11000 10999 10996 ] final   62.49 input  -57.11 | X-H torsion

> <Gold.Protein.ActiveResidues>
 VAL166  LYS551  ARG553  GLY616  TRP617  ASP618  TYR619  PRO620  LYS621  CYS622 
 ASP623  PHE694  ASN695  SER759  ASP760  ASP761  ALA762  ILE779  LEU786  VAL792 
 PHE793  MET794  SER795  GLU796  ALA797  LYS798  CYS799  TRP800  GLU811  SER814 

> <Gold.Protein.RotatedAtoms>
  152.4954  134.4335  159.9519 H   0  0  0  0  0  0  0  0  0  0  0  0  # atno 6907 bound_to 6896
  151.4315  133.3663  159.2777 H   0  0  0  0  0  0  0  0  0  0  0  0  # atno 6908 bound_to 6896
  150.9151  134.8592  159.7511 H   0  0  0  0  0  0  0  0  0  0  0  0  # atno 6909 bound_to 6896
  145.3925  140.9529  143.2332 H   0  0  0  0  0  0  0  0  0  0  0  0  # atno 7974 bound_to 7965
  155.8194  140.0917  157.1858 H   0  0  0  0  0  0  0  0  0  0  0  0  # atno 8008 bound_to 7997
  154.3979  140.1439  156.3542 H   0  0  0  0  0  0  0  0  0  0  0  0  # atno 8009 bound_to 7997
  155.8282  140.3443  155.5558 H   0  0  0  0  0  0  0  0  0  0  0  0  # atno 8010 bound_to 7997
  139.5841  144.6999  151.3455 H   0  0  0  0  0  0  0  0  0  0  0  0  # atno 10167 bound_to 10162
  157.6929  131.0573  150.4467 H   0  0  0  0  0  0  0  0  0  0  0  0  # atno 10718 bound_to 10713
  154.5113  135.5768  153.6607 H   0  0  0  0  0  0  0  0  0  0  0  0  # atno 10763 bound_to 10752
  152.9897  135.6159  154.2875 H   0  0  0  0  0  0  0  0  0  0  0  0  # atno 10764 bound_to 10752
  154.2790  135.2851  155.2685 H   0  0  0  0  0  0  0  0  0  0  0  0  # atno 10765 bound_to 10752
  140.0089  134.6327  155.9812 H   0  0  0  0  0  0  0  0  0  0  0  0  # atno 11005 bound_to 11000
  144.8430  139.5442  143.6891 LP  0  0  0  0  0  0  0  0  0  0  0  0  # atno 17320 bound_to 7965
  146.2790  139.6829  142.9242 LP  0  0  0  0  0  0  0  0  0  0  0  0  # atno 17321 bound_to 7965
  140.7115  143.7378  150.7576 LP  0  0  0  0  0  0  0  0  0  0  0  0  # atno 17342 bound_to 10162
  140.0918  143.4870  152.2474 LP  0  0  0  0  0  0  0  0  0  0  0  0  # atno 17343 bound_to 10162
  156.4821  130.4076  149.6455 LP  0  0  0  0  0  0  0  0  0  0  0  0  # atno 17370 bound_to 10713
  156.3497  130.7425  151.2383 LP  0  0  0  0  0  0  0  0  0  0  0  0  # atno 17371 bound_to 10713
  141.1696  133.6537  156.4605 LP  0  0  0  0  0  0  0  0  0  0  0  0  # atno 17394 bound_to 11000
  140.4591  134.6858  157.5077 LP  0  0  0  0  0  0  0  0  0  0  0  0  # atno 17395 bound_to 11000

$$$$
