AV-unprocessed.smi:2198|AV-procd|sdf|8917|dock6
  -GOLD-   2272012133D 1   1.00000     0.00000
 Structure written by MMmdl.
 43 44  0  0  0  0  0  0  0  0  1 V2000
  143.8606  142.1474  157.9450 C   0  0  0  0  0  0  0  0  0  0  0  0
  145.1019  141.8874  157.1193 C   0  0  0  0  0  0  0  0  0  0  0  0
  145.1208  142.5681  155.9134 N   0  0  0  0  0  0  0  0  0  0  0  0
  146.2202  142.3980  155.0905 C   0  0  0  0  0  0  0  0  0  0  0  0
  146.1640  143.1852  153.7928 C   0  0  0  0  0  0  0  0  0  0  0  0
  147.2464  141.5847  155.4484 C   0  0  0  0  0  0  0  0  0  0  0  0
  148.4762  141.3687  154.5687 C   0  0  0  0  0  0  0  0  0  0  0  0
  149.8150  141.3762  155.3085 C   0  0  0  0  0  0  0  0  0  0  0  0
  150.6712  140.5344  155.0381 O   0  0  0  0  0  0  0  0  0  0  0  0
  149.9852  142.3347  156.2322 N   0  0  0  0  0  0  0  0  0  0  0  0
  151.1897  142.5330  157.0320 C   0  0  2  0  0  0  0  0  0  0  0  0
  151.4315  141.3254  157.9592 C   0  0  0  0  0  0  0  0  0  0  0  0
  152.6526  141.5525  158.8634 C   0  0  0  0  0  0  0  0  0  0  0  0
  152.5161  142.8525  159.6717 C   0  0  0  0  0  0  0  0  0  0  0  0
  152.2826  144.0669  158.7528 C   0  0  2  0  0  0  0  0  0  0  0  0
  152.1434  145.3645  159.5614 C   0  0  0  0  0  0  0  0  0  0  0  0
  151.0561  143.8313  157.8497 C   0  0  0  0  0  0  0  0  0  0  0  0
  147.1642  140.8742  156.7467 C   0  0  0  0  0  0  0  0  0  0  0  0
  148.0538  140.1114  157.1213 O   0  0  0  0  0  0  0  0  0  0  0  0
  146.0315  141.0891  157.5486 N   0  0  0  0  0  0  0  0  0  0  0  0
  144.3776  143.1800  155.6079 H   0  0  0  0  0  0  0  0  0  0  0  0
  143.9386  141.6760  158.9255 H   0  0  0  0  0  0  0  0  0  0  0  0
  142.9803  141.7455  157.4426 H   0  0  0  0  0  0  0  0  0  0  0  0
  143.7176  143.2181  158.0934 H   0  0  0  0  0  0  0  0  0  0  0  0
  147.0045  143.8763  153.7280 H   0  0  0  0  0  0  0  0  0  0  0  0
  145.2461  143.7695  153.7172 H   0  0  0  0  0  0  0  0  0  0  0  0
  146.2025  142.5122  152.9361 H   0  0  0  0  0  0  0  0  0  0  0  0
  148.5212  142.1170  153.7770 H   0  0  0  0  0  0  0  0  0  0  0  0
  148.3618  140.4208  154.0414 H   0  0  0  0  0  0  0  0  0  0  0  0
  149.2262  142.9825  156.3862 H   0  0  0  0  0  0  0  0  0  0  0  0
  152.0469  142.6423  156.3645 H   0  0  0  0  0  0  0  0  0  0  0  0
  150.5503  141.1515  158.5785 H   0  0  0  0  0  0  0  0  0  0  0  0
  151.5783  140.4199  157.3693 H   0  0  0  0  0  0  0  0  0  0  0  0
  152.7769  140.7059  159.5393 H   0  0  0  0  0  0  0  0  0  0  0  0
  153.5551  141.5951  158.2525 H   0  0  0  0  0  0  0  0  0  0  0  0
  151.6886  142.7571  160.3762 H   0  0  0  0  0  0  0  0  0  0  0  0
  153.4148  143.0049  160.2703 H   0  0  0  0  0  0  0  0  0  0  0  0
  153.1574  144.1741  158.1095 H   0  0  0  0  0  0  0  0  0  0  0  0
  151.2821  145.3258  160.2292 H   0  0  0  0  0  0  0  0  0  0  0  0
  152.0166  146.2251  158.9041 H   0  0  0  0  0  0  0  0  0  0  0  0
  153.0294  145.5441  160.1709 H   0  0  0  0  0  0  0  0  0  0  0  0
  150.9276  144.6784  157.1743 H   0  0  0  0  0  0  0  0  0  0  0  0
  150.1549  143.7877  158.4635 H   0  0  0  0  0  0  0  0  0  0  0  0
  1 22  1  0  0  0  0
  1 23  1  0  0  0  0
  1 24  1  0  0  0  0
  1  2  1  0  0  0  0
  2  3  1  0  0  0  0
  2 20  2  0  0  0  0
  3  4  1  0  0  0  0
  3 21  1  0  0  0  0
  4  6  2  0  0  0  0
  4  5  1  0  0  0  0
  5 25  1  0  0  0  0
  5 26  1  0  0  0  0
  5 27  1  0  0  0  0
  6 18  1  0  0  0  0
  6  7  1  0  0  0  0
  7  8  1  0  0  0  0
  7 28  1  0  0  0  0
  7 29  1  0  0  0  0
  8  9  2  0  0  0  0
  8 10  1  0  0  0  0
 10 11  1  0  0  0  0
 10 30  1  0  0  0  0
 11 17  1  0  0  0  0
 11 12  1  0  0  0  0
 11 31  1  0  0  0  0
 12 13  1  0  0  0  0
 12 32  1  0  0  0  0
 12 33  1  0  0  0  0
 13 14  1  0  0  0  0
 13 34  1  0  0  0  0
 13 35  1  0  0  0  0
 14 15  1  0  0  0  0
 14 36  1  0  0  0  0
 14 37  1  0  0  0  0
 15 16  1  0  0  0  0
 15 17  1  0  0  0  0
 15 38  1  0  0  0  0
 16 39  1  0  0  0  0
 16 40  1  0  0  0  0
 16 41  1  0  0  0  0
 17 42  1  0  0  0  0
 17 43  1  0  0  0  0
 18 19  2  0  0  0  0
 18 20  1  0  0  0  0
M  END
> <s_m_source_file>
AV-unprocessed.smi

> <i_m_source_file_index>
2198

> <i_lp_mmshare_version>
43012

> <i_f3d_flags>
0

> <s_epik_input>
W0NIM11jMW5jKFtDSDNdKWMoYyg9TylbbkhdMSlbQ0gyXUMoPU8pW05IXVtDQEBIXTJbQ0gyXVtDSDJdW0NIMl1bQ0BASF0oW0NIM10pW0NIMl0y

> <s_epik_cmdline>
J2VwaWtfcHl0aG9uJywgJy1waCcsICc3LjAnLCAnLXRuJywgJzgnLCAnLW1hJywgJzIwMCcsICctbWV0YWxfYmluZGluZycsICctaW1hZScsICc8aW5maWxlLm1hZT4nLCAnLW9tYWUnLCAnPG91dGZpbGUubWFlPic=

> <r_lp_tautomer_probability>
0.156392

> <r_epik_Ionization_Penalty>
0.0136514

> <r_epik_Ionization_Penalty_Charging>
0.0135207

> <r_epik_Ionization_Penalty_Neutral>
0.000130657

> <r_epik_State_Penalty>
1.15342

> <r_epik_Charging_Adjusted_Penalty>
1.16694

> <i_epik_Tot_Q>
0

> <i_epik_Tot_abs_Q>
0

> <r_epik_Metal_State_Penalty>
1.31404

> <b_epik_Metal_Only>
0

> <s_lp_Force_Field>
OPLS_2005

> <r_lp_Energy>
14.0485

> <b_lp_Chiralities_Consistent>
1

> <s_lp_Variant>
AV-unprocessed.smi:2198-7

> <Gold.Version>
5.8.1

> <Gold.Id.Protein>
6NUR|6NUR_protein|mol2

> <Gold.PLP.Fitness>
43.0616

> <Gold.PLP.PLP>
-38.9902

> <Gold.PLP.part.hbond>
-2.0000

> <Gold.PLP.part.metal>
0.0000

> <Gold.PLP.part.buried>
-5.6345

> <Gold.PLP.part.nonpolar>
-31.1149

> <Gold.PLP.part.repulsive>
0.1678

> <Gold.PLP.ligand.clash>
0.0000

> <Gold.PLP.ligand.torsion>
0.4749

> <Gold.PLP.Chemscore.Hbond>
1.6720

> <Gold.PLP.Chemscore.CHOScore>
0.0000

> <Gold.PLP.Chemscore.Metal>
0.0000

> <Gold.Chemscore.Hbonds>
donor molecule, donor type, donor heavy atom, donor atom, acceptor molecule, acceptor atom, score
      L1  H    10    30       P1  8028  0.62
      P1  H  7989  7998       L1     9  0.99

> <Gold.PLP.Chemscore.Internal.Correction>
0.0051

> <Gold.Rescore>
     Score         DG    S(hbond)    S(metal)    S(lipo)     H(rot)  DE(clash)    DE(int)     intcor
     16.76     -18.34       1.55        0.00      98.20       1.48       0.02       1.55       ----

> <Gold.Chemscore.Fitness>
16.7638

> <Gold.Chemscore.DG>
-18.3404

> <Gold.Chemscore.ZeroCoef>
-5.4800

> <Gold.Chemscore.Hbond>
1.5450

> <Gold.Chemscore.Metal>
0.0000

> <Gold.Chemscore.Lipo>
98.1975

> <Gold.Chemscore.Internal_Hbond>
0.0000

> <Gold.Chemscore.DEClash>
0.0227

> <Gold.Chemscore.DEInternal>
1.5540

> <Gold.Chemscore.Rot>
1.4801

> <Gold.Chemscore.Internal.Correction>
   9.000000E+99

> <Gold.Chemscore.Hbonds>
donor molecule, donor type, donor heavy atom, donor atom, acceptor molecule, acceptor atom, score
      L1  H    10    30       P1  8028  0.64
      P1  H  7989  7998       L1     9  0.83

> <Gold.Chemscore.Hbond.Weighted>
-5.1604

> <Gold.Chemscore.Metal.Weighted>
-0.0000

> <Gold.Chemscore.Lipo.Weighted>
-11.4891

> <Gold.Chemscore.Internal_Hbond.Weighted>
0.0000

> <Gold.Chemscore.DEClash.Weighted>
0.0227

> <Gold.Chemscore.DEInternal.Weighted>
1.5540

> <Gold.Chemscore.Rot.Weighted>
3.7891

> <Gold.Chemscore.Internal.Correction.Weighted>
   9.000000E+99

> <Gold.Protein.RotatedTorsions>
[ 6907 6896 6895 6894 ] final   -5.19 input  -60.11 | X-H torsion
[ 7974 7965 7964 7962 ] final -166.18 input  175.53 | X-H torsion
[ 8008 7997 7996 7995 ] final   42.15 input   59.86 | X-H torsion
[ 10167 10162 10161 10158 ] final   66.35 input  -65.29 | X-H torsion
[ 10718 10713 10712 10709 ] final  159.42 input   66.30 | X-H torsion
[ 10763 10752 10751 10750 ] final   -9.05 input  -60.55 | X-H torsion
[ 11005 11000 10999 10996 ] final   45.65 input  -57.11 | X-H torsion

> <Gold.Protein.ActiveResidues>
 VAL166  LYS551  ARG553  GLY616  TRP617  ASP618  TYR619  PRO620  LYS621  CYS622 
 ASP623  PHE694  ASN695  SER759  ASP760  ASP761  ALA762  ILE779  LEU786  VAL792 
 PHE793  MET794  SER795  GLU796  ALA797  LYS798  CYS799  TRP800  GLU811  SER814 

> <Gold.Protein.RotatedAtoms>
  151.4855  135.1054  159.9789 H   0  0  0  0  0  0  0  0  0  0  0  0  # atno 6907 bound_to 6896
  152.4762  133.8140  159.7029 H   0  0  0  0  0  0  0  0  0  0  0  0  # atno 6908 bound_to 6896
  150.8801  133.7321  159.2961 H   0  0  0  0  0  0  0  0  0  0  0  0  # atno 6909 bound_to 6896
  144.7251  140.2704  143.6251 H   0  0  0  0  0  0  0  0  0  0  0  0  # atno 7974 bound_to 7965
  155.2814  140.3372  155.4258 H   0  0  0  0  0  0  0  0  0  0  0  0  # atno 8008 bound_to 7997
  156.2088  140.1761  156.7781 H   0  0  0  0  0  0  0  0  0  0  0  0  # atno 8009 bound_to 7997
  154.5657  140.0679  156.8873 H   0  0  0  0  0  0  0  0  0  0  0  0  # atno 8010 bound_to 7997
  140.1014  144.4900  150.7035 H   0  0  0  0  0  0  0  0  0  0  0  0  # atno 10167 bound_to 10162
  157.1644  131.0595  151.2215 H   0  0  0  0  0  0  0  0  0  0  0  0  # atno 10718 bound_to 10713
  153.4492  135.7015  153.6120 H   0  0  0  0  0  0  0  0  0  0  0  0  # atno 10763 bound_to 10752
  153.4462  135.3768  155.2257 H   0  0  0  0  0  0  0  0  0  0  0  0  # atno 10764 bound_to 10752
  154.8728  135.3986  154.3901 H   0  0  0  0  0  0  0  0  0  0  0  0  # atno 10765 bound_to 10752
  140.1440  134.4546  155.8429 H   0  0  0  0  0  0  0  0  0  0  0  0  # atno 11005 bound_to 11000
  145.8049  139.1979  143.2027 LP  0  0  0  0  0  0  0  0  0  0  0  0  # atno 17320 bound_to 7965
  146.0645  140.7935  142.9718 LP  0  0  0  0  0  0  0  0  0  0  0  0  # atno 17321 bound_to 7965
  140.6976  143.2413  151.4957 LP  0  0  0  0  0  0  0  0  0  0  0  0  # atno 17342 bound_to 10162
  139.5669  144.2020  152.1779 LP  0  0  0  0  0  0  0  0  0  0  0  0  # atno 17343 bound_to 10162
  157.4102  130.7381  149.6833 LP  0  0  0  0  0  0  0  0  0  0  0  0  # atno 17370 bound_to 10713
  155.9748  130.4097  150.3894 LP  0  0  0  0  0  0  0  0  0  0  0  0  # atno 17371 bound_to 10713
  141.2190  133.6845  156.7300 LP  0  0  0  0  0  0  0  0  0  0  0  0  # atno 17394 bound_to 11000
  140.2686  134.8410  157.3826 LP  0  0  0  0  0  0  0  0  0  0  0  0  # atno 17395 bound_to 11000

$$$$
