AV-unprocessed.smi:160|AV-procd|sdf|1354|dock3
  -GOLD-   2262019 63D 1   1.00000     0.00000
 Structure written by MMmdl.
 29 30  0  0  0  0  0  0  0  0  1 V2000
  153.4434  137.9326  156.1929 N   0  0  0  0  0  0  0  0  0  0  0  0
  152.5476  138.2383  155.2486 C   0  0  0  0  0  0  0  0  0  0  0  0
  152.5161  137.6652  154.1608 O   0  0  0  0  0  0  0  0  0  0  0  0
  151.5694  139.3283  155.5892 C   0  0  0  0  0  0  0  0  0  0  0  0
  151.5163  139.8622  156.8450 N   0  0  0  0  0  0  0  0  0  0  0  0
  150.5446  140.7450  156.6539 C   0  0  0  0  0  0  0  0  0  0  0  0
  150.0408  140.7482  155.4155 N   0  0  0  0  0  0  0  0  0  0  0  0
  148.9711  141.6116  154.8261 C   0  0  1  0  0  0  0  0  0  0  0  0
  148.7769  141.2128  153.5011 O   0  0  0  0  0  0  0  0  0  0  0  0
  147.4331  140.7965  153.2601 C   0  0  1  0  0  0  0  0  0  0  0  0
  147.3852  139.2539  153.1916 C   0  0  0  0  0  0  0  0  0  0  0  0
  148.6924  138.7410  153.0466 O   0  0  0  0  0  0  0  0  0  0  0  0
  146.6441  141.4387  154.4138 C   0  0  1  0  0  0  0  0  0  0  0  0
  145.4694  140.7277  154.7539 O   0  0  0  0  0  0  0  0  0  0  0  0
  147.6341  141.4662  155.5692 C   0  0  2  0  0  0  0  0  0  0  0  0
  147.3659  142.5895  156.3849 O   0  0  0  0  0  0  0  0  0  0  0  0
  150.7163  139.8225  154.6906 N   0  0  0  0  0  0  0  0  0  0  0  0
  149.3796  142.6233  154.8472 H   0  0  0  0  0  0  0  0  0  0  0  0
  147.0842  141.2061  152.3110 H   0  0  0  0  0  0  0  0  0  0  0  0
  146.3748  142.4562  154.1245 H   0  0  0  0  0  0  0  0  0  0  0  0
  147.6025  140.5397  156.1439 H   0  0  0  0  0  0  0  0  0  0  0  0
  154.1265  137.2090  156.0236 H   0  0  0  0  0  0  0  0  0  0  0  0
  153.4295  138.4297  157.0717 H   0  0  0  0  0  0  0  0  0  0  0  0
  150.1920  141.4037  157.4341 H   0  0  0  0  0  0  0  0  0  0  0  0
  146.8976  138.8126  154.0576 H   0  0  0  0  0  0  0  0  0  0  0  0
  146.8298  138.9223  152.3148 H   0  0  0  0  0  0  0  0  0  0  0  0
  148.6335  137.8172  152.8565 H   0  0  0  0  0  0  0  0  0  0  0  0
  145.0362  140.4641  153.9564 H   0  0  0  0  0  0  0  0  0  0  0  0
  147.9460  143.2910  156.1315 H   0  0  0  0  0  0  0  0  0  0  0  0
  1  2  1  0  0  0  0
  1 22  1  0  0  0  0
  1 23  1  0  0  0  0
  2  3  2  0  0  0  0
  2  4  1  0  0  0  0
  4 17  2  0  0  0  0
  4  5  1  0  0  0  0
  5  6  2  0  0  0  0
  6  7  1  0  0  0  0
  6 24  1  0  0  0  0
  7  8  1  0  0  0  0
  7 17  1  0  0  0  0
  8 18  1  0  0  0  0
  8 15  1  0  0  0  0
  8  9  1  0  0  0  0
  9 10  1  0  0  0  0
 10 19  1  0  0  0  0
 10 11  1  0  0  0  0
 10 13  1  0  0  0  0
 11 12  1  0  0  0  0
 11 25  1  0  0  0  0
 11 26  1  0  0  0  0
 12 27  1  0  0  0  0
 13 20  1  0  0  0  0
 13 14  1  0  0  0  0
 13 15  1  0  0  0  0
 14 28  1  0  0  0  0
 15 21  1  0  0  0  0
 15 16  1  0  0  0  0
 16 29  1  0  0  0  0
M  END
> <s_m_source_file>
AV-unprocessed.smi

> <i_m_source_file_index>
160

> <i_lp_mmshare_version>
43012

> <i_f3d_flags>
0

> <s_epik_input>
W05IMl1DKD1PKWMxbltjSF1uKG4xKVtDQEBIXTJPW0NASF0oW0NIMl1bT0hdKVtDQEBIXShbT0hdKVtDQEhdMltPSF0=

> <s_epik_cmdline>
J2VwaWtfcHl0aG9uJywgJy1waCcsICc3LjAnLCAnLXRuJywgJzgnLCAnLW1hJywgJzIwMCcsICctbWV0YWxfYmluZGluZycsICctaW1hZScsICc8aW5maWxlLm1hZT4nLCAnLW9tYWUnLCAnPG91dGZpbGUubWFlPic=

> <r_lp_tautomer_probability>
1

> <r_epik_Ionization_Penalty>
1.06932e-05

> <r_epik_Ionization_Penalty_Charging>
0

> <r_epik_Ionization_Penalty_Neutral>
1.06932e-05

> <r_epik_State_Penalty>
-0

> <r_epik_Charging_Adjusted_Penalty>
0

> <i_epik_Tot_Q>
0

> <i_epik_Tot_abs_Q>
0

> <r_epik_Metal_State_Penalty>
0.0142097

> <b_epik_Metal_Only>
0

> <s_epik_Chemistry_Notes>
This compound contains an acetal/aminal-like group ( X-CH(R)-Y where X, Y are N, S, or O) that may be acid/base labile, releasing an aldehyde.

> <s_lp_Force_Field>
OPLS_2005

> <r_lp_Energy>
39.4321

> <b_lp_Chiralities_Consistent>
1

> <s_lp_Variant>
AV-unprocessed.smi:160-12

> <Gold.Version>
5.8.1

> <Gold.Id.Protein>
6NUR|6NUR_protein|mol2

> <Gold.PLP.Fitness>
42.0888

> <Gold.PLP.PLP>
-26.6302

> <Gold.PLP.part.hbond>
-6.7495

> <Gold.PLP.part.metal>
0.0000

> <Gold.PLP.part.buried>
-2.6645

> <Gold.PLP.part.nonpolar>
-19.9465

> <Gold.PLP.part.repulsive>
2.9367

> <Gold.PLP.ligand.clash>
0.0000

> <Gold.PLP.ligand.torsion>
0.7009

> <Gold.PLP.Chemscore.Hbond>
5.6160

> <Gold.PLP.Chemscore.CHOScore>
0.0000

> <Gold.PLP.Chemscore.Metal>
0.0000

> <Gold.Chemscore.Hbonds>
donor molecule, donor type, donor heavy atom, donor atom, acceptor molecule, acceptor atom, score
      L1  H    12    27       P1  7948  1.00
      L1  H    14    28       P1 10175  1.00
      L1  H    16    29       P1  8028  1.00
      P1  H  7989  7998       L1    17  1.00
      P1  H  8011  8017       L1     9  0.93
      P1  H 10752 10765       L1     3  0.66

> <Gold.PLP.Chemscore.Internal.Correction>
0.0124

> <Gold.Rescore>
     Score         DG    S(hbond)    S(metal)    S(lipo)     H(rot)  DE(clash)    DE(int)     intcor
      9.03     -11.68       4.13        0.00      23.92       4.06       0.69       1.96       ----

> <Gold.Chemscore.Fitness>
9.0268

> <Gold.Chemscore.DG>
-11.6795

> <Gold.Chemscore.ZeroCoef>
-5.4800

> <Gold.Chemscore.Hbond>
4.1299

> <Gold.Chemscore.Metal>
0.0000

> <Gold.Chemscore.Lipo>
23.9239

> <Gold.Chemscore.Internal_Hbond>
0.0000

> <Gold.Chemscore.DEClash>
0.6900

> <Gold.Chemscore.DEInternal>
1.9628

> <Gold.Chemscore.Rot>
4.0600

> <Gold.Chemscore.Internal.Correction>
   9.000000E+99

> <Gold.Chemscore.Hbonds>
donor molecule, donor type, donor heavy atom, donor atom, acceptor molecule, acceptor atom, score
      L1  H    12    27       P1  7948  0.98
      L1  H    14    28       P1 10175  0.95
      L1  H    16    29       P1  8028  0.26
      P1  H  7989  7998       L1    17  0.24
      P1  H  8011  8017       L1     9  0.62
      P1  H 10752 10765       L1     3  0.60

> <Gold.Chemscore.Hbond.Weighted>
-13.7940

> <Gold.Chemscore.Metal.Weighted>
-0.0000

> <Gold.Chemscore.Lipo.Weighted>
-2.7991

> <Gold.Chemscore.Internal_Hbond.Weighted>
0.0000

> <Gold.Chemscore.DEClash.Weighted>
0.6900

> <Gold.Chemscore.DEInternal.Weighted>
1.9628

> <Gold.Chemscore.Rot.Weighted>
10.3936

> <Gold.Chemscore.Internal.Correction.Weighted>
   9.000000E+99

> <Gold.Protein.RotatedTorsions>
[ 6907 6896 6895 6894 ] final  142.57 input  -60.11 | X-H torsion
[ 7974 7965 7964 7962 ] final   79.40 input  175.53 | X-H torsion
[ 8008 7997 7996 7995 ] final  176.78 input   59.86 | X-H torsion
[ 10167 10162 10161 10158 ] final -157.35 input  -65.29 | X-H torsion
[ 10718 10713 10712 10709 ] final   86.58 input   66.30 | X-H torsion
[ 10763 10752 10751 10750 ] final  149.94 input  -60.55 | X-H torsion
[ 11005 11000 10999 10996 ] final -156.65 input  -57.11 | X-H torsion

> <Gold.Protein.ActiveResidues>
 VAL166  LYS551  ARG553  GLY616  TRP617  ASP618  TYR619  PRO620  LYS621  CYS622 
 ASP623  PHE694  ASN695  SER759  ASP760  ASP761  ALA762  ILE779  LEU786  VAL792 
 PHE793  MET794  SER795  GLU796  ALA797  LYS798  CYS799  TRP800  GLU811  SER814 

> <Gold.Protein.RotatedAtoms>
  152.2170  133.4954  159.5141 H   0  0  0  0  0  0  0  0  0  0  0  0  # atno 6907 bound_to 6896
  150.7003  134.1392  159.4107 H   0  0  0  0  0  0  0  0  0  0  0  0  # atno 6908 bound_to 6896
  151.9312  135.0255  160.0580 H   0  0  0  0  0  0  0  0  0  0  0  0  # atno 6909 bound_to 6896
  145.6647  139.2481  143.1902 H   0  0  0  0  0  0  0  0  0  0  0  0  # atno 7974 bound_to 7965
  156.0728  140.1375  156.9808 H   0  0  0  0  0  0  0  0  0  0  0  0  # atno 8008 bound_to 7997
  154.4541  140.0968  156.6756 H   0  0  0  0  0  0  0  0  0  0  0  0  # atno 8009 bound_to 7997
  155.5201  140.3456  155.4407 H   0  0  0  0  0  0  0  0  0  0  0  0  # atno 8010 bound_to 7997
  139.6777  143.9634  152.2320 H   0  0  0  0  0  0  0  0  0  0  0  0  # atno 10167 bound_to 10162
  157.6930  131.0221  150.2995 H   0  0  0  0  0  0  0  0  0  0  0  0  # atno 10718 bound_to 10713
  154.0794  135.2860  155.3293 H   0  0  0  0  0  0  0  0  0  0  0  0  # atno 10763 bound_to 10752
  154.6694  135.5305  153.8122 H   0  0  0  0  0  0  0  0  0  0  0  0  # atno 10764 bound_to 10752
  153.0455  135.6554  154.0970 H   0  0  0  0  0  0  0  0  0  0  0  0  # atno 10765 bound_to 10752
  140.6733  134.4224  157.5230 H   0  0  0  0  0  0  0  0  0  0  0  0  # atno 11005 bound_to 11000
  146.1095  140.7445  142.9510 LP  0  0  0  0  0  0  0  0  0  0  0  0  # atno 17320 bound_to 7965
  144.7077  140.3917  143.7105 LP  0  0  0  0  0  0  0  0  0  0  0  0  # atno 17321 bound_to 7965
  139.9416  144.6678  150.8261 LP  0  0  0  0  0  0  0  0  0  0  0  0  # atno 17342 bound_to 10162
  140.7641  143.3241  151.2556 LP  0  0  0  0  0  0  0  0  0  0  0  0  # atno 17343 bound_to 10162
  156.3513  130.3831  149.7327 LP  0  0  0  0  0  0  0  0  0  0  0  0  # atno 17370 bound_to 10713
  156.4804  130.8038  151.3053 LP  0  0  0  0  0  0  0  0  0  0  0  0  # atno 17371 bound_to 10713
  139.8975  134.8636  156.2043 LP  0  0  0  0  0  0  0  0  0  0  0  0  # atno 17394 bound_to 11000
  141.0375  133.6955  156.1539 LP  0  0  0  0  0  0  0  0  0  0  0  0  # atno 17395 bound_to 11000

$$$$
