AV-unprocessed.smi:2509|AV-procd|sdf|9867|dock5
  -GOLD-   2272013493D 1   1.00000     0.00000
 Structure written by MMmdl.
 45 46  0  0  0  0  0  0  0  0  1 V2000
  146.2082  133.6479  162.6529 C   0  0  0  0  0  0  0  0  0  0  0  0
  145.0761  134.4554  161.9750 C   0  0  0  0  0  0  0  0  0  0  0  0
  143.7836  134.1148  162.7534 C   0  0  0  0  0  0  0  0  0  0  0  0
  145.3727  135.9612  162.0997 C   0  0  0  0  0  0  0  0  0  0  0  0
  144.9401  134.0808  160.4887 C   0  0  0  0  0  0  0  0  0  0  0  0
  146.0333  134.2030  159.7250 N   0  0  0  0  0  0  0  0  0  0  0  0
  145.8957  134.0007  158.3979 C   0  0  0  0  0  0  0  0  0  0  0  0
  144.6493  133.7062  157.8100 C   0  0  0  0  0  0  0  0  0  0  0  0
  144.5911  133.5089  156.4027 N   0  0  0  0  0  0  0  0  0  0  0  0
  145.4058  133.9814  155.4439 C   0  0  0  0  0  0  0  0  0  0  0  0
  146.3913  134.6943  155.6280 O   0  0  0  0  0  0  0  0  0  0  0  0
  145.0065  133.5768  154.2299 N   0  0  0  0  0  0  0  0  0  0  0  0
  145.6596  133.9270  152.9726 C   0  0  0  0  0  0  0  0  0  0  0  0
  145.5569  132.7940  151.9293 C   0  0  1  0  0  0  0  0  0  0  0  0
  144.1301  132.5039  151.4485 C   0  0  0  0  0  0  0  0  0  0  0  0
  144.2803  131.8177  150.0812 C   0  0  0  0  0  0  0  0  0  0  0  0
  145.7615  131.9400  149.6888 C   0  0  0  0  0  0  0  0  0  0  0  0
  146.3594  132.9872  150.6328 C   0  0  1  0  0  0  0  0  0  0  0  0
  146.1530  134.2746  150.0804 O   0  0  0  0  0  0  0  0  0  0  0  0
  143.5519  133.6413  158.7029 C   0  0  0  0  0  0  0  0  0  0  0  0
  143.7044  133.8454  160.0289 N   0  0  0  0  0  0  0  0  0  0  0  0
  146.2782  133.8789  163.7164 H   0  0  0  0  0  0  0  0  0  0  0  0
  147.1841  133.8678  162.2191 H   0  0  0  0  0  0  0  0  0  0  0  0
  146.0399  132.5741  162.5613 H   0  0  0  0  0  0  0  0  0  0  0  0
  143.5322  133.0574  162.6626 H   0  0  0  0  0  0  0  0  0  0  0  0
  142.9280  134.6898  162.3976 H   0  0  0  0  0  0  0  0  0  0  0  0
  143.8901  134.3359  163.8159 H   0  0  0  0  0  0  0  0  0  0  0  0
  145.4806  136.2610  163.1424 H   0  0  0  0  0  0  0  0  0  0  0  0
  144.5702  136.5593  161.6665 H   0  0  0  0  0  0  0  0  0  0  0  0
  146.2957  136.2269  161.5832 H   0  0  0  0  0  0  0  0  0  0  0  0
  146.7916  134.0815  157.7997 H   0  0  0  0  0  0  0  0  0  0  0  0
  143.8257  132.9335  156.0831 H   0  0  0  0  0  0  0  0  0  0  0  0
  144.1845  132.9941  154.1669 H   0  0  0  0  0  0  0  0  0  0  0  0
  145.2250  134.8448  152.5736 H   0  0  0  0  0  0  0  0  0  0  0  0
  146.7040  134.1555  153.1858 H   0  0  0  0  0  0  0  0  0  0  0  0
  145.9231  131.8770  152.3946 H   0  0  0  0  0  0  0  0  0  0  0  0
  143.5784  131.8889  152.1603 H   0  0  0  0  0  0  0  0  0  0  0  0
  143.5770  133.4364  151.3275 H   0  0  0  0  0  0  0  0  0  0  0  0
  143.9802  130.7702  150.1267 H   0  0  0  0  0  0  0  0  0  0  0  0
  143.6426  132.3066  149.3441 H   0  0  0  0  0  0  0  0  0  0  0  0
  146.2541  130.9827  149.8641 H   0  0  0  0  0  0  0  0  0  0  0  0
  145.9012  132.1833  148.6346 H   0  0  0  0  0  0  0  0  0  0  0  0
  147.4284  132.8344  150.7847 H   0  0  0  0  0  0  0  0  0  0  0  0
  146.1558  134.1998  149.1383 H   0  0  0  0  0  0  0  0  0  0  0  0
  142.5424  133.4350  158.3868 H   0  0  0  0  0  0  0  0  0  0  0  0
  1  2  1  0  0  0  0
  1 22  1  0  0  0  0
  1 23  1  0  0  0  0
  1 24  1  0  0  0  0
  2  3  1  0  0  0  0
  2  4  1  0  0  0  0
  2  5  1  0  0  0  0
  3 25  1  0  0  0  0
  3 26  1  0  0  0  0
  3 27  1  0  0  0  0
  4 28  1  0  0  0  0
  4 29  1  0  0  0  0
  4 30  1  0  0  0  0
  5 21  1  0  0  0  0
  5  6  2  0  0  0  0
  6  7  1  0  0  0  0
  7  8  2  0  0  0  0
  7 31  1  0  0  0  0
  8  9  1  0  0  0  0
  8 20  1  0  0  0  0
  9 10  1  0  0  0  0
  9 32  1  0  0  0  0
 10 11  2  0  0  0  0
 10 12  1  0  0  0  0
 12 13  1  0  0  0  0
 12 33  1  0  0  0  0
 13 14  1  0  0  0  0
 13 34  1  0  0  0  0
 13 35  1  0  0  0  0
 14 18  1  0  0  0  0
 14 15  1  0  0  0  0
 14 36  1  0  0  0  0
 15 16  1  0  0  0  0
 15 37  1  0  0  0  0
 15 38  1  0  0  0  0
 16 17  1  0  0  0  0
 16 39  1  0  0  0  0
 16 40  1  0  0  0  0
 17 18  1  0  0  0  0
 17 41  1  0  0  0  0
 17 42  1  0  0  0  0
 18 19  1  0  0  0  0
 18 43  1  0  0  0  0
 19 44  1  0  0  0  0
 20 21  2  0  0  0  0
 20 45  1  0  0  0  0
M  END
> <s_m_source_file>
AV-unprocessed.smi

> <i_m_source_file_index>
2509

> <i_lp_mmshare_version>
43012

> <i_f3d_flags>
0

> <s_epik_input>
W0NIM11DKFtDSDNdKShbQ0gzXSljMW5bY0hdYyhbY0hdbjEpW05IXUMoPU8pW05IXVtDSDJdW0NAQEhdMltDSDJdW0NIMl1bQ0gyXVtDQEhdMltPSF0=

> <s_epik_cmdline>
J2VwaWtfcHl0aG9uJywgJy1waCcsICc3LjAnLCAnLXRuJywgJzgnLCAnLW1hJywgJzIwMCcsICctbWV0YWxfYmluZGluZycsICctaW1hZScsICc8aW5maWxlLm1hZT4nLCAnLW9tYWUnLCAnPG91dGZpbGUubWFlPic=

> <r_lp_tautomer_probability>
1

> <r_epik_Ionization_Penalty>
2.77586e-05

> <r_epik_Ionization_Penalty_Charging>
0

> <r_epik_Ionization_Penalty_Neutral>
2.77586e-05

> <r_epik_State_Penalty>
-0

> <r_epik_Charging_Adjusted_Penalty>
0

> <i_epik_Tot_Q>
0

> <i_epik_Tot_abs_Q>
0

> <r_epik_Metal_State_Penalty>
-0

> <b_epik_Metal_Only>
0

> <s_lp_Force_Field>
OPLS_2005

> <r_lp_Energy>
25.7942

> <b_lp_Chiralities_Consistent>
1

> <s_lp_Variant>
AV-unprocessed.smi:2509-2

> <Gold.Version>
5.8.1

> <Gold.Id.Protein>
6NUR|6NUR_protein|mol2

> <Gold.PLP.Fitness>
39.6408

> <Gold.PLP.PLP>
-28.7944

> <Gold.PLP.part.hbond>
-2.6274

> <Gold.PLP.part.metal>
0.0000

> <Gold.PLP.part.buried>
-2.6174

> <Gold.PLP.part.nonpolar>
-22.1217

> <Gold.PLP.part.repulsive>
0.0172

> <Gold.PLP.ligand.clash>
0.0000

> <Gold.PLP.ligand.torsion>
0.6511

> <Gold.PLP.Chemscore.Hbond>
3.0000

> <Gold.PLP.Chemscore.CHOScore>
1.0000

> <Gold.PLP.Chemscore.Metal>
0.0000

> <Gold.Chemscore.Hbonds>
donor molecule, donor type, donor heavy atom, donor atom, acceptor molecule, acceptor atom, score
      L1  H     9    32       P1 10957  0.91
      L1  H    12    33       P1 10957  0.96
      L1  H    19    44       P1  7921  0.75
      L1  C    20    45       P1 11000  0.32

> <Gold.PLP.Chemscore.Internal.Correction>
0.1485

> <Gold.Rescore>
     Score         DG    S(hbond)    S(metal)    S(lipo)     H(rot)  DE(clash)    DE(int)     intcor
     17.80     -19.40       2.96        0.00      76.43       1.91       0.01       1.59       ----

> <Gold.Chemscore.Fitness>
17.7953

> <Gold.Chemscore.DG>
-19.4002

> <Gold.Chemscore.ZeroCoef>
-5.4800

> <Gold.Chemscore.Hbond>
2.9554

> <Gold.Chemscore.Metal>
0.0000

> <Gold.Chemscore.Lipo>
76.4342

> <Gold.Chemscore.Internal_Hbond>
0.0000

> <Gold.Chemscore.DEClash>
0.0137

> <Gold.Chemscore.DEInternal>
1.5912

> <Gold.Chemscore.Rot>
1.9116

> <Gold.Chemscore.Internal.Correction>
   9.000000E+99

> <Gold.Chemscore.Hbonds>
donor molecule, donor type, donor heavy atom, donor atom, acceptor molecule, acceptor atom, score
      L1  H     9    32       P1 10957  0.87
      L1  H    12    33       P1 10957  0.89
      L1  H    19    44       P1  7921  0.09

> <Gold.Chemscore.Hbond.Weighted>
-9.8710

> <Gold.Chemscore.Metal.Weighted>
-0.0000

> <Gold.Chemscore.Lipo.Weighted>
-8.9428

> <Gold.Chemscore.Internal_Hbond.Weighted>
0.0000

> <Gold.Chemscore.DEClash.Weighted>
0.0137

> <Gold.Chemscore.DEInternal.Weighted>
1.5912

> <Gold.Chemscore.Rot.Weighted>
4.8936

> <Gold.Chemscore.Internal.Correction.Weighted>
   9.000000E+99

> <Gold.Protein.RotatedTorsions>
[ 6907 6896 6895 6894 ] final   36.39 input  -60.11 | X-H torsion
[ 7974 7965 7964 7962 ] final  103.91 input  175.53 | X-H torsion
[ 8008 7997 7996 7995 ] final  -79.93 input   59.86 | X-H torsion
[ 10167 10162 10161 10158 ] final -111.60 input  -65.29 | X-H torsion
[ 10718 10713 10712 10709 ] final  153.81 input   66.30 | X-H torsion
[ 10763 10752 10751 10750 ] final  -37.63 input  -60.55 | X-H torsion
[ 11005 11000 10999 10996 ] final    0.03 input  -57.11 | X-H torsion

> <Gold.Protein.ActiveResidues>
 VAL166  LYS551  ARG553  GLY616  TRP617  ASP618  TYR619  PRO620  LYS621  CYS622 
 ASP623  PHE694  ASN695  SER759  ASP760  ASP761  ALA762  ILE779  LEU786  VAL792 
 PHE793  MET794  SER795  GLU796  ALA797  LYS798  CYS799  TRP800  GLU811  SER814 

> <Gold.Protein.RotatedAtoms>
  152.1291  134.9148  160.0559 H   0  0  0  0  0  0  0  0  0  0  0  0  # atno 6907 bound_to 6896
  152.0260  133.3913  159.4286 H   0  0  0  0  0  0  0  0  0  0  0  0  # atno 6908 bound_to 6896
  150.6855  134.3495  159.4946 H   0  0  0  0  0  0  0  0  0  0  0  0  # atno 6909 bound_to 6896
  145.3397  139.2465  143.3616 H   0  0  0  0  0  0  0  0  0  0  0  0  # atno 7974 bound_to 7965
  154.5833  140.0670  156.9136 H   0  0  0  0  0  0  0  0  0  0  0  0  # atno 8008 bound_to 7997
  155.2423  140.3345  155.4272 H   0  0  0  0  0  0  0  0  0  0  0  0  # atno 8009 bound_to 7997
  156.2205  140.1797  156.7473 H   0  0  0  0  0  0  0  0  0  0  0  0  # atno 8010 bound_to 7997
  140.1319  143.4353  152.1622 H   0  0  0  0  0  0  0  0  0  0  0  0  # atno 10167 bound_to 10162
  157.2399  131.0757  151.1799 H   0  0  0  0  0  0  0  0  0  0  0  0  # atno 10718 bound_to 10713
  153.8995  135.6804  153.4756 H   0  0  0  0  0  0  0  0  0  0  0  0  # atno 10763 bound_to 10752
  153.1137  135.4771  154.9076 H   0  0  0  0  0  0  0  0  0  0  0  0  # atno 10764 bound_to 10752
  154.7582  135.3203  154.8383 H   0  0  0  0  0  0  0  0  0  0  0  0  # atno 10765 bound_to 10752
  140.6311  133.9574  155.8275 H   0  0  0  0  0  0  0  0  0  0  0  0  # atno 11005 bound_to 11000
  146.3012  140.3991  142.8703 LP  0  0  0  0  0  0  0  0  0  0  0  0  # atno 17320 bound_to 7965
  144.8800  140.7387  143.5993 LP  0  0  0  0  0  0  0  0  0  0  0  0  # atno 17321 bound_to 7965
  139.5515  144.7341  151.4420 LP  0  0  0  0  0  0  0  0  0  0  0  0  # atno 17342 bound_to 10162
  140.6812  143.8077  150.7124 LP  0  0  0  0  0  0  0  0  0  0  0  0  # atno 17343 bound_to 10162
  157.3390  130.7023  149.6370 LP  0  0  0  0  0  0  0  0  0  0  0  0  # atno 17370 bound_to 10713
  155.9670  130.4285  150.4792 LP  0  0  0  0  0  0  0  0  0  0  0  0  # atno 17371 bound_to 10713
  141.0675  134.0255  157.3574 LP  0  0  0  0  0  0  0  0  0  0  0  0  # atno 17394 bound_to 11000
  139.9116  135.0191  156.7713 LP  0  0  0  0  0  0  0  0  0  0  0  0  # atno 17395 bound_to 11000

$$$$
