AV-unprocessed.smi:672|AV-procd|sdf|3294|dock7
  -GOLD-   22720 0253D 1   1.00000     0.00000
 Structure written by MMmdl.
 35 36  0  0  0  0  0  0  0  0  2 V2000
  145.7902  134.9856  162.3219 C   0  0  0  0  0  0  0  0  0  0  0  0
  145.6765  136.3440  161.6216 C   0  0  0  0  0  0  0  0  0  0  0  0
  146.8368  136.6259  160.7266 C   0  0  0  0  0  0  0  0  0  0  0  0
  146.9539  137.7573  160.0264 N   0  0  0  0  0  0  0  0  0  0  0  0
  148.1019  137.7735  159.2478 N   0  0  0  0  0  0  0  0  0  0  0  0
  148.8221  136.6473  159.3489 C   0  0  0  0  0  0  0  0  0  0  0  0
  149.9685  136.4622  158.6737 N   0  5  0  0  0  0  0  0  0  0  0  0
  150.3895  137.3951  157.7894 C   0  0  0  0  0  0  0  0  0  0  0  0
  150.7124  137.1958  156.6158 O   0  0  0  0  0  0  0  0  0  0  0  0
  150.4385  138.6361  158.2947 N   0  0  0  0  0  0  0  0  0  0  0  0
  150.8560  139.8376  157.5750 C   0  0  1  0  0  0  0  0  0  0  0  0
  149.7614  140.9239  157.5986 C   0  0  0  0  0  0  0  0  0  0  0  0
  150.2998  142.0501  158.4820 C   0  0  0  0  0  0  0  0  0  0  0  0
  151.8149  141.9721  158.3042 C   0  0  1  0  0  0  0  0  0  0  0  0
  152.7376  142.7948  159.6352 S   0  0  0  0  0  0  0  0  0  0  0  0
  152.4380  144.5310  159.2105 C   0  0  0  0  0  0  0  0  0  0  0  0
  152.0968  140.4689  158.2339 C   0  0  0  0  0  0  0  0  0  0  0  0
  148.1276  135.4662  160.4590 S   0  0  0  0  0  0  0  0  0  0  0  0
  144.9314  134.8092  162.9694 H   0  0  0  0  0  0  0  0  0  0  0  0
  146.6886  134.9349  162.9377 H   0  0  0  0  0  0  0  0  0  0  0  0
  145.8346  134.1723  161.5967 H   0  0  0  0  0  0  0  0  0  0  0  0
  144.7588  136.3843  161.0339 H   0  0  0  0  0  0  0  0  0  0  0  0
  145.6068  137.1400  162.3636 H   0  0  0  0  0  0  0  0  0  0  0  0
  150.1631  138.7542  159.2587 H   0  0  0  0  0  0  0  0  0  0  0  0
  151.0908  139.5815  156.5400 H   0  0  0  0  0  0  0  0  0  0  0  0
  149.6094  141.3003  156.5863 H   0  0  0  0  0  0  0  0  0  0  0  0
  148.7952  140.5604  157.9512 H   0  0  0  0  0  0  0  0  0  0  0  0
  149.8902  143.0226  158.2084 H   0  0  0  0  0  0  0  0  0  0  0  0
  150.0347  141.8554  159.5223 H   0  0  0  0  0  0  0  0  0  0  0  0
  152.0897  142.4256  157.3506 H   0  0  0  0  0  0  0  0  0  0  0  0
  152.9653  145.1826  159.9071 H   0  0  0  0  0  0  0  0  0  0  0  0
  151.3741  144.7618  159.2621 H   0  0  0  0  0  0  0  0  0  0  0  0
  152.7936  144.7434  158.2024 H   0  0  0  0  0  0  0  0  0  0  0  0
  152.2290  140.0771  159.2441 H   0  0  0  0  0  0  0  0  0  0  0  0
  153.0119  140.2495  157.6827 H   0  0  0  0  0  0  0  0  0  0  0  0
  1  2  1  0  0  0  0
  1 19  1  0  0  0  0
  1 20  1  0  0  0  0
  1 21  1  0  0  0  0
  2  3  1  0  0  0  0
  2 22  1  0  0  0  0
  2 23  1  0  0  0  0
  3 18  1  0  0  0  0
  3  4  2  0  0  0  0
  4  5  1  0  0  0  0
  5  6  2  0  0  0  0
  6  7  1  0  0  0  0
  6 18  1  0  0  0  0
  7  8  1  0  0  0  0
  8  9  2  0  0  0  0
  8 10  1  0  0  0  0
 10 11  1  0  0  0  0
 10 24  1  0  0  0  0
 11 17  1  0  0  0  0
 11 12  1  0  0  0  0
 11 25  1  0  0  0  0
 12 13  1  0  0  0  0
 12 26  1  0  0  0  0
 12 27  1  0  0  0  0
 13 14  1  0  0  0  0
 13 28  1  0  0  0  0
 13 29  1  0  0  0  0
 14 15  1  0  0  0  0
 14 17  1  0  0  0  0
 14 30  1  0  0  0  0
 15 16  1  0  0  0  0
 16 31  1  0  0  0  0
 16 32  1  0  0  0  0
 16 33  1  0  0  0  0
 17 34  1  0  0  0  0
 17 35  1  0  0  0  0
M  CHG  1   7  -1
M  END
> <s_m_source_file>
AV-unprocessed.smi

> <i_m_source_file_index>
672

> <i_lp_mmshare_version>
43012

> <i_f3d_flags>
0

> <s_epik_input>
W0NIM11bQ0gyXWMxbm5jKHMxKVtOSF1DKD1PKVtOSF1bQ0BASF0yW0NIMl1bQ0gyXVtDQEhdKFtDSDJdMilTW0NIM10=

> <s_epik_cmdline>
J2VwaWtfcHl0aG9uJywgJy1waCcsICc3LjAnLCAnLXRuJywgJzgnLCAnLW1hJywgJzIwMCcsICctbWV0YWxfYmluZGluZycsICctaW1hZScsICc8aW5maWxlLm1hZT4nLCAnLW9tYWUnLCAnPG91dGZpbGUubWFlPic=

> <r_lp_tautomer_probability>
1

> <r_epik_Ionization_Penalty>
4.49964

> <r_epik_Ionization_Penalty_Charging>
4.32991

> <r_epik_Ionization_Penalty_Neutral>
0.169727

> <r_epik_State_Penalty>
4.32952

> <r_epik_Charging_Adjusted_Penalty>
8.65943

> <i_epik_Tot_Q>
-1

> <i_epik_Tot_abs_Q>
1

> <r_epik_Metal_State_Penalty>
0.740482

> <b_epik_Metal_Only>
1

> <s_lp_Force_Field>
OPLS_2005

> <r_lp_Energy>
10.5366

> <b_lp_Chiralities_Consistent>
1

> <s_lp_Variant>
AV-unprocessed.smi:672-6

> <Gold.Version>
5.8.1

> <Gold.Id.Protein>
6NUR|6NUR_protein|mol2

> <Gold.PLP.Fitness>
38.2807

> <Gold.PLP.PLP>
-30.3308

> <Gold.PLP.part.hbond>
-3.1178

> <Gold.PLP.part.metal>
0.0000

> <Gold.PLP.part.buried>
-4.8052

> <Gold.PLP.part.nonpolar>
-22.7189

> <Gold.PLP.part.repulsive>
0.1321

> <Gold.PLP.ligand.clash>
0.0000

> <Gold.PLP.ligand.torsion>
0.5598

> <Gold.PLP.Chemscore.Hbond>
3.0000

> <Gold.PLP.Chemscore.CHOScore>
0.0000

> <Gold.PLP.Chemscore.Metal>
0.0000

> <Gold.Chemscore.Hbonds>
donor molecule, donor type, donor heavy atom, donor atom, acceptor molecule, acceptor atom, score
      P1  H  6896  6909       L1     7  1.62
      P1  H  6934  6947       L1     4  1.00

> <Gold.PLP.Chemscore.Internal.Correction>
0.0695

> <Gold.Rescore>
     Score         DG    S(hbond)    S(metal)    S(lipo)     H(rot)  DE(clash)    DE(int)     intcor
     13.91     -14.63       1.08        0.00      76.76       1.34       0.06       0.66       ----

> <Gold.Chemscore.Fitness>
13.9108

> <Gold.Chemscore.DG>
-14.6287

> <Gold.Chemscore.ZeroCoef>
-5.4800

> <Gold.Chemscore.Hbond>
1.0780

> <Gold.Chemscore.Metal>
0.0000

> <Gold.Chemscore.Lipo>
76.7621

> <Gold.Chemscore.Internal_Hbond>
0.0000

> <Gold.Chemscore.DEClash>
0.0588

> <Gold.Chemscore.DEInternal>
0.6591

> <Gold.Chemscore.Rot>
1.3410

> <Gold.Chemscore.Internal.Correction>
   9.000000E+99

> <Gold.Chemscore.Hbonds>
donor molecule, donor type, donor heavy atom, donor atom, acceptor molecule, acceptor atom, score
      P1  H  6896  6909       L1     7  0.27
      P1  H  6934  6947       L1     4  0.25

> <Gold.Chemscore.Hbond.Weighted>
-3.6004

> <Gold.Chemscore.Metal.Weighted>
-0.0000

> <Gold.Chemscore.Lipo.Weighted>
-8.9812

> <Gold.Chemscore.Internal_Hbond.Weighted>
0.0000

> <Gold.Chemscore.DEClash.Weighted>
0.0588

> <Gold.Chemscore.DEInternal.Weighted>
0.6591

> <Gold.Chemscore.Rot.Weighted>
3.4329

> <Gold.Chemscore.Internal.Correction.Weighted>
   9.000000E+99

> <Gold.Protein.RotatedTorsions>
[ 6907 6896 6895 6894 ] final   62.22 input  -60.11 | X-H torsion
[ 7974 7965 7964 7962 ] final -151.17 input  175.53 | X-H torsion
[ 8008 7997 7996 7995 ] final  163.64 input   59.86 | X-H torsion
[ 10167 10162 10161 10158 ] final  178.22 input  -65.29 | X-H torsion
[ 10718 10713 10712 10709 ] final  122.16 input   66.30 | X-H torsion
[ 10763 10752 10751 10750 ] final -115.74 input  -60.55 | X-H torsion
[ 11005 11000 10999 10996 ] final   96.19 input  -57.11 | X-H torsion

> <Gold.Protein.ActiveResidues>
 VAL166  LYS551  ARG553  GLY616  TRP617  ASP618  TYR619  PRO620  LYS621  CYS622 
 ASP623  PHE694  ASN695  SER759  ASP760  ASP761  ALA762  ILE779  LEU786  VAL792 
 PHE793  MET794  SER795  GLU796  ALA797  LYS798  CYS799  TRP800  GLU811  SER814 

> <Gold.Protein.RotatedAtoms>
  152.4154  134.6051  160.0010 H   0  0  0  0  0  0  0  0  0  0  0  0  # atno 6907 bound_to 6896
  151.6216  133.3333  159.3097 H   0  0  0  0  0  0  0  0  0  0  0  0  # atno 6908 bound_to 6896
  150.8043  134.7196  159.6695 H   0  0  0  0  0  0  0  0  0  0  0  0  # atno 6909 bound_to 6896
  144.7865  140.4833  143.5803 H   0  0  0  0  0  0  0  0  0  0  0  0  # atno 7974 bound_to 7965
  156.1941  140.1718  156.8032 H   0  0  0  0  0  0  0  0  0  0  0  0  # atno 8008 bound_to 7997
  154.5508  140.0718  156.8696 H   0  0  0  0  0  0  0  0  0  0  0  0  # atno 8009 bound_to 7997
  155.3032  140.3363  155.4249 H   0  0  0  0  0  0  0  0  0  0  0  0  # atno 8010 bound_to 7997
  139.5285  144.2705  152.0631 H   0  0  0  0  0  0  0  0  0  0  0  0  # atno 10167 bound_to 10162
  157.5763  131.1079  150.8272 H   0  0  0  0  0  0  0  0  0  0  0  0  # atno 10718 bound_to 10713
  154.8493  135.4371  154.1710 H   0  0  0  0  0  0  0  0  0  0  0  0  # atno 10763 bound_to 10752
  153.2823  135.6954  153.7379 H   0  0  0  0  0  0  0  0  0  0  0  0  # atno 10764 bound_to 10752
  153.6578  135.3440  155.3093 H   0  0  0  0  0  0  0  0  0  0  0  0  # atno 10765 bound_to 10752
  139.8783  134.8938  156.4122 H   0  0  0  0  0  0  0  0  0  0  0  0  # atno 11005 bound_to 11000
  145.5908  139.1495  143.3183 LP  0  0  0  0  0  0  0  0  0  0  0  0  # atno 17320 bound_to 7965
  146.2099  140.6034  142.9064 LP  0  0  0  0  0  0  0  0  0  0  0  0  # atno 17321 bound_to 7965
  140.2165  144.4509  150.6361 LP  0  0  0  0  0  0  0  0  0  0  0  0  # atno 17342 bound_to 10162
  140.6446  143.2211  151.6214 LP  0  0  0  0  0  0  0  0  0  0  0  0  # atno 17343 bound_to 10162
  156.8730  130.5152  149.5295 LP  0  0  0  0  0  0  0  0  0  0  0  0  # atno 17370 bound_to 10713
  156.0808  130.5819  150.9559 LP  0  0  0  0  0  0  0  0  0  0  0  0  # atno 17371 bound_to 10713
  140.9192  133.7657  155.9886 LP  0  0  0  0  0  0  0  0  0  0  0  0  # atno 17394 bound_to 11000
  140.8458  134.3012  157.5295 LP  0  0  0  0  0  0  0  0  0  0  0  0  # atno 17395 bound_to 11000

$$$$
