AV-unprocessed.smi:961|AV-procd|sdf|4274|dock6
  -GOLD-   22720 2183D 1   1.00000     0.00000
 Structure written by MMmdl.
 37 38  0  0  0  0  0  0  0  0  1 V2000
  151.3681  145.2360  159.8622 C   0  0  0  0  0  0  0  0  0  0  0  0
  151.8389  143.9811  159.1008 C   0  0  0  0  0  0  0  0  0  0  0  0
  150.6296  143.2700  158.4622 C   0  0  0  0  0  0  0  0  0  0  0  0
  152.7771  144.4385  157.9631 C   0  0  0  0  0  0  0  0  0  0  0  0
  152.5506  143.0382  160.0506 C   0  0  0  0  0  0  0  0  0  0  0  0
  152.8111  143.2196  161.3900 C   0  0  0  0  0  0  0  0  0  0  0  0
  153.6616  141.8697  162.0887 S   0  0  0  0  0  0  0  0  0  0  0  0
  153.6254  141.0776  160.5212 C   0  0  0  0  0  0  0  0  0  0  0  0
  154.2514  139.7491  160.2626 C   0  0  0  0  0  0  0  0  0  0  0  0
  153.2449  138.7271  159.7104 C   0  0  0  0  0  0  0  0  0  0  0  0
  152.8038  139.0789  158.3657 N   0  0  0  0  0  0  0  0  0  0  0  0
  152.3265  138.2120  157.4598 C   0  0  0  0  0  0  0  0  0  0  0  0
  152.2125  137.0055  157.6812 O   0  0  0  0  0  0  0  0  0  0  0  0
  151.9421  138.8420  156.1612 C   0  0  0  0  0  0  0  0  0  0  0  0
  151.2715  137.9608  155.1268 C   0  0  0  0  0  0  0  0  0  0  0  0
  152.6957  138.4118  154.9188 C   0  0  0  0  0  0  0  0  0  0  0  0
  153.0325  141.8105  159.5762 N   0  0  0  0  0  0  0  0  0  0  0  0
  150.8644  145.9390  159.1978 H   0  0  0  0  0  0  0  0  0  0  0  0
  152.2082  145.7599  160.3197 H   0  0  0  0  0  0  0  0  0  0  0  0
  150.6662  144.9844  160.6581 H   0  0  0  0  0  0  0  0  0  0  0  0
  149.9014  142.9618  159.2131 H   0  0  0  0  0  0  0  0  0  0  0  0
  150.9379  142.3763  157.9183 H   0  0  0  0  0  0  0  0  0  0  0  0
  150.1112  143.9215  157.7578 H   0  0  0  0  0  0  0  0  0  0  0  0
  152.2677  145.1167  157.2775 H   0  0  0  0  0  0  0  0  0  0  0  0
  153.1345  143.5928  157.3740 H   0  0  0  0  0  0  0  0  0  0  0  0
  153.6496  144.9662  158.3502 H   0  0  0  0  0  0  0  0  0  0  0  0
  152.5585  144.0647  162.0125 H   0  0  0  0  0  0  0  0  0  0  0  0
  155.0754  139.8896  159.5622 H   0  0  0  0  0  0  0  0  0  0  0  0
  154.6908  139.3811  161.1909 H   0  0  0  0  0  0  0  0  0  0  0  0
  153.7047  137.7395  159.6687 H   0  0  0  0  0  0  0  0  0  0  0  0
  152.3837  138.6411  160.3753 H   0  0  0  0  0  0  0  0  0  0  0  0
  152.8655  140.0525  158.1051 H   0  0  0  0  0  0  0  0  0  0  0  0
  151.6184  139.8813  156.2011 H   0  0  0  0  0  0  0  0  0  0  0  0
  151.1091  136.9107  155.3644 H   0  0  0  0  0  0  0  0  0  0  0  0
  150.4952  138.4190  154.5176 H   0  0  0  0  0  0  0  0  0  0  0  0
  152.8854  139.1761  154.1680 H   0  0  0  0  0  0  0  0  0  0  0  0
  153.4773  137.6602  155.0169 H   0  0  0  0  0  0  0  0  0  0  0  0
  1  2  1  0  0  0  0
  1 18  1  0  0  0  0
  1 19  1  0  0  0  0
  1 20  1  0  0  0  0
  2  3  1  0  0  0  0
  2  4  1  0  0  0  0
  2  5  1  0  0  0  0
  3 21  1  0  0  0  0
  3 22  1  0  0  0  0
  3 23  1  0  0  0  0
  4 24  1  0  0  0  0
  4 25  1  0  0  0  0
  4 26  1  0  0  0  0
  5 17  1  0  0  0  0
  5  6  2  0  0  0  0
  6  7  1  0  0  0  0
  6 27  1  0  0  0  0
  7  8  1  0  0  0  0
  8  9  1  0  0  0  0
  8 17  2  0  0  0  0
  9 10  1  0  0  0  0
  9 28  1  0  0  0  0
  9 29  1  0  0  0  0
 10 11  1  0  0  0  0
 10 30  1  0  0  0  0
 10 31  1  0  0  0  0
 11 12  1  0  0  0  0
 11 32  1  0  0  0  0
 12 13  2  0  0  0  0
 12 14  1  0  0  0  0
 14 16  1  0  0  0  0
 14 15  1  0  0  0  0
 14 33  1  0  0  0  0
 15 16  1  0  0  0  0
 15 34  1  0  0  0  0
 15 35  1  0  0  0  0
 16 36  1  0  0  0  0
 16 37  1  0  0  0  0
M  END
> <s_m_source_file>
AV-unprocessed.smi

> <i_m_source_file_index>
961

> <i_lp_mmshare_version>
43012

> <i_f3d_flags>
0

> <s_epik_input>
W0NIM11DKFtDSDNdKShbQ0gzXSljMVtjSF1zYyhuMSlbQ0gyXVtDSDJdW05IXUMoPU8pW0NIXTJbQ0gyXVtDSDJdMg==

> <s_epik_cmdline>
J2VwaWtfcHl0aG9uJywgJy1waCcsICc3LjAnLCAnLXRuJywgJzgnLCAnLW1hJywgJzIwMCcsICctbWV0YWxfYmluZGluZycsICctaW1hZScsICc8aW5maWxlLm1hZT4nLCAnLW9tYWUnLCAnPG91dGZpbGUubWFlPic=

> <r_epik_Ionization_Penalty>
0.000842111

> <r_epik_Ionization_Penalty_Charging>
0

> <r_epik_Ionization_Penalty_Neutral>
0.000842111

> <r_epik_State_Penalty>
0.000542609

> <r_epik_Charging_Adjusted_Penalty>
0.000542609

> <i_epik_Tot_Q>
0

> <i_epik_Tot_abs_Q>
0

> <r_epik_Metal_State_Penalty>
-0

> <b_epik_Metal_Only>
0

> <s_lp_Force_Field>
OPLS_2005

> <r_lp_Energy>
-3.24501

> <b_lp_Chiralities_Consistent>
1

> <s_lp_Variant>
AV-unprocessed.smi:961-1

> <Gold.Version>
5.8.1

> <Gold.Id.Protein>
6NUR|6NUR_protein|mol2

> <Gold.PLP.Fitness>
43.5826

> <Gold.PLP.PLP>
-43.9810

> <Gold.PLP.part.hbond>
0.0000

> <Gold.PLP.part.metal>
0.0000

> <Gold.PLP.part.buried>
-5.9915

> <Gold.PLP.part.nonpolar>
-38.4539

> <Gold.PLP.part.repulsive>
0.3012

> <Gold.PLP.ligand.clash>
0.0000

> <Gold.PLP.ligand.torsion>
0.2489

> <Gold.PLP.Chemscore.Hbond>
0.0000

> <Gold.PLP.Chemscore.CHOScore>
0.0000

> <Gold.PLP.Chemscore.Metal>
0.0000

> <Gold.PLP.Chemscore.Internal.Correction>
0.0994

> <Gold.Rescore>
     Score         DG    S(hbond)    S(metal)    S(lipo)     H(rot)  DE(clash)    DE(int)     intcor
     16.39     -16.70       0.00        0.00     129.52       1.54       0.04       0.27       ----

> <Gold.Chemscore.Fitness>
16.3948

> <Gold.Chemscore.DG>
-16.7007

> <Gold.Chemscore.ZeroCoef>
-5.4800

> <Gold.Chemscore.Hbond>
0.0000

> <Gold.Chemscore.Metal>
0.0000

> <Gold.Chemscore.Lipo>
129.5210

> <Gold.Chemscore.Internal_Hbond>
0.0000

> <Gold.Chemscore.DEClash>
0.0407

> <Gold.Chemscore.DEInternal>
0.2653

> <Gold.Chemscore.Rot>
1.5364

> <Gold.Chemscore.Internal.Correction>
   9.000000E+99

> <Gold.Chemscore.Hbond.Weighted>
-0.0000

> <Gold.Chemscore.Metal.Weighted>
-0.0000

> <Gold.Chemscore.Lipo.Weighted>
-15.1540

> <Gold.Chemscore.Internal_Hbond.Weighted>
0.0000

> <Gold.Chemscore.DEClash.Weighted>
0.0407

> <Gold.Chemscore.DEInternal.Weighted>
0.2653

> <Gold.Chemscore.Rot.Weighted>
3.9332

> <Gold.Chemscore.Internal.Correction.Weighted>
   9.000000E+99

> <Gold.Protein.RotatedTorsions>
[ 6907 6896 6895 6894 ] final   -0.34 input  -60.11 | X-H torsion
[ 7974 7965 7964 7962 ] final   42.98 input  175.53 | X-H torsion
[ 8008 7997 7996 7995 ] final  134.93 input   59.86 | X-H torsion
[ 10167 10162 10161 10158 ] final   88.51 input  -65.29 | X-H torsion
[ 10718 10713 10712 10709 ] final   31.72 input   66.30 | X-H torsion
[ 10763 10752 10751 10750 ] final    0.82 input  -60.55 | X-H torsion
[ 11005 11000 10999 10996 ] final   37.55 input  -57.11 | X-H torsion

> <Gold.Protein.ActiveResidues>
 VAL166  LYS551  ARG553  GLY616  TRP617  ASP618  TYR619  PRO620  LYS621  CYS622 
 ASP623  PHE694  ASN695  SER759  ASP760  ASP761  ALA762  ILE779  LEU786  VAL792 
 PHE793  MET794  SER795  GLU796  ALA797  LYS798  CYS799  TRP800  GLU811  SER814 

> <Gold.Protein.RotatedAtoms>
  151.5638  135.1064  159.9978 H   0  0  0  0  0  0  0  0  0  0  0  0  # atno 6907 bound_to 6896
  152.4434  133.7486  159.6692 H   0  0  0  0  0  0  0  0  0  0  0  0  # atno 6908 bound_to 6896
  150.8344  133.7969  159.3109 H   0  0  0  0  0  0  0  0  0  0  0  0  # atno 6909 bound_to 6896
  146.0694  139.5238  142.9607 H   0  0  0  0  0  0  0  0  0  0  0  0  # atno 7974 bound_to 7965
  156.3001  140.2483  156.3498 H   0  0  0  0  0  0  0  0  0  0  0  0  # atno 8008 bound_to 7997
  154.8976  140.0407  157.1894 H   0  0  0  0  0  0  0  0  0  0  0  0  # atno 8009 bound_to 7997
  154.8533  140.2909  155.5588 H   0  0  0  0  0  0  0  0  0  0  0  0  # atno 8010 bound_to 7997
  139.8665  144.6516  150.8998 H   0  0  0  0  0  0  0  0  0  0  0  0  # atno 10167 bound_to 10162
  157.2761  130.7232  149.6530 H   0  0  0  0  0  0  0  0  0  0  0  0  # atno 10718 bound_to 10713
  153.3158  135.6966  153.7074 H   0  0  0  0  0  0  0  0  0  0  0  0  # atno 10763 bound_to 10752
  153.5934  135.3475  155.2920 H   0  0  0  0  0  0  0  0  0  0  0  0  # atno 10764 bound_to 10752
  154.8586  135.4323  154.2309 H   0  0  0  0  0  0  0  0  0  0  0  0  # atno 10765 bound_to 10752
  140.2214  134.3636  155.8003 H   0  0  0  0  0  0  0  0  0  0  0  0  # atno 11005 bound_to 11000
  145.6419  141.0282  143.1807 LP  0  0  0  0  0  0  0  0  0  0  0  0  # atno 17320 bound_to 7965
  144.7222  139.7992  143.7378 LP  0  0  0  0  0  0  0  0  0  0  0  0  # atno 17321 bound_to 7965
  140.7767  143.3699  151.1668 LP  0  0  0  0  0  0  0  0  0  0  0  0  # atno 17342 bound_to 10162
  139.7324  143.9052  152.3024 LP  0  0  0  0  0  0  0  0  0  0  0  0  # atno 17343 bound_to 10162
  155.9664  130.4352  150.5084 LP  0  0  0  0  0  0  0  0  0  0  0  0  # atno 17370 bound_to 10713
  157.3018  131.0646  151.2063 LP  0  0  0  0  0  0  0  0  0  0  0  0  # atno 17371 bound_to 10713
  141.2223  133.7195  156.8582 LP  0  0  0  0  0  0  0  0  0  0  0  0  # atno 17394 bound_to 11000
  140.1846  134.9009  157.2988 LP  0  0  0  0  0  0  0  0  0  0  0  0  # atno 17395 bound_to 11000

$$$$
