AV-unprocessed.smi:3165|AV-procd|sdf|12087|dock4
  -GOLD-   2272017513D 1   1.00000     0.00000
 Structure written by MMmdl.
 38 39  0  0  0  0  0  0  0  0  2 V2000
  149.9812  143.6215  158.7814 C   0  0  0  0  0  0  0  0  0  0  0  0
  150.9667  142.6643  158.0978 C   0  0  2  0  0  0  0  0  0  0  0  0
  152.4197  143.0034  158.4921 C   0  0  0  0  0  0  0  0  0  0  0  0
  152.7164  142.6934  159.8790 N   0  0  0  0  0  0  0  0  0  0  0  0
  153.6658  141.8279  160.3803 C   0  0  0  0  0  0  0  0  0  0  0  0
  153.5797  141.8766  161.7422 C   0  0  0  0  0  0  0  0  0  0  0  0
  152.5331  142.8103  161.9826 C   0  0  0  0  0  0  0  0  0  0  0  0
  152.0185  143.2980  160.8652 N   0  0  0  0  0  0  0  0  0  0  0  0
  150.7794  142.7329  156.6307 N   0  3  0  0  0  0  0  0  0  0  0  0
  150.6965  141.4234  155.9500 C   0  0  0  0  0  0  0  0  0  0  0  0
  149.5433  141.4019  154.9384 C   0  0  1  0  0  0  0  0  0  0  0  0
  149.3235  139.9948  154.3490 C   0  0  0  0  0  0  0  0  0  0  0  0
  148.1054  139.9835  153.4186 C   0  0  0  0  0  0  0  0  0  0  0  0
  146.8882  140.5536  154.1542 C   0  0  0  0  0  0  0  0  0  0  0  0
  147.2250  141.9260  154.7583 C   0  0  0  0  0  0  0  0  0  0  0  0
  148.3572  141.8132  155.6155 O   0  0  0  0  0  0  0  0  0  0  0  0
  150.0688  143.5667  159.8669 H   0  0  0  0  0  0  0  0  0  0  0  0
  148.9506  143.3747  158.5239 H   0  0  0  0  0  0  0  0  0  0  0  0
  150.1601  144.6560  158.4854 H   0  0  0  0  0  0  0  0  0  0  0  0
  150.7314  141.6562  158.4438 H   0  0  0  0  0  0  0  0  0  0  0  0
  153.1264  142.4739  157.8505 H   0  0  0  0  0  0  0  0  0  0  0  0
  152.6061  144.0677  158.3428 H   0  0  0  0  0  0  0  0  0  0  0  0
  154.3169  141.2576  159.7342 H   0  0  0  0  0  0  0  0  0  0  0  0
  154.1728  141.3272  162.4584 H   0  0  0  0  0  0  0  0  0  0  0  0
  152.1354  143.1461  162.9290 H   0  0  0  0  0  0  0  0  0  0  0  0
  149.9171  143.2249  156.4446 H   0  0  0  0  0  0  0  0  0  0  0  0
  151.6363  141.2266  155.4342 H   0  0  0  0  0  0  0  0  0  0  0  0
  150.5679  140.6327  156.6905 H   0  0  0  0  0  0  0  0  0  0  0  0
  149.7644  142.1019  154.1304 H   0  0  0  0  0  0  0  0  0  0  0  0
  150.2100  139.6692  153.8038 H   0  0  0  0  0  0  0  0  0  0  0  0
  149.1715  139.2765  155.1559 H   0  0  0  0  0  0  0  0  0  0  0  0
  148.3141  140.5839  152.5322 H   0  0  0  0  0  0  0  0  0  0  0  0
  147.9002  138.9707  153.0709 H   0  0  0  0  0  0  0  0  0  0  0  0
  146.0402  140.6366  153.4738 H   0  0  0  0  0  0  0  0  0  0  0  0
  146.5864  139.8702  154.9489 H   0  0  0  0  0  0  0  0  0  0  0  0
  147.4205  142.6598  153.9749 H   0  0  0  0  0  0  0  0  0  0  0  0
  146.3800  142.2978  155.3382 H   0  0  0  0  0  0  0  0  0  0  0  0
  151.5423  143.2643  156.2350 H   0  0  0  0  0  0  0  0  0  0  0  0
  1  2  1  0  0  0  0
  1 17  1  0  0  0  0
  1 18  1  0  0  0  0
  1 19  1  0  0  0  0
  2  3  1  0  0  0  0
  2  9  1  0  0  0  0
  2 20  1  0  0  0  0
  3  4  1  0  0  0  0
  3 21  1  0  0  0  0
  3 22  1  0  0  0  0
  4  8  1  0  0  0  0
  4  5  1  0  0  0  0
  5  6  2  0  0  0  0
  5 23  1  0  0  0  0
  6  7  1  0  0  0  0
  6 24  1  0  0  0  0
  7  8  2  0  0  0  0
  7 25  1  0  0  0  0
  9 10  1  0  0  0  0
  9 26  1  0  0  0  0
  9 38  1  0  0  0  0
 10 11  1  0  0  0  0
 10 27  1  0  0  0  0
 10 28  1  0  0  0  0
 11 16  1  0  0  0  0
 11 12  1  0  0  0  0
 11 29  1  0  0  0  0
 12 13  1  0  0  0  0
 12 30  1  0  0  0  0
 12 31  1  0  0  0  0
 13 14  1  0  0  0  0
 13 32  1  0  0  0  0
 13 33  1  0  0  0  0
 14 15  1  0  0  0  0
 14 34  1  0  0  0  0
 14 35  1  0  0  0  0
 15 16  1  0  0  0  0
 15 36  1  0  0  0  0
 15 37  1  0  0  0  0
M  CHG  1   9   1
M  END
> <s_m_source_file>
AV-unprocessed.smi

> <i_m_source_file_index>
3165

> <i_lp_mmshare_version>
43012

> <i_f3d_flags>
0

> <s_epik_input>
bjFbY0hdW2NIXVtjSF1uMVtDSDJdW0NAQEhdKFtDSDNdKVtOSF1bQ0gyXVtDQEBIXTJbQ0gyXVtDSDJdW0NIMl1bQ0gyXU8y

> <s_epik_cmdline>
J2VwaWtfcHl0aG9uJywgJy1waCcsICc3LjAnLCAnLXRuJywgJzgnLCAnLW1hJywgJzIwMCcsICctbWV0YWxfYmluZGluZycsICctaW1hZScsICc8aW5maWxlLm1hZT4nLCAnLW9tYWUnLCAnPG91dGZpbGUubWFlPic=

> <r_lp_tautomer_probability>
1

> <r_epik_Ionization_Penalty>
0.00849196

> <r_epik_Ionization_Penalty_Charging>
0.00848754

> <r_epik_Ionization_Penalty_Neutral>
4.42049e-06

> <r_epik_State_Penalty>
0.00639836

> <r_epik_Charging_Adjusted_Penalty>
0.0148859

> <i_epik_Tot_Q>
1

> <i_epik_Tot_abs_Q>
1

> <r_epik_Metal_State_Penalty>
0.00639878

> <b_epik_Metal_Only>
0

> <s_lp_Force_Field>
OPLS_2005

> <r_lp_Energy>
13.1527

> <b_lp_Chiralities_Consistent>
1

> <s_lp_Variant>
AV-unprocessed.smi:3165-3

> <Gold.Version>
5.8.1

> <Gold.Id.Protein>
6NUR|6NUR_protein|mol2

> <Gold.PLP.Fitness>
42.0864

> <Gold.PLP.PLP>
-38.1681

> <Gold.PLP.part.hbond>
-1.0000

> <Gold.PLP.part.metal>
0.0000

> <Gold.PLP.part.buried>
-3.1225

> <Gold.PLP.part.nonpolar>
-35.3982

> <Gold.PLP.part.repulsive>
1.3982

> <Gold.PLP.ligand.clash>
0.0000

> <Gold.PLP.ligand.torsion>
1.0554

> <Gold.PLP.Chemscore.Hbond>
2.0000

> <Gold.PLP.Chemscore.CHOScore>
0.0000

> <Gold.PLP.Chemscore.Metal>
0.0000

> <Gold.Chemscore.Hbonds>
donor molecule, donor type, donor heavy atom, donor atom, acceptor molecule, acceptor atom, score
      L1  H     9    26       P1  8028  2.00

> <Gold.PLP.Chemscore.Internal.Correction>
0.0290

> <Gold.Rescore>
     Score         DG    S(hbond)    S(metal)    S(lipo)     H(rot)  DE(clash)    DE(int)     intcor
     13.54     -15.81       0.91        0.00      98.37       1.64       0.14       2.14       ----

> <Gold.Chemscore.Fitness>
13.5379

> <Gold.Chemscore.DG>
-15.8117

> <Gold.Chemscore.ZeroCoef>
-5.4800

> <Gold.Chemscore.Hbond>
0.9077

> <Gold.Chemscore.Metal>
0.0000

> <Gold.Chemscore.Lipo>
98.3739

> <Gold.Chemscore.Internal_Hbond>
0.0000

> <Gold.Chemscore.DEClash>
0.1381

> <Gold.Chemscore.DEInternal>
2.1358

> <Gold.Chemscore.Rot>
1.6444

> <Gold.Chemscore.Internal.Correction>
   9.000000E+99

> <Gold.Chemscore.Hbonds>
donor molecule, donor type, donor heavy atom, donor atom, acceptor molecule, acceptor atom, score
      L1  H     9    26       P1  8028  0.94

> <Gold.Chemscore.Hbond.Weighted>
-3.0317

> <Gold.Chemscore.Metal.Weighted>
-0.0000

> <Gold.Chemscore.Lipo.Weighted>
-11.5097

> <Gold.Chemscore.Internal_Hbond.Weighted>
0.0000

> <Gold.Chemscore.DEClash.Weighted>
0.1381

> <Gold.Chemscore.DEInternal.Weighted>
2.1358

> <Gold.Chemscore.Rot.Weighted>
4.2097

> <Gold.Chemscore.Internal.Correction.Weighted>
   9.000000E+99

> <Gold.Protein.RotatedTorsions>
[ 6907 6896 6895 6894 ] final  -98.69 input  -60.11 | X-H torsion
[ 7974 7965 7964 7962 ] final -105.59 input  175.53 | X-H torsion
[ 8008 7997 7996 7995 ] final -161.50 input   59.86 | X-H torsion
[ 10167 10162 10161 10158 ] final -117.37 input  -65.29 | X-H torsion
[ 10718 10713 10712 10709 ] final -113.23 input   66.30 | X-H torsion
[ 10763 10752 10751 10750 ] final   83.41 input  -60.55 | X-H torsion
[ 11005 11000 10999 10996 ] final    7.35 input  -57.11 | X-H torsion

> <Gold.Protein.ActiveResidues>
 VAL166  LYS551  ARG553  GLY616  TRP617  ASP618  TYR619  PRO620  LYS621  CYS622 
 ASP623  PHE694  ASN695  SER759  ASP760  ASP761  ALA762  ILE779  LEU786  VAL792 
 PHE793  MET794  SER795  GLU796  ALA797  LYS798  CYS799  TRP800  GLU811  SER814 

> <Gold.Protein.RotatedAtoms>
  150.7055  134.1155  159.4015 H   0  0  0  0  0  0  0  0  0  0  0  0  # atno 6907 bound_to 6896
  151.9141  135.0324  160.0526 H   0  0  0  0  0  0  0  0  0  0  0  0  # atno 6908 bound_to 6896
  152.2311  133.5023  159.5253 H   0  0  0  0  0  0  0  0  0  0  0  0  # atno 6909 bound_to 6896
  145.2285  140.9161  143.3218 H   0  0  0  0  0  0  0  0  0  0  0  0  # atno 7974 bound_to 7965
  155.7931  140.0881  157.1998 H   0  0  0  0  0  0  0  0  0  0  0  0  # atno 8008 bound_to 7997
  154.3984  140.1486  156.3244 H   0  0  0  0  0  0  0  0  0  0  0  0  # atno 8009 bound_to 7997
  155.8539  140.3433  155.5714 H   0  0  0  0  0  0  0  0  0  0  0  0  # atno 8010 bound_to 7997
  140.0691  143.4894  152.1990 H   0  0  0  0  0  0  0  0  0  0  0  0  # atno 10167 bound_to 10162
  156.0754  130.5962  150.8615 H   0  0  0  0  0  0  0  0  0  0  0  0  # atno 10718 bound_to 10713
  153.1288  135.4692  154.9316 H   0  0  0  0  0  0  0  0  0  0  0  0  # atno 10763 bound_to 10752
  154.7645  135.3141  154.8315 H   0  0  0  0  0  0  0  0  0  0  0  0  # atno 10764 bound_to 10752
  153.8862  135.6889  153.4817 H   0  0  0  0  0  0  0  0  0  0  0  0  # atno 10765 bound_to 10752
  140.5492  134.0299  155.7931 H   0  0  0  0  0  0  0  0  0  0  0  0  # atno 11005 bound_to 11000
  144.9699  139.3891  143.6314 LP  0  0  0  0  0  0  0  0  0  0  0  0  # atno 17320 bound_to 7965
  146.3359  139.8791  142.8827 LP  0  0  0  0  0  0  0  0  0  0  0  0  # atno 17321 bound_to 7965
  139.5847  144.7526  151.3551 LP  0  0  0  0  0  0  0  0  0  0  0  0  # atno 17342 bound_to 10162
  140.7134  143.7330  150.7610 LP  0  0  0  0  0  0  0  0  0  0  0  0  # atno 17343 bound_to 10162
  157.5847  131.0946  150.9216 LP  0  0  0  0  0  0  0  0  0  0  0  0  # atno 17370 bound_to 10713
  156.9404  130.5382  149.5280 LP  0  0  0  0  0  0  0  0  0  0  0  0  # atno 17371 bound_to 10713
  141.1181  133.9506  157.2782 LP  0  0  0  0  0  0  0  0  0  0  0  0  # atno 17394 bound_to 11000
  139.9464  135.0183  156.8863 LP  0  0  0  0  0  0  0  0  0  0  0  0  # atno 17395 bound_to 11000

$$$$
