AV-unprocessed.smi:2281|AV-procd|sdf|9193|dock2
  -GOLD-   2272012413D 1   1.00000     0.00000
 Structure written by MMmdl.
 40 41  0  0  0  0  0  0  0  0  1 V2000
  147.2525  141.9884  154.0762 C   0  0  0  0  0  0  0  0  0  0  0  0
  148.4967  141.3276  154.6427 C   0  0  0  0  0  0  0  0  0  0  0  0
  149.2998  142.1408  155.4466 N   0  0  0  0  0  0  0  0  0  0  0  0
  150.3854  141.6657  155.9632 C   0  0  0  0  0  0  0  0  0  0  0  0
  150.7974  140.3419  155.7348 N   0  0  0  0  0  0  0  0  0  0  0  0
  152.0528  139.9305  156.3964 C   0  0  0  0  0  0  0  0  0  0  0  0
  151.9028  139.4612  157.8768 C   0  0  1  0  0  0  0  0  0  0  0  0
  150.4806  139.0036  158.2700 C   0  0  0  0  0  0  0  0  0  0  0  0
  152.7118  138.3052  158.0107 O   0  0  0  0  0  0  0  0  0  0  0  0
  152.3710  140.5863  158.8123 C   0  0  0  0  0  0  0  0  0  0  0  0
  153.3640  140.3729  159.7990 C   0  0  0  0  0  0  0  0  0  0  0  0
  153.7777  141.4249  160.6376 C   0  0  0  0  0  0  0  0  0  0  0  0
  153.2068  142.7034  160.5026 C   0  0  0  0  0  0  0  0  0  0  0  0
  152.2146  142.9374  159.5285 C   0  0  0  0  0  0  0  0  0  0  0  0
  151.6087  144.3249  159.3756 C   0  0  0  0  0  0  0  0  0  0  0  0
  151.8534  145.0811  160.4463 F   0  0  0  0  0  0  0  0  0  0  0  0
  152.1134  144.9415  158.3063 F   0  0  0  0  0  0  0  0  0  0  0  0
  150.2898  144.2119  159.2234 F   0  0  0  0  0  0  0  0  0  0  0  0
  151.8086  141.8786  158.6874 C   0  0  0  0  0  0  0  0  0  0  0  0
  150.0559  139.4735  154.9849 C   0  0  0  0  0  0  0  0  0  0  0  0
  150.4058  138.3048  154.8102 O   0  0  0  0  0  0  0  0  0  0  0  0
  148.8266  140.0305  154.3974 C   0  0  0  0  0  0  0  0  0  0  0  0
  147.9921  139.0983  153.5277 C   0  0  0  0  0  0  0  0  0  0  0  0
  147.2669  141.9596  152.9863 H   0  0  0  0  0  0  0  0  0  0  0  0
  147.1830  143.0331  154.3815 H   0  0  0  0  0  0  0  0  0  0  0  0
  146.3557  141.4775  154.4273 H   0  0  0  0  0  0  0  0  0  0  0  0
  151.0440  142.2575  156.6013 H   0  0  0  0  0  0  0  0  0  0  0  0
  152.5619  139.1591  155.8141 H   0  0  0  0  0  0  0  0  0  0  0  0
  152.7469  140.7710  156.3527 H   0  0  0  0  0  0  0  0  0  0  0  0
  149.7440  139.7950  158.1347 H   0  0  0  0  0  0  0  0  0  0  0  0
  150.4436  138.7017  159.3174 H   0  0  0  0  0  0  0  0  0  0  0  0
  150.1497  138.1478  157.6808 H   0  0  0  0  0  0  0  0  0  0  0  0
  152.4871  137.6990  157.3218 H   0  0  0  0  0  0  0  0  0  0  0  0
  153.8262  139.4059  159.9286 H   0  0  0  0  0  0  0  0  0  0  0  0
  154.5373  141.2507  161.3854 H   0  0  0  0  0  0  0  0  0  0  0  0
  153.5364  143.5046  161.1475 H   0  0  0  0  0  0  0  0  0  0  0  0
  151.0604  142.0622  157.9306 H   0  0  0  0  0  0  0  0  0  0  0  0
  148.5723  138.7723  152.6638 H   0  0  0  0  0  0  0  0  0  0  0  0
  147.0791  139.5603  153.1556 H   0  0  0  0  0  0  0  0  0  0  0  0
  147.7024  138.2129  154.0944 H   0  0  0  0  0  0  0  0  0  0  0  0
  1  2  1  0  0  0  0
  1 24  1  0  0  0  0
  1 25  1  0  0  0  0
  1 26  1  0  0  0  0
  2 22  2  0  0  0  0
  2  3  1  0  0  0  0
  3  4  2  0  0  0  0
  4  5  1  0  0  0  0
  4 27  1  0  0  0  0
  5  6  1  0  0  0  0
  5 20  1  0  0  0  0
  6  7  1  0  0  0  0
  6 28  1  0  0  0  0
  6 29  1  0  0  0  0
  7  8  1  0  0  0  0
  7  9  1  0  0  0  0
  7 10  1  0  0  0  0
  8 30  1  0  0  0  0
  8 31  1  0  0  0  0
  8 32  1  0  0  0  0
  9 33  1  0  0  0  0
 10 19  1  0  0  0  0
 10 11  2  0  0  0  0
 11 12  1  0  0  0  0
 11 34  1  0  0  0  0
 12 13  2  0  0  0  0
 12 35  1  0  0  0  0
 13 14  1  0  0  0  0
 13 36  1  0  0  0  0
 14 15  1  0  0  0  0
 14 19  2  0  0  0  0
 15 16  1  0  0  0  0
 15 17  1  0  0  0  0
 15 18  1  0  0  0  0
 19 37  1  0  0  0  0
 20 21  2  0  0  0  0
 20 22  1  0  0  0  0
 22 23  1  0  0  0  0
 23 38  1  0  0  0  0
 23 39  1  0  0  0  0
 23 40  1  0  0  0  0
M  END
> <s_m_source_file>
AV-unprocessed.smi

> <i_m_source_file_index>
2281

> <i_lp_mmshare_version>
43012

> <i_f3d_flags>
0

> <s_epik_input>
W0NIM11jMW5bY0hdbihjKD1PKWMxW0NIM10pW0NIMl1bQ0BAXShbQ0gzXSkoW09IXSljMltjSF1bY0hdW2NIXWMoQyhGKShGKUYpW2NIXTI=

> <s_epik_cmdline>
J2VwaWtfcHl0aG9uJywgJy1waCcsICc3LjAnLCAnLXRuJywgJzgnLCAnLW1hJywgJzIwMCcsICctbWV0YWxfYmluZGluZycsICctaW1hZScsICc8aW5maWxlLm1hZT4nLCAnLW9tYWUnLCAnPG91dGZpbGUubWFlPic=

> <r_lp_tautomer_probability>
1

> <r_epik_Ionization_Penalty>
5.68222e-05

> <r_epik_Ionization_Penalty_Charging>
9.07816e-08

> <r_epik_Ionization_Penalty_Neutral>
5.67314e-05

> <r_epik_State_Penalty>
-0

> <r_epik_Charging_Adjusted_Penalty>
9.07816e-08

> <i_epik_Tot_Q>
0

> <i_epik_Tot_abs_Q>
0

> <r_epik_Metal_State_Penalty>
-0

> <b_epik_Metal_Only>
0

> <s_lp_Force_Field>
OPLS_2005

> <r_lp_Energy>
23.727

> <b_lp_Chiralities_Consistent>
1

> <s_lp_Variant>
AV-unprocessed.smi:2281-1

> <Gold.Version>
5.8.1

> <Gold.Id.Protein>
6NUR|6NUR_protein|mol2

> <Gold.PLP.Fitness>
49.0712

> <Gold.PLP.PLP>
-52.6767

> <Gold.PLP.part.hbond>
0.0000

> <Gold.PLP.part.metal>
0.0000

> <Gold.PLP.part.buried>
-6.3963

> <Gold.PLP.part.nonpolar>
-49.8790

> <Gold.PLP.part.repulsive>
3.3068

> <Gold.PLP.ligand.clash>
0.4901

> <Gold.PLP.ligand.torsion>
2.1093

> <Gold.PLP.Chemscore.Hbond>
0.0000

> <Gold.PLP.Chemscore.CHOScore>
0.0000

> <Gold.PLP.Chemscore.Metal>
0.0000

> <Gold.PLP.Chemscore.Internal.Correction>
1.1032

> <Gold.Rescore>
     Score         DG    S(hbond)    S(metal)    S(lipo)     H(rot)  DE(clash)    DE(int)     intcor
     10.58     -12.79       0.00        0.00     108.13       2.09       0.70       1.51       ----

> <Gold.Chemscore.Fitness>
10.5811

> <Gold.Chemscore.DG>
-12.7908

> <Gold.Chemscore.ZeroCoef>
-5.4800

> <Gold.Chemscore.Hbond>
0.0000

> <Gold.Chemscore.Metal>
0.0000

> <Gold.Chemscore.Lipo>
108.1285

> <Gold.Chemscore.Internal_Hbond>
0.0000

> <Gold.Chemscore.DEClash>
0.7010

> <Gold.Chemscore.DEInternal>
1.5087

> <Gold.Chemscore.Rot>
2.0860

> <Gold.Chemscore.Internal.Correction>
   9.000000E+99

> <Gold.Chemscore.Hbond.Weighted>
-0.0000

> <Gold.Chemscore.Metal.Weighted>
-0.0000

> <Gold.Chemscore.Lipo.Weighted>
-12.6510

> <Gold.Chemscore.Internal_Hbond.Weighted>
0.0000

> <Gold.Chemscore.DEClash.Weighted>
0.7010

> <Gold.Chemscore.DEInternal.Weighted>
1.5087

> <Gold.Chemscore.Rot.Weighted>
5.3402

> <Gold.Chemscore.Internal.Correction.Weighted>
   9.000000E+99

> <Gold.Protein.RotatedTorsions>
[ 6907 6896 6895 6894 ] final -139.22 input  -60.11 | X-H torsion
[ 7974 7965 7964 7962 ] final -160.42 input  175.53 | X-H torsion
[ 8008 7997 7996 7995 ] final  166.98 input   59.86 | X-H torsion
[ 10167 10162 10161 10158 ] final  -80.13 input  -65.29 | X-H torsion
[ 10718 10713 10712 10709 ] final  118.07 input   66.30 | X-H torsion
[ 10763 10752 10751 10750 ] final  127.93 input  -60.55 | X-H torsion
[ 11005 11000 10999 10996 ] final  159.14 input  -57.11 | X-H torsion

> <Gold.Protein.ActiveResidues>
 VAL166  LYS551  ARG553  GLY616  TRP617  ASP618  TYR619  PRO620  LYS621  CYS622 
 ASP623  PHE694  ASN695  SER759  ASP760  ASP761  ALA762  ILE779  LEU786  VAL792 
 PHE793  MET794  SER795  GLU796  ALA797  LYS798  CYS799  TRP800  GLU811  SER814 

> <Gold.Protein.RotatedAtoms>
  151.0450  133.5673  159.2647 H   0  0  0  0  0  0  0  0  0  0  0  0  # atno 6907 bound_to 6896
  151.2705  135.0682  159.9142 H   0  0  0  0  0  0  0  0  0  0  0  0  # atno 6908 bound_to 6896
  152.5371  134.0181  159.8023 H   0  0  0  0  0  0  0  0  0  0  0  0  # atno 6909 bound_to 6896
  144.7428  140.3544  143.6109 H   0  0  0  0  0  0  0  0  0  0  0  0  # atno 7974 bound_to 7965
  156.1672  140.1629  156.8510 H   0  0  0  0  0  0  0  0  0  0  0  0  # atno 8008 bound_to 7997
  154.5220  140.0776  156.8224 H   0  0  0  0  0  0  0  0  0  0  0  0  # atno 8009 bound_to 7997
  155.3586  140.3394  155.4242 H   0  0  0  0  0  0  0  0  0  0  0  0  # atno 8010 bound_to 7997
  140.4531  143.2477  151.8460 H   0  0  0  0  0  0  0  0  0  0  0  0  # atno 10167 bound_to 10162
  157.6055  131.1044  150.7704 H   0  0  0  0  0  0  0  0  0  0  0  0  # atno 10718 bound_to 10713
  153.7173  135.3259  155.3259 H   0  0  0  0  0  0  0  0  0  0  0  0  # atno 10763 bound_to 10752
  154.8366  135.4491  154.1253 H   0  0  0  0  0  0  0  0  0  0  0  0  # atno 10764 bound_to 10752
  153.2363  135.6966  153.7912 H   0  0  0  0  0  0  0  0  0  0  0  0  # atno 10765 bound_to 10752
  140.1933  134.8391  157.2937 H   0  0  0  0  0  0  0  0  0  0  0  0  # atno 11005 bound_to 11000
  145.7242  139.1718  143.2467 LP  0  0  0  0  0  0  0  0  0  0  0  0  # atno 17320 bound_to 7965
  146.1254  140.7255  142.9437 LP  0  0  0  0  0  0  0  0  0  0  0  0  # atno 17321 bound_to 7965
  139.4798  144.5097  151.8950 LP  0  0  0  0  0  0  0  0  0  0  0  0  # atno 17342 bound_to 10162
  140.4183  144.2277  150.5887 LP  0  0  0  0  0  0  0  0  0  0  0  0  # atno 17343 bound_to 10162
  156.8093  130.4947  149.5358 LP  0  0  0  0  0  0  0  0  0  0  0  0  # atno 17370 bound_to 10713
  156.1140  130.6061  151.0091 LP  0  0  0  0  0  0  0  0  0  0  0  0  # atno 17371 bound_to 10713
  140.2135  134.4110  155.7601 LP  0  0  0  0  0  0  0  0  0  0  0  0  # atno 17394 bound_to 11000
  141.2226  133.7130  156.8376 LP  0  0  0  0  0  0  0  0  0  0  0  0  # atno 17395 bound_to 11000

$$$$
