AV-unprocessed.smi:1106|AV-procd|sdf|4779|dock9
  -GOLD-   22720 3323D 1   1.00000     0.00000
 Structure written by MMmdl.
 48 49  0  0  0  0  0  0  0  0  2 V2000
  153.7343  129.2585  154.4764 C   0  0  0  0  0  0  0  0  0  0  0  0
  152.7551  129.5682  155.6187 C   0  0  0  0  0  0  0  0  0  0  0  0
  151.4529  129.9667  155.1507 N   0  0  0  0  0  0  0  0  0  0  0  0
  150.6941  129.1511  154.3340 C   0  0  0  0  0  0  0  0  0  0  0  0
  149.4724  129.5030  153.8785 C   0  0  0  0  0  0  0  0  0  0  0  0
  148.7069  128.6410  153.0397 C   0  0  0  0  0  0  0  0  0  0  0  0
  148.0913  127.9540  152.3410 N   0  0  0  0  0  0  0  0  0  0  0  0
  148.8778  130.7909  154.2284 C   0  0  0  0  0  0  0  0  0  0  0  0
  147.7599  131.1518  153.8551 O   0  0  0  0  0  0  0  0  0  0  0  0
  149.6897  131.6108  155.0521 N   0  0  0  0  0  0  0  0  0  0  0  0
  149.1562  132.9116  155.4306 C   0  0  0  0  0  0  0  0  0  0  0  0
  148.9539  133.8810  154.2444 C   0  0  2  0  0  0  0  0  0  0  0  0
  149.8752  134.9406  154.4029 O   0  0  0  0  0  0  0  0  0  0  0  0
  147.5319  134.4764  154.1666 C   0  0  0  0  0  0  0  0  0  0  0  0
  147.0117  134.5259  152.7765 N   0  3  2  0  0  0  0  0  0  0  0  0
  145.7400  135.2869  152.6779 C   0  0  0  0  0  0  0  0  0  0  0  0
  145.2965  135.4447  151.2123 C   0  0  0  0  0  0  0  0  0  0  0  0
  145.1736  134.0904  150.4906 C   0  0  2  0  0  0  0  0  0  0  0  0
  143.9297  133.2947  150.9238 C   0  0  0  0  0  0  0  0  0  0  0  0
  146.4801  133.2961  150.6687 C   0  0  0  0  0  0  0  0  0  0  0  0
  146.8971  133.1837  152.1460 C   0  0  0  0  0  0  0  0  0  0  0  0
  150.9677  131.2383  155.5368 C   0  0  0  0  0  0  0  0  0  0  0  0
  151.6272  131.9791  156.2711 O   0  0  0  0  0  0  0  0  0  0  0  0
  154.6935  128.9242  154.8718 H   0  0  0  0  0  0  0  0  0  0  0  0
  153.9214  130.1359  153.8569 H   0  0  0  0  0  0  0  0  0  0  0  0
  153.3486  128.4687  153.8311 H   0  0  0  0  0  0  0  0  0  0  0  0
  152.5939  128.6838  156.2368 H   0  0  0  0  0  0  0  0  0  0  0  0
  153.1208  130.3520  156.2846 H   0  0  0  0  0  0  0  0  0  0  0  0
  151.0936  128.1888  154.0468 H   0  0  0  0  0  0  0  0  0  0  0  0
  148.2317  132.7641  155.9906 H   0  0  0  0  0  0  0  0  0  0  0  0
  149.8519  133.3255  156.1635 H   0  0  0  0  0  0  0  0  0  0  0  0
  149.2052  133.3662  153.3183 H   0  0  0  0  0  0  0  0  0  0  0  0
  150.7513  134.5885  154.3479 H   0  0  0  0  0  0  0  0  0  0  0  0
  146.8328  133.9047  154.7772 H   0  0  0  0  0  0  0  0  0  0  0  0
  147.5562  135.4804  154.5935 H   0  0  0  0  0  0  0  0  0  0  0  0
  144.9664  134.7867  153.2623 H   0  0  0  0  0  0  0  0  0  0  0  0
  145.8716  136.2776  153.1148 H   0  0  0  0  0  0  0  0  0  0  0  0
  144.3515  135.9867  151.1631 H   0  0  0  0  0  0  0  0  0  0  0  0
  146.0263  136.0633  150.6882 H   0  0  0  0  0  0  0  0  0  0  0  0
  145.0535  134.2934  149.4253 H   0  0  0  0  0  0  0  0  0  0  0  0
  143.9511  133.0405  151.9831 H   0  0  0  0  0  0  0  0  0  0  0  0
  143.8485  132.3630  150.3635 H   0  0  0  0  0  0  0  0  0  0  0  0
  143.0184  133.8647  150.7409 H   0  0  0  0  0  0  0  0  0  0  0  0
  146.3803  132.3022  150.2310 H   0  0  0  0  0  0  0  0  0  0  0  0
  147.2780  133.7913  150.1134 H   0  0  0  0  0  0  0  0  0  0  0  0
  147.8490  132.6570  152.2006 H   0  0  0  0  0  0  0  0  0  0  0  0
  146.1774  132.5789  152.6991 H   0  0  0  0  0  0  0  0  0  0  0  0
  147.6921  135.0483  152.2427 H   0  0  0  0  0  0  0  0  0  0  0  0
  1  2  1  0  0  0  0
  1 24  1  0  0  0  0
  1 25  1  0  0  0  0
  1 26  1  0  0  0  0
  2  3  1  0  0  0  0
  2 27  1  0  0  0  0
  2 28  1  0  0  0  0
  3 22  1  0  0  0  0
  3  4  1  0  0  0  0
  4  5  2  0  0  0  0
  4 29  1  0  0  0  0
  5  6  1  0  0  0  0
  5  8  1  0  0  0  0
  6  7  3  0  0  0  0
  8  9  2  0  0  0  0
  8 10  1  0  0  0  0
 10 11  1  0  0  0  0
 10 22  1  0  0  0  0
 11 12  1  0  0  0  0
 11 30  1  0  0  0  0
 11 31  1  0  0  0  0
 12 13  1  0  0  0  0
 12 14  1  0  0  0  0
 12 32  1  0  0  0  0
 13 33  1  0  0  0  0
 14 15  1  0  0  0  0
 14 34  1  0  0  0  0
 14 35  1  0  0  0  0
 15 21  1  0  0  0  0
 15 16  1  0  0  0  0
 15 48  1  0  0  0  0
 16 17  1  0  0  0  0
 16 36  1  0  0  0  0
 16 37  1  0  0  0  0
 17 18  1  0  0  0  0
 17 38  1  0  0  0  0
 17 39  1  0  0  0  0
 18 19  1  0  0  0  0
 18 20  1  0  0  0  0
 18 40  1  0  0  0  0
 19 41  1  0  0  0  0
 19 42  1  0  0  0  0
 19 43  1  0  0  0  0
 20 21  1  0  0  0  0
 20 44  1  0  0  0  0
 20 45  1  0  0  0  0
 21 46  1  0  0  0  0
 21 47  1  0  0  0  0
 22 23  2  0  0  0  0
M  CHG  1  15   1
M  END
> <s_m_source_file>
AV-unprocessed.smi

> <i_m_source_file_index>
1106

> <i_lp_mmshare_version>
43012

> <i_f3d_flags>
0

> <s_epik_input>
W0NIM11bQ0gyXW4xW2NIXWMoQyNOKWMoPU8pbihjMT1PKVtDSDJdW0NASF0oW09IXSlbQ0gyXU4yW0NIMl1bQ0gyXVtDSF0oW0NIM10pW0NIMl1bQ0gyXTI=

> <s_epik_cmdline>
J2VwaWtfcHl0aG9uJywgJy1waCcsICc3LjAnLCAnLXRuJywgJzgnLCAnLW1hJywgJzIwMCcsICctbWV0YWxfYmluZGluZycsICctaW1hZScsICc8aW5maWxlLm1hZT4nLCAnLW9tYWUnLCAnPG91dGZpbGUubWFlPic=

> <r_epik_Ionization_Penalty>
0.00136816

> <r_epik_Ionization_Penalty_Charging>
0.00136813

> <r_epik_Ionization_Penalty_Neutral>
3.19882e-08

> <r_epik_State_Penalty>
0.000910892

> <r_epik_Charging_Adjusted_Penalty>
0.00227902

> <i_epik_Tot_Q>
1

> <i_epik_Tot_abs_Q>
1

> <r_epik_Metal_State_Penalty>
-0

> <b_epik_Metal_Only>
0

> <s_lp_Force_Field>
OPLS_2005

> <r_lp_Energy>
29.5745

> <b_lp_Chiralities_Consistent>
1

> <s_lp_Variant>
AV-unprocessed.smi:1106-3

> <Gold.Version>
5.8.1

> <Gold.Id.Protein>
6NUR|6NUR_protein|mol2

> <Gold.PLP.Fitness>
46.7458

> <Gold.PLP.PLP>
-40.7299

> <Gold.PLP.part.hbond>
-2.0538

> <Gold.PLP.part.metal>
0.0000

> <Gold.PLP.part.buried>
-3.2506

> <Gold.PLP.part.nonpolar>
-34.5751

> <Gold.PLP.part.repulsive>
0.2049

> <Gold.PLP.ligand.clash>
0.0000

> <Gold.PLP.ligand.torsion>
1.3598

> <Gold.PLP.Chemscore.Hbond>
2.0000

> <Gold.PLP.Chemscore.CHOScore>
0.8949

> <Gold.PLP.Chemscore.Metal>
0.0000

> <Gold.Chemscore.Hbonds>
donor molecule, donor type, donor heavy atom, donor atom, acceptor molecule, acceptor atom, score
      L1  H    15    48       P1  7948  2.00
      L1  C     4    29       P1 10737  0.82

> <Gold.PLP.Chemscore.Internal.Correction>
0.0506

> <Gold.Rescore>
     Score         DG    S(hbond)    S(metal)    S(lipo)     H(rot)  DE(clash)    DE(int)     intcor
      9.39     -10.74       0.98        0.00      71.42       2.48       0.00       1.35       ----

> <Gold.Chemscore.Fitness>
9.3911

> <Gold.Chemscore.DG>
-10.7420

> <Gold.Chemscore.ZeroCoef>
-5.4800

> <Gold.Chemscore.Hbond>
0.9774

> <Gold.Chemscore.Metal>
0.0000

> <Gold.Chemscore.Lipo>
71.4179

> <Gold.Chemscore.Internal_Hbond>
0.0000

> <Gold.Chemscore.DEClash>
0.0029

> <Gold.Chemscore.DEInternal>
1.3480

> <Gold.Chemscore.Rot>
2.4838

> <Gold.Chemscore.Internal.Correction>
   9.000000E+99

> <Gold.Chemscore.Hbonds>
donor molecule, donor type, donor heavy atom, donor atom, acceptor molecule, acceptor atom, score
      L1  H    15    48       P1  7948  0.94

> <Gold.Chemscore.Hbond.Weighted>
-3.2646

> <Gold.Chemscore.Metal.Weighted>
-0.0000

> <Gold.Chemscore.Lipo.Weighted>
-8.3559

> <Gold.Chemscore.Internal_Hbond.Weighted>
0.0000

> <Gold.Chemscore.DEClash.Weighted>
0.0029

> <Gold.Chemscore.DEInternal.Weighted>
1.3480

> <Gold.Chemscore.Rot.Weighted>
6.3585

> <Gold.Chemscore.Internal.Correction.Weighted>
   9.000000E+99

> <Gold.Protein.RotatedTorsions>
[ 6907 6896 6895 6894 ] final  -93.43 input  -60.11 | X-H torsion
[ 7974 7965 7964 7962 ] final  104.24 input  175.53 | X-H torsion
[ 8008 7997 7996 7995 ] final  133.47 input   59.86 | X-H torsion
[ 10167 10162 10161 10158 ] final  -19.90 input  -65.29 | X-H torsion
[ 10718 10713 10712 10709 ] final    1.93 input   66.30 | X-H torsion
[ 10763 10752 10751 10750 ] final -156.98 input  -60.55 | X-H torsion
[ 11005 11000 10999 10996 ] final  -54.41 input  -57.11 | X-H torsion

> <Gold.Protein.ActiveResidues>
 VAL166  LYS551  ARG553  GLY616  TRP617  ASP618  TYR619  PRO620  LYS621  CYS622 
 ASP623  PHE694  ASN695  SER759  ASP760  ASP761  ALA762  ILE779  LEU786  VAL792 
 PHE793  MET794  SER795  GLU796  ALA797  LYS798  CYS799  TRP800  GLU811  SER814 

> <Gold.Protein.RotatedAtoms>
  150.6922  134.1968  159.4306 H   0  0  0  0  0  0  0  0  0  0  0  0  # atno 6907 bound_to 6896
  151.9936  134.9964  160.0572 H   0  0  0  0  0  0  0  0  0  0  0  0  # atno 6908 bound_to 6896
  152.1644  133.4568  159.4914 H   0  0  0  0  0  0  0  0  0  0  0  0  # atno 6909 bound_to 6896
  145.3354  139.2476  143.3638 H   0  0  0  0  0  0  0  0  0  0  0  0  # atno 7974 bound_to 7965
  156.2992  140.2520  156.3258 H   0  0  0  0  0  0  0  0  0  0  0  0  # atno 8008 bound_to 7997
  154.9191  140.0401  157.2007 H   0  0  0  0  0  0  0  0  0  0  0  0  # atno 8009 bound_to 7997
  154.8328  140.2878  155.5715 H   0  0  0  0  0  0  0  0  0  0  0  0  # atno 8010 bound_to 7997
  140.7272  143.4774  151.0163 H   0  0  0  0  0  0  0  0  0  0  0  0  # atno 10167 bound_to 10162
  156.8555  130.5568  149.5666 H   0  0  0  0  0  0  0  0  0  0  0  0  # atno 10718 bound_to 10713
  154.7672  135.3134  154.8263 H   0  0  0  0  0  0  0  0  0  0  0  0  # atno 10763 bound_to 10752
  153.9008  135.6816  153.4759 H   0  0  0  0  0  0  0  0  0  0  0  0  # atno 10764 bound_to 10752
  153.1279  135.4793  154.9236 H   0  0  0  0  0  0  0  0  0  0  0  0  # atno 10765 bound_to 10752
  141.1024  133.6616  156.4316 H   0  0  0  0  0  0  0  0  0  0  0  0  # atno 11005 bound_to 11000
  146.3029  140.3941  142.8697 LP  0  0  0  0  0  0  0  0  0  0  0  0  # atno 17320 bound_to 7965
  144.8831  140.7427  143.5974 LP  0  0  0  0  0  0  0  0  0  0  0  0  # atno 17321 bound_to 7965
  139.8471  143.7487  152.3179 LP  0  0  0  0  0  0  0  0  0  0  0  0  # atno 17342 bound_to 10162
  139.7656  144.7493  151.0299 LP  0  0  0  0  0  0  0  0  0  0  0  0  # atno 17343 bound_to 10162
  156.0805  130.5816  150.9553 LP  0  0  0  0  0  0  0  0  0  0  0  0  # atno 17370 bound_to 10713
  157.6279  131.0924  150.8498 LP  0  0  0  0  0  0  0  0  0  0  0  0  # atno 17371 bound_to 10713
  140.4988  134.6505  157.5240 LP  0  0  0  0  0  0  0  0  0  0  0  0  # atno 17394 bound_to 11000
  139.9881  134.7029  155.9738 LP  0  0  0  0  0  0  0  0  0  0  0  0  # atno 17395 bound_to 11000

$$$$
