AV-unprocessed.smi:525|AV-procd|sdf|2807|dock2
  -GOLD-   2262023283D 1   1.00000     0.00000
 Structure written by MMmdl.
 43 45  0  0  0  0  0  0  0  0  1 V2000
  150.1863  134.7256  155.8039 C   0  0  0  0  0  0  0  0  0  0  0  0
  151.0758  135.7890  155.5104 O   0  0  0  0  0  0  0  0  0  0  0  0
  150.3942  136.9814  155.1631 C   0  0  0  0  0  0  0  0  0  0  0  0
  149.3777  137.3186  156.2603 C   0  0  0  0  0  0  0  0  0  0  0  0
  149.1086  138.7468  156.3188 N   0  0  0  0  0  0  0  0  0  0  0  0
  149.3326  139.5948  157.3517 C   0  0  0  0  0  0  0  0  0  0  0  0
  150.0379  139.0496  158.8714 S   0  0  0  0  0  0  0  0  0  0  0  0
  151.7656  139.5602  158.5796 C   0  0  2  0  0  0  0  0  0  0  0  0
  152.7757  138.6387  159.2828 C   0  0  0  0  0  0  0  0  0  0  0  0
  152.2684  137.7024  160.0894 N   0  0  0  0  0  0  0  0  0  0  0  0
  153.9877  138.7444  159.0986 O   0  0  0  0  0  0  0  0  0  0  0  0
  151.9405  141.0271  158.9694 C   0  0  0  0  0  0  0  0  0  0  0  0
  151.2849  142.0557  158.2537 C   0  0  0  0  0  0  0  0  0  0  0  0
  151.4731  143.4044  158.6118 C   0  0  0  0  0  0  0  0  0  0  0  0
  152.3164  143.7364  159.6889 C   0  0  0  0  0  0  0  0  0  0  0  0
  152.9712  142.7184  160.4075 C   0  0  0  0  0  0  0  0  0  0  0  0
  152.7835  141.3692  160.0497 C   0  0  0  0  0  0  0  0  0  0  0  0
  148.9900  140.8662  157.1423 N   0  0  0  0  0  0  0  0  0  0  0  0
  148.4888  140.8379  155.8555 C   0  0  0  0  0  0  0  0  0  0  0  0
  147.9572  141.8735  155.0538 C   0  0  0  0  0  0  0  0  0  0  0  0
  147.4964  141.6005  153.7491 C   0  0  0  0  0  0  0  0  0  0  0  0
  147.5592  140.2915  153.2289 C   0  0  0  0  0  0  0  0  0  0  0  0
  148.0858  139.2455  154.0107 C   0  0  0  0  0  0  0  0  0  0  0  0
  148.5463  139.5235  155.3115 C   0  0  0  0  0  0  0  0  0  0  0  0
  150.7546  133.8307  156.0569 H   0  0  0  0  0  0  0  0  0  0  0  0
  149.5539  134.4921  154.9464 H   0  0  0  0  0  0  0  0  0  0  0  0
  149.5477  134.9691  156.6537 H   0  0  0  0  0  0  0  0  0  0  0  0
  151.1069  137.7991  155.0437 H   0  0  0  0  0  0  0  0  0  0  0  0
  149.8840  136.8483  154.2099 H   0  0  0  0  0  0  0  0  0  0  0  0
  148.4425  136.7834  156.0951 H   0  0  0  0  0  0  0  0  0  0  0  0
  149.7508  136.9914  157.2312 H   0  0  0  0  0  0  0  0  0  0  0  0
  151.9733  139.4771  157.5123 H   0  0  0  0  0  0  0  0  0  0  0  0
  152.8862  137.0670  160.5742 H   0  0  0  0  0  0  0  0  0  0  0  0
  151.2684  137.6312  160.2085 H   0  0  0  0  0  0  0  0  0  0  0  0
  150.6343  141.8133  157.4262 H   0  0  0  0  0  0  0  0  0  0  0  0
  150.9696  144.1842  158.0596 H   0  0  0  0  0  0  0  0  0  0  0  0
  152.4606  144.7711  159.9630 H   0  0  0  0  0  0  0  0  0  0  0  0
  153.6191  142.9722  161.2335 H   0  0  0  0  0  0  0  0  0  0  0  0
  153.2945  140.5981  160.6075 H   0  0  0  0  0  0  0  0  0  0  0  0
  147.9037  142.8794  155.4433 H   0  0  0  0  0  0  0  0  0  0  0  0
  147.0924  142.3993  153.1445 H   0  0  0  0  0  0  0  0  0  0  0  0
  147.2033  140.0907  152.2290 H   0  0  0  0  0  0  0  0  0  0  0  0
  148.1348  138.2420  153.6148 H   0  0  0  0  0  0  0  0  0  0  0  0
  1  2  1  0  0  0  0
  1 25  1  0  0  0  0
  1 26  1  0  0  0  0
  1 27  1  0  0  0  0
  2  3  1  0  0  0  0
  3  4  1  0  0  0  0
  3 28  1  0  0  0  0
  3 29  1  0  0  0  0
  4  5  1  0  0  0  0
  4 30  1  0  0  0  0
  4 31  1  0  0  0  0
  5 24  1  0  0  0  0
  5  6  1  0  0  0  0
  6  7  1  0  0  0  0
  6 18  2  0  0  0  0
  7  8  1  0  0  0  0
  8  9  1  0  0  0  0
  8 12  1  0  0  0  0
  8 32  1  0  0  0  0
  9 10  1  0  0  0  0
  9 11  2  0  0  0  0
 10 33  1  0  0  0  0
 10 34  1  0  0  0  0
 12 17  1  0  0  0  0
 12 13  2  0  0  0  0
 13 14  1  0  0  0  0
 13 35  1  0  0  0  0
 14 15  2  0  0  0  0
 14 36  1  0  0  0  0
 15 16  1  0  0  0  0
 15 37  1  0  0  0  0
 16 17  2  0  0  0  0
 16 38  1  0  0  0  0
 17 39  1  0  0  0  0
 18 19  1  0  0  0  0
 19 24  2  0  0  0  0
 19 20  1  0  0  0  0
 20 21  2  0  0  0  0
 20 40  1  0  0  0  0
 21 22  1  0  0  0  0
 21 41  1  0  0  0  0
 22 23  2  0  0  0  0
 22 42  1  0  0  0  0
 23 24  1  0  0  0  0
 23 43  1  0  0  0  0
M  END
> <s_m_source_file>
AV-unprocessed.smi

> <i_m_source_file_index>
525

> <i_lp_mmshare_version>
43012

> <i_f3d_flags>
0

> <s_epik_input>
W2NIXTFbY0hdW2NIXVtjSF1jKGMxMiluKFtDSDJdW0NIMl1PW0NIM10pYyhuMilTW0NASF0oQyg9TylbTkgyXSljM1tjSF1bY0hdW2NIXVtjSF1bY0hdMw==

> <s_epik_cmdline>
J2VwaWtfcHl0aG9uJywgJy1waCcsICc3LjAnLCAnLXRuJywgJzgnLCAnLW1hJywgJzIwMCcsICctbWV0YWxfYmluZGluZycsICctaW1hZScsICc8aW5maWxlLm1hZT4nLCAnLW9tYWUnLCAnPG91dGZpbGUubWFlPic=

> <r_epik_Ionization_Penalty>
0.0706634

> <r_epik_Ionization_Penalty_Charging>
0

> <r_epik_Ionization_Penalty_Neutral>
0.0706634

> <r_epik_State_Penalty>
0.0619781

> <r_epik_Charging_Adjusted_Penalty>
0.0619781

> <i_epik_Tot_Q>
0

> <i_epik_Tot_abs_Q>
0

> <r_epik_Metal_State_Penalty>
0.0552401

> <b_epik_Metal_Only>
0

> <s_lp_Force_Field>
OPLS_2005

> <r_lp_Energy>
11.715

> <b_lp_Chiralities_Consistent>
1

> <s_lp_Variant>
AV-unprocessed.smi:525-1

> <Gold.Version>
5.8.1

> <Gold.Id.Protein>
6NUR|6NUR_protein|mol2

> <Gold.PLP.Fitness>
44.1847

> <Gold.PLP.PLP>
-39.8655

> <Gold.PLP.part.hbond>
-1.7794

> <Gold.PLP.part.metal>
0.0000

> <Gold.PLP.part.buried>
-3.2676

> <Gold.PLP.part.nonpolar>
-34.8358

> <Gold.PLP.part.repulsive>
0.2785

> <Gold.PLP.ligand.clash>
0.0000

> <Gold.PLP.ligand.torsion>
1.0077

> <Gold.PLP.Chemscore.Hbond>
2.0000

> <Gold.PLP.Chemscore.CHOScore>
0.0000

> <Gold.PLP.Chemscore.Metal>
0.0000

> <Gold.Chemscore.Hbonds>
donor molecule, donor type, donor heavy atom, donor atom, acceptor molecule, acceptor atom, score
      P1  H 10752 10764       L1     2  0.94

> <Gold.PLP.Chemscore.Internal.Correction>
0.3347

> <Gold.Rescore>
     Score         DG    S(hbond)    S(metal)    S(lipo)     H(rot)  DE(clash)    DE(int)     intcor
     15.63     -18.18       1.82        0.00     109.90       2.44       0.02       2.53       ----

> <Gold.Chemscore.Fitness>
15.6283

> <Gold.Chemscore.DG>
-18.1815

> <Gold.Chemscore.ZeroCoef>
-5.4800

> <Gold.Chemscore.Hbond>
1.8229

> <Gold.Chemscore.Metal>
0.0000

> <Gold.Chemscore.Lipo>
109.9011

> <Gold.Chemscore.Internal_Hbond>
0.0000

> <Gold.Chemscore.DEClash>
0.0227

> <Gold.Chemscore.DEInternal>
2.5305

> <Gold.Chemscore.Rot>
2.4396

> <Gold.Chemscore.Internal.Correction>
   9.000000E+99

> <Gold.Chemscore.Hbonds>
donor molecule, donor type, donor heavy atom, donor atom, acceptor molecule, acceptor atom, score
      P1  H  7997  8010       L1    11  0.02
      P1  H 10752 10764       L1     2  0.84

> <Gold.Chemscore.Hbond.Weighted>
-6.0885

> <Gold.Chemscore.Metal.Weighted>
-0.0000

> <Gold.Chemscore.Lipo.Weighted>
-12.8584

> <Gold.Chemscore.Internal_Hbond.Weighted>
0.0000

> <Gold.Chemscore.DEClash.Weighted>
0.0227

> <Gold.Chemscore.DEInternal.Weighted>
2.5305

> <Gold.Chemscore.Rot.Weighted>
6.2454

> <Gold.Chemscore.Internal.Correction.Weighted>
   9.000000E+99

> <Gold.Protein.RotatedTorsions>
[ 6907 6896 6895 6894 ] final -179.21 input  -60.11 | X-H torsion
[ 7974 7965 7964 7962 ] final -120.02 input  175.53 | X-H torsion
[ 8008 7997 7996 7995 ] final   32.45 input   59.86 | X-H torsion
[ 10167 10162 10161 10158 ] final -100.66 input  -65.29 | X-H torsion
[ 10718 10713 10712 10709 ] final   52.54 input   66.30 | X-H torsion
[ 10763 10752 10751 10750 ] final  -51.60 input  -60.55 | X-H torsion
[ 11005 11000 10999 10996 ] final   61.59 input  -57.11 | X-H torsion

> <Gold.Protein.ActiveResidues>
 VAL166  LYS551  ARG553  GLY616  TRP617  ASP618  TYR619  PRO620  LYS621  CYS622 
 ASP623  PHE694  ASN695  SER759  ASP760  ASP761  ALA762  ILE779  LEU786  VAL792 
 PHE793  MET794  SER795  GLU796  ALA797  LYS798  CYS799  TRP800  GLU811  SER814 

> <Gold.Protein.RotatedAtoms>
  151.6498  133.3321  159.3148 H   0  0  0  0  0  0  0  0  0  0  0  0  # atno 6907 bound_to 6896
  150.7966  134.7034  159.6572 H   0  0  0  0  0  0  0  0  0  0  0  0  # atno 6908 bound_to 6896
  152.4054  134.6220  160.0105 H   0  0  0  0  0  0  0  0  0  0  0  0  # atno 6909 bound_to 6896
  145.0560  140.8255  143.4180 H   0  0  0  0  0  0  0  0  0  0  0  0  # atno 7974 bound_to 7965
  155.1226  140.3249  155.4493 H   0  0  0  0  0  0  0  0  0  0  0  0  # atno 8008 bound_to 7997
  156.2658  140.2024  156.6296 H   0  0  0  0  0  0  0  0  0  0  0  0  # atno 8009 bound_to 7997
  154.6672  140.0540  157.0113 H   0  0  0  0  0  0  0  0  0  0  0  0  # atno 8010 bound_to 7997
  140.2495  143.3482  152.0727 H   0  0  0  0  0  0  0  0  0  0  0  0  # atno 10167 bound_to 10162
  157.5084  130.8484  149.8404 H   0  0  0  0  0  0  0  0  0  0  0  0  # atno 10718 bound_to 10713
  154.1292  135.6523  153.4918 H   0  0  0  0  0  0  0  0  0  0  0  0  # atno 10763 bound_to 10752
  153.0201  135.5288  154.7019 H   0  0  0  0  0  0  0  0  0  0  0  0  # atno 10764 bound_to 10752
  154.6248  135.2969  155.0255 H   0  0  0  0  0  0  0  0  0  0  0  0  # atno 10765 bound_to 10752
  140.0151  134.6238  155.9722 H   0  0  0  0  0  0  0  0  0  0  0  0  # atno 11005 bound_to 11000
  145.1467  139.2539  143.5462 LP  0  0  0  0  0  0  0  0  0  0  0  0  # atno 17320 bound_to 7965
  146.3521  140.1159  142.8602 LP  0  0  0  0  0  0  0  0  0  0  0  0  # atno 17321 bound_to 7965
  139.5051  144.6788  151.6062 LP  0  0  0  0  0  0  0  0  0  0  0  0  # atno 17342 bound_to 10162
  140.6051  143.9539  150.6413 LP  0  0  0  0  0  0  0  0  0  0  0  0  # atno 17343 bound_to 10162
  156.0273  130.3775  150.1787 LP  0  0  0  0  0  0  0  0  0  0  0  0  # atno 17370 bound_to 10713
  156.9976  130.9912  151.3399 LP  0  0  0  0  0  0  0  0  0  0  0  0  # atno 17371 bound_to 10713
  141.1737  133.6539  156.4747 LP  0  0  0  0  0  0  0  0  0  0  0  0  # atno 17394 bound_to 11000
  140.4486  134.6949  157.5028 LP  0  0  0  0  0  0  0  0  0  0  0  0  # atno 17395 bound_to 11000

$$$$
