AV-unprocessed.smi:1734|AV-procd|sdf|6984|dock6
  -GOLD-   22720 8203D 1   1.00000     0.00000
 Structure written by MMmdl.
 51 53  0  0  0  0  0  0  0  0  2 V2000
  147.0940  133.0057  152.2900 C   0  0  0  0  0  0  0  0  0  0  0  0
  145.6517  133.2452  151.8737 C   0  0  0  0  0  0  0  0  0  0  0  0
  144.8807  132.1617  151.4014 C   0  0  0  0  0  0  0  0  0  0  0  0
  143.5464  132.3837  151.0202 C   0  0  0  0  0  0  0  0  0  0  0  0
  143.0361  133.6887  151.1280 C   0  0  0  0  0  0  0  0  0  0  0  0
  143.7655  134.7297  151.5784 N   0  0  0  0  0  0  0  0  0  0  0  0
  145.0550  134.5323  151.9515 C   0  0  0  0  0  0  0  0  0  0  0  0
  145.8851  135.5852  152.4302 N   0  0  0  0  0  0  0  0  0  0  0  0
  145.6159  136.4928  153.3855 C   0  0  0  0  0  0  0  0  0  0  0  0
  144.5840  136.5429  154.0548 O   0  0  0  0  0  0  0  0  0  0  0  0
  146.6307  137.3539  153.5367 N   0  0  0  0  0  0  0  0  0  0  0  0
  146.6453  138.4458  154.5057 C   0  0  0  0  0  0  0  0  0  0  0  0
  147.1559  139.7873  153.9157 C   0  0  2  0  0  0  0  0  0  0  0  0
  148.6304  140.1043  154.2724 C   0  0  2  0  0  0  0  0  0  0  0  0
  149.5767  138.9263  154.1243 C   0  0  0  0  0  0  0  0  0  0  0  0
  150.7711  139.3657  154.9650 C   0  0  0  0  0  0  0  0  0  0  0  0
  150.2359  140.1833  156.0003 O   0  0  0  0  0  0  0  0  0  0  0  0
  148.8637  140.4618  155.7430 C   0  0  0  0  0  0  0  0  0  0  0  0
  146.2662  140.9546  154.1997 N   0  3  0  0  0  0  0  0  0  0  0  0
  145.6135  140.9123  155.5315 C   0  0  0  0  0  0  0  0  0  0  0  0
  144.5646  142.0324  155.6411 C   0  0  0  0  0  0  0  0  0  0  0  0
  145.1796  143.2921  155.3972 O   0  0  0  0  0  0  0  0  0  0  0  0
  145.7435  143.3708  154.0933 C   0  0  0  0  0  0  0  0  0  0  0  0
  146.8368  142.3005  153.9411 C   0  0  0  0  0  0  0  0  0  0  0  0
  147.3835  131.9655  152.1376 H   0  0  0  0  0  0  0  0  0  0  0  0
  147.2289  133.2402  153.3463 H   0  0  0  0  0  0  0  0  0  0  0  0
  147.7706  133.6302  151.7059 H   0  0  0  0  0  0  0  0  0  0  0  0
  145.3036  131.1701  151.3315 H   0  0  0  0  0  0  0  0  0  0  0  0
  142.9305  131.5753  150.6549 H   0  0  0  0  0  0  0  0  0  0  0  0
  142.0161  133.9033  150.8450 H   0  0  0  0  0  0  0  0  0  0  0  0
  146.7888  135.6546  151.9871 H   0  0  0  0  0  0  0  0  0  0  0  0
  147.4425  137.2478  152.9465 H   0  0  0  0  0  0  0  0  0  0  0  0
  145.6247  138.5911  154.8644 H   0  0  0  0  0  0  0  0  0  0  0  0
  147.2272  138.1500  155.3788 H   0  0  0  0  0  0  0  0  0  0  0  0
  147.1343  139.6622  152.8318 H   0  0  0  0  0  0  0  0  0  0  0  0
  149.0065  140.9251  153.6606 H   0  0  0  0  0  0  0  0  0  0  0  0
  149.1352  138.0236  154.5495 H   0  0  0  0  0  0  0  0  0  0  0  0
  149.8468  138.7180  153.0886 H   0  0  0  0  0  0  0  0  0  0  0  0
  151.3283  138.5210  155.3706 H   0  0  0  0  0  0  0  0  0  0  0  0
  151.4561  139.9684  154.3675 H   0  0  0  0  0  0  0  0  0  0  0  0
  148.6249  141.5024  155.9642 H   0  0  0  0  0  0  0  0  0  0  0  0
  148.2587  139.8317  156.3965 H   0  0  0  0  0  0  0  0  0  0  0  0
  145.1295  139.9470  155.6837 H   0  0  0  0  0  0  0  0  0  0  0  0
  146.3581  141.0270  156.3198 H   0  0  0  0  0  0  0  0  0  0  0  0
  143.7480  141.8715  154.9353 H   0  0  0  0  0  0  0  0  0  0  0  0
  144.1258  142.0406  156.6388 H   0  0  0  0  0  0  0  0  0  0  0  0
  144.9658  143.2455  153.3381 H   0  0  0  0  0  0  0  0  0  0  0  0
  146.1684  144.3647  153.9517 H   0  0  0  0  0  0  0  0  0  0  0  0
  147.6417  142.5101  154.6466 H   0  0  0  0  0  0  0  0  0  0  0  0
  147.2599  142.3529  152.9383 H   0  0  0  0  0  0  0  0  0  0  0  0
  145.5066  140.8558  153.5412 H   0  0  0  0  0  0  0  0  0  0  0  0
  1  2  1  0  0  0  0
  1 25  1  0  0  0  0
  1 26  1  0  0  0  0
  1 27  1  0  0  0  0
  2  7  1  0  0  0  0
  2  3  2  0  0  0  0
  3  4  1  0  0  0  0
  3 28  1  0  0  0  0
  4  5  2  0  0  0  0
  4 29  1  0  0  0  0
  5  6  1  0  0  0  0
  5 30  1  0  0  0  0
  6  7  2  0  0  0  0
  7  8  1  0  0  0  0
  8  9  1  0  0  0  0
  8 31  1  0  0  0  0
  9 10  2  0  0  0  0
  9 11  1  0  0  0  0
 11 12  1  0  0  0  0
 11 32  1  0  0  0  0
 12 13  1  0  0  0  0
 12 33  1  0  0  0  0
 12 34  1  0  0  0  0
 13 14  1  0  0  0  0
 13 19  1  0  0  0  0
 13 35  1  0  0  0  0
 14 18  1  0  0  0  0
 14 15  1  0  0  0  0
 14 36  1  0  0  0  0
 15 16  1  0  0  0  0
 15 37  1  0  0  0  0
 15 38  1  0  0  0  0
 16 17  1  0  0  0  0
 16 39  1  0  0  0  0
 16 40  1  0  0  0  0
 17 18  1  0  0  0  0
 18 41  1  0  0  0  0
 18 42  1  0  0  0  0
 19 24  1  0  0  0  0
 19 20  1  0  0  0  0
 19 51  1  0  0  0  0
 20 21  1  0  0  0  0
 20 43  1  0  0  0  0
 20 44  1  0  0  0  0
 21 22  1  0  0  0  0
 21 45  1  0  0  0  0
 21 46  1  0  0  0  0
 22 23  1  0  0  0  0
 23 24  1  0  0  0  0
 23 47  1  0  0  0  0
 23 48  1  0  0  0  0
 24 49  1  0  0  0  0
 24 50  1  0  0  0  0
M  CHG  1  19   1
M  END
> <s_m_source_file>
AV-unprocessed.smi

> <i_m_source_file_index>
1734

> <i_lp_mmshare_version>
43012

> <i_f3d_flags>
0

> <s_epik_input>
W0NIM11jMVtjSF1bY0hdW2NIXW5jMVtOSF1DKD1PKVtOSF1bQ0gyXVtDQEhdKFtDQEBIXTJbQ0gyXVtDSDJdT1tDSDJdMilOM1tDSDJdW0NIMl1PW0NIMl1bQ0gyXTM=

> <s_epik_cmdline>
J2VwaWtfcHl0aG9uJywgJy1waCcsICc3LjAnLCAnLXRuJywgJzgnLCAnLW1hJywgJzIwMCcsICctbWV0YWxfYmluZGluZycsICctaW1hZScsICc8aW5maWxlLm1hZT4nLCAnLW9tYWUnLCAnPG91dGZpbGUubWFlPic=

> <r_epik_Ionization_Penalty>
0.983302

> <r_epik_Ionization_Penalty_Charging>
0.98326

> <r_epik_Ionization_Penalty_Neutral>
4.21967e-05

> <r_epik_State_Penalty>
1.0303

> <r_epik_Charging_Adjusted_Penalty>
2.01356

> <i_epik_Tot_Q>
1

> <i_epik_Tot_abs_Q>
1

> <r_epik_Metal_State_Penalty>
1.03031

> <b_epik_Metal_Only>
0

> <s_lp_Force_Field>
OPLS_2005

> <r_lp_Energy>
50.4673

> <b_lp_Chiralities_Consistent>
1

> <s_lp_Variant>
AV-unprocessed.smi:1734-5

> <Gold.Version>
5.8.1

> <Gold.Id.Protein>
6NUR|6NUR_protein|mol2

> <Gold.PLP.Fitness>
47.2417

> <Gold.PLP.PLP>
-36.2033

> <Gold.PLP.part.hbond>
-2.9697

> <Gold.PLP.part.metal>
0.0000

> <Gold.PLP.part.buried>
-6.3974

> <Gold.PLP.part.nonpolar>
-29.4461

> <Gold.PLP.part.repulsive>
0.4151

> <Gold.PLP.ligand.clash>
0.0000

> <Gold.PLP.ligand.torsion>
1.7933

> <Gold.PLP.Chemscore.Hbond>
3.7800

> <Gold.PLP.Chemscore.CHOScore>
1.0000

> <Gold.PLP.Chemscore.Metal>
0.0000

> <Gold.Chemscore.Hbonds>
donor molecule, donor type, donor heavy atom, donor atom, acceptor molecule, acceptor atom, score
      L1  H     8    31       P1  7948  0.54
      L1  H    11    32       P1  7948  0.80
      L1  H    19    51       P1 10175  1.46
      L1  C     5    30       P1 10186  0.19

> <Gold.PLP.Chemscore.Internal.Correction>
0.2850

> <Gold.Rescore>
     Score         DG    S(hbond)    S(metal)    S(lipo)     H(rot)  DE(clash)    DE(int)     intcor
     18.60     -20.18       2.77        0.00      83.67       1.70       0.00       1.58       ----

> <Gold.Chemscore.Fitness>
18.6024

> <Gold.Chemscore.DG>
-20.1838

> <Gold.Chemscore.ZeroCoef>
-5.4800

> <Gold.Chemscore.Hbond>
2.7733

> <Gold.Chemscore.Metal>
0.0000

> <Gold.Chemscore.Lipo>
83.6693

> <Gold.Chemscore.Internal_Hbond>
0.0000

> <Gold.Chemscore.DEClash>
0.0028

> <Gold.Chemscore.DEInternal>
1.5786

> <Gold.Chemscore.Rot>
1.6986

> <Gold.Chemscore.Internal.Correction>
   9.000000E+99

> <Gold.Chemscore.Hbonds>
donor molecule, donor type, donor heavy atom, donor atom, acceptor molecule, acceptor atom, score
      L1  H     8    31       P1  7948  0.53
      L1  H    11    32       P1  7948  0.78
      L1  H    19    51       P1 10175  0.60

> <Gold.Chemscore.Hbond.Weighted>
-9.2629

> <Gold.Chemscore.Metal.Weighted>
-0.0000

> <Gold.Chemscore.Lipo.Weighted>
-9.7893

> <Gold.Chemscore.Internal_Hbond.Weighted>
0.0000

> <Gold.Chemscore.DEClash.Weighted>
0.0028

> <Gold.Chemscore.DEInternal.Weighted>
1.5786

> <Gold.Chemscore.Rot.Weighted>
4.3485

> <Gold.Chemscore.Internal.Correction.Weighted>
   9.000000E+99

> <Gold.Protein.RotatedTorsions>
[ 6907 6896 6895 6894 ] final  -33.47 input  -60.11 | X-H torsion
[ 7974 7965 7964 7962 ] final   26.48 input  175.53 | X-H torsion
[ 8008 7997 7996 7995 ] final  156.31 input   59.86 | X-H torsion
[ 10167 10162 10161 10158 ] final  -74.13 input  -65.29 | X-H torsion
[ 10718 10713 10712 10709 ] final  163.72 input   66.30 | X-H torsion
[ 10763 10752 10751 10750 ] final  123.17 input  -60.55 | X-H torsion
[ 11005 11000 10999 10996 ] final  -85.19 input  -57.11 | X-H torsion

> <Gold.Protein.ActiveResidues>
 VAL166  LYS551  ARG553  GLY616  TRP617  ASP618  TYR619  PRO620  LYS621  CYS622 
 ASP623  PHE694  ASN695  SER759  ASP760  ASP761  ALA762  ILE779  LEU786  VAL792 
 PHE793  MET794  SER795  GLU796  ALA797  LYS798  CYS799  TRP800  GLU811  SER814 

> <Gold.Protein.RotatedAtoms>
  151.0652  134.9762  159.8280 H   0  0  0  0  0  0  0  0  0  0  0  0  # atno 6907 bound_to 6896
  152.5401  134.2368  159.8856 H   0  0  0  0  0  0  0  0  0  0  0  0  # atno 6908 bound_to 6896
  151.2390  133.4366  159.2640 H   0  0  0  0  0  0  0  0  0  0  0  0  # atno 6909 bound_to 6896
  146.1835  139.7323  142.8883 H   0  0  0  0  0  0  0  0  0  0  0  0  # atno 7974 bound_to 7965
  156.2429  140.1916  156.6936 H   0  0  0  0  0  0  0  0  0  0  0  0  # atno 8008 bound_to 7997
  154.6233  140.0605  156.9669 H   0  0  0  0  0  0  0  0  0  0  0  0  # atno 8009 bound_to 7997
  155.1826  140.3277  155.4375 H   0  0  0  0  0  0  0  0  0  0  0  0  # atno 8010 bound_to 7997
  140.5053  143.2354  151.7685 H   0  0  0  0  0  0  0  0  0  0  0  0  # atno 10167 bound_to 10162
  157.1044  131.0451  151.2484 H   0  0  0  0  0  0  0  0  0  0  0  0  # atno 10718 bound_to 10713
  153.6412  135.3379  155.3072 H   0  0  0  0  0  0  0  0  0  0  0  0  # atno 10763 bound_to 10752
  154.8559  135.4319  154.2002 H   0  0  0  0  0  0  0  0  0  0  0  0  # atno 10764 bound_to 10752
  153.2922  135.7018  153.7356 H   0  0  0  0  0  0  0  0  0  0  0  0  # atno 10765 bound_to 10752
  141.1643  133.7386  156.8979 H   0  0  0  0  0  0  0  0  0  0  0  0  # atno 11005 bound_to 11000
  145.4006  141.0384  143.3072 LP  0  0  0  0  0  0  0  0  0  0  0  0  # atno 17320 bound_to 7965
  144.8357  139.5555  143.6923 LP  0  0  0  0  0  0  0  0  0  0  0  0  # atno 17321 bound_to 7965
  139.4882  144.4466  151.9703 LP  0  0  0  0  0  0  0  0  0  0  0  0  # atno 17342 bound_to 10162
  140.3556  144.3035  150.5942 LP  0  0  0  0  0  0  0  0  0  0  0  0  # atno 17343 bound_to 10162
  157.4613  130.7655  149.7238 LP  0  0  0  0  0  0  0  0  0  0  0  0  # atno 17370 bound_to 10713
  155.9865  130.3974  150.3207 LP  0  0  0  0  0  0  0  0  0  0  0  0  # atno 17371 bound_to 10713
  140.1603  134.9170  157.2706 LP  0  0  0  0  0  0  0  0  0  0  0  0  # atno 17394 bound_to 11000
  140.2619  134.3561  155.7403 LP  0  0  0  0  0  0  0  0  0  0  0  0  # atno 17395 bound_to 11000

$$$$
