AV-unprocessed.smi:2530|AV-procd|sdf|9962|dock10
  -GOLD-   2272014 03D 1   1.00000     0.00000
 Structure written by MMmdl.
 44 46  0  0  0  0  0  0  0  0  1 V2000
  151.9596  145.4731  159.1603 C   0  0  0  0  0  0  0  0  0  0  0  0
  152.1344  143.9791  159.3377 C   0  0  0  0  0  0  0  0  0  0  0  0
  152.7616  143.4690  160.4886 C   0  0  0  0  0  0  0  0  0  0  0  0
  152.9348  142.0814  160.6362 C   0  0  0  0  0  0  0  0  0  0  0  0
  152.4930  141.1859  159.6380 C   0  0  0  0  0  0  0  0  0  0  0  0
  152.7339  139.7013  159.8602 C   0  0  0  0  0  0  0  0  0  0  0  0
  151.8529  141.6955  158.4727 C   0  0  0  0  0  0  0  0  0  0  0  0
  151.3702  140.8143  157.3145 C   0  0  2  0  0  0  0  0  0  0  0  0
  152.3232  139.8634  156.8879 O   0  0  0  0  0  0  0  0  0  0  0  0
  150.8466  141.6070  156.0900 C   0  0  0  0  0  0  0  0  0  0  0  0
  149.7688  140.9047  155.3700 N   0  0  0  0  0  0  0  0  0  0  0  0
  148.4745  141.4537  155.4649 C   0  0  0  0  0  0  0  0  0  0  0  0
  147.4492  140.8772  154.9241 N   0  0  0  0  0  0  0  0  0  0  0  0
  147.6130  139.6765  154.2223 C   0  0  0  0  0  0  0  0  0  0  0  0
  146.3914  139.0211  153.5897 C   0  0  0  0  0  0  0  0  0  0  0  0
  146.1649  137.5190  153.8460 C   0  0  0  0  0  0  0  0  0  0  0  0
  145.7339  137.4053  152.3786 C   0  0  0  0  0  0  0  0  0  0  0  0
  146.5508  138.6736  152.1037 C   0  0  0  0  0  0  0  0  0  0  0  0
  148.8433  139.1326  154.0720 C   0  0  0  0  0  0  0  0  0  0  0  0
  150.0204  139.7589  154.6732 C   0  0  0  0  0  0  0  0  0  0  0  0
  151.1499  139.2799  154.5735 O   0  0  0  0  0  0  0  0  0  0  0  0
  151.6809  143.0928  158.3427 C   0  0  0  0  0  0  0  0  0  0  0  0
  151.9471  145.9832  160.1239 H   0  0  0  0  0  0  0  0  0  0  0  0
  151.0226  145.6944  158.6487 H   0  0  0  0  0  0  0  0  0  0  0  0
  152.7795  145.8781  158.5670 H   0  0  0  0  0  0  0  0  0  0  0  0
  153.1154  144.1386  161.2590 H   0  0  0  0  0  0  0  0  0  0  0  0
  153.4205  141.7062  161.5253 H   0  0  0  0  0  0  0  0  0  0  0  0
  151.7949  139.1871  160.0644 H   0  0  0  0  0  0  0  0  0  0  0  0
  153.3917  139.5324  160.7133 H   0  0  0  0  0  0  0  0  0  0  0  0
  153.2062  139.2405  158.9952 H   0  0  0  0  0  0  0  0  0  0  0  0
  150.5404  140.2161  157.6924 H   0  0  0  0  0  0  0  0  0  0  0  0
  152.1156  139.6103  156.0012 H   0  0  0  0  0  0  0  0  0  0  0  0
  150.5114  142.5965  156.4015 H   0  0  0  0  0  0  0  0  0  0  0  0
  151.6735  141.8099  155.4071 H   0  0  0  0  0  0  0  0  0  0  0  0
  148.3970  142.3831  156.0316 H   0  0  0  0  0  0  0  0  0  0  0  0
  145.4794  139.5938  153.7710 H   0  0  0  0  0  0  0  0  0  0  0  0
  147.0672  136.9405  154.0478 H   0  0  0  0  0  0  0  0  0  0  0  0
  145.3783  137.2951  154.5671 H   0  0  0  0  0  0  0  0  0  0  0  0
  146.0904  136.5123  151.8646 H   0  0  0  0  0  0  0  0  0  0  0  0
  144.6619  137.5537  152.2387 H   0  0  0  0  0  0  0  0  0  0  0  0
  146.0823  139.3796  151.4174 H   0  0  0  0  0  0  0  0  0  0  0  0
  147.5816  138.4564  151.8179 H   0  0  0  0  0  0  0  0  0  0  0  0
  148.9636  138.2157  153.5134 H   0  0  0  0  0  0  0  0  0  0  0  0
  151.2108  143.4955  157.4571 H   0  0  0  0  0  0  0  0  0  0  0  0
  1  2  1  0  0  0  0
  1 23  1  0  0  0  0
  1 24  1  0  0  0  0
  1 25  1  0  0  0  0
  2 22  1  0  0  0  0
  2  3  2  0  0  0  0
  3  4  1  0  0  0  0
  3 26  1  0  0  0  0
  4  5  2  0  0  0  0
  4 27  1  0  0  0  0
  5  6  1  0  0  0  0
  5  7  1  0  0  0  0
  6 28  1  0  0  0  0
  6 29  1  0  0  0  0
  6 30  1  0  0  0  0
  7  8  1  0  0  0  0
  7 22  2  0  0  0  0
  8  9  1  0  0  0  0
  8 10  1  0  0  0  0
  8 31  1  0  0  0  0
  9 32  1  0  0  0  0
 10 11  1  0  0  0  0
 10 33  1  0  0  0  0
 10 34  1  0  0  0  0
 11 20  1  0  0  0  0
 11 12  1  0  0  0  0
 12 13  2  0  0  0  0
 12 35  1  0  0  0  0
 13 14  1  0  0  0  0
 14 15  1  0  0  0  0
 14 19  2  0  0  0  0
 15 18  1  0  0  0  0
 15 16  1  0  0  0  0
 15 36  1  0  0  0  0
 16 17  1  0  0  0  0
 16 37  1  0  0  0  0
 16 38  1  0  0  0  0
 17 18  1  0  0  0  0
 17 39  1  0  0  0  0
 17 40  1  0  0  0  0
 18 41  1  0  0  0  0
 18 42  1  0  0  0  0
 19 20  1  0  0  0  0
 19 43  1  0  0  0  0
 20 21  2  0  0  0  0
 22 44  1  0  0  0  0
M  END
> <s_m_source_file>
AV-unprocessed.smi

> <i_m_source_file_index>
2530

> <i_lp_mmshare_version>
43012

> <i_f3d_flags>
0

> <s_epik_input>
W0NIM11jMVtjSF1bY0hdYyhbQ0gzXSljKFtjSF0xKVtDQEhdKFtPSF0pW0NIMl1uMltjSF1uYyhbY0hdYzI9TylbQ0hdM1tDSDJdW0NIMl1bQ0gyXTM=

> <s_epik_cmdline>
J2VwaWtfcHl0aG9uJywgJy1waCcsICc3LjAnLCAnLXRuJywgJzgnLCAnLW1hJywgJzIwMCcsICctbWV0YWxfYmluZGluZycsICctaW1hZScsICc8aW5maWxlLm1hZT4nLCAnLW9tYWUnLCAnPG91dGZpbGUubWFlPic=

> <r_lp_tautomer_probability>
1

> <r_epik_Ionization_Penalty>
2.57341e-05

> <r_epik_Ionization_Penalty_Charging>
5.39435e-08

> <r_epik_Ionization_Penalty_Neutral>
2.56801e-05

> <r_epik_State_Penalty>
-0

> <r_epik_Charging_Adjusted_Penalty>
5.39435e-08

> <i_epik_Tot_Q>
0

> <i_epik_Tot_abs_Q>
0

> <r_epik_Metal_State_Penalty>
-0

> <b_epik_Metal_Only>
0

> <s_lp_Force_Field>
OPLS_2005

> <r_lp_Energy>
27.4041

> <b_lp_Chiralities_Consistent>
1

> <s_lp_Variant>
AV-unprocessed.smi:2530-1

> <Gold.Version>
5.8.1

> <Gold.Id.Protein>
6NUR|6NUR_protein|mol2

> <Gold.PLP.Fitness>
54.4306

> <Gold.PLP.PLP>
-48.3017

> <Gold.PLP.part.hbond>
-2.0000

> <Gold.PLP.part.metal>
0.0000

> <Gold.PLP.part.buried>
-2.7313

> <Gold.PLP.part.nonpolar>
-44.5324

> <Gold.PLP.part.repulsive>
0.2202

> <Gold.PLP.ligand.clash>
0.0000

> <Gold.PLP.ligand.torsion>
0.7515

> <Gold.PLP.Chemscore.Hbond>
1.4000

> <Gold.PLP.Chemscore.CHOScore>
1.0000

> <Gold.PLP.Chemscore.Metal>
0.0000

> <Gold.Chemscore.Hbonds>
donor molecule, donor type, donor heavy atom, donor atom, acceptor molecule, acceptor atom, score
      P1  H  7989  7998       L1    21  0.40
      P1  H  7997  8010       L1     9  0.81
      L1  C    12    35       P1  8028  1.00

> <Gold.PLP.Chemscore.Internal.Correction>
0.4319

> <Gold.Rescore>
     Score         DG    S(hbond)    S(metal)    S(lipo)     H(rot)  DE(clash)    DE(int)     intcor
     17.69     -19.95       1.61        0.00     120.79       1.97       0.15       2.11       ----

> <Gold.Chemscore.Fitness>
17.6949

> <Gold.Chemscore.DG>
-19.9540

> <Gold.Chemscore.ZeroCoef>
-5.4800

> <Gold.Chemscore.Hbond>
1.6109

> <Gold.Chemscore.Metal>
0.0000

> <Gold.Chemscore.Lipo>
120.7937

> <Gold.Chemscore.Internal_Hbond>
0.0000

> <Gold.Chemscore.DEClash>
0.1534

> <Gold.Chemscore.DEInternal>
2.1058

> <Gold.Chemscore.Rot>
1.9684

> <Gold.Chemscore.Internal.Correction>
   9.000000E+99

> <Gold.Chemscore.Hbonds>
donor molecule, donor type, donor heavy atom, donor atom, acceptor molecule, acceptor atom, score
      P1  H  7989  7998       L1    21  0.01
      P1  H  7997  8010       L1     9  0.20

> <Gold.Chemscore.Hbond.Weighted>
-5.3803

> <Gold.Chemscore.Metal.Weighted>
-0.0000

> <Gold.Chemscore.Lipo.Weighted>
-14.1329

> <Gold.Chemscore.Internal_Hbond.Weighted>
0.0000

> <Gold.Chemscore.DEClash.Weighted>
0.1534

> <Gold.Chemscore.DEInternal.Weighted>
2.1058

> <Gold.Chemscore.Rot.Weighted>
5.0391

> <Gold.Chemscore.Internal.Correction.Weighted>
   9.000000E+99

> <Gold.Protein.RotatedTorsions>
[ 6907 6896 6895 6894 ] final  170.27 input  -60.11 | X-H torsion
[ 7974 7965 7964 7962 ] final  101.15 input  175.53 | X-H torsion
[ 8008 7997 7996 7995 ] final   52.34 input   59.86 | X-H torsion
[ 10167 10162 10161 10158 ] final  -66.48 input  -65.29 | X-H torsion
[ 10718 10713 10712 10709 ] final  -88.04 input   66.30 | X-H torsion
[ 10763 10752 10751 10750 ] final  105.24 input  -60.55 | X-H torsion
[ 11005 11000 10999 10996 ] final  -54.70 input  -57.11 | X-H torsion

> <Gold.Protein.ActiveResidues>
 VAL166  LYS551  ARG553  GLY616  TRP617  ASP618  TYR619  PRO620  LYS621  CYS622 
 ASP623  PHE694  ASN695  SER759  ASP760  ASP761  ALA762  ILE779  LEU786  VAL792 
 PHE793  MET794  SER795  GLU796  ALA797  LYS798  CYS799  TRP800  GLU811  SER814 

> <Gold.Protein.RotatedAtoms>
  151.8187  133.3391  159.3577 H   0  0  0  0  0  0  0  0  0  0  0  0  # atno 6907 bound_to 6896
  150.7302  134.5595  159.5844 H   0  0  0  0  0  0  0  0  0  0  0  0  # atno 6908 bound_to 6896
  152.3022  134.7598  160.0406 H   0  0  0  0  0  0  0  0  0  0  0  0  # atno 6909 bound_to 6896
  145.3762  139.2388  143.3428 H   0  0  0  0  0  0  0  0  0  0  0  0  # atno 7974 bound_to 7965
  155.4503  140.3458  155.4300 H   0  0  0  0  0  0  0  0  0  0  0  0  # atno 8008 bound_to 7997
  156.1224  140.1491  156.9214 H   0  0  0  0  0  0  0  0  0  0  0  0  # atno 8009 bound_to 7997
  154.4833  140.0863  156.7408 H   0  0  0  0  0  0  0  0  0  0  0  0  # atno 8010 bound_to 7997
  140.5654  143.2314  151.6646 H   0  0  0  0  0  0  0  0  0  0  0  0  # atno 10167 bound_to 10162
  155.9984  130.4821  150.4959 H   0  0  0  0  0  0  0  0  0  0  0  0  # atno 10718 bound_to 10713
  153.3767  135.3916  155.1827 H   0  0  0  0  0  0  0  0  0  0  0  0  # atno 10763 bound_to 10752
  154.8702  135.3715  154.4909 H   0  0  0  0  0  0  0  0  0  0  0  0  # atno 10764 bound_to 10752
  153.5382  135.7085  153.5711 H   0  0  0  0  0  0  0  0  0  0  0  0  # atno 10765 bound_to 10752
  141.1038  133.6615  156.4360 H   0  0  0  0  0  0  0  0  0  0  0  0  # atno 11005 bound_to 11000
  146.2863  140.4422  142.8757 LP  0  0  0  0  0  0  0  0  0  0  0  0  # atno 17320 bound_to 7965
  144.8540  140.7044  143.6150 LP  0  0  0  0  0  0  0  0  0  0  0  0  # atno 17321 bound_to 7965
  139.5090  144.3591  152.0579 LP  0  0  0  0  0  0  0  0  0  0  0  0  # atno 17342 bound_to 10162
  140.2722  144.3951  150.6147 LP  0  0  0  0  0  0  0  0  0  0  0  0  # atno 17343 bound_to 10162
  157.2949  131.0633  151.2109 LP  0  0  0  0  0  0  0  0  0  0  0  0  # atno 17370 bound_to 10713
  157.3108  130.6889  149.6215 LP  0  0  0  0  0  0  0  0  0  0  0  0  # atno 17371 bound_to 10713
  140.4953  134.6536  157.5227 LP  0  0  0  0  0  0  0  0  0  0  0  0  # atno 17394 bound_to 11000
  139.9900  134.7000  155.9706 LP  0  0  0  0  0  0  0  0  0  0  0  0  # atno 17395 bound_to 11000

$$$$
