AV-unprocessed.smi:788|AV-procd|sdf|3731|dock3
  -GOLD-   22720 1163D 1   1.00000     0.00000
 Structure written by MMmdl.
 35 36  0  0  0  0  0  0  0  0  1 V2000
  152.3317  140.1474  158.0026 C   0  0  0  0  0  0  0  0  0  0  0  0
  152.5515  141.4763  158.7485 C   0  0  2  0  0  0  0  0  0  0  0  0
  153.2719  141.2267  160.0881 C   0  0  0  0  0  0  0  0  0  0  0  0
  153.5145  142.5301  160.8622 C   0  0  0  0  0  0  0  0  0  0  0  0
  152.2007  143.2941  161.0877 C   0  0  0  0  0  0  0  0  0  0  0  0
  151.4553  143.5754  159.7680 C   0  0  1  0  0  0  0  0  0  0  0  0
  152.1397  144.6895  158.9479 C   0  0  0  0  0  0  0  0  0  0  0  0
  151.2307  142.2554  158.9804 C   0  0  1  0  0  0  0  0  0  0  0  0
  150.5579  142.5096  157.7078 N   0  0  0  0  0  0  0  0  0  0  0  0
  149.8355  141.6218  157.0054 C   0  0  0  0  0  0  0  0  0  0  0  0
  149.6658  140.4616  157.3757 O   0  0  0  0  0  0  0  0  0  0  0  0
  149.2938  142.0689  155.8521 N   0  0  0  0  0  0  0  0  0  0  0  0
  148.4854  141.4258  154.8689 C   0  0  0  0  0  0  0  0  0  0  0  0
  148.6396  140.1540  154.4643 N   0  0  0  0  0  0  0  0  0  0  0  0
  147.7138  139.7972  153.4933 N   0  0  0  0  0  0  0  0  0  0  0  0
  146.8979  140.8130  153.1987 C   0  0  0  0  0  0  0  0  0  0  0  0
  147.1814  142.3032  154.0805 S   0  0  0  0  0  0  0  0  0  0  0  0
  151.6478  139.4963  158.5479 H   0  0  0  0  0  0  0  0  0  0  0  0
  153.2718  139.6097  157.8771 H   0  0  0  0  0  0  0  0  0  0  0  0
  151.9180  140.3063  157.0064 H   0  0  0  0  0  0  0  0  0  0  0  0
  153.2077  142.0865  158.1266 H   0  0  0  0  0  0  0  0  0  0  0  0
  152.6792  140.5473  160.7022 H   0  0  0  0  0  0  0  0  0  0  0  0
  154.2254  140.7280  159.9116 H   0  0  0  0  0  0  0  0  0  0  0  0
  153.9800  142.3065  161.8224 H   0  0  0  0  0  0  0  0  0  0  0  0
  154.2228  143.1557  160.3184 H   0  0  0  0  0  0  0  0  0  0  0  0
  151.5571  142.7049  161.7422 H   0  0  0  0  0  0  0  0  0  0  0  0
  152.3968  144.2264  161.6185 H   0  0  0  0  0  0  0  0  0  0  0  0
  150.4729  143.9632  160.0416 H   0  0  0  0  0  0  0  0  0  0  0  0
  153.1233  144.3887  158.5887 H   0  0  0  0  0  0  0  0  0  0  0  0
  152.2711  145.5890  159.5495 H   0  0  0  0  0  0  0  0  0  0  0  0
  151.5444  144.9721  158.0795 H   0  0  0  0  0  0  0  0  0  0  0  0
  150.5835  141.6139  159.5822 H   0  0  0  0  0  0  0  0  0  0  0  0
  150.6462  143.4426  157.3306 H   0  0  0  0  0  0  0  0  0  0  0  0
  149.5107  143.0321  155.6412 H   0  0  0  0  0  0  0  0  0  0  0  0
  146.1234  140.6843  152.4571 H   0  0  0  0  0  0  0  0  0  0  0  0
  1  2  1  0  0  0  0
  1 18  1  0  0  0  0
  1 19  1  0  0  0  0
  1 20  1  0  0  0  0
  2  8  1  0  0  0  0
  2  3  1  0  0  0  0
  2 21  1  0  0  0  0
  3  4  1  0  0  0  0
  3 22  1  0  0  0  0
  3 23  1  0  0  0  0
  4  5  1  0  0  0  0
  4 24  1  0  0  0  0
  4 25  1  0  0  0  0
  5  6  1  0  0  0  0
  5 26  1  0  0  0  0
  5 27  1  0  0  0  0
  6  7  1  0  0  0  0
  6  8  1  0  0  0  0
  6 28  1  0  0  0  0
  7 29  1  0  0  0  0
  7 30  1  0  0  0  0
  7 31  1  0  0  0  0
  8  9  1  0  0  0  0
  8 32  1  0  0  0  0
  9 10  1  0  0  0  0
  9 33  1  0  0  0  0
 10 11  2  0  0  0  0
 10 12  1  0  0  0  0
 12 13  1  0  0  0  0
 12 34  1  0  0  0  0
 13 17  1  0  0  0  0
 13 14  2  0  0  0  0
 14 15  1  0  0  0  0
 15 16  2  0  0  0  0
 16 17  1  0  0  0  0
 16 35  1  0  0  0  0
M  END
> <s_m_source_file>
AV-unprocessed.smi

> <i_m_source_file_index>
788

> <i_lp_mmshare_version>
43012

> <i_f3d_flags>
0

> <s_epik_input>
W0NIM11bQ0BASF0xW0NIMl1bQ0gyXVtDSDJdW0NAQEhdKFtDSDNdKVtDQEhdMVtOSF1DKD1PKVtOSF1jMm5uW2NIXXMy

> <s_epik_cmdline>
J2VwaWtfcHl0aG9uJywgJy1waCcsICc3LjAnLCAnLXRuJywgJzgnLCAnLW1hJywgJzIwMCcsICctbWV0YWxfYmluZGluZycsICctaW1hZScsICc8aW5maWxlLm1hZT4nLCAnLW9tYWUnLCAnPG91dGZpbGUubWFlPic=

> <r_lp_tautomer_probability>
1

> <r_epik_Ionization_Penalty>
0.000304078

> <r_epik_Ionization_Penalty_Charging>
0

> <r_epik_Ionization_Penalty_Neutral>
0.000304078

> <r_epik_State_Penalty>
-0

> <r_epik_Charging_Adjusted_Penalty>
0

> <i_epik_Tot_Q>
0

> <i_epik_Tot_abs_Q>
0

> <r_epik_Metal_State_Penalty>
0.164801

> <b_epik_Metal_Only>
0

> <s_lp_Force_Field>
OPLS_2005

> <r_lp_Energy>
15.5702

> <b_lp_Chiralities_Consistent>
1

> <s_lp_Variant>
AV-unprocessed.smi:788-1

> <Gold.Version>
5.8.1

> <Gold.Id.Protein>
6NUR|6NUR_protein|mol2

> <Gold.PLP.Fitness>
39.4267

> <Gold.PLP.PLP>
-34.8172

> <Gold.PLP.part.hbond>
-1.0000

> <Gold.PLP.part.metal>
0.0000

> <Gold.PLP.part.buried>
-6.3997

> <Gold.PLP.part.nonpolar>
-29.3870

> <Gold.PLP.part.repulsive>
1.1825

> <Gold.PLP.ligand.clash>
0.0000

> <Gold.PLP.ligand.torsion>
0.5704

> <Gold.PLP.Chemscore.Hbond>
0.9120

> <Gold.PLP.Chemscore.CHOScore>
1.0000

> <Gold.PLP.Chemscore.Metal>
0.0000

> <Gold.Chemscore.Hbonds>
donor molecule, donor type, donor heavy atom, donor atom, acceptor molecule, acceptor atom, score
      L1  H    12    34       P1  8028  0.90
      L1  C    16    35       P1 10175  1.00

> <Gold.PLP.Chemscore.Internal.Correction>
0.0145

> <Gold.Rescore>
     Score         DG    S(hbond)    S(metal)    S(lipo)     H(rot)  DE(clash)    DE(int)     intcor
     14.74     -16.98       0.95        0.00      92.95       1.00       0.30       1.94       ----

> <Gold.Chemscore.Fitness>
14.7399

> <Gold.Chemscore.DG>
-16.9808

> <Gold.Chemscore.ZeroCoef>
-5.4800

> <Gold.Chemscore.Hbond>
0.9537

> <Gold.Chemscore.Metal>
0.0000

> <Gold.Chemscore.Lipo>
92.9521

> <Gold.Chemscore.Internal_Hbond>
0.0000

> <Gold.Chemscore.DEClash>
0.3044

> <Gold.Chemscore.DEInternal>
1.9365

> <Gold.Chemscore.Rot>
1.0000

> <Gold.Chemscore.Internal.Correction>
   9.000000E+99

> <Gold.Chemscore.Hbonds>
donor molecule, donor type, donor heavy atom, donor atom, acceptor molecule, acceptor atom, score
      L1  H    12    34       P1  8028  0.88

> <Gold.Chemscore.Hbond.Weighted>
-3.1854

> <Gold.Chemscore.Metal.Weighted>
-0.0000

> <Gold.Chemscore.Lipo.Weighted>
-10.8754

> <Gold.Chemscore.Internal_Hbond.Weighted>
0.0000

> <Gold.Chemscore.DEClash.Weighted>
0.3044

> <Gold.Chemscore.DEInternal.Weighted>
1.9365

> <Gold.Chemscore.Rot.Weighted>
2.5600

> <Gold.Chemscore.Internal.Correction.Weighted>
   9.000000E+99

> <Gold.Protein.RotatedTorsions>
[ 6907 6896 6895 6894 ] final  -51.17 input  -60.11 | X-H torsion
[ 7974 7965 7964 7962 ] final  162.80 input  175.53 | X-H torsion
[ 8008 7997 7996 7995 ] final  154.76 input   59.86 | X-H torsion
[ 10167 10162 10161 10158 ] final  178.25 input  -65.29 | X-H torsion
[ 10718 10713 10712 10709 ] final -109.68 input   66.30 | X-H torsion
[ 10763 10752 10751 10750 ] final -160.90 input  -60.55 | X-H torsion
[ 11005 11000 10999 10996 ] final  -29.18 input  -57.11 | X-H torsion

> <Gold.Protein.ActiveResidues>
 VAL166  LYS551  ARG553  GLY616  TRP617  ASP618  TYR619  PRO620  LYS621  CYS622 
 ASP623  PHE694  ASN695  SER759  ASP760  ASP761  ALA762  ILE779  LEU786  VAL792 
 PHE793  MET794  SER795  GLU796  ALA797  LYS798  CYS799  TRP800  GLU811  SER814 

> <Gold.Protein.RotatedAtoms>
  150.8637  134.7995  159.7101 H   0  0  0  0  0  0  0  0  0  0  0  0  # atno 6907 bound_to 6896
  152.4665  134.5058  159.9748 H   0  0  0  0  0  0  0  0  0  0  0  0  # atno 6908 bound_to 6896
  151.5158  133.3437  159.2928 H   0  0  0  0  0  0  0  0  0  0  0  0  # atno 6909 bound_to 6896
  144.7619  139.8091  143.6329 H   0  0  0  0  0  0  0  0  0  0  0  0  # atno 7974 bound_to 7965
  156.2514  140.1958  156.6696 H   0  0  0  0  0  0  0  0  0  0  0  0  # atno 8008 bound_to 7997
  154.6403  140.0584  156.9863 H   0  0  0  0  0  0  0  0  0  0  0  0  # atno 8009 bound_to 7997
  155.1573  140.3256  155.4421 H   0  0  0  0  0  0  0  0  0  0  0  0  # atno 8010 bound_to 7997
  139.5286  144.2702  152.0634 H   0  0  0  0  0  0  0  0  0  0  0  0  # atno 10167 bound_to 10162
  156.0550  130.5776  150.8133 H   0  0  0  0  0  0  0  0  0  0  0  0  # atno 10718 bound_to 10713
  154.7350  135.3055  154.8827 H   0  0  0  0  0  0  0  0  0  0  0  0  # atno 10763 bound_to 10752
  153.9658  135.6747  153.4750 H   0  0  0  0  0  0  0  0  0  0  0  0  # atno 10764 bound_to 10752
  153.0954  135.4938  154.8691 H   0  0  0  0  0  0  0  0  0  0  0  0  # atno 10765 bound_to 10752
  140.9274  133.7360  156.0887 H   0  0  0  0  0  0  0  0  0  0  0  0  # atno 11005 bound_to 11000
  146.1691  139.4834  142.9939 LP  0  0  0  0  0  0  0  0  0  0  0  0  # atno 17320 bound_to 7965
  145.6591  141.0245  143.1719 LP  0  0  0  0  0  0  0  0  0  0  0  0  # atno 17321 bound_to 7965
  140.2162  144.4512  150.6362 LP  0  0  0  0  0  0  0  0  0  0  0  0  # atno 17342 bound_to 10162
  140.6448  143.2211  151.6210 LP  0  0  0  0  0  0  0  0  0  0  0  0  # atno 17343 bound_to 10162
  157.5511  131.0944  150.9693 LP  0  0  0  0  0  0  0  0  0  0  0  0  # atno 17370 bound_to 10713
  156.9953  130.5579  149.5306 LP  0  0  0  0  0  0  0  0  0  0  0  0  # atno 17371 bound_to 10713
  140.7908  134.3619  157.5465 LP  0  0  0  0  0  0  0  0  0  0  0  0  # atno 17394 bound_to 11000
  139.8788  134.9139  156.3095 LP  0  0  0  0  0  0  0  0  0  0  0  0  # atno 17395 bound_to 11000

$$$$
