AV-unprocessed.smi:231|AV-procd|sdf|1766|dock4
  -GOLD-   2262020303D 1   1.00000     0.00000
 Structure written by MMmdl.
 50 53  0  0  0  0  0  0  0  0  1 V2000
  146.6731  140.4429  156.5090 C   0  0  0  0  0  0  0  0  0  0  0  0
  147.6305  139.2649  156.2889 C   0  0  0  0  0  0  0  0  0  0  0  0
  147.8068  138.9172  154.8808 N   0  0  0  0  0  0  0  0  0  0  0  0
  147.3475  137.7026  154.4966 C   0  0  0  0  0  0  0  0  0  0  0  0
  147.4256  136.6892  155.3947 N   0  0  0  0  0  0  0  0  0  0  0  0
  146.9991  135.4672  155.0629 C   0  0  0  0  0  0  0  0  0  0  0  0
  146.4629  135.0541  153.9129 N   0  0  0  0  0  0  0  0  0  0  0  0
  146.3585  136.0780  153.0176 C   0  0  0  0  0  0  0  0  0  0  0  0
  146.7704  137.4243  153.2262 C   0  0  0  0  0  0  0  0  0  0  0  0
  146.5099  138.1784  152.0892 N   0  0  0  0  0  0  0  0  0  0  0  0
  145.9943  137.3234  151.2493 C   0  0  0  0  0  0  0  0  0  0  0  0
  145.8449  136.0434  151.7332 N   0  0  0  0  0  0  0  0  0  0  0  0
  145.3545  134.9026  151.0174 C   0  0  0  0  0  0  0  0  0  0  0  0
  144.5130  133.8231  151.7073 C   0  0  0  0  0  0  0  0  0  0  0  0
  145.1264  132.7639  150.7619 C   0  0  0  0  0  0  0  0  0  0  0  0
  145.4520  131.3905  151.3813 C   0  0  0  0  0  0  0  0  0  0  0  0
  146.7992  131.2866  151.7968 O   0  0  0  0  0  0  0  0  0  0  0  0
  144.2996  132.5034  149.4878 C   0  0  0  0  0  0  0  0  0  0  0  0
  143.1378  131.7485  149.7667 O   0  0  0  0  0  0  0  0  0  0  0  0
  146.2934  133.7663  150.6021 C   0  0  0  0  0  0  0  0  0  0  0  0
  148.2656  139.9043  153.8897 C   0  0  1  0  0  0  0  0  0  0  0  0
  147.1944  140.9607  153.5475 C   0  0  0  0  0  0  0  0  0  0  0  0
  147.6468  142.2528  154.2428 C   0  0  0  0  0  0  0  0  0  0  0  0
  149.0505  142.0336  154.5281 N   0  0  0  0  0  0  0  0  0  0  0  0
  149.4314  140.7664  154.3700 C   0  0  0  0  0  0  0  0  0  0  0  0
  150.5671  140.3364  154.5577 O   0  0  0  0  0  0  0  0  0  0  0  0
  146.5470  140.6402  157.5735 H   0  0  0  0  0  0  0  0  0  0  0  0
  145.6866  140.2391  156.0933 H   0  0  0  0  0  0  0  0  0  0  0  0
  147.0525  141.3562  156.0516 H   0  0  0  0  0  0  0  0  0  0  0  0
  148.6073  139.5058  156.7097 H   0  0  0  0  0  0  0  0  0  0  0  0
  147.2712  138.3984  156.8466 H   0  0  0  0  0  0  0  0  0  0  0  0
  147.1032  134.7122  155.8281 H   0  0  0  0  0  0  0  0  0  0  0  0
  145.7054  137.6085  150.2482 H   0  0  0  0  0  0  0  0  0  0  0  0
  144.8298  135.3023  150.1480 H   0  0  0  0  0  0  0  0  0  0  0  0
  144.7878  133.6898  152.7548 H   0  0  0  0  0  0  0  0  0  0  0  0
  143.4361  133.9597  151.6048 H   0  0  0  0  0  0  0  0  0  0  0  0
  144.8198  131.1968  152.2484 H   0  0  0  0  0  0  0  0  0  0  0  0
  145.2659  130.5851  150.6701 H   0  0  0  0  0  0  0  0  0  0  0  0
  147.2981  130.8890  151.0996 H   0  0  0  0  0  0  0  0  0  0  0  0
  144.0034  133.4400  149.0143 H   0  0  0  0  0  0  0  0  0  0  0  0
  144.8786  131.9573  148.7430 H   0  0  0  0  0  0  0  0  0  0  0  0
  142.3808  132.2717  149.5512 H   0  0  0  0  0  0  0  0  0  0  0  0
  146.6882  133.8591  149.5901 H   0  0  0  0  0  0  0  0  0  0  0  0
  147.1019  133.6157  151.3194 H   0  0  0  0  0  0  0  0  0  0  0  0
  148.5657  139.3787  152.9820 H   0  0  0  0  0  0  0  0  0  0  0  0
  147.1924  141.1224  152.4685 H   0  0  0  0  0  0  0  0  0  0  0  0
  146.1777  140.6746  153.8153 H   0  0  0  0  0  0  0  0  0  0  0  0
  147.4981  143.1332  153.6171 H   0  0  0  0  0  0  0  0  0  0  0  0
  147.1119  142.4001  155.1821 H   0  0  0  0  0  0  0  0  0  0  0  0
  149.6654  142.7742  154.8332 H   0  0  0  0  0  0  0  0  0  0  0  0
  1  2  1  0  0  0  0
  1 27  1  0  0  0  0
  1 28  1  0  0  0  0
  1 29  1  0  0  0  0
  2  3  1  0  0  0  0
  2 30  1  0  0  0  0
  2 31  1  0  0  0  0
  3  4  1  0  0  0  0
  3 21  1  0  0  0  0
  4  9  1  0  0  0  0
  4  5  2  0  0  0  0
  5  6  1  0  0  0  0
  6  7  2  0  0  0  0
  6 32  1  0  0  0  0
  7  8  1  0  0  0  0
  8 12  1  0  0  0  0
  8  9  2  0  0  0  0
  9 10  1  0  0  0  0
 10 11  2  0  0  0  0
 11 12  1  0  0  0  0
 11 33  1  0  0  0  0
 12 13  1  0  0  0  0
 13 20  1  0  0  0  0
 13 14  1  0  0  0  0
 13 34  1  0  0  0  0
 14 15  1  0  0  0  0
 14 35  1  0  0  0  0
 14 36  1  0  0  0  0
 15 16  1  0  0  0  0
 15 18  1  0  0  0  0
 15 20  1  0  0  0  0
 16 17  1  0  0  0  0
 16 37  1  0  0  0  0
 16 38  1  0  0  0  0
 17 39  1  0  0  0  0
 18 19  1  0  0  0  0
 18 40  1  0  0  0  0
 18 41  1  0  0  0  0
 19 42  1  0  0  0  0
 20 43  1  0  0  0  0
 20 44  1  0  0  0  0
 21 25  1  0  0  0  0
 21 22  1  0  0  0  0
 21 45  1  0  0  0  0
 22 23  1  0  0  0  0
 22 46  1  0  0  0  0
 22 47  1  0  0  0  0
 23 24  1  0  0  0  0
 23 48  1  0  0  0  0
 23 49  1  0  0  0  0
 24 25  1  0  0  0  0
 24 50  1  0  0  0  0
 25 26  2  0  0  0  0
M  END
> <s_m_source_file>
AV-unprocessed.smi

> <i_m_source_file_index>
231

> <i_lp_mmshare_version>
43012

> <i_f3d_flags>
0

> <s_epik_input>
Tz1DMVtOSF1bQ0gyXVtDSDJdW0NASF0xTihbQ0gyXVtDSDNdKWMobltjSF1uMiljKGMyMyluW2NIXW4zW0NIXShbQ0gyXTQpW0NIMl1DNChbQ0gyXVtPSF0pW0NIMl1bT0hd

> <s_epik_cmdline>
J2VwaWtfcHl0aG9uJywgJy1waCcsICc3LjAnLCAnLXRuJywgJzgnLCAnLW1hJywgJzIwMCcsICctbWV0YWxfYmluZGluZycsICctaW1hZScsICc8aW5maWxlLm1hZT4nLCAnLW9tYWUnLCAnPG91dGZpbGUubWFlPic=

> <r_lp_tautomer_probability>
1

> <r_epik_Ionization_Penalty>
0.000842899

> <r_epik_Ionization_Penalty_Charging>
0

> <r_epik_Ionization_Penalty_Neutral>
0.000842899

> <r_epik_State_Penalty>
0.000441286

> <r_epik_Charging_Adjusted_Penalty>
0.000441286

> <i_epik_Tot_Q>
0

> <i_epik_Tot_abs_Q>
0

> <r_epik_Metal_State_Penalty>
-0

> <b_epik_Metal_Only>
0

> <s_lp_Force_Field>
OPLS_2005

> <r_lp_Energy>
52.3391

> <b_lp_Chiralities_Consistent>
1

> <s_lp_Variant>
AV-unprocessed.smi:231-2

> <Gold.Version>
5.8.1

> <Gold.Id.Protein>
6NUR|6NUR_protein|mol2

> <Gold.PLP.Fitness>
46.9851

> <Gold.PLP.PLP>
-37.3984

> <Gold.PLP.part.hbond>
-5.0000

> <Gold.PLP.part.metal>
0.0000

> <Gold.PLP.part.buried>
-2.6571

> <Gold.PLP.part.nonpolar>
-31.3707

> <Gold.PLP.part.repulsive>
1.2070

> <Gold.PLP.ligand.clash>
0.0000

> <Gold.PLP.ligand.torsion>
2.2948

> <Gold.PLP.Chemscore.Hbond>
3.6640

> <Gold.PLP.Chemscore.CHOScore>
0.7660

> <Gold.PLP.Chemscore.Metal>
0.0000

> <Gold.Chemscore.Hbonds>
donor molecule, donor type, donor heavy atom, donor atom, acceptor molecule, acceptor atom, score
      L1  H    17    39       P1 10747  0.88
      L1  H    24    50       P1  8028  0.21
      P1  H  7989  7998       L1    26  1.00
      P1  H 10785 10796       L1    19  1.00
      L1  C    11    33       P1 10171  0.88

> <Gold.PLP.Chemscore.Internal.Correction>
0.8864

> <Gold.Rescore>
     Score         DG    S(hbond)    S(metal)    S(lipo)     H(rot)  DE(clash)    DE(int)     intcor
     10.53     -14.85       3.20        0.00      67.94       3.63       1.40       2.92       ----

> <Gold.Chemscore.Fitness>
10.5346

> <Gold.Chemscore.DG>
-14.8494

> <Gold.Chemscore.ZeroCoef>
-5.4800

> <Gold.Chemscore.Hbond>
3.2049

> <Gold.Chemscore.Metal>
0.0000

> <Gold.Chemscore.Lipo>
67.9365

> <Gold.Chemscore.Internal_Hbond>
0.0000

> <Gold.Chemscore.DEClash>
1.3983

> <Gold.Chemscore.DEInternal>
2.9165

> <Gold.Chemscore.Rot>
3.6264

> <Gold.Chemscore.Internal.Correction>
   9.000000E+99

> <Gold.Chemscore.Hbonds>
donor molecule, donor type, donor heavy atom, donor atom, acceptor molecule, acceptor atom, score
      L1  H    17    39       P1 10747  0.86
      L1  H    24    50       P1  8028  0.21
      P1  H  7989  7998       L1    26  0.83
      P1  H 10785 10796       L1    19  0.57

> <Gold.Chemscore.Hbond.Weighted>
-10.7044

> <Gold.Chemscore.Metal.Weighted>
-0.0000

> <Gold.Chemscore.Lipo.Weighted>
-7.9486

> <Gold.Chemscore.Internal_Hbond.Weighted>
0.0000

> <Gold.Chemscore.DEClash.Weighted>
1.3983

> <Gold.Chemscore.DEInternal.Weighted>
2.9165

> <Gold.Chemscore.Rot.Weighted>
9.2835

> <Gold.Chemscore.Internal.Correction.Weighted>
   9.000000E+99

> <Gold.Protein.RotatedTorsions>
[ 6907 6896 6895 6894 ] final  167.67 input  -60.11 | X-H torsion
[ 7974 7965 7964 7962 ] final -110.57 input  175.53 | X-H torsion
[ 8008 7997 7996 7995 ] final -135.55 input   59.86 | X-H torsion
[ 10167 10162 10161 10158 ] final   -8.96 input  -65.29 | X-H torsion
[ 10718 10713 10712 10709 ] final  142.62 input   66.30 | X-H torsion
[ 10763 10752 10751 10750 ] final  -46.60 input  -60.55 | X-H torsion
[ 11005 11000 10999 10996 ] final -175.04 input  -57.11 | X-H torsion

> <Gold.Protein.ActiveResidues>
 VAL166  LYS551  ARG553  GLY616  TRP617  ASP618  TYR619  PRO620  LYS621  CYS622 
 ASP623  PHE694  ASN695  SER759  ASP760  ASP761  ALA762  ILE779  LEU786  VAL792 
 PHE793  MET794  SER795  GLU796  ALA797  LYS798  CYS799  TRP800  GLU811  SER814 

> <Gold.Protein.RotatedAtoms>
  151.8597  133.3455  159.3699 H   0  0  0  0  0  0  0  0  0  0  0  0  # atno 6907 bound_to 6896
  150.7182  134.5218  159.5667 H   0  0  0  0  0  0  0  0  0  0  0  0  # atno 6908 bound_to 6896
  152.2729  134.7913  160.0462 H   0  0  0  0  0  0  0  0  0  0  0  0  # atno 6909 bound_to 6896
  145.1667  140.8905  143.3559 H   0  0  0  0  0  0  0  0  0  0  0  0  # atno 7974 bound_to 7965
  155.3804  140.0493  157.3043 H   0  0  0  0  0  0  0  0  0  0  0  0  # atno 8008 bound_to 7997
  154.5085  140.2183  155.9165 H   0  0  0  0  0  0  0  0  0  0  0  0  # atno 8009 bound_to 7997
  156.1554  140.3127  155.8723 H   0  0  0  0  0  0  0  0  0  0  0  0  # atno 8010 bound_to 7997
  140.7074  143.5911  150.8893 H   0  0  0  0  0  0  0  0  0  0  0  0  # atno 10167 bound_to 10162
  157.3784  131.0988  151.0762 H   0  0  0  0  0  0  0  0  0  0  0  0  # atno 10718 bound_to 10713
  154.0477  135.6635  153.4797 H   0  0  0  0  0  0  0  0  0  0  0  0  # atno 10763 bound_to 10752
  153.0476  135.5104  154.7781 H   0  0  0  0  0  0  0  0  0  0  0  0  # atno 10764 bound_to 10752
  154.6778  135.3040  154.9621 H   0  0  0  0  0  0  0  0  0  0  0  0  # atno 10765 bound_to 10752
  140.4677  134.6194  157.4869 H   0  0  0  0  0  0  0  0  0  0  0  0  # atno 11005 bound_to 11000
  145.0275  139.3370  143.6041 LP  0  0  0  0  0  0  0  0  0  0  0  0  # atno 17320 bound_to 7965
  146.3474  139.9600  142.8718 LP  0  0  0  0  0  0  0  0  0  0  0  0  # atno 17321 bound_to 7965
  139.9636  143.6135  152.2995 LP  0  0  0  0  0  0  0  0  0  0  0  0  # atno 17342 bound_to 10162
  139.6697  144.7661  151.1806 LP  0  0  0  0  0  0  0  0  0  0  0  0  # atno 17343 bound_to 10162
  157.1840  130.6322  149.5681 LP  0  0  0  0  0  0  0  0  0  0  0  0  # atno 17370 bound_to 10713
  155.9770  130.4744  150.6567 LP  0  0  0  0  0  0  0  0  0  0  0  0  # atno 17371 bound_to 10713
  139.9905  134.6993  155.9699 LP  0  0  0  0  0  0  0  0  0  0  0  0  # atno 17394 bound_to 11000
  141.1591  133.6540  156.4260 LP  0  0  0  0  0  0  0  0  0  0  0  0  # atno 17395 bound_to 11000

$$$$
