AV-unprocessed.smi:3194|AV-procd|sdf|12210|dock5
  -GOLD-   2272018 43D 1   1.00000     0.00000
 Structure written by MMmdl.
 28 28  0  0  0  0  0  0  0  0  1 V2000
  147.7953  141.5434  154.2880 C   0  0  0  0  0  0  0  0  0  0  0  0
  148.8441  140.4195  154.3546 C   0  0  2  0  0  0  0  0  0  0  0  0
  148.2681  139.0174  154.0819 C   0  0  0  0  0  0  0  0  0  0  0  0
  147.9737  138.8308  152.7121 O   0  0  0  0  0  0  0  0  0  0  0  0
  149.5514  140.4251  155.6321 N   0  0  0  0  0  0  0  0  0  0  0  0
  150.8801  140.5403  155.7960 C   0  0  0  0  0  0  0  0  0  0  0  0
  151.6651  140.6625  154.8547 O   0  0  0  0  0  0  0  0  0  0  0  0
  151.4045  140.5020  157.2394 C   0  0  0  0  0  0  0  0  0  0  0  0
  150.4965  139.8986  158.0103 F   0  0  0  0  0  0  0  0  0  0  0  0
  152.5236  139.7742  157.2832 F   0  0  0  0  0  0  0  0  0  0  0  0
  151.6742  141.9176  157.7429 C   0  0  0  0  0  0  0  0  0  0  0  0
  152.4006  142.1400  158.9351 C   0  0  0  0  0  0  0  0  0  0  0  0
  152.6095  143.4655  159.3620 C   0  0  0  0  0  0  0  0  0  0  0  0
  152.0863  144.5183  158.5879 C   0  0  0  0  0  0  0  0  0  0  0  0
  151.3725  144.1971  157.4169 C   0  0  0  0  0  0  0  0  0  0  0  0
  151.1660  142.9300  156.9994 N   0  0  0  0  0  0  0  0  0  0  0  0
  149.5772  140.6066  153.5678 H   0  0  0  0  0  0  0  0  0  0  0  0
  147.2659  141.5270  153.3350 H   0  0  0  0  0  0  0  0  0  0  0  0
  148.2624  142.5237  154.3864 H   0  0  0  0  0  0  0  0  0  0  0  0
  147.0544  141.4512  155.0829 H   0  0  0  0  0  0  0  0  0  0  0  0
  148.9913  138.2567  154.3774 H   0  0  0  0  0  0  0  0  0  0  0  0
  147.3683  138.8442  154.6737 H   0  0  0  0  0  0  0  0  0  0  0  0
  148.6448  139.2553  152.1997 H   0  0  0  0  0  0  0  0  0  0  0  0
  148.9831  140.3248  156.4613 H   0  0  0  0  0  0  0  0  0  0  0  0
  152.7867  141.3155  159.5160 H   0  0  0  0  0  0  0  0  0  0  0  0
  153.1598  143.6707  160.2682 H   0  0  0  0  0  0  0  0  0  0  0  0
  152.2270  145.5470  158.8850 H   0  0  0  0  0  0  0  0  0  0  0  0
  150.9552  144.9788  156.7994 H   0  0  0  0  0  0  0  0  0  0  0  0
  1  2  1  0  0  0  0
  1 18  1  0  0  0  0
  1 19  1  0  0  0  0
  1 20  1  0  0  0  0
  2 17  1  0  0  0  0
  2  3  1  0  0  0  0
  2  5  1  0  0  0  0
  3  4  1  0  0  0  0
  3 21  1  0  0  0  0
  3 22  1  0  0  0  0
  4 23  1  0  0  0  0
  5  6  1  0  0  0  0
  5 24  1  0  0  0  0
  6  7  2  0  0  0  0
  6  8  1  0  0  0  0
  8  9  1  0  0  0  0
  8 10  1  0  0  0  0
  8 11  1  0  0  0  0
 11 16  1  0  0  0  0
 11 12  2  0  0  0  0
 12 13  1  0  0  0  0
 12 25  1  0  0  0  0
 13 14  2  0  0  0  0
 13 26  1  0  0  0  0
 14 15  1  0  0  0  0
 14 27  1  0  0  0  0
 15 16  2  0  0  0  0
 15 28  1  0  0  0  0
M  END
> <s_m_source_file>
AV-unprocessed.smi

> <i_m_source_file_index>
3194

> <i_lp_mmshare_version>
43012

> <i_f3d_flags>
0

> <s_epik_input>
W09IXVtDSDJdW0NASF0oW0NIM10pW05IXUMoPU8pQyhGKShGKWMxW2NIXVtjSF1bY0hdW2NIXW4x

> <s_epik_cmdline>
J2VwaWtfcHl0aG9uJywgJy1waCcsICc3LjAnLCAnLXRuJywgJzgnLCAnLW1hJywgJzIwMCcsICctbWV0YWxfYmluZGluZycsICctaW1hZScsICc8aW5maWxlLm1hZT4nLCAnLW9tYWUnLCAnPG91dGZpbGUubWFlPic=

> <r_lp_tautomer_probability>
1

> <r_epik_Ionization_Penalty>
3.67967e-05

> <r_epik_Ionization_Penalty_Charging>
0

> <r_epik_Ionization_Penalty_Neutral>
3.67967e-05

> <r_epik_State_Penalty>
-0

> <r_epik_Charging_Adjusted_Penalty>
0

> <i_epik_Tot_Q>
0

> <i_epik_Tot_abs_Q>
0

> <r_epik_Metal_State_Penalty>
0.0311521

> <b_epik_Metal_Only>
0

> <s_lp_Force_Field>
OPLS_2005

> <r_lp_Energy>
12.3204

> <b_lp_Chiralities_Consistent>
1

> <s_lp_Variant>
AV-unprocessed.smi:3194-2

> <Gold.Version>
5.8.1

> <Gold.Id.Protein>
6NUR|6NUR_protein|mol2

> <Gold.PLP.Fitness>
39.4687

> <Gold.PLP.PLP>
-35.0282

> <Gold.PLP.part.hbond>
-3.0000

> <Gold.PLP.part.metal>
0.0000

> <Gold.PLP.part.buried>
-3.9787

> <Gold.PLP.part.nonpolar>
-29.4681

> <Gold.PLP.part.repulsive>
0.2105

> <Gold.PLP.ligand.clash>
0.0000

> <Gold.PLP.ligand.torsion>
1.5021

> <Gold.PLP.Chemscore.Hbond>
1.8480

> <Gold.PLP.Chemscore.CHOScore>
0.6183

> <Gold.PLP.Chemscore.Metal>
0.0000

> <Gold.Chemscore.Hbonds>
donor molecule, donor type, donor heavy atom, donor atom, acceptor molecule, acceptor atom, score
      L1  H     4    23       P1  7957  1.00
      P1  H  7989  7998       L1     7  0.43
      L1  C    15    28       P1  8028  0.87

> <Gold.PLP.Chemscore.Internal.Correction>
0.0456

> <Gold.Rescore>
     Score         DG    S(hbond)    S(metal)    S(lipo)     H(rot)  DE(clash)    DE(int)     intcor
     13.32     -14.74       1.93        0.00      78.63       2.50       0.02       1.40       ----

> <Gold.Chemscore.Fitness>
13.3240

> <Gold.Chemscore.DG>
-14.7439

> <Gold.Chemscore.ZeroCoef>
-5.4800

> <Gold.Chemscore.Hbond>
1.9332

> <Gold.Chemscore.Metal>
0.0000

> <Gold.Chemscore.Lipo>
78.6257

> <Gold.Chemscore.Internal_Hbond>
0.0000

> <Gold.Chemscore.DEClash>
0.0170

> <Gold.Chemscore.DEInternal>
1.4029

> <Gold.Chemscore.Rot>
2.4970

> <Gold.Chemscore.Internal.Correction>
   9.000000E+99

> <Gold.Chemscore.Hbonds>
donor molecule, donor type, donor heavy atom, donor atom, acceptor molecule, acceptor atom, score
      L1  H     4    23       P1  7957  0.99
      P1  H  7989  7998       L1     7  0.42

> <Gold.Chemscore.Hbond.Weighted>
-6.4569

> <Gold.Chemscore.Metal.Weighted>
-0.0000

> <Gold.Chemscore.Lipo.Weighted>
-9.1992

> <Gold.Chemscore.Internal_Hbond.Weighted>
0.0000

> <Gold.Chemscore.DEClash.Weighted>
0.0170

> <Gold.Chemscore.DEInternal.Weighted>
1.4029

> <Gold.Chemscore.Rot.Weighted>
6.3922

> <Gold.Chemscore.Internal.Correction.Weighted>
   9.000000E+99

> <Gold.Protein.RotatedTorsions>
[ 6907 6896 6895 6894 ] final -160.22 input  -60.11 | X-H torsion
[ 7974 7965 7964 7962 ] final  -66.67 input  175.53 | X-H torsion
[ 8008 7997 7996 7995 ] final   16.35 input   59.86 | X-H torsion
[ 10167 10162 10161 10158 ] final  157.10 input  -65.29 | X-H torsion
[ 10718 10713 10712 10709 ] final -129.53 input   66.30 | X-H torsion
[ 10763 10752 10751 10750 ] final  -62.29 input  -60.55 | X-H torsion
[ 11005 11000 10999 10996 ] final  -63.27 input  -57.11 | X-H torsion

> <Gold.Protein.ActiveResidues>
 VAL166  LYS551  ARG553  GLY616  TRP617  ASP618  TYR619  PRO620  LYS621  CYS622 
 ASP623  PHE694  ASN695  SER759  ASP760  ASP761  ALA762  ILE779  LEU786  VAL792 
 PHE793  MET794  SER795  GLU796  ALA797  LYS798  CYS799  TRP800  GLU811  SER814 

> <Gold.Protein.RotatedAtoms>
  151.3457  133.3945  159.2675 H   0  0  0  0  0  0  0  0  0  0  0  0  # atno 6907 bound_to 6896
  150.9841  134.9191  159.7872 H   0  0  0  0  0  0  0  0  0  0  0  0  # atno 6908 bound_to 6896
  152.5227  134.3421  159.9273 H   0  0  0  0  0  0  0  0  0  0  0  0  # atno 6909 bound_to 6896
  145.7388  140.8963  143.0541 H   0  0  0  0  0  0  0  0  0  0  0  0  # atno 7974 bound_to 7965
  154.8757  140.2965  155.5455 H   0  0  0  0  0  0  0  0  0  0  0  0  # atno 8008 bound_to 7997
  156.3022  140.2452  156.3686 H   0  0  0  0  0  0  0  0  0  0  0  0  # atno 8009 bound_to 7997
  154.8770  140.0399  157.1748 H   0  0  0  0  0  0  0  0  0  0  0  0  # atno 8010 bound_to 7997
  139.4822  144.4948  151.8255 H   0  0  0  0  0  0  0  0  0  0  0  0  # atno 10167 bound_to 10162
  156.2056  130.6885  151.0590 H   0  0  0  0  0  0  0  0  0  0  0  0  # atno 10718 bound_to 10713
  154.2976  135.6241  153.5411 H   0  0  0  0  0  0  0  0  0  0  0  0  # atno 10763 bound_to 10752
  152.9844  135.5670  154.5320 H   0  0  0  0  0  0  0  0  0  0  0  0  # atno 10764 bound_to 10752
  154.4944  135.2869  155.1447 H   0  0  0  0  0  0  0  0  0  0  0  0  # atno 10765 bound_to 10752
  141.1387  133.6650  156.5654 H   0  0  0  0  0  0  0  0  0  0  0  0  # atno 11005 bound_to 11000
  144.6875  139.9432  143.7476 LP  0  0  0  0  0  0  0  0  0  0  0  0  # atno 17320 bound_to 7965
  146.0467  139.3473  143.0664 LP  0  0  0  0  0  0  0  0  0  0  0  0  # atno 17321 bound_to 7965
  140.4436  144.1953  150.5892 LP  0  0  0  0  0  0  0  0  0  0  0  0  # atno 17342 bound_to 10162
  140.4658  143.2431  151.9157 LP  0  0  0  0  0  0  0  0  0  0  0  0  # atno 17343 bound_to 10162
  157.7010  131.0776  150.6820 LP  0  0  0  0  0  0  0  0  0  0  0  0  # atno 17370 bound_to 10713
  156.6878  130.4586  149.5608 LP  0  0  0  0  0  0  0  0  0  0  0  0  # atno 17371 bound_to 10713
  140.3955  134.7403  157.4748 LP  0  0  0  0  0  0  0  0  0  0  0  0  # atno 17394 bound_to 11000
  140.0534  134.6097  155.8834 LP  0  0  0  0  0  0  0  0  0  0  0  0  # atno 17395 bound_to 11000

$$$$
