AV-unprocessed.smi:2838|AV-procd|sdf|10928|dock2
  -GOLD-   2272015373D 1   1.00000     0.00000
 Structure written by MMmdl.
 48 49  0  0  0  0  0  0  0  0  1 V2000
  148.1216  140.9853  153.9792 C   0  0  0  0  0  0  0  0  0  0  0  0
  146.7542  140.9651  154.6838 C   0  0  2  0  0  0  0  0  0  0  0  0
  145.8619  140.1094  153.8997 N   0  0  0  0  0  0  0  0  0  0  0  0
  146.0369  138.8016  153.6575 C   0  0  0  0  0  0  0  0  0  0  0  0
  146.9762  138.1437  154.1043 O   0  0  0  0  0  0  0  0  0  0  0  0
  145.0690  138.3224  152.8584 N   0  0  0  0  0  0  0  0  0  0  0  0
  144.8970  136.9897  152.3992 C   0  0  0  0  0  0  0  0  0  0  0  0
  143.6489  136.3407  152.2473 C   0  0  0  0  0  0  0  0  0  0  0  0
  143.5611  135.0745  151.7875 N   0  0  0  0  0  0  0  0  0  0  0  0
  144.6969  134.4542  151.4416 C   0  0  0  0  0  0  0  0  0  0  0  0
  144.5960  132.9633  151.0737 C   0  0  0  0  0  0  0  0  0  0  0  0
  143.1208  132.5027  151.0018 C   0  0  0  0  0  0  0  0  0  0  0  0
  145.2674  132.0800  152.1514 C   0  0  0  0  0  0  0  0  0  0  0  0
  145.2738  132.7255  149.7117 C   0  0  0  0  0  0  0  0  0  0  0  0
  145.9261  134.9702  151.5738 N   0  0  0  0  0  0  0  0  0  0  0  0
  146.0286  136.2370  152.0278 C   0  0  0  0  0  0  0  0  0  0  0  0
  146.1442  142.3810  154.8765 C   0  0  0  0  0  0  0  0  0  0  0  0
  144.7614  142.3393  155.5599 C   0  0  0  0  0  0  0  0  0  0  0  0
  144.1481  143.7443  155.6719 C   0  0  0  0  0  0  0  0  0  0  0  0
  144.0501  144.3380  154.3839 O   0  0  0  0  0  0  0  0  0  0  0  0
  145.3187  144.5196  153.7686 C   0  0  0  0  0  0  0  0  0  0  0  0
  145.9970  143.1578  153.5501 C   0  0  0  0  0  0  0  0  0  0  0  0
  148.8817  141.4790  154.5838 H   0  0  0  0  0  0  0  0  0  0  0  0
  148.0674  141.5009  153.0197 H   0  0  0  0  0  0  0  0  0  0  0  0
  148.4791  139.9722  153.7911 H   0  0  0  0  0  0  0  0  0  0  0  0
  146.9078  140.5227  155.6698 H   0  0  0  0  0  0  0  0  0  0  0  0
  145.0580  140.5596  153.4872 H   0  0  0  0  0  0  0  0  0  0  0  0
  144.4131  138.9977  152.4939 H   0  0  0  0  0  0  0  0  0  0  0  0
  142.7105  136.8219  152.4747 H   0  0  0  0  0  0  0  0  0  0  0  0
  143.0477  131.4352  150.7902 H   0  0  0  0  0  0  0  0  0  0  0  0
  142.5704  133.0171  150.2135 H   0  0  0  0  0  0  0  0  0  0  0  0
  142.6007  132.6863  151.9428 H   0  0  0  0  0  0  0  0  0  0  0  0
  144.8268  132.2496  153.1347 H   0  0  0  0  0  0  0  0  0  0  0  0
  146.3376  132.2731  152.2305 H   0  0  0  0  0  0  0  0  0  0  0  0
  145.1563  131.0197  151.9220 H   0  0  0  0  0  0  0  0  0  0  0  0
  145.2233  131.6765  149.4185 H   0  0  0  0  0  0  0  0  0  0  0  0
  146.3264  133.0094  149.7382 H   0  0  0  0  0  0  0  0  0  0  0  0
  144.7958  133.3109  148.9252 H   0  0  0  0  0  0  0  0  0  0  0  0
  147.0253  136.6457  152.1074 H   0  0  0  0  0  0  0  0  0  0  0  0
  146.8164  142.9519  155.5192 H   0  0  0  0  0  0  0  0  0  0  0  0
  144.0878  141.6955  154.9927 H   0  0  0  0  0  0  0  0  0  0  0  0
  144.8348  141.9113  156.5590 H   0  0  0  0  0  0  0  0  0  0  0  0
  143.1502  143.6829  156.1064 H   0  0  0  0  0  0  0  0  0  0  0  0
  144.7434  144.3769  156.3322 H   0  0  0  0  0  0  0  0  0  0  0  0
  145.1767  145.0245  152.8130 H   0  0  0  0  0  0  0  0  0  0  0  0
  145.9431  145.1711  154.3821 H   0  0  0  0  0  0  0  0  0  0  0  0
  146.9695  143.3227  153.0869 H   0  0  0  0  0  0  0  0  0  0  0  0
  145.4109  142.5709  152.8418 H   0  0  0  0  0  0  0  0  0  0  0  0
  1  2  1  0  0  0  0
  1 23  1  0  0  0  0
  1 24  1  0  0  0  0
  1 25  1  0  0  0  0
  2  3  1  0  0  0  0
  2 17  1  0  0  0  0
  2 26  1  0  0  0  0
  3  4  1  0  0  0  0
  3 27  1  0  0  0  0
  4  5  2  0  0  0  0
  4  6  1  0  0  0  0
  6  7  1  0  0  0  0
  6 28  1  0  0  0  0
  7 16  1  0  0  0  0
  7  8  2  0  0  0  0
  8  9  1  0  0  0  0
  8 29  1  0  0  0  0
  9 10  2  0  0  0  0
 10 11  1  0  0  0  0
 10 15  1  0  0  0  0
 11 12  1  0  0  0  0
 11 13  1  0  0  0  0
 11 14  1  0  0  0  0
 12 30  1  0  0  0  0
 12 31  1  0  0  0  0
 12 32  1  0  0  0  0
 13 33  1  0  0  0  0
 13 34  1  0  0  0  0
 13 35  1  0  0  0  0
 14 36  1  0  0  0  0
 14 37  1  0  0  0  0
 14 38  1  0  0  0  0
 15 16  2  0  0  0  0
 16 39  1  0  0  0  0
 17 22  1  0  0  0  0
 17 18  1  0  0  0  0
 17 40  1  0  0  0  0
 18 19  1  0  0  0  0
 18 41  1  0  0  0  0
 18 42  1  0  0  0  0
 19 20  1  0  0  0  0
 19 43  1  0  0  0  0
 19 44  1  0  0  0  0
 20 21  1  0  0  0  0
 21 22  1  0  0  0  0
 21 45  1  0  0  0  0
 21 46  1  0  0  0  0
 22 47  1  0  0  0  0
 22 48  1  0  0  0  0
M  END
> <s_m_source_file>
AV-unprocessed.smi

> <i_m_source_file_index>
2838

> <i_lp_mmshare_version>
43012

> <i_f3d_flags>
0

> <s_epik_input>
W0NIMl0xW0NIMl1PW0NIMl1bQ0gyXVtDSF0xW0NASF0oW0NIM10pW05IXUMoPU8pW05IXWMyW2NIXW5jKEMoW0NIM10pKFtDSDNdKVtDSDNdKW5bY0hdMg==

> <s_epik_cmdline>
J2VwaWtfcHl0aG9uJywgJy1waCcsICc3LjAnLCAnLXRuJywgJzgnLCAnLW1hJywgJzIwMCcsICctbWV0YWxfYmluZGluZycsICctaW1hZScsICc8aW5maWxlLm1hZT4nLCAnLW9tYWUnLCAnPG91dGZpbGUubWFlPic=

> <r_lp_tautomer_probability>
1

> <r_epik_Ionization_Penalty>
2.74753e-05

> <r_epik_Ionization_Penalty_Charging>
0

> <r_epik_Ionization_Penalty_Neutral>
2.74753e-05

> <r_epik_State_Penalty>
-0

> <r_epik_Charging_Adjusted_Penalty>
0

> <i_epik_Tot_Q>
0

> <i_epik_Tot_abs_Q>
0

> <r_epik_Metal_State_Penalty>
-0

> <b_epik_Metal_Only>
0

> <s_lp_Force_Field>
OPLS_2005

> <r_lp_Energy>
9.68517

> <b_lp_Chiralities_Consistent>
1

> <s_lp_Variant>
AV-unprocessed.smi:2838-1

> <Gold.Version>
5.8.1

> <Gold.Id.Protein>
6NUR|6NUR_protein|mol2

> <Gold.PLP.Fitness>
40.1946

> <Gold.PLP.PLP>
-32.2187

> <Gold.PLP.part.hbond>
-2.2734

> <Gold.PLP.part.metal>
0.0000

> <Gold.PLP.part.buried>
-1.4441

> <Gold.PLP.part.nonpolar>
-28.0220

> <Gold.PLP.part.repulsive>
0.6534

> <Gold.PLP.ligand.clash>
0.0000

> <Gold.PLP.ligand.torsion>
0.4318

> <Gold.PLP.Chemscore.Hbond>
1.9920

> <Gold.PLP.Chemscore.CHOScore>
0.9026

> <Gold.PLP.Chemscore.Metal>
0.0000

> <Gold.Chemscore.Hbonds>
donor molecule, donor type, donor heavy atom, donor atom, acceptor molecule, acceptor atom, score
      L1  H     3    27       P1 10175  1.00
      L1  H     6    28       P1 10175  1.00
      L1  C    16    39       P1  7948  0.85

> <Gold.PLP.Chemscore.Internal.Correction>
0.1556

> <Gold.Rescore>
     Score         DG    S(hbond)    S(metal)    S(lipo)     H(rot)  DE(clash)    DE(int)     intcor
     15.30     -18.40       1.94        0.00      84.32       1.34       1.46       1.64       ----

> <Gold.Chemscore.Fitness>
15.3026

> <Gold.Chemscore.DG>
-18.3975

> <Gold.Chemscore.ZeroCoef>
-5.4800

> <Gold.Chemscore.Hbond>
1.9374

> <Gold.Chemscore.Metal>
0.0000

> <Gold.Chemscore.Lipo>
84.3164

> <Gold.Chemscore.Internal_Hbond>
0.0000

> <Gold.Chemscore.DEClash>
1.4569

> <Gold.Chemscore.DEInternal>
1.6380

> <Gold.Chemscore.Rot>
1.3354

> <Gold.Chemscore.Internal.Correction>
   9.000000E+99

> <Gold.Chemscore.Hbonds>
donor molecule, donor type, donor heavy atom, donor atom, acceptor molecule, acceptor atom, score
      L1  H     3    27       P1 10175  0.93
      L1  H     6    28       P1 10175  0.97

> <Gold.Chemscore.Hbond.Weighted>
-6.4710

> <Gold.Chemscore.Metal.Weighted>
-0.0000

> <Gold.Chemscore.Lipo.Weighted>
-9.8650

> <Gold.Chemscore.Internal_Hbond.Weighted>
0.0000

> <Gold.Chemscore.DEClash.Weighted>
1.4569

> <Gold.Chemscore.DEInternal.Weighted>
1.6380

> <Gold.Chemscore.Rot.Weighted>
3.4185

> <Gold.Chemscore.Internal.Correction.Weighted>
   9.000000E+99

> <Gold.Protein.RotatedTorsions>
[ 6907 6896 6895 6894 ] final   65.11 input  -60.11 | X-H torsion
[ 7974 7965 7964 7962 ] final  -68.08 input  175.53 | X-H torsion
[ 8008 7997 7996 7995 ] final  133.42 input   59.86 | X-H torsion
[ 10167 10162 10161 10158 ] final  -17.01 input  -65.29 | X-H torsion
[ 10718 10713 10712 10709 ] final   77.12 input   66.30 | X-H torsion
[ 10763 10752 10751 10750 ] final  -66.67 input  -60.55 | X-H torsion
[ 11005 11000 10999 10996 ] final  164.32 input  -57.11 | X-H torsion

> <Gold.Protein.ActiveResidues>
 VAL166  LYS551  ARG553  GLY616  TRP617  ASP618  TYR619  PRO620  LYS621  CYS622 
 ASP623  PHE694  ASN695  SER759  ASP760  ASP761  ALA762  ILE779  LEU786  VAL792 
 PHE793  MET794  SER795  GLU796  ALA797  LYS798  CYS799  TRP800  GLU811  SER814 

> <Gold.Protein.RotatedAtoms>
  152.4383  134.5642  159.9902 H   0  0  0  0  0  0  0  0  0  0  0  0  # atno 6907 bound_to 6896
  151.5746  133.3379  159.3004 H   0  0  0  0  0  0  0  0  0  0  0  0  # atno 6908 bound_to 6896
  150.8285  134.7561  159.6897 H   0  0  0  0  0  0  0  0  0  0  0  0  # atno 6909 bound_to 6896
  145.7210  140.9038  143.0630 H   0  0  0  0  0  0  0  0  0  0  0  0  # atno 7974 bound_to 7965
  156.2992  140.2522  156.3250 H   0  0  0  0  0  0  0  0  0  0  0  0  # atno 8008 bound_to 7997
  154.9199  140.0401  157.2011 H   0  0  0  0  0  0  0  0  0  0  0  0  # atno 8009 bound_to 7997
  154.8322  140.2877  155.5719 H   0  0  0  0  0  0  0  0  0  0  0  0  # atno 8010 bound_to 7997
  140.7241  143.5059  150.9811 H   0  0  0  0  0  0  0  0  0  0  0  0  # atno 10167 bound_to 10162
  157.6699  130.9807  150.1596 H   0  0  0  0  0  0  0  0  0  0  0  0  # atno 10718 bound_to 10713
  154.3632  135.6111  153.5701 H   0  0  0  0  0  0  0  0  0  0  0  0  # atno 10763 bound_to 10752
  152.9793  135.5820  154.4609 H   0  0  0  0  0  0  0  0  0  0  0  0  # atno 10764 bound_to 10752
  154.4350  135.2849  155.1864 H   0  0  0  0  0  0  0  0  0  0  0  0  # atno 10765 bound_to 10752
  140.2448  134.8023  157.3445 H   0  0  0  0  0  0  0  0  0  0  0  0  # atno 11005 bound_to 11000
  144.6916  139.9203  143.7467 LP  0  0  0  0  0  0  0  0  0  0  0  0  # atno 17320 bound_to 7965
  146.0625  139.3618  143.0572 LP  0  0  0  0  0  0  0  0  0  0  0  0  # atno 17321 bound_to 7965
  139.8770  143.7120  152.3161 LP  0  0  0  0  0  0  0  0  0  0  0  0  # atno 17342 bound_to 10162
  139.7389  144.7564  151.0684 LP  0  0  0  0  0  0  0  0  0  0  0  0  # atno 17343 bound_to 10162
  156.2375  130.3688  149.8374 LP  0  0  0  0  0  0  0  0  0  0  0  0  # atno 17370 bound_to 10713
  156.6184  130.8616  151.3470 LP  0  0  0  0  0  0  0  0  0  0  0  0  # atno 17371 bound_to 10713
  140.1617  134.4720  155.7890 LP  0  0  0  0  0  0  0  0  0  0  0  0  # atno 17394 bound_to 11000
  141.2207  133.6904  156.7556 LP  0  0  0  0  0  0  0  0  0  0  0  0  # atno 17395 bound_to 11000

$$$$
