AV-unprocessed.smi:40|AV-procd|sdf|377|dock7
  -GOLD-   2262016223D 1   1.00000     0.00000
 Structure written by MMmdl.
 47 48  0  0  0  0  0  0  0  0  1 V2000
  145.5754  132.9669  151.2277 C   0  0  0  0  0  0  0  0  0  0  0  0
  146.5097  132.0355  152.0075 C   0  0  0  0  0  0  0  0  0  0  0  0
  147.5441  132.8034  152.8430 C   0  0  0  0  0  0  0  0  0  0  0  0
  148.4803  131.8720  153.6244 C   0  0  0  0  0  0  0  0  0  0  0  0
  149.5118  132.6489  154.4574 C   0  0  0  0  0  0  0  0  0  0  0  0
  149.3863  134.0481  154.2429 O   0  0  0  0  0  0  0  0  0  0  0  0
  150.0655  134.9310  155.0074 C   0  0  0  0  0  0  0  0  0  0  0  0
  150.7545  134.6168  155.9778 O   0  0  0  0  0  0  0  0  0  0  0  0
  149.8424  136.2986  154.5711 N   0  0  0  0  0  0  0  0  0  0  0  0
  150.3473  137.4459  155.0846 C   0  0  0  0  0  0  0  0  0  0  0  0
  151.4921  137.9655  154.6688 N   0  0  0  0  0  0  0  0  0  0  0  0
  152.0398  139.1136  155.1758 C   0  0  0  0  0  0  0  0  0  0  0  0
  153.0960  139.5568  154.7275 O   0  0  0  0  0  0  0  0  0  0  0  0
  151.3352  139.7621  156.2173 N   0  0  0  0  0  0  0  0  0  0  0  0
  151.8877  141.0361  156.8181 C   0  0  2  0  0  0  0  0  0  0  0  0
  151.9799  140.8533  158.2000 O   0  0  0  0  0  0  0  0  0  0  0  0
  151.5328  142.0222  158.8740 C   0  0  1  0  0  0  0  0  0  0  0  0
  152.7471  142.9404  159.1123 C   0  0  0  0  0  0  0  0  0  0  0  0
  150.4526  142.5824  157.9382 C   0  0  1  0  0  0  0  0  0  0  0  0
  150.2465  143.9692  158.1243 O   0  0  0  0  0  0  0  0  0  0  0  0
  150.9933  142.2695  156.5493 C   0  0  2  0  0  0  0  0  0  0  0  0
  149.9372  142.0437  155.6316 O   0  0  0  0  0  0  0  0  0  0  0  0
  150.1427  139.2260  156.6781 C   0  0  0  0  0  0  0  0  0  0  0  0
  149.6243  138.0933  156.1580 C   0  0  0  0  0  0  0  0  0  0  0  0
  148.4673  137.5910  156.6228 F   0  0  0  0  0  0  0  0  0  0  0  0
  152.8983  141.1633  156.4287 H   0  0  0  0  0  0  0  0  0  0  0  0
  151.1031  141.7458  159.8373 H   0  0  0  0  0  0  0  0  0  0  0  0
  149.5183  142.0459  158.1116 H   0  0  0  0  0  0  0  0  0  0  0  0
  151.6331  143.0757  156.1873 H   0  0  0  0  0  0  0  0  0  0  0  0
  144.8562  132.3937  150.6421 H   0  0  0  0  0  0  0  0  0  0  0  0
  146.1360  133.5999  150.5391 H   0  0  0  0  0  0  0  0  0  0  0  0
  145.0148  133.6162  151.9006 H   0  0  0  0  0  0  0  0  0  0  0  0
  145.9157  131.3933  152.6588 H   0  0  0  0  0  0  0  0  0  0  0  0
  147.0223  131.3749  151.3072 H   0  0  0  0  0  0  0  0  0  0  0  0
  148.1362  133.4431  152.1874 H   0  0  0  0  0  0  0  0  0  0  0  0
  147.0295  133.4664  153.5396 H   0  0  0  0  0  0  0  0  0  0  0  0
  147.8917  131.2323  154.2831 H   0  0  0  0  0  0  0  0  0  0  0  0
  148.9942  131.2090  152.9274 H   0  0  0  0  0  0  0  0  0  0  0  0
  149.4169  132.4086  155.5176 H   0  0  0  0  0  0  0  0  0  0  0  0
  150.5180  132.3525  154.1611 H   0  0  0  0  0  0  0  0  0  0  0  0
  149.2614  136.3808  153.7494 H   0  0  0  0  0  0  0  0  0  0  0  0
  152.4628  143.8407  159.6572 H   0  0  0  0  0  0  0  0  0  0  0  0
  153.2126  143.2501  158.1763 H   0  0  0  0  0  0  0  0  0  0  0  0
  153.5057  142.4288  159.7050 H   0  0  0  0  0  0  0  0  0  0  0  0
  149.6987  144.2882  157.4235 H   0  0  0  0  0  0  0  0  0  0  0  0
  149.5068  142.8673  155.4621 H   0  0  0  0  0  0  0  0  0  0  0  0
  149.6027  139.7204  157.4725 H   0  0  0  0  0  0  0  0  0  0  0  0
  1  2  1  0  0  0  0
  1 30  1  0  0  0  0
  1 31  1  0  0  0  0
  1 32  1  0  0  0  0
  2  3  1  0  0  0  0
  2 33  1  0  0  0  0
  2 34  1  0  0  0  0
  3  4  1  0  0  0  0
  3 35  1  0  0  0  0
  3 36  1  0  0  0  0
  4  5  1  0  0  0  0
  4 37  1  0  0  0  0
  4 38  1  0  0  0  0
  5  6  1  0  0  0  0
  5 39  1  0  0  0  0
  5 40  1  0  0  0  0
  6  7  1  0  0  0  0
  7  8  2  0  0  0  0
  7  9  1  0  0  0  0
  9 10  1  0  0  0  0
  9 41  1  0  0  0  0
 10 24  1  0  0  0  0
 10 11  2  0  0  0  0
 11 12  1  0  0  0  0
 12 13  2  0  0  0  0
 12 14  1  0  0  0  0
 14 15  1  0  0  0  0
 14 23  1  0  0  0  0
 15 26  1  0  0  0  0
 15 21  1  0  0  0  0
 15 16  1  0  0  0  0
 16 17  1  0  0  0  0
 17 27  1  0  0  0  0
 17 18  1  0  0  0  0
 17 19  1  0  0  0  0
 18 42  1  0  0  0  0
 18 43  1  0  0  0  0
 18 44  1  0  0  0  0
 19 28  1  0  0  0  0
 19 20  1  0  0  0  0
 19 21  1  0  0  0  0
 20 45  1  0  0  0  0
 21 29  1  0  0  0  0
 21 22  1  0  0  0  0
 22 46  1  0  0  0  0
 23 24  2  0  0  0  0
 23 47  1  0  0  0  0
 24 25  1  0  0  0  0
M  END
> <s_m_source_file>
AV-unprocessed.smi

> <i_m_source_file_index>
40

> <i_lp_mmshare_version>
43012

> <i_f3d_flags>
0

> <s_epik_input>
W0NIM11bQ0gyXVtDSDJdW0NIMl1bQ0gyXU9DKD1PKVtOSF1jMW5jKD1PKW4oW2NIXWMxRilbQ0BASF0yT1tDQEhdKFtDSDNdKVtDQEBIXShbT0hdKVtDQEhdMltPSF0=

> <s_epik_cmdline>
J2VwaWtfcHl0aG9uJywgJy1waCcsICc3LjAnLCAnLXRuJywgJzgnLCAnLW1hJywgJzIwMCcsICctbWV0YWxfYmluZGluZycsICctaW1hZScsICc8aW5maWxlLm1hZT4nLCAnLW9tYWUnLCAnPG91dGZpbGUubWFlPic=

> <r_lp_tautomer_probability>
1

> <r_epik_Ionization_Penalty>
2.29506e-06

> <r_epik_Ionization_Penalty_Charging>
8.26867e-09

> <r_epik_Ionization_Penalty_Neutral>
2.2868e-06

> <r_epik_State_Penalty>
-0

> <r_epik_Charging_Adjusted_Penalty>
8.26867e-09

> <i_epik_Tot_Q>
0

> <i_epik_Tot_abs_Q>
0

> <r_epik_Metal_State_Penalty>
-0

> <b_epik_Metal_Only>
0

> <s_epik_Chemistry_Notes>
This compound has an ester and may undergo hydrolysis at high or low pH. This compound contains an acetal/aminal-like group ( X-CH(R)-Y where X, Y are N, S, or O) that may be acid/base labile, releasing an aldehyde.

> <s_lp_Force_Field>
OPLS_2005

> <r_lp_Energy>
38.4453

> <b_lp_Chiralities_Consistent>
1

> <s_lp_Variant>
AV-unprocessed.smi:40-11

> <Gold.Version>
5.8.1

> <Gold.Id.Protein>
6NUR|6NUR_protein|mol2

> <Gold.PLP.Fitness>
50.7522

> <Gold.PLP.PLP>
-41.0063

> <Gold.PLP.part.hbond>
-5.6798

> <Gold.PLP.part.metal>
0.0000

> <Gold.PLP.part.buried>
-6.8303

> <Gold.PLP.part.nonpolar>
-28.4778

> <Gold.PLP.part.repulsive>
0.5992

> <Gold.PLP.ligand.clash>
0.0000

> <Gold.PLP.ligand.torsion>
1.2232

> <Gold.PLP.Chemscore.Hbond>
4.0143

> <Gold.PLP.Chemscore.CHOScore>
0.0000

> <Gold.PLP.Chemscore.Metal>
0.0000

> <Gold.Chemscore.Hbonds>
donor molecule, donor type, donor heavy atom, donor atom, acceptor molecule, acceptor atom, score
      L1  H     9    41       P1  7948  1.00
      L1  H    20    45       P1  8028  0.95
      L1  H    22    46       P1  8028  1.00
      P1  H  7989  7998       L1    13  0.02
      P1  H  7997  8008       L1    13  1.00

> <Gold.PLP.Chemscore.Internal.Correction>
0.1495

> <Gold.Rescore>
     Score         DG    S(hbond)    S(metal)    S(lipo)     H(rot)  DE(clash)    DE(int)     intcor
     12.40     -14.78       3.16        0.00      70.23       3.70       0.23       2.15       ----

> <Gold.Chemscore.Fitness>
12.4033

> <Gold.Chemscore.DG>
-14.7777

> <Gold.Chemscore.ZeroCoef>
-5.4800

> <Gold.Chemscore.Hbond>
3.1562

> <Gold.Chemscore.Metal>
0.0000

> <Gold.Chemscore.Lipo>
70.2314

> <Gold.Chemscore.Internal_Hbond>
0.0000

> <Gold.Chemscore.DEClash>
0.2292

> <Gold.Chemscore.DEInternal>
2.1452

> <Gold.Chemscore.Rot>
3.6957

> <Gold.Chemscore.Internal.Correction>
   9.000000E+99

> <Gold.Chemscore.Hbonds>
donor molecule, donor type, donor heavy atom, donor atom, acceptor molecule, acceptor atom, score
      L1  H     9    41       P1  7948  0.88
      L1  H    20    45       P1  8028  0.21
      L1  H    22    46       P1  8028  0.98
      P1  H  7997  8008       L1    13  1.00

> <Gold.Chemscore.Hbond.Weighted>
-10.5416

> <Gold.Chemscore.Metal.Weighted>
-0.0000

> <Gold.Chemscore.Lipo.Weighted>
-8.2171

> <Gold.Chemscore.Internal_Hbond.Weighted>
0.0000

> <Gold.Chemscore.DEClash.Weighted>
0.2292

> <Gold.Chemscore.DEInternal.Weighted>
2.1452

> <Gold.Chemscore.Rot.Weighted>
9.4610

> <Gold.Chemscore.Internal.Correction.Weighted>
   9.000000E+99

> <Gold.Protein.RotatedTorsions>
[ 6907 6896 6895 6894 ] final  -50.45 input  -60.11 | X-H torsion
[ 7974 7965 7964 7962 ] final  -80.20 input  175.53 | X-H torsion
[ 8008 7997 7996 7995 ] final   -5.98 input   59.86 | X-H torsion
[ 10167 10162 10161 10158 ] final   75.65 input  -65.29 | X-H torsion
[ 10718 10713 10712 10709 ] final  179.56 input   66.30 | X-H torsion
[ 10763 10752 10751 10750 ] final  -78.09 input  -60.55 | X-H torsion
[ 11005 11000 10999 10996 ] final    7.69 input  -57.11 | X-H torsion

> <Gold.Protein.ActiveResidues>
 VAL166  LYS551  ARG553  GLY616  TRP617  ASP618  TYR619  PRO620  LYS621  CYS622 
 ASP623  PHE694  ASN695  SER759  ASP760  ASP761  ALA762  ILE779  LEU786  VAL792 
 PHE793  MET794  SER795  GLU796  ALA797  LYS798  CYS799  TRP800  GLU811  SER814 

> <Gold.Protein.RotatedAtoms>
  150.8706  134.8078  159.7151 H   0  0  0  0  0  0  0  0  0  0  0  0  # atno 6907 bound_to 6896
  152.4711  134.4953  159.9718 H   0  0  0  0  0  0  0  0  0  0  0  0  # atno 6908 bound_to 6896
  151.5043  133.3459  159.2909 H   0  0  0  0  0  0  0  0  0  0  0  0  # atno 6909 bound_to 6896
  145.5632  140.9478  143.1436 H   0  0  0  0  0  0  0  0  0  0  0  0  # atno 7974 bound_to 7965
  154.5984  140.2444  155.7826 H   0  0  0  0  0  0  0  0  0  0  0  0  # atno 8008 bound_to 7997
  156.2294  140.2971  156.0103 H   0  0  0  0  0  0  0  0  0  0  0  0  # atno 8009 bound_to 7997
  155.2254  140.0402  157.2945 H   0  0  0  0  0  0  0  0  0  0  0  0  # atno 8010 bound_to 7997
  140.0007  144.5688  150.7740 H   0  0  0  0  0  0  0  0  0  0  0  0  # atno 10167 bound_to 10162
  156.8739  130.9793  151.3070 H   0  0  0  0  0  0  0  0  0  0  0  0  # atno 10718 bound_to 10713
  154.5214  135.5742  153.6684 H   0  0  0  0  0  0  0  0  0  0  0  0  # atno 10763 bound_to 10752
  152.9918  135.6182  154.2749 H   0  0  0  0  0  0  0  0  0  0  0  0  # atno 10764 bound_to 10752
  154.2670  135.2854  155.2734 H   0  0  0  0  0  0  0  0  0  0  0  0  # atno 10765 bound_to 10752
  140.5454  134.0334  155.7918 H   0  0  0  0  0  0  0  0  0  0  0  0  # atno 11005 bound_to 11000
  144.7473  139.7286  143.7287 LP  0  0  0  0  0  0  0  0  0  0  0  0  # atno 17320 bound_to 7965
  146.1837  139.5041  142.9850 LP  0  0  0  0  0  0  0  0  0  0  0  0  # atno 17321 bound_to 7965
  140.7420  143.2826  151.3556 LP  0  0  0  0  0  0  0  0  0  0  0  0  # atno 17342 bound_to 10162
  139.6274  144.0788  152.2446 LP  0  0  0  0  0  0  0  0  0  0  0  0  # atno 17343 bound_to 10162
  157.6180  130.8633  149.9060 LP  0  0  0  0  0  0  0  0  0  0  0  0  # atno 17370 bound_to 10713
  156.0712  130.3685  150.0772 LP  0  0  0  0  0  0  0  0  0  0  0  0  # atno 17371 bound_to 10713
  141.1203  133.9472  157.2742 LP  0  0  0  0  0  0  0  0  0  0  0  0  # atno 17394 bound_to 11000
  139.9482  135.0180  156.8917 LP  0  0  0  0  0  0  0  0  0  0  0  0  # atno 17395 bound_to 11000

$$$$
