AV-unprocessed.smi:1950|AV-procd|sdf|7879|dock9
  -GOLD-   2272010 33D 1   1.00000     0.00000
 Structure written by MMmdl.
 33 34  0  0  0  0  0  0  0  0  1 V2000
  145.6104  136.2965  151.7349 C   0  0  0  0  0  0  0  0  0  0  0  0
  144.8757  135.3366  150.7964 C   0  0  0  0  0  0  0  0  0  0  0  0
  144.6817  135.6982  149.6356 O   0  0  0  0  0  0  0  0  0  0  0  0
  144.4736  134.1306  151.2647 N   0  0  0  0  0  0  0  0  0  0  0  0
  143.8511  133.1139  150.4093 C   0  0  0  0  0  0  0  0  0  0  0  0
  144.8500  131.9605  150.2037 C   0  0  0  0  0  0  0  0  0  0  0  0
  145.3253  131.3788  151.5530 C   0  0  0  0  0  0  0  0  0  0  0  0
  146.4260  130.4457  151.3268 N   0  0  0  0  0  0  0  0  0  0  0  0
  146.4357  129.1451  151.6539 C   0  0  0  0  0  0  0  0  0  0  0  0
  145.4931  128.5703  152.1989 O   0  0  0  0  0  0  0  0  0  0  0  0
  147.6015  128.5700  151.3095 N   0  0  0  0  0  0  0  0  0  0  0  0
  147.9997  127.2171  151.4758 C   0  0  0  0  0  0  0  0  0  0  0  0
  147.6627  126.4662  152.5362 N   0  0  0  0  0  0  0  0  0  0  0  0
  148.1802  125.1804  152.4481 N   0  0  0  0  0  0  0  0  0  0  0  0
  148.8870  125.0124  151.3268 C   0  0  0  0  0  0  0  0  0  0  0  0
  148.9882  126.4085  150.2678 S   0  0  0  0  0  0  0  0  0  0  0  0
  145.7775  132.4909  152.5245 C   0  0  0  0  0  0  0  0  0  0  0  0
  144.7304  133.6148  152.6149 C   0  0  0  0  0  0  0  0  0  0  0  0
  146.5159  135.8350  152.1298 H   0  0  0  0  0  0  0  0  0  0  0  0
  144.9698  136.5907  152.5664 H   0  0  0  0  0  0  0  0  0  0  0  0
  145.9048  137.2025  151.2046 H   0  0  0  0  0  0  0  0  0  0  0  0
  142.9434  132.7441  150.8881 H   0  0  0  0  0  0  0  0  0  0  0  0
  143.5357  133.5093  149.4429 H   0  0  0  0  0  0  0  0  0  0  0  0
  144.3942  131.1761  149.5981 H   0  0  0  0  0  0  0  0  0  0  0  0
  145.7064  132.3295  149.6370 H   0  0  0  0  0  0  0  0  0  0  0  0
  144.4758  130.8677  152.0098 H   0  0  0  0  0  0  0  0  0  0  0  0
  147.2488  130.8243  150.8810 H   0  0  0  0  0  0  0  0  0  0  0  0
  148.2853  129.1714  150.8744 H   0  0  0  0  0  0  0  0  0  0  0  0
  149.3520  124.0596  151.1217 H   0  0  0  0  0  0  0  0  0  0  0  0
  145.9594  132.0706  153.5144 H   0  0  0  0  0  0  0  0  0  0  0  0
  146.7258  132.9145  152.1891 H   0  0  0  0  0  0  0  0  0  0  0  0
  145.0625  134.3771  153.3182 H   0  0  0  0  0  0  0  0  0  0  0  0
  143.8011  133.2228  153.0310 H   0  0  0  0  0  0  0  0  0  0  0  0
  1  2  1  0  0  0  0
  1 19  1  0  0  0  0
  1 20  1  0  0  0  0
  1 21  1  0  0  0  0
  2  3  2  0  0  0  0
  2  4  1  0  0  0  0
  4 18  1  0  0  0  0
  4  5  1  0  0  0  0
  5  6  1  0  0  0  0
  5 22  1  0  0  0  0
  5 23  1  0  0  0  0
  6  7  1  0  0  0  0
  6 24  1  0  0  0  0
  6 25  1  0  0  0  0
  7  8  1  0  0  0  0
  7 17  1  0  0  0  0
  7 26  1  0  0  0  0
  8  9  1  0  0  0  0
  8 27  1  0  0  0  0
  9 10  2  0  0  0  0
  9 11  1  0  0  0  0
 11 12  1  0  0  0  0
 11 28  1  0  0  0  0
 12 16  1  0  0  0  0
 12 13  2  0  0  0  0
 13 14  1  0  0  0  0
 14 15  2  0  0  0  0
 15 16  1  0  0  0  0
 15 29  1  0  0  0  0
 17 18  1  0  0  0  0
 17 30  1  0  0  0  0
 17 31  1  0  0  0  0
 18 32  1  0  0  0  0
 18 33  1  0  0  0  0
M  END
> <s_m_source_file>
AV-unprocessed.smi

> <i_m_source_file_index>
1950

> <i_lp_mmshare_version>
43012

> <i_f3d_flags>
0

> <s_epik_input>
W0NIM11DKD1PKU4xW0NIMl1bQ0gyXVtDSF0oW0NIMl1bQ0gyXTEpW05IXUMoPU8pW05IXWMybm5bY0hdczI=

> <s_epik_cmdline>
J2VwaWtfcHl0aG9uJywgJy1waCcsICc3LjAnLCAnLXRuJywgJzgnLCAnLW1hJywgJzIwMCcsICctbWV0YWxfYmluZGluZycsICctaW1hZScsICc8aW5maWxlLm1hZT4nLCAnLW9tYWUnLCAnPG91dGZpbGUubWFlPic=

> <r_lp_tautomer_probability>
1

> <r_epik_Ionization_Penalty>
0.00190949

> <r_epik_Ionization_Penalty_Charging>
0

> <r_epik_Ionization_Penalty_Neutral>
0.00190949

> <r_epik_State_Penalty>
-0

> <r_epik_Charging_Adjusted_Penalty>
0

> <i_epik_Tot_Q>
0

> <i_epik_Tot_abs_Q>
0

> <r_epik_Metal_State_Penalty>
0.336167

> <b_epik_Metal_Only>
0

> <s_lp_Force_Field>
OPLS_2005

> <r_lp_Energy>
22.3171

> <b_lp_Chiralities_Consistent>
1

> <s_lp_Variant>
AV-unprocessed.smi:1950-1

> <Gold.Version>
5.8.1

> <Gold.Id.Protein>
6NUR|6NUR_protein|mol2

> <Gold.PLP.Fitness>
38.9870

> <Gold.PLP.PLP>
-34.1230

> <Gold.PLP.part.hbond>
-3.0969

> <Gold.PLP.part.metal>
0.0000

> <Gold.PLP.part.buried>
-8.6288

> <Gold.PLP.part.nonpolar>
-27.5505

> <Gold.PLP.part.repulsive>
4.7749

> <Gold.PLP.ligand.clash>
0.0000

> <Gold.PLP.ligand.torsion>
0.2767

> <Gold.PLP.Chemscore.Hbond>
1.8000

> <Gold.PLP.Chemscore.CHOScore>
0.0000

> <Gold.PLP.Chemscore.Metal>
0.0000

> <Gold.Chemscore.Hbonds>
donor molecule, donor type, donor heavy atom, donor atom, acceptor molecule, acceptor atom, score
      L1  H     8    27       P1 10747  1.00
      L1  H    11    28       P1 10747  0.80

> <Gold.PLP.Chemscore.Internal.Correction>
0.0173

> <Gold.Rescore>
     Score         DG    S(hbond)    S(metal)    S(lipo)     H(rot)  DE(clash)    DE(int)     intcor
     11.41     -14.00       1.19        0.00      60.65       1.00       2.18       0.42       ----

> <Gold.Chemscore.Fitness>
11.4072

> <Gold.Chemscore.DG>
-14.0008

> <Gold.Chemscore.ZeroCoef>
-5.4800

> <Gold.Chemscore.Hbond>
1.1931

> <Gold.Chemscore.Metal>
0.0000

> <Gold.Chemscore.Lipo>
60.6477

> <Gold.Chemscore.Internal_Hbond>
0.0000

> <Gold.Chemscore.DEClash>
2.1762

> <Gold.Chemscore.DEInternal>
0.4173

> <Gold.Chemscore.Rot>
1.0000

> <Gold.Chemscore.Internal.Correction>
   9.000000E+99

> <Gold.Chemscore.Hbonds>
donor molecule, donor type, donor heavy atom, donor atom, acceptor molecule, acceptor atom, score
      L1  H     8    27       P1 10747  0.99
      L1  H    11    28       P1 10747  0.12

> <Gold.Chemscore.Hbond.Weighted>
-3.9850

> <Gold.Chemscore.Metal.Weighted>
-0.0000

> <Gold.Chemscore.Lipo.Weighted>
-7.0958

> <Gold.Chemscore.Internal_Hbond.Weighted>
0.0000

> <Gold.Chemscore.DEClash.Weighted>
2.1762

> <Gold.Chemscore.DEInternal.Weighted>
0.4173

> <Gold.Chemscore.Rot.Weighted>
2.5600

> <Gold.Chemscore.Internal.Correction.Weighted>
   9.000000E+99

> <Gold.Protein.RotatedTorsions>
[ 6907 6896 6895 6894 ] final -119.83 input  -60.11 | X-H torsion
[ 7974 7965 7964 7962 ] final -129.44 input  175.53 | X-H torsion
[ 8008 7997 7996 7995 ] final  176.49 input   59.86 | X-H torsion
[ 10167 10162 10161 10158 ] final  169.61 input  -65.29 | X-H torsion
[ 10718 10713 10712 10709 ] final   44.15 input   66.30 | X-H torsion
[ 10763 10752 10751 10750 ] final  148.27 input  -60.55 | X-H torsion
[ 11005 11000 10999 10996 ] final -143.99 input  -57.11 | X-H torsion

> <Gold.Protein.ActiveResidues>
 VAL166  LYS551  ARG553  GLY616  TRP617  ASP618  TYR619  PRO620  LYS621  CYS622 
 ASP623  PHE694  ASN695  SER759  ASP760  ASP761  ALA762  ILE779  LEU786  VAL792 
 PHE793  MET794  SER795  GLU796  ALA797  LYS798  CYS799  TRP800  GLU811  SER814 

> <Gold.Protein.RotatedAtoms>
  150.8340  133.8044  159.3086 H   0  0  0  0  0  0  0  0  0  0  0  0  # atno 6907 bound_to 6896
  151.5766  135.1058  160.0017 H   0  0  0  0  0  0  0  0  0  0  0  0  # atno 6908 bound_to 6896
  152.4415  133.7415  159.6700 H   0  0  0  0  0  0  0  0  0  0  0  0  # atno 6909 bound_to 6896
  144.9572  140.7408  143.4751 H   0  0  0  0  0  0  0  0  0  0  0  0  # atno 7974 bound_to 7965
  156.0759  140.1382  156.9771 H   0  0  0  0  0  0  0  0  0  0  0  0  # atno 8008 bound_to 7997
  154.4558  140.0962  156.6802 H   0  0  0  0  0  0  0  0  0  0  0  0  # atno 8009 bound_to 7997
  155.5153  140.3455  155.4398 H   0  0  0  0  0  0  0  0  0  0  0  0  # atno 8010 bound_to 7997
  139.4997  144.3687  151.9748 H   0  0  0  0  0  0  0  0  0  0  0  0  # atno 10167 bound_to 10162
  157.4236  130.7984  149.7538 H   0  0  0  0  0  0  0  0  0  0  0  0  # atno 10718 bound_to 10713
  154.0519  135.2881  155.3339 H   0  0  0  0  0  0  0  0  0  0  0  0  # atno 10763 bound_to 10752
  154.6863  135.5244  153.8335 H   0  0  0  0  0  0  0  0  0  0  0  0  # atno 10764 bound_to 10752
  153.0557  135.6594  154.0715 H   0  0  0  0  0  0  0  0  0  0  0  0  # atno 10765 bound_to 10752
  140.8069  134.2790  157.4956 H   0  0  0  0  0  0  0  0  0  0  0  0  # atno 11005 bound_to 11000
  145.2754  139.1938  143.4819 LP  0  0  0  0  0  0  0  0  0  0  0  0  # atno 17320 bound_to 7965
  146.3341  140.2708  142.8606 LP  0  0  0  0  0  0  0  0  0  0  0  0  # atno 17321 bound_to 7965
  140.3123  144.3524  150.6030 LP  0  0  0  0  0  0  0  0  0  0  0  0  # atno 17342 bound_to 10162
  140.5789  143.2174  151.7465 LP  0  0  0  0  0  0  0  0  0  0  0  0  # atno 17343 bound_to 10162
  155.9889  130.3956  150.3097 LP  0  0  0  0  0  0  0  0  0  0  0  0  # atno 17370 bound_to 10713
  157.1248  131.0256  151.2994 LP  0  0  0  0  0  0  0  0  0  0  0  0  # atno 17371 bound_to 10713
  139.8717  134.9461  156.3929 LP  0  0  0  0  0  0  0  0  0  0  0  0  # atno 17394 bound_to 11000
  140.9237  133.7627  155.9938 LP  0  0  0  0  0  0  0  0  0  0  0  0  # atno 17395 bound_to 11000

$$$$
