AV-unprocessed.smi:3143|AV-procd|sdf|11975|dock3
  -GOLD-   2272017373D 1   1.00000     0.00000
 Structure written by MMmdl.
 38 39  0  0  0  0  0  0  0  0  2 V2000
  151.8307  140.8602  157.4506 C   0  0  0  0  0  0  0  0  0  0  0  0
  150.4935  141.5201  157.0780 C   0  0  1  0  0  0  0  0  0  0  0  0
  150.6157  142.9906  157.2062 N   0  3  0  0  0  0  0  0  0  0  0  0
  150.2959  143.5279  158.5458 C   0  0  0  0  0  0  0  0  0  0  0  0
  151.4679  144.3450  159.1067 C   0  0  0  0  0  0  0  0  0  0  0  0
  152.1112  143.6638  160.2130 N   0  0  0  0  0  0  0  0  0  0  0  0
  152.1618  144.0354  161.5403 C   0  0  0  0  0  0  0  0  0  0  0  0
  152.8784  143.0793  162.2015 C   0  0  0  0  0  0  0  0  0  0  0  0
  153.2273  142.1509  161.1809 C   0  0  0  0  0  0  0  0  0  0  0  0
  152.7662  142.5040  159.9917 N   0  0  0  0  0  0  0  0  0  0  0  0
  150.0848  141.1096  155.6488 C   0  0  0  0  0  0  0  0  0  0  0  0
  150.8883  140.4760  154.9624 O   0  0  0  0  0  0  0  0  0  0  0  0
  148.8592  141.4411  155.1886 N   0  0  0  0  0  0  0  0  0  0  0  0
  148.3172  141.1346  153.8645 C   0  0  0  0  0  0  0  0  0  0  0  0
  147.0125  141.9242  153.7564 C   0  0  0  0  0  0  0  0  0  0  0  0
  146.5672  142.1057  155.2003 C   0  0  0  0  0  0  0  0  0  0  0  0
  147.8761  142.1719  155.9871 C   0  0  0  0  0  0  0  0  0  0  0  0
  151.7722  139.7731  157.3871 H   0  0  0  0  0  0  0  0  0  0  0  0
  152.1182  141.1105  158.4723 H   0  0  0  0  0  0  0  0  0  0  0  0
  152.6364  141.1865  156.7913 H   0  0  0  0  0  0  0  0  0  0  0  0
  149.7429  141.1981  157.7997 H   0  0  0  0  0  0  0  0  0  0  0  0
  151.5695  143.2456  156.9941 H   0  0  0  0  0  0  0  0  0  0  0  0
  149.4046  144.1538  158.4850 H   0  0  0  0  0  0  0  0  0  0  0  0
  150.0632  142.7013  159.2184 H   0  0  0  0  0  0  0  0  0  0  0  0
  152.2124  144.5292  158.3309 H   0  0  0  0  0  0  0  0  0  0  0  0
  151.1228  145.3200  159.4544 H   0  0  0  0  0  0  0  0  0  0  0  0
  151.6908  144.9381  161.9013 H   0  0  0  0  0  0  0  0  0  0  0  0
  153.1163  143.0468  163.2545 H   0  0  0  0  0  0  0  0  0  0  0  0
  153.7971  141.2373  161.2678 H   0  0  0  0  0  0  0  0  0  0  0  0
  149.0027  141.4028  153.0598 H   0  0  0  0  0  0  0  0  0  0  0  0
  148.1160  140.0641  153.8014 H   0  0  0  0  0  0  0  0  0  0  0  0
  147.2104  142.9002  153.3110 H   0  0  0  0  0  0  0  0  0  0  0  0
  146.2635  141.4230  153.1426 H   0  0  0  0  0  0  0  0  0  0  0  0
  145.9425  142.9879  155.3436 H   0  0  0  0  0  0  0  0  0  0  0  0
  145.9922  141.2344  155.5175 H   0  0  0  0  0  0  0  0  0  0  0  0
  147.7582  141.7472  156.9853 H   0  0  0  0  0  0  0  0  0  0  0  0
  148.2060  143.2065  156.0949 H   0  0  0  0  0  0  0  0  0  0  0  0
  150.0070  143.4208  156.5241 H   0  0  0  0  0  0  0  0  0  0  0  0
  1  2  1  0  0  0  0
  1 18  1  0  0  0  0
  1 19  1  0  0  0  0
  1 20  1  0  0  0  0
  2  3  1  0  0  0  0
  2 11  1  0  0  0  0
  2 21  1  0  0  0  0
  3  4  1  0  0  0  0
  3 22  1  0  0  0  0
  3 38  1  0  0  0  0
  4  5  1  0  0  0  0
  4 23  1  0  0  0  0
  4 24  1  0  0  0  0
  5  6  1  0  0  0  0
  5 25  1  0  0  0  0
  5 26  1  0  0  0  0
  6 10  1  0  0  0  0
  6  7  1  0  0  0  0
  7  8  2  0  0  0  0
  7 27  1  0  0  0  0
  8  9  1  0  0  0  0
  8 28  1  0  0  0  0
  9 10  2  0  0  0  0
  9 29  1  0  0  0  0
 11 12  2  0  0  0  0
 11 13  1  0  0  0  0
 13 17  1  0  0  0  0
 13 14  1  0  0  0  0
 14 15  1  0  0  0  0
 14 30  1  0  0  0  0
 14 31  1  0  0  0  0
 15 16  1  0  0  0  0
 15 32  1  0  0  0  0
 15 33  1  0  0  0  0
 16 17  1  0  0  0  0
 16 34  1  0  0  0  0
 16 35  1  0  0  0  0
 17 36  1  0  0  0  0
 17 37  1  0  0  0  0
M  CHG  1   3   1
M  END
> <s_m_source_file>
AV-unprocessed.smi

> <i_m_source_file_index>
3143

> <i_lp_mmshare_version>
43012

> <i_f3d_flags>
0

> <s_epik_input>
W0NIMl0xW0NIMl1bQ0gyXVtDSDJdTjFDKD1PKVtDQEhdKFtDSDNdKVtOSF1bQ0gyXVtDSDJdbjJbY0hdW2NIXVtjSF1uMg==

> <s_epik_cmdline>
J2VwaWtfcHl0aG9uJywgJy1waCcsICc3LjAnLCAnLXRuJywgJzgnLCAnLW1hJywgJzIwMCcsICctbWV0YWxfYmluZGluZycsICctaW1hZScsICc8aW5maWxlLm1hZT4nLCAnLW9tYWUnLCAnPG91dGZpbGUubWFlPic=

> <r_lp_tautomer_probability>
1

> <r_epik_Ionization_Penalty>
0.203171

> <r_epik_Ionization_Penalty_Charging>
0.203168

> <r_epik_Ionization_Penalty_Neutral>
2.46932e-06

> <r_epik_State_Penalty>
0.193072

> <r_epik_Charging_Adjusted_Penalty>
0.39624

> <i_epik_Tot_Q>
1

> <i_epik_Tot_abs_Q>
1

> <r_epik_Metal_State_Penalty>
0.193323

> <b_epik_Metal_Only>
0

> <s_lp_Force_Field>
OPLS_2005

> <r_lp_Energy>
30.1321

> <b_lp_Chiralities_Consistent>
1

> <s_lp_Variant>
AV-unprocessed.smi:3143-2

> <Gold.Version>
5.8.1

> <Gold.Id.Protein>
6NUR|6NUR_protein|mol2

> <Gold.PLP.Fitness>
48.3139

> <Gold.PLP.PLP>
-41.6648

> <Gold.PLP.part.hbond>
-2.0000

> <Gold.PLP.part.metal>
0.0000

> <Gold.PLP.part.buried>
-3.3430

> <Gold.PLP.part.nonpolar>
-35.8014

> <Gold.PLP.part.repulsive>
0.0819

> <Gold.PLP.ligand.clash>
0.0000

> <Gold.PLP.ligand.torsion>
1.2396

> <Gold.PLP.Chemscore.Hbond>
3.0000

> <Gold.PLP.Chemscore.CHOScore>
0.0000

> <Gold.PLP.Chemscore.Metal>
0.0000

> <Gold.Chemscore.Hbonds>
donor molecule, donor type, donor heavy atom, donor atom, acceptor molecule, acceptor atom, score
      L1  H     3    38       P1  8028  2.00
      P1  H  7989  7998       L1    12  1.00

> <Gold.PLP.Chemscore.Internal.Correction>
0.1282

> <Gold.Rescore>
     Score         DG    S(hbond)    S(metal)    S(lipo)     H(rot)  DE(clash)    DE(int)     intcor
     16.23     -17.65       1.96        0.00      88.38       1.84       0.16       1.26       ----

> <Gold.Chemscore.Fitness>
16.2256

> <Gold.Chemscore.DG>
-17.6508

> <Gold.Chemscore.ZeroCoef>
-5.4800

> <Gold.Chemscore.Hbond>
1.9588

> <Gold.Chemscore.Metal>
0.0000

> <Gold.Chemscore.Lipo>
88.3760

> <Gold.Chemscore.Internal_Hbond>
0.0000

> <Gold.Chemscore.DEClash>
0.1648

> <Gold.Chemscore.DEInternal>
1.2603

> <Gold.Chemscore.Rot>
1.8405

> <Gold.Chemscore.Internal.Correction>
   9.000000E+99

> <Gold.Chemscore.Hbonds>
donor molecule, donor type, donor heavy atom, donor atom, acceptor molecule, acceptor atom, score
      L1  H     3    38       P1  8028  0.99
      P1  H  7989  7998       L1    12  0.96

> <Gold.Chemscore.Hbond.Weighted>
-6.5425

> <Gold.Chemscore.Metal.Weighted>
-0.0000

> <Gold.Chemscore.Lipo.Weighted>
-10.3400

> <Gold.Chemscore.Internal_Hbond.Weighted>
0.0000

> <Gold.Chemscore.DEClash.Weighted>
0.1648

> <Gold.Chemscore.DEInternal.Weighted>
1.2603

> <Gold.Chemscore.Rot.Weighted>
4.7117

> <Gold.Chemscore.Internal.Correction.Weighted>
   9.000000E+99

> <Gold.Protein.RotatedTorsions>
[ 6907 6896 6895 6894 ] final  151.78 input  -60.11 | X-H torsion
[ 7974 7965 7964 7962 ] final  -49.84 input  175.53 | X-H torsion
[ 8008 7997 7996 7995 ] final   48.34 input   59.86 | X-H torsion
[ 10167 10162 10161 10158 ] final  -65.64 input  -65.29 | X-H torsion
[ 10718 10713 10712 10709 ] final  128.96 input   66.30 | X-H torsion
[ 10763 10752 10751 10750 ] final  -64.24 input  -60.55 | X-H torsion
[ 11005 11000 10999 10996 ] final -129.03 input  -57.11 | X-H torsion

> <Gold.Protein.ActiveResidues>
 VAL166  LYS551  ARG553  GLY616  TRP617  ASP618  TYR619  PRO620  LYS621  CYS622 
 ASP623  PHE694  ASN695  SER759  ASP760  ASP761  ALA762  ILE779  LEU786  VAL792 
 PHE793  MET794  SER795  GLU796  ALA797  LYS798  CYS799  TRP800  GLU811  SER814 

> <Gold.Protein.RotatedAtoms>
  152.0959  133.4224  159.4564 H   0  0  0  0  0  0  0  0  0  0  0  0  # atno 6907 bound_to 6896
  150.6863  134.2817  159.4639 H   0  0  0  0  0  0  0  0  0  0  0  0  # atno 6908 bound_to 6896
  152.0673  134.9556  160.0625 H   0  0  0  0  0  0  0  0  0  0  0  0  # atno 6909 bound_to 6896
  145.9362  140.7704  142.9575 H   0  0  0  0  0  0  0  0  0  0  0  0  # atno 7974 bound_to 7965
  155.3840  140.3430  155.4248 H   0  0  0  0  0  0  0  0  0  0  0  0  # atno 8008 bound_to 7997
  156.1594  140.1596  156.8670 H   0  0  0  0  0  0  0  0  0  0  0  0  # atno 8009 bound_to 7997
  154.5126  140.0786  156.8000 H   0  0  0  0  0  0  0  0  0  0  0  0  # atno 8010 bound_to 7997
  140.5715  143.2318  151.6529 H   0  0  0  0  0  0  0  0  0  0  0  0  # atno 10167 bound_to 10162
  157.5198  131.1098  150.9171 H   0  0  0  0  0  0  0  0  0  0  0  0  # atno 10718 bound_to 10713
  154.3271  135.6184  153.5534 H   0  0  0  0  0  0  0  0  0  0  0  0  # atno 10763 bound_to 10752
  152.9814  135.5738  154.5004 H   0  0  0  0  0  0  0  0  0  0  0  0  # atno 10764 bound_to 10752
  154.4683  135.2858  155.1638 H   0  0  0  0  0  0  0  0  0  0  0  0  # atno 10765 bound_to 10752
  140.9466  134.1121  157.4101 H   0  0  0  0  0  0  0  0  0  0  0  0  # atno 11005 bound_to 11000
  144.6772  140.2207  143.7367 LP  0  0  0  0  0  0  0  0  0  0  0  0  # atno 17320 bound_to 7965
  145.8360  139.2108  143.1855 LP  0  0  0  0  0  0  0  0  0  0  0  0  # atno 17321 bound_to 7965
  139.5120  144.3491  152.0669 LP  0  0  0  0  0  0  0  0  0  0  0  0  # atno 17342 bound_to 10162
  140.2629  144.4048  150.6179 LP  0  0  0  0  0  0  0  0  0  0  0  0  # atno 17343 bound_to 10162
  156.9785  130.5518  149.5295 LP  0  0  0  0  0  0  0  0  0  0  0  0  # atno 17370 bound_to 10713
  156.0345  130.5434  150.8619 LP  0  0  0  0  0  0  0  0  0  0  0  0  # atno 17371 bound_to 10713
  139.8835  135.0053  156.6306 LP  0  0  0  0  0  0  0  0  0  0  0  0  # atno 17394 bound_to 11000
  140.7660  133.8777  155.8455 LP  0  0  0  0  0  0  0  0  0  0  0  0  # atno 17395 bound_to 11000

$$$$
