AV-unprocessed.smi:2938|AV-procd|sdf|11260|dock10
  -GOLD-   2272016153D 1   1.00000     0.00000
 Structure written by MMmdl.
 26 27  0  0  0  0  0  0  0  0  2 V2000
  153.3681  138.4130  158.9060 N   0  0  0  0  0  0  0  0  0  0  0  0
  152.7547  138.4491  157.9251 C   0  0  0  0  0  0  0  0  0  0  0  0
  151.9808  138.4966  156.6863 C   0  0  0  0  0  0  0  0  0  0  0  0
  151.7850  137.3459  155.8810 C   0  0  0  0  0  0  0  0  0  0  0  0
  152.2980  136.1176  156.1953 O   0  5  0  0  0  0  0  0  0  0  0  0
  151.0703  137.3875  154.7362 N   0  0  0  0  0  0  0  0  0  0  0  0
  150.5529  138.5658  154.3937 C   0  0  0  0  0  0  0  0  0  0  0  0
  149.8284  138.5993  153.2286 N   0  0  0  0  0  0  0  0  0  0  0  0
  150.6650  139.7138  155.0622 N   0  0  0  0  0  0  0  0  0  0  0  0
  151.3791  139.6942  156.2151 C   0  0  0  0  0  0  0  0  0  0  0  0
  151.5031  140.9031  156.9229 N   0  0  0  0  0  0  0  0  0  0  0  0
  151.0178  142.0629  156.1860 C   0  0  0  0  0  0  0  0  0  0  0  0
  151.3210  143.3490  156.9740 C   0  0  0  0  0  0  0  0  0  0  0  0
  150.7539  143.2561  158.2783 O   0  0  0  0  0  0  0  0  0  0  0  0
  151.2896  142.1617  159.0174 C   0  0  0  0  0  0  0  0  0  0  0  0
  150.9842  140.8444  158.2834 C   0  0  0  0  0  0  0  0  0  0  0  0
  149.7073  137.7632  152.6769 H   0  0  0  0  0  0  0  0  0  0  0  0
  149.4105  139.4636  152.9171 H   0  0  0  0  0  0  0  0  0  0  0  0
  151.4932  142.1028  155.2050 H   0  0  0  0  0  0  0  0  0  0  0  0
  149.9430  141.9731  156.0220 H   0  0  0  0  0  0  0  0  0  0  0  0
  152.3970  143.5169  157.0455 H   0  0  0  0  0  0  0  0  0  0  0  0
  150.8968  144.2130  156.4623 H   0  0  0  0  0  0  0  0  0  0  0  0
  152.3647  142.2919  159.1518 H   0  0  0  0  0  0  0  0  0  0  0  0
  150.8430  142.1510  160.0117 H   0  0  0  0  0  0  0  0  0  0  0  0
  149.9070  140.6736  158.2618 H   0  0  0  0  0  0  0  0  0  0  0  0
  151.4352  140.0053  158.8146 H   0  0  0  0  0  0  0  0  0  0  0  0
  1  2  3  0  0  0  0
  2  3  1  0  0  0  0
  3 10  1  0  0  0  0
  3  4  2  0  0  0  0
  4  5  1  0  0  0  0
  4  6  1  0  0  0  0
  6  7  2  0  0  0  0
  7  8  1  0  0  0  0
  7  9  1  0  0  0  0
  8 17  1  0  0  0  0
  8 18  1  0  0  0  0
  9 10  2  0  0  0  0
 10 11  1  0  0  0  0
 11 16  1  0  0  0  0
 11 12  1  0  0  0  0
 12 13  1  0  0  0  0
 12 19  1  0  0  0  0
 12 20  1  0  0  0  0
 13 14  1  0  0  0  0
 13 21  1  0  0  0  0
 13 22  1  0  0  0  0
 14 15  1  0  0  0  0
 15 16  1  0  0  0  0
 15 23  1  0  0  0  0
 15 24  1  0  0  0  0
 16 25  1  0  0  0  0
 16 26  1  0  0  0  0
M  CHG  1   5  -1
M  END
> <s_m_source_file>
AV-unprocessed.smi

> <i_m_source_file_index>
2938

> <i_lp_mmshare_version>
43012

> <i_f3d_flags>
0

> <s_epik_input>
TiNDYzFjKFtPSF0pbmMoW05IMl0pbmMxTjJbQ0gyXVtDSDJdT1tDSDJdW0NIMl0y

> <s_epik_cmdline>
J2VwaWtfcHl0aG9uJywgJy1waCcsICc3LjAnLCAnLXRuJywgJzgnLCAnLW1hJywgJzIwMCcsICctbWV0YWxfYmluZGluZycsICctaW1hZScsICc8aW5maWxlLm1hZT4nLCAnLW9tYWUnLCAnPG91dGZpbGUubWFlPic=

> <r_lp_tautomer_probability>
1

> <r_epik_Ionization_Penalty>
0.00503702

> <r_epik_Ionization_Penalty_Charging>
2.31924e-12

> <r_epik_Ionization_Penalty_Neutral>
0.00503702

> <r_epik_State_Penalty>
-0

> <r_epik_Charging_Adjusted_Penalty>
2.31924e-12

> <i_epik_Tot_Q>
-1

> <i_epik_Tot_abs_Q>
1

> <r_epik_Metal_State_Penalty>
-0

> <b_epik_Metal_Only>
0

> <s_lp_Force_Field>
OPLS_2005

> <r_lp_Energy>
14.7587

> <b_lp_Chiralities_Consistent>
1

> <s_lp_Variant>
AV-unprocessed.smi:2938-1

> <Gold.Version>
5.8.1

> <Gold.Id.Protein>
6NUR|6NUR_protein|mol2

> <Gold.PLP.Fitness>
31.7615

> <Gold.PLP.PLP>
-19.9131

> <Gold.PLP.part.hbond>
-3.4547

> <Gold.PLP.part.metal>
0.0000

> <Gold.PLP.part.buried>
-3.0934

> <Gold.PLP.part.nonpolar>
-12.6551

> <Gold.PLP.part.repulsive>
0.4609

> <Gold.PLP.ligand.clash>
0.0000

> <Gold.PLP.ligand.torsion>
0.0876

> <Gold.PLP.Chemscore.Hbond>
3.9690

> <Gold.PLP.Chemscore.CHOScore>
0.0000

> <Gold.PLP.Chemscore.Metal>
0.0000

> <Gold.Chemscore.Hbonds>
donor molecule, donor type, donor heavy atom, donor atom, acceptor molecule, acceptor atom, score
      L1  H     8    17       P1  7948  1.00
      L1  H     8    18       P1  7957  0.40
      P1  H  7989  7998       L1     9  0.58
      P1  H 10752 10763       L1     5  2.00

> <Gold.PLP.Chemscore.Internal.Correction>
0.1165

> <Gold.Rescore>
     Score         DG    S(hbond)    S(metal)    S(lipo)     H(rot)  DE(clash)    DE(int)     intcor
     13.68     -13.93       1.94        0.00      38.86       1.00       0.03       0.22       ----

> <Gold.Chemscore.Fitness>
13.6823

> <Gold.Chemscore.DG>
-13.9305

> <Gold.Chemscore.ZeroCoef>
-5.4800

> <Gold.Chemscore.Hbond>
1.9354

> <Gold.Chemscore.Metal>
0.0000

> <Gold.Chemscore.Lipo>
38.8579

> <Gold.Chemscore.Internal_Hbond>
0.0000

> <Gold.Chemscore.DEClash>
0.0270

> <Gold.Chemscore.DEInternal>
0.2211

> <Gold.Chemscore.Rot>
1.0000

> <Gold.Chemscore.Internal.Correction>
   9.000000E+99

> <Gold.Chemscore.Hbonds>
donor molecule, donor type, donor heavy atom, donor atom, acceptor molecule, acceptor atom, score
      L1  H     8    17       P1  7948  0.45
      L1  H     8    18       P1  7957  0.40
      P1  H  7989  7998       L1     9  0.10
      P1  H 10752 10763       L1     5  0.88

> <Gold.Chemscore.Hbond.Weighted>
-6.4641

> <Gold.Chemscore.Metal.Weighted>
-0.0000

> <Gold.Chemscore.Lipo.Weighted>
-4.5464

> <Gold.Chemscore.Internal_Hbond.Weighted>
0.0000

> <Gold.Chemscore.DEClash.Weighted>
0.0270

> <Gold.Chemscore.DEInternal.Weighted>
0.2211

> <Gold.Chemscore.Rot.Weighted>
2.5600

> <Gold.Chemscore.Internal.Correction.Weighted>
   9.000000E+99

> <Gold.Protein.RotatedTorsions>
[ 6907 6896 6895 6894 ] final    9.03 input  -60.11 | X-H torsion
[ 7974 7965 7964 7962 ] final   85.31 input  175.53 | X-H torsion
[ 8008 7997 7996 7995 ] final  -82.12 input   59.86 | X-H torsion
[ 10167 10162 10161 10158 ] final  -92.42 input  -65.29 | X-H torsion
[ 10718 10713 10712 10709 ] final -113.78 input   66.30 | X-H torsion
[ 10763 10752 10751 10750 ] final   93.33 input  -60.55 | X-H torsion
[ 11005 11000 10999 10996 ] final -118.24 input  -57.11 | X-H torsion

> <Gold.Protein.ActiveResidues>
 VAL166  LYS551  ARG553  GLY616  TRP617  ASP618  TYR619  PRO620  LYS621  CYS622 
 ASP623  PHE694  ASN695  SER759  ASP760  ASP761  ALA762  ILE779  LEU786  VAL792 
 PHE793  MET794  SER795  GLU796  ALA797  LYS798  CYS799  TRP800  GLU811  SER814 

> <Gold.Protein.RotatedAtoms>
  151.7156  135.0904  160.0274 H   0  0  0  0  0  0  0  0  0  0  0  0  # atno 6907 bound_to 6896
  152.3634  133.6322  159.6041 H   0  0  0  0  0  0  0  0  0  0  0  0  # atno 6908 bound_to 6896
  150.7621  133.9303  159.3466 H   0  0  0  0  0  0  0  0  0  0  0  0  # atno 6909 bound_to 6896
  145.5872  139.2333  143.2320 H   0  0  0  0  0  0  0  0  0  0  0  0  # atno 7974 bound_to 7965
  154.6054  140.0638  156.9423 H   0  0  0  0  0  0  0  0  0  0  0  0  # atno 8008 bound_to 7997
  155.2062  140.3319  155.4317 H   0  0  0  0  0  0  0  0  0  0  0  0  # atno 8009 bound_to 7997
  156.2344  140.1856  156.7142 H   0  0  0  0  0  0  0  0  0  0  0  0  # atno 8010 bound_to 7997
  140.3350  143.2974  151.9899 H   0  0  0  0  0  0  0  0  0  0  0  0  # atno 10167 bound_to 10162
  156.0788  130.5991  150.8688 H   0  0  0  0  0  0  0  0  0  0  0  0  # atno 10718 bound_to 10713
  153.2292  135.4329  155.0576 H   0  0  0  0  0  0  0  0  0  0  0  0  # atno 10763 bound_to 10752
  154.8288  135.3375  154.6813 H   0  0  0  0  0  0  0  0  0  0  0  0  # atno 10764 bound_to 10752
  153.7241  135.7015  153.5061 H   0  0  0  0  0  0  0  0  0  0  0  0  # atno 10765 bound_to 10752
  141.0300  133.9996  157.3158 H   0  0  0  0  0  0  0  0  0  0  0  0  # atno 11005 bound_to 11000
  146.1673  140.6698  142.9249 LP  0  0  0  0  0  0  0  0  0  0  0  0  # atno 17320 bound_to 7965
  144.7367  140.4829  143.6898 LP  0  0  0  0  0  0  0  0  0  0  0  0  # atno 17321 bound_to 7965
  139.4850  144.6204  151.7266 LP  0  0  0  0  0  0  0  0  0  0  0  0  # atno 17342 bound_to 10162
  140.5362  144.0652  150.6071 LP  0  0  0  0  0  0  0  0  0  0  0  0  # atno 17343 bound_to 10162
  157.5896  131.0945  150.9141 LP  0  0  0  0  0  0  0  0  0  0  0  0  # atno 17370 bound_to 10713
  156.9319  130.5353  149.5279 LP  0  0  0  0  0  0  0  0  0  0  0  0  # atno 17371 bound_to 10713
  139.9201  135.0200  156.8032 LP  0  0  0  0  0  0  0  0  0  0  0  0  # atno 17394 bound_to 11000
  140.6424  133.9806  155.7714 LP  0  0  0  0  0  0  0  0  0  0  0  0  # atno 17395 bound_to 11000

$$$$
