AV-unprocessed.smi:104|AV-procd|sdf|1007|dock4
  -GOLD-   2262018 03D 1   1.00000     0.00000
 Structure written by MMmdl.
 47 49  0  0  0  0  0  0  0  0  1 V2000
  147.7564  136.4519  162.7931 C   0  0  0  0  0  0  0  0  0  0  0  0
  147.7292  136.6674  161.2860 C   0  0  0  0  0  0  0  0  0  0  0  0
  146.8050  137.2699  160.7394 O   0  0  0  0  0  0  0  0  0  0  0  0
  148.8011  136.1396  160.6748 O   0  0  0  0  0  0  0  0  0  0  0  0
  148.9462  136.2696  159.2699 C   0  0  0  0  0  0  0  0  0  0  0  0
  149.0296  137.7620  158.9036 C   0  0  2  0  0  0  0  0  0  0  0  0
  147.8742  138.0875  158.1264 O   0  0  0  0  0  0  0  0  0  0  0  0
  148.2351  138.4624  156.8315 C   0  0  2  0  0  0  0  0  0  0  0  0
  147.2569  137.8950  155.8481 N   0  0  0  0  0  0  0  0  0  0  0  0
  146.3458  136.8834  156.0438 C   0  0  0  0  0  0  0  0  0  0  0  0
  146.1796  135.9851  157.7143 Br  0  0  0  0  0  0  0  0  0  0  0  0
  145.5714  136.5734  155.0425 N   0  0  0  0  0  0  0  0  0  0  0  0
  145.9760  137.4658  154.0575 C   0  0  0  0  0  0  0  0  0  0  0  0
  145.5647  137.7105  152.7230 C   0  0  0  0  0  0  0  0  0  0  0  0
  144.5898  137.0166  152.1197 N   0  0  0  0  0  0  0  0  0  0  0  0
  146.1806  138.6931  152.0250 N   0  0  0  0  0  0  0  0  0  0  0  0
  147.1538  139.4023  152.6049 C   0  0  0  0  0  0  0  0  0  0  0  0
  147.6473  139.2869  153.8398 N   0  0  0  0  0  0  0  0  0  0  0  0
  147.0284  138.2955  154.5450 C   0  0  0  0  0  0  0  0  0  0  0  0
  149.6692  137.9723  156.6000 C   0  0  2  0  0  0  0  0  0  0  0  0
  149.6961  136.6099  156.1734 O   0  0  0  0  0  0  0  0  0  0  0  0
  150.7841  136.0940  155.5758 C   0  0  0  0  0  0  0  0  0  0  0  0
  150.6724  134.5892  155.3742 C   0  0  0  0  0  0  0  0  0  0  0  0
  151.7707  136.7229  155.1941 O   0  0  0  0  0  0  0  0  0  0  0  0
  150.2230  138.1298  158.0031 C   0  0  2  0  0  0  0  0  0  0  0  0
  151.4023  137.3560  158.1963 O   0  0  0  0  0  0  0  0  0  0  0  0
  152.5729  137.7673  157.6809 C   0  0  0  0  0  0  0  0  0  0  0  0
  153.5339  136.6130  157.4307 C   0  0  0  0  0  0  0  0  0  0  0  0
  152.8844  138.9311  157.4287 O   0  0  0  0  0  0  0  0  0  0  0  0
  148.5688  137.0241  163.2413 H   0  0  0  0  0  0  0  0  0  0  0  0
  147.9063  135.3969  163.0232 H   0  0  0  0  0  0  0  0  0  0  0  0
  146.8174  136.7737  163.2436 H   0  0  0  0  0  0  0  0  0  0  0  0
  149.8583  135.7512  158.9736 H   0  0  0  0  0  0  0  0  0  0  0  0
  148.1189  135.7932  158.7436 H   0  0  0  0  0  0  0  0  0  0  0  0
  149.0533  138.3621  159.8136 H   0  0  0  0  0  0  0  0  0  0  0  0
  148.1409  139.5450  156.7411 H   0  0  0  0  0  0  0  0  0  0  0  0
  144.1122  136.2807  152.6202 H   0  0  0  0  0  0  0  0  0  0  0  0
  144.3352  137.2299  151.1661 H   0  0  0  0  0  0  0  0  0  0  0  0
  147.6019  140.1718  151.9936 H   0  0  0  0  0  0  0  0  0  0  0  0
  150.1805  138.6308  155.8965 H   0  0  0  0  0  0  0  0  0  0  0  0
  150.1847  134.1232  156.2306 H   0  0  0  0  0  0  0  0  0  0  0  0
  151.6607  134.1444  155.2563 H   0  0  0  0  0  0  0  0  0  0  0  0
  150.0857  134.3736  154.4812 H   0  0  0  0  0  0  0  0  0  0  0  0
  150.4494  139.1885  158.1430 H   0  0  0  0  0  0  0  0  0  0  0  0
  153.1358  135.9495  156.6630 H   0  0  0  0  0  0  0  0  0  0  0  0
  153.6821  136.0377  158.3446 H   0  0  0  0  0  0  0  0  0  0  0  0
  154.5023  136.9862  157.0975 H   0  0  0  0  0  0  0  0  0  0  0  0
  1  2  1  0  0  0  0
  1 30  1  0  0  0  0
  1 31  1  0  0  0  0
  1 32  1  0  0  0  0
  2  3  2  0  0  0  0
  2  4  1  0  0  0  0
  4  5  1  0  0  0  0
  5  6  1  0  0  0  0
  5 33  1  0  0  0  0
  5 34  1  0  0  0  0
  6 25  1  0  0  0  0
  6  7  1  0  0  0  0
  6 35  1  0  0  0  0
  7  8  1  0  0  0  0
  8  9  1  0  0  0  0
  8 20  1  0  0  0  0
  8 36  1  0  0  0  0
  9 19  1  0  0  0  0
  9 10  1  0  0  0  0
 10 11  1  0  0  0  0
 10 12  2  0  0  0  0
 12 13  1  0  0  0  0
 13 19  2  0  0  0  0
 13 14  1  0  0  0  0
 14 15  1  0  0  0  0
 14 16  2  0  0  0  0
 15 37  1  0  0  0  0
 15 38  1  0  0  0  0
 16 17  1  0  0  0  0
 17 18  2  0  0  0  0
 17 39  1  0  0  0  0
 18 19  1  0  0  0  0
 20 21  1  0  0  0  0
 20 25  1  0  0  0  0
 20 40  1  0  0  0  0
 21 22  1  0  0  0  0
 22 23  1  0  0  0  0
 22 24  2  0  0  0  0
 23 41  1  0  0  0  0
 23 42  1  0  0  0  0
 23 43  1  0  0  0  0
 25 26  1  0  0  0  0
 25 44  1  0  0  0  0
 26 27  1  0  0  0  0
 27 28  1  0  0  0  0
 27 29  2  0  0  0  0
 28 45  1  0  0  0  0
 28 46  1  0  0  0  0
 28 47  1  0  0  0  0
M  END
> <s_m_source_file>
AV-unprocessed.smi

> <i_m_source_file_index>
104

> <i_lp_mmshare_version>
43012

> <i_f3d_flags>
0

> <s_epik_input>
W0NIM11DKD1PKU9bQ0gyXVtDQEBIXTFPW0NASF0oW0NAQEhdKE9DKD1PKVtDSDNdKVtDQEhdMU9DKD1PKVtDSDNdKW4oYyhCciluMiljKGMyMyluW2NIXW5jM1tOSDJd

> <s_epik_cmdline>
J2VwaWtfcHl0aG9uJywgJy1waCcsICc3LjAnLCAnLXRuJywgJzgnLCAnLW1hJywgJzIwMCcsICctbWV0YWxfYmluZGluZycsICctaW1hZScsICc8aW5maWxlLm1hZT4nLCAnLW9tYWUnLCAnPG91dGZpbGUubWFlPic=

> <r_lp_tautomer_probability>
1

> <r_epik_Ionization_Penalty>
7.36622e-05

> <r_epik_Ionization_Penalty_Charging>
0

> <r_epik_Ionization_Penalty_Neutral>
7.36622e-05

> <r_epik_State_Penalty>
-0

> <r_epik_Charging_Adjusted_Penalty>
0

> <i_epik_Tot_Q>
0

> <i_epik_Tot_abs_Q>
0

> <r_epik_Metal_State_Penalty>
-0

> <b_epik_Metal_Only>
0

> <s_epik_Chemistry_Notes>
This compound has an ester and may undergo hydrolysis at high or low pH. This compound contains an acetal/aminal-like group ( X-CH(R)-Y where X, Y are N, S, or O) that may be acid/base labile, releasing an aldehyde.

> <s_lp_Force_Field>
OPLS_2005

> <r_lp_Energy>
19.209

> <b_lp_Chiralities_Consistent>
1

> <s_lp_Variant>
AV-unprocessed.smi:104-15

> <Gold.Version>
5.8.1

> <Gold.Id.Protein>
6NUR|6NUR_protein|mol2

> <Gold.PLP.Fitness>
34.8968

> <Gold.PLP.PLP>
-24.2348

> <Gold.PLP.part.hbond>
-3.9255

> <Gold.PLP.part.metal>
0.0000

> <Gold.PLP.part.buried>
-2.6651

> <Gold.PLP.part.nonpolar>
-18.0693

> <Gold.PLP.part.repulsive>
0.7924

> <Gold.PLP.ligand.clash>
0.0000

> <Gold.PLP.ligand.torsion>
1.9887

> <Gold.PLP.Chemscore.Hbond>
3.9023

> <Gold.PLP.Chemscore.CHOScore>
0.8749

> <Gold.PLP.Chemscore.Metal>
0.0000

> <Gold.Chemscore.Hbonds>
donor molecule, donor type, donor heavy atom, donor atom, acceptor molecule, acceptor atom, score
      L1  H    15    38       P1 10171  0.98
      P1  H  6934  6947       L1     3  1.00
      P1  H  7997  8008       L1    29  0.99
      P1  H 10752 10765       L1    24  1.00
      L1  C    17    39       P1  7957  0.89

> <Gold.PLP.Chemscore.Internal.Correction>
0.3081

> <Gold.Rescore>
     Score         DG    S(hbond)    S(metal)    S(lipo)     H(rot)  DE(clash)    DE(int)     intcor
     -0.17      -9.96       3.45        0.00      34.10       4.31       1.19       8.94       ----

> <Gold.Chemscore.Fitness>
-0.1704

> <Gold.Chemscore.DG>
-9.9603

> <Gold.Chemscore.ZeroCoef>
-5.4800

> <Gold.Chemscore.Hbond>
3.4480

> <Gold.Chemscore.Metal>
0.0000

> <Gold.Chemscore.Lipo>
34.1025

> <Gold.Chemscore.Internal_Hbond>
0.0000

> <Gold.Chemscore.DEClash>
1.1875

> <Gold.Chemscore.DEInternal>
8.9432

> <Gold.Chemscore.Rot>
4.3070

> <Gold.Chemscore.Internal.Correction>
   9.000000E+99

> <Gold.Chemscore.Hbonds>
donor molecule, donor type, donor heavy atom, donor atom, acceptor molecule, acceptor atom, score
      L1  H    15    38       P1 10171  0.92
      P1  H  6934  6947       L1     3  0.55
      P1  H  7997  8008       L1    29  0.92
      P1  H 10752 10765       L1    24  0.65

> <Gold.Chemscore.Hbond.Weighted>
-11.5162

> <Gold.Chemscore.Metal.Weighted>
-0.0000

> <Gold.Chemscore.Lipo.Weighted>
-3.9900

> <Gold.Chemscore.Internal_Hbond.Weighted>
0.0000

> <Gold.Chemscore.DEClash.Weighted>
1.1875

> <Gold.Chemscore.DEInternal.Weighted>
8.9432

> <Gold.Chemscore.Rot.Weighted>
11.0259

> <Gold.Chemscore.Internal.Correction.Weighted>
   9.000000E+99

> <Gold.Protein.RotatedTorsions>
[ 6907 6896 6895 6894 ] final  156.22 input  -60.11 | X-H torsion
[ 7974 7965 7964 7962 ] final -106.57 input  175.53 | X-H torsion
[ 8008 7997 7996 7995 ] final  -79.27 input   59.86 | X-H torsion
[ 10167 10162 10161 10158 ] final  144.84 input  -65.29 | X-H torsion
[ 10718 10713 10712 10709 ] final  137.52 input   66.30 | X-H torsion
[ 10763 10752 10751 10750 ] final -175.67 input  -60.55 | X-H torsion
[ 11005 11000 10999 10996 ] final   30.87 input  -57.11 | X-H torsion

> <Gold.Protein.ActiveResidues>
 VAL166  LYS551  ARG553  GLY616  TRP617  ASP618  TYR619  PRO620  LYS621  CYS622 
 ASP623  PHE694  ASN695  SER759  ASP760  ASP761  ALA762  ILE779  LEU786  VAL792 
 PHE793  MET794  SER795  GLU796  ALA797  LYS798  CYS799  TRP800  GLU811  SER814 

> <Gold.Protein.RotatedAtoms>
  152.0329  133.3944  159.4304 H   0  0  0  0  0  0  0  0  0  0  0  0  # atno 6907 bound_to 6896
  150.6881  134.3501  159.4914 H   0  0  0  0  0  0  0  0  0  0  0  0  # atno 6908 bound_to 6896
  152.1290  134.9149  160.0610 H   0  0  0  0  0  0  0  0  0  0  0  0  # atno 6909 bound_to 6896
  145.2162  140.9116  143.3286 H   0  0  0  0  0  0  0  0  0  0  0  0  # atno 7974 bound_to 7965
  154.5769  140.0681  156.9047 H   0  0  0  0  0  0  0  0  0  0  0  0  # atno 8008 bound_to 7997
  155.2533  140.3353  155.4262 H   0  0  0  0  0  0  0  0  0  0  0  0  # atno 8009 bound_to 7997
  156.2160  140.1779  156.7572 H   0  0  0  0  0  0  0  0  0  0  0  0  # atno 8010 bound_to 7997
  139.4938  144.5944  151.6614 H   0  0  0  0  0  0  0  0  0  0  0  0  # atno 10167 bound_to 10162
  157.4352  131.1052  151.0205 H   0  0  0  0  0  0  0  0  0  0  0  0  # atno 10718 bound_to 10713
  154.5816  135.2836  155.0727 H   0  0  0  0  0  0  0  0  0  0  0  0  # atno 10763 bound_to 10752
  154.2062  135.6416  153.5105 H   0  0  0  0  0  0  0  0  0  0  0  0  # atno 10764 bound_to 10752
  153.0090  135.5480  154.6471 H   0  0  0  0  0  0  0  0  0  0  0  0  # atno 10765 bound_to 10752
  140.2898  134.2877  155.7779 H   0  0  0  0  0  0  0  0  0  0  0  0  # atno 11005 bound_to 11000
  144.9808  139.3785  143.6263 LP  0  0  0  0  0  0  0  0  0  0  0  0  # atno 17320 bound_to 7965
  146.3386  139.8948  142.8803 LP  0  0  0  0  0  0  0  0  0  0  0  0  # atno 17321 bound_to 7965
  140.5578  144.0318  150.6156 LP  0  0  0  0  0  0  0  0  0  0  0  0  # atno 17342 bound_to 10162
  140.3394  143.3029  152.0604 LP  0  0  0  0  0  0  0  0  0  0  0  0  # atno 17343 bound_to 10162
  157.1088  130.6013  149.5477 LP  0  0  0  0  0  0  0  0  0  0  0  0  # atno 17370 bound_to 10713
  155.9928  130.4987  150.7354 LP  0  0  0  0  0  0  0  0  0  0  0  0  # atno 17371 bound_to 10713
  141.2148  133.7578  156.9608 LP  0  0  0  0  0  0  0  0  0  0  0  0  # atno 17394 bound_to 11000
  140.1205  134.9420  157.2197 LP  0  0  0  0  0  0  0  0  0  0  0  0  # atno 17395 bound_to 11000

$$$$
