AV-unprocessed.smi:2551|AV-procd|sdf|10014|dock9
  -GOLD-   2272014 63D 1   1.00000     0.00000
 Structure written by MMmdl.
 25 26  0  0  0  0  0  0  0  0  2 V2000
  153.6334  140.1158  158.8747 O   0  0  0  0  0  0  0  0  0  0  0  0
  152.5232  140.3804  158.4152 C   0  0  0  0  0  0  0  0  0  0  0  0
  151.7079  139.4479  157.8555 N   0  5  0  0  0  0  0  0  0  0  0  0
  151.2559  139.5436  156.5913 C   0  0  0  0  0  0  0  0  0  0  0  0
  151.2169  140.7099  155.9270 N   0  0  0  0  0  0  0  0  0  0  0  0
  150.7145  140.5879  154.6388 N   0  0  0  0  0  0  0  0  0  0  0  0
  150.3957  139.3245  154.3592 C   0  0  0  0  0  0  0  0  0  0  0  0
  150.6779  138.1698  155.6447 S   0  0  0  0  0  0  0  0  0  0  0  0
  152.0853  141.6539  158.4626 N   0  0  0  0  0  0  0  0  0  0  0  0
  152.8064  142.7939  159.0232 C   0  0  0  0  0  0  0  0  0  0  0  0
  152.3707  143.0504  160.4786 C   0  0  0  0  0  0  0  0  0  0  0  0
  152.0841  144.5495  160.5771 C   0  0  0  0  0  0  0  0  0  0  0  0
  151.6255  144.9376  159.1753 C   0  0  0  0  0  0  0  0  0  0  0  0
  152.4991  144.0913  158.2491 C   0  0  0  0  0  0  0  0  0  0  0  0
  149.9930  139.0707  153.3899 H   0  0  0  0  0  0  0  0  0  0  0  0
  151.1748  141.8443  158.0708 H   0  0  0  0  0  0  0  0  0  0  0  0
  153.8800  142.5989  158.9973 H   0  0  0  0  0  0  0  0  0  0  0  0
  151.4571  142.4997  160.7093 H   0  0  0  0  0  0  0  0  0  0  0  0
  153.1270  142.7317  161.1967 H   0  0  0  0  0  0  0  0  0  0  0  0
  151.3446  144.7863  161.3425 H   0  0  0  0  0  0  0  0  0  0  0  0
  153.0024  145.0844  160.8230 H   0  0  0  0  0  0  0  0  0  0  0  0
  150.5777  144.6650  159.0430 H   0  0  0  0  0  0  0  0  0  0  0  0
  151.7203  146.0065  158.9816 H   0  0  0  0  0  0  0  0  0  0  0  0
  153.4329  144.6197  158.0527 H   0  0  0  0  0  0  0  0  0  0  0  0
  152.0214  143.9190  157.2834 H   0  0  0  0  0  0  0  0  0  0  0  0
  1  2  2  0  0  0  0
  2  3  1  0  0  0  0
  2  9  1  0  0  0  0
  3  4  1  0  0  0  0
  4  8  1  0  0  0  0
  4  5  2  0  0  0  0
  5  6  1  0  0  0  0
  6  7  2  0  0  0  0
  7  8  1  0  0  0  0
  7 15  1  0  0  0  0
  9 10  1  0  0  0  0
  9 16  1  0  0  0  0
 10 14  1  0  0  0  0
 10 11  1  0  0  0  0
 10 17  1  0  0  0  0
 11 12  1  0  0  0  0
 11 18  1  0  0  0  0
 11 19  1  0  0  0  0
 12 13  1  0  0  0  0
 12 20  1  0  0  0  0
 12 21  1  0  0  0  0
 13 14  1  0  0  0  0
 13 22  1  0  0  0  0
 13 23  1  0  0  0  0
 14 24  1  0  0  0  0
 14 25  1  0  0  0  0
M  CHG  1   3  -1
M  END
> <s_m_source_file>
AV-unprocessed.smi

> <i_m_source_file_index>
2551

> <i_lp_mmshare_version>
43012

> <i_f3d_flags>
0

> <s_epik_input>
W0NIMl0xW0NIMl1bQ0gyXVtDSDJdW0NIXTFbTkhdQyg9TylbTkhdYzJubltjSF1zMg==

> <s_epik_cmdline>
J2VwaWtfcHl0aG9uJywgJy1waCcsICc3LjAnLCAnLXRuJywgJzgnLCAnLW1hJywgJzIwMCcsICctbWV0YWxfYmluZGluZycsICctaW1hZScsICc8aW5maWxlLm1hZT4nLCAnLW9tYWUnLCAnPG91dGZpbGUubWFlPic=

> <r_lp_tautomer_probability>
1

> <r_epik_Ionization_Penalty>
4.51495

> <r_epik_Ionization_Penalty_Charging>
4.46823

> <r_epik_Ionization_Penalty_Neutral>
0.0467187

> <r_epik_State_Penalty>
4.46792

> <r_epik_Charging_Adjusted_Penalty>
8.93614

> <i_epik_Tot_Q>
-1

> <i_epik_Tot_abs_Q>
1

> <r_epik_Metal_State_Penalty>
0.803637

> <b_epik_Metal_Only>
1

> <s_lp_Force_Field>
OPLS_2005

> <r_lp_Energy>
17.7165

> <b_lp_Chiralities_Consistent>
1

> <s_lp_Variant>
AV-unprocessed.smi:2551-2

> <Gold.Version>
5.8.1

> <Gold.Id.Protein>
6NUR|6NUR_protein|mol2

> <Gold.PLP.Fitness>
37.4442

> <Gold.PLP.PLP>
-30.4418

> <Gold.PLP.part.hbond>
-1.8453

> <Gold.PLP.part.metal>
0.0000

> <Gold.PLP.part.buried>
-3.1295

> <Gold.PLP.part.nonpolar>
-24.5581

> <Gold.PLP.part.repulsive>
0.1985

> <Gold.PLP.ligand.clash>
0.0000

> <Gold.PLP.ligand.torsion>
0.9888

> <Gold.PLP.Chemscore.Hbond>
1.9920

> <Gold.PLP.Chemscore.CHOScore>
1.0000

> <Gold.PLP.Chemscore.Metal>
0.0000

> <Gold.Chemscore.Hbonds>
donor molecule, donor type, donor heavy atom, donor atom, acceptor molecule, acceptor atom, score
      P1  H  7989  7998       L1     6  0.89
      P1  H  7997  8008       L1     1  0.98
      L1  C     7    15       P1  7957  1.00

> <Gold.PLP.Chemscore.Internal.Correction>
0.0040

> <Gold.Rescore>
     Score         DG    S(hbond)    S(metal)    S(lipo)     H(rot)  DE(clash)    DE(int)     intcor
     15.27     -16.30       1.32        0.00      76.63       1.00       0.02       1.01       ----

> <Gold.Chemscore.Fitness>
15.2713

> <Gold.Chemscore.DG>
-16.3007

> <Gold.Chemscore.ZeroCoef>
-5.4800

> <Gold.Chemscore.Hbond>
1.3220

> <Gold.Chemscore.Metal>
0.0000

> <Gold.Chemscore.Lipo>
76.6257

> <Gold.Chemscore.Internal_Hbond>
0.0000

> <Gold.Chemscore.DEClash>
0.0197

> <Gold.Chemscore.DEInternal>
1.0097

> <Gold.Chemscore.Rot>
1.0000

> <Gold.Chemscore.Internal.Correction>
   9.000000E+99

> <Gold.Chemscore.Hbonds>
donor molecule, donor type, donor heavy atom, donor atom, acceptor molecule, acceptor atom, score
      P1  H  7989  7998       L1     6  0.20
      P1  H  7997  8008       L1     1  0.34

> <Gold.Chemscore.Hbond.Weighted>
-4.4155

> <Gold.Chemscore.Metal.Weighted>
-0.0000

> <Gold.Chemscore.Lipo.Weighted>
-8.9652

> <Gold.Chemscore.Internal_Hbond.Weighted>
0.0000

> <Gold.Chemscore.DEClash.Weighted>
0.0197

> <Gold.Chemscore.DEInternal.Weighted>
1.0097

> <Gold.Chemscore.Rot.Weighted>
2.5600

> <Gold.Chemscore.Internal.Correction.Weighted>
   9.000000E+99

> <Gold.Protein.RotatedTorsions>
[ 6907 6896 6895 6894 ] final  122.74 input  -60.11 | X-H torsion
[ 7974 7965 7964 7962 ] final   57.15 input  175.53 | X-H torsion
[ 8008 7997 7996 7995 ] final -102.35 input   59.86 | X-H torsion
[ 10167 10162 10161 10158 ] final  -26.97 input  -65.29 | X-H torsion
[ 10718 10713 10712 10709 ] final    4.09 input   66.30 | X-H torsion
[ 10763 10752 10751 10750 ] final  129.72 input  -60.55 | X-H torsion
[ 11005 11000 10999 10996 ] final -160.18 input  -57.11 | X-H torsion

> <Gold.Protein.ActiveResidues>
 VAL166  LYS551  ARG553  GLY616  TRP617  ASP618  TYR619  PRO620  LYS621  CYS622 
 ASP623  PHE694  ASN695  SER759  ASP760  ASP761  ALA762  ILE779  LEU786  VAL792 
 PHE793  MET794  SER795  GLU796  ALA797  LYS798  CYS799  TRP800  GLU811  SER814 

> <Gold.Protein.RotatedAtoms>
  152.4218  133.7129  159.6488 H   0  0  0  0  0  0  0  0  0  0  0  0  # atno 6907 bound_to 6896
  150.8094  133.8438  159.3195 H   0  0  0  0  0  0  0  0  0  0  0  0  # atno 6908 bound_to 6896
  151.6153  135.1039  160.0141 H   0  0  0  0  0  0  0  0  0  0  0  0  # atno 6909 bound_to 6896
  145.9321  139.3816  143.0414 H   0  0  0  0  0  0  0  0  0  0  0  0  # atno 7974 bound_to 7965
  154.8554  140.0429  157.1631 H   0  0  0  0  0  0  0  0  0  0  0  0  # atno 8008 bound_to 7997
  154.8898  140.2985  155.5357 H   0  0  0  0  0  0  0  0  0  0  0  0  # atno 8009 bound_to 7997
  156.2997  140.2395  156.3912 H   0  0  0  0  0  0  0  0  0  0  0  0  # atno 8010 bound_to 7997
  140.7280  143.4133  151.1070 H   0  0  0  0  0  0  0  0  0  0  0  0  # atno 10167 bound_to 10162
  156.8875  130.5675  149.5651 H   0  0  0  0  0  0  0  0  0  0  0  0  # atno 10718 bound_to 10713
  153.7463  135.3216  155.3313 H   0  0  0  0  0  0  0  0  0  0  0  0  # atno 10763 bound_to 10752
  154.8278  135.4556  154.0976 H   0  0  0  0  0  0  0  0  0  0  0  0  # atno 10764 bound_to 10752
  153.2166  135.6943  153.8132 H   0  0  0  0  0  0  0  0  0  0  0  0  # atno 10765 bound_to 10752
  140.6343  134.4618  157.5231 H   0  0  0  0  0  0  0  0  0  0  0  0  # atno 11005 bound_to 11000
  145.8412  140.9580  143.0798 LP  0  0  0  0  0  0  0  0  0  0  0  0  # atno 17320 bound_to 7965
  144.6766  140.0286  143.7483 LP  0  0  0  0  0  0  0  0  0  0  0  0  # atno 17321 bound_to 7965
  139.7769  143.8412  152.3131 LP  0  0  0  0  0  0  0  0  0  0  0  0  # atno 17342 bound_to 10162
  139.8350  144.7236  150.9402 LP  0  0  0  0  0  0  0  0  0  0  0  0  # atno 17343 bound_to 10162
  156.0646  130.5692  150.9262 LP  0  0  0  0  0  0  0  0  0  0  0  0  # atno 17370 bound_to 10713
  157.6104  131.0936  150.8806 LP  0  0  0  0  0  0  0  0  0  0  0  0  # atno 17371 bound_to 10713
  139.9104  134.8357  156.1550 LP  0  0  0  0  0  0  0  0  0  0  0  0  # atno 17394 bound_to 11000
  141.0653  133.6822  156.2032 LP  0  0  0  0  0  0  0  0  0  0  0  0  # atno 17395 bound_to 11000

$$$$
