AV-unprocessed.smi:3190|AV-procd|sdf|12195|dock1
  -GOLD-   2272018 33D 1   1.00000     0.00000
 Structure written by MMmdl.
 34 35  0  0  0  0  0  0  0  0  1 V2000
  151.2494  140.8297  157.0114 O   0  0  0  0  0  0  0  0  0  0  0  0
  150.9900  141.9573  156.5915 C   0  0  0  0  0  0  0  0  0  0  0  0
  151.6659  143.1695  157.2320 C   0  0  0  0  0  0  0  0  0  0  0  0
  151.1285  143.3683  158.5334 O   0  0  0  0  0  0  0  0  0  0  0  0
  152.0954  143.3971  159.5744 C   0  0  0  0  0  0  0  0  0  0  0  0
  152.5093  141.9412  159.8513 C   0  0  0  0  0  0  0  0  0  0  0  0
  153.5000  141.8510  161.0228 C   0  0  0  0  0  0  0  0  0  0  0  0
  152.9203  142.4999  162.2894 C   0  0  0  0  0  0  0  0  0  0  0  0
  152.4988  143.9541  162.0248 C   0  0  0  0  0  0  0  0  0  0  0  0
  151.5138  144.0468  160.8476 C   0  0  0  0  0  0  0  0  0  0  0  0
  150.1215  142.2232  155.5979 N   0  0  0  0  0  0  0  0  0  0  0  0
  149.3696  141.3061  154.8186 C   0  0  0  0  0  0  0  0  0  0  0  0
  148.0664  141.7273  154.4636 C   0  0  0  0  0  0  0  0  0  0  0  0
  147.2310  140.9670  153.7216 N   0  0  0  0  0  0  0  0  0  0  0  0
  147.7004  139.7649  153.3253 C   0  0  0  0  0  0  0  0  0  0  0  0
  148.9955  139.3287  153.6699 C   0  0  0  0  0  0  0  0  0  0  0  0
  149.8255  140.0936  154.4120 N   0  0  0  0  0  0  0  0  0  0  0  0
  152.7400  142.9865  157.2862 H   0  0  0  0  0  0  0  0  0  0  0  0
  151.5070  144.0468  156.6042 H   0  0  0  0  0  0  0  0  0  0  0  0
  152.9791  143.9483  159.2475 H   0  0  0  0  0  0  0  0  0  0  0  0
  151.6245  141.3444  160.0777 H   0  0  0  0  0  0  0  0  0  0  0  0
  152.9544  141.5053  158.9563 H   0  0  0  0  0  0  0  0  0  0  0  0
  153.7488  140.8078  161.2195 H   0  0  0  0  0  0  0  0  0  0  0  0
  154.4333  142.3462  160.7513 H   0  0  0  0  0  0  0  0  0  0  0  0
  152.0579  141.9262  162.6318 H   0  0  0  0  0  0  0  0  0  0  0  0
  153.6546  142.4657  163.0947 H   0  0  0  0  0  0  0  0  0  0  0  0
  152.0465  144.3783  162.9218 H   0  0  0  0  0  0  0  0  0  0  0  0
  153.3820  144.5568  161.8096 H   0  0  0  0  0  0  0  0  0  0  0  0
  151.2677  145.0932  160.6685 H   0  0  0  0  0  0  0  0  0  0  0  0
  150.5797  143.5519  161.1164 H   0  0  0  0  0  0  0  0  0  0  0  0
  150.0010  143.1978  155.3632 H   0  0  0  0  0  0  0  0  0  0  0  0
  147.6866  142.6889  154.7775 H   0  0  0  0  0  0  0  0  0  0  0  0
  147.0415  139.1490  152.7313 H   0  0  0  0  0  0  0  0  0  0  0  0
  149.3659  138.3660  153.3501 H   0  0  0  0  0  0  0  0  0  0  0  0
  1  2  2  0  0  0  0
  2  3  1  0  0  0  0
  2 11  1  0  0  0  0
  3  4  1  0  0  0  0
  3 18  1  0  0  0  0
  3 19  1  0  0  0  0
  4  5  1  0  0  0  0
  5 10  1  0  0  0  0
  5  6  1  0  0  0  0
  5 20  1  0  0  0  0
  6  7  1  0  0  0  0
  6 21  1  0  0  0  0
  6 22  1  0  0  0  0
  7  8  1  0  0  0  0
  7 23  1  0  0  0  0
  7 24  1  0  0  0  0
  8  9  1  0  0  0  0
  8 25  1  0  0  0  0
  8 26  1  0  0  0  0
  9 10  1  0  0  0  0
  9 27  1  0  0  0  0
  9 28  1  0  0  0  0
 10 29  1  0  0  0  0
 10 30  1  0  0  0  0
 11 12  1  0  0  0  0
 11 31  1  0  0  0  0
 12 17  1  0  0  0  0
 12 13  2  0  0  0  0
 13 14  1  0  0  0  0
 13 32  1  0  0  0  0
 14 15  2  0  0  0  0
 15 16  1  0  0  0  0
 15 33  1  0  0  0  0
 16 17  2  0  0  0  0
 16 34  1  0  0  0  0
M  END
> <s_m_source_file>
AV-unprocessed.smi

> <i_m_source_file_index>
3190

> <i_lp_mmshare_version>
43012

> <i_f3d_flags>
0

> <s_epik_input>
bjFbY0hdW2NIXW5bY0hdYzFbTkhdQyg9TylbQ0gyXU9bQ0hdMltDSDJdW0NIMl1bQ0gyXVtDSDJdW0NIMl0y

> <s_epik_cmdline>
J2VwaWtfcHl0aG9uJywgJy1waCcsICc3LjAnLCAnLXRuJywgJzgnLCAnLW1hJywgJzIwMCcsICctbWV0YWxfYmluZGluZycsICctaW1hZScsICc8aW5maWxlLm1hZT4nLCAnLW9tYWUnLCAnPG91dGZpbGUubWFlPic=

> <r_lp_tautomer_probability>
1

> <r_epik_Ionization_Penalty>
2.91572e-06

> <r_epik_Ionization_Penalty_Charging>
0

> <r_epik_Ionization_Penalty_Neutral>
2.91572e-06

> <r_epik_State_Penalty>
-0

> <r_epik_Charging_Adjusted_Penalty>
0

> <i_epik_Tot_Q>
0

> <i_epik_Tot_abs_Q>
0

> <r_epik_Metal_State_Penalty>
-0

> <b_epik_Metal_Only>
0

> <s_lp_Force_Field>
OPLS_2005

> <r_lp_Energy>
19.8826

> <b_lp_Chiralities_Consistent>
1

> <s_lp_Variant>
AV-unprocessed.smi:3190-1

> <Gold.Version>
5.8.1

> <Gold.Id.Protein>
6NUR|6NUR_protein|mol2

> <Gold.PLP.Fitness>
45.8705

> <Gold.PLP.PLP>
-37.1263

> <Gold.PLP.part.hbond>
-2.0000

> <Gold.PLP.part.metal>
0.0000

> <Gold.PLP.part.buried>
0.8736

> <Gold.PLP.part.nonpolar>
-35.0057

> <Gold.PLP.part.repulsive>
0.5593

> <Gold.PLP.ligand.clash>
0.0000

> <Gold.PLP.ligand.torsion>
0.9054

> <Gold.PLP.Chemscore.Hbond>
1.8971

> <Gold.PLP.Chemscore.CHOScore>
1.6142

> <Gold.PLP.Chemscore.Metal>
0.0000

> <Gold.Chemscore.Hbonds>
donor molecule, donor type, donor heavy atom, donor atom, acceptor molecule, acceptor atom, score
      L1  H    11    31       P1  8028  0.88
      P1  H  7989  7998       L1    17  0.49
      L1  C    13    32       P1  8028  1.00
      L1  C    16    34       P1  7948  0.82

> <Gold.PLP.Chemscore.Internal.Correction>
0.0212

> <Gold.Rescore>
     Score         DG    S(hbond)    S(metal)    S(lipo)     H(rot)  DE(clash)    DE(int)     intcor
     15.01     -17.00       1.15        0.00      98.77       1.52       0.15       1.83       ----

> <Gold.Chemscore.Fitness>
15.0140

> <Gold.Chemscore.DG>
-16.9956

> <Gold.Chemscore.ZeroCoef>
-5.4800

> <Gold.Chemscore.Hbond>
1.1504

> <Gold.Chemscore.Metal>
0.0000

> <Gold.Chemscore.Lipo>
98.7682

> <Gold.Chemscore.Internal_Hbond>
0.0000

> <Gold.Chemscore.DEClash>
0.1532

> <Gold.Chemscore.DEInternal>
1.8284

> <Gold.Chemscore.Rot>
1.5166

> <Gold.Chemscore.Internal.Correction>
   9.000000E+99

> <Gold.Chemscore.Hbonds>
donor molecule, donor type, donor heavy atom, donor atom, acceptor molecule, acceptor atom, score
      L1  H    11    31       P1  8028  0.86
      P1  H  7989  7998       L1    17  0.06

> <Gold.Chemscore.Hbond.Weighted>
-3.8422

> <Gold.Chemscore.Metal.Weighted>
-0.0000

> <Gold.Chemscore.Lipo.Weighted>
-11.5559

> <Gold.Chemscore.Internal_Hbond.Weighted>
0.0000

> <Gold.Chemscore.DEClash.Weighted>
0.1532

> <Gold.Chemscore.DEInternal.Weighted>
1.8284

> <Gold.Chemscore.Rot.Weighted>
3.8824

> <Gold.Chemscore.Internal.Correction.Weighted>
   9.000000E+99

> <Gold.Protein.RotatedTorsions>
[ 6907 6896 6895 6894 ] final   31.76 input  -60.11 | X-H torsion
[ 7974 7965 7964 7962 ] final  -48.75 input  175.53 | X-H torsion
[ 8008 7997 7996 7995 ] final -156.80 input   59.86 | X-H torsion
[ 10167 10162 10161 10158 ] final   -8.59 input  -65.29 | X-H torsion
[ 10718 10713 10712 10709 ] final   55.48 input   66.30 | X-H torsion
[ 10763 10752 10751 10750 ] final -104.03 input  -60.55 | X-H torsion
[ 11005 11000 10999 10996 ] final  -24.10 input  -57.11 | X-H torsion

> <Gold.Protein.ActiveResidues>
 VAL166  LYS551  ARG553  GLY616  TRP617  ASP618  TYR619  PRO620  LYS621  CYS622 
 ASP623  PHE694  ASN695  SER759  ASP760  ASP761  ALA762  ILE779  LEU786  VAL792 
 PHE793  MET794  SER795  GLU796  ALA797  LYS798  CYS799  TRP800  GLU811  SER814 

> <Gold.Protein.RotatedAtoms>
  152.0648  134.9571  160.0574 H   0  0  0  0  0  0  0  0  0  0  0  0  # atno 6907 bound_to 6896
  152.0920  133.4200  159.4556 H   0  0  0  0  0  0  0  0  0  0  0  0  # atno 6908 bound_to 6896
  150.6837  134.2780  159.4659 H   0  0  0  0  0  0  0  0  0  0  0  0  # atno 6909 bound_to 6896
  145.9479  140.7600  142.9519 H   0  0  0  0  0  0  0  0  0  0  0  0  # atno 7974 bound_to 7965
  155.7226  140.0792  157.2324 H   0  0  0  0  0  0  0  0  0  0  0  0  # atno 8008 bound_to 7997
  154.4043  140.1610  156.2474 H   0  0  0  0  0  0  0  0  0  0  0  0  # atno 8009 bound_to 7997
  155.9182  140.3399  155.6155 H   0  0  0  0  0  0  0  0  0  0  0  0  # atno 8010 bound_to 7997
  140.7063  143.5952  150.8853 H   0  0  0  0  0  0  0  0  0  0  0  0  # atno 10167 bound_to 10162
  157.5349  130.8656  149.8739 H   0  0  0  0  0  0  0  0  0  0  0  0  # atno 10718 bound_to 10713
  154.7850  135.4801  153.9926 H   0  0  0  0  0  0  0  0  0  0  0  0  # atno 10763 bound_to 10752
  153.1547  135.6797  153.8837 H   0  0  0  0  0  0  0  0  0  0  0  0  # atno 10764 bound_to 10752
  153.8470  135.3172  155.3408 H   0  0  0  0  0  0  0  0  0  0  0  0  # atno 10765 bound_to 10752
  140.8814  133.7651  156.0306 H   0  0  0  0  0  0  0  0  0  0  0  0  # atno 11005 bound_to 11000
  144.6790  140.2386  143.7346 LP  0  0  0  0  0  0  0  0  0  0  0  0  # atno 17320 bound_to 7965
  145.8211  139.2044  143.1937 LP  0  0  0  0  0  0  0  0  0  0  0  0  # atno 17321 bound_to 7965
  139.9677  143.6092  152.2983 LP  0  0  0  0  0  0  0  0  0  0  0  0  # atno 17342 bound_to 10162
  139.6668  144.7662  151.1859 LP  0  0  0  0  0  0  0  0  0  0  0  0  # atno 17343 bound_to 10162
  156.0451  130.3730  150.1339 LP  0  0  0  0  0  0  0  0  0  0  0  0  # atno 17370 bound_to 10713
  156.9521  130.9778  151.3496 LP  0  0  0  0  0  0  0  0  0  0  0  0  # atno 17371 bound_to 10713
  140.8457  134.3014  157.5296 LP  0  0  0  0  0  0  0  0  0  0  0  0  # atno 17394 bound_to 11000
  139.8720  134.9440  156.3869 LP  0  0  0  0  0  0  0  0  0  0  0  0  # atno 17395 bound_to 11000

$$$$
