AV-unprocessed.smi:2686|AV-procd|sdf|10384|dock10
  -GOLD-   2272014413D 1   1.00000     0.00000
 Structure written by MMmdl.
 32 32  0  0  0  0  0  0  0  0  1 V2000
  146.6084  141.2149  155.0627 C   0  0  0  0  0  0  0  0  0  0  0  0
  147.7899  140.3742  155.1813 N   0  0  0  0  0  0  0  0  0  0  0  0
  148.9441  140.5992  154.5383 C   0  0  0  0  0  0  0  0  0  0  0  0
  149.1224  141.5633  153.7924 O   0  0  0  0  0  0  0  0  0  0  0  0
  150.0704  139.5905  154.7983 C   0  0  0  0  0  0  0  0  0  0  0  0
  150.3641  139.4207  156.2193 N   0  0  0  0  0  0  0  0  0  0  0  0
  151.5864  139.4945  156.7692 C   0  0  0  0  0  0  0  0  0  0  0  0
  152.6078  139.6973  156.1104 O   0  0  0  0  0  0  0  0  0  0  0  0
  151.6449  139.3150  158.2931 C   0  0  0  0  0  0  0  0  0  0  0  0
  152.1646  140.4942  159.0057 N   0  0  0  0  0  0  0  0  0  0  0  0
  151.5983  141.7401  158.6722 C   0  0  0  0  0  0  0  0  0  0  0  0
  151.9752  142.8959  159.2518 C   0  0  0  0  0  0  0  0  0  0  0  0
  151.3885  144.2327  158.8260 C   0  0  0  0  0  0  0  0  0  0  0  0
  151.8843  145.2301  159.5588 F   0  0  0  0  0  0  0  0  0  0  0  0
  151.6479  144.4867  157.5428 F   0  0  0  0  0  0  0  0  0  0  0  0
  150.0658  144.2181  158.9862 F   0  0  0  0  0  0  0  0  0  0  0  0
  153.0369  142.8075  160.2351 C   0  0  0  0  0  0  0  0  0  0  0  0
  153.5994  141.6257  160.5552 C   0  0  0  0  0  0  0  0  0  0  0  0
  153.1664  140.3750  159.9277 C   0  0  0  0  0  0  0  0  0  0  0  0
  153.6739  139.2897  160.2115 O   0  0  0  0  0  0  0  0  0  0  0  0
  145.8338  140.8661  155.7455 H   0  0  0  0  0  0  0  0  0  0  0  0
  146.2105  141.1787  154.0479 H   0  0  0  0  0  0  0  0  0  0  0  0
  146.8385  142.2525  155.3091 H   0  0  0  0  0  0  0  0  0  0  0  0
  147.7229  139.5637  155.7798 H   0  0  0  0  0  0  0  0  0  0  0  0
  149.7695  138.6243  154.3929 H   0  0  0  0  0  0  0  0  0  0  0  0
  150.9747  139.8869  154.2633 H   0  0  0  0  0  0  0  0  0  0  0  0
  149.5770  139.2576  156.8303 H   0  0  0  0  0  0  0  0  0  0  0  0
  150.6426  139.0754  158.6517 H   0  0  0  0  0  0  0  0  0  0  0  0
  152.2450  138.4320  158.5197 H   0  0  0  0  0  0  0  0  0  0  0  0
  150.8410  141.6962  157.9026 H   0  0  0  0  0  0  0  0  0  0  0  0
  153.3859  143.7041  160.7258 H   0  0  0  0  0  0  0  0  0  0  0  0
  154.3877  141.5980  161.2930 H   0  0  0  0  0  0  0  0  0  0  0  0
  1  2  1  0  0  0  0
  1 21  1  0  0  0  0
  1 22  1  0  0  0  0
  1 23  1  0  0  0  0
  2  3  1  0  0  0  0
  2 24  1  0  0  0  0
  3  4  2  0  0  0  0
  3  5  1  0  0  0  0
  5  6  1  0  0  0  0
  5 25  1  0  0  0  0
  5 26  1  0  0  0  0
  6  7  1  0  0  0  0
  6 27  1  0  0  0  0
  7  8  2  0  0  0  0
  7  9  1  0  0  0  0
  9 10  1  0  0  0  0
  9 28  1  0  0  0  0
  9 29  1  0  0  0  0
 10 19  1  0  0  0  0
 10 11  1  0  0  0  0
 11 12  2  0  0  0  0
 11 30  1  0  0  0  0
 12 13  1  0  0  0  0
 12 17  1  0  0  0  0
 13 14  1  0  0  0  0
 13 15  1  0  0  0  0
 13 16  1  0  0  0  0
 17 18  2  0  0  0  0
 17 31  1  0  0  0  0
 18 19  1  0  0  0  0
 18 32  1  0  0  0  0
 19 20  2  0  0  0  0
M  END
> <s_m_source_file>
AV-unprocessed.smi

> <i_m_source_file_index>
2686

> <i_lp_mmshare_version>
43012

> <i_f3d_flags>
0

> <s_epik_input>
W0NIM11bTkhdQyg9TylbQ0gyXVtOSF1DKD1PKVtDSDJdbjFbY0hdYyhDKEYpKEYpRilbY0hdW2NIXWMxPU8=

> <s_epik_cmdline>
J2VwaWtfcHl0aG9uJywgJy1waCcsICc3LjAnLCAnLXRuJywgJzgnLCAnLW1hJywgJzIwMCcsICctbWV0YWxfYmluZGluZycsICctaW1hZScsICc8aW5maWxlLm1hZT4nLCAnLW9tYWUnLCAnPG91dGZpbGUubWFlPic=

> <r_lp_tautomer_probability>
1

> <r_epik_Ionization_Penalty>
8.267e-08

> <r_epik_Ionization_Penalty_Charging>
1.5129e-08

> <r_epik_Ionization_Penalty_Neutral>
6.7541e-08

> <r_epik_State_Penalty>
-0

> <r_epik_Charging_Adjusted_Penalty>
1.5129e-08

> <i_epik_Tot_Q>
0

> <i_epik_Tot_abs_Q>
0

> <r_epik_Metal_State_Penalty>
-0

> <b_epik_Metal_Only>
0

> <s_lp_Force_Field>
OPLS_2005

> <r_lp_Energy>
10.5627

> <b_lp_Chiralities_Consistent>
1

> <s_lp_Variant>
AV-unprocessed.smi:2686-1

> <Gold.Version>
5.8.1

> <Gold.Id.Protein>
6NUR|6NUR_protein|mol2

> <Gold.PLP.Fitness>
50.0822

> <Gold.PLP.PLP>
-45.5155

> <Gold.PLP.part.hbond>
-3.0000

> <Gold.PLP.part.metal>
0.0000

> <Gold.PLP.part.buried>
-5.7212

> <Gold.PLP.part.nonpolar>
-36.7519

> <Gold.PLP.part.repulsive>
0.3117

> <Gold.PLP.ligand.clash>
0.0000

> <Gold.PLP.ligand.torsion>
0.2234

> <Gold.PLP.Chemscore.Hbond>
1.6560

> <Gold.PLP.Chemscore.CHOScore>
0.0000

> <Gold.PLP.Chemscore.Metal>
0.0000

> <Gold.Chemscore.Hbonds>
donor molecule, donor type, donor heavy atom, donor atom, acceptor molecule, acceptor atom, score
      P1  H  7997  8009       L1     8  1.00
      P1  H  8011  8017       L1     4  0.72

> <Gold.PLP.Chemscore.Internal.Correction>
0.0455

> <Gold.Rescore>
     Score         DG    S(hbond)    S(metal)    S(lipo)     H(rot)  DE(clash)    DE(int)     intcor
     13.02     -13.24       1.66        0.00      69.70       2.32       0.11       0.11       ----

> <Gold.Chemscore.Fitness>
13.0162

> <Gold.Chemscore.DG>
-13.2380

> <Gold.Chemscore.ZeroCoef>
-5.4800

> <Gold.Chemscore.Hbond>
1.6581

> <Gold.Chemscore.Metal>
0.0000

> <Gold.Chemscore.Lipo>
69.7023

> <Gold.Chemscore.Internal_Hbond>
0.0000

> <Gold.Chemscore.DEClash>
0.1080

> <Gold.Chemscore.DEInternal>
0.1137

> <Gold.Chemscore.Rot>
2.3184

> <Gold.Chemscore.Internal.Correction>
   9.000000E+99

> <Gold.Chemscore.Hbonds>
donor molecule, donor type, donor heavy atom, donor atom, acceptor molecule, acceptor atom, score
      P1  H  7997  8009       L1     8  1.00
      P1  H  8011  8017       L1     4  0.72

> <Gold.Chemscore.Hbond.Weighted>
-5.5380

> <Gold.Chemscore.Metal.Weighted>
-0.0000

> <Gold.Chemscore.Lipo.Weighted>
-8.1552

> <Gold.Chemscore.Internal_Hbond.Weighted>
0.0000

> <Gold.Chemscore.DEClash.Weighted>
0.1080

> <Gold.Chemscore.DEInternal.Weighted>
0.1137

> <Gold.Chemscore.Rot.Weighted>
5.9352

> <Gold.Chemscore.Internal.Correction.Weighted>
   9.000000E+99

> <Gold.Protein.RotatedTorsions>
[ 6907 6896 6895 6894 ] final  135.91 input  -60.11 | X-H torsion
[ 7974 7965 7964 7962 ] final  145.36 input  175.53 | X-H torsion
[ 8008 7997 7996 7995 ] final -149.97 input   59.86 | X-H torsion
[ 10167 10162 10161 10158 ] final    3.96 input  -65.29 | X-H torsion
[ 10718 10713 10712 10709 ] final  142.76 input   66.30 | X-H torsion
[ 10763 10752 10751 10750 ] final -106.37 input  -60.55 | X-H torsion
[ 11005 11000 10999 10996 ] final  178.33 input  -57.11 | X-H torsion

> <Gold.Protein.ActiveResidues>
 VAL166  LYS551  ARG553  GLY616  TRP617  ASP618  TYR619  PRO620  LYS621  CYS622 
 ASP623  PHE694  ASN695  SER759  ASP760  ASP761  ALA762  ILE779  LEU786  VAL792 
 PHE793  MET794  SER795  GLU796  ALA797  LYS798  CYS799  TRP800  GLU811  SER814 

> <Gold.Protein.RotatedAtoms>
  152.2952  133.5600  159.5582 H   0  0  0  0  0  0  0  0  0  0  0  0  # atno 6907 bound_to 6896
  150.7253  134.0371  159.3762 H   0  0  0  0  0  0  0  0  0  0  0  0  # atno 6908 bound_to 6896
  151.8274  135.0632  160.0483 H   0  0  0  0  0  0  0  0  0  0  0  0  # atno 6909 bound_to 6896
  144.8758  139.5774  143.5865 H   0  0  0  0  0  0  0  0  0  0  0  0  # atno 7974 bound_to 7965
  155.6161  140.0676  157.2692 H   0  0  0  0  0  0  0  0  0  0  0  0  # atno 8008 bound_to 7997
  154.4241  140.1793  156.1371 H   0  0  0  0  0  0  0  0  0  0  0  0  # atno 8009 bound_to 7997
  156.0046  140.3332  155.6883 H   0  0  0  0  0  0  0  0  0  0  0  0  # atno 8010 bound_to 7997
  140.6559  143.7428  150.7653 H   0  0  0  0  0  0  0  0  0  0  0  0  # atno 10167 bound_to 10162
  157.3768  131.0986  151.0777 H   0  0  0  0  0  0  0  0  0  0  0  0  # atno 10718 bound_to 10713
  154.8008  135.4714  154.0270 H   0  0  0  0  0  0  0  0  0  0  0  0  # atno 10763 bound_to 10752
  153.1777  135.6835  153.8527 H   0  0  0  0  0  0  0  0  0  0  0  0  # atno 10764 bound_to 10752
  153.8087  135.3220  155.3376 H   0  0  0  0  0  0  0  0  0  0  0  0  # atno 10765 bound_to 10752
  140.3939  134.6837  157.4523 H   0  0  0  0  0  0  0  0  0  0  0  0  # atno 11005 bound_to 11000
  146.2962  139.7285  142.9125 LP  0  0  0  0  0  0  0  0  0  0  0  0  # atno 17320 bound_to 7965
  145.4044  141.0389  143.3052 LP  0  0  0  0  0  0  0  0  0  0  0  0  # atno 17321 bound_to 7965
  140.1088  143.4719  152.2382 LP  0  0  0  0  0  0  0  0  0  0  0  0  # atno 17342 bound_to 10162
  139.5782  144.7497  151.3710 LP  0  0  0  0  0  0  0  0  0  0  0  0  # atno 17343 bound_to 10162
  157.1860  130.6331  149.5688 LP  0  0  0  0  0  0  0  0  0  0  0  0  # atno 17370 bound_to 10713
  155.9767  130.4738  150.6545 LP  0  0  0  0  0  0  0  0  0  0  0  0  # atno 17371 bound_to 10713
  140.0386  134.6301  155.9011 LP  0  0  0  0  0  0  0  0  0  0  0  0  # atno 17394 bound_to 11000
  141.1881  133.6561  156.5309 LP  0  0  0  0  0  0  0  0  0  0  0  0  # atno 17395 bound_to 11000

$$$$
