AV-unprocessed.smi:2351|AV-procd|sdf|9377|dock1
  -GOLD-   2272013 03D 1   1.00000     0.00000
 Structure written by MMmdl.
 47 49  0  0  0  0  0  0  0  0  2 V2000
  150.6759  141.9970  155.9263 O   0  0  0  0  0  0  0  0  0  0  0  0
  151.2200  141.0402  156.4761 C   0  0  0  0  0  0  0  0  0  0  0  0
  151.7806  141.0550  157.6978 N   0  0  0  0  0  0  0  0  0  0  0  0
  151.8362  142.1136  158.6461 C   0  0  0  0  0  0  0  0  0  0  0  0
  151.1521  143.3462  158.5098 C   0  0  0  0  0  0  0  0  0  0  0  0
  151.2782  144.3053  159.5352 C   0  0  0  0  0  0  0  0  0  0  0  0
  152.0128  144.1106  160.6505 N   0  0  0  0  0  0  0  0  0  0  0  0
  152.6538  142.9302  160.7828 C   0  0  0  0  0  0  0  0  0  0  0  0
  152.5944  141.9049  159.8176 C   0  0  0  0  0  0  0  0  0  0  0  0
  153.2587  140.7404  160.0158 F   0  0  0  0  0  0  0  0  0  0  0  0
  151.3375  139.8324  155.9054 N   0  0  0  0  0  0  0  0  0  0  0  0
  150.8445  139.4728  154.5758 C   0  0  2  0  0  0  0  0  0  0  0  0
  149.3127  139.2993  154.5563 C   0  0  0  0  0  0  0  0  0  0  0  0
  148.8666  138.0399  155.3192 C   0  0  0  0  0  0  0  0  0  0  0  0
  149.5318  136.8242  154.7838 N   0  3  2  0  0  0  0  0  0  0  0  0
  149.0094  135.5800  155.4049 C   0  0  0  0  0  0  0  0  0  0  0  0
  149.6910  134.3103  154.8578 C   0  0  1  0  0  0  0  0  0  0  0  0
  149.8577  133.2162  155.8928 C   0  0  0  0  0  0  0  0  0  0  0  0
  150.0751  131.9830  155.0205 C   0  0  0  0  0  0  0  0  0  0  0  0
  149.3533  132.2258  153.8162 O   0  0  0  0  0  0  0  0  0  0  0  0
  148.8849  133.5699  153.7895 C   0  0  0  0  0  0  0  0  0  0  0  0
  151.0134  136.9394  154.8523 C   0  0  0  0  0  0  0  0  0  0  0  0
  151.5147  138.1777  154.0859 C   0  0  0  0  0  0  0  0  0  0  0  0
  152.2614  140.2117  157.9751 H   0  0  0  0  0  0  0  0  0  0  0  0
  150.5306  143.5730  157.6579 H   0  0  0  0  0  0  0  0  0  0  0  0
  150.7687  145.2544  159.4592 H   0  0  0  0  0  0  0  0  0  0  0  0
  153.2296  142.7976  161.6868 H   0  0  0  0  0  0  0  0  0  0  0  0
  151.8134  139.1097  156.4254 H   0  0  0  0  0  0  0  0  0  0  0  0
  151.1177  140.2765  153.8896 H   0  0  0  0  0  0  0  0  0  0  0  0
  148.8179  140.1798  154.9672 H   0  0  0  0  0  0  0  0  0  0  0  0
  148.9762  139.2242  153.5214 H   0  0  0  0  0  0  0  0  0  0  0  0
  149.0869  138.1405  156.3831 H   0  0  0  0  0  0  0  0  0  0  0  0
  147.7844  137.9377  155.2296 H   0  0  0  0  0  0  0  0  0  0  0  0
  149.1230  135.6384  156.4885 H   0  0  0  0  0  0  0  0  0  0  0  0
  147.9375  135.5010  155.2170 H   0  0  0  0  0  0  0  0  0  0  0  0
  150.6787  134.5426  154.4593 H   0  0  0  0  0  0  0  0  0  0  0  0
  150.6833  133.3982  156.5812 H   0  0  0  0  0  0  0  0  0  0  0  0
  148.9443  133.1002  156.4786 H   0  0  0  0  0  0  0  0  0  0  0  0
  151.1317  131.8721  154.7738 H   0  0  0  0  0  0  0  0  0  0  0  0
  149.7429  131.0659  155.5075 H   0  0  0  0  0  0  0  0  0  0  0  0
  147.8223  133.5675  154.0364 H   0  0  0  0  0  0  0  0  0  0  0  0
  149.0000  134.0109  152.7989 H   0  0  0  0  0  0  0  0  0  0  0  0
  151.3275  136.9887  155.8960 H   0  0  0  0  0  0  0  0  0  0  0  0
  151.4836  136.0537  154.4274 H   0  0  0  0  0  0  0  0  0  0  0  0
  151.3037  138.0464  153.0236 H   0  0  0  0  0  0  0  0  0  0  0  0
  152.5994  138.2574  154.1695 H   0  0  0  0  0  0  0  0  0  0  0  0
  149.2839  136.7797  153.8055 H   0  0  0  0  0  0  0  0  0  0  0  0
  1  2  2  0  0  0  0
  2  3  1  0  0  0  0
  2 11  1  0  0  0  0
  3  4  1  0  0  0  0
  3 24  1  0  0  0  0
  4  9  1  0  0  0  0
  4  5  2  0  0  0  0
  5  6  1  0  0  0  0
  5 25  1  0  0  0  0
  6  7  2  0  0  0  0
  6 26  1  0  0  0  0
  7  8  1  0  0  0  0
  8  9  2  0  0  0  0
  8 27  1  0  0  0  0
  9 10  1  0  0  0  0
 11 12  1  0  0  0  0
 11 28  1  0  0  0  0
 12 23  1  0  0  0  0
 12 13  1  0  0  0  0
 12 29  1  0  0  0  0
 13 14  1  0  0  0  0
 13 30  1  0  0  0  0
 13 31  1  0  0  0  0
 14 15  1  0  0  0  0
 14 32  1  0  0  0  0
 14 33  1  0  0  0  0
 15 16  1  0  0  0  0
 15 22  1  0  0  0  0
 15 47  1  0  0  0  0
 16 17  1  0  0  0  0
 16 34  1  0  0  0  0
 16 35  1  0  0  0  0
 17 21  1  0  0  0  0
 17 18  1  0  0  0  0
 17 36  1  0  0  0  0
 18 19  1  0  0  0  0
 18 37  1  0  0  0  0
 18 38  1  0  0  0  0
 19 20  1  0  0  0  0
 19 39  1  0  0  0  0
 19 40  1  0  0  0  0
 20 21  1  0  0  0  0
 21 41  1  0  0  0  0
 21 42  1  0  0  0  0
 22 23  1  0  0  0  0
 22 43  1  0  0  0  0
 22 44  1  0  0  0  0
 23 45  1  0  0  0  0
 23 46  1  0  0  0  0
M  CHG  1  15   1
M  END
> <s_m_source_file>
AV-unprocessed.smi

> <i_m_source_file_index>
2351

> <i_lp_mmshare_version>
43012

> <i_f3d_flags>
0

> <s_epik_input>
RmMxW2NIXW5bY0hdW2NIXWMxW05IXUMoPU8pW05IXVtDSF0yW0NIMl1bQ0gyXU4oW0NIMl1bQ0gyXTIpW0NIMl1bQ0BASF0zW0NIMl1bQ0gyXU9bQ0gyXTM=

> <s_epik_cmdline>
J2VwaWtfcHl0aG9uJywgJy1waCcsICc3LjAnLCAnLXRuJywgJzgnLCAnLW1hJywgJzIwMCcsICctbWV0YWxfYmluZGluZycsICctaW1hZScsICc8aW5maWxlLm1hZT4nLCAnLW9tYWUnLCAnPG91dGZpbGUubWFlPic=

> <r_epik_Ionization_Penalty>
0.0102464

> <r_epik_Ionization_Penalty_Charging>
0.00747775

> <r_epik_Ionization_Penalty_Neutral>
0.00276864

> <r_epik_State_Penalty>
0.00558817

> <r_epik_Charging_Adjusted_Penalty>
0.0130659

> <i_epik_Tot_Q>
1

> <i_epik_Tot_abs_Q>
1

> <r_epik_Metal_State_Penalty>
-0

> <b_epik_Metal_Only>
0

> <s_lp_Force_Field>
OPLS_2005

> <r_lp_Energy>
39.2901

> <b_lp_Chiralities_Consistent>
1

> <s_lp_Variant>
AV-unprocessed.smi:2351-4

> <Gold.Version>
5.8.1

> <Gold.Id.Protein>
6NUR|6NUR_protein|mol2

> <Gold.PLP.Fitness>
46.2999

> <Gold.PLP.PLP>
-41.7165

> <Gold.PLP.part.hbond>
-1.0000

> <Gold.PLP.part.metal>
0.0000

> <Gold.PLP.part.buried>
-4.6662

> <Gold.PLP.part.nonpolar>
-36.1122

> <Gold.PLP.part.repulsive>
0.5179

> <Gold.PLP.ligand.clash>
0.0000

> <Gold.PLP.ligand.torsion>
0.7392

> <Gold.PLP.Chemscore.Hbond>
2.0000

> <Gold.PLP.Chemscore.CHOScore>
0.0000

> <Gold.PLP.Chemscore.Metal>
0.0000

> <Gold.Chemscore.Hbonds>
donor molecule, donor type, donor heavy atom, donor atom, acceptor molecule, acceptor atom, score
      L1  H    15    47       P1  7948  2.00

> <Gold.PLP.Chemscore.Internal.Correction>
0.0618

> <Gold.Rescore>
     Score         DG    S(hbond)    S(metal)    S(lipo)     H(rot)  DE(clash)    DE(int)     intcor
     14.87     -17.37       0.94        0.00     106.38       1.45       0.79       1.71       ----

> <Gold.Chemscore.Fitness>
14.8733

> <Gold.Chemscore.DG>
-17.3678

> <Gold.Chemscore.ZeroCoef>
-5.4800

> <Gold.Chemscore.Hbond>
0.9430

> <Gold.Chemscore.Metal>
0.0000

> <Gold.Chemscore.Lipo>
106.3760

> <Gold.Chemscore.Internal_Hbond>
0.0000

> <Gold.Chemscore.DEClash>
0.7884

> <Gold.Chemscore.DEInternal>
1.7061

> <Gold.Chemscore.Rot>
1.4483

> <Gold.Chemscore.Internal.Correction>
   9.000000E+99

> <Gold.Chemscore.Hbonds>
donor molecule, donor type, donor heavy atom, donor atom, acceptor molecule, acceptor atom, score
      L1  H    15    47       P1  7948  0.91

> <Gold.Chemscore.Hbond.Weighted>
-3.1496

> <Gold.Chemscore.Metal.Weighted>
-0.0000

> <Gold.Chemscore.Lipo.Weighted>
-12.4460

> <Gold.Chemscore.Internal_Hbond.Weighted>
0.0000

> <Gold.Chemscore.DEClash.Weighted>
0.7884

> <Gold.Chemscore.DEInternal.Weighted>
1.7061

> <Gold.Chemscore.Rot.Weighted>
3.7077

> <Gold.Chemscore.Internal.Correction.Weighted>
   9.000000E+99

> <Gold.Protein.RotatedTorsions>
[ 6907 6896 6895 6894 ] final -178.01 input  -60.11 | X-H torsion
[ 7974 7965 7964 7962 ] final   16.58 input  175.53 | X-H torsion
[ 8008 7997 7996 7995 ] final  144.17 input   59.86 | X-H torsion
[ 10167 10162 10161 10158 ] final  -92.20 input  -65.29 | X-H torsion
[ 10718 10713 10712 10709 ] final -108.11 input   66.30 | X-H torsion
[ 10763 10752 10751 10750 ] final  -86.89 input  -60.55 | X-H torsion
[ 11005 11000 10999 10996 ] final  -87.75 input  -57.11 | X-H torsion

> <Gold.Protein.ActiveResidues>
 VAL166  LYS551  ARG553  GLY616  TRP617  ASP618  TYR619  PRO620  LYS621  CYS622 
 ASP623  PHE694  ASN695  SER759  ASP760  ASP761  ALA762  ILE779  LEU786  VAL792 
 PHE793  MET794  SER795  GLU796  ALA797  LYS798  CYS799  TRP800  GLU811  SER814 

> <Gold.Protein.RotatedAtoms>
  151.6303  133.3332  159.3107 H   0  0  0  0  0  0  0  0  0  0  0  0  # atno 6907 bound_to 6896
  150.8060  134.7189  159.6656 H   0  0  0  0  0  0  0  0  0  0  0  0  # atno 6908 bound_to 6896
  152.4155  134.6053  160.0062 H   0  0  0  0  0  0  0  0  0  0  0  0  # atno 6909 bound_to 6896
  146.2245  139.8728  142.8584 H   0  0  0  0  0  0  0  0  0  0  0  0  # atno 7974 bound_to 7965
  156.2914  140.2243  156.5010 H   0  0  0  0  0  0  0  0  0  0  0  0  # atno 8008 bound_to 7997
  154.7690  140.0468  157.1057 H   0  0  0  0  0  0  0  0  0  0  0  0  # atno 8009 bound_to 7997
  154.9898  140.3088  155.4914 H   0  0  0  0  0  0  0  0  0  0  0  0  # atno 8010 bound_to 7997
  140.3372  143.2962  151.9876 H   0  0  0  0  0  0  0  0  0  0  0  0  # atno 10167 bound_to 10162
  156.0469  130.5696  150.7916 H   0  0  0  0  0  0  0  0  0  0  0  0  # atno 10718 bound_to 10713
  154.6275  135.5433  153.7643 H   0  0  0  0  0  0  0  0  0  0  0  0  # atno 10763 bound_to 10752
  153.0268  135.6428  154.1350 H   0  0  0  0  0  0  0  0  0  0  0  0  # atno 10764 bound_to 10752
  154.1282  135.2916  155.3172 H   0  0  0  0  0  0  0  0  0  0  0  0  # atno 10765 bound_to 10752
  141.1612  133.7530  156.9352 H   0  0  0  0  0  0  0  0  0  0  0  0  # atno 11005 bound_to 11000
  145.2591  141.0071  143.3837 LP  0  0  0  0  0  0  0  0  0  0  0  0  # atno 17320 bound_to 7965
  144.9313  139.4295  143.6494 LP  0  0  0  0  0  0  0  0  0  0  0  0  # atno 17321 bound_to 7965
  139.4846  144.6187  151.7297 LP  0  0  0  0  0  0  0  0  0  0  0  0  # atno 17342 bound_to 10162
  140.5343  144.0681  150.6064 LP  0  0  0  0  0  0  0  0  0  0  0  0  # atno 17343 bound_to 10162
  157.5355  131.0938  150.9898 LP  0  0  0  0  0  0  0  0  0  0  0  0  # atno 17370 bound_to 10713
  157.0194  130.5668  149.5329 LP  0  0  0  0  0  0  0  0  0  0  0  0  # atno 17371 bound_to 10713
  140.1359  134.9325  157.2401 LP  0  0  0  0  0  0  0  0  0  0  0  0  # atno 17394 bound_to 11000
  140.2896  134.3256  155.7319 LP  0  0  0  0  0  0  0  0  0  0  0  0  # atno 17395 bound_to 11000

$$$$
