AV-unprocessed.smi:1990|AV-procd|sdf|8062|dock7
  -GOLD-   2272010263D 1   1.00000     0.00000
 Structure written by MMmdl.
 46 47  0  0  0  0  0  0  0  0  1 V2000
  149.7897  143.3298  158.6328 C   0  0  0  0  0  0  0  0  0  0  0  0
  150.9568  142.4465  158.1810 C   0  0  2  0  0  0  0  0  0  0  0  0
  150.4746  141.1466  157.5085 C   0  0  0  0  0  0  0  0  0  0  0  0
  151.6145  140.2981  157.1864 N   0  0  0  0  0  0  0  0  0  0  0  0
  151.2704  139.1489  156.4607 C   0  0  0  0  0  0  0  0  0  0  0  0
  151.4438  139.1467  155.0616 C   0  0  0  0  0  0  0  0  0  0  0  0
  151.0996  137.9907  154.3351 C   0  0  0  0  0  0  0  0  0  0  0  0
  150.5988  136.8670  155.0349 C   0  0  0  0  0  0  0  0  0  0  0  0
  150.1974  135.6526  154.4166 N   0  0  0  0  0  0  0  0  0  0  0  0
  150.1995  134.4082  154.9303 C   0  0  0  0  0  0  0  0  0  0  0  0
  150.5152  134.1347  156.0881 O   0  0  0  0  0  0  0  0  0  0  0  0
  149.7388  133.2944  153.9796 C   0  0  2  0  0  0  0  0  0  0  0  0
  148.3238  133.5527  153.4361 C   0  0  0  0  0  0  0  0  0  0  0  0
  149.7937  131.6572  154.8483 S   0  0  0  0  0  0  0  0  0  0  0  0
  149.2509  130.4749  153.5436 C   0  0  0  0  0  0  0  0  0  0  0  0
  151.1890  131.3445  155.1939 O   0  0  0  0  0  0  0  0  0  0  0  0
  148.7746  131.6699  155.9088 O   0  0  0  0  0  0  0  0  0  0  0  0
  150.4483  136.9787  156.4327 C   0  0  0  0  0  0  0  0  0  0  0  0
  150.7771  138.0832  157.1352 N   0  0  0  0  0  0  0  0  0  0  0  0
  152.4487  140.0242  158.3496 C   0  0  0  0  0  0  0  0  0  0  0  0
  152.8925  141.3460  159.0052 C   0  0  2  0  0  0  0  0  0  0  0  0
  153.6886  141.1117  160.2932 C   0  0  0  0  0  0  0  0  0  0  0  0
  151.7367  142.1163  159.3284 O   0  0  0  0  0  0  0  0  0  0  0  0
  149.1637  143.6162  157.7875 H   0  0  0  0  0  0  0  0  0  0  0  0
  150.1534  144.2444  159.1020 H   0  0  0  0  0  0  0  0  0  0  0  0
  149.1598  142.8116  159.3566 H   0  0  0  0  0  0  0  0  0  0  0  0
  151.5732  143.0149  157.4821 H   0  0  0  0  0  0  0  0  0  0  0  0
  149.7942  140.6120  158.1732 H   0  0  0  0  0  0  0  0  0  0  0  0
  149.9206  141.3779  156.5976 H   0  0  0  0  0  0  0  0  0  0  0  0
  151.8297  140.0167  154.5504 H   0  0  0  0  0  0  0  0  0  0  0  0
  151.2122  137.9961  153.2623 H   0  0  0  0  0  0  0  0  0  0  0  0
  149.8187  135.7475  153.4854 H   0  0  0  0  0  0  0  0  0  0  0  0
  150.4267  133.2324  153.1355 H   0  0  0  0  0  0  0  0  0  0  0  0
  148.2524  134.5326  152.9627 H   0  0  0  0  0  0  0  0  0  0  0  0
  147.5750  133.5062  154.2277 H   0  0  0  0  0  0  0  0  0  0  0  0
  148.0554  132.8076  152.6871 H   0  0  0  0  0  0  0  0  0  0  0  0
  149.1636  129.4785  153.9764 H   0  0  0  0  0  0  0  0  0  0  0  0
  149.9831  130.4478  152.7370 H   0  0  0  0  0  0  0  0  0  0  0  0
  148.2825  130.7824  153.1502 H   0  0  0  0  0  0  0  0  0  0  0  0
  150.0553  136.1534  157.0086 H   0  0  0  0  0  0  0  0  0  0  0  0
  151.8916  139.4206  159.0678 H   0  0  0  0  0  0  0  0  0  0  0  0
  153.3209  139.4433  158.0467 H   0  0  0  0  0  0  0  0  0  0  0  0
  153.5150  141.9115  158.3094 H   0  0  0  0  0  0  0  0  0  0  0  0
  154.5895  140.5296  160.0974 H   0  0  0  0  0  0  0  0  0  0  0  0
  153.0943  140.5721  161.0312 H   0  0  0  0  0  0  0  0  0  0  0  0
  153.9947  142.0582  160.7392 H   0  0  0  0  0  0  0  0  0  0  0  0
  1  2  1  0  0  0  0
  1 24  1  0  0  0  0
  1 25  1  0  0  0  0
  1 26  1  0  0  0  0
  2 23  1  0  0  0  0
  2  3  1  0  0  0  0
  2 27  1  0  0  0  0
  3  4  1  0  0  0  0
  3 28  1  0  0  0  0
  3 29  1  0  0  0  0
  4  5  1  0  0  0  0
  4 20  1  0  0  0  0
  5 19  1  0  0  0  0
  5  6  2  0  0  0  0
  6  7  1  0  0  0  0
  6 30  1  0  0  0  0
  7  8  2  0  0  0  0
  7 31  1  0  0  0  0
  8  9  1  0  0  0  0
  8 18  1  0  0  0  0
  9 10  1  0  0  0  0
  9 32  1  0  0  0  0
 10 11  2  0  0  0  0
 10 12  1  0  0  0  0
 12 13  1  0  0  0  0
 12 14  1  0  0  0  0
 12 33  1  0  0  0  0
 13 34  1  0  0  0  0
 13 35  1  0  0  0  0
 13 36  1  0  0  0  0
 14 15  1  0  0  0  0
 14 16  2  0  0  0  0
 14 17  2  0  0  0  0
 15 37  1  0  0  0  0
 15 38  1  0  0  0  0
 15 39  1  0  0  0  0
 18 19  2  0  0  0  0
 18 40  1  0  0  0  0
 20 21  1  0  0  0  0
 20 41  1  0  0  0  0
 20 42  1  0  0  0  0
 21 22  1  0  0  0  0
 21 23  1  0  0  0  0
 21 43  1  0  0  0  0
 22 44  1  0  0  0  0
 22 45  1  0  0  0  0
 22 46  1  0  0  0  0
M  END
> <s_m_source_file>
AV-unprocessed.smi

> <i_m_source_file_index>
1990

> <i_lp_mmshare_version>
43012

> <i_f3d_flags>
0

> <s_epik_input>
W0NIM11bQ0BASF0xW0NIMl1OKFtDSDJdW0NASF0oTzEpW0NIM10pYzJbY0hdW2NIXWMoW2NIXW4yKVtOSF1DKD1PKVtDQEhdKFtDSDNdKVMoPU8pKD1PKVtDSDNd

> <s_epik_cmdline>
J2VwaWtfcHl0aG9uJywgJy1waCcsICc3LjAnLCAnLXRuJywgJzgnLCAnLW1hJywgJzIwMCcsICctbWV0YWxfYmluZGluZycsICctaW1hZScsICc8aW5maWxlLm1hZT4nLCAnLW9tYWUnLCAnPG91dGZpbGUubWFlPic=

> <r_lp_tautomer_probability>
1

> <r_epik_Ionization_Penalty>
0.000334888

> <r_epik_Ionization_Penalty_Charging>
0

> <r_epik_Ionization_Penalty_Neutral>
0.000334888

> <r_epik_State_Penalty>
0.000200905

> <r_epik_Charging_Adjusted_Penalty>
0.000200905

> <i_epik_Tot_Q>
0

> <i_epik_Tot_abs_Q>
0

> <r_epik_Metal_State_Penalty>
-0

> <b_epik_Metal_Only>
0

> <s_lp_Force_Field>
OPLS_2005

> <r_lp_Energy>
20.1561

> <b_lp_Chiralities_Consistent>
1

> <s_lp_Variant>
AV-unprocessed.smi:1990-2

> <Gold.Version>
5.8.1

> <Gold.Id.Protein>
6NUR|6NUR_protein|mol2

> <Gold.PLP.Fitness>
36.9274

> <Gold.PLP.PLP>
-35.4395

> <Gold.PLP.part.hbond>
-1.4677

> <Gold.PLP.part.metal>
0.0000

> <Gold.PLP.part.buried>
-4.6953

> <Gold.PLP.part.nonpolar>
-29.5976

> <Gold.PLP.part.repulsive>
0.0619

> <Gold.PLP.ligand.clash>
0.0000

> <Gold.PLP.ligand.torsion>
0.6613

> <Gold.PLP.Chemscore.Hbond>
0.8500

> <Gold.PLP.Chemscore.CHOScore>
0.0000

> <Gold.PLP.Chemscore.Metal>
0.0000

> <Gold.Chemscore.Hbonds>
donor molecule, donor type, donor heavy atom, donor atom, acceptor molecule, acceptor atom, score
      L1  H     9    32       P1  7948  0.60

> <Gold.PLP.Chemscore.Internal.Correction>
0.2604

> <Gold.Rescore>
     Score         DG    S(hbond)    S(metal)    S(lipo)     H(rot)  DE(clash)    DE(int)     intcor
     11.37     -14.67       0.95        0.00      84.63       1.52       0.04       3.26       ----

> <Gold.Chemscore.Fitness>
11.3695

> <Gold.Chemscore.DG>
-14.6677

> <Gold.Chemscore.ZeroCoef>
-5.4800

> <Gold.Chemscore.Hbond>
0.9494

> <Gold.Chemscore.Metal>
0.0000

> <Gold.Chemscore.Lipo>
84.6322

> <Gold.Chemscore.Internal_Hbond>
0.0000

> <Gold.Chemscore.DEClash>
0.0423

> <Gold.Chemscore.DEInternal>
3.2559

> <Gold.Chemscore.Rot>
1.5177

> <Gold.Chemscore.Internal.Correction>
   9.000000E+99

> <Gold.Chemscore.Hbonds>
donor molecule, donor type, donor heavy atom, donor atom, acceptor molecule, acceptor atom, score
      L1  H     9    32       P1  7948  0.04

> <Gold.Chemscore.Hbond.Weighted>
-3.1710

> <Gold.Chemscore.Metal.Weighted>
-0.0000

> <Gold.Chemscore.Lipo.Weighted>
-9.9020

> <Gold.Chemscore.Internal_Hbond.Weighted>
0.0000

> <Gold.Chemscore.DEClash.Weighted>
0.0423

> <Gold.Chemscore.DEInternal.Weighted>
3.2559

> <Gold.Chemscore.Rot.Weighted>
3.8853

> <Gold.Chemscore.Internal.Correction.Weighted>
   9.000000E+99

> <Gold.Protein.RotatedTorsions>
[ 6907 6896 6895 6894 ] final   75.86 input  -60.11 | X-H torsion
[ 7974 7965 7964 7962 ] final  116.85 input  175.53 | X-H torsion
[ 8008 7997 7996 7995 ] final -137.76 input   59.86 | X-H torsion
[ 10167 10162 10161 10158 ] final  -95.67 input  -65.29 | X-H torsion
[ 10718 10713 10712 10709 ] final  151.85 input   66.30 | X-H torsion
[ 10763 10752 10751 10750 ] final -121.98 input  -60.55 | X-H torsion
[ 11005 11000 10999 10996 ] final -104.21 input  -57.11 | X-H torsion

> <Gold.Protein.ActiveResidues>
 VAL166  LYS551  ARG553  GLY616  TRP617  ASP618  TYR619  PRO620  LYS621  CYS622 
 ASP623  PHE694  ASN695  SER759  ASP760  ASP761  ALA762  ILE779  LEU786  VAL792 
 PHE793  MET794  SER795  GLU796  ALA797  LYS798  CYS799  TRP800  GLU811  SER814 

> <Gold.Protein.RotatedAtoms>
  152.5046  134.4057  159.9431 H   0  0  0  0  0  0  0  0  0  0  0  0  # atno 6907 bound_to 6896
  151.4023  133.3747  159.2741 H   0  0  0  0  0  0  0  0  0  0  0  0  # atno 6908 bound_to 6896
  150.9353  134.8787  159.7636 H   0  0  0  0  0  0  0  0  0  0  0  0  # atno 6909 bound_to 6896
  145.1745  139.3083  143.4450 H   0  0  0  0  0  0  0  0  0  0  0  0  # atno 7974 bound_to 7965
  155.4172  140.0516  157.3028 H   0  0  0  0  0  0  0  0  0  0  0  0  # atno 8008 bound_to 7997
  154.4919  140.2123  155.9489 H   0  0  0  0  0  0  0  0  0  0  0  0  # atno 8009 bound_to 7997
  156.1354  140.3164  155.8417 H   0  0  0  0  0  0  0  0  0  0  0  0  # atno 8010 bound_to 7997
  140.3018  143.3158  152.0240 H   0  0  0  0  0  0  0  0  0  0  0  0  # atno 10167 bound_to 10162
  157.2654  131.0806  151.1637 H   0  0  0  0  0  0  0  0  0  0  0  0  # atno 10718 bound_to 10713
  154.8680  135.4149  154.2708 H   0  0  0  0  0  0  0  0  0  0  0  0  # atno 10763 bound_to 10752
  153.3619  135.7003  153.6711 H   0  0  0  0  0  0  0  0  0  0  0  0  # atno 10764 bound_to 10752
  153.5608  135.3610  155.2771 H   0  0  0  0  0  0  0  0  0  0  0  0  # atno 10765 bound_to 10752
  141.1111  133.8704  157.1582 H   0  0  0  0  0  0  0  0  0  0  0  0  # atno 11005 bound_to 11000
  146.3463  140.1903  142.8589 LP  0  0  0  0  0  0  0  0  0  0  0  0  # atno 17320 bound_to 7965
  145.0199  140.8785  143.5173 LP  0  0  0  0  0  0  0  0  0  0  0  0  # atno 17321 bound_to 7965
  139.4913  144.6450  151.6797 LP  0  0  0  0  0  0  0  0  0  0  0  0  # atno 17342 bound_to 10162
  140.5644  144.0214  150.6185 LP  0  0  0  0  0  0  0  0  0  0  0  0  # atno 17343 bound_to 10162
  157.3130  130.6899  149.6226 LP  0  0  0  0  0  0  0  0  0  0  0  0  # atno 17370 bound_to 10713
  155.9663  130.4358  150.5106 LP  0  0  0  0  0  0  0  0  0  0  0  0  # atno 17371 bound_to 10713
  140.0005  135.0029  157.0179 LP  0  0  0  0  0  0  0  0  0  0  0  0  # atno 17394 bound_to 11000
  140.4773  134.1325  155.7211 LP  0  0  0  0  0  0  0  0  0  0  0  0  # atno 17395 bound_to 11000

$$$$
