AV-unprocessed.smi:1352|AV-procd|sdf|5530|dock9
  -GOLD-   22720 5123D 1   1.00000     0.00000
 Structure written by MMmdl.
 47 48  0  0  0  0  0  0  0  0  2 V2000
  142.2321  136.7184  153.8630 C   0  0  0  0  0  0  0  0  0  0  0  0
  143.1524  136.7049  152.6343 C   0  0  2  0  0  0  0  0  0  0  0  0
  143.3282  135.2814  152.0799 C   0  0  0  0  0  0  0  0  0  0  0  0
  144.2682  135.2861  150.8631 C   0  0  2  0  0  0  0  0  0  0  0  0
  144.4735  133.8696  150.3075 C   0  0  0  0  0  0  0  0  0  0  0  0
  145.6105  135.9485  151.2292 C   0  0  0  0  0  0  0  0  0  0  0  0
  145.4120  137.3232  151.7572 N   0  3  2  0  0  0  0  0  0  0  0  0
  146.6994  138.0284  151.9813 C   0  0  0  0  0  0  0  0  0  0  0  0
  146.4989  139.4841  152.4459 C   0  0  0  0  0  0  0  0  0  0  0  0
  147.7628  140.1061  152.8222 N   0  0  0  0  0  0  0  0  0  0  0  0
  147.9517  140.8651  153.9123 C   0  0  0  0  0  0  0  0  0  0  0  0
  147.0496  141.1354  154.7064 O   0  0  0  0  0  0  0  0  0  0  0  0
  149.3719  141.4131  154.1135 C   0  0  0  0  0  0  0  0  0  0  0  0
  149.9084  141.1652  155.4623 N   0  0  0  0  0  0  0  0  0  0  0  0
  149.2672  141.8124  156.5373 C   0  0  0  0  0  0  0  0  0  0  0  0
  149.6753  141.6546  157.8065 C   0  0  0  0  0  0  0  0  0  0  0  0
  150.8066  140.7937  158.0577 C   0  0  0  0  0  0  0  0  0  0  0  0
  151.4253  140.1672  157.0370 C   0  0  0  0  0  0  0  0  0  0  0  0
  150.9803  140.3339  155.6484 C   0  0  0  0  0  0  0  0  0  0  0  0
  151.5355  139.7617  154.7100 O   0  0  0  0  0  0  0  0  0  0  0  0
  144.5264  137.3259  152.9519 C   0  0  0  0  0  0  0  0  0  0  0  0
  142.6506  136.1280  154.6788 H   0  0  0  0  0  0  0  0  0  0  0  0
  141.2510  136.3067  153.6233 H   0  0  0  0  0  0  0  0  0  0  0  0
  142.0811  137.7339  154.2302 H   0  0  0  0  0  0  0  0  0  0  0  0
  142.6770  137.3124  151.8624 H   0  0  0  0  0  0  0  0  0  0  0  0
  143.7304  134.6287  152.8564 H   0  0  0  0  0  0  0  0  0  0  0  0
  142.3583  134.8691  151.7988 H   0  0  0  0  0  0  0  0  0  0  0  0
  143.8012  135.8819  150.0771 H   0  0  0  0  0  0  0  0  0  0  0  0
  144.9429  133.2179  151.0451 H   0  0  0  0  0  0  0  0  0  0  0  0
  145.1097  133.8826  149.4219 H   0  0  0  0  0  0  0  0  0  0  0  0
  143.5227  133.4182  150.0219 H   0  0  0  0  0  0  0  0  0  0  0  0
  146.1425  135.3485  151.9694 H   0  0  0  0  0  0  0  0  0  0  0  0
  146.2420  135.9879  150.3405 H   0  0  0  0  0  0  0  0  0  0  0  0
  147.3085  137.4722  152.6955 H   0  0  0  0  0  0  0  0  0  0  0  0
  147.2618  138.0430  151.0466 H   0  0  0  0  0  0  0  0  0  0  0  0
  146.0139  140.0712  151.6639 H   0  0  0  0  0  0  0  0  0  0  0  0
  145.8462  139.5297  153.3168 H   0  0  0  0  0  0  0  0  0  0  0  0
  148.5557  139.9355  152.2200 H   0  0  0  0  0  0  0  0  0  0  0  0
  150.0368  140.9811  153.3627 H   0  0  0  0  0  0  0  0  0  0  0  0
  149.3569  142.4826  153.8983 H   0  0  0  0  0  0  0  0  0  0  0  0
  148.4258  142.4335  156.2661 H   0  0  0  0  0  0  0  0  0  0  0  0
  149.1689  142.1560  158.6184 H   0  0  0  0  0  0  0  0  0  0  0  0
  151.1578  140.6507  159.0691 H   0  0  0  0  0  0  0  0  0  0  0  0
  152.2696  139.5261  157.2440 H   0  0  0  0  0  0  0  0  0  0  0  0
  144.3784  138.3456  153.3058 H   0  0  0  0  0  0  0  0  0  0  0  0
  145.0099  136.7790  153.7633 H   0  0  0  0  0  0  0  0  0  0  0  0
  144.9308  137.8339  151.0305 H   0  0  0  0  0  0  0  0  0  0  0  0
  1  2  1  0  0  0  0
  1 22  1  0  0  0  0
  1 23  1  0  0  0  0
  1 24  1  0  0  0  0
  2 21  1  0  0  0  0
  2  3  1  0  0  0  0
  2 25  1  0  0  0  0
  3  4  1  0  0  0  0
  3 26  1  0  0  0  0
  3 27  1  0  0  0  0
  4  5  1  0  0  0  0
  4  6  1  0  0  0  0
  4 28  1  0  0  0  0
  5 29  1  0  0  0  0
  5 30  1  0  0  0  0
  5 31  1  0  0  0  0
  6  7  1  0  0  0  0
  6 32  1  0  0  0  0
  6 33  1  0  0  0  0
  7  8  1  0  0  0  0
  7 21  1  0  0  0  0
  7 47  1  0  0  0  0
  8  9  1  0  0  0  0
  8 34  1  0  0  0  0
  8 35  1  0  0  0  0
  9 10  1  0  0  0  0
  9 36  1  0  0  0  0
  9 37  1  0  0  0  0
 10 11  1  0  0  0  0
 10 38  1  0  0  0  0
 11 12  2  0  0  0  0
 11 13  1  0  0  0  0
 13 14  1  0  0  0  0
 13 39  1  0  0  0  0
 13 40  1  0  0  0  0
 14 19  1  0  0  0  0
 14 15  1  0  0  0  0
 15 16  2  0  0  0  0
 15 41  1  0  0  0  0
 16 17  1  0  0  0  0
 16 42  1  0  0  0  0
 17 18  2  0  0  0  0
 17 43  1  0  0  0  0
 18 19  1  0  0  0  0
 18 44  1  0  0  0  0
 19 20  2  0  0  0  0
 21 45  1  0  0  0  0
 21 46  1  0  0  0  0
M  CHG  1   7   1
M  END
> <s_m_source_file>
AV-unprocessed.smi

> <i_m_source_file_index>
1352

> <i_lp_mmshare_version>
43012

> <i_f3d_flags>
0

> <s_epik_input>
W0NIM11bQ0BASF0xW0NIMl1bQ0BASF0oW0NIM10pW0NIMl1OKFtDSDJdMSlbQ0gyXVtDSDJdW05IXUMoPU8pW0NIMl1uMltjSF1bY0hdW2NIXVtjSF1jMj1P

> <s_epik_cmdline>
J2VwaWtfcHl0aG9uJywgJy1waCcsICc3LjAnLCAnLXRuJywgJzgnLCAnLW1hJywgJzIwMCcsICctbWV0YWxfYmluZGluZycsICctaW1hZScsICc8aW5maWxlLm1hZT4nLCAnLW9tYWUnLCAnPG91dGZpbGUubWFlPic=

> <r_lp_tautomer_probability>
1

> <r_epik_Ionization_Penalty>
0.00156146

> <r_epik_Ionization_Penalty_Charging>
0.00156138

> <r_epik_Ionization_Penalty_Neutral>
8.12891e-08

> <r_epik_State_Penalty>
0.00104868

> <r_epik_Charging_Adjusted_Penalty>
0.00261006

> <i_epik_Tot_Q>
1

> <i_epik_Tot_abs_Q>
1

> <r_epik_Metal_State_Penalty>
-0

> <b_epik_Metal_Only>
0

> <s_lp_Force_Field>
OPLS_2005

> <r_lp_Energy>
25.1883

> <b_lp_Chiralities_Consistent>
1

> <s_lp_Variant>
AV-unprocessed.smi:1352-3

> <Gold.Version>
5.8.1

> <Gold.Id.Protein>
6NUR|6NUR_protein|mol2

> <Gold.PLP.Fitness>
47.6056

> <Gold.PLP.PLP>
-36.8012

> <Gold.PLP.part.hbond>
-3.0000

> <Gold.PLP.part.metal>
0.0000

> <Gold.PLP.part.buried>
1.9044

> <Gold.PLP.part.nonpolar>
-35.6246

> <Gold.PLP.part.repulsive>
0.3151

> <Gold.PLP.ligand.clash>
0.0000

> <Gold.PLP.ligand.torsion>
0.2391

> <Gold.PLP.Chemscore.Hbond>
3.0000

> <Gold.PLP.Chemscore.CHOScore>
0.7517

> <Gold.PLP.Chemscore.Metal>
0.0000

> <Gold.Chemscore.Hbonds>
donor molecule, donor type, donor heavy atom, donor atom, acceptor molecule, acceptor atom, score
      L1  H     7    47       P1 10171  1.00
      L1  H    10    38       P1  7957  0.89
      P1  H  7989  7998       L1    20  1.00
      L1  C    15    41       P1  8028  0.76

> <Gold.PLP.Chemscore.Internal.Correction>
0.0276

> <Gold.Rescore>
     Score         DG    S(hbond)    S(metal)    S(lipo)     H(rot)  DE(clash)    DE(int)     intcor
     16.87     -19.69       2.98        0.00      76.48       1.83       1.49       1.33       ----

> <Gold.Chemscore.Fitness>
16.8720

> <Gold.Chemscore.DG>
-19.6884

> <Gold.Chemscore.ZeroCoef>
-5.4800

> <Gold.Chemscore.Hbond>
2.9799

> <Gold.Chemscore.Metal>
0.0000

> <Gold.Chemscore.Lipo>
76.4766

> <Gold.Chemscore.Internal_Hbond>
0.0000

> <Gold.Chemscore.DEClash>
1.4909

> <Gold.Chemscore.DEInternal>
1.3254

> <Gold.Chemscore.Rot>
1.8329

> <Gold.Chemscore.Internal.Correction>
   9.000000E+99

> <Gold.Chemscore.Hbonds>
donor molecule, donor type, donor heavy atom, donor atom, acceptor molecule, acceptor atom, score
      L1  H     7    47       P1 10171  1.00
      L1  H    10    38       P1  7957  0.85
      P1  H  7989  7998       L1    20  0.60

> <Gold.Chemscore.Hbond.Weighted>
-9.9528

> <Gold.Chemscore.Metal.Weighted>
-0.0000

> <Gold.Chemscore.Lipo.Weighted>
-8.9478

> <Gold.Chemscore.Internal_Hbond.Weighted>
0.0000

> <Gold.Chemscore.DEClash.Weighted>
1.4909

> <Gold.Chemscore.DEInternal.Weighted>
1.3254

> <Gold.Chemscore.Rot.Weighted>
4.6922

> <Gold.Chemscore.Internal.Correction.Weighted>
   9.000000E+99

> <Gold.Protein.RotatedTorsions>
[ 6907 6896 6895 6894 ] final -103.28 input  -60.11 | X-H torsion
[ 7974 7965 7964 7962 ] final  122.61 input  175.53 | X-H torsion
[ 8008 7997 7996 7995 ] final  168.14 input   59.86 | X-H torsion
[ 10167 10162 10161 10158 ] final   93.05 input  -65.29 | X-H torsion
[ 10718 10713 10712 10709 ] final  120.40 input   66.30 | X-H torsion
[ 10763 10752 10751 10750 ] final  112.05 input  -60.55 | X-H torsion
[ 11005 11000 10999 10996 ] final -157.07 input  -57.11 | X-H torsion

> <Gold.Protein.ActiveResidues>
 VAL166  LYS551  ARG553  GLY616  TRP617  ASP618  TYR619  PRO620  LYS621  CYS622 
 ASP623  PHE694  ASN695  SER759  ASP760  ASP761  ALA762  ILE779  LEU786  VAL792 
 PHE793  MET794  SER795  GLU796  ALA797  LYS798  CYS799  TRP800  GLU811  SER814 

> <Gold.Protein.RotatedAtoms>
  150.7233  134.0453  159.3779 H   0  0  0  0  0  0  0  0  0  0  0  0  # atno 6907 bound_to 6896
  151.8427  135.0582  160.0459 H   0  0  0  0  0  0  0  0  0  0  0  0  # atno 6908 bound_to 6896
  152.2850  133.5470  159.5558 H   0  0  0  0  0  0  0  0  0  0  0  0  # atno 6909 bound_to 6896
  145.1055  139.3489  143.4790 H   0  0  0  0  0  0  0  0  0  0  0  0  # atno 7974 bound_to 7965
  156.1573  140.1598  156.8671 H   0  0  0  0  0  0  0  0  0  0  0  0  # atno 8008 bound_to 7997
  154.5127  140.0797  156.8057 H   0  0  0  0  0  0  0  0  0  0  0  0  # atno 8009 bound_to 7997
  155.3777  140.3403  155.4248 H   0  0  0  0  0  0  0  0  0  0  0  0  # atno 8010 bound_to 7997
  139.8217  144.6728  150.9510 H   0  0  0  0  0  0  0  0  0  0  0  0  # atno 10167 bound_to 10162
  157.5893  131.1066  150.8030 H   0  0  0  0  0  0  0  0  0  0  0  0  # atno 10718 bound_to 10713
  153.4723  135.3698  155.2397 H   0  0  0  0  0  0  0  0  0  0  0  0  # atno 10763 bound_to 10752
  154.8757  135.3934  154.3798 H   0  0  0  0  0  0  0  0  0  0  0  0  # atno 10764 bound_to 10752
  153.4388  135.7084  153.6247 H   0  0  0  0  0  0  0  0  0  0  0  0  # atno 10765 bound_to 10752
  140.6687  134.4271  157.5232 H   0  0  0  0  0  0  0  0  0  0  0  0  # atno 11005 bound_to 11000
  146.3528  140.0951  142.8610 LP  0  0  0  0  0  0  0  0  0  0  0  0  # atno 17320 bound_to 7965
  145.0906  140.9282  143.4771 LP  0  0  0  0  0  0  0  0  0  0  0  0  # atno 17321 bound_to 7965
  140.7813  143.4085  151.1032 LP  0  0  0  0  0  0  0  0  0  0  0  0  # atno 17342 bound_to 10162
  139.7745  143.8446  152.3127 LP  0  0  0  0  0  0  0  0  0  0  0  0  # atno 17343 bound_to 10162
  156.8456  130.5063  149.5317 LP  0  0  0  0  0  0  0  0  0  0  0  0  # atno 17370 bound_to 10713
  156.0946  130.5922  150.9791 LP  0  0  0  0  0  0  0  0  0  0  0  0  # atno 17371 bound_to 10713
  139.8989  134.8604  156.1984 LP  0  0  0  0  0  0  0  0  0  0  0  0  # atno 17394 bound_to 11000
  141.0409  133.6938  156.1596 LP  0  0  0  0  0  0  0  0  0  0  0  0  # atno 17395 bound_to 11000

$$$$
