AV-unprocessed.smi:1506|AV-procd|sdf|6079|dock10
  -GOLD-   22720 6203D 1   1.00000     0.00000
 Structure written by MMmdl.
 40 42  0  0  0  0  0  0  0  0  2 V2000
  154.4382  137.0108  164.8252 C   0  0  0  0  0  0  0  0  0  0  0  0
  154.7685  136.5670  163.4150 C   0  0  0  0  0  0  0  0  0  0  0  0
  155.6393  135.4815  163.1951 C   0  0  0  0  0  0  0  0  0  0  0  0
  155.9385  135.0767  161.8812 C   0  0  0  0  0  0  0  0  0  0  0  0
  155.3699  135.7525  160.7843 C   0  0  0  0  0  0  0  0  0  0  0  0
  154.4905  136.8452  160.9926 C   0  0  0  0  0  0  0  0  0  0  0  0
  153.8894  137.5610  159.9792 O   0  0  0  0  0  0  0  0  0  0  0  0
  153.5048  138.9042  160.2412 C   0  0  0  0  0  0  0  0  0  0  0  0
  154.7170  139.8243  160.0338 C   0  0  1  0  0  0  0  0  0  0  0  0
  155.6098  139.1905  159.1391 O   0  0  0  0  0  0  0  0  0  0  0  0
  154.3184  141.2124  159.4934 C   0  0  0  0  0  0  0  0  0  0  0  0
  153.5698  142.0105  160.4752 N   0  0  0  0  0  0  0  0  0  0  0  0
  153.4412  141.8318  161.8179 C   0  0  0  0  0  0  0  0  0  0  0  0
  152.6503  142.8333  162.2932 N   0  3  0  0  0  0  0  0  0  0  0  0
  152.2673  143.6652  161.2391 C   0  0  0  0  0  0  0  0  0  0  0  0
  151.4721  144.8070  161.2236 C   0  0  0  0  0  0  0  0  0  0  0  0
  151.2787  145.4269  159.9717 C   0  0  0  0  0  0  0  0  0  0  0  0
  151.8652  144.9103  158.7982 C   0  0  0  0  0  0  0  0  0  0  0  0
  152.6690  143.7516  158.8255 C   0  0  0  0  0  0  0  0  0  0  0  0
  152.8547  143.1431  160.0668 C   0  0  0  0  0  0  0  0  0  0  0  0
  154.1995  137.2404  162.3149 C   0  0  0  0  0  0  0  0  0  0  0  0
  155.1282  136.5762  165.5493 H   0  0  0  0  0  0  0  0  0  0  0  0
  153.4262  136.7029  165.0886 H   0  0  0  0  0  0  0  0  0  0  0  0
  154.5006  138.0961  164.9080 H   0  0  0  0  0  0  0  0  0  0  0  0
  156.0798  134.9566  164.0302 H   0  0  0  0  0  0  0  0  0  0  0  0
  156.6067  134.2449  161.7132 H   0  0  0  0  0  0  0  0  0  0  0  0
  155.6255  135.4125  159.7925 H   0  0  0  0  0  0  0  0  0  0  0  0
  152.7062  139.1903  159.5540 H   0  0  0  0  0  0  0  0  0  0  0  0
  153.1285  139.0072  161.2605 H   0  0  0  0  0  0  0  0  0  0  0  0
  155.2396  139.9426  160.9840 H   0  0  0  0  0  0  0  0  0  0  0  0
  156.1151  138.5531  159.6198 H   0  0  0  0  0  0  0  0  0  0  0  0
  155.1900  141.7738  159.1570 H   0  0  0  0  0  0  0  0  0  0  0  0
  153.6750  141.0995  158.6200 H   0  0  0  0  0  0  0  0  0  0  0  0
  153.8879  141.0395  162.4014 H   0  0  0  0  0  0  0  0  0  0  0  0
  151.0228  145.2055  162.1215 H   0  0  0  0  0  0  0  0  0  0  0  0
  150.6693  146.3170  159.9105 H   0  0  0  0  0  0  0  0  0  0  0  0
  151.6956  145.4137  157.8575 H   0  0  0  0  0  0  0  0  0  0  0  0
  153.1154  143.3687  157.9200 H   0  0  0  0  0  0  0  0  0  0  0  0
  153.5305  138.0713  162.4855 H   0  0  0  0  0  0  0  0  0  0  0  0
  152.3944  142.9400  163.2664 H   0  0  0  0  0  0  0  0  0  0  0  0
  1  2  1  0  0  0  0
  1 22  1  0  0  0  0
  1 23  1  0  0  0  0
  1 24  1  0  0  0  0
  2 21  1  0  0  0  0
  2  3  2  0  0  0  0
  3  4  1  0  0  0  0
  3 25  1  0  0  0  0
  4  5  2  0  0  0  0
  4 26  1  0  0  0  0
  5  6  1  0  0  0  0
  5 27  1  0  0  0  0
  6  7  1  0  0  0  0
  6 21  2  0  0  0  0
  7  8  1  0  0  0  0
  8  9  1  0  0  0  0
  8 28  1  0  0  0  0
  8 29  1  0  0  0  0
  9 10  1  0  0  0  0
  9 11  1  0  0  0  0
  9 30  1  0  0  0  0
 10 31  1  0  0  0  0
 11 12  1  0  0  0  0
 11 32  1  0  0  0  0
 11 33  1  0  0  0  0
 12 20  1  0  0  0  0
 12 13  1  0  0  0  0
 13 14  2  0  0  0  0
 13 34  1  0  0  0  0
 14 15  1  0  0  0  0
 14 40  1  0  0  0  0
 15 20  2  0  0  0  0
 15 16  1  0  0  0  0
 16 17  2  0  0  0  0
 16 35  1  0  0  0  0
 17 18  1  0  0  0  0
 17 36  1  0  0  0  0
 18 19  2  0  0  0  0
 18 37  1  0  0  0  0
 19 20  1  0  0  0  0
 19 38  1  0  0  0  0
 21 39  1  0  0  0  0
M  CHG  1  14   1
M  END
> <s_m_source_file>
AV-unprocessed.smi

> <i_m_source_file_index>
1506

> <i_lp_mmshare_version>
43012

> <i_f3d_flags>
0

> <s_epik_input>
W0NIM11jMVtjSF1bY0hdW2NIXWMoW2NIXTEpT1tDSDJdW0NASF0oW09IXSlbQ0gyXW4oW2NIXW4yKWMoYzIzKVtjSF1bY0hdW2NIXVtjSF0z

> <s_epik_cmdline>
J2VwaWtfcHl0aG9uJywgJy1waCcsICc3LjAnLCAnLXRuJywgJzgnLCAnLW1hJywgJzIwMCcsICctbWV0YWxfYmluZGluZycsICctaW1hZScsICc8aW5maWxlLm1hZT4nLCAnLW9tYWUnLCAnPG91dGZpbGUubWFlPic=

> <r_lp_tautomer_probability>
1

> <r_epik_Ionization_Penalty>
1.37864

> <r_epik_Ionization_Penalty_Charging>
1.37864

> <r_epik_Ionization_Penalty_Neutral>
2.3993e-06

> <r_epik_State_Penalty>
1.45896

> <r_epik_Charging_Adjusted_Penalty>
2.8376

> <i_epik_Tot_Q>
1

> <i_epik_Tot_abs_Q>
1

> <r_epik_Metal_State_Penalty>
5.49899

> <b_epik_Metal_Only>
0

> <s_lp_Force_Field>
OPLS_2005

> <r_lp_Energy>
20.0977

> <b_lp_Chiralities_Consistent>
1

> <s_lp_Variant>
AV-unprocessed.smi:1506-4

> <Gold.Version>
5.8.1

> <Gold.Id.Protein>
6NUR|6NUR_protein|mol2

> <Gold.PLP.Fitness>
53.2947

> <Gold.PLP.PLP>
-52.6872

> <Gold.PLP.part.hbond>
-1.0000

> <Gold.PLP.part.metal>
0.0000

> <Gold.PLP.part.buried>
-2.4621

> <Gold.PLP.part.nonpolar>
-49.2785

> <Gold.PLP.part.repulsive>
0.1125

> <Gold.PLP.ligand.clash>
0.0735

> <Gold.PLP.ligand.torsion>
1.1787

> <Gold.PLP.Chemscore.Hbond>
1.0000

> <Gold.PLP.Chemscore.CHOScore>
0.0000

> <Gold.PLP.Chemscore.Metal>
0.0000

> <Gold.Chemscore.Hbonds>
donor molecule, donor type, donor heavy atom, donor atom, acceptor molecule, acceptor atom, score
      P1  H  7997  8009       L1    10  1.00

> <Gold.PLP.Chemscore.Internal.Correction>
0.0385

> <Gold.Rescore>
     Score         DG    S(hbond)    S(metal)    S(lipo)     H(rot)  DE(clash)    DE(int)     intcor
     17.11     -18.84       0.82        0.00     140.45       2.27       0.44       1.30       ----

> <Gold.Chemscore.Fitness>
17.1074

> <Gold.Chemscore.DG>
-18.8407

> <Gold.Chemscore.ZeroCoef>
-5.4800

> <Gold.Chemscore.Hbond>
0.8217

> <Gold.Chemscore.Metal>
0.0000

> <Gold.Chemscore.Lipo>
140.4546

> <Gold.Chemscore.Internal_Hbond>
0.0000

> <Gold.Chemscore.DEClash>
0.4370

> <Gold.Chemscore.DEInternal>
1.2963

> <Gold.Chemscore.Rot>
2.2723

> <Gold.Chemscore.Internal.Correction>
   9.000000E+99

> <Gold.Chemscore.Hbonds>
donor molecule, donor type, donor heavy atom, donor atom, acceptor molecule, acceptor atom, score
      P1  H  7997  8009       L1    10  0.73

> <Gold.Chemscore.Hbond.Weighted>
-2.7445

> <Gold.Chemscore.Metal.Weighted>
-0.0000

> <Gold.Chemscore.Lipo.Weighted>
-16.4332

> <Gold.Chemscore.Internal_Hbond.Weighted>
0.0000

> <Gold.Chemscore.DEClash.Weighted>
0.4370

> <Gold.Chemscore.DEInternal.Weighted>
1.2963

> <Gold.Chemscore.Rot.Weighted>
5.8170

> <Gold.Chemscore.Internal.Correction.Weighted>
   9.000000E+99

> <Gold.Protein.RotatedTorsions>
[ 6907 6896 6895 6894 ] final  -58.02 input  -60.11 | X-H torsion
[ 7974 7965 7964 7962 ] final   83.67 input  175.53 | X-H torsion
[ 8008 7997 7996 7995 ] final   97.94 input   59.86 | X-H torsion
[ 10167 10162 10161 10158 ] final  113.10 input  -65.29 | X-H torsion
[ 10718 10713 10712 10709 ] final  142.62 input   66.30 | X-H torsion
[ 10763 10752 10751 10750 ] final -100.61 input  -60.55 | X-H torsion
[ 11005 11000 10999 10996 ] final  -60.40 input  -57.11 | X-H torsion

> <Gold.Protein.ActiveResidues>
 VAL166  LYS551  ARG553  GLY616  TRP617  ASP618  TYR619  PRO620  LYS621  CYS622 
 ASP623  PHE694  ASN695  SER759  ASP760  ASP761  ALA762  ILE779  LEU786  VAL792 
 PHE793  MET794  SER795  GLU796  ALA797  LYS798  CYS799  TRP800  GLU811  SER814 

> <Gold.Protein.RotatedAtoms>
  150.8040  134.7152  159.6626 H   0  0  0  0  0  0  0  0  0  0  0  0  # atno 6907 bound_to 6896
  152.4158  134.6040  160.0017 H   0  0  0  0  0  0  0  0  0  0  0  0  # atno 6908 bound_to 6896
  151.6270  133.3298  159.3136 H   0  0  0  0  0  0  0  0  0  0  0  0  # atno 6909 bound_to 6896
  145.6088  139.2365  143.2204 H   0  0  0  0  0  0  0  0  0  0  0  0  # atno 7974 bound_to 7965
  156.0953  140.3251  155.7870 H   0  0  0  0  0  0  0  0  0  0  0  0  # atno 8008 bound_to 7997
  155.4928  140.0563  157.2968 H   0  0  0  0  0  0  0  0  0  0  0  0  # atno 8009 bound_to 7997
  154.4663  140.1990  156.0126 H   0  0  0  0  0  0  0  0  0  0  0  0  # atno 8010 bound_to 7997
  139.6487  144.7127  151.2092 H   0  0  0  0  0  0  0  0  0  0  0  0  # atno 10167 bound_to 10162
  157.3784  131.0989  151.0762 H   0  0  0  0  0  0  0  0  0  0  0  0  # atno 10718 bound_to 10713
  154.7592  135.4929  153.9432 H   0  0  0  0  0  0  0  0  0  0  0  0  # atno 10763 bound_to 10752
  153.1232  135.6736  153.9309 H   0  0  0  0  0  0  0  0  0  0  0  0  # atno 10764 bound_to 10752
  153.9035  135.3107  155.3427 H   0  0  0  0  0  0  0  0  0  0  0  0  # atno 10765 bound_to 10752
  141.1285  133.6622  156.5217 H   0  0  0  0  0  0  0  0  0  0  0  0  # atno 11005 bound_to 11000
  146.1520  140.6911  142.9317 LP  0  0  0  0  0  0  0  0  0  0  0  0  # atno 17320 bound_to 7965
  144.7278  140.4580  143.6960 LP  0  0  0  0  0  0  0  0  0  0  0  0  # atno 17321 bound_to 7965
  140.7527  143.6188  150.8534 LP  0  0  0  0  0  0  0  0  0  0  0  0  # atno 17342 bound_to 10162
  139.9833  143.5927  152.2935 LP  0  0  0  0  0  0  0  0  0  0  0  0  # atno 17343 bound_to 10162
  157.1840  130.6322  149.5681 LP  0  0  0  0  0  0  0  0  0  0  0  0  # atno 17370 bound_to 10713
  155.9770  130.4744  150.6567 LP  0  0  0  0  0  0  0  0  0  0  0  0  # atno 17371 bound_to 10713
  140.4287  134.7122  157.4930 LP  0  0  0  0  0  0  0  0  0  0  0  0  # atno 17394 bound_to 11000
  140.0309  134.6407  155.9108 LP  0  0  0  0  0  0  0  0  0  0  0  0  # atno 17395 bound_to 11000

$$$$
