AV-unprocessed.smi:3170|AV-procd|sdf|12110|dock6
  -GOLD-   2272017553D 1   1.00000     0.00000
 Structure written by MMmdl.
 35 36  0  0  0  0  0  0  0  0  1 V2000
  145.1132  137.9168  153.6837 O   0  0  0  0  0  0  0  0  0  0  0  0
  146.1131  137.5115  153.0909 C   0  0  0  0  0  0  0  0  0  0  0  0
  146.1807  136.3387  152.4461 N   0  0  0  0  0  0  0  0  0  0  0  0
  145.0884  135.3762  152.3383 C   0  0  0  0  0  0  0  0  0  0  0  0
  144.6275  135.1638  150.8835 C   0  0  0  0  0  0  0  0  0  0  0  0
  144.9234  133.8280  150.4011 N   0  0  0  0  0  0  0  0  0  0  0  0
  146.1351  133.1556  150.4852 C   0  0  0  0  0  0  0  0  0  0  0  0
  145.9444  131.9272  149.8937 C   0  0  0  0  0  0  0  0  0  0  0  0
  144.6314  131.8235  149.4406 N   0  0  0  0  0  0  0  0  0  0  0  0
  144.0876  132.9854  149.7787 C   0  0  0  0  0  0  0  0  0  0  0  0
  147.2625  138.1928  153.0068 N   0  0  0  0  0  0  0  0  0  0  0  0
  147.4845  139.5050  153.5998 C   0  0  0  0  0  0  0  0  0  0  0  0
  148.7042  139.4886  154.5352 C   0  0  1  0  0  0  0  0  0  0  0  0
  149.8071  138.5501  154.0916 C   0  0  0  0  0  0  0  0  0  0  0  0
  151.0043  139.0767  154.8770 C   0  0  0  0  0  0  0  0  0  0  0  0
  150.7876  140.4774  155.0245 O   0  0  0  0  0  0  0  0  0  0  0  0
  149.4639  140.8138  154.6193 C   0  0  0  0  0  0  0  0  0  0  0  0
  147.0469  136.0963  151.9877 H   0  0  0  0  0  0  0  0  0  0  0  0
  145.4219  134.4299  152.7653 H   0  0  0  0  0  0  0  0  0  0  0  0
  144.2489  135.7097  152.9501 H   0  0  0  0  0  0  0  0  0  0  0  0
  143.5508  135.3206  150.8110 H   0  0  0  0  0  0  0  0  0  0  0  0
  145.0912  135.8915  150.2161 H   0  0  0  0  0  0  0  0  0  0  0  0
  147.0080  133.5948  150.9451 H   0  0  0  0  0  0  0  0  0  0  0  0
  146.6455  131.1167  149.7597 H   0  0  0  0  0  0  0  0  0  0  0  0
  143.0584  133.2324  149.5630 H   0  0  0  0  0  0  0  0  0  0  0  0
  148.0305  137.7817  152.4967 H   0  0  0  0  0  0  0  0  0  0  0  0
  147.6385  140.2316  152.8008 H   0  0  0  0  0  0  0  0  0  0  0  0
  146.5945  139.8176  154.1487 H   0  0  0  0  0  0  0  0  0  0  0  0
  148.3892  139.1999  155.5398 H   0  0  0  0  0  0  0  0  0  0  0  0
  149.5897  137.5023  154.3007 H   0  0  0  0  0  0  0  0  0  0  0  0
  149.9895  138.6546  153.0210 H   0  0  0  0  0  0  0  0  0  0  0  0
  151.0366  138.6252  155.8693 H   0  0  0  0  0  0  0  0  0  0  0  0
  151.9519  138.8693  154.3797 H   0  0  0  0  0  0  0  0  0  0  0  0
  149.5160  141.2929  153.6407 H   0  0  0  0  0  0  0  0  0  0  0  0
  149.0029  141.5163  155.3140 H   0  0  0  0  0  0  0  0  0  0  0  0
  1  2  2  0  0  0  0
  2  3  1  0  0  0  0
  2 11  1  0  0  0  0
  3  4  1  0  0  0  0
  3 18  1  0  0  0  0
  4  5  1  0  0  0  0
  4 19  1  0  0  0  0
  4 20  1  0  0  0  0
  5  6  1  0  0  0  0
  5 21  1  0  0  0  0
  5 22  1  0  0  0  0
  6 10  1  0  0  0  0
  6  7  1  0  0  0  0
  7  8  2  0  0  0  0
  7 23  1  0  0  0  0
  8  9  1  0  0  0  0
  8 24  1  0  0  0  0
  9 10  2  0  0  0  0
 10 25  1  0  0  0  0
 11 12  1  0  0  0  0
 11 26  1  0  0  0  0
 12 13  1  0  0  0  0
 12 27  1  0  0  0  0
 12 28  1  0  0  0  0
 13 17  1  0  0  0  0
 13 14  1  0  0  0  0
 13 29  1  0  0  0  0
 14 15  1  0  0  0  0
 14 30  1  0  0  0  0
 14 31  1  0  0  0  0
 15 16  1  0  0  0  0
 15 32  1  0  0  0  0
 15 33  1  0  0  0  0
 16 17  1  0  0  0  0
 17 34  1  0  0  0  0
 17 35  1  0  0  0  0
M  END
> <s_m_source_file>
AV-unprocessed.smi

> <i_m_source_file_index>
3170

> <i_lp_mmshare_version>
43012

> <i_f3d_flags>
0

> <s_epik_input>
W0NIMl0xT1tDSDJdW0NIMl1bQ0BIXTFbQ0gyXVtOSF1DKD1PKVtOSF1bQ0gyXVtDSDJdbjJbY0hdW2NIXW5bY0hdMg==

> <s_epik_cmdline>
J2VwaWtfcHl0aG9uJywgJy1waCcsICc3LjAnLCAnLXRuJywgJzgnLCAnLW1hJywgJzIwMCcsICctbWV0YWxfYmluZGluZycsICctaW1hZScsICc8aW5maWxlLm1hZT4nLCAnLW9tYWUnLCAnPG91dGZpbGUubWFlPic=

> <r_lp_tautomer_probability>
1

> <r_epik_Ionization_Penalty>
0.621287

> <r_epik_Ionization_Penalty_Charging>
0.621234

> <r_epik_Ionization_Penalty_Neutral>
5.30999e-05

> <r_epik_State_Penalty>
0.637278

> <r_epik_Charging_Adjusted_Penalty>
1.25851

> <i_epik_Tot_Q>
0

> <i_epik_Tot_abs_Q>
0

> <r_epik_Metal_State_Penalty>
0.306756

> <b_epik_Metal_Only>
0

> <s_lp_Force_Field>
OPLS_2005

> <r_lp_Energy>
18.1747

> <b_lp_Chiralities_Consistent>
1

> <s_lp_Variant>
AV-unprocessed.smi:3170-4

> <Gold.Version>
5.8.1

> <Gold.Id.Protein>
6NUR|6NUR_protein|mol2

> <Gold.PLP.Fitness>
45.0337

> <Gold.PLP.PLP>
-31.9842

> <Gold.PLP.part.hbond>
-4.0000

> <Gold.PLP.part.metal>
0.0000

> <Gold.PLP.part.buried>
-3.0237

> <Gold.PLP.part.nonpolar>
-26.4642

> <Gold.PLP.part.repulsive>
0.4549

> <Gold.PLP.ligand.clash>
0.0000

> <Gold.PLP.ligand.torsion>
0.8351

> <Gold.PLP.Chemscore.Hbond>
2.8935

> <Gold.PLP.Chemscore.CHOScore>
2.0000

> <Gold.PLP.Chemscore.Metal>
0.0000

> <Gold.Chemscore.Hbonds>
donor molecule, donor type, donor heavy atom, donor atom, acceptor molecule, acceptor atom, score
      L1  H     3    18       P1  7948  1.00
      L1  H    11    26       P1  7948  1.00
      P1  H  7989  7998       L1    16  0.63
      P1  H 10785 10796       L1     9  0.15
      L1  C     8    24       P1 10747  1.00
      L1  C    10    25       P1 10186  1.00

> <Gold.PLP.Chemscore.Internal.Correction>
0.0392

> <Gold.Rescore>
     Score         DG    S(hbond)    S(metal)    S(lipo)     H(rot)  DE(clash)    DE(int)     intcor
     14.87     -15.87       2.62        0.00      63.22       2.25       0.18       0.82       ----

> <Gold.Chemscore.Fitness>
14.8654

> <Gold.Chemscore.DG>
-15.8661

> <Gold.Chemscore.ZeroCoef>
-5.4800

> <Gold.Chemscore.Hbond>
2.6177

> <Gold.Chemscore.Metal>
0.0000

> <Gold.Chemscore.Lipo>
63.2171

> <Gold.Chemscore.Internal_Hbond>
0.0000

> <Gold.Chemscore.DEClash>
0.1830

> <Gold.Chemscore.DEInternal>
0.8177

> <Gold.Chemscore.Rot>
2.2474

> <Gold.Chemscore.Internal.Correction>
   9.000000E+99

> <Gold.Chemscore.Hbonds>
donor molecule, donor type, donor heavy atom, donor atom, acceptor molecule, acceptor atom, score
      L1  H     3    18       P1  7948  0.96
      L1  H    11    26       P1  7948  0.95
      P1  H  7989  7998       L1    16  0.01
      P1  H 10785 10796       L1     9  0.14

> <Gold.Chemscore.Hbond.Weighted>
-8.7430

> <Gold.Chemscore.Metal.Weighted>
-0.0000

> <Gold.Chemscore.Lipo.Weighted>
-7.3964

> <Gold.Chemscore.Internal_Hbond.Weighted>
0.0000

> <Gold.Chemscore.DEClash.Weighted>
0.1830

> <Gold.Chemscore.DEInternal.Weighted>
0.8177

> <Gold.Chemscore.Rot.Weighted>
5.7532

> <Gold.Chemscore.Internal.Correction.Weighted>
   9.000000E+99

> <Gold.Protein.RotatedTorsions>
[ 6907 6896 6895 6894 ] final  146.51 input  -60.11 | X-H torsion
[ 7974 7965 7964 7962 ] final -131.76 input  175.53 | X-H torsion
[ 8008 7997 7996 7995 ] final -109.78 input   59.86 | X-H torsion
[ 10167 10162 10161 10158 ] final -178.77 input  -65.29 | X-H torsion
[ 10718 10713 10712 10709 ] final -137.50 input   66.30 | X-H torsion
[ 10763 10752 10751 10750 ] final  -65.93 input  -60.55 | X-H torsion
[ 11005 11000 10999 10996 ] final -100.37 input  -57.11 | X-H torsion

> <Gold.Protein.ActiveResidues>
 VAL166  LYS551  ARG553  GLY616  TRP617  ASP618  TYR619  PRO620  LYS621  CYS622 
 ASP623  PHE694  ASN695  SER759  ASP760  ASP761  ALA762  ILE779  LEU786  VAL792 
 PHE793  MET794  SER795  GLU796  ALA797  LYS798  CYS799  TRP800  GLU811  SER814 

> <Gold.Protein.RotatedAtoms>
  152.1670  133.4618  159.4889 H   0  0  0  0  0  0  0  0  0  0  0  0  # atno 6907 bound_to 6896
  150.6914  134.2001  159.4328 H   0  0  0  0  0  0  0  0  0  0  0  0  # atno 6908 bound_to 6896
  151.9906  134.9981  160.0612 H   0  0  0  0  0  0  0  0  0  0  0  0  # atno 6909 bound_to 6896
  144.9349  140.7171  143.4883 H   0  0  0  0  0  0  0  0  0  0  0  0  # atno 7974 bound_to 7965
  154.9646  140.0398  157.2206 H   0  0  0  0  0  0  0  0  0  0  0  0  # atno 8008 bound_to 7997
  154.7858  140.2826  155.6007 H   0  0  0  0  0  0  0  0  0  0  0  0  # atno 8009 bound_to 7997
  156.2943  140.2583  156.2693 H   0  0  0  0  0  0  0  0  0  0  0  0  # atno 8010 bound_to 7997
  139.5417  144.2346  152.0907 H   0  0  0  0  0  0  0  0  0  0  0  0  # atno 10167 bound_to 10162
  156.2888  130.7363  151.1382 H   0  0  0  0  0  0  0  0  0  0  0  0  # atno 10718 bound_to 10713
  154.3523  135.6134  153.5649 H   0  0  0  0  0  0  0  0  0  0  0  0  # atno 10763 bound_to 10752
  152.9797  135.5795  154.4729 H   0  0  0  0  0  0  0  0  0  0  0  0  # atno 10764 bound_to 10752
  154.4452  135.2851  155.1797 H   0  0  0  0  0  0  0  0  0  0  0  0  # atno 10765 bound_to 10752
  141.1273  133.8394  157.1093 H   0  0  0  0  0  0  0  0  0  0  0  0  # atno 11005 bound_to 11000
  145.3083  139.1827  143.4652 LP  0  0  0  0  0  0  0  0  0  0  0  0  # atno 17320 bound_to 7965
  146.3262  140.3084  142.8625 LP  0  0  0  0  0  0  0  0  0  0  0  0  # atno 17321 bound_to 7965
  140.1826  144.4830  150.6520 LP  0  0  0  0  0  0  0  0  0  0  0  0  # atno 17342 bound_to 10162
  140.6649  143.2264  151.5767 LP  0  0  0  0  0  0  0  0  0  0  0  0  # atno 17343 bound_to 10162
  157.7336  131.0589  150.5567 LP  0  0  0  0  0  0  0  0  0  0  0  0  # atno 17370 bound_to 10713
  156.5681  130.4272  149.6032 LP  0  0  0  0  0  0  0  0  0  0  0  0  # atno 17371 bound_to 10713
  140.0285  134.9912  157.0733 LP  0  0  0  0  0  0  0  0  0  0  0  0  # atno 17394 bound_to 11000
  140.4324  134.1767  155.7169 LP  0  0  0  0  0  0  0  0  0  0  0  0  # atno 17395 bound_to 11000

$$$$
