AV-unprocessed.smi:3092|AV-procd|sdf|11783|dock7
  -GOLD-   2272017163D 1   1.00000     0.00000
 Structure written by MMmdl.
 25 26  0  0  0  0  0  0  0  0  2 V2000
  153.6654  140.9372  160.3817 C   0  0  0  0  0  0  0  0  0  0  0  0
  153.1200  142.1797  160.8943 N   0  0  0  0  0  0  0  0  0  0  0  0
  153.0998  142.5630  162.2292 C   0  0  0  0  0  0  0  0  0  0  0  0
  152.4968  143.7961  162.2775 C   0  0  0  0  0  0  0  0  0  0  0  0
  152.1431  144.1849  160.9903 N   0  0  0  0  0  0  0  0  0  0  0  0
  152.5395  143.1848  160.2070 C   0  0  0  0  0  0  0  0  0  0  0  0
  152.3507  143.1759  158.7161 C   0  0  1  0  0  0  0  0  0  0  0  0
  151.4529  142.0675  158.1720 C   0  0  0  0  0  0  0  0  0  0  0  0
  151.0455  142.5883  156.7856 C   0  0  0  0  0  0  0  0  0  0  0  0
  151.2621  144.0521  156.7973 N   0  3  0  0  0  0  0  0  0  0  0  0
  151.7021  144.4373  158.1498 C   0  0  0  0  0  0  0  0  0  0  0  0
  154.0288  140.3181  161.2026 H   0  0  0  0  0  0  0  0  0  0  0  0
  154.4951  141.1490  159.7065 H   0  0  0  0  0  0  0  0  0  0  0  0
  152.8922  140.3873  159.8444 H   0  0  0  0  0  0  0  0  0  0  0  0
  153.5043  141.9425  163.0154 H   0  0  0  0  0  0  0  0  0  0  0  0
  152.2921  144.4266  163.1303 H   0  0  0  0  0  0  0  0  0  0  0  0
  153.3232  143.0702  158.2351 H   0  0  0  0  0  0  0  0  0  0  0  0
  151.9465  141.0956  158.1399 H   0  0  0  0  0  0  0  0  0  0  0  0
  150.5607  141.9680  158.7922 H   0  0  0  0  0  0  0  0  0  0  0  0
  151.6709  142.1500  156.0073 H   0  0  0  0  0  0  0  0  0  0  0  0
  150.0064  142.3497  156.5564 H   0  0  0  0  0  0  0  0  0  0  0  0
  151.9972  144.2702  156.1398 H   0  0  0  0  0  0  0  0  0  0  0  0
  150.8186  144.7106  158.7288 H   0  0  0  0  0  0  0  0  0  0  0  0
  152.3765  145.2939  158.1343 H   0  0  0  0  0  0  0  0  0  0  0  0
  150.4194  144.5475  156.5425 H   0  0  0  0  0  0  0  0  0  0  0  0
  1  2  1  0  0  0  0
  1 12  1  0  0  0  0
  1 13  1  0  0  0  0
  1 14  1  0  0  0  0
  2  6  1  0  0  0  0
  2  3  1  0  0  0  0
  3  4  2  0  0  0  0
  3 15  1  0  0  0  0
  4  5  1  0  0  0  0
  4 16  1  0  0  0  0
  5  6  2  0  0  0  0
  6  7  1  0  0  0  0
  7 11  1  0  0  0  0
  7  8  1  0  0  0  0
  7 17  1  0  0  0  0
  8  9  1  0  0  0  0
  8 18  1  0  0  0  0
  8 19  1  0  0  0  0
  9 10  1  0  0  0  0
  9 20  1  0  0  0  0
  9 21  1  0  0  0  0
 10 11  1  0  0  0  0
 10 22  1  0  0  0  0
 10 25  1  0  0  0  0
 11 23  1  0  0  0  0
 11 24  1  0  0  0  0
M  CHG  1  10   1
M  END
> <s_m_source_file>
AV-unprocessed.smi

> <i_m_source_file_index>
3092

> <i_lp_mmshare_version>
43012

> <i_f3d_flags>
0

> <s_epik_input>
W0NIM11uMVtjSF1bY0hdbmMxW0NAQEhdMltDSDJdW0NIMl1bTkhdW0NIMl0y

> <s_epik_cmdline>
J2VwaWtfcHl0aG9uJywgJy1waCcsICc3LjAnLCAnLXRuJywgJzgnLCAnLW1hJywgJzIwMCcsICctbWV0YWxfYmluZGluZycsICctaW1hZScsICc8aW5maWxlLm1hZT4nLCAnLW9tYWUnLCAnPG91dGZpbGUubWFlPic=

> <r_lp_tautomer_probability>
1

> <r_epik_Ionization_Penalty>
0.177139

> <r_epik_Ionization_Penalty_Charging>
0.177139

> <r_epik_Ionization_Penalty_Neutral>
7.43304e-14

> <r_epik_State_Penalty>
0.16632

> <r_epik_Charging_Adjusted_Penalty>
0.343459

> <i_epik_Tot_Q>
1

> <i_epik_Tot_abs_Q>
1

> <r_epik_Metal_State_Penalty>
0.000191838

> <b_epik_Metal_Only>
0

> <s_lp_Force_Field>
OPLS_2005

> <r_lp_Energy>
23.658

> <b_lp_Chiralities_Consistent>
1

> <s_lp_Variant>
AV-unprocessed.smi:3092-2

> <Gold.Version>
5.8.1

> <Gold.Id.Protein>
6NUR|6NUR_protein|mol2

> <Gold.PLP.Fitness>
40.6385

> <Gold.PLP.PLP>
-34.6593

> <Gold.PLP.part.hbond>
-1.0000

> <Gold.PLP.part.metal>
0.0000

> <Gold.PLP.part.buried>
-3.7460

> <Gold.PLP.part.nonpolar>
-30.0006

> <Gold.PLP.part.repulsive>
0.1613

> <Gold.PLP.ligand.clash>
0.0000

> <Gold.PLP.ligand.torsion>
0.0110

> <Gold.PLP.Chemscore.Hbond>
2.0000

> <Gold.PLP.Chemscore.CHOScore>
0.0000

> <Gold.PLP.Chemscore.Metal>
0.0000

> <Gold.Chemscore.Hbonds>
donor molecule, donor type, donor heavy atom, donor atom, acceptor molecule, acceptor atom, score
      L1  H    10    25       P1  8028  2.00

> <Gold.PLP.Chemscore.Internal.Correction>
0.0012

> <Gold.Rescore>
     Score         DG    S(hbond)    S(metal)    S(lipo)     H(rot)  DE(clash)    DE(int)     intcor
     15.09     -15.12       1.00        0.00      75.73       1.00       0.01       0.01       ----

> <Gold.Chemscore.Fitness>
15.0926

> <Gold.Chemscore.DG>
-15.1154

> <Gold.Chemscore.ZeroCoef>
-5.4800

> <Gold.Chemscore.Hbond>
0.9984

> <Gold.Chemscore.Metal>
0.0000

> <Gold.Chemscore.Lipo>
75.7315

> <Gold.Chemscore.Internal_Hbond>
0.0000

> <Gold.Chemscore.DEClash>
0.0089

> <Gold.Chemscore.DEInternal>
0.0139

> <Gold.Chemscore.Rot>
1.0000

> <Gold.Chemscore.Internal.Correction>
   9.000000E+99

> <Gold.Chemscore.Hbonds>
donor molecule, donor type, donor heavy atom, donor atom, acceptor molecule, acceptor atom, score
      L1  H    10    25       P1  8028  0.95

> <Gold.Chemscore.Hbond.Weighted>
-3.3348

> <Gold.Chemscore.Metal.Weighted>
-0.0000

> <Gold.Chemscore.Lipo.Weighted>
-8.8606

> <Gold.Chemscore.Internal_Hbond.Weighted>
0.0000

> <Gold.Chemscore.DEClash.Weighted>
0.0089

> <Gold.Chemscore.DEInternal.Weighted>
0.0139

> <Gold.Chemscore.Rot.Weighted>
2.5600

> <Gold.Chemscore.Internal.Correction.Weighted>
   9.000000E+99

> <Gold.Protein.RotatedTorsions>
[ 6907 6896 6895 6894 ] final  143.45 input  -60.11 | X-H torsion
[ 7974 7965 7964 7962 ] final  -41.41 input  175.53 | X-H torsion
[ 8008 7997 7996 7995 ] final  -43.84 input   59.86 | X-H torsion
[ 10167 10162 10161 10158 ] final  123.56 input  -65.29 | X-H torsion
[ 10718 10713 10712 10709 ] final -146.55 input   66.30 | X-H torsion
[ 10763 10752 10751 10750 ] final -108.30 input  -60.55 | X-H torsion
[ 11005 11000 10999 10996 ] final    7.05 input  -57.11 | X-H torsion

> <Gold.Protein.ActiveResidues>
 VAL166  LYS551  ARG553  GLY616  TRP617  ASP618  TYR619  PRO620  LYS621  CYS622 
 ASP623  PHE694  ASN695  SER759  ASP760  ASP761  ALA762  ILE779  LEU786  VAL792 
 PHE793  MET794  SER795  GLU796  ALA797  LYS798  CYS799  TRP800  GLU811  SER814 

> <Gold.Protein.RotatedAtoms>
  152.2062  133.4877  159.5084 H   0  0  0  0  0  0  0  0  0  0  0  0  # atno 6907 bound_to 6896
  150.6980  134.1527  159.4155 H   0  0  0  0  0  0  0  0  0  0  0  0  # atno 6908 bound_to 6896
  151.9445  135.0197  160.0589 H   0  0  0  0  0  0  0  0  0  0  0  0  # atno 6909 bound_to 6896
  146.0213  140.6846  142.9177 H   0  0  0  0  0  0  0  0  0  0  0  0  # atno 7974 bound_to 7965
  154.3997  140.1437  156.3584 H   0  0  0  0  0  0  0  0  0  0  0  0  # atno 8008 bound_to 7997
  155.8204  140.3469  155.5489 H   0  0  0  0  0  0  0  0  0  0  0  0  # atno 8009 bound_to 7997
  155.8294  140.0910  157.1792 H   0  0  0  0  0  0  0  0  0  0  0  0  # atno 8010 bound_to 7997
  139.5792  144.6978  151.3572 H   0  0  0  0  0  0  0  0  0  0  0  0  # atno 10167 bound_to 10162
  156.3963  130.7911  151.2118 H   0  0  0  0  0  0  0  0  0  0  0  0  # atno 10718 bound_to 10713
  154.8127  135.4643  154.0560 H   0  0  0  0  0  0  0  0  0  0  0  0  # atno 10763 bound_to 10752
  153.1978  135.6864  153.8277 H   0  0  0  0  0  0  0  0  0  0  0  0  # atno 10764 bound_to 10752
  153.7772  135.3261  155.3338 H   0  0  0  0  0  0  0  0  0  0  0  0  # atno 10765 bound_to 10752
  140.5526  134.0269  155.7942 H   0  0  0  0  0  0  0  0  0  0  0  0  # atno 11005 bound_to 11000
  144.6991  140.3572  143.7171 LP  0  0  0  0  0  0  0  0  0  0  0  0  # atno 17320 bound_to 7965
  145.7188  139.1704  143.2497 LP  0  0  0  0  0  0  0  0  0  0  0  0  # atno 17321 bound_to 7965
  140.7072  143.7483  150.7503 LP  0  0  0  0  0  0  0  0  0  0  0  0  # atno 17342 bound_to 10162
  140.1011  143.4787  152.2424 LP  0  0  0  0  0  0  0  0  0  0  0  0  # atno 17343 bound_to 10162
  157.7502  131.0300  150.4118 LP  0  0  0  0  0  0  0  0  0  0  0  0  # atno 17370 bound_to 10713
  156.4389  130.3987  149.6710 LP  0  0  0  0  0  0  0  0  0  0  0  0  # atno 17371 bound_to 10713
  141.1163  133.9535  157.2817 LP  0  0  0  0  0  0  0  0  0  0  0  0  # atno 17394 bound_to 11000
  139.9448  135.0186  156.8817 LP  0  0  0  0  0  0  0  0  0  0  0  0  # atno 17395 bound_to 11000

$$$$
