AV-unprocessed.smi:817|AV-procd|sdf|3828|dock3
  -GOLD-   22720 1273D 1   1.00000     0.00000
 Structure written by MMmdl.
 48 49  0  0  0  0  0  0  0  0  2 V2000
  150.9876  142.2231  156.5222 C   0  0  0  0  0  0  0  0  0  0  0  0
  150.6473  140.7817  156.1179 C   0  0  2  0  0  0  0  0  0  0  0  0
  151.7611  140.1685  155.2496 C   0  0  0  0  0  0  0  0  0  0  0  0
  151.4023  138.7504  154.7825 C   0  0  0  0  0  0  0  0  0  0  0  0
  150.0347  138.7292  154.0759 C   0  0  0  0  0  0  0  0  0  0  0  0
  148.8816  139.2599  154.9806 C   0  0  1  0  0  0  0  0  0  0  0  0
  147.5482  139.2902  154.1726 C   0  0  0  0  0  0  0  0  0  0  0  0
  147.3481  138.1016  153.3409 N   0  0  0  0  0  0  0  0  0  0  0  0
  146.2044  137.4244  153.1404 C   0  0  0  0  0  0  0  0  0  0  0  0
  145.1616  137.7645  153.6935 O   0  0  0  0  0  0  0  0  0  0  0  0
  146.3311  136.3644  152.3177 N   0  0  0  0  0  0  0  0  0  0  0  0
  145.3348  135.4468  151.8882 C   0  0  0  0  0  0  0  0  0  0  0  0
  144.1912  135.2891  152.6982 C   0  0  0  0  0  0  0  0  0  0  0  0
  143.1934  134.3761  152.3081 C   0  0  0  0  0  0  0  0  0  0  0  0
  143.3829  133.6455  151.1194 C   0  0  0  0  0  0  0  0  0  0  0  0
  144.4775  133.7717  150.3402 N   0  0  0  0  0  0  0  0  0  0  0  0
  145.4304  134.6502  150.7198 C   0  0  0  0  0  0  0  0  0  0  0  0
  148.7338  138.3907  156.2082 N   0  3  0  0  0  0  0  0  0  0  0  0
  148.5474  136.9368  155.9581 C   0  0  0  0  0  0  0  0  0  0  0  0
  147.7624  138.8665  157.2290 C   0  0  0  0  0  0  0  0  0  0  0  0
  149.2908  140.7111  155.3815 C   0  0  0  0  0  0  0  0  0  0  0  0
  151.0711  142.8714  155.6492 H   0  0  0  0  0  0  0  0  0  0  0  0
  151.9348  142.2670  157.0605 H   0  0  0  0  0  0  0  0  0  0  0  0
  150.2193  142.6405  157.1736 H   0  0  0  0  0  0  0  0  0  0  0  0
  150.5775  140.2000  157.0378 H   0  0  0  0  0  0  0  0  0  0  0  0
  151.9346  140.8001  154.3770 H   0  0  0  0  0  0  0  0  0  0  0  0
  152.7002  140.1462  155.8037 H   0  0  0  0  0  0  0  0  0  0  0  0
  152.1725  138.3847  154.1029 H   0  0  0  0  0  0  0  0  0  0  0  0
  151.3999  138.0688  155.6338 H   0  0  0  0  0  0  0  0  0  0  0  0
  150.1203  139.3511  153.1841 H   0  0  0  0  0  0  0  0  0  0  0  0
  149.8224  137.7331  153.6904 H   0  0  0  0  0  0  0  0  0  0  0  0
  146.6954  139.3668  154.8473 H   0  0  0  0  0  0  0  0  0  0  0  0
  147.5188  140.1620  153.5190 H   0  0  0  0  0  0  0  0  0  0  0  0
  148.1675  137.7496  152.8667 H   0  0  0  0  0  0  0  0  0  0  0  0
  147.2677  136.1620  152.0012 H   0  0  0  0  0  0  0  0  0  0  0  0
  144.0751  135.8621  153.6065 H   0  0  0  0  0  0  0  0  0  0  0  0
  142.3040  134.2387  152.9049 H   0  0  0  0  0  0  0  0  0  0  0  0
  142.6382  132.9369  150.7883 H   0  0  0  0  0  0  0  0  0  0  0  0
  146.2901  134.6863  150.0696 H   0  0  0  0  0  0  0  0  0  0  0  0
  147.6018  136.7271  155.4594 H   0  0  0  0  0  0  0  0  0  0  0  0
  148.5398  136.3917  156.9026 H   0  0  0  0  0  0  0  0  0  0  0  0
  149.3560  136.5039  155.3724 H   0  0  0  0  0  0  0  0  0  0  0  0
  146.7424  138.8815  156.8459 H   0  0  0  0  0  0  0  0  0  0  0  0
  148.0077  139.8559  157.6111 H   0  0  0  0  0  0  0  0  0  0  0  0
  147.7713  138.2042  158.0954 H   0  0  0  0  0  0  0  0  0  0  0  0
  148.5107  141.1945  155.9687 H   0  0  0  0  0  0  0  0  0  0  0  0
  149.3740  141.3290  154.4864 H   0  0  0  0  0  0  0  0  0  0  0  0
  149.6319  138.4552  156.6666 H   0  0  0  0  0  0  0  0  0  0  0  0
  1  2  1  0  0  0  0
  1 22  1  0  0  0  0
  1 23  1  0  0  0  0
  1 24  1  0  0  0  0
  2 21  1  0  0  0  0
  2  3  1  0  0  0  0
  2 25  1  0  0  0  0
  3  4  1  0  0  0  0
  3 26  1  0  0  0  0
  3 27  1  0  0  0  0
  4  5  1  0  0  0  0
  4 28  1  0  0  0  0
  4 29  1  0  0  0  0
  5  6  1  0  0  0  0
  5 30  1  0  0  0  0
  5 31  1  0  0  0  0
  6  7  1  0  0  0  0
  6 18  1  0  0  0  0
  6 21  1  0  0  0  0
  7  8  1  0  0  0  0
  7 32  1  0  0  0  0
  7 33  1  0  0  0  0
  8  9  1  0  0  0  0
  8 34  1  0  0  0  0
  9 10  2  0  0  0  0
  9 11  1  0  0  0  0
 11 12  1  0  0  0  0
 11 35  1  0  0  0  0
 12 17  1  0  0  0  0
 12 13  2  0  0  0  0
 13 14  1  0  0  0  0
 13 36  1  0  0  0  0
 14 15  2  0  0  0  0
 14 37  1  0  0  0  0
 15 16  1  0  0  0  0
 15 38  1  0  0  0  0
 16 17  2  0  0  0  0
 17 39  1  0  0  0  0
 18 19  1  0  0  0  0
 18 20  1  0  0  0  0
 18 48  1  0  0  0  0
 19 40  1  0  0  0  0
 19 41  1  0  0  0  0
 19 42  1  0  0  0  0
 20 43  1  0  0  0  0
 20 44  1  0  0  0  0
 20 45  1  0  0  0  0
 21 46  1  0  0  0  0
 21 47  1  0  0  0  0
M  CHG  1  18   1
M  END
> <s_m_source_file>
AV-unprocessed.smi

> <i_m_source_file_index>
817

> <i_lp_mmshare_version>
43012

> <i_f3d_flags>
0

> <s_epik_input>
W0NIM11bQ0BASF0oW0NIMl0xKVtDSDJdW0NIMl1bQ0gyXVtDQF0xKE4oW0NIM10pW0NIM10pW0NIMl1bTkhdQyg9TylbTkhdYzJbY0hdW2NIXVtjSF1uW2NIXTI=

> <s_epik_cmdline>
J2VwaWtfcHl0aG9uJywgJy1waCcsICc3LjAnLCAnLXRuJywgJzgnLCAnLW1hJywgJzIwMCcsICctbWV0YWxfYmluZGluZycsICctaW1hZScsICc8aW5maWxlLm1hZT4nLCAnLW9tYWUnLCAnPG91dGZpbGUubWFlPic=

> <r_lp_tautomer_probability>
1

> <r_epik_Ionization_Penalty>
0.00584939

> <r_epik_Ionization_Penalty_Charging>
0.00160539

> <r_epik_Ionization_Penalty_Neutral>
0.004244

> <r_epik_State_Penalty>
-0

> <r_epik_Charging_Adjusted_Penalty>
0.00160539

> <i_epik_Tot_Q>
1

> <i_epik_Tot_abs_Q>
1

> <r_epik_Metal_State_Penalty>
-0

> <b_epik_Metal_Only>
0

> <s_lp_Force_Field>
OPLS_2005

> <r_lp_Energy>
44.2375

> <b_lp_Chiralities_Consistent>
1

> <s_lp_Variant>
AV-unprocessed.smi:817-1

> <Gold.Version>
5.8.1

> <Gold.Id.Protein>
6NUR|6NUR_protein|mol2

> <Gold.PLP.Fitness>
37.1848

> <Gold.PLP.PLP>
-28.2498

> <Gold.PLP.part.hbond>
-2.0000

> <Gold.PLP.part.metal>
0.0000

> <Gold.PLP.part.buried>
-0.4648

> <Gold.PLP.part.nonpolar>
-25.7487

> <Gold.PLP.part.repulsive>
0.3675

> <Gold.PLP.ligand.clash>
0.0000

> <Gold.PLP.ligand.torsion>
0.5801

> <Gold.PLP.Chemscore.Hbond>
1.9760

> <Gold.PLP.Chemscore.CHOScore>
1.3472

> <Gold.PLP.Chemscore.Metal>
0.0000

> <Gold.Chemscore.Hbonds>
donor molecule, donor type, donor heavy atom, donor atom, acceptor molecule, acceptor atom, score
      L1  H     8    34       P1  7948  0.93
      L1  H    11    35       P1  7948  1.00
      L1  C    15    38       P1 10186  0.45
      L1  C    17    39       P1  7921  0.89

> <Gold.PLP.Chemscore.Internal.Correction>
0.1256

> <Gold.Rescore>
     Score         DG    S(hbond)    S(metal)    S(lipo)     H(rot)  DE(clash)    DE(int)     intcor
     14.97     -16.93       1.91        0.00      74.79       1.44       0.03       1.93       ----

> <Gold.Chemscore.Fitness>
14.9730

> <Gold.Chemscore.DG>
-16.9305

> <Gold.Chemscore.ZeroCoef>
-5.4800

> <Gold.Chemscore.Hbond>
1.9125

> <Gold.Chemscore.Metal>
0.0000

> <Gold.Chemscore.Lipo>
74.7919

> <Gold.Chemscore.Internal_Hbond>
0.0000

> <Gold.Chemscore.DEClash>
0.0272

> <Gold.Chemscore.DEInternal>
1.9303

> <Gold.Chemscore.Rot>
1.4405

> <Gold.Chemscore.Internal.Correction>
   9.000000E+99

> <Gold.Chemscore.Hbonds>
donor molecule, donor type, donor heavy atom, donor atom, acceptor molecule, acceptor atom, score
      L1  H     8    34       P1  7948  0.89
      L1  H    11    35       P1  7948  1.00

> <Gold.Chemscore.Hbond.Weighted>
-6.3877

> <Gold.Chemscore.Metal.Weighted>
-0.0000

> <Gold.Chemscore.Lipo.Weighted>
-8.7506

> <Gold.Chemscore.Internal_Hbond.Weighted>
0.0000

> <Gold.Chemscore.DEClash.Weighted>
0.0272

> <Gold.Chemscore.DEInternal.Weighted>
1.9303

> <Gold.Chemscore.Rot.Weighted>
3.6878

> <Gold.Chemscore.Internal.Correction.Weighted>
   9.000000E+99

> <Gold.Protein.RotatedTorsions>
[ 6907 6896 6895 6894 ] final -136.63 input  -60.11 | X-H torsion
[ 7974 7965 7964 7962 ] final -149.69 input  175.53 | X-H torsion
[ 8008 7997 7996 7995 ] final   67.28 input   59.86 | X-H torsion
[ 10167 10162 10161 10158 ] final -147.62 input  -65.29 | X-H torsion
[ 10718 10713 10712 10709 ] final   59.74 input   66.30 | X-H torsion
[ 10763 10752 10751 10750 ] final   68.21 input  -60.55 | X-H torsion
[ 11005 11000 10999 10996 ] final  -84.07 input  -57.11 | X-H torsion

> <Gold.Protein.ActiveResidues>
 VAL166  LYS551  ARG553  GLY616  TRP617  ASP618  TYR619  PRO620  LYS621  CYS622 
 ASP623  PHE694  ASN695  SER759  ASP760  ASP761  ALA762  ILE779  LEU786  VAL792 
 PHE793  MET794  SER795  GLU796  ALA797  LYS798  CYS799  TRP800  GLU811  SER814 

> <Gold.Protein.RotatedAtoms>
  151.0125  133.5952  159.2680 H   0  0  0  0  0  0  0  0  0  0  0  0  # atno 6907 bound_to 6896
  151.3098  135.0790  159.9278 H   0  0  0  0  0  0  0  0  0  0  0  0  # atno 6908 bound_to 6896
  152.5303  133.9792  159.7852 H   0  0  0  0  0  0  0  0  0  0  0  0  # atno 6909 bound_to 6896
  144.7952  140.5031  143.5745 H   0  0  0  0  0  0  0  0  0  0  0  0  # atno 7974 bound_to 7965
  155.6905  140.3496  155.4891 H   0  0  0  0  0  0  0  0  0  0  0  0  # atno 8008 bound_to 7997
  155.9528  140.1122  157.0984 H   0  0  0  0  0  0  0  0  0  0  0  0  # atno 8009 bound_to 7997
  154.4125  140.1191  156.5061 H   0  0  0  0  0  0  0  0  0  0  0  0  # atno 8010 bound_to 7997
  139.7605  143.8383  152.2606 H   0  0  0  0  0  0  0  0  0  0  0  0  # atno 10167 bound_to 10162
  157.5699  130.8900  149.9250 H   0  0  0  0  0  0  0  0  0  0  0  0  # atno 10718 bound_to 10713
  153.0224  135.5255  154.7099 H   0  0  0  0  0  0  0  0  0  0  0  0  # atno 10763 bound_to 10752
  154.6184  135.2886  155.0356 H   0  0  0  0  0  0  0  0  0  0  0  0  # atno 10764 bound_to 10752
  154.1351  135.6587  153.4983 H   0  0  0  0  0  0  0  0  0  0  0  0  # atno 10765 bound_to 10752
  141.1653  133.7327  156.8813 H   0  0  0  0  0  0  0  0  0  0  0  0  # atno 11005 bound_to 11000
  145.5692  139.1482  143.3298 LP  0  0  0  0  0  0  0  0  0  0  0  0  # atno 17320 bound_to 7965
  146.2218  140.5825  142.9014 LP  0  0  0  0  0  0  0  0  0  0  0  0  # atno 17321 bound_to 7965
  139.8388  144.7219  150.9357 LP  0  0  0  0  0  0  0  0  0  0  0  0  # atno 17342 bound_to 10162
  140.7806  143.4002  151.1162 LP  0  0  0  0  0  0  0  0  0  0  0  0  # atno 17343 bound_to 10162
  156.0745  130.3680  150.0706 LP  0  0  0  0  0  0  0  0  0  0  0  0  # atno 17370 bound_to 10713
  156.8860  130.9572  151.3594 LP  0  0  0  0  0  0  0  0  0  0  0  0  # atno 17371 bound_to 10713
  140.1713  134.9098  157.2836 LP  0  0  0  0  0  0  0  0  0  0  0  0  # atno 17394 bound_to 11000
  140.2499  134.3695  155.7446 LP  0  0  0  0  0  0  0  0  0  0  0  0  # atno 17395 bound_to 11000

$$$$
