AV-unprocessed.smi:344|AV-procd|sdf|2389|dock2
  -GOLD-   2262022313D 1   1.00000     0.00000
 Structure written by MMmdl.
 38 39  0  0  0  0  0  0  0  0  1 V2000
  144.5585  138.1995  152.5625 N   0  0  0  0  0  0  0  0  0  0  0  0
  145.5177  137.3926  153.0236 C   0  0  0  0  0  0  0  0  0  0  0  0
  145.9409  136.4404  152.3710 O   0  0  0  0  0  0  0  0  0  0  0  0
  146.0792  137.6973  154.4153 C   0  0  0  0  0  0  0  0  0  0  0  0
  146.8732  138.9721  154.3976 C   0  0  0  0  0  0  0  0  0  0  0  0
  146.8034  139.9762  153.4614 C   0  0  0  0  0  0  0  0  0  0  0  0
  147.8986  141.2840  153.8198 S   0  0  0  0  0  0  0  0  0  0  0  0
  148.4122  140.4093  155.2538 C   0  0  0  0  0  0  0  0  0  0  0  0
  149.3918  140.9294  156.1397 N   0  0  0  0  0  0  0  0  0  0  0  0
  150.7323  140.8686  156.0326 C   0  0  0  0  0  0  0  0  0  0  0  0
  151.3338  140.3359  155.0989 O   0  0  0  0  0  0  0  0  0  0  0  0
  151.5050  141.5240  157.1831 C   0  0  0  0  0  0  0  0  0  0  0  0
  151.2559  143.0392  157.3205 C   0  0  0  0  0  0  0  0  0  0  0  0
  151.9877  143.6647  158.5213 C   0  0  0  0  0  0  0  0  0  0  0  0
  151.9820  142.8051  159.7903 C   0  0  0  0  0  0  0  0  0  0  0  0
  152.2258  143.7806  160.9490 C   0  0  0  0  0  0  0  0  0  0  0  0
  151.9186  145.1845  160.4074 C   0  0  0  0  0  0  0  0  0  0  0  0
  151.3684  144.9815  158.9933 C   0  0  0  0  0  0  0  0  0  0  0  0
  147.7924  139.2354  155.4188 N   0  0  0  0  0  0  0  0  0  0  0  0
  144.1591  138.0305  151.6505 H   0  0  0  0  0  0  0  0  0  0  0  0
  144.2330  138.9717  153.1255 H   0  0  0  0  0  0  0  0  0  0  0  0
  145.2679  137.7670  155.1413 H   0  0  0  0  0  0  0  0  0  0  0  0
  146.6999  136.8572  154.7295 H   0  0  0  0  0  0  0  0  0  0  0  0
  146.1777  140.0226  152.5827 H   0  0  0  0  0  0  0  0  0  0  0  0
  149.0309  141.4026  156.9550 H   0  0  0  0  0  0  0  0  0  0  0  0
  151.2308  141.0197  158.1104 H   0  0  0  0  0  0  0  0  0  0  0  0
  152.5687  141.3394  157.0279 H   0  0  0  0  0  0  0  0  0  0  0  0
  151.5896  143.5431  156.4122 H   0  0  0  0  0  0  0  0  0  0  0  0
  150.1853  143.2334  157.4016 H   0  0  0  0  0  0  0  0  0  0  0  0
  153.0244  143.8617  158.2431 H   0  0  0  0  0  0  0  0  0  0  0  0
  151.0062  142.3337  159.9151 H   0  0  0  0  0  0  0  0  0  0  0  0
  152.7279  142.0104  159.7584 H   0  0  0  0  0  0  0  0  0  0  0  0
  151.5961  143.5340  161.8043 H   0  0  0  0  0  0  0  0  0  0  0  0
  153.2626  143.7290  161.2827 H   0  0  0  0  0  0  0  0  0  0  0  0
  151.2165  145.7267  161.0414 H   0  0  0  0  0  0  0  0  0  0  0  0
  152.8385  145.7690  160.3647 H   0  0  0  0  0  0  0  0  0  0  0  0
  151.6031  145.8161  158.3317 H   0  0  0  0  0  0  0  0  0  0  0  0
  150.2821  144.8884  159.0358 H   0  0  0  0  0  0  0  0  0  0  0  0
  1  2  1  0  0  0  0
  1 20  1  0  0  0  0
  1 21  1  0  0  0  0
  2  3  2  0  0  0  0
  2  4  1  0  0  0  0
  4  5  1  0  0  0  0
  4 22  1  0  0  0  0
  4 23  1  0  0  0  0
  5 19  1  0  0  0  0
  5  6  2  0  0  0  0
  6  7  1  0  0  0  0
  6 24  1  0  0  0  0
  7  8  1  0  0  0  0
  8  9  1  0  0  0  0
  8 19  2  0  0  0  0
  9 10  1  0  0  0  0
  9 25  1  0  0  0  0
 10 11  2  0  0  0  0
 10 12  1  0  0  0  0
 12 13  1  0  0  0  0
 12 26  1  0  0  0  0
 12 27  1  0  0  0  0
 13 14  1  0  0  0  0
 13 28  1  0  0  0  0
 13 29  1  0  0  0  0
 14 18  1  0  0  0  0
 14 15  1  0  0  0  0
 14 30  1  0  0  0  0
 15 16  1  0  0  0  0
 15 31  1  0  0  0  0
 15 32  1  0  0  0  0
 16 17  1  0  0  0  0
 16 33  1  0  0  0  0
 16 34  1  0  0  0  0
 17 18  1  0  0  0  0
 17 35  1  0  0  0  0
 17 36  1  0  0  0  0
 18 37  1  0  0  0  0
 18 38  1  0  0  0  0
M  END
> <s_m_source_file>
AV-unprocessed.smi

> <i_m_source_file_index>
344

> <i_lp_mmshare_version>
43012

> <i_f3d_flags>
0

> <s_epik_input>
W05IMl1DKD1PKVtDSDJdYzFbY0hdc2MobjEpW05IXUMoPU8pW0NIMl1bQ0gyXVtDSF0yW0NIMl1bQ0gyXVtDSDJdW0NIMl0y

> <s_epik_cmdline>
J2VwaWtfcHl0aG9uJywgJy1waCcsICc3LjAnLCAnLXRuJywgJzgnLCAnLW1hJywgJzIwMCcsICctbWV0YWxfYmluZGluZycsICctaW1hZScsICc8aW5maWxlLm1hZT4nLCAnLW9tYWUnLCAnPG91dGZpbGUubWFlPic=

> <r_lp_tautomer_probability>
1

> <r_epik_Ionization_Penalty>
0.000156249

> <r_epik_Ionization_Penalty_Charging>
0

> <r_epik_Ionization_Penalty_Neutral>
0.000156249

> <r_epik_State_Penalty>
-0

> <r_epik_Charging_Adjusted_Penalty>
0

> <i_epik_Tot_Q>
0

> <i_epik_Tot_abs_Q>
0

> <r_epik_Metal_State_Penalty>
0.0972404

> <b_epik_Metal_Only>
0

> <s_lp_Force_Field>
OPLS_2005

> <r_lp_Energy>
21.4861

> <b_lp_Chiralities_Consistent>
1

> <s_lp_Variant>
AV-unprocessed.smi:344-1

> <Gold.Version>
5.8.1

> <Gold.Id.Protein>
6NUR|6NUR_protein|mol2

> <Gold.PLP.Fitness>
44.7645

> <Gold.PLP.PLP>
-36.9903

> <Gold.PLP.part.hbond>
-2.4964

> <Gold.PLP.part.metal>
0.0000

> <Gold.PLP.part.buried>
-6.6165

> <Gold.PLP.part.nonpolar>
-29.4975

> <Gold.PLP.part.repulsive>
0.5988

> <Gold.PLP.ligand.clash>
0.0000

> <Gold.PLP.ligand.torsion>
1.2971

> <Gold.PLP.Chemscore.Hbond>
2.4960

> <Gold.PLP.Chemscore.CHOScore>
0.9466

> <Gold.PLP.Chemscore.Metal>
0.0000

> <Gold.Chemscore.Hbonds>
donor molecule, donor type, donor heavy atom, donor atom, acceptor molecule, acceptor atom, score
      L1  H     1    20       P1 10171  0.99
      L1  H     1    21       P1 10175  0.46
      P1  H  7989  7998       L1    11  1.00
      L1  C     6    24       P1 10175  0.97

> <Gold.PLP.Chemscore.Internal.Correction>
0.0404

> <Gold.Rescore>
     Score         DG    S(hbond)    S(metal)    S(lipo)     H(rot)  DE(clash)    DE(int)     intcor
     16.83     -19.30       2.61        0.00      96.85       2.44       0.10       2.37       ----

> <Gold.Chemscore.Fitness>
16.8293

> <Gold.Chemscore.DG>
-19.2977

> <Gold.Chemscore.ZeroCoef>
-5.4800

> <Gold.Chemscore.Hbond>
2.6145

> <Gold.Chemscore.Metal>
0.0000

> <Gold.Chemscore.Lipo>
96.8529

> <Gold.Chemscore.Internal_Hbond>
0.0000

> <Gold.Chemscore.DEClash>
0.1004

> <Gold.Chemscore.DEInternal>
2.3680

> <Gold.Chemscore.Rot>
2.4400

> <Gold.Chemscore.Internal.Correction>
   9.000000E+99

> <Gold.Chemscore.Hbonds>
donor molecule, donor type, donor heavy atom, donor atom, acceptor molecule, acceptor atom, score
      L1  H     1    20       P1 10171  0.94
      L1  H     1    21       P1 10175  0.48
      P1  H  7989  7998       L1    11  0.95

> <Gold.Chemscore.Hbond.Weighted>
-8.7324

> <Gold.Chemscore.Metal.Weighted>
-0.0000

> <Gold.Chemscore.Lipo.Weighted>
-11.3318

> <Gold.Chemscore.Internal_Hbond.Weighted>
0.0000

> <Gold.Chemscore.DEClash.Weighted>
0.1004

> <Gold.Chemscore.DEInternal.Weighted>
2.3680

> <Gold.Chemscore.Rot.Weighted>
6.2465

> <Gold.Chemscore.Internal.Correction.Weighted>
   9.000000E+99

> <Gold.Protein.RotatedTorsions>
[ 6907 6896 6895 6894 ] final   82.64 input  -60.11 | X-H torsion
[ 7974 7965 7964 7962 ] final   97.51 input  175.53 | X-H torsion
[ 8008 7997 7996 7995 ] final  178.92 input   59.86 | X-H torsion
[ 10167 10162 10161 10158 ] final  179.51 input  -65.29 | X-H torsion
[ 10718 10713 10712 10709 ] final  173.88 input   66.30 | X-H torsion
[ 10763 10752 10751 10750 ] final -177.27 input  -60.55 | X-H torsion
[ 11005 11000 10999 10996 ] final  -64.32 input  -57.11 | X-H torsion

> <Gold.Protein.ActiveResidues>
 VAL166  LYS551  ARG553  GLY616  TRP617  ASP618  TYR619  PRO620  LYS621  CYS622 
 ASP623  PHE694  ASN695  SER759  ASP760  ASP761  ALA762  ILE779  LEU786  VAL792 
 PHE793  MET794  SER795  GLU796  ALA797  LYS798  CYS799  TRP800  GLU811  SER814 

> <Gold.Protein.RotatedAtoms>
  152.5305  134.3018  159.9081 H   0  0  0  0  0  0  0  0  0  0  0  0  # atno 6907 bound_to 6896
  151.2969  133.4133  159.2644 H   0  0  0  0  0  0  0  0  0  0  0  0  # atno 6908 bound_to 6896
  151.0152  134.9444  159.8086 H   0  0  0  0  0  0  0  0  0  0  0  0  # atno 6909 bound_to 6896
  145.4245  139.2317  143.3178 H   0  0  0  0  0  0  0  0  0  0  0  0  # atno 7974 bound_to 7965
  156.0492  140.1321  157.0069 H   0  0  0  0  0  0  0  0  0  0  0  0  # atno 8008 bound_to 7997
  154.4427  140.1014  156.6421 H   0  0  0  0  0  0  0  0  0  0  0  0  # atno 8009 bound_to 7997
  155.5550  140.3463  155.4479 H   0  0  0  0  0  0  0  0  0  0  0  0  # atno 8010 bound_to 7997
  139.5340  144.2552  152.0752 H   0  0  0  0  0  0  0  0  0  0  0  0  # atno 10167 bound_to 10162
  156.9578  131.0051  151.2934 H   0  0  0  0  0  0  0  0  0  0  0  0  # atno 10718 bound_to 10713
  154.5622  135.2821  155.0908 H   0  0  0  0  0  0  0  0  0  0  0  0  # atno 10763 bound_to 10752
  154.2312  135.6374  153.5180 H   0  0  0  0  0  0  0  0  0  0  0  0  # atno 10764 bound_to 10752
  153.0032  135.5538  154.6220 H   0  0  0  0  0  0  0  0  0  0  0  0  # atno 10765 bound_to 10752
  141.1421  133.6664  156.5815 H   0  0  0  0  0  0  0  0  0  0  0  0  # atno 11005 bound_to 11000
  146.2639  140.4974  142.8842 LP  0  0  0  0  0  0  0  0  0  0  0  0  # atno 17320 bound_to 7965
  144.8223  140.6570  143.6345 LP  0  0  0  0  0  0  0  0  0  0  0  0  # atno 17321 bound_to 7965
  140.2020  144.4649  150.6427 LP  0  0  0  0  0  0  0  0  0  0  0  0  # atno 17342 bound_to 10162
  140.6535  143.2231  151.6022 LP  0  0  0  0  0  0  0  0  0  0  0  0  # atno 17343 bound_to 10162
  157.5678  130.8290  149.8351 LP  0  0  0  0  0  0  0  0  0  0  0  0  # atno 17370 bound_to 10713
  156.0335  130.3758  150.1623 LP  0  0  0  0  0  0  0  0  0  0  0  0  # atno 17371 bound_to 10713
  140.3834  134.7503  157.4676 LP  0  0  0  0  0  0  0  0  0  0  0  0  # atno 17394 bound_to 11000
  140.0620  134.5982  155.8738 LP  0  0  0  0  0  0  0  0  0  0  0  0  # atno 17395 bound_to 11000

$$$$
