AV-unprocessed.smi:169|AV-procd|sdf|1402|dock3
  -GOLD-   2262019153D 1   1.00000     0.00000
 Structure written by MMmdl.
 56 60  0  0  0  0  0  0  0  0  2 V2000
  147.0440  141.2275  153.5551 C   0  0  0  0  0  0  0  0  0  0  0  0
  147.6375  141.7765  154.8645 C   0  0  0  0  0  0  0  0  0  0  0  0
  148.7409  140.9472  155.4159 N   0  3  2  0  0  0  0  0  0  0  0  0
  149.6197  141.7154  156.3685 C   0  0  0  0  0  0  0  0  0  0  0  0
  150.4353  140.8294  157.3833 C   0  0  0  0  0  0  0  0  0  0  0  0
  150.9579  139.5211  156.7583 C   0  0  3  0  0  0  0  0  0  0  0  0
  152.2161  139.0537  156.0152 C   0  0  0  0  0  0  0  0  0  0  0  0
  151.5842  138.6060  154.6562 C   0  0  0  0  0  0  0  0  0  0  0  0
  150.0385  138.7705  154.8391 C   0  0  2  0  0  0  0  0  0  0  0  0
  149.4566  140.1471  154.3517 C   0  0  0  0  0  0  0  0  0  0  0  0
  149.8774  138.6784  156.2772 N   0  0  0  0  0  0  0  0  0  0  0  0
  149.6420  137.4718  156.8557 C   0  0  0  0  0  0  0  0  0  0  0  0
  150.4321  136.4120  156.5379 N   0  0  0  0  0  0  0  0  0  0  0  0
  150.2233  135.2192  157.1021 C   0  0  0  0  0  0  0  0  0  0  0  0
  149.3049  134.8741  158.0058 N   0  0  0  0  0  0  0  0  0  0  0  0
  148.5249  135.9383  158.3503 C   0  0  0  0  0  0  0  0  0  0  0  0
  148.6223  137.2588  157.8268 C   0  0  0  0  0  0  0  0  0  0  0  0
  147.6656  138.0722  158.4226 N   0  0  0  0  0  0  0  0  0  0  0  0
  147.0299  137.2753  159.2371 C   0  0  0  0  0  0  0  0  0  0  0  0
  147.4929  135.9791  159.2727 N   0  0  0  0  0  0  0  0  0  0  0  0
  146.9824  134.8863  160.0901 C   0  0  0  0  0  0  0  0  0  0  0  0
  146.7174  135.2441  161.5716 C   0  0  0  0  0  0  0  0  0  0  0  0
  146.4771  133.9079  162.2959 C   0  0  0  0  0  0  0  0  0  0  0  0
  145.3401  133.2192  161.8151 O   0  0  0  0  0  0  0  0  0  0  0  0
  147.6851  136.2436  162.2320 C   0  0  0  0  0  0  0  0  0  0  0  0
  146.7565  137.3351  162.0480 O   0  0  0  0  0  0  0  0  0  0  0  0
  145.7024  136.3736  161.8210 C   0  0  0  0  0  0  0  0  0  0  0  0
  146.2344  141.8687  153.2058 H   0  0  0  0  0  0  0  0  0  0  0  0
  146.6315  140.2270  153.6852 H   0  0  0  0  0  0  0  0  0  0  0  0
  147.7880  141.1847  152.7596 H   0  0  0  0  0  0  0  0  0  0  0  0
  148.0019  142.7917  154.7029 H   0  0  0  0  0  0  0  0  0  0  0  0
  146.8505  141.8620  155.6149 H   0  0  0  0  0  0  0  0  0  0  0  0
  150.3057  142.3327  155.7863 H   0  0  0  0  0  0  0  0  0  0  0  0
  149.0125  142.4126  156.9473 H   0  0  0  0  0  0  0  0  0  0  0  0
  151.2536  141.4076  157.8158 H   0  0  0  0  0  0  0  0  0  0  0  0
  149.7847  140.5667  158.2181 H   0  0  0  0  0  0  0  0  0  0  0  0
  151.1650  140.2819  156.0153 H   0  0  0  0  0  0  0  0  0  0  0  0
  153.0094  139.8005  155.9074 H   0  0  0  0  0  0  0  0  0  0  0  0
  152.6532  138.1938  156.5240 H   0  0  0  0  0  0  0  0  0  0  0  0
  151.9611  139.1853  153.8129 H   0  0  0  0  0  0  0  0  0  0  0  0
  151.8332  137.5610  154.4670 H   0  0  0  0  0  0  0  0  0  0  0  0
  149.5309  137.9649  154.3111 H   0  0  0  0  0  0  0  0  0  0  0  0
  148.7587  139.9270  153.5428 H   0  0  0  0  0  0  0  0  0  0  0  0
  150.2333  140.7661  153.9008 H   0  0  0  0  0  0  0  0  0  0  0  0
  150.8899  134.4298  156.7876 H   0  0  0  0  0  0  0  0  0  0  0  0
  146.2034  137.6182  159.8420 H   0  0  0  0  0  0  0  0  0  0  0  0
  146.0661  134.5257  159.6208 H   0  0  0  0  0  0  0  0  0  0  0  0
  147.6937  134.0624  160.0177 H   0  0  0  0  0  0  0  0  0  0  0  0
  147.3382  133.2481  162.1846 H   0  0  0  0  0  0  0  0  0  0  0  0
  146.3405  134.0677  163.3661 H   0  0  0  0  0  0  0  0  0  0  0  0
  144.7933  132.9892  162.5509 H   0  0  0  0  0  0  0  0  0  0  0  0
  147.8752  136.0564  163.2899 H   0  0  0  0  0  0  0  0  0  0  0  0
  148.6255  136.3924  161.7043 H   0  0  0  0  0  0  0  0  0  0  0  0
  145.0777  136.6197  160.9638 H   0  0  0  0  0  0  0  0  0  0  0  0
  145.0846  136.2421  162.7106 H   0  0  0  0  0  0  0  0  0  0  0  0
  148.2694  140.2592  155.9862 H   0  0  0  0  0  0  0  0  0  0  0  0
  1  2  1  0  0  0  0
  1 28  1  0  0  0  0
  1 29  1  0  0  0  0
  1 30  1  0  0  0  0
  2  3  1  0  0  0  0
  2 31  1  0  0  0  0
  2 32  1  0  0  0  0
  3 10  1  0  0  0  0
  3  4  1  0  0  0  0
  3 56  1  0  0  0  0
  4  5  1  0  0  0  0
  4 33  1  0  0  0  0
  4 34  1  0  0  0  0
  5  6  1  0  0  0  0
  5 35  1  0  0  0  0
  5 36  1  0  0  0  0
  6 11  1  0  0  0  0
  6  7  1  0  0  0  0
  6 37  1  0  0  0  0
  7  8  1  0  0  0  0
  7 38  1  0  0  0  0
  7 39  1  0  0  0  0
  8  9  1  0  0  0  0
  8 40  1  0  0  0  0
  8 41  1  0  0  0  0
  9 10  1  0  0  0  0
  9 11  1  0  0  0  0
  9 42  1  0  0  0  0
 10 43  1  0  0  0  0
 10 44  1  0  0  0  0
 11 12  1  0  0  0  0
 12 17  1  0  0  0  0
 12 13  2  0  0  0  0
 13 14  1  0  0  0  0
 14 15  2  0  0  0  0
 14 45  1  0  0  0  0
 15 16  1  0  0  0  0
 16 20  1  0  0  0  0
 16 17  2  0  0  0  0
 17 18  1  0  0  0  0
 18 19  2  0  0  0  0
 19 20  1  0  0  0  0
 19 46  1  0  0  0  0
 20 21  1  0  0  0  0
 21 22  1  0  0  0  0
 21 47  1  0  0  0  0
 21 48  1  0  0  0  0
 22 27  1  0  0  0  0
 22 23  1  0  0  0  0
 22 25  1  0  0  0  0
 23 24  1  0  0  0  0
 23 49  1  0  0  0  0
 23 50  1  0  0  0  0
 24 51  1  0  0  0  0
 25 26  1  0  0  0  0
 25 52  1  0  0  0  0
 25 53  1  0  0  0  0
 26 27  1  0  0  0  0
 27 54  1  0  0  0  0
 27 55  1  0  0  0  0
M  CHG  1   3   1
M  END
> <s_m_source_file>
AV-unprocessed.smi

> <i_m_source_file_index>
169

> <i_lp_mmshare_version>
43012

> <i_f3d_flags>
0

> <s_epik_input>
W0NASF0xMltDSDJdW0NIMl1OKFtDSDJdW0NIM10pW0NIMl1bQ0BIXShbQ0gyXVtDSDJdMSlOMmMobltjSF1uMyljKGMzNCluW2NIXW40W0NIMl1DNShbQ0gyXVtPSF0pW0NIMl1PW0NIMl01

> <s_epik_cmdline>
J2VwaWtfcHl0aG9uJywgJy1waCcsICc3LjAnLCAnLXRuJywgJzgnLCAnLW1hJywgJzIwMCcsICctbWV0YWxfYmluZGluZycsICctaW1hZScsICc8aW5maWxlLm1hZT4nLCAnLW9tYWUnLCAnPG91dGZpbGUubWFlPic=

> <r_lp_tautomer_probability>
1

> <r_epik_Ionization_Penalty>
0.00274162

> <r_epik_Ionization_Penalty_Charging>
0.00243722

> <r_epik_Ionization_Penalty_Neutral>
0.000304399

> <r_epik_State_Penalty>
-0

> <r_epik_Charging_Adjusted_Penalty>
0.00243722

> <i_epik_Tot_Q>
1

> <i_epik_Tot_abs_Q>
1

> <r_epik_Metal_State_Penalty>
-0

> <b_epik_Metal_Only>
0

> <s_lp_Force_Field>
OPLS_2005

> <r_lp_Energy>
131.144

> <b_lp_Chiralities_Consistent>
1

> <s_lp_Variant>
AV-unprocessed.smi:169-5

> <Gold.Version>
5.8.1

> <Gold.Id.Protein>
6NUR|6NUR_protein|mol2

> <Gold.PLP.Fitness>
43.2351

> <Gold.PLP.PLP>
-40.6975

> <Gold.PLP.part.hbond>
-3.9192

> <Gold.PLP.part.metal>
0.0000

> <Gold.PLP.part.buried>
-2.5409

> <Gold.PLP.part.nonpolar>
-33.9182

> <Gold.PLP.part.repulsive>
0.0764

> <Gold.PLP.ligand.clash>
0.0000

> <Gold.PLP.ligand.torsion>
1.1602

> <Gold.PLP.Chemscore.Hbond>
1.4685

> <Gold.PLP.Chemscore.CHOScore>
0.0000

> <Gold.PLP.Chemscore.Metal>
0.0000

> <Gold.Chemscore.Hbonds>
donor molecule, donor type, donor heavy atom, donor atom, acceptor molecule, acceptor atom, score
      P1  H  6896  6907       L1    15  0.74
      P1  H  6934  6947       L1    26  0.75

> <Gold.PLP.Chemscore.Internal.Correction>
0.4522

> <Gold.Rescore>
     Score         DG    S(hbond)    S(metal)    S(lipo)     H(rot)  DE(clash)    DE(int)     intcor
     11.24     -14.66       1.23        0.00     100.64       2.62       0.81       2.62       ----

> <Gold.Chemscore.Fitness>
11.2362

> <Gold.Chemscore.DG>
-14.6646

> <Gold.Chemscore.ZeroCoef>
-5.4800

> <Gold.Chemscore.Hbond>
1.2335

> <Gold.Chemscore.Metal>
0.0000

> <Gold.Chemscore.Lipo>
100.6405

> <Gold.Chemscore.Internal_Hbond>
0.0000

> <Gold.Chemscore.DEClash>
0.8069

> <Gold.Chemscore.DEInternal>
2.6215

> <Gold.Chemscore.Rot>
2.6212

> <Gold.Chemscore.Internal.Correction>
   9.000000E+99

> <Gold.Chemscore.Hbonds>
donor molecule, donor type, donor heavy atom, donor atom, acceptor molecule, acceptor atom, score
      P1  H  6896  6907       L1    15  0.08
      P1  H  6934  6947       L1    26  0.71

> <Gold.Chemscore.Hbond.Weighted>
-4.1198

> <Gold.Chemscore.Metal.Weighted>
-0.0000

> <Gold.Chemscore.Lipo.Weighted>
-11.7749

> <Gold.Chemscore.Internal_Hbond.Weighted>
0.0000

> <Gold.Chemscore.DEClash.Weighted>
0.8069

> <Gold.Chemscore.DEInternal.Weighted>
2.6215

> <Gold.Chemscore.Rot.Weighted>
6.7102

> <Gold.Chemscore.Internal.Correction.Weighted>
   9.000000E+99

> <Gold.Protein.RotatedTorsions>
[ 6907 6896 6895 6894 ] final  -95.27 input  -60.11 | X-H torsion
[ 7974 7965 7964 7962 ] final  114.84 input  175.53 | X-H torsion
[ 8008 7997 7996 7995 ] final   12.25 input   59.86 | X-H torsion
[ 10167 10162 10161 10158 ] final  -55.08 input  -65.29 | X-H torsion
[ 10718 10713 10712 10709 ] final  -14.93 input   66.30 | X-H torsion
[ 10763 10752 10751 10750 ] final   14.12 input  -60.55 | X-H torsion
[ 11005 11000 10999 10996 ] final  -95.83 input  -57.11 | X-H torsion

> <Gold.Protein.ActiveResidues>
 VAL166  LYS551  ARG553  GLY616  TRP617  ASP618  TYR619  PRO620  LYS621  CYS622 
 ASP623  PHE694  ASN695  SER759  ASP760  ASP761  ALA762  ILE779  LEU786  VAL792 
 PHE793  MET794  SER795  GLU796  ALA797  LYS798  CYS799  TRP800  GLU811  SER814 

> <Gold.Protein.RotatedAtoms>
  150.6960  134.1684  159.4202 H   0  0  0  0  0  0  0  0  0  0  0  0  # atno 6907 bound_to 6896
  151.9662  135.0097  160.0559 H   0  0  0  0  0  0  0  0  0  0  0  0  # atno 6908 bound_to 6896
  152.1882  133.4720  159.5031 H   0  0  0  0  0  0  0  0  0  0  0  0  # atno 6909 bound_to 6896
  145.1994  139.2960  143.4326 H   0  0  0  0  0  0  0  0  0  0  0  0  # atno 7974 bound_to 7965
  154.8180  140.2879  155.5806 H   0  0  0  0  0  0  0  0  0  0  0  0  # atno 8008 bound_to 7997
  156.2995  140.2555  156.3012 H   0  0  0  0  0  0  0  0  0  0  0  0  # atno 8009 bound_to 7997
  154.9371  140.0382  157.2067 H   0  0  0  0  0  0  0  0  0  0  0  0  # atno 8010 bound_to 7997
  140.6395  143.2500  151.5029 H   0  0  0  0  0  0  0  0  0  0  0  0  # atno 10167 bound_to 10162
  156.6089  130.4844  149.6209 H   0  0  0  0  0  0  0  0  0  0  0  0  # atno 10718 bound_to 10713
  153.1654  135.6803  153.8683 H   0  0  0  0  0  0  0  0  0  0  0  0  # atno 10763 bound_to 10752
  153.8065  135.3149  155.3397 H   0  0  0  0  0  0  0  0  0  0  0  0  # atno 10764 bound_to 10752
  154.7961  135.4806  154.0256 H   0  0  0  0  0  0  0  0  0  0  0  0  # atno 10765 bound_to 10752
  141.1430  133.8054  157.0489 H   0  0  0  0  0  0  0  0  0  0  0  0  # atno 11005 bound_to 11000
  146.3421  140.2233  142.8592 LP  0  0  0  0  0  0  0  0  0  0  0  0  # atno 17320 bound_to 7965
  144.9963  140.8592  143.5309 LP  0  0  0  0  0  0  0  0  0  0  0  0  # atno 17321 bound_to 7965
  139.5604  144.2171  152.1682 LP  0  0  0  0  0  0  0  0  0  0  0  0  # atno 17342 bound_to 10162
  140.1437  144.5179  150.6729 LP  0  0  0  0  0  0  0  0  0  0  0  0  # atno 17343 bound_to 10162
  156.2406  130.6849  151.1552 LP  0  0  0  0  0  0  0  0  0  0  0  0  # atno 17370 bound_to 10713
  157.7259  131.0649  150.5931 LP  0  0  0  0  0  0  0  0  0  0  0  0  # atno 17371 bound_to 10713
  140.0645  134.9737  157.1361 LP  0  0  0  0  0  0  0  0  0  0  0  0  # atno 17394 bound_to 11000
  140.3800  134.2297  155.7171 LP  0  0  0  0  0  0  0  0  0  0  0  0  # atno 17395 bound_to 11000

$$$$
