AV-unprocessed.smi:2935|AV-procd|sdf|11256|dock3
  -GOLD-   2272016153D 1   1.00000     0.00000
 Structure written by MMmdl.
 36 37  0  0  0  0  0  0  0  0  1 V2000
  152.3396  144.4373  157.6768 C   0  0  0  0  0  0  0  0  0  0  0  0
  151.7168  143.3096  158.5273 C   0  0  0  0  0  0  0  0  0  0  0  0
  151.2851  142.1620  157.5861 C   0  0  0  0  0  0  0  0  0  0  0  0
  151.7965  141.0490  157.7199 O   0  0  0  0  0  0  0  0  0  0  0  0
  150.3365  142.4436  156.6715 N   0  0  0  0  0  0  0  0  0  0  0  0
  149.7794  141.5752  155.6987 C   0  0  0  0  0  0  0  0  0  0  0  0
  150.4781  140.4084  155.2837 C   0  0  0  0  0  0  0  0  0  0  0  0
  149.6390  139.8508  154.3612 C   0  0  0  0  0  0  0  0  0  0  0  0
  148.5268  140.6641  154.2661 N   0  0  0  0  0  0  0  0  0  0  0  0
  147.3596  140.4993  153.4183 C   0  0  0  0  0  0  0  0  0  0  0  0
  147.1345  139.0283  153.0642 C   0  0  0  0  0  0  0  0  0  0  0  0
  148.0079  138.4618  152.2273 N   0  0  0  0  0  0  0  0  0  0  0  0
  146.1822  138.4125  153.5375 O   0  0  0  0  0  0  0  0  0  0  0  0
  148.6106  141.7298  155.0923 N   0  0  0  0  0  0  0  0  0  0  0  0
  152.6793  142.8545  159.6467 C   0  0  0  0  0  0  0  0  0  0  0  0
  152.5008  143.8598  160.7862 C   0  0  0  0  0  0  0  0  0  0  0  0
  151.0696  144.3912  160.6591 C   0  0  0  0  0  0  0  0  0  0  0  0
  150.5147  143.8462  159.3354 C   0  0  0  0  0  0  0  0  0  0  0  0
  152.6200  145.2954  158.2881 H   0  0  0  0  0  0  0  0  0  0  0  0
  151.6439  144.7967  156.9174 H   0  0  0  0  0  0  0  0  0  0  0  0
  153.2393  144.0961  157.1630 H   0  0  0  0  0  0  0  0  0  0  0  0
  149.9781  143.3872  156.6729 H   0  0  0  0  0  0  0  0  0  0  0  0
  151.4400  140.0394  155.6075 H   0  0  0  0  0  0  0  0  0  0  0  0
  149.7389  138.9535  153.7682 H   0  0  0  0  0  0  0  0  0  0  0  0
  146.4887  140.8944  153.9430 H   0  0  0  0  0  0  0  0  0  0  0  0
  147.4806  141.0892  152.5082 H   0  0  0  0  0  0  0  0  0  0  0  0
  147.8921  137.4950  151.9592 H   0  0  0  0  0  0  0  0  0  0  0  0
  148.7752  139.0048  151.8588 H   0  0  0  0  0  0  0  0  0  0  0  0
  152.4035  141.8652  160.0164 H   0  0  0  0  0  0  0  0  0  0  0  0
  153.7174  142.8002  159.3163 H   0  0  0  0  0  0  0  0  0  0  0  0
  152.6885  143.4081  161.7608 H   0  0  0  0  0  0  0  0  0  0  0  0
  153.2077  144.6817  160.6678 H   0  0  0  0  0  0  0  0  0  0  0  0
  150.4502  144.0703  161.4973 H   0  0  0  0  0  0  0  0  0  0  0  0
  151.0734  145.4818  160.6575 H   0  0  0  0  0  0  0  0  0  0  0  0
  149.9547  144.6089  158.7923 H   0  0  0  0  0  0  0  0  0  0  0  0
  149.8120  143.0417  159.5607 H   0  0  0  0  0  0  0  0  0  0  0  0
  1  2  1  0  0  0  0
  1 19  1  0  0  0  0
  1 20  1  0  0  0  0
  1 21  1  0  0  0  0
  2 18  1  0  0  0  0
  2  3  1  0  0  0  0
  2 15  1  0  0  0  0
  3  4  2  0  0  0  0
  3  5  1  0  0  0  0
  5  6  1  0  0  0  0
  5 22  1  0  0  0  0
  6 14  2  0  0  0  0
  6  7  1  0  0  0  0
  7  8  2  0  0  0  0
  7 23  1  0  0  0  0
  8  9  1  0  0  0  0
  8 24  1  0  0  0  0
  9 10  1  0  0  0  0
  9 14  1  0  0  0  0
 10 11  1  0  0  0  0
 10 25  1  0  0  0  0
 10 26  1  0  0  0  0
 11 12  1  0  0  0  0
 11 13  2  0  0  0  0
 12 27  1  0  0  0  0
 12 28  1  0  0  0  0
 15 16  1  0  0  0  0
 15 29  1  0  0  0  0
 15 30  1  0  0  0  0
 16 17  1  0  0  0  0
 16 31  1  0  0  0  0
 16 32  1  0  0  0  0
 17 18  1  0  0  0  0
 17 33  1  0  0  0  0
 17 34  1  0  0  0  0
 18 35  1  0  0  0  0
 18 36  1  0  0  0  0
M  END
> <s_m_source_file>
AV-unprocessed.smi

> <i_m_source_file_index>
2935

> <i_lp_mmshare_version>
43012

> <i_f3d_flags>
0

> <s_epik_input>
W0NIMl0xW0NIMl1bQ0gyXVtDSDJdQzEoW0NIM10pQyg9TylbTkhdYzJbY0hdW2NIXW4objIpW0NIMl1DKD1PKVtOSDJd

> <s_epik_cmdline>
J2VwaWtfcHl0aG9uJywgJy1waCcsICc3LjAnLCAnLXRuJywgJzgnLCAnLW1hJywgJzIwMCcsICctbWV0YWxfYmluZGluZycsICctaW1hZScsICc8aW5maWxlLm1hZT4nLCAnLW9tYWUnLCAnPG91dGZpbGUubWFlPic=

> <r_lp_tautomer_probability>
1

> <r_epik_Ionization_Penalty>
1.6611e-05

> <r_epik_Ionization_Penalty_Charging>
0

> <r_epik_Ionization_Penalty_Neutral>
1.6611e-05

> <r_epik_State_Penalty>
-0

> <r_epik_Charging_Adjusted_Penalty>
0

> <i_epik_Tot_Q>
0

> <i_epik_Tot_abs_Q>
0

> <r_epik_Metal_State_Penalty>
-0

> <b_epik_Metal_Only>
0

> <s_lp_Force_Field>
OPLS_2005

> <r_lp_Energy>
27.108

> <b_lp_Chiralities_Consistent>
1

> <s_lp_Variant>
AV-unprocessed.smi:2935-1

> <Gold.Version>
5.8.1

> <Gold.Id.Protein>
6NUR|6NUR_protein|mol2

> <Gold.PLP.Fitness>
46.1069

> <Gold.PLP.PLP>
-39.4895

> <Gold.PLP.part.hbond>
-2.5735

> <Gold.PLP.part.metal>
0.0000

> <Gold.PLP.part.buried>
-4.8087

> <Gold.PLP.part.nonpolar>
-32.5805

> <Gold.PLP.part.repulsive>
0.8888

> <Gold.PLP.ligand.clash>
0.0000

> <Gold.PLP.ligand.torsion>
0.6013

> <Gold.PLP.Chemscore.Hbond>
2.5360

> <Gold.PLP.Chemscore.CHOScore>
0.0543

> <Gold.PLP.Chemscore.Metal>
0.0000

> <Gold.Chemscore.Hbonds>
donor molecule, donor type, donor heavy atom, donor atom, acceptor molecule, acceptor atom, score
      L1  H     5    22       P1  8028  0.91
      L1  H    12    27       P1  7948  0.64
      L1  H    12    28       P1  7957  0.86
      L1  C     8    24       P1  7957  0.11

> <Gold.PLP.Chemscore.Internal.Correction>
0.0491

> <Gold.Rescore>
     Score         DG    S(hbond)    S(metal)    S(lipo)     H(rot)  DE(clash)    DE(int)     intcor
     16.00     -19.05       2.31        0.00      91.93       1.91       0.22       2.83       ----

> <Gold.Chemscore.Fitness>
15.9965

> <Gold.Chemscore.DG>
-19.0494

> <Gold.Chemscore.ZeroCoef>
-5.4800

> <Gold.Chemscore.Hbond>
2.3068

> <Gold.Chemscore.Metal>
0.0000

> <Gold.Chemscore.Lipo>
91.9343

> <Gold.Chemscore.Internal_Hbond>
0.0000

> <Gold.Chemscore.DEClash>
0.2210

> <Gold.Chemscore.DEInternal>
2.8319

> <Gold.Chemscore.Rot>
1.9108

> <Gold.Chemscore.Internal.Correction>
   9.000000E+99

> <Gold.Chemscore.Hbonds>
donor molecule, donor type, donor heavy atom, donor atom, acceptor molecule, acceptor atom, score
      L1  H     5    22       P1  8028  0.87
      L1  H    12    27       P1  7948  0.64
      L1  H    12    28       P1  7957  0.72

> <Gold.Chemscore.Hbond.Weighted>
-7.7047

> <Gold.Chemscore.Metal.Weighted>
-0.0000

> <Gold.Chemscore.Lipo.Weighted>
-10.7563

> <Gold.Chemscore.Internal_Hbond.Weighted>
0.0000

> <Gold.Chemscore.DEClash.Weighted>
0.2210

> <Gold.Chemscore.DEInternal.Weighted>
2.8319

> <Gold.Chemscore.Rot.Weighted>
4.8916

> <Gold.Chemscore.Internal.Correction.Weighted>
   9.000000E+99

> <Gold.Protein.RotatedTorsions>
[ 6907 6896 6895 6894 ] final  102.96 input  -60.11 | X-H torsion
[ 7974 7965 7964 7962 ] final   39.48 input  175.53 | X-H torsion
[ 8008 7997 7996 7995 ] final  -50.16 input   59.86 | X-H torsion
[ 10167 10162 10161 10158 ] final   54.42 input  -65.29 | X-H torsion
[ 10718 10713 10712 10709 ] final   58.52 input   66.30 | X-H torsion
[ 10763 10752 10751 10750 ] final -171.71 input  -60.55 | X-H torsion
[ 11005 11000 10999 10996 ] final  177.36 input  -57.11 | X-H torsion

> <Gold.Protein.ActiveResidues>
 VAL166  LYS551  ARG553  GLY616  TRP617  ASP618  TYR619  PRO620  LYS621  CYS622 
 ASP623  PHE694  ASN695  SER759  ASP760  ASP761  ALA762  ILE779  LEU786  VAL792 
 PHE793  MET794  SER795  GLU796  ALA797  LYS798  CYS799  TRP800  GLU811  SER814 

> <Gold.Protein.RotatedAtoms>
  152.5309  133.9897  159.7844 H   0  0  0  0  0  0  0  0  0  0  0  0  # atno 6907 bound_to 6896
  151.0135  133.5934  159.2687 H   0  0  0  0  0  0  0  0  0  0  0  0  # atno 6908 bound_to 6896
  151.3000  135.0772  159.9288 H   0  0  0  0  0  0  0  0  0  0  0  0  # atno 6909 bound_to 6896
  146.0981  139.5646  142.9432 H   0  0  0  0  0  0  0  0  0  0  0  0  # atno 7974 bound_to 7965
  154.4057  140.1279  156.4621 H   0  0  0  0  0  0  0  0  0  0  0  0  # atno 8008 bound_to 7997
  155.7262  140.3492  155.5019 H   0  0  0  0  0  0  0  0  0  0  0  0  # atno 8009 bound_to 7997
  155.9169  140.1045  157.1227 H   0  0  0  0  0  0  0  0  0  0  0  0  # atno 8010 bound_to 7997
  140.2303  144.3694  150.6417 H   0  0  0  0  0  0  0  0  0  0  0  0  # atno 10167 bound_to 10162
  157.5603  130.8830  149.9100 H   0  0  0  0  0  0  0  0  0  0  0  0  # atno 10718 bound_to 10713
  154.6275  135.2882  155.0255 H   0  0  0  0  0  0  0  0  0  0  0  0  # atno 10763 bound_to 10752
  154.1428  135.6516  153.4950 H   0  0  0  0  0  0  0  0  0  0  0  0  # atno 10764 bound_to 10752
  153.0264  135.5337  154.7089 H   0  0  0  0  0  0  0  0  0  0  0  0  # atno 10765 bound_to 10752
  140.3832  134.6928  157.4463 H   0  0  0  0  0  0  0  0  0  0  0  0  # atno 11005 bound_to 11000
  145.5909  141.0369  143.2070 LP  0  0  0  0  0  0  0  0  0  0  0  0  # atno 17320 bound_to 7965
  144.7411  139.7447  143.7310 LP  0  0  0  0  0  0  0  0  0  0  0  0  # atno 17321 bound_to 7965
  140.6190  143.2174  151.6733 LP  0  0  0  0  0  0  0  0  0  0  0  0  # atno 17342 bound_to 10162
  139.5112  144.3516  152.0647 LP  0  0  0  0  0  0  0  0  0  0  0  0  # atno 17343 bound_to 10162
  156.0656  130.3693  150.0886 LP  0  0  0  0  0  0  0  0  0  0  0  0  # atno 17370 bound_to 10713
  156.9050  130.9633  151.3571 LP  0  0  0  0  0  0  0  0  0  0  0  0  # atno 17371 bound_to 10713
  140.0462  134.6195  155.8918 LP  0  0  0  0  0  0  0  0  0  0  0  0  # atno 17394 bound_to 11000
  141.1916  133.6572  156.5465 LP  0  0  0  0  0  0  0  0  0  0  0  0  # atno 17395 bound_to 11000

$$$$
