AV-unprocessed.smi:3068|AV-procd|sdf|11708|dock5
  -GOLD-   2272017113D 1   1.00000     0.00000
 Structure written by MMmdl.
 39 41  0  0  0  0  0  0  0  0  1 V2000
  150.3041  132.1775  157.7979 N   0  0  0  0  0  0  0  0  0  0  0  0
  149.1971  132.5098  157.7395 C   0  0  0  0  0  0  0  0  0  0  0  0
  147.8028  132.9280  157.6661 C   0  0  0  0  0  0  0  0  0  0  0  0
  147.0057  132.2364  156.8189 N   0  0  0  0  0  0  0  0  0  0  0  0
  145.7116  132.6127  156.7415 C   0  0  0  0  0  0  0  0  0  0  0  0
  145.2071  133.6803  157.5087 C   0  0  0  0  0  0  0  0  0  0  0  0
  145.9951  134.3762  158.3550 N   0  0  0  0  0  0  0  0  0  0  0  0
  147.2978  134.0078  158.4446 C   0  0  0  0  0  0  0  0  0  0  0  0
  148.1334  134.7256  159.3206 N   0  0  0  0  0  0  0  0  0  0  0  0
  147.7104  135.9818  159.9286 C   0  0  0  0  0  0  0  0  0  0  0  0
  147.7676  135.9395  161.4709 C   0  0  2  0  0  0  0  0  0  0  0  0
  146.9560  134.7734  162.0662 C   0  0  0  0  0  0  0  0  0  0  0  0
  145.5159  134.9775  161.9663 N   0  0  0  0  0  0  0  0  0  0  0  0
  144.7841  133.8589  162.5594 C   0  0  0  0  0  0  0  0  0  0  0  0
  143.2612  134.0253  162.4429 C   0  0  0  0  0  0  0  0  0  0  0  0
  142.8209  135.3466  163.0882 C   0  0  0  0  0  0  0  0  0  0  0  0
  143.6273  136.5136  162.4984 C   0  0  0  0  0  0  0  0  0  0  0  0
  145.1441  136.2466  162.5977 C   0  0  2  0  0  0  0  0  0  0  0  0
  145.9363  137.4193  161.9867 C   0  0  0  0  0  0  0  0  0  0  0  0
  147.3377  137.1685  162.0599 O   0  0  0  0  0  0  0  0  0  0  0  0
  145.0763  132.0606  156.0650 H   0  0  0  0  0  0  0  0  0  0  0  0
  144.1707  133.9766  157.4432 H   0  0  0  0  0  0  0  0  0  0  0  0
  148.9540  134.2714  159.6956 H   0  0  0  0  0  0  0  0  0  0  0  0
  148.3415  136.7803  159.5403 H   0  0  0  0  0  0  0  0  0  0  0  0
  146.7000  136.2240  159.5980 H   0  0  0  0  0  0  0  0  0  0  0  0
  148.8066  135.7962  161.7685 H   0  0  0  0  0  0  0  0  0  0  0  0
  147.2355  133.8428  161.5707 H   0  0  0  0  0  0  0  0  0  0  0  0
  147.2319  134.6558  163.1153 H   0  0  0  0  0  0  0  0  0  0  0  0
  145.0776  132.9291  162.0706 H   0  0  0  0  0  0  0  0  0  0  0  0
  145.0573  133.7536  163.6105 H   0  0  0  0  0  0  0  0  0  0  0  0
  142.9706  134.0123  161.3917 H   0  0  0  0  0  0  0  0  0  0  0  0
  142.7530  133.1861  162.9185 H   0  0  0  0  0  0  0  0  0  0  0  0
  141.7532  135.5068  162.9355 H   0  0  0  0  0  0  0  0  0  0  0  0
  142.9803  135.2994  164.1663 H   0  0  0  0  0  0  0  0  0  0  0  0
  143.3454  136.6571  161.4542 H   0  0  0  0  0  0  0  0  0  0  0  0
  143.3717  137.4377  163.0180 H   0  0  0  0  0  0  0  0  0  0  0  0
  145.4028  136.1937  163.6569 H   0  0  0  0  0  0  0  0  0  0  0  0
  145.6393  137.5945  160.9523 H   0  0  0  0  0  0  0  0  0  0  0  0
  145.7243  138.3408  162.5291 H   0  0  0  0  0  0  0  0  0  0  0  0
  1  2  3  0  0  0  0
  2  3  1  0  0  0  0
  3  8  1  0  0  0  0
  3  4  2  0  0  0  0
  4  5  1  0  0  0  0
  5  6  2  0  0  0  0
  5 21  1  0  0  0  0
  6  7  1  0  0  0  0
  6 22  1  0  0  0  0
  7  8  2  0  0  0  0
  8  9  1  0  0  0  0
  9 10  1  0  0  0  0
  9 23  1  0  0  0  0
 10 11  1  0  0  0  0
 10 24  1  0  0  0  0
 10 25  1  0  0  0  0
 11 20  1  0  0  0  0
 11 12  1  0  0  0  0
 11 26  1  0  0  0  0
 12 13  1  0  0  0  0
 12 27  1  0  0  0  0
 12 28  1  0  0  0  0
 13 18  1  0  0  0  0
 13 14  1  0  0  0  0
 14 15  1  0  0  0  0
 14 29  1  0  0  0  0
 14 30  1  0  0  0  0
 15 16  1  0  0  0  0
 15 31  1  0  0  0  0
 15 32  1  0  0  0  0
 16 17  1  0  0  0  0
 16 33  1  0  0  0  0
 16 34  1  0  0  0  0
 17 18  1  0  0  0  0
 17 35  1  0  0  0  0
 17 36  1  0  0  0  0
 18 19  1  0  0  0  0
 18 37  1  0  0  0  0
 19 20  1  0  0  0  0
 19 38  1  0  0  0  0
 19 39  1  0  0  0  0
M  END
> <s_m_source_file>
AV-unprocessed.smi

> <i_m_source_file_index>
3068

> <i_lp_mmshare_version>
43012

> <i_f3d_flags>
0

> <s_epik_input>
TiNDYzFuW2NIXVtjSF1uYzFbTkhdW0NIMl1bQ0BIXShbQ0gyXTIpT1tDSDJdW0NAQEhdKE4yMylbQ0gyXVtDSDJdW0NIMl1bQ0gyXTM=

> <s_epik_cmdline>
J2VwaWtfcHl0aG9uJywgJy1waCcsICc3LjAnLCAnLXRuJywgJzgnLCAnLW1hJywgJzIwMCcsICctbWV0YWxfYmluZGluZycsICctaW1hZScsICc8aW5maWxlLm1hZT4nLCAnLW9tYWUnLCAnPG91dGZpbGUubWFlPic=

> <r_epik_Ionization_Penalty>
1.22359

> <r_epik_Ionization_Penalty_Charging>
0

> <r_epik_Ionization_Penalty_Neutral>
1.22359

> <r_epik_State_Penalty>
1.29103

> <r_epik_Charging_Adjusted_Penalty>
1.29103

> <i_epik_Tot_Q>
0

> <i_epik_Tot_abs_Q>
0

> <r_epik_Metal_State_Penalty>
1.29103

> <b_epik_Metal_Only>
0

> <s_lp_Force_Field>
OPLS_2005

> <r_lp_Energy>
49.2937

> <b_lp_Chiralities_Consistent>
1

> <s_lp_Variant>
AV-unprocessed.smi:3068-11

> <Gold.Version>
5.8.1

> <Gold.Id.Protein>
6NUR|6NUR_protein|mol2

> <Gold.PLP.Fitness>
34.3713

> <Gold.PLP.PLP>
-27.3300

> <Gold.PLP.part.hbond>
-3.0000

> <Gold.PLP.part.metal>
0.0000

> <Gold.PLP.part.buried>
-4.2714

> <Gold.PLP.part.nonpolar>
-20.1411

> <Gold.PLP.part.repulsive>
0.0890

> <Gold.PLP.ligand.clash>
0.0000

> <Gold.PLP.ligand.torsion>
0.0419

> <Gold.PLP.Chemscore.Hbond>
1.8640

> <Gold.PLP.Chemscore.CHOScore>
0.5095

> <Gold.PLP.Chemscore.Metal>
0.0000

> <Gold.Chemscore.Hbonds>
donor molecule, donor type, donor heavy atom, donor atom, acceptor molecule, acceptor atom, score
      P1  H  6896  6908       L1     1  0.86
      P1  H  6931  6943       L1    20  0.88
      L1  C     5    21       P1 10957  0.57

> <Gold.PLP.Chemscore.Internal.Correction>
0.0048

> <Gold.Rescore>
     Score         DG    S(hbond)    S(metal)    S(lipo)     H(rot)  DE(clash)    DE(int)     intcor
     12.54     -12.63       0.90        0.00      63.85       1.30       0.04       0.05       ----

> <Gold.Chemscore.Fitness>
12.5435

> <Gold.Chemscore.DG>
-12.6340

> <Gold.Chemscore.ZeroCoef>
-5.4800

> <Gold.Chemscore.Hbond>
0.9032

> <Gold.Chemscore.Metal>
0.0000

> <Gold.Chemscore.Lipo>
63.8451

> <Gold.Chemscore.Internal_Hbond>
0.0000

> <Gold.Chemscore.DEClash>
0.0389

> <Gold.Chemscore.DEInternal>
0.0516

> <Gold.Chemscore.Rot>
1.3019

> <Gold.Chemscore.Internal.Correction>
   9.000000E+99

> <Gold.Chemscore.Hbonds>
donor molecule, donor type, donor heavy atom, donor atom, acceptor molecule, acceptor atom, score
      P1  H  6896  6908       L1     1  0.21
      P1  H  6931  6943       L1    20  0.25

> <Gold.Chemscore.Hbond.Weighted>
-3.0169

> <Gold.Chemscore.Metal.Weighted>
-0.0000

> <Gold.Chemscore.Lipo.Weighted>
-7.4699

> <Gold.Chemscore.Internal_Hbond.Weighted>
0.0000

> <Gold.Chemscore.DEClash.Weighted>
0.0389

> <Gold.Chemscore.DEInternal.Weighted>
0.0516

> <Gold.Chemscore.Rot.Weighted>
3.3327

> <Gold.Chemscore.Internal.Correction.Weighted>
   9.000000E+99

> <Gold.Protein.RotatedTorsions>
[ 6907 6896 6895 6894 ] final  101.16 input  -60.11 | X-H torsion
[ 7974 7965 7964 7962 ] final   43.62 input  175.53 | X-H torsion
[ 8008 7997 7996 7995 ] final  -75.98 input   59.86 | X-H torsion
[ 10167 10162 10161 10158 ] final    7.72 input  -65.29 | X-H torsion
[ 10718 10713 10712 10709 ] final -175.45 input   66.30 | X-H torsion
[ 10763 10752 10751 10750 ] final  -57.15 input  -60.55 | X-H torsion
[ 11005 11000 10999 10996 ] final  -77.09 input  -57.11 | X-H torsion

> <Gold.Protein.ActiveResidues>
 VAL166  LYS551  ARG553  GLY616  TRP617  ASP618  TYR619  PRO620  LYS621  CYS622 
 ASP623  PHE694  ASN695  SER759  ASP760  ASP761  ALA762  ILE779  LEU786  VAL792 
 PHE793  MET794  SER795  GLU796  ALA797  LYS798  CYS799  TRP800  GLU811  SER814 

> <Gold.Protein.RotatedAtoms>
  152.5356  134.0167  159.7962 H   0  0  0  0  0  0  0  0  0  0  0  0  # atno 6907 bound_to 6896
  151.0360  133.5740  159.2663 H   0  0  0  0  0  0  0  0  0  0  0  0  # atno 6908 bound_to 6896
  151.2727  135.0697  159.9193 H   0  0  0  0  0  0  0  0  0  0  0  0  # atno 6909 bound_to 6896
  146.0640  139.5166  142.9640 H   0  0  0  0  0  0  0  0  0  0  0  0  # atno 7974 bound_to 7965
  154.5464  140.0735  156.8596 H   0  0  0  0  0  0  0  0  0  0  0  0  # atno 8008 bound_to 7997
  155.3079  140.3388  155.4227 H   0  0  0  0  0  0  0  0  0  0  0  0  # atno 8009 bound_to 7997
  156.1922  140.1690  156.8056 H   0  0  0  0  0  0  0  0  0  0  0  0  # atno 8010 bound_to 7997
  140.6356  143.7895  150.7354 H   0  0  0  0  0  0  0  0  0  0  0  0  # atno 10167 bound_to 10162
  156.8001  130.9549  151.3119 H   0  0  0  0  0  0  0  0  0  0  0  0  # atno 10718 bound_to 10713
  154.2179  135.6383  153.5135 H   0  0  0  0  0  0  0  0  0  0  0  0  # atno 10763 bound_to 10752
  152.9975  135.5490  154.6145 H   0  0  0  0  0  0  0  0  0  0  0  0  # atno 10764 bound_to 10752
  154.5598  135.2908  155.0904 H   0  0  0  0  0  0  0  0  0  0  0  0  # atno 10765 bound_to 10752
  141.1658  133.7009  156.7768 H   0  0  0  0  0  0  0  0  0  0  0  0  # atno 11005 bound_to 11000
  145.6510  141.0263  143.1760 LP  0  0  0  0  0  0  0  0  0  0  0  0  # atno 17320 bound_to 7965
  144.7191  139.8091  143.7388 LP  0  0  0  0  0  0  0  0  0  0  0  0  # atno 17321 bound_to 7965
  140.1515  143.4353  152.2128 LP  0  0  0  0  0  0  0  0  0  0  0  0  # atno 17342 bound_to 10162
  139.5566  144.7377  151.4275 LP  0  0  0  0  0  0  0  0  0  0  0  0  # atno 17343 bound_to 10162
  157.6558  130.8923  149.9726 LP  0  0  0  0  0  0  0  0  0  0  0  0  # atno 17370 bound_to 10713
  156.1106  130.3650  150.0055 LP  0  0  0  0  0  0  0  0  0  0  0  0  # atno 17371 bound_to 10713
  140.2424  134.8603  157.3586 LP  0  0  0  0  0  0  0  0  0  0  0  0  # atno 17394 bound_to 11000
  140.1783  134.4522  155.7788 LP  0  0  0  0  0  0  0  0  0  0  0  0  # atno 17395 bound_to 11000

$$$$
