AV-unprocessed.smi:3247|AV-procd|sdf|12412|dock3
  -GOLD-   2272018293D 1   1.00000     0.00000
 Structure written by MMmdl.
 35 36  0  0  0  0  0  0  0  0  1 V2000
  150.6992  140.7539  157.9007 O   0  0  0  0  0  0  0  0  0  0  0  0
  150.3929  141.8313  157.3903 C   0  0  0  0  0  0  0  0  0  0  0  0
  151.4749  142.8539  157.0519 C   0  0  0  0  0  0  0  0  0  0  0  0
  151.4608  143.8773  158.0367 O   0  0  0  0  0  0  0  0  0  0  0  0
  151.5810  143.3935  159.3664 C   0  0  0  0  0  0  0  0  0  0  0  0
  151.4981  144.5479  160.3630 C   0  0  0  0  0  0  0  0  0  0  0  0
  152.1506  144.0046  161.6377 C   0  0  0  0  0  0  0  0  0  0  0  0
  153.1287  142.9094  161.1828 C   0  0  0  0  0  0  0  0  0  0  0  0
  152.9482  142.7706  159.6658 C   0  0  0  0  0  0  0  0  0  0  0  0
  149.1290  142.1863  157.1129 N   0  0  0  0  0  0  0  0  0  0  0  0
  147.9503  141.3640  157.3603 C   0  0  0  0  0  0  0  0  0  0  0  0
  146.7334  142.2161  157.7584 C   0  0  0  0  0  0  0  0  0  0  0  0
  146.7854  142.6408  159.1948 C   0  0  0  0  0  0  0  0  0  0  0  0
  147.4067  143.7575  159.7006 C   0  0  0  0  0  0  0  0  0  0  0  0
  147.2327  143.8767  161.4316 S   0  0  0  0  0  0  0  0  0  0  0  0
  146.3119  142.3825  161.3936 C   0  0  0  0  0  0  0  0  0  0  0  0
  146.1636  141.8602  160.1757 N   0  0  0  0  0  0  0  0  0  0  0  0
  152.4446  142.3543  157.0301 H   0  0  0  0  0  0  0  0  0  0  0  0
  151.2892  143.2670  156.0595 H   0  0  0  0  0  0  0  0  0  0  0  0
  150.7864  142.6785  159.5882 H   0  0  0  0  0  0  0  0  0  0  0  0
  152.0772  145.3954  159.9931 H   0  0  0  0  0  0  0  0  0  0  0  0
  150.4762  144.8911  160.5256 H   0  0  0  0  0  0  0  0  0  0  0  0
  152.6493  144.7931  162.2022 H   0  0  0  0  0  0  0  0  0  0  0  0
  151.3902  143.5694  162.2872 H   0  0  0  0  0  0  0  0  0  0  0  0
  154.1604  143.1601  161.4318 H   0  0  0  0  0  0  0  0  0  0  0  0
  152.8920  141.9694  161.6830 H   0  0  0  0  0  0  0  0  0  0  0  0
  153.0219  141.7353  159.3316 H   0  0  0  0  0  0  0  0  0  0  0  0
  153.7282  143.3382  159.1563 H   0  0  0  0  0  0  0  0  0  0  0  0
  148.9750  143.0909  156.6911 H   0  0  0  0  0  0  0  0  0  0  0  0
  147.7328  140.8087  156.4475 H   0  0  0  0  0  0  0  0  0  0  0  0
  148.1667  140.6226  158.1314 H   0  0  0  0  0  0  0  0  0  0  0  0
  146.6756  143.0965  157.1174 H   0  0  0  0  0  0  0  0  0  0  0  0
  145.8180  141.6527  157.5723 H   0  0  0  0  0  0  0  0  0  0  0  0
  147.9564  144.5144  159.1606 H   0  0  0  0  0  0  0  0  0  0  0  0
  145.8858  141.8948  162.2580 H   0  0  0  0  0  0  0  0  0  0  0  0
  1  2  2  0  0  0  0
  2  3  1  0  0  0  0
  2 10  1  0  0  0  0
  3  4  1  0  0  0  0
  3 18  1  0  0  0  0
  3 19  1  0  0  0  0
  4  5  1  0  0  0  0
  5  9  1  0  0  0  0
  5  6  1  0  0  0  0
  5 20  1  0  0  0  0
  6  7  1  0  0  0  0
  6 21  1  0  0  0  0
  6 22  1  0  0  0  0
  7  8  1  0  0  0  0
  7 23  1  0  0  0  0
  7 24  1  0  0  0  0
  8  9  1  0  0  0  0
  8 25  1  0  0  0  0
  8 26  1  0  0  0  0
  9 27  1  0  0  0  0
  9 28  1  0  0  0  0
 10 11  1  0  0  0  0
 10 29  1  0  0  0  0
 11 12  1  0  0  0  0
 11 30  1  0  0  0  0
 11 31  1  0  0  0  0
 12 13  1  0  0  0  0
 12 32  1  0  0  0  0
 12 33  1  0  0  0  0
 13 17  1  0  0  0  0
 13 14  2  0  0  0  0
 14 15  1  0  0  0  0
 14 34  1  0  0  0  0
 15 16  1  0  0  0  0
 16 17  2  0  0  0  0
 16 35  1  0  0  0  0
M  END
> <s_m_source_file>
AV-unprocessed.smi

> <i_m_source_file_index>
3247

> <i_lp_mmshare_version>
43012

> <i_f3d_flags>
0

> <s_epik_input>
W0NIMl0xW0NIMl1bQ0gyXVtDSDJdW0NIXTFPW0NIMl1DKD1PKVtOSF1bQ0gyXVtDSDJdYzJbY0hdc1tjSF1uMg==

> <s_epik_cmdline>
J2VwaWtfcHl0aG9uJywgJy1waCcsICc3LjAnLCAnLXRuJywgJzgnLCAnLW1hJywgJzIwMCcsICctbWV0YWxfYmluZGluZycsICctaW1hZScsICc8aW5maWxlLm1hZT4nLCAnLW9tYWUnLCAnPG91dGZpbGUubWFlPic=

> <r_lp_tautomer_probability>
1

> <r_epik_Ionization_Penalty>
0.00018119

> <r_epik_Ionization_Penalty_Charging>
0

> <r_epik_Ionization_Penalty_Neutral>
0.00018119

> <r_epik_State_Penalty>
-0

> <r_epik_Charging_Adjusted_Penalty>
0

> <i_epik_Tot_Q>
0

> <i_epik_Tot_abs_Q>
0

> <r_epik_Metal_State_Penalty>
-0

> <b_epik_Metal_Only>
0

> <s_lp_Force_Field>
OPLS_2005

> <r_lp_Energy>
17.1434

> <b_lp_Chiralities_Consistent>
1

> <s_lp_Variant>
AV-unprocessed.smi:3247-1

> <Gold.Version>
5.8.1

> <Gold.Id.Protein>
6NUR|6NUR_protein|mol2

> <Gold.PLP.Fitness>
44.0061

> <Gold.PLP.PLP>
-36.6332

> <Gold.PLP.part.hbond>
-2.0000

> <Gold.PLP.part.metal>
0.0000

> <Gold.PLP.part.buried>
-5.6606

> <Gold.PLP.part.nonpolar>
-28.5766

> <Gold.PLP.part.repulsive>
0.1679

> <Gold.PLP.ligand.clash>
0.0000

> <Gold.PLP.ligand.torsion>
0.8702

> <Gold.PLP.Chemscore.Hbond>
2.0000

> <Gold.PLP.Chemscore.CHOScore>
1.0000

> <Gold.PLP.Chemscore.Metal>
0.0000

> <Gold.Chemscore.Hbonds>
donor molecule, donor type, donor heavy atom, donor atom, acceptor molecule, acceptor atom, score
      L1  H    10    29       P1  8028  1.00
      P1  H  6934  6946       L1    17  0.06
      L1  C    14    34       P1  8029  1.00

> <Gold.PLP.Chemscore.Internal.Correction>
0.1134

> <Gold.Rescore>
     Score         DG    S(hbond)    S(metal)    S(lipo)     H(rot)  DE(clash)    DE(int)     intcor
     13.50     -14.30       0.94        0.00      87.60       1.78       0.05       0.74       ----

> <Gold.Chemscore.Fitness>
13.5044

> <Gold.Chemscore.DG>
-14.2973

> <Gold.Chemscore.ZeroCoef>
-5.4800

> <Gold.Chemscore.Hbond>
0.9375

> <Gold.Chemscore.Metal>
0.0000

> <Gold.Chemscore.Lipo>
87.5962

> <Gold.Chemscore.Internal_Hbond>
0.0000

> <Gold.Chemscore.DEClash>
0.0536

> <Gold.Chemscore.DEInternal>
0.7393

> <Gold.Chemscore.Rot>
1.7824

> <Gold.Chemscore.Internal.Correction>
   9.000000E+99

> <Gold.Chemscore.Hbonds>
donor molecule, donor type, donor heavy atom, donor atom, acceptor molecule, acceptor atom, score
      L1  H    10    29       P1  8028  0.95

> <Gold.Chemscore.Hbond.Weighted>
-3.1314

> <Gold.Chemscore.Metal.Weighted>
-0.0000

> <Gold.Chemscore.Lipo.Weighted>
-10.2488

> <Gold.Chemscore.Internal_Hbond.Weighted>
0.0000

> <Gold.Chemscore.DEClash.Weighted>
0.0536

> <Gold.Chemscore.DEInternal.Weighted>
0.7393

> <Gold.Chemscore.Rot.Weighted>
4.5629

> <Gold.Chemscore.Internal.Correction.Weighted>
   9.000000E+99

> <Gold.Protein.RotatedTorsions>
[ 6907 6896 6895 6894 ] final  137.46 input  -60.11 | X-H torsion
[ 7974 7965 7964 7962 ] final  153.13 input  175.53 | X-H torsion
[ 8008 7997 7996 7995 ] final  -43.08 input   59.86 | X-H torsion
[ 10167 10162 10161 10158 ] final -157.41 input  -65.29 | X-H torsion
[ 10718 10713 10712 10709 ] final  171.96 input   66.30 | X-H torsion
[ 10763 10752 10751 10750 ] final  161.55 input  -60.55 | X-H torsion
[ 11005 11000 10999 10996 ] final  -77.59 input  -57.11 | X-H torsion

> <Gold.Protein.ActiveResidues>
 VAL166  LYS551  ARG553  GLY616  TRP617  ASP618  TYR619  PRO620  LYS621  CYS622 
 ASP623  PHE694  ASN695  SER759  ASP760  ASP761  ALA762  ILE779  LEU786  VAL792 
 PHE793  MET794  SER795  GLU796  ALA797  LYS798  CYS799  TRP800  GLU811  SER814 

> <Gold.Protein.RotatedAtoms>
  152.2778  133.5442  159.5478 H   0  0  0  0  0  0  0  0  0  0  0  0  # atno 6907 bound_to 6896
  150.7184  134.0607  159.3839 H   0  0  0  0  0  0  0  0  0  0  0  0  # atno 6908 bound_to 6896
  151.8519  135.0555  160.0510 H   0  0  0  0  0  0  0  0  0  0  0  0  # atno 6909 bound_to 6896
  144.8175  139.6760  143.6115 H   0  0  0  0  0  0  0  0  0  0  0  0  # atno 7974 bound_to 7965
  154.3997  140.1457  156.3461 H   0  0  0  0  0  0  0  0  0  0  0  0  # atno 8008 bound_to 7997
  155.8312  140.3466  155.5552 H   0  0  0  0  0  0  0  0  0  0  0  0  # atno 8009 bound_to 7997
  155.8186  140.0894  157.1853 H   0  0  0  0  0  0  0  0  0  0  0  0  # atno 8010 bound_to 7997
  139.6773  143.9642  152.2317 H   0  0  0  0  0  0  0  0  0  0  0  0  # atno 10167 bound_to 10162
  156.9859  131.0133  151.2869 H   0  0  0  0  0  0  0  0  0  0  0  0  # atno 10718 bound_to 10713
  154.2647  135.2767  155.2763 H   0  0  0  0  0  0  0  0  0  0  0  0  # atno 10763 bound_to 10752
  154.5354  135.5718  153.6797 H   0  0  0  0  0  0  0  0  0  0  0  0  # atno 10764 bound_to 10752
  152.9956  135.6238  154.2798 H   0  0  0  0  0  0  0  0  0  0  0  0  # atno 10765 bound_to 10752
  141.1661  133.7028  156.7843 H   0  0  0  0  0  0  0  0  0  0  0  0  # atno 11005 bound_to 11000
  146.2479  139.6137  142.9447 LP  0  0  0  0  0  0  0  0  0  0  0  0  # atno 17320 bound_to 7965
  145.5180  141.0433  143.2451 LP  0  0  0  0  0  0  0  0  0  0  0  0  # atno 17321 bound_to 7965
  139.9423  144.6674  150.8254 LP  0  0  0  0  0  0  0  0  0  0  0  0  # atno 17342 bound_to 10162
  140.7640  143.3237  151.2565 LP  0  0  0  0  0  0  0  0  0  0  0  0  # atno 17343 bound_to 10162
  157.5493  130.8172  149.8125 LP  0  0  0  0  0  0  0  0  0  0  0  0  # atno 17370 bound_to 10713
  156.0226  130.3790  150.1917 LP  0  0  0  0  0  0  0  0  0  0  0  0  # atno 17371 bound_to 10713
  140.2372  134.8641  157.3536 LP  0  0  0  0  0  0  0  0  0  0  0  0  # atno 17394 bound_to 11000
  140.1832  134.4463  155.7759 LP  0  0  0  0  0  0  0  0  0  0  0  0  # atno 17395 bound_to 11000

$$$$
