AV-unprocessed.smi:2912|AV-procd|sdf|11181|dock7
  -GOLD-   2272016 73D 1   1.00000     0.00000
 Structure written by MMmdl.
 31 32  0  0  0  0  0  0  0  0  1 V2000
  148.3374  126.9712  150.9377 C   0  0  0  0  0  0  0  0  0  0  0  0
  147.9244  128.0071  151.8595 N   0  0  0  0  0  0  0  0  0  0  0  0
  148.7092  128.8793  152.5816 C   0  0  0  0  0  0  0  0  0  0  0  0
  147.8723  129.6839  153.3028 C   0  0  0  0  0  0  0  0  0  0  0  0
  148.2254  130.8266  154.2198 C   0  0  0  0  0  0  0  0  0  0  0  0
  148.9139  131.9966  153.4886 C   0  0  0  0  0  0  0  0  0  0  0  0
  148.2046  132.3669  152.2658 N   0  0  0  0  0  0  0  0  0  0  0  0
  147.2436  133.3020  152.1738 C   0  0  0  0  0  0  0  0  0  0  0  0
  146.9462  134.0458  153.1098 O   0  0  0  0  0  0  0  0  0  0  0  0
  146.4986  133.3891  150.8315 C   0  0  0  0  0  0  0  0  0  0  0  0
  145.2173  134.6675  150.8233 S   0  0  0  0  0  0  0  0  0  0  0  0
  143.9615  133.5103  151.4191 C   0  0  0  0  0  0  0  0  0  0  0  0
  144.0705  132.2157  150.6033 C   0  0  0  0  0  0  0  0  0  0  0  0
  145.8168  131.7780  150.3450 S   0  0  0  0  0  0  0  0  0  0  0  0
  146.5761  129.2065  152.9555 C   0  0  0  0  0  0  0  0  0  0  0  0
  146.6108  128.2062  152.0901 N   0  0  0  0  0  0  0  0  0  0  0  0
  149.4254  126.9069  150.9107 H   0  0  0  0  0  0  0  0  0  0  0  0
  147.9708  127.2013  149.9369 H   0  0  0  0  0  0  0  0  0  0  0  0
  147.9328  126.0100  151.2557 H   0  0  0  0  0  0  0  0  0  0  0  0
  149.7869  128.8665  152.5124 H   0  0  0  0  0  0  0  0  0  0  0  0
  147.3337  131.2014  154.7231 H   0  0  0  0  0  0  0  0  0  0  0  0
  148.8833  130.4787  155.0170 H   0  0  0  0  0  0  0  0  0  0  0  0
  148.9999  132.8526  154.1597 H   0  0  0  0  0  0  0  0  0  0  0  0
  149.9342  131.7167  153.2257 H   0  0  0  0  0  0  0  0  0  0  0  0
  148.3934  131.8080  151.4461 H   0  0  0  0  0  0  0  0  0  0  0  0
  147.2396  133.6730  150.0841 H   0  0  0  0  0  0  0  0  0  0  0  0
  144.1523  133.3055  152.4731 H   0  0  0  0  0  0  0  0  0  0  0  0
  142.9673  133.9507  151.3456 H   0  0  0  0  0  0  0  0  0  0  0  0
  143.5407  131.3929  151.0828 H   0  0  0  0  0  0  0  0  0  0  0  0
  143.6168  132.3649  149.6234 H   0  0  0  0  0  0  0  0  0  0  0  0
  145.6158  129.5666  153.2938 H   0  0  0  0  0  0  0  0  0  0  0  0
  1  2  1  0  0  0  0
  1 17  1  0  0  0  0
  1 18  1  0  0  0  0
  1 19  1  0  0  0  0
  2 16  1  0  0  0  0
  2  3  1  0  0  0  0
  3  4  2  0  0  0  0
  3 20  1  0  0  0  0
  4  5  1  0  0  0  0
  4 15  1  0  0  0  0
  5  6  1  0  0  0  0
  5 21  1  0  0  0  0
  5 22  1  0  0  0  0
  6  7  1  0  0  0  0
  6 23  1  0  0  0  0
  6 24  1  0  0  0  0
  7  8  1  0  0  0  0
  7 25  1  0  0  0  0
  8  9  2  0  0  0  0
  8 10  1  0  0  0  0
 10 14  1  0  0  0  0
 10 11  1  0  0  0  0
 10 26  1  0  0  0  0
 11 12  1  0  0  0  0
 12 13  1  0  0  0  0
 12 27  1  0  0  0  0
 12 28  1  0  0  0  0
 13 14  1  0  0  0  0
 13 29  1  0  0  0  0
 13 30  1  0  0  0  0
 15 16  2  0  0  0  0
 15 31  1  0  0  0  0
M  END
> <s_m_source_file>
AV-unprocessed.smi

> <i_m_source_file_index>
2912

> <i_lp_mmshare_version>
43012

> <i_f3d_flags>
0

> <s_epik_input>
W0NIM11uMVtjSF1jKFtjSF1uMSlbQ0gyXVtDSDJdW05IXUMoPU8pW0NIXTJTW0NIMl1bQ0gyXVMy

> <s_epik_cmdline>
J2VwaWtfcHl0aG9uJywgJy1waCcsICc3LjAnLCAnLXRuJywgJzgnLCAnLW1hJywgJzIwMCcsICctbWV0YWxfYmluZGluZycsICctaW1hZScsICc8aW5maWxlLm1hZT4nLCAnLW9tYWUnLCAnPG91dGZpbGUubWFlPic=

> <r_lp_tautomer_probability>
1

> <r_epik_Ionization_Penalty>
0.000416309

> <r_epik_Ionization_Penalty_Charging>
0

> <r_epik_Ionization_Penalty_Neutral>
0.000416309

> <r_epik_State_Penalty>
-0

> <r_epik_Charging_Adjusted_Penalty>
0

> <i_epik_Tot_Q>
0

> <i_epik_Tot_abs_Q>
0

> <r_epik_Metal_State_Penalty>
-0

> <b_epik_Metal_Only>
0

> <s_epik_Chemistry_Notes>
This compound contains an acetal/aminal-like group ( X-CH(R)-Y where X, Y are N, S, or O) that may be acid/base labile, releasing an aldehyde.

> <s_lp_Force_Field>
OPLS_2005

> <r_lp_Energy>
6.65343

> <b_lp_Chiralities_Consistent>
1

> <s_lp_Variant>
AV-unprocessed.smi:2912-1

> <Gold.Version>
5.8.1

> <Gold.Id.Protein>
6NUR|6NUR_protein|mol2

> <Gold.PLP.Fitness>
41.5361

> <Gold.PLP.PLP>
-35.3947

> <Gold.PLP.part.hbond>
-1.0000

> <Gold.PLP.part.metal>
0.0000

> <Gold.PLP.part.buried>
-4.9922

> <Gold.PLP.part.nonpolar>
-29.7048

> <Gold.PLP.part.repulsive>
0.2063

> <Gold.PLP.ligand.clash>
0.0000

> <Gold.PLP.ligand.torsion>
0.2780

> <Gold.PLP.Chemscore.Hbond>
1.0000

> <Gold.PLP.Chemscore.CHOScore>
1.2189

> <Gold.PLP.Chemscore.Metal>
0.0000

> <Gold.Chemscore.Hbonds>
donor molecule, donor type, donor heavy atom, donor atom, acceptor molecule, acceptor atom, score
      L1  H     7    25       P1 10747  1.00
      L1  C     3    20       P1 10737  0.73
      L1  C    15    31       P1 10956  0.42

> <Gold.PLP.Chemscore.Internal.Correction>
0.0409

> <Gold.Rescore>
     Score         DG    S(hbond)    S(metal)    S(lipo)     H(rot)  DE(clash)    DE(int)     intcor
     14.26     -14.54       1.00        0.00      82.69       1.54       0.04       0.24       ----

> <Gold.Chemscore.Fitness>
14.2620

> <Gold.Chemscore.DG>
-14.5429

> <Gold.Chemscore.ZeroCoef>
-5.4800

> <Gold.Chemscore.Hbond>
0.9999

> <Gold.Chemscore.Metal>
0.0000

> <Gold.Chemscore.Lipo>
82.6857

> <Gold.Chemscore.Internal_Hbond>
0.0000

> <Gold.Chemscore.DEClash>
0.0412

> <Gold.Chemscore.DEInternal>
0.2398

> <Gold.Chemscore.Rot>
1.5434

> <Gold.Chemscore.Internal.Correction>
   9.000000E+99

> <Gold.Chemscore.Hbonds>
donor molecule, donor type, donor heavy atom, donor atom, acceptor molecule, acceptor atom, score
      L1  H     7    25       P1 10747  0.99

> <Gold.Chemscore.Hbond.Weighted>
-3.3398

> <Gold.Chemscore.Metal.Weighted>
-0.0000

> <Gold.Chemscore.Lipo.Weighted>
-9.6742

> <Gold.Chemscore.Internal_Hbond.Weighted>
0.0000

> <Gold.Chemscore.DEClash.Weighted>
0.0412

> <Gold.Chemscore.DEInternal.Weighted>
0.2398

> <Gold.Chemscore.Rot.Weighted>
3.9511

> <Gold.Chemscore.Internal.Correction.Weighted>
   9.000000E+99

> <Gold.Protein.RotatedTorsions>
[ 6907 6896 6895 6894 ] final   44.25 input  -60.11 | X-H torsion
[ 7974 7965 7964 7962 ] final -111.53 input  175.53 | X-H torsion
[ 8008 7997 7996 7995 ] final  -31.91 input   59.86 | X-H torsion
[ 10167 10162 10161 10158 ] final  -98.81 input  -65.29 | X-H torsion
[ 10718 10713 10712 10709 ] final   29.04 input   66.30 | X-H torsion
[ 10763 10752 10751 10750 ] final -140.85 input  -60.55 | X-H torsion
[ 11005 11000 10999 10996 ] final  -69.66 input  -57.11 | X-H torsion

> <Gold.Protein.ActiveResidues>
 VAL166  LYS551  ARG553  GLY616  TRP617  ASP618  TYR619  PRO620  LYS621  CYS622 
 ASP623  PHE694  ASN695  SER759  ASP760  ASP761  ALA762  ILE779  LEU786  VAL792 
 PHE793  MET794  SER795  GLU796  ALA797  LYS798  CYS799  TRP800  GLU811  SER814 

> <Gold.Protein.RotatedAtoms>
  152.2302  134.8329  160.0474 H   0  0  0  0  0  0  0  0  0  0  0  0  # atno 6907 bound_to 6896
  151.9081  133.3549  159.3862 H   0  0  0  0  0  0  0  0  0  0  0  0  # atno 6908 bound_to 6896
  150.7023  134.4685  159.5458 H   0  0  0  0  0  0  0  0  0  0  0  0  # atno 6909 bound_to 6896
  145.1549  140.8848  143.3624 H   0  0  0  0  0  0  0  0  0  0  0  0  # atno 7974 bound_to 7965
  154.4197  140.1751  156.1642 H   0  0  0  0  0  0  0  0  0  0  0  0  # atno 8008 bound_to 7997
  155.9813  140.3377  155.6641 H   0  0  0  0  0  0  0  0  0  0  0  0  # atno 8009 bound_to 7997
  155.6496  140.0689  157.2582 H   0  0  0  0  0  0  0  0  0  0  0  0  # atno 8010 bound_to 7997
  140.2691  143.3356  152.0552 H   0  0  0  0  0  0  0  0  0  0  0  0  # atno 10167 bound_to 10162
  157.2414  130.7071  149.6360 H   0  0  0  0  0  0  0  0  0  0  0  0  # atno 10718 bound_to 10713
  154.8565  135.3541  154.5773 H   0  0  0  0  0  0  0  0  0  0  0  0  # atno 10763 bound_to 10752
  153.6384  135.6999  153.5255 H   0  0  0  0  0  0  0  0  0  0  0  0  # atno 10764 bound_to 10752
  153.2991  135.4212  155.1195 H   0  0  0  0  0  0  0  0  0  0  0  0  # atno 10765 bound_to 10752
  141.1558  133.6770  156.6633 H   0  0  0  0  0  0  0  0  0  0  0  0  # atno 11005 bound_to 11000
  145.0391  139.3275  143.5985 LP  0  0  0  0  0  0  0  0  0  0  0  0  # atno 17320 bound_to 7965
  146.3490  139.9758  142.8701 LP  0  0  0  0  0  0  0  0  0  0  0  0  # atno 17321 bound_to 7965
  139.4994  144.6668  151.6336 LP  0  0  0  0  0  0  0  0  0  0  0  0  # atno 17342 bound_to 10162
  140.5904  143.9789  150.6321 LP  0  0  0  0  0  0  0  0  0  0  0  0  # atno 17343 bound_to 10162
  155.9670  130.4457  150.5511 LP  0  0  0  0  0  0  0  0  0  0  0  0  # atno 17370 bound_to 10713
  157.3375  131.0711  151.1813 LP  0  0  0  0  0  0  0  0  0  0  0  0  # atno 17371 bound_to 10713
  140.3230  134.7992  157.4267 LP  0  0  0  0  0  0  0  0  0  0  0  0  # atno 17394 bound_to 11000
  140.1080  134.5383  155.8291 LP  0  0  0  0  0  0  0  0  0  0  0  0  # atno 17395 bound_to 11000

$$$$
