AV-unprocessed.smi:1412|AV-procd|sdf|5740|dock1
  -GOLD-   22720 5373D 1   1.00000     0.00000
 Structure written by MMmdl.
 41 42  0  0  0  0  0  0  0  0  1 V2000
  149.4822  141.7369  155.0339 C   0  0  0  0  0  0  0  0  0  0  0  0
  148.4571  140.8036  155.7067 C   0  0  0  0  0  0  0  0  0  0  0  0
  148.3115  139.3491  155.1428 C   0  0  1  0  0  0  0  0  0  0  0  0
  147.1721  138.6394  155.9179 C   0  0  0  0  0  0  0  0  0  0  0  0
  147.8655  139.4430  153.6517 C   0  0  0  0  0  0  0  0  0  0  0  0
  147.5993  138.1254  153.0795 N   0  0  0  0  0  0  0  0  0  0  0  0
  146.4045  137.5215  153.0464 C   0  0  0  0  0  0  0  0  0  0  0  0
  145.3832  138.0068  153.5328 O   0  0  0  0  0  0  0  0  0  0  0  0
  146.4790  136.3377  152.4170 N   0  0  0  0  0  0  0  0  0  0  0  0
  145.4276  135.4264  152.1467 C   0  0  0  0  0  0  0  0  0  0  0  0
  145.7513  134.1580  151.8690 N   0  0  0  0  0  0  0  0  0  0  0  0
  144.6293  133.3767  151.6204 N   0  0  0  0  0  0  0  0  0  0  0  0
  143.5021  134.0878  151.7194 C   0  0  0  0  0  0  0  0  0  0  0  0
  143.6979  135.7831  152.1274 S   0  0  0  0  0  0  0  0  0  0  0  0
  149.6137  138.6225  155.2637 N   0  0  0  0  0  0  0  0  0  0  0  0
  149.5193  137.1582  155.1871 C   0  0  0  0  0  0  0  0  0  0  0  0
  150.8715  136.4708  155.4433 C   0  0  0  0  0  0  0  0  0  0  0  0
  151.8391  136.9546  154.5214 O   0  0  0  0  0  0  0  0  0  0  0  0
  152.0112  138.3626  154.6119 C   0  0  0  0  0  0  0  0  0  0  0  0
  150.6704  139.0667  154.3435 C   0  0  0  0  0  0  0  0  0  0  0  0
  149.4148  142.7376  155.4606 H   0  0  0  0  0  0  0  0  0  0  0  0
  149.3105  141.8329  153.9626 H   0  0  0  0  0  0  0  0  0  0  0  0
  150.5075  141.4017  155.1882 H   0  0  0  0  0  0  0  0  0  0  0  0
  148.6963  140.7575  156.7702 H   0  0  0  0  0  0  0  0  0  0  0  0
  147.4986  141.3179  155.6427 H   0  0  0  0  0  0  0  0  0  0  0  0
  146.2184  139.1498  155.7869 H   0  0  0  0  0  0  0  0  0  0  0  0
  147.3642  138.6034  156.9899 H   0  0  0  0  0  0  0  0  0  0  0  0
  147.0170  137.6168  155.5756 H   0  0  0  0  0  0  0  0  0  0  0  0
  146.9750  140.0593  153.5347 H   0  0  0  0  0  0  0  0  0  0  0  0
  148.6183  139.9692  153.0641 H   0  0  0  0  0  0  0  0  0  0  0  0
  148.3860  137.6523  152.6588 H   0  0  0  0  0  0  0  0  0  0  0  0
  147.3889  136.0629  152.0776 H   0  0  0  0  0  0  0  0  0  0  0  0
  142.5484  133.6101  151.5507 H   0  0  0  0  0  0  0  0  0  0  0  0
  148.8188  136.7699  155.9232 H   0  0  0  0  0  0  0  0  0  0  0  0
  149.1519  136.8551  154.2068 H   0  0  0  0  0  0  0  0  0  0  0  0
  151.2087  136.6516  156.4651 H   0  0  0  0  0  0  0  0  0  0  0  0
  150.7753  135.3916  155.3245 H   0  0  0  0  0  0  0  0  0  0  0  0
  152.3965  138.6282  155.5976 H   0  0  0  0  0  0  0  0  0  0  0  0
  152.7563  138.6773  153.8813 H   0  0  0  0  0  0  0  0  0  0  0  0
  150.3780  138.8774  153.3108 H   0  0  0  0  0  0  0  0  0  0  0  0
  150.8476  140.1359  154.4333 H   0  0  0  0  0  0  0  0  0  0  0  0
  1  2  1  0  0  0  0
  1 21  1  0  0  0  0
  1 22  1  0  0  0  0
  1 23  1  0  0  0  0
  2  3  1  0  0  0  0
  2 24  1  0  0  0  0
  2 25  1  0  0  0  0
  3  4  1  0  0  0  0
  3  5  1  0  0  0  0
  3 15  1  0  0  0  0
  4 26  1  0  0  0  0
  4 27  1  0  0  0  0
  4 28  1  0  0  0  0
  5  6  1  0  0  0  0
  5 29  1  0  0  0  0
  5 30  1  0  0  0  0
  6  7  1  0  0  0  0
  6 31  1  0  0  0  0
  7  8  2  0  0  0  0
  7  9  1  0  0  0  0
  9 10  1  0  0  0  0
  9 32  1  0  0  0  0
 10 14  1  0  0  0  0
 10 11  2  0  0  0  0
 11 12  1  0  0  0  0
 12 13  2  0  0  0  0
 13 14  1  0  0  0  0
 13 33  1  0  0  0  0
 15 20  1  0  0  0  0
 15 16  1  0  0  0  0
 16 17  1  0  0  0  0
 16 34  1  0  0  0  0
 16 35  1  0  0  0  0
 17 18  1  0  0  0  0
 17 36  1  0  0  0  0
 17 37  1  0  0  0  0
 18 19  1  0  0  0  0
 19 20  1  0  0  0  0
 19 38  1  0  0  0  0
 19 39  1  0  0  0  0
 20 40  1  0  0  0  0
 20 41  1  0  0  0  0
M  END
> <s_m_source_file>
AV-unprocessed.smi

> <i_m_source_file_index>
1412

> <i_lp_mmshare_version>
43012

> <i_f3d_flags>
0

> <s_epik_input>
W0NIMl0xW0NIMl1PW0NIMl1bQ0gyXU4xW0NAQF0oW0NIM10pKFtDSDJdW0NIM10pW0NIMl1bTkhdQyg9TylbTkhdYzJubltjSF1zMg==

> <s_epik_cmdline>
J2VwaWtfcHl0aG9uJywgJy1waCcsICc3LjAnLCAnLXRuJywgJzgnLCAnLW1hJywgJzIwMCcsICctbWV0YWxfYmluZGluZycsICctaW1hZScsICc8aW5maWxlLm1hZT4nLCAnLW9tYWUnLCAnPG91dGZpbGUubWFlPic=

> <r_lp_tautomer_probability>
1

> <r_epik_Ionization_Penalty>
0.295854

> <r_epik_Ionization_Penalty_Charging>
0

> <r_epik_Ionization_Penalty_Neutral>
0.295854

> <r_epik_State_Penalty>
0.288723

> <r_epik_Charging_Adjusted_Penalty>
0.288723

> <i_epik_Tot_Q>
0

> <i_epik_Tot_abs_Q>
0

> <r_epik_Metal_State_Penalty>
0.510549

> <b_epik_Metal_Only>
0

> <s_lp_Force_Field>
OPLS_2005

> <r_lp_Energy>
43.1066

> <b_lp_Chiralities_Consistent>
1

> <s_lp_Variant>
AV-unprocessed.smi:1412-1

> <Gold.Version>
5.8.1

> <Gold.Id.Protein>
6NUR|6NUR_protein|mol2

> <Gold.PLP.Fitness>
33.7588

> <Gold.PLP.PLP>
-23.5109

> <Gold.PLP.part.hbond>
-3.0000

> <Gold.PLP.part.metal>
0.0000

> <Gold.PLP.part.buried>
-2.2379

> <Gold.PLP.part.nonpolar>
-18.9681

> <Gold.PLP.part.repulsive>
0.7676

> <Gold.PLP.ligand.clash>
0.0000

> <Gold.PLP.ligand.torsion>
0.6449

> <Gold.PLP.Chemscore.Hbond>
2.9760

> <Gold.PLP.Chemscore.CHOScore>
0.8445

> <Gold.PLP.Chemscore.Metal>
0.0000

> <Gold.Chemscore.Hbonds>
donor molecule, donor type, donor heavy atom, donor atom, acceptor molecule, acceptor atom, score
      L1  H     6    31       P1  7948  0.96
      L1  H     9    32       P1  7948  1.00
      P1  H 10752 10764       L1    18  1.00
      L1  C    13    33       P1 10186  0.59

> <Gold.PLP.Chemscore.Internal.Correction>
0.0761

> <Gold.Rescore>
     Score         DG    S(hbond)    S(metal)    S(lipo)     H(rot)  DE(clash)    DE(int)     intcor
     15.28     -16.70       2.87        0.00      54.69       1.86       0.45       0.97       ----

> <Gold.Chemscore.Fitness>
15.2825

> <Gold.Chemscore.DG>
-16.7031

> <Gold.Chemscore.ZeroCoef>
-5.4800

> <Gold.Chemscore.Hbond>
2.8708

> <Gold.Chemscore.Metal>
0.0000

> <Gold.Chemscore.Lipo>
54.6872

> <Gold.Chemscore.Internal_Hbond>
0.0000

> <Gold.Chemscore.DEClash>
0.4483

> <Gold.Chemscore.DEInternal>
0.9723

> <Gold.Chemscore.Rot>
1.8609

> <Gold.Chemscore.Internal.Correction>
   9.000000E+99

> <Gold.Chemscore.Hbonds>
donor molecule, donor type, donor heavy atom, donor atom, acceptor molecule, acceptor atom, score
      L1  H     6    31       P1  7948  0.92
      L1  H     9    32       P1  7948  0.95
      P1  H 10752 10764       L1    18  0.59

> <Gold.Chemscore.Hbond.Weighted>
-9.5885

> <Gold.Chemscore.Metal.Weighted>
-0.0000

> <Gold.Chemscore.Lipo.Weighted>
-6.3984

> <Gold.Chemscore.Internal_Hbond.Weighted>
0.0000

> <Gold.Chemscore.DEClash.Weighted>
0.4483

> <Gold.Chemscore.DEInternal.Weighted>
0.9723

> <Gold.Chemscore.Rot.Weighted>
4.7638

> <Gold.Chemscore.Internal.Correction.Weighted>
   9.000000E+99

> <Gold.Protein.RotatedTorsions>
[ 6907 6896 6895 6894 ] final  -39.04 input  -60.11 | X-H torsion
[ 7974 7965 7964 7962 ] final  141.74 input  175.53 | X-H torsion
[ 8008 7997 7996 7995 ] final -135.78 input   59.86 | X-H torsion
[ 10167 10162 10161 10158 ] final    1.84 input  -65.29 | X-H torsion
[ 10718 10713 10712 10709 ] final   -4.19 input   66.30 | X-H torsion
[ 10763 10752 10751 10750 ] final  -80.63 input  -60.55 | X-H torsion
[ 11005 11000 10999 10996 ] final  -95.00 input  -57.11 | X-H torsion

> <Gold.Protein.ActiveResidues>
 VAL166  LYS551  ARG553  GLY616  TRP617  ASP618  TYR619  PRO620  LYS621  CYS622 
 ASP623  PHE694  ASN695  SER759  ASP760  ASP761  ALA762  ILE779  LEU786  VAL792 
 PHE793  MET794  SER795  GLU796  ALA797  LYS798  CYS799  TRP800  GLU811  SER814 

> <Gold.Protein.RotatedAtoms>
  150.9951  134.9277  159.7921 H   0  0  0  0  0  0  0  0  0  0  0  0  # atno 6907 bound_to 6896
  152.5262  134.3229  159.9165 H   0  0  0  0  0  0  0  0  0  0  0  0  # atno 6908 bound_to 6896
  151.3235  133.3989  159.2691 H   0  0  0  0  0  0  0  0  0  0  0  0  # atno 6909 bound_to 6896
  144.9070  139.5345  143.5727 H   0  0  0  0  0  0  0  0  0  0  0  0  # atno 7974 bound_to 7965
  155.3844  140.0496  157.3042 H   0  0  0  0  0  0  0  0  0  0  0  0  # atno 8008 bound_to 7997
  154.5067  140.2176  155.9199 H   0  0  0  0  0  0  0  0  0  0  0  0  # atno 8009 bound_to 7997
  156.1534  140.3131  155.8690 H   0  0  0  0  0  0  0  0  0  0  0  0  # atno 8010 bound_to 7997
  140.6664  143.7168  150.7835 H   0  0  0  0  0  0  0  0  0  0  0  0  # atno 10167 bound_to 10162
  156.7650  130.5281  149.5778 H   0  0  0  0  0  0  0  0  0  0  0  0  # atno 10718 bound_to 10713
  154.5536  135.5654  153.6944 H   0  0  0  0  0  0  0  0  0  0  0  0  # atno 10763 bound_to 10752
  152.9997  135.6257  154.2341 H   0  0  0  0  0  0  0  0  0  0  0  0  # atno 10764 bound_to 10752
  154.2276  135.2867  155.2881 H   0  0  0  0  0  0  0  0  0  0  0  0  # atno 10765 bound_to 10752
  141.1454  133.7995  157.0375 H   0  0  0  0  0  0  0  0  0  0  0  0  # atno 11005 bound_to 11000
  146.3138  139.7845  142.8999 LP  0  0  0  0  0  0  0  0  0  0  0  0  # atno 17320 bound_to 7965
  145.3519  141.0309  143.3333 LP  0  0  0  0  0  0  0  0  0  0  0  0  # atno 17321 bound_to 7965
  140.0846  143.4936  152.2512 LP  0  0  0  0  0  0  0  0  0  0  0  0  # atno 17342 bound_to 10162
  139.5914  144.7551  151.3391 LP  0  0  0  0  0  0  0  0  0  0  0  0  # atno 17343 bound_to 10162
  156.1315  130.6181  151.0339 LP  0  0  0  0  0  0  0  0  0  0  0  0  # atno 17370 bound_to 10713
  157.6717  131.0860  150.7595 LP  0  0  0  0  0  0  0  0  0  0  0  0  # atno 17371 bound_to 10713
  140.0714  134.9700  157.1473 LP  0  0  0  0  0  0  0  0  0  0  0  0  # atno 17394 bound_to 11000
  140.3706  134.2395  155.7178 LP  0  0  0  0  0  0  0  0  0  0  0  0  # atno 17395 bound_to 11000

$$$$
