AV-unprocessed.smi:1530|AV-procd|sdf|6155|dock6
  -GOLD-   22720 6303D 1   1.00000     0.00000
 Structure written by MMmdl.
 42 43  0  0  0  0  0  0  0  0  1 V2000
  147.7690  132.0773  152.9886 C   0  0  0  0  0  0  0  0  0  0  0  0
  147.4597  133.2829  152.2978 O   0  0  0  0  0  0  0  0  0  0  0  0
  146.3128  133.3269  151.5274 C   0  0  0  0  0  0  0  0  0  0  0  0
  145.7169  132.1549  151.1930 N   0  0  0  0  0  0  0  0  0  0  0  0
  144.5951  132.1940  150.4460 C   0  0  0  0  0  0  0  0  0  0  0  0
  144.0091  133.3924  150.0007 C   0  0  0  0  0  0  0  0  0  0  0  0
  144.6244  134.6097  150.3466 C   0  0  0  0  0  0  0  0  0  0  0  0
  145.8108  134.5860  151.1213 C   0  0  0  0  0  0  0  0  0  0  0  0
  146.5200  135.7475  151.5406 N   0  0  0  0  0  0  0  0  0  0  0  0
  146.0483  136.9259  151.9829 C   0  0  0  0  0  0  0  0  0  0  0  0
  144.8607  137.2188  152.1146 O   0  0  0  0  0  0  0  0  0  0  0  0
  147.0532  137.7660  152.2682 N   0  0  0  0  0  0  0  0  0  0  0  0
  146.9108  139.1231  152.7994 C   0  0  0  0  0  0  0  0  0  0  0  0
  147.2411  139.2502  154.3185 C   0  0  0  0  0  0  0  0  0  0  0  0
  145.9870  138.8393  155.1386 C   0  0  0  0  0  0  0  0  0  0  0  0
  144.8093  139.3912  154.8271 N   0  0  0  0  0  0  0  0  0  0  0  0
  146.0794  138.0325  156.0630 O   0  0  0  0  0  0  0  0  0  0  0  0
  148.4536  138.3446  154.6787 C   0  0  0  0  0  0  0  0  0  0  0  0
  149.7930  138.8852  154.1441 C   0  0  0  0  0  0  0  0  0  0  0  0
  150.0073  140.2103  154.6089 O   0  0  0  0  0  0  0  0  0  0  0  0
  149.0115  141.1157  154.1536 C   0  0  0  0  0  0  0  0  0  0  0  0
  147.6377  140.7020  154.7083 C   0  0  0  0  0  0  0  0  0  0  0  0
  148.6953  132.2105  153.5473 H   0  0  0  0  0  0  0  0  0  0  0  0
  147.9166  131.2467  152.2972 H   0  0  0  0  0  0  0  0  0  0  0  0
  146.9872  131.8150  153.7029 H   0  0  0  0  0  0  0  0  0  0  0  0
  144.1484  131.2421  150.2000 H   0  0  0  0  0  0  0  0  0  0  0  0
  143.1053  133.3787  149.4098 H   0  0  0  0  0  0  0  0  0  0  0  0
  144.1637  135.5265  150.0166 H   0  0  0  0  0  0  0  0  0  0  0  0
  147.5241  135.6832  151.4557 H   0  0  0  0  0  0  0  0  0  0  0  0
  147.9969  137.4350  152.1289 H   0  0  0  0  0  0  0  0  0  0  0  0
  147.5865  139.7603  152.2275 H   0  0  0  0  0  0  0  0  0  0  0  0
  145.9143  139.5065  152.5823 H   0  0  0  0  0  0  0  0  0  0  0  0
  143.9818  139.1437  155.3501 H   0  0  0  0  0  0  0  0  0  0  0  0
  144.7530  140.0592  154.0720 H   0  0  0  0  0  0  0  0  0  0  0  0
  148.5416  138.2543  155.7629 H   0  0  0  0  0  0  0  0  0  0  0  0
  148.3043  137.3330  154.2985 H   0  0  0  0  0  0  0  0  0  0  0  0
  150.6110  138.2581  154.4985 H   0  0  0  0  0  0  0  0  0  0  0  0
  149.8332  138.8571  153.0551 H   0  0  0  0  0  0  0  0  0  0  0  0
  149.2659  142.1159  154.5045 H   0  0  0  0  0  0  0  0  0  0  0  0
  149.0081  141.1588  153.0640 H   0  0  0  0  0  0  0  0  0  0  0  0
  146.8866  141.4208  154.3794 H   0  0  0  0  0  0  0  0  0  0  0  0
  147.6748  140.7925  155.7954 H   0  0  0  0  0  0  0  0  0  0  0  0
  1  2  1  0  0  0  0
  1 23  1  0  0  0  0
  1 24  1  0  0  0  0
  1 25  1  0  0  0  0
  2  3  1  0  0  0  0
  3  8  1  0  0  0  0
  3  4  2  0  0  0  0
  4  5  1  0  0  0  0
  5  6  2  0  0  0  0
  5 26  1  0  0  0  0
  6  7  1  0  0  0  0
  6 27  1  0  0  0  0
  7  8  2  0  0  0  0
  7 28  1  0  0  0  0
  8  9  1  0  0  0  0
  9 10  1  0  0  0  0
  9 29  1  0  0  0  0
 10 11  2  0  0  0  0
 10 12  1  0  0  0  0
 12 13  1  0  0  0  0
 12 30  1  0  0  0  0
 13 14  1  0  0  0  0
 13 31  1  0  0  0  0
 13 32  1  0  0  0  0
 14 22  1  0  0  0  0
 14 15  1  0  0  0  0
 14 18  1  0  0  0  0
 15 16  1  0  0  0  0
 15 17  2  0  0  0  0
 16 33  1  0  0  0  0
 16 34  1  0  0  0  0
 18 19  1  0  0  0  0
 18 35  1  0  0  0  0
 18 36  1  0  0  0  0
 19 20  1  0  0  0  0
 19 37  1  0  0  0  0
 19 38  1  0  0  0  0
 20 21  1  0  0  0  0
 21 22  1  0  0  0  0
 21 39  1  0  0  0  0
 21 40  1  0  0  0  0
 22 41  1  0  0  0  0
 22 42  1  0  0  0  0
M  END
> <s_m_source_file>
AV-unprocessed.smi

> <i_m_source_file_index>
1530

> <i_lp_mmshare_version>
43012

> <i_f3d_flags>
0

> <s_epik_input>
W0NIM11PYzFuW2NIXVtjSF1bY0hdYzFbTkhdQyg9TylbTkhdW0NIMl1DMihDKD1PKVtOSDJdKVtDSDJdW0NIMl1PW0NIMl1bQ0gyXTI=

> <s_epik_cmdline>
J2VwaWtfcHl0aG9uJywgJy1waCcsICc3LjAnLCAnLXRuJywgJzgnLCAnLW1hJywgJzIwMCcsICctbWV0YWxfYmluZGluZycsICctaW1hZScsICc8aW5maWxlLm1hZT4nLCAnLW9tYWUnLCAnPG91dGZpbGUubWFlPic=

> <r_lp_tautomer_probability>
1

> <r_epik_Ionization_Penalty>
8.83779e-05

> <r_epik_Ionization_Penalty_Charging>
0

> <r_epik_Ionization_Penalty_Neutral>
8.83779e-05

> <r_epik_State_Penalty>
-0

> <r_epik_Charging_Adjusted_Penalty>
0

> <i_epik_Tot_Q>
0

> <i_epik_Tot_abs_Q>
0

> <r_epik_Metal_State_Penalty>
-0

> <b_epik_Metal_Only>
0

> <s_lp_Force_Field>
OPLS_2005

> <r_lp_Energy>
14.5365

> <b_lp_Chiralities_Consistent>
1

> <s_lp_Variant>
AV-unprocessed.smi:1530-1

> <Gold.Version>
5.8.1

> <Gold.Id.Protein>
6NUR|6NUR_protein|mol2

> <Gold.PLP.Fitness>
40.8928

> <Gold.PLP.PLP>
-32.1542

> <Gold.PLP.part.hbond>
-3.8139

> <Gold.PLP.part.metal>
0.0000

> <Gold.PLP.part.buried>
-4.1081

> <Gold.PLP.part.nonpolar>
-25.6825

> <Gold.PLP.part.repulsive>
1.5432

> <Gold.PLP.ligand.clash>
0.0000

> <Gold.PLP.ligand.torsion>
1.2912

> <Gold.PLP.Chemscore.Hbond>
3.7673

> <Gold.PLP.Chemscore.CHOScore>
0.0000

> <Gold.PLP.Chemscore.Metal>
0.0000

> <Gold.Chemscore.Hbonds>
donor molecule, donor type, donor heavy atom, donor atom, acceptor molecule, acceptor atom, score
      L1  H     9    29       P1  7948  1.00
      L1  H    12    30       P1  7948  0.98
      L1  H    16    34       P1 10175  0.82
      P1  H  7989  7998       L1    20  0.86

> <Gold.PLP.Chemscore.Internal.Correction>
0.0191

> <Gold.Rescore>
     Score         DG    S(hbond)    S(metal)    S(lipo)     H(rot)  DE(clash)    DE(int)     intcor
     16.15     -18.71       3.23        0.00      69.63       2.23       1.26       1.30       ----

> <Gold.Chemscore.Fitness>
16.1516

> <Gold.Chemscore.DG>
-18.7139

> <Gold.Chemscore.ZeroCoef>
-5.4800

> <Gold.Chemscore.Hbond>
3.2317

> <Gold.Chemscore.Metal>
0.0000

> <Gold.Chemscore.Lipo>
69.6345

> <Gold.Chemscore.Internal_Hbond>
0.0000

> <Gold.Chemscore.DEClash>
1.2582

> <Gold.Chemscore.DEInternal>
1.3041

> <Gold.Chemscore.Rot>
2.2294

> <Gold.Chemscore.Internal.Correction>
   9.000000E+99

> <Gold.Chemscore.Hbonds>
donor molecule, donor type, donor heavy atom, donor atom, acceptor molecule, acceptor atom, score
      L1  H     9    29       P1  7948  0.85
      L1  H    12    30       P1  7948  0.88
      L1  H    16    34       P1 10175  0.80
      P1  H  7989  7998       L1    20  0.08

> <Gold.Chemscore.Hbond.Weighted>
-10.7940

> <Gold.Chemscore.Metal.Weighted>
-0.0000

> <Gold.Chemscore.Lipo.Weighted>
-8.1472

> <Gold.Chemscore.Internal_Hbond.Weighted>
0.0000

> <Gold.Chemscore.DEClash.Weighted>
1.2582

> <Gold.Chemscore.DEInternal.Weighted>
1.3041

> <Gold.Chemscore.Rot.Weighted>
5.7073

> <Gold.Chemscore.Internal.Correction.Weighted>
   9.000000E+99

> <Gold.Protein.RotatedTorsions>
[ 6907 6896 6895 6894 ] final -159.40 input  -60.11 | X-H torsion
[ 7974 7965 7964 7962 ] final  -36.29 input  175.53 | X-H torsion
[ 8008 7997 7996 7995 ] final -153.34 input   59.86 | X-H torsion
[ 10167 10162 10161 10158 ] final -116.07 input  -65.29 | X-H torsion
[ 10718 10713 10712 10709 ] final  -99.05 input   66.30 | X-H torsion
[ 10763 10752 10751 10750 ] final  117.80 input  -60.55 | X-H torsion
[ 11005 11000 10999 10996 ] final  106.29 input  -57.11 | X-H torsion

> <Gold.Protein.ActiveResidues>
 VAL166  LYS551  ARG553  GLY616  TRP617  ASP618  TYR619  PRO620  LYS621  CYS622 
 ASP623  PHE694  ASN695  SER759  ASP760  ASP761  ALA762  ILE779  LEU786  VAL792 
 PHE793  MET794  SER795  GLU796  ALA797  LYS798  CYS799  TRP800  GLU811  SER814 

> <Gold.Protein.RotatedAtoms>
  151.3330  133.3993  159.2664 H   0  0  0  0  0  0  0  0  0  0  0  0  # atno 6907 bound_to 6896
  150.9940  134.9269  159.7926 H   0  0  0  0  0  0  0  0  0  0  0  0  # atno 6908 bound_to 6896
  152.5255  134.3295  159.9230 H   0  0  0  0  0  0  0  0  0  0  0  0  # atno 6909 bound_to 6896
  146.0674  140.6261  142.8968 H   0  0  0  0  0  0  0  0  0  0  0  0  # atno 7974 bound_to 7965
  155.6693  140.0731  157.2525 H   0  0  0  0  0  0  0  0  0  0  0  0  # atno 8008 bound_to 7997
  154.4126  140.1702  156.1913 H   0  0  0  0  0  0  0  0  0  0  0  0  # atno 8009 bound_to 7997
  155.9630  140.3368  155.6510 H   0  0  0  0  0  0  0  0  0  0  0  0  # atno 8010 bound_to 7997
  140.0832  143.4768  152.1913 H   0  0  0  0  0  0  0  0  0  0  0  0  # atno 10167 bound_to 10162
  156.0123  130.5265  150.6614 H   0  0  0  0  0  0  0  0  0  0  0  0  # atno 10718 bound_to 10713
  153.5579  135.3526  155.2787 H   0  0  0  0  0  0  0  0  0  0  0  0  # atno 10763 bound_to 10752
  154.8698  135.4129  154.2864 H   0  0  0  0  0  0  0  0  0  0  0  0  # atno 10764 bound_to 10752
  153.3603  135.7059  153.6786 H   0  0  0  0  0  0  0  0  0  0  0  0  # atno 10765 bound_to 10752
  139.8812  134.9364  156.5644 H   0  0  0  0  0  0  0  0  0  0  0  0  # atno 11005 bound_to 11000
  144.7211  140.4375  143.7008 LP  0  0  0  0  0  0  0  0  0  0  0  0  # atno 17320 bound_to 7965
  145.6452  139.1556  143.2893 LP  0  0  0  0  0  0  0  0  0  0  0  0  # atno 17321 bound_to 7965
  139.5767  144.7491  151.3746 LP  0  0  0  0  0  0  0  0  0  0  0  0  # atno 17342 bound_to 10162
  140.7067  143.7496  150.7494 LP  0  0  0  0  0  0  0  0  0  0  0  0  # atno 17343 bound_to 10162
  157.4355  131.0855  151.0996 LP  0  0  0  0  0  0  0  0  0  0  0  0  # atno 17370 bound_to 10713
  157.1556  130.6203  149.5595 LP  0  0  0  0  0  0  0  0  0  0  0  0  # atno 17371 bound_to 10713
  140.8145  133.8402  155.8840 LP  0  0  0  0  0  0  0  0  0  0  0  0  # atno 17394 bound_to 11000
  140.9475  134.1821  157.4752 LP  0  0  0  0  0  0  0  0  0  0  0  0  # atno 17395 bound_to 11000

$$$$
