AV-unprocessed.smi:719|AV-procd|sdf|3493|dock5
  -GOLD-   22720 0483D 1   1.00000     0.00000
 Structure written by MMmdl.
 41 43  0  0  0  0  0  0  0  0  1 V2000
  153.4746  144.4691  163.3518 C   0  0  0  0  0  0  0  0  0  0  0  0
  153.3826  142.9458  163.2112 C   0  0  0  0  0  0  0  0  0  0  0  0
  153.2807  142.5123  161.7787 C   0  0  0  0  0  0  0  0  0  0  0  0
  152.5678  143.3035  160.8734 N   0  0  0  0  0  0  0  0  0  0  0  0
  152.5587  142.7948  159.6392 C   0  0  0  0  0  0  0  0  0  0  0  0
  151.9254  143.4745  158.4684 C   0  0  0  0  0  0  0  0  0  0  0  0
  150.4258  143.1645  158.2995 C   0  0  0  0  0  0  0  0  0  0  0  0
  150.0838  142.7644  156.9365 N   0  0  0  0  0  0  0  0  0  0  0  0
  150.0061  141.5005  156.4906 C   0  0  0  0  0  0  0  0  0  0  0  0
  150.2392  140.5166  157.1926 O   0  0  0  0  0  0  0  0  0  0  0  0
  149.6794  141.3874  155.0396 C   0  0  2  0  0  0  0  0  0  0  0  0
  148.2977  141.7710  154.5341 C   0  0  2  0  0  0  0  0  0  0  0  0
  147.0653  141.9616  155.3961 C   0  0  0  0  0  0  0  0  0  0  0  0
  146.8800  140.6623  156.1969 C   0  0  0  0  0  0  0  0  0  0  0  0
  147.6998  139.5891  155.4615 C   0  0  0  0  0  0  0  0  0  0  0  0
  148.6930  140.3227  154.5805 C   0  0  2  0  0  0  0  0  0  0  0  0
  153.4458  141.2835  159.5091 S   0  0  0  0  0  0  0  0  0  0  0  0
  153.8164  141.3795  161.2113 C   0  0  0  0  0  0  0  0  0  0  0  0
  154.6257  140.3170  161.8774 C   0  0  0  0  0  0  0  0  0  0  0  0
  153.5455  144.7598  164.3999 H   0  0  0  0  0  0  0  0  0  0  0  0
  152.5947  144.9558  162.9298 H   0  0  0  0  0  0  0  0  0  0  0  0
  154.3529  144.8607  162.8376 H   0  0  0  0  0  0  0  0  0  0  0  0
  154.2574  142.4894  163.6763 H   0  0  0  0  0  0  0  0  0  0  0  0
  152.5248  142.5837  163.7786 H   0  0  0  0  0  0  0  0  0  0  0  0
  152.0666  144.5499  158.5775 H   0  0  0  0  0  0  0  0  0  0  0  0
  152.4645  143.1861  157.5650 H   0  0  0  0  0  0  0  0  0  0  0  0
  150.1223  142.3962  159.0126 H   0  0  0  0  0  0  0  0  0  0  0  0
  149.8423  144.0515  158.5463 H   0  0  0  0  0  0  0  0  0  0  0  0
  149.8973  143.5072  156.2784 H   0  0  0  0  0  0  0  0  0  0  0  0
  150.5228  141.5531  154.3722 H   0  0  0  0  0  0  0  0  0  0  0  0
  148.2721  142.2783  153.5717 H   0  0  0  0  0  0  0  0  0  0  0  0
  147.1693  142.8360  156.0389 H   0  0  0  0  0  0  0  0  0  0  0  0
  146.2072  142.1248  154.7437 H   0  0  0  0  0  0  0  0  0  0  0  0
  147.2726  140.7953  157.2055 H   0  0  0  0  0  0  0  0  0  0  0  0
  145.8304  140.3839  156.2954 H   0  0  0  0  0  0  0  0  0  0  0  0
  148.2093  138.9109  156.1463 H   0  0  0  0  0  0  0  0  0  0  0  0
  147.0471  138.9924  154.8236 H   0  0  0  0  0  0  0  0  0  0  0  0
  148.9432  139.8180  153.6494 H   0  0  0  0  0  0  0  0  0  0  0  0
  154.1279  139.9583  162.7784 H   0  0  0  0  0  0  0  0  0  0  0  0
  155.6050  140.7015  162.1621 H   0  0  0  0  0  0  0  0  0  0  0  0
  154.7787  139.4637  161.2162 H   0  0  0  0  0  0  0  0  0  0  0  0
  1  2  1  0  0  0  0
  1 20  1  0  0  0  0
  1 21  1  0  0  0  0
  1 22  1  0  0  0  0
  2  3  1  0  0  0  0
  2 23  1  0  0  0  0
  2 24  1  0  0  0  0
  3 18  2  0  0  0  0
  3  4  1  0  0  0  0
  4  5  2  0  0  0  0
  5  6  1  0  0  0  0
  5 17  1  0  0  0  0
  6  7  1  0  0  0  0
  6 25  1  0  0  0  0
  6 26  1  0  0  0  0
  7  8  1  0  0  0  0
  7 27  1  0  0  0  0
  7 28  1  0  0  0  0
  8  9  1  0  0  0  0
  8 29  1  0  0  0  0
  9 10  2  0  0  0  0
  9 11  1  0  0  0  0
 11 16  1  0  0  0  0
 11 12  1  0  0  0  0
 11 30  1  0  0  0  0
 12 16  1  0  0  0  0
 12 13  1  0  0  0  0
 12 31  1  0  0  0  0
 13 14  1  0  0  0  0
 13 32  1  0  0  0  0
 13 33  1  0  0  0  0
 14 15  1  0  0  0  0
 14 34  1  0  0  0  0
 14 35  1  0  0  0  0
 15 16  1  0  0  0  0
 15 36  1  0  0  0  0
 15 37  1  0  0  0  0
 16 38  1  0  0  0  0
 17 18  1  0  0  0  0
 18 19  1  0  0  0  0
 19 39  1  0  0  0  0
 19 40  1  0  0  0  0
 19 41  1  0  0  0  0
M  END
> <s_m_source_file>
AV-unprocessed.smi

> <i_m_source_file_index>
719

> <i_lp_mmshare_version>
43012

> <i_f3d_flags>
0

> <s_epik_input>
W0NIM11bQ0gyXWMxbmMoc2MxW0NIM10pW0NIMl1bQ0gyXVtOSF1DKD1PKVtDQEhdMltDQEhdKFtDQEBIXTIzKVtDSDJdW0NIMl1bQ0gyXTM=

> <s_epik_cmdline>
J2VwaWtfcHl0aG9uJywgJy1waCcsICc3LjAnLCAnLXRuJywgJzgnLCAnLW1hJywgJzIwMCcsICctbWV0YWxfYmluZGluZycsICctaW1hZScsICc8aW5maWxlLm1hZT4nLCAnLW9tYWUnLCAnPG91dGZpbGUubWFlPic=

> <r_epik_Ionization_Penalty>
0.00247473

> <r_epik_Ionization_Penalty_Charging>
0

> <r_epik_Ionization_Penalty_Neutral>
0.00247473

> <r_epik_State_Penalty>
0.00171502

> <r_epik_Charging_Adjusted_Penalty>
0.00171502

> <i_epik_Tot_Q>
0

> <i_epik_Tot_abs_Q>
0

> <r_epik_Metal_State_Penalty>
-0

> <b_epik_Metal_Only>
0

> <s_lp_Force_Field>
OPLS_2005

> <r_lp_Energy>
22.4904

> <b_lp_Chiralities_Consistent>
1

> <s_lp_Variant>
AV-unprocessed.smi:719-1

> <Gold.Version>
5.8.1

> <Gold.Id.Protein>
6NUR|6NUR_protein|mol2

> <Gold.PLP.Fitness>
42.2004

> <Gold.PLP.PLP>
-42.1017

> <Gold.PLP.part.hbond>
-1.0000

> <Gold.PLP.part.metal>
0.0000

> <Gold.PLP.part.buried>
-5.1688

> <Gold.PLP.part.nonpolar>
-34.8664

> <Gold.PLP.part.repulsive>
0.0942

> <Gold.PLP.ligand.clash>
0.0000

> <Gold.PLP.ligand.torsion>
1.5111

> <Gold.PLP.Chemscore.Hbond>
1.0000

> <Gold.PLP.Chemscore.CHOScore>
0.0000

> <Gold.PLP.Chemscore.Metal>
0.0000

> <Gold.Chemscore.Hbonds>
donor molecule, donor type, donor heavy atom, donor atom, acceptor molecule, acceptor atom, score
      L1  H     8    29       P1  8028  1.00

> <Gold.PLP.Chemscore.Internal.Correction>
0.1208

> <Gold.Rescore>
     Score         DG    S(hbond)    S(metal)    S(lipo)     H(rot)  DE(clash)    DE(int)     intcor
     17.80     -19.68       0.95        0.00     125.19       1.42       0.33       1.55       ----

> <Gold.Chemscore.Fitness>
17.7994

> <Gold.Chemscore.DG>
-19.6756

> <Gold.Chemscore.ZeroCoef>
-5.4800

> <Gold.Chemscore.Hbond>
0.9537

> <Gold.Chemscore.Metal>
0.0000

> <Gold.Chemscore.Lipo>
125.1939

> <Gold.Chemscore.Internal_Hbond>
0.0000

> <Gold.Chemscore.DEClash>
0.3280

> <Gold.Chemscore.DEInternal>
1.5481

> <Gold.Chemscore.Rot>
1.4209

> <Gold.Chemscore.Internal.Correction>
   9.000000E+99

> <Gold.Chemscore.Hbonds>
donor molecule, donor type, donor heavy atom, donor atom, acceptor molecule, acceptor atom, score
      L1  H     8    29       P1  8028  0.95

> <Gold.Chemscore.Hbond.Weighted>
-3.1854

> <Gold.Chemscore.Metal.Weighted>
-0.0000

> <Gold.Chemscore.Lipo.Weighted>
-14.6477

> <Gold.Chemscore.Internal_Hbond.Weighted>
0.0000

> <Gold.Chemscore.DEClash.Weighted>
0.3280

> <Gold.Chemscore.DEInternal.Weighted>
1.5481

> <Gold.Chemscore.Rot.Weighted>
3.6376

> <Gold.Chemscore.Internal.Correction.Weighted>
   9.000000E+99

> <Gold.Protein.RotatedTorsions>
[ 6907 6896 6895 6894 ] final -138.97 input  -60.11 | X-H torsion
[ 7974 7965 7964 7962 ] final    8.73 input  175.53 | X-H torsion
[ 8008 7997 7996 7995 ] final  -24.34 input   59.86 | X-H torsion
[ 10167 10162 10161 10158 ] final -118.25 input  -65.29 | X-H torsion
[ 10718 10713 10712 10709 ] final  124.14 input   66.30 | X-H torsion
[ 10763 10752 10751 10750 ] final -161.89 input  -60.55 | X-H torsion
[ 11005 11000 10999 10996 ] final  145.52 input  -57.11 | X-H torsion

> <Gold.Protein.ActiveResidues>
 VAL166  LYS551  ARG553  GLY616  TRP617  ASP618  TYR619  PRO620  LYS621  CYS622 
 ASP623  PHE694  ASN695  SER759  ASP760  ASP761  ALA762  ILE779  LEU786  VAL792 
 PHE793  MET794  SER795  GLU796  ALA797  LYS798  CYS799  TRP800  GLU811  SER814 

> <Gold.Protein.RotatedAtoms>
  151.0419  133.5699  159.2650 H   0  0  0  0  0  0  0  0  0  0  0  0  # atno 6907 bound_to 6896
  151.2742  135.0693  159.9155 H   0  0  0  0  0  0  0  0  0  0  0  0  # atno 6908 bound_to 6896
  152.5366  134.0144  159.8007 H   0  0  0  0  0  0  0  0  0  0  0  0  # atno 6909 bound_to 6896
  146.2412  139.9890  142.8428 H   0  0  0  0  0  0  0  0  0  0  0  0  # atno 7974 bound_to 7965
  154.4534  140.1956  156.0449 H   0  0  0  0  0  0  0  0  0  0  0  0  # atno 8008 bound_to 7997
  156.0697  140.3286  155.7533 H   0  0  0  0  0  0  0  0  0  0  0  0  # atno 8009 bound_to 7997
  155.5283  140.0576  157.2884 H   0  0  0  0  0  0  0  0  0  0  0  0  # atno 8010 bound_to 7997
  140.0596  143.4981  152.2039 H   0  0  0  0  0  0  0  0  0  0  0  0  # atno 10167 bound_to 10162
  157.5609  131.1089  150.8540 H   0  0  0  0  0  0  0  0  0  0  0  0  # atno 10718 bound_to 10713
  154.7263  135.3036  154.8965 H   0  0  0  0  0  0  0  0  0  0  0  0  # atno 10763 bound_to 10752
  153.9822  135.6729  153.4754 H   0  0  0  0  0  0  0  0  0  0  0  0  # atno 10764 bound_to 10752
  153.0878  135.4975  154.8550 H   0  0  0  0  0  0  0  0  0  0  0  0  # atno 10765 bound_to 10752
  140.0719  134.9147  157.1359 H   0  0  0  0  0  0  0  0  0  0  0  0  # atno 11005 bound_to 11000
  145.1521  140.9628  143.4427 LP  0  0  0  0  0  0  0  0  0  0  0  0  # atno 17320 bound_to 7965
  145.0195  139.3436  143.6079 LP  0  0  0  0  0  0  0  0  0  0  0  0  # atno 17321 bound_to 7965
  139.5902  144.7547  151.3419 LP  0  0  0  0  0  0  0  0  0  0  0  0  # atno 17342 bound_to 10162
  140.7178  143.7218  150.7690 LP  0  0  0  0  0  0  0  0  0  0  0  0  # atno 17343 bound_to 10162
  156.9038  130.5256  149.5282 LP  0  0  0  0  0  0  0  0  0  0  0  0  # atno 17370 bound_to 10713
  156.0662  130.5704  150.9292 LP  0  0  0  0  0  0  0  0  0  0  0  0  # atno 17371 bound_to 10713
  140.3615  134.2489  155.7186 LP  0  0  0  0  0  0  0  0  0  0  0  0  # atno 17394 bound_to 11000
  141.2015  133.7961  157.0438 LP  0  0  0  0  0  0  0  0  0  0  0  0  # atno 17395 bound_to 11000

$$$$
