AV-unprocessed.smi:1766|AV-procd|sdf|7138|dock10
  -GOLD-   22720 8373D 1   1.00000     0.00000
 Structure written by MMmdl.
 40 42  0  0  0  0  0  0  0  0  2 V2000
  150.0737  135.8130  154.4871 N   0  0  0  0  0  0  0  0  0  0  0  0
  151.1340  136.4166  155.0300 C   0  0  0  0  0  0  0  0  0  0  0  0
  151.7287  135.9451  155.9979 O   0  0  0  0  0  0  0  0  0  0  0  0
  151.5793  137.7379  154.3942 C   0  0  0  0  0  0  0  0  0  0  0  0
  150.4563  138.7285  154.3414 C   0  0  0  0  0  0  0  0  0  0  0  0
  149.3218  138.6066  153.5950 N   0  3  0  0  0  0  0  0  0  0  0  0
  148.5019  139.7174  153.7944 C   0  0  0  0  0  0  0  0  0  0  0  0
  147.2585  140.0372  153.2580 C   0  0  0  0  0  0  0  0  0  0  0  0
  146.6848  141.2564  153.6734 C   0  0  0  0  0  0  0  0  0  0  0  0
  147.3451  142.1050  154.5850 C   0  0  0  0  0  0  0  0  0  0  0  0
  148.6070  141.7714  155.1183 C   0  0  0  0  0  0  0  0  0  0  0  0
  149.1674  140.5618  154.7065 C   0  0  0  0  0  0  0  0  0  0  0  0
  150.3654  139.9080  155.0233 N   0  0  0  0  0  0  0  0  0  0  0  0
  151.3038  140.5242  155.9765 C   0  0  0  0  0  0  0  0  0  0  0  0
  150.8199  140.4231  157.4377 C   0  0  1  0  0  0  0  0  0  0  0  0
  151.3484  139.2376  157.9947 O   0  0  0  0  0  0  0  0  0  0  0  0
  151.1751  141.6557  158.2577 C   0  0  0  0  0  0  0  0  0  0  0  0
  151.9565  141.5437  159.4291 C   0  0  0  0  0  0  0  0  0  0  0  0
  152.3059  142.6949  160.1616 C   0  0  0  0  0  0  0  0  0  0  0  0
  151.8761  143.9637  159.7279 C   0  0  0  0  0  0  0  0  0  0  0  0
  152.2165  145.0707  160.4291 F   0  0  0  0  0  0  0  0  0  0  0  0
  151.0946  144.0811  158.5628 C   0  0  0  0  0  0  0  0  0  0  0  0
  150.7444  142.9305  157.8303 C   0  0  0  0  0  0  0  0  0  0  0  0
  149.7402  134.9427  154.8767 H   0  0  0  0  0  0  0  0  0  0  0  0
  149.6035  136.2270  153.6950 H   0  0  0  0  0  0  0  0  0  0  0  0
  152.4066  138.1688  154.9597 H   0  0  0  0  0  0  0  0  0  0  0  0
  151.9494  137.5429  153.3879 H   0  0  0  0  0  0  0  0  0  0  0  0
  146.7508  139.3886  152.5593 H   0  0  0  0  0  0  0  0  0  0  0  0
  145.7191  141.5464  153.2852 H   0  0  0  0  0  0  0  0  0  0  0  0
  146.8747  143.0313  154.8817 H   0  0  0  0  0  0  0  0  0  0  0  0
  149.0991  142.4307  155.8175 H   0  0  0  0  0  0  0  0  0  0  0  0
  152.2546  140.0014  155.8646 H   0  0  0  0  0  0  0  0  0  0  0  0
  151.4958  141.5577  155.6885 H   0  0  0  0  0  0  0  0  0  0  0  0
  149.7358  140.3064  157.4458 H   0  0  0  0  0  0  0  0  0  0  0  0
  152.2853  139.3342  158.0732 H   0  0  0  0  0  0  0  0  0  0  0  0
  152.3004  140.5758  159.7637 H   0  0  0  0  0  0  0  0  0  0  0  0
  152.9070  142.6044  161.0542 H   0  0  0  0  0  0  0  0  0  0  0  0
  150.7656  145.0541  158.2288 H   0  0  0  0  0  0  0  0  0  0  0  0
  150.1522  143.0311  156.9327 H   0  0  0  0  0  0  0  0  0  0  0  0
  149.1263  137.8198  152.9896 H   0  0  0  0  0  0  0  0  0  0  0  0
  1  2  1  0  0  0  0
  1 24  1  0  0  0  0
  1 25  1  0  0  0  0
  2  3  2  0  0  0  0
  2  4  1  0  0  0  0
  4  5  1  0  0  0  0
  4 26  1  0  0  0  0
  4 27  1  0  0  0  0
  5 13  1  0  0  0  0
  5  6  2  0  0  0  0
  6  7  1  0  0  0  0
  6 40  1  0  0  0  0
  7 12  2  0  0  0  0
  7  8  1  0  0  0  0
  8  9  2  0  0  0  0
  8 28  1  0  0  0  0
  9 10  1  0  0  0  0
  9 29  1  0  0  0  0
 10 11  2  0  0  0  0
 10 30  1  0  0  0  0
 11 12  1  0  0  0  0
 11 31  1  0  0  0  0
 12 13  1  0  0  0  0
 13 14  1  0  0  0  0
 14 15  1  0  0  0  0
 14 32  1  0  0  0  0
 14 33  1  0  0  0  0
 15 16  1  0  0  0  0
 15 17  1  0  0  0  0
 15 34  1  0  0  0  0
 16 35  1  0  0  0  0
 17 23  1  0  0  0  0
 17 18  2  0  0  0  0
 18 19  1  0  0  0  0
 18 36  1  0  0  0  0
 19 20  2  0  0  0  0
 19 37  1  0  0  0  0
 20 21  1  0  0  0  0
 20 22  1  0  0  0  0
 22 23  2  0  0  0  0
 22 38  1  0  0  0  0
 23 39  1  0  0  0  0
M  CHG  1   6   1
M  END
> <s_m_source_file>
AV-unprocessed.smi

> <i_m_source_file_index>
1766

> <i_lp_mmshare_version>
43012

> <i_f3d_flags>
0

> <s_epik_input>
W2NIXTFbY0hdW2NIXVtjSF1jKGMxMiluKGMobjIpW0NIMl1DKD1PKVtOSDJdKVtDSDJdW0NASF0oW09IXSljM1tjSF1bY0hdYyhGKVtjSF1bY0hdMw==

> <s_epik_cmdline>
J2VwaWtfcHl0aG9uJywgJy1waCcsICc3LjAnLCAnLXRuJywgJzgnLCAnLW1hJywgJzIwMCcsICctbWV0YWxfYmluZGluZycsICctaW1hZScsICc8aW5maWxlLm1hZT4nLCAnLW9tYWUnLCAnPG91dGZpbGUubWFlPic=

> <r_epik_Ionization_Penalty>
1.66646

> <r_epik_Ionization_Penalty_Charging>
1.66645

> <r_epik_Ionization_Penalty_Neutral>
2.12833e-06

> <r_epik_State_Penalty>
1.76975

> <r_epik_Charging_Adjusted_Penalty>
3.43621

> <i_epik_Tot_Q>
1

> <i_epik_Tot_abs_Q>
1

> <r_epik_Metal_State_Penalty>
1.80493

> <b_epik_Metal_Only>
0

> <s_lp_Force_Field>
OPLS_2005

> <r_lp_Energy>
15.5136

> <b_lp_Chiralities_Consistent>
1

> <s_lp_Variant>
AV-unprocessed.smi:1766-4

> <Gold.Version>
5.8.1

> <Gold.Id.Protein>
6NUR|6NUR_protein|mol2

> <Gold.PLP.Fitness>
60.3495

> <Gold.PLP.PLP>
-49.7546

> <Gold.PLP.part.hbond>
-4.6561

> <Gold.PLP.part.metal>
0.0000

> <Gold.PLP.part.buried>
2.8084

> <Gold.PLP.part.nonpolar>
-47.9163

> <Gold.PLP.part.repulsive>
0.1655

> <Gold.PLP.ligand.clash>
0.0000

> <Gold.PLP.ligand.torsion>
0.6944

> <Gold.PLP.Chemscore.Hbond>
3.9760

> <Gold.PLP.Chemscore.CHOScore>
0.0000

> <Gold.PLP.Chemscore.Metal>
0.0000

> <Gold.Chemscore.Hbonds>
donor molecule, donor type, donor heavy atom, donor atom, acceptor molecule, acceptor atom, score
      L1  H     1    25       P1  7948  1.00
      L1  H     6    40       P1  7948  2.00
      P1  H 10752 10765       L1     3  0.70

> <Gold.PLP.Chemscore.Internal.Correction>
0.0556

> <Gold.Rescore>
     Score         DG    S(hbond)    S(metal)    S(lipo)     H(rot)  DE(clash)    DE(int)     intcor
     16.01     -19.36       2.36        0.00     117.82       3.05       1.46       1.89       ----

> <Gold.Chemscore.Fitness>
16.0089

> <Gold.Chemscore.DG>
-19.3610

> <Gold.Chemscore.ZeroCoef>
-5.4800

> <Gold.Chemscore.Hbond>
2.3643

> <Gold.Chemscore.Metal>
0.0000

> <Gold.Chemscore.Lipo>
117.8168

> <Gold.Chemscore.Internal_Hbond>
0.0000

> <Gold.Chemscore.DEClash>
1.4620

> <Gold.Chemscore.DEInternal>
1.8901

> <Gold.Chemscore.Rot>
3.0470

> <Gold.Chemscore.Internal.Correction>
   9.000000E+99

> <Gold.Chemscore.Hbonds>
donor molecule, donor type, donor heavy atom, donor atom, acceptor molecule, acceptor atom, score
      L1  H     1    25       P1  7948  0.48
      L1  H     6    40       P1  7948  0.99
      P1  H 10752 10765       L1     3  0.07

> <Gold.Chemscore.Hbond.Weighted>
-7.8969

> <Gold.Chemscore.Metal.Weighted>
-0.0000

> <Gold.Chemscore.Lipo.Weighted>
-13.7846

> <Gold.Chemscore.Internal_Hbond.Weighted>
0.0000

> <Gold.Chemscore.DEClash.Weighted>
1.4620

> <Gold.Chemscore.DEInternal.Weighted>
1.8901

> <Gold.Chemscore.Rot.Weighted>
7.8004

> <Gold.Chemscore.Internal.Correction.Weighted>
   9.000000E+99

> <Gold.Protein.RotatedTorsions>
[ 6907 6896 6895 6894 ] final -115.06 input  -60.11 | X-H torsion
[ 7974 7965 7964 7962 ] final   57.73 input  175.53 | X-H torsion
[ 8008 7997 7996 7995 ] final   76.07 input   59.86 | X-H torsion
[ 10167 10162 10161 10158 ] final  -27.59 input  -65.29 | X-H torsion
[ 10718 10713 10712 10709 ] final   89.60 input   66.30 | X-H torsion
[ 10763 10752 10751 10750 ] final -149.74 input  -60.55 | X-H torsion
[ 11005 11000 10999 10996 ] final  109.23 input  -57.11 | X-H torsion

> <Gold.Protein.ActiveResidues>
 VAL166  LYS551  ARG553  GLY616  TRP617  ASP618  TYR619  PRO620  LYS621  CYS622 
 ASP623  PHE694  ASN695  SER759  ASP760  ASP761  ALA762  ILE779  LEU786  VAL792 
 PHE793  MET794  SER795  GLU796  ALA797  LYS798  CYS799  TRP800  GLU811  SER814 

> <Gold.Protein.RotatedAtoms>
  150.7949  133.8713  159.3259 H   0  0  0  0  0  0  0  0  0  0  0  0  # atno 6907 bound_to 6896
  151.6541  135.0996  160.0176 H   0  0  0  0  0  0  0  0  0  0  0  0  # atno 6908 bound_to 6896
  152.4029  133.6805  159.6366 H   0  0  0  0  0  0  0  0  0  0  0  0  # atno 6909 bound_to 6896
  145.9258  139.3767  143.0451 H   0  0  0  0  0  0  0  0  0  0  0  0  # atno 7974 bound_to 7965
  155.8221  140.3469  155.5520 H   0  0  0  0  0  0  0  0  0  0  0  0  # atno 8008 bound_to 7997
  155.8331  140.0930  157.1800 H   0  0  0  0  0  0  0  0  0  0  0  0  # atno 8009 bound_to 7997
  154.4004  140.1408  156.3626 H   0  0  0  0  0  0  0  0  0  0  0  0  # atno 8010 bound_to 7997
  140.7276  143.4080  151.1153 H   0  0  0  0  0  0  0  0  0  0  0  0  # atno 10167 bound_to 10162
  157.6956  131.0339  150.3450 H   0  0  0  0  0  0  0  0  0  0  0  0  # atno 10718 bound_to 10713
  154.8160  135.3302  154.7175 H   0  0  0  0  0  0  0  0  0  0  0  0  # atno 10763 bound_to 10752
  153.7815  135.6918  153.4892 H   0  0  0  0  0  0  0  0  0  0  0  0  # atno 10764 bound_to 10752
  153.1977  135.4527  155.0175 H   0  0  0  0  0  0  0  0  0  0  0  0  # atno 10765 bound_to 10752
  139.8858  134.9452  156.6094 H   0  0  0  0  0  0  0  0  0  0  0  0  # atno 11005 bound_to 11000
  145.8490  140.9539  143.0759 LP  0  0  0  0  0  0  0  0  0  0  0  0  # atno 17320 bound_to 7965
  144.6758  140.0382  143.7481 LP  0  0  0  0  0  0  0  0  0  0  0  0  # atno 17321 bound_to 7965
  139.7709  143.8495  152.3120 LP  0  0  0  0  0  0  0  0  0  0  0  0  # atno 17342 bound_to 10162
  139.8413  144.7208  150.9327 LP  0  0  0  0  0  0  0  0  0  0  0  0  # atno 17343 bound_to 10162
  156.3906  130.3897  149.7033 LP  0  0  0  0  0  0  0  0  0  0  0  0  # atno 17370 bound_to 10713
  156.4384  130.7849  151.2870 LP  0  0  0  0  0  0  0  0  0  0  0  0  # atno 17371 bound_to 10713
  140.7823  133.8650  155.8578 LP  0  0  0  0  0  0  0  0  0  0  0  0  # atno 17394 bound_to 11000
  140.9749  134.1482  157.4544 LP  0  0  0  0  0  0  0  0  0  0  0  0  # atno 17395 bound_to 11000

$$$$
