AV-unprocessed.smi:1189|AV-procd|sdf|4978|dock6
  -GOLD-   22720 3573D 1   1.00000     0.00000
 Structure written by MMmdl.
 33 34  0  0  0  0  0  0  0  0  1 V2000
  151.0716  140.9360  157.2129 O   0  0  0  0  0  0  0  0  0  0  0  0
  150.8380  142.0591  156.7630 C   0  0  0  0  0  0  0  0  0  0  0  0
  151.3712  143.3210  157.4533 C   0  0  0  0  0  0  0  0  0  0  0  0
  152.0049  143.0461  158.7329 N   0  0  0  0  0  0  0  0  0  0  0  0
  151.9613  143.7951  159.8893 C   0  0  0  0  0  0  0  0  0  0  0  0
  152.7089  143.1403  160.8250 C   0  0  0  0  0  0  0  0  0  0  0  0
  153.1817  141.9815  160.1427 C   0  0  0  0  0  0  0  0  0  0  0  0
  154.0604  140.8790  160.6731 C   0  0  0  0  0  0  0  0  0  0  0  0
  154.2576  141.0342  161.9824 F   0  0  0  0  0  0  0  0  0  0  0  0
  153.4828  139.6962  160.4633 F   0  0  0  0  0  0  0  0  0  0  0  0
  155.2422  140.9015  160.0566 F   0  0  0  0  0  0  0  0  0  0  0  0
  152.7532  141.9326  158.8882 N   0  0  0  0  0  0  0  0  0  0  0  0
  150.1071  142.2676  155.6574 N   0  0  0  0  0  0  0  0  0  0  0  0
  149.4994  141.2217  154.8416 C   0  0  0  0  0  0  0  0  0  0  0  0
  147.9627  141.3273  154.8160 C   0  0  2  0  0  0  0  0  0  0  0  0
  147.4114  142.3526  153.8444 C   0  0  0  0  0  0  0  0  0  0  0  0
  146.0018  142.5625  154.3856 C   0  0  0  0  0  0  0  0  0  0  0  0
  146.1119  142.4228  155.7984 O   0  0  0  0  0  0  0  0  0  0  0  0
  147.3517  141.8046  156.1346 C   0  0  0  0  0  0  0  0  0  0  0  0
  152.0875  143.8223  156.8004 H   0  0  0  0  0  0  0  0  0  0  0  0
  150.5462  144.0148  157.6184 H   0  0  0  0  0  0  0  0  0  0  0  0
  151.4070  144.7203  159.9492 H   0  0  0  0  0  0  0  0  0  0  0  0
  152.8915  143.4432  161.8453 H   0  0  0  0  0  0  0  0  0  0  0  0
  149.9625  143.2211  155.3576 H   0  0  0  0  0  0  0  0  0  0  0  0
  149.8971  141.2621  153.8262 H   0  0  0  0  0  0  0  0  0  0  0  0
  149.8024  140.2577  155.2514 H   0  0  0  0  0  0  0  0  0  0  0  0
  147.5331  140.3538  154.5720 H   0  0  0  0  0  0  0  0  0  0  0  0
  147.9792  143.2823  153.9055 H   0  0  0  0  0  0  0  0  0  0  0  0
  147.4203  142.0118  152.8086 H   0  0  0  0  0  0  0  0  0  0  0  0
  145.5864  143.5321  154.1100 H   0  0  0  0  0  0  0  0  0  0  0  0
  145.3327  141.7868  154.0113 H   0  0  0  0  0  0  0  0  0  0  0  0
  147.2081  140.9888  156.8435 H   0  0  0  0  0  0  0  0  0  0  0  0
  147.9867  142.5541  156.6090 H   0  0  0  0  0  0  0  0  0  0  0  0
  1  2  2  0  0  0  0
  2  3  1  0  0  0  0
  2 13  1  0  0  0  0
  3  4  1  0  0  0  0
  3 20  1  0  0  0  0
  3 21  1  0  0  0  0
  4 12  1  0  0  0  0
  4  5  1  0  0  0  0
  5  6  2  0  0  0  0
  5 22  1  0  0  0  0
  6  7  1  0  0  0  0
  6 23  1  0  0  0  0
  7  8  1  0  0  0  0
  7 12  2  0  0  0  0
  8  9  1  0  0  0  0
  8 10  1  0  0  0  0
  8 11  1  0  0  0  0
 13 14  1  0  0  0  0
 13 24  1  0  0  0  0
 14 15  1  0  0  0  0
 14 25  1  0  0  0  0
 14 26  1  0  0  0  0
 15 19  1  0  0  0  0
 15 16  1  0  0  0  0
 15 27  1  0  0  0  0
 16 17  1  0  0  0  0
 16 28  1  0  0  0  0
 16 29  1  0  0  0  0
 17 18  1  0  0  0  0
 17 30  1  0  0  0  0
 17 31  1  0  0  0  0
 18 19  1  0  0  0  0
 19 32  1  0  0  0  0
 19 33  1  0  0  0  0
M  END
> <s_m_source_file>
AV-unprocessed.smi

> <i_m_source_file_index>
1189

> <i_lp_mmshare_version>
43012

> <i_f3d_flags>
0

> <s_epik_input>
W0NIMl0xT1tDSDJdW0NIMl1bQ0BIXTFbQ0gyXVtOSF1DKD1PKVtDSDJdbjJbY0hdW2NIXWMobjIpQyhGKShGKUY=

> <s_epik_cmdline>
J2VwaWtfcHl0aG9uJywgJy1waCcsICc3LjAnLCAnLXRuJywgJzgnLCAnLW1hJywgJzIwMCcsICctbWV0YWxfYmluZGluZycsICctaW1hZScsICc8aW5maWxlLm1hZT4nLCAnLW9tYWUnLCAnPG91dGZpbGUubWFlPic=

> <r_lp_tautomer_probability>
1

> <r_epik_Ionization_Penalty>
1.26564e-07

> <r_epik_Ionization_Penalty_Charging>
0

> <r_epik_Ionization_Penalty_Neutral>
1.26564e-07

> <r_epik_State_Penalty>
-0

> <r_epik_Charging_Adjusted_Penalty>
0

> <i_epik_Tot_Q>
0

> <i_epik_Tot_abs_Q>
0

> <r_epik_Metal_State_Penalty>
-0

> <b_epik_Metal_Only>
0

> <s_lp_Force_Field>
OPLS_2005

> <r_lp_Energy>
21.601

> <b_lp_Chiralities_Consistent>
1

> <s_lp_Variant>
AV-unprocessed.smi:1189-1

> <Gold.Version>
5.8.1

> <Gold.Id.Protein>
6NUR|6NUR_protein|mol2

> <Gold.PLP.Fitness>
44.3263

> <Gold.PLP.PLP>
-42.8767

> <Gold.PLP.part.hbond>
-1.0000

> <Gold.PLP.part.metal>
0.0000

> <Gold.PLP.part.buried>
-3.8757

> <Gold.PLP.part.nonpolar>
-38.1012

> <Gold.PLP.part.repulsive>
0.3109

> <Gold.PLP.ligand.clash>
0.0000

> <Gold.PLP.ligand.torsion>
0.7470

> <Gold.PLP.Chemscore.Hbond>
0.9760

> <Gold.PLP.Chemscore.CHOScore>
0.0000

> <Gold.PLP.Chemscore.Metal>
0.0000

> <Gold.Chemscore.Hbonds>
donor molecule, donor type, donor heavy atom, donor atom, acceptor molecule, acceptor atom, score
      L1  H    13    24       P1  8028  0.86

> <Gold.PLP.Chemscore.Internal.Correction>
0.0156

> <Gold.Rescore>
     Score         DG    S(hbond)    S(metal)    S(lipo)     H(rot)  DE(clash)    DE(int)     intcor
     11.27     -13.39       0.93        0.00      82.37       1.89       0.06       2.06       ----

> <Gold.Chemscore.Fitness>
11.2688

> <Gold.Chemscore.DG>
-13.3900

> <Gold.Chemscore.ZeroCoef>
-5.4800

> <Gold.Chemscore.Hbond>
0.9337

> <Gold.Chemscore.Metal>
0.0000

> <Gold.Chemscore.Lipo>
82.3662

> <Gold.Chemscore.Internal_Hbond>
0.0000

> <Gold.Chemscore.DEClash>
0.0647

> <Gold.Chemscore.DEInternal>
2.0566

> <Gold.Chemscore.Rot>
1.8928

> <Gold.Chemscore.Internal.Correction>
   9.000000E+99

> <Gold.Chemscore.Hbonds>
donor molecule, donor type, donor heavy atom, donor atom, acceptor molecule, acceptor atom, score
      L1  H    13    24       P1  8028  0.85

> <Gold.Chemscore.Hbond.Weighted>
-3.1186

> <Gold.Chemscore.Metal.Weighted>
-0.0000

> <Gold.Chemscore.Lipo.Weighted>
-9.6368

> <Gold.Chemscore.Internal_Hbond.Weighted>
0.0000

> <Gold.Chemscore.DEClash.Weighted>
0.0647

> <Gold.Chemscore.DEInternal.Weighted>
2.0566

> <Gold.Chemscore.Rot.Weighted>
4.8455

> <Gold.Chemscore.Internal.Correction.Weighted>
   9.000000E+99

> <Gold.Protein.RotatedTorsions>
[ 6907 6896 6895 6894 ] final   16.42 input  -60.11 | X-H torsion
[ 7974 7965 7964 7962 ] final  118.31 input  175.53 | X-H torsion
[ 8008 7997 7996 7995 ] final   -7.59 input   59.86 | X-H torsion
[ 10167 10162 10161 10158 ] final   59.71 input  -65.29 | X-H torsion
[ 10718 10713 10712 10709 ] final   63.23 input   66.30 | X-H torsion
[ 10763 10752 10751 10750 ] final  175.72 input  -60.55 | X-H torsion
[ 11005 11000 10999 10996 ] final  157.18 input  -57.11 | X-H torsion

> <Gold.Protein.ActiveResidues>
 VAL166  LYS551  ARG553  GLY616  TRP617  ASP618  TYR619  PRO620  LYS621  CYS622 
 ASP623  PHE694  ASN695  SER759  ASP760  ASP761  ALA762  ILE779  LEU786  VAL792 
 PHE793  MET794  SER795  GLU796  ALA797  LYS798  CYS799  TRP800  GLU811  SER814 

> <Gold.Protein.RotatedAtoms>
  151.8337  135.0613  160.0439 H   0  0  0  0  0  0  0  0  0  0  0  0  # atno 6907 bound_to 6896
  152.2861  133.5512  159.5536 H   0  0  0  0  0  0  0  0  0  0  0  0  # atno 6908 bound_to 6896
  150.7210  134.0411  159.3808 H   0  0  0  0  0  0  0  0  0  0  0  0  # atno 6909 bound_to 6896
  145.1568  139.3178  143.4538 H   0  0  0  0  0  0  0  0  0  0  0  0  # atno 7974 bound_to 7965
  154.5823  140.2403  155.8036 H   0  0  0  0  0  0  0  0  0  0  0  0  # atno 8008 bound_to 7997
  156.2188  140.3004  155.9858 H   0  0  0  0  0  0  0  0  0  0  0  0  # atno 8009 bound_to 7997
  155.2519  140.0411  157.2978 H   0  0  0  0  0  0  0  0  0  0  0  0  # atno 8010 bound_to 7997
  140.1735  144.4253  150.6650 H   0  0  0  0  0  0  0  0  0  0  0  0  # atno 10167 bound_to 10162
  157.5957  130.9094  149.9689 H   0  0  0  0  0  0  0  0  0  0  0  0  # atno 10718 bound_to 10713
  154.4714  135.2771  155.1640 H   0  0  0  0  0  0  0  0  0  0  0  0  # atno 10763 bound_to 10752
  154.3387  135.6175  153.5589 H   0  0  0  0  0  0  0  0  0  0  0  0  # atno 10764 bound_to 10752
  152.9864  135.5783  154.5096 H   0  0  0  0  0  0  0  0  0  0  0  0  # atno 10765 bound_to 10752
  140.1745  134.8519  157.2730 H   0  0  0  0  0  0  0  0  0  0  0  0  # atno 11005 bound_to 11000
  146.3487  140.1663  142.8590 LP  0  0  0  0  0  0  0  0  0  0  0  0  # atno 17320 bound_to 7965
  145.0373  140.8918  143.5073 LP  0  0  0  0  0  0  0  0  0  0  0  0  # atno 17321 bound_to 7965
  140.6567  143.2239  151.5953 LP  0  0  0  0  0  0  0  0  0  0  0  0  # atno 17342 bound_to 10162
  139.5327  144.2868  152.1184 LP  0  0  0  0  0  0  0  0  0  0  0  0  # atno 17343 bound_to 10162
  156.1019  130.3655  150.0203 LP  0  0  0  0  0  0  0  0  0  0  0  0  # atno 17370 bound_to 10713
  156.8317  130.9394  151.3637 LP  0  0  0  0  0  0  0  0  0  0  0  0  # atno 17371 bound_to 10713
  140.2338  134.3877  155.7510 LP  0  0  0  0  0  0  0  0  0  0  0  0  # atno 17394 bound_to 11000
  141.2219  133.7229  156.8683 LP  0  0  0  0  0  0  0  0  0  0  0  0  # atno 17395 bound_to 11000

$$$$
