AV-unprocessed.smi:3335|AV-procd|sdf|12838|dock6
  -GOLD-   2272019223D 1   1.00000     0.00000
 Structure written by MMmdl.
 47 48  0  0  0  0  0  0  0  0  2 V2000
  150.1822  136.1742  155.9779 C   0  0  0  0  0  0  0  0  0  0  0  0
  150.3144  137.5760  155.4564 C   0  0  0  0  0  0  0  0  0  0  0  0
  150.9845  138.0126  154.2792 C   0  0  0  0  0  0  0  0  0  0  0  0
  150.9091  139.3212  154.1022 N   0  0  0  0  0  0  0  0  0  0  0  0
  150.2035  139.7725  155.1643 N   0  0  0  0  0  0  0  0  0  0  0  0
  149.8804  141.1885  155.3114 C   0  0  1  0  0  0  0  0  0  0  0  0
  148.5883  141.5725  154.5576 C   0  0  0  0  0  0  0  0  0  0  0  0
  149.8938  141.6258  156.7993 C   0  0  2  0  0  0  0  0  0  0  0  0
  148.4919  141.8103  157.4162 C   0  0  0  0  0  0  0  0  0  0  0  0
  150.7158  142.8522  156.9518 N   0  3  0  0  0  0  0  0  0  0  0  0
  150.9919  143.3040  158.3376 C   0  0  2  0  0  0  0  0  0  0  0  0
  151.5318  144.7429  158.3007 C   0  0  0  0  0  0  0  0  0  0  0  0
  152.0079  142.3837  159.0443 C   0  0  0  0  0  0  0  0  0  0  0  0
  152.4728  141.4264  158.4231 O   0  0  0  0  0  0  0  0  0  0  0  0
  152.3706  142.6521  160.3173 N   0  0  0  0  0  0  0  0  0  0  0  0
  153.3235  141.8340  161.0663 C   0  0  0  0  0  0  0  0  0  0  0  0
  153.2578  142.3321  162.5100 C   0  0  0  0  0  0  0  0  0  0  0  0
  152.7816  143.7720  162.3838 C   0  0  0  0  0  0  0  0  0  0  0  0
  151.8924  143.7634  161.1404 C   0  0  0  0  0  0  0  0  0  0  0  0
  149.8215  138.7335  155.9879 C   0  0  0  0  0  0  0  0  0  0  0  0
  150.8589  135.4864  155.4702 H   0  0  0  0  0  0  0  0  0  0  0  0
  149.1716  135.7890  155.8424 H   0  0  0  0  0  0  0  0  0  0  0  0
  150.4085  136.1179  157.0428 H   0  0  0  0  0  0  0  0  0  0  0  0
  151.5164  137.4193  153.5501 H   0  0  0  0  0  0  0  0  0  0  0  0
  150.6923  141.7244  154.8165 H   0  0  0  0  0  0  0  0  0  0  0  0
  148.4146  142.6482  154.5871 H   0  0  0  0  0  0  0  0  0  0  0  0
  147.7067  141.0859  154.9751 H   0  0  0  0  0  0  0  0  0  0  0  0
  148.6531  141.2864  153.5074 H   0  0  0  0  0  0  0  0  0  0  0  0
  150.3876  140.8247  157.3505 H   0  0  0  0  0  0  0  0  0  0  0  0
  147.8873  140.9099  157.3144 H   0  0  0  0  0  0  0  0  0  0  0  0
  147.9498  142.6307  156.9463 H   0  0  0  0  0  0  0  0  0  0  0  0
  148.5460  142.0249  158.4828 H   0  0  0  0  0  0  0  0  0  0  0  0
  151.6112  142.6842  156.5150 H   0  0  0  0  0  0  0  0  0  0  0  0
  150.0477  143.3135  158.8790 H   0  0  0  0  0  0  0  0  0  0  0  0
  151.7368  145.1219  159.3023 H   0  0  0  0  0  0  0  0  0  0  0  0
  150.8107  145.4187  157.8402 H   0  0  0  0  0  0  0  0  0  0  0  0
  152.4582  144.8085  157.7280 H   0  0  0  0  0  0  0  0  0  0  0  0
  153.0899  140.7697  161.0053 H   0  0  0  0  0  0  0  0  0  0  0  0
  154.3222  141.9861  160.6539 H   0  0  0  0  0  0  0  0  0  0  0  0
  152.5193  141.7511  163.0644 H   0  0  0  0  0  0  0  0  0  0  0  0
  154.2116  142.2451  163.0314 H   0  0  0  0  0  0  0  0  0  0  0  0
  152.2616  144.1260  163.2744 H   0  0  0  0  0  0  0  0  0  0  0  0
  153.6387  144.4254  162.2158 H   0  0  0  0  0  0  0  0  0  0  0  0
  151.9417  144.7211  160.6218 H   0  0  0  0  0  0  0  0  0  0  0  0
  150.8540  143.5785  161.4198 H   0  0  0  0  0  0  0  0  0  0  0  0
  149.2358  138.9026  156.8795 H   0  0  0  0  0  0  0  0  0  0  0  0
  150.2536  143.5979  156.4517 H   0  0  0  0  0  0  0  0  0  0  0  0
  1  2  1  0  0  0  0
  1 21  1  0  0  0  0
  1 22  1  0  0  0  0
  1 23  1  0  0  0  0
  2 20  2  0  0  0  0
  2  3  1  0  0  0  0
  3  4  2  0  0  0  0
  3 24  1  0  0  0  0
  4  5  1  0  0  0  0
  5  6  1  0  0  0  0
  5 20  1  0  0  0  0
  6  7  1  0  0  0  0
  6  8  1  0  0  0  0
  6 25  1  0  0  0  0
  7 26  1  0  0  0  0
  7 27  1  0  0  0  0
  7 28  1  0  0  0  0
  8  9  1  0  0  0  0
  8 10  1  0  0  0  0
  8 29  1  0  0  0  0
  9 30  1  0  0  0  0
  9 31  1  0  0  0  0
  9 32  1  0  0  0  0
 10 11  1  0  0  0  0
 10 33  1  0  0  0  0
 10 47  1  0  0  0  0
 11 12  1  0  0  0  0
 11 13  1  0  0  0  0
 11 34  1  0  0  0  0
 12 35  1  0  0  0  0
 12 36  1  0  0  0  0
 12 37  1  0  0  0  0
 13 14  2  0  0  0  0
 13 15  1  0  0  0  0
 15 19  1  0  0  0  0
 15 16  1  0  0  0  0
 16 17  1  0  0  0  0
 16 38  1  0  0  0  0
 16 39  1  0  0  0  0
 17 18  1  0  0  0  0
 17 40  1  0  0  0  0
 17 41  1  0  0  0  0
 18 19  1  0  0  0  0
 18 42  1  0  0  0  0
 18 43  1  0  0  0  0
 19 44  1  0  0  0  0
 19 45  1  0  0  0  0
 20 46  1  0  0  0  0
M  CHG  1  10   1
M  END
> <s_m_source_file>
AV-unprocessed.smi

> <i_m_source_file_index>
3335

> <i_lp_mmshare_version>
43012

> <i_f3d_flags>
0

> <s_epik_input>
W0NIM11jMVtjSF1ubihbY0hdMSlbQ0BIXShbQ0gzXSlbQ0BIXShbQ0gzXSlbTkhdW0NASF0oW0NIM10pQyg9TylOMltDSDJdW0NIMl1bQ0gyXVtDSDJdMg==

> <s_epik_cmdline>
J2VwaWtfcHl0aG9uJywgJy1waCcsICc3LjAnLCAnLXRuJywgJzgnLCAnLW1hJywgJzIwMCcsICctbWV0YWxfYmluZGluZycsICctaW1hZScsICc8aW5maWxlLm1hZT4nLCAnLW9tYWUnLCAnPG91dGZpbGUubWFlPic=

> <r_lp_tautomer_probability>
1

> <r_epik_Ionization_Penalty>
0.14175

> <r_epik_Ionization_Penalty_Charging>
0.141731

> <r_epik_Ionization_Penalty_Neutral>
1.91261e-05

> <r_epik_State_Penalty>
0.131043

> <r_epik_Charging_Adjusted_Penalty>
0.272773

> <i_epik_Tot_Q>
1

> <i_epik_Tot_abs_Q>
1

> <r_epik_Metal_State_Penalty>
0.131408

> <b_epik_Metal_Only>
0

> <s_lp_Force_Field>
OPLS_2005

> <r_lp_Energy>
39.0238

> <b_lp_Chiralities_Consistent>
1

> <s_lp_Variant>
AV-unprocessed.smi:3335-2

> <Gold.Version>
5.8.1

> <Gold.Id.Protein>
6NUR|6NUR_protein|mol2

> <Gold.PLP.Fitness>
54.1900

> <Gold.PLP.PLP>
-45.9489

> <Gold.PLP.part.hbond>
-2.0000

> <Gold.PLP.part.metal>
0.0000

> <Gold.PLP.part.buried>
-4.5799

> <Gold.PLP.part.nonpolar>
-39.4173

> <Gold.PLP.part.repulsive>
0.2164

> <Gold.PLP.ligand.clash>
0.0000

> <Gold.PLP.ligand.torsion>
2.0039

> <Gold.PLP.Chemscore.Hbond>
3.0000

> <Gold.PLP.Chemscore.CHOScore>
1.0000

> <Gold.PLP.Chemscore.Metal>
0.0000

> <Gold.Chemscore.Hbonds>
donor molecule, donor type, donor heavy atom, donor atom, acceptor molecule, acceptor atom, score
      L1  H    10    47       P1  8028  2.00
      P1  H  7989  7998       L1     4  1.00
      L1  C     3    24       P1  7949  1.00

> <Gold.PLP.Chemscore.Internal.Correction>
0.2489

> <Gold.Rescore>
     Score         DG    S(hbond)    S(metal)    S(lipo)     H(rot)  DE(clash)    DE(int)     intcor
     17.95     -20.07       1.92        0.00     106.60       1.68       0.09       2.03       ----

> <Gold.Chemscore.Fitness>
17.9536

> <Gold.Chemscore.DG>
-20.0706

> <Gold.Chemscore.ZeroCoef>
-5.4800

> <Gold.Chemscore.Hbond>
1.9201

> <Gold.Chemscore.Metal>
0.0000

> <Gold.Chemscore.Lipo>
106.6048

> <Gold.Chemscore.Internal_Hbond>
0.0000

> <Gold.Chemscore.DEClash>
0.0869

> <Gold.Chemscore.DEInternal>
2.0301

> <Gold.Chemscore.Rot>
1.6778

> <Gold.Chemscore.Internal.Correction>
   9.000000E+99

> <Gold.Chemscore.Hbonds>
donor molecule, donor type, donor heavy atom, donor atom, acceptor molecule, acceptor atom, score
      L1  H    10    47       P1  8028  0.99
      P1  H  7989  7998       L1     4  0.35

> <Gold.Chemscore.Hbond.Weighted>
-6.4130

> <Gold.Chemscore.Metal.Weighted>
-0.0000

> <Gold.Chemscore.Lipo.Weighted>
-12.4728

> <Gold.Chemscore.Internal_Hbond.Weighted>
0.0000

> <Gold.Chemscore.DEClash.Weighted>
0.0869

> <Gold.Chemscore.DEInternal.Weighted>
2.0301

> <Gold.Chemscore.Rot.Weighted>
4.2952

> <Gold.Chemscore.Internal.Correction.Weighted>
   9.000000E+99

> <Gold.Protein.RotatedTorsions>
[ 6907 6896 6895 6894 ] final  158.69 input  -60.11 | X-H torsion
[ 7974 7965 7964 7962 ] final  -62.68 input  175.53 | X-H torsion
[ 8008 7997 7996 7995 ] final -119.03 input   59.86 | X-H torsion
[ 10167 10162 10161 10158 ] final    0.60 input  -65.29 | X-H torsion
[ 10718 10713 10712 10709 ] final  -25.53 input   66.30 | X-H torsion
[ 10763 10752 10751 10750 ] final  -85.98 input  -60.55 | X-H torsion
[ 11005 11000 10999 10996 ] final   17.66 input  -57.11 | X-H torsion

> <Gold.Protein.ActiveResidues>
 VAL166  LYS551  ARG553  GLY616  TRP617  ASP618  TYR619  PRO620  LYS621  CYS622 
 ASP623  PHE694  ASN695  SER759  ASP760  ASP761  ALA762  ILE779  LEU786  VAL792 
 PHE793  MET794  SER795  GLU796  ALA797  LYS798  CYS799  TRP800  GLU811  SER814 

> <Gold.Protein.RotatedAtoms>
  151.9966  133.3810  159.4164 H   0  0  0  0  0  0  0  0  0  0  0  0  # atno 6907 bound_to 6896
  150.6915  134.3879  159.5072 H   0  0  0  0  0  0  0  0  0  0  0  0  # atno 6908 bound_to 6896
  152.1620  134.8904  160.0591 H   0  0  0  0  0  0  0  0  0  0  0  0  # atno 6909 bound_to 6896
  145.7884  140.8723  143.0294 H   0  0  0  0  0  0  0  0  0  0  0  0  # atno 7974 bound_to 7965
  155.1092  140.0397  157.2719 H   0  0  0  0  0  0  0  0  0  0  0  0  # atno 8008 bound_to 7997
  154.6698  140.2609  155.6994 H   0  0  0  0  0  0  0  0  0  0  0  0  # atno 8009 bound_to 7997
  156.2653  140.2800  156.1203 H   0  0  0  0  0  0  0  0  0  0  0  0  # atno 8010 bound_to 7997
  140.6721  143.7019  150.7945 H   0  0  0  0  0  0  0  0  0  0  0  0  # atno 10167 bound_to 10162
  156.4632  130.4508  149.6915 H   0  0  0  0  0  0  0  0  0  0  0  0  # atno 10718 bound_to 10713
  154.6173  135.5465  153.7537 H   0  0  0  0  0  0  0  0  0  0  0  0  # atno 10763 bound_to 10752
  153.0222  135.6404  154.1492 H   0  0  0  0  0  0  0  0  0  0  0  0  # atno 10764 bound_to 10752
  154.1427  135.2907  155.3136 H   0  0  0  0  0  0  0  0  0  0  0  0  # atno 10765 bound_to 10752
  140.4335  134.1395  155.7683 H   0  0  0  0  0  0  0  0  0  0  0  0  # atno 11005 bound_to 11000
  144.6785  140.0088  143.7484 LP  0  0  0  0  0  0  0  0  0  0  0  0  # atno 17320 bound_to 7965
  146.0002  139.3085  143.0932 LP  0  0  0  0  0  0  0  0  0  0  0  0  # atno 17321 bound_to 7965
  140.0706  143.5065  152.2582 LP  0  0  0  0  0  0  0  0  0  0  0  0  # atno 17342 bound_to 10162
  139.5995  144.7578  151.3207 LP  0  0  0  0  0  0  0  0  0  0  0  0  # atno 17343 bound_to 10162
  156.3695  130.7523  151.2504 LP  0  0  0  0  0  0  0  0  0  0  0  0  # atno 17370 bound_to 10713
  157.7496  131.0327  150.4239 LP  0  0  0  0  0  0  0  0  0  0  0  0  # atno 17371 bound_to 10713
  141.1736  133.8560  157.1494 LP  0  0  0  0  0  0  0  0  0  0  0  0  # atno 17394 bound_to 11000
  140.0118  134.9985  157.0411 LP  0  0  0  0  0  0  0  0  0  0  0  0  # atno 17395 bound_to 11000

$$$$
