AV-unprocessed.smi:937|AV-procd|sdf|4210|dock4
  -GOLD-   22720 2113D 1   1.00000     0.00000
 Structure written by MMmdl.
 45 46  0  0  0  0  0  0  0  0  1 V2000
  152.4790  144.0867  159.5711 C   0  0  0  0  0  0  0  0  0  0  0  0
  152.0763  142.9719  158.6285 C   0  0  0  0  0  0  0  0  0  0  0  0
  152.5405  141.6551  158.8303 C   0  0  0  0  0  0  0  0  0  0  0  0
  152.1312  140.6539  157.9286 C   0  0  0  0  0  0  0  0  0  0  0  0
  151.2760  141.0064  156.8646 C   0  0  0  0  0  0  0  0  0  0  0  0
  150.8067  139.9686  155.8645 C   0  0  0  0  0  0  0  0  0  0  0  0
  151.1016  138.5358  156.3360 C   0  0  0  0  0  0  0  0  0  0  0  0
  150.2326  137.5703  155.6746 N   0  0  0  0  0  0  0  0  0  0  0  0
  150.5693  136.3013  155.3876 C   0  0  0  0  0  0  0  0  0  0  0  0
  151.6579  135.8083  155.6770 O   0  0  0  0  0  0  0  0  0  0  0  0
  149.6193  135.5943  154.7493 N   0  0  0  0  0  0  0  0  0  0  0  0
  149.6672  134.2018  154.2992 C   0  0  1  0  0  0  0  0  0  0  0  0
  150.1481  133.2772  155.4362 C   0  0  0  0  0  0  0  0  0  0  0  0
  150.1255  131.8042  155.0032 C   0  0  0  0  0  0  0  0  0  0  0  0
  148.7298  131.3885  154.5137 C   0  0  0  0  0  0  0  0  0  0  0  0
  148.2328  132.2971  153.3695 C   0  0  1  0  0  0  0  0  0  0  0  0
  146.8358  131.8783  152.8661 C   0  0  0  0  0  0  0  0  0  0  0  0
  146.5541  132.4670  151.7034 F   0  0  0  0  0  0  0  0  0  0  0  0
  146.7862  130.5563  152.7029 F   0  0  0  0  0  0  0  0  0  0  0  0
  145.9071  132.2215  153.7586 F   0  0  0  0  0  0  0  0  0  0  0  0
  148.2690  133.7762  153.8118 C   0  0  0  0  0  0  0  0  0  0  0  0
  150.8696  142.3529  156.7512 C   0  0  0  0  0  0  0  0  0  0  0  0
  151.2564  143.3192  157.6115 N   0  0  0  0  0  0  0  0  0  0  0  0
  153.4304  143.8630  160.0546 H   0  0  0  0  0  0  0  0  0  0  0  0
  151.7224  144.2153  160.3454 H   0  0  0  0  0  0  0  0  0  0  0  0
  152.5868  145.0307  159.0356 H   0  0  0  0  0  0  0  0  0  0  0  0
  153.1940  141.4158  159.6565 H   0  0  0  0  0  0  0  0  0  0  0  0
  152.4691  139.6355  158.0528 H   0  0  0  0  0  0  0  0  0  0  0  0
  149.7363  140.0950  155.6956 H   0  0  0  0  0  0  0  0  0  0  0  0
  151.2936  140.1607  154.9073 H   0  0  0  0  0  0  0  0  0  0  0  0
  152.1481  138.2813  156.1584 H   0  0  0  0  0  0  0  0  0  0  0  0
  150.9408  138.4567  157.4115 H   0  0  0  0  0  0  0  0  0  0  0  0
  149.3145  137.8915  155.4046 H   0  0  0  0  0  0  0  0  0  0  0  0
  148.7520  136.0792  154.5693 H   0  0  0  0  0  0  0  0  0  0  0  0
  150.3524  134.1167  153.4537 H   0  0  0  0  0  0  0  0  0  0  0  0
  151.1573  133.5478  155.7485 H   0  0  0  0  0  0  0  0  0  0  0  0
  149.5101  133.4063  156.3118 H   0  0  0  0  0  0  0  0  0  0  0  0
  150.8552  131.6457  154.2080 H   0  0  0  0  0  0  0  0  0  0  0  0
  150.4315  131.1683  155.8345 H   0  0  0  0  0  0  0  0  0  0  0  0
  148.7580  130.3500  154.1831 H   0  0  0  0  0  0  0  0  0  0  0  0
  148.0278  131.4265  155.3475 H   0  0  0  0  0  0  0  0  0  0  0  0
  148.9260  132.1852  152.5340 H   0  0  0  0  0  0  0  0  0  0  0  0
  147.5395  133.9360  154.6074 H   0  0  0  0  0  0  0  0  0  0  0  0
  147.9637  134.4165  152.9834 H   0  0  0  0  0  0  0  0  0  0  0  0
  150.2174  142.6644  155.9485 H   0  0  0  0  0  0  0  0  0  0  0  0
  1  2  1  0  0  0  0
  1 24  1  0  0  0  0
  1 25  1  0  0  0  0
  1 26  1  0  0  0  0
  2 23  1  0  0  0  0
  2  3  2  0  0  0  0
  3  4  1  0  0  0  0
  3 27  1  0  0  0  0
  4  5  2  0  0  0  0
  4 28  1  0  0  0  0
  5  6  1  0  0  0  0
  5 22  1  0  0  0  0
  6  7  1  0  0  0  0
  6 29  1  0  0  0  0
  6 30  1  0  0  0  0
  7  8  1  0  0  0  0
  7 31  1  0  0  0  0
  7 32  1  0  0  0  0
  8  9  1  0  0  0  0
  8 33  1  0  0  0  0
  9 10  2  0  0  0  0
  9 11  1  0  0  0  0
 11 12  1  0  0  0  0
 11 34  1  0  0  0  0
 12 21  1  0  0  0  0
 12 13  1  0  0  0  0
 12 35  1  0  0  0  0
 13 14  1  0  0  0  0
 13 36  1  0  0  0  0
 13 37  1  0  0  0  0
 14 15  1  0  0  0  0
 14 38  1  0  0  0  0
 14 39  1  0  0  0  0
 15 16  1  0  0  0  0
 15 40  1  0  0  0  0
 15 41  1  0  0  0  0
 16 17  1  0  0  0  0
 16 21  1  0  0  0  0
 16 42  1  0  0  0  0
 17 18  1  0  0  0  0
 17 19  1  0  0  0  0
 17 20  1  0  0  0  0
 21 43  1  0  0  0  0
 21 44  1  0  0  0  0
 22 23  2  0  0  0  0
 22 45  1  0  0  0  0
M  END
> <s_m_source_file>
AV-unprocessed.smi

> <i_m_source_file_index>
937

> <i_lp_mmshare_version>
43012

> <i_f3d_flags>
0

> <s_epik_input>
W0NIM11jMVtjSF1bY0hdYyhbY0hdbjEpW0NIMl1bQ0gyXVtOSF1DKD1PKVtOSF1bQ0BASF0yW0NIMl1bQ0gyXVtDSDJdW0NAQEhdKEMoRikoRilGKVtDSDJdMg==

> <s_epik_cmdline>
J2VwaWtfcHl0aG9uJywgJy1waCcsICc3LjAnLCAnLXRuJywgJzgnLCAnLW1hJywgJzIwMCcsICctbWV0YWxfYmluZGluZycsICctaW1hZScsICc8aW5maWxlLm1hZT4nLCAnLW9tYWUnLCAnPG91dGZpbGUubWFlPic=

> <r_epik_Ionization_Penalty>
0.0563445

> <r_epik_Ionization_Penalty_Charging>
0

> <r_epik_Ionization_Penalty_Neutral>
0.0563445

> <r_epik_State_Penalty>
0.0485409

> <r_epik_Charging_Adjusted_Penalty>
0.0485409

> <i_epik_Tot_Q>
0

> <i_epik_Tot_abs_Q>
0

> <r_epik_Metal_State_Penalty>
0.0443056

> <b_epik_Metal_Only>
0

> <s_lp_Force_Field>
OPLS_2005

> <r_lp_Energy>
17.7613

> <b_lp_Chiralities_Consistent>
1

> <s_lp_Variant>
AV-unprocessed.smi:937-2

> <Gold.Version>
5.8.1

> <Gold.Id.Protein>
6NUR|6NUR_protein|mol2

> <Gold.PLP.Fitness>
44.9456

> <Gold.PLP.PLP>
-40.3839

> <Gold.PLP.part.hbond>
-2.0000

> <Gold.PLP.part.metal>
0.0000

> <Gold.PLP.part.buried>
-1.8221

> <Gold.PLP.part.nonpolar>
-36.7076

> <Gold.PLP.part.repulsive>
0.2437

> <Gold.PLP.ligand.clash>
0.0000

> <Gold.PLP.ligand.torsion>
0.7376

> <Gold.PLP.Chemscore.Hbond>
1.0000

> <Gold.PLP.Chemscore.CHOScore>
0.9988

> <Gold.PLP.Chemscore.Metal>
0.0000

> <Gold.Chemscore.Hbonds>
donor molecule, donor type, donor heavy atom, donor atom, acceptor molecule, acceptor atom, score
      P1  H 10752 10763       L1    10  1.00
      L1  C    22    45       P1  8028  1.00

> <Gold.PLP.Chemscore.Internal.Correction>
0.0406

> <Gold.Rescore>
     Score         DG    S(hbond)    S(metal)    S(lipo)     H(rot)  DE(clash)    DE(int)     intcor
     16.11     -16.78       0.99        0.00     102.92       1.58       0.02       0.65       ----

> <Gold.Chemscore.Fitness>
16.1078

> <Gold.Chemscore.DG>
-16.7786

> <Gold.Chemscore.ZeroCoef>
-5.4800

> <Gold.Chemscore.Hbond>
0.9923

> <Gold.Chemscore.Metal>
0.0000

> <Gold.Chemscore.Lipo>
102.9225

> <Gold.Chemscore.Internal_Hbond>
0.0000

> <Gold.Chemscore.DEClash>
0.0185

> <Gold.Chemscore.DEInternal>
0.6524

> <Gold.Chemscore.Rot>
1.5849

> <Gold.Chemscore.Internal.Correction>
   9.000000E+99

> <Gold.Chemscore.Hbonds>
donor molecule, donor type, donor heavy atom, donor atom, acceptor molecule, acceptor atom, score
      P1  H 10752 10763       L1    10  0.99

> <Gold.Chemscore.Hbond.Weighted>
-3.3141

> <Gold.Chemscore.Metal.Weighted>
-0.0000

> <Gold.Chemscore.Lipo.Weighted>
-12.0419

> <Gold.Chemscore.Internal_Hbond.Weighted>
0.0000

> <Gold.Chemscore.DEClash.Weighted>
0.0185

> <Gold.Chemscore.DEInternal.Weighted>
0.6524

> <Gold.Chemscore.Rot.Weighted>
4.0574

> <Gold.Chemscore.Internal.Correction.Weighted>
   9.000000E+99

> <Gold.Protein.RotatedTorsions>
[ 6907 6896 6895 6894 ] final -119.79 input  -60.11 | X-H torsion
[ 7974 7965 7964 7962 ] final   58.35 input  175.53 | X-H torsion
[ 8008 7997 7996 7995 ] final  127.22 input   59.86 | X-H torsion
[ 10167 10162 10161 10158 ] final  -58.43 input  -65.29 | X-H torsion
[ 10718 10713 10712 10709 ] final  -26.51 input   66.30 | X-H torsion
[ 10763 10752 10751 10750 ] final   75.95 input  -60.55 | X-H torsion
[ 11005 11000 10999 10996 ] final  -18.28 input  -57.11 | X-H torsion

> <Gold.Protein.ActiveResidues>
 VAL166  LYS551  ARG553  GLY616  TRP617  ASP618  TYR619  PRO620  LYS621  CYS622 
 ASP623  PHE694  ASN695  SER759  ASP760  ASP761  ALA762  ILE779  LEU786  VAL792 
 PHE793  MET794  SER795  GLU796  ALA797  LYS798  CYS799  TRP800  GLU811  SER814 

> <Gold.Protein.RotatedAtoms>
  150.8336  133.8051  159.3088 H   0  0  0  0  0  0  0  0  0  0  0  0  # atno 6907 bound_to 6896
  151.5773  135.1058  160.0018 H   0  0  0  0  0  0  0  0  0  0  0  0  # atno 6908 bound_to 6896
  152.4412  133.7409  159.6697 H   0  0  0  0  0  0  0  0  0  0  0  0  # atno 6909 bound_to 6896
  145.9191  139.3715  143.0489 H   0  0  0  0  0  0  0  0  0  0  0  0  # atno 7974 bound_to 7965
  156.2885  140.2674  156.2238 H   0  0  0  0  0  0  0  0  0  0  0  0  # atno 8008 bound_to 7997
  155.0141  140.0387  157.2429 H   0  0  0  0  0  0  0  0  0  0  0  0  # atno 8009 bound_to 7997
  154.7492  140.2740  155.6312 H   0  0  0  0  0  0  0  0  0  0  0  0  # atno 8010 bound_to 7997
  140.6198  143.2415  151.5509 H   0  0  0  0  0  0  0  0  0  0  0  0  # atno 10167 bound_to 10162
  156.4503  130.4482  149.6994 H   0  0  0  0  0  0  0  0  0  0  0  0  # atno 10718 bound_to 10713
  153.0690  135.4969  154.8264 H   0  0  0  0  0  0  0  0  0  0  0  0  # atno 10763 bound_to 10752
  154.6996  135.2999  154.9363 H   0  0  0  0  0  0  0  0  0  0  0  0  # atno 10764 bound_to 10752
  154.0091  135.6756  153.4817 H   0  0  0  0  0  0  0  0  0  0  0  0  # atno 10765 bound_to 10752
  140.8252  133.8038  155.9701 H   0  0  0  0  0  0  0  0  0  0  0  0  # atno 11005 bound_to 11000
  145.8573  140.9495  143.0718 LP  0  0  0  0  0  0  0  0  0  0  0  0  # atno 17320 bound_to 7965
  144.6751  140.0485  143.7479 LP  0  0  0  0  0  0  0  0  0  0  0  0  # atno 17321 bound_to 7965
  139.5429  144.2599  152.1386 LP  0  0  0  0  0  0  0  0  0  0  0  0  # atno 17342 bound_to 10162
  140.1817  144.4838  150.6525 LP  0  0  0  0  0  0  0  0  0  0  0  0  # atno 17343 bound_to 10162
  156.3823  130.7585  151.2579 LP  0  0  0  0  0  0  0  0  0  0  0  0  # atno 17370 bound_to 10713
  157.7503  131.0292  150.4082 LP  0  0  0  0  0  0  0  0  0  0  0  0  # atno 17371 bound_to 10713
  140.9057  134.2323  157.5016 LP  0  0  0  0  0  0  0  0  0  0  0  0  # atno 17394 bound_to 11000
  139.8707  134.9727  156.4782 LP  0  0  0  0  0  0  0  0  0  0  0  0  # atno 17395 bound_to 11000

$$$$
