AV-unprocessed.smi:49|AV-procd|sdf|467|dock10
  -GOLD-   2262016333D 1   1.00000     0.00000
 Structure written by MMmdl.
 28 29  0  0  0  0  0  0  0  0  2 V2000
  143.7901  134.2111  151.9413 C   0  0  0  0  0  0  0  0  0  0  0  0
  144.6613  134.7056  153.1015 C   0  0  0  0  0  0  0  0  0  0  0  0
  144.9864  136.1579  152.9850 C   0  0  0  0  0  0  0  0  0  0  0  0
  146.2686  136.6323  152.9999 N   0  0  0  0  0  0  0  0  0  0  0  0
  146.0391  137.9414  152.9182 C   0  0  0  0  0  0  0  0  0  0  0  0
  147.0818  139.0180  152.8722 C   0  0  2  0  0  0  0  0  0  0  0  0
  147.9440  139.1383  154.1294 C   0  0  0  0  0  0  0  0  0  0  0  0
  148.2806  140.6280  154.1747 C   0  0  1  0  0  0  0  0  0  0  0  0
  149.4214  140.8920  153.3824 O   0  0  0  0  0  0  0  0  0  0  0  0
  147.0490  141.3120  153.5591 C   0  0  0  0  0  0  0  0  0  0  0  0
  146.3337  140.2862  152.7721 N   0  3  0  0  0  0  0  0  0  0  0  0
  144.7352  138.2237  152.8646 N   0  0  0  0  0  0  0  0  0  0  0  0
  144.0251  137.0775  152.9197 N   0  0  0  0  0  0  0  0  0  0  0  0
  147.7084  138.9088  151.9855 H   0  0  0  0  0  0  0  0  0  0  0  0
  148.4747  140.9744  155.1904 H   0  0  0  0  0  0  0  0  0  0  0  0
  144.3037  139.1349  152.8000 H   0  0  0  0  0  0  0  0  0  0  0  0
  143.5662  133.1495  152.0489 H   0  0  0  0  0  0  0  0  0  0  0  0
  144.2939  134.3498  150.9841 H   0  0  0  0  0  0  0  0  0  0  0  0
  142.8424  134.7493  151.9032 H   0  0  0  0  0  0  0  0  0  0  0  0
  144.1503  134.5302  154.0489 H   0  0  0  0  0  0  0  0  0  0  0  0
  145.5880  134.1316  153.1393 H   0  0  0  0  0  0  0  0  0  0  0  0
  147.3506  138.8907  155.0114 H   0  0  0  0  0  0  0  0  0  0  0  0
  148.8142  138.4807  154.1226 H   0  0  0  0  0  0  0  0  0  0  0  0
  149.3305  140.4372  152.5582 H   0  0  0  0  0  0  0  0  0  0  0  0
  146.3772  141.6570  154.3457 H   0  0  0  0  0  0  0  0  0  0  0  0
  147.3068  142.1761  152.9450 H   0  0  0  0  0  0  0  0  0  0  0  0
  146.2401  140.5654  151.8063 H   0  0  0  0  0  0  0  0  0  0  0  0
  145.4183  140.1507  153.1782 H   0  0  0  0  0  0  0  0  0  0  0  0
  1  2  1  0  0  0  0
  1 17  1  0  0  0  0
  1 18  1  0  0  0  0
  1 19  1  0  0  0  0
  2 20  1  0  0  0  0
  2 21  1  0  0  0  0
  2  3  1  0  0  0  0
  3  4  1  0  0  0  0
  3 13  2  0  0  0  0
  4  5  2  0  0  0  0
  5  6  1  0  0  0  0
  5 12  1  0  0  0  0
  6 14  1  0  0  0  0
  6 11  1  0  0  0  0
  6  7  1  0  0  0  0
  7  8  1  0  0  0  0
  7 22  1  0  0  0  0
  7 23  1  0  0  0  0
  8 15  1  0  0  0  0
  8  9  1  0  0  0  0
  8 10  1  0  0  0  0
  9 24  1  0  0  0  0
 10 11  1  0  0  0  0
 10 25  1  0  0  0  0
 10 26  1  0  0  0  0
 11 27  1  0  0  0  0
 11 28  1  0  0  0  0
 12 13  1  0  0  0  0
 12 16  1  0  0  0  0
M  CHG  1  11   1
M  END
> <s_m_source_file>
AV-unprocessed.smi

> <i_m_source_file_index>
49

> <i_lp_mmshare_version>
43012

> <i_f3d_flags>
0

> <s_epik_input>
W0NIM11bQ0gyXWMxbmMobltuSF0xKVtDQEBIXTJbQ0gyXVtDQEBIXShbT0hdKVtDSDJdW05IXTI=

> <s_epik_cmdline>
J2VwaWtfcHl0aG9uJywgJy1waCcsICc3LjAnLCAnLXRuJywgJzgnLCAnLW1hJywgJzIwMCcsICctbWV0YWxfYmluZGluZycsICctaW1hZScsICc8aW5maWxlLm1hZT4nLCAnLW9tYWUnLCAnPG91dGZpbGUubWFlPic=

> <r_epik_Ionization_Penalty>
0.372103

> <r_epik_Ionization_Penalty_Charging>
0.0688988

> <r_epik_Ionization_Penalty_Neutral>
0.303204

> <r_epik_State_Penalty>
0.737493

> <r_epik_Charging_Adjusted_Penalty>
0.806392

> <i_epik_Tot_Q>
1

> <i_epik_Tot_abs_Q>
1

> <r_epik_Metal_State_Penalty>
1.01235

> <b_epik_Metal_Only>
0

> <s_lp_Force_Field>
OPLS_2005

> <r_lp_Energy>
18.9462

> <b_lp_Chiralities_Consistent>
1

> <s_lp_Variant>
AV-unprocessed.smi:49-5

> <Gold.Version>
5.8.1

> <Gold.Id.Protein>
6NUR|6NUR_protein|mol2

> <Gold.PLP.Fitness>
34.6160

> <Gold.PLP.PLP>
-20.4402

> <Gold.PLP.part.hbond>
-5.4760

> <Gold.PLP.part.metal>
0.0000

> <Gold.PLP.part.buried>
-4.8565

> <Gold.PLP.part.nonpolar>
-10.6710

> <Gold.PLP.part.repulsive>
0.7874

> <Gold.PLP.ligand.clash>
0.0000

> <Gold.PLP.ligand.torsion>
0.0301

> <Gold.PLP.Chemscore.Hbond>
4.7389

> <Gold.PLP.Chemscore.CHOScore>
0.0000

> <Gold.PLP.Chemscore.Metal>
0.0000

> <Gold.Chemscore.Hbonds>
donor molecule, donor type, donor heavy atom, donor atom, acceptor molecule, acceptor atom, score
      L1  H     9    24       P1  7957  0.86
      L1  H    11    28       P1 10175  1.22
      L1  H    12    16       P1 10175  0.91
      P1  H  7989  7998       L1     9  0.14
      P1  H  8011  8017       L1     9  0.25

> <Gold.PLP.Chemscore.Internal.Correction>
0.0196

> <Gold.Rescore>
     Score         DG    S(hbond)    S(metal)    S(lipo)     H(rot)  DE(clash)    DE(int)     intcor
     14.17     -14.30       2.93        0.00      32.94       1.89       0.09       0.04       ----

> <Gold.Chemscore.Fitness>
14.1711

> <Gold.Chemscore.DG>
-14.2998

> <Gold.Chemscore.ZeroCoef>
-5.4800

> <Gold.Chemscore.Hbond>
2.9340

> <Gold.Chemscore.Metal>
0.0000

> <Gold.Chemscore.Lipo>
32.9414

> <Gold.Chemscore.Internal_Hbond>
0.0000

> <Gold.Chemscore.DEClash>
0.0853

> <Gold.Chemscore.DEInternal>
0.0435

> <Gold.Chemscore.Rot>
1.8883

> <Gold.Chemscore.Internal.Correction>
   9.000000E+99

> <Gold.Chemscore.Hbonds>
donor molecule, donor type, donor heavy atom, donor atom, acceptor molecule, acceptor atom, score
      L1  H     9    24       P1  7957  0.83
      L1  H    11    28       P1 10175  0.62
      L1  H    12    16       P1 10175  0.89
      P1  H  7989  7998       L1     9  0.02

> <Gold.Chemscore.Hbond.Weighted>
-9.7997

> <Gold.Chemscore.Metal.Weighted>
-0.0000

> <Gold.Chemscore.Lipo.Weighted>
-3.8541

> <Gold.Chemscore.Internal_Hbond.Weighted>
0.0000

> <Gold.Chemscore.DEClash.Weighted>
0.0853

> <Gold.Chemscore.DEInternal.Weighted>
0.0435

> <Gold.Chemscore.Rot.Weighted>
4.8340

> <Gold.Chemscore.Internal.Correction.Weighted>
   9.000000E+99

> <Gold.Protein.RotatedTorsions>
[ 6907 6896 6895 6894 ] final  161.70 input  -60.11 | X-H torsion
[ 7974 7965 7964 7962 ] final  -43.67 input  175.53 | X-H torsion
[ 8008 7997 7996 7995 ] final  124.05 input   59.86 | X-H torsion
[ 10167 10162 10161 10158 ] final   -8.27 input  -65.29 | X-H torsion
[ 10718 10713 10712 10709 ] final  -37.40 input   66.30 | X-H torsion
[ 10763 10752 10751 10750 ] final   33.45 input  -60.55 | X-H torsion
[ 11005 11000 10999 10996 ] final   69.51 input  -57.11 | X-H torsion

> <Gold.Protein.ActiveResidues>
 VAL166  LYS551  ARG553  GLY616  TRP617  ASP618  TYR619  PRO620  LYS621  CYS622 
 ASP623  PHE694  ASN695  SER759  ASP760  ASP761  ALA762  ILE779  LEU786  VAL792 
 PHE793  MET794  SER795  GLU796  ALA797  LYS798  CYS799  TRP800  GLU811  SER814 

> <Gold.Protein.RotatedAtoms>
  151.9516  133.3667  159.4001 H   0  0  0  0  0  0  0  0  0  0  0  0  # atno 6907 bound_to 6896
  150.6980  134.4334  159.5268 H   0  0  0  0  0  0  0  0  0  0  0  0  # atno 6908 bound_to 6896
  152.2008  134.8589  160.0559 H   0  0  0  0  0  0  0  0  0  0  0  0  # atno 6909 bound_to 6896
  145.9996  140.7089  142.9277 H   0  0  0  0  0  0  0  0  0  0  0  0  # atno 7974 bound_to 7965
  156.2788  140.2749  156.1725 H   0  0  0  0  0  0  0  0  0  0  0  0  # atno 8008 bound_to 7997
  155.0640  140.0387  157.2604 H   0  0  0  0  0  0  0  0  0  0  0  0  # atno 8009 bound_to 7997
  154.7094  140.2665  155.6649 H   0  0  0  0  0  0  0  0  0  0  0  0  # atno 8010 bound_to 7997
  140.7054  143.5987  150.8820 H   0  0  0  0  0  0  0  0  0  0  0  0  # atno 10167 bound_to 10162
  156.3157  130.4258  149.8008 H   0  0  0  0  0  0  0  0  0  0  0  0  # atno 10718 bound_to 10713
  153.0211  135.6387  154.1513 H   0  0  0  0  0  0  0  0  0  0  0  0  # atno 10763 bound_to 10752
  154.1247  135.2844  155.3201 H   0  0  0  0  0  0  0  0  0  0  0  0  # atno 10764 bound_to 10752
  154.6238  135.5516  153.7666 H   0  0  0  0  0  0  0  0  0  0  0  0  # atno 10765 bound_to 10752
  139.9650  134.6997  156.0565 H   0  0  0  0  0  0  0  0  0  0  0  0  # atno 11005 bound_to 11000
  144.6915  140.3211  143.7232 LP  0  0  0  0  0  0  0  0  0  0  0  0  # atno 17320 bound_to 7965
  145.7507  139.1793  143.2323 LP  0  0  0  0  0  0  0  0  0  0  0  0  # atno 17321 bound_to 7965
  139.9712  143.6055  152.2973 LP  0  0  0  0  0  0  0  0  0  0  0  0  # atno 17342 bound_to 10162
  139.6642  144.7662  151.1904 LP  0  0  0  0  0  0  0  0  0  0  0  0  # atno 17343 bound_to 10162
  156.5335  130.8268  151.3245 LP  0  0  0  0  0  0  0  0  0  0  0  0  # atno 17370 bound_to 10713
  157.7401  130.9844  150.2355 LP  0  0  0  0  0  0  0  0  0  0  0  0  # atno 17371 bound_to 10713
  141.1329  133.6582  156.3514 LP  0  0  0  0  0  0  0  0  0  0  0  0  # atno 17394 bound_to 11000
  140.5417  134.6114  157.5382 LP  0  0  0  0  0  0  0  0  0  0  0  0  # atno 17395 bound_to 11000

$$$$
