AV-unprocessed.smi:1487|AV-procd|sdf|6009|dock6
  -GOLD-   22720 6103D 1   1.00000     0.00000
 Structure written by MMmdl.
 48 50  0  0  0  0  0  0  0  0  2 V2000
  153.1012  142.5963  161.2419 C   0  0  0  0  0  0  0  0  0  0  0  0
  152.4005  142.3613  159.9155 C   0  0  0  0  0  0  0  0  0  0  0  0
  152.7581  141.2353  159.1400 C   0  0  0  0  0  0  0  0  0  0  0  0
  152.1302  140.9801  157.9016 C   0  0  0  0  0  0  0  0  0  0  0  0
  152.3209  139.9541  156.9922 N   0  0  0  0  0  0  0  0  0  0  0  0
  151.4429  140.2683  156.0446 C   0  0  0  0  0  0  0  0  0  0  0  0
  150.7148  141.3874  156.2251 N   0  0  0  0  0  0  0  0  0  0  0  0
  149.7108  141.9313  155.3279 C   0  0  0  0  0  0  0  0  0  0  0  0
  149.0049  140.8441  154.4924 C   0  0  2  0  0  0  0  0  0  0  0  0
  149.7089  140.7218  153.2727 O   0  0  0  0  0  0  0  0  0  0  0  0
  147.5220  141.1609  154.1918 C   0  0  0  0  0  0  0  0  0  0  0  0
  146.7114  139.9349  153.9796 N   0  3  2  0  0  0  0  0  0  0  0  0
  146.6227  139.0951  155.2013 C   0  0  0  0  0  0  0  0  0  0  0  0
  145.6328  137.9371  155.0012 C   0  0  0  0  0  0  0  0  0  0  0  0
  146.0224  137.0822  153.7873 C   0  0  0  0  0  0  0  0  0  0  0  0
  146.2027  137.9520  152.5317 C   0  0  1  0  0  0  0  0  0  0  0  0
  144.9513  138.4253  152.0731 O   0  0  0  0  0  0  0  0  0  0  0  0
  147.1451  139.1426  152.7954 C   0  0  0  0  0  0  0  0  0  0  0  0
  151.1275  141.8899  157.4550 C   0  0  0  0  0  0  0  0  0  0  0  0
  150.7606  143.0116  158.2196 C   0  0  0  0  0  0  0  0  0  0  0  0
  151.3995  143.2532  159.4538 C   0  0  0  0  0  0  0  0  0  0  0  0
  150.9978  144.4688  160.2704 C   0  0  0  0  0  0  0  0  0  0  0  0
  153.7879  141.7831  161.4792 H   0  0  0  0  0  0  0  0  0  0  0  0
  152.3755  142.6661  162.0525 H   0  0  0  0  0  0  0  0  0  0  0  0
  153.6759  143.5221  161.2095 H   0  0  0  0  0  0  0  0  0  0  0  0
  153.5197  140.5548  159.4923 H   0  0  0  0  0  0  0  0  0  0  0  0
  151.3294  139.6538  155.1634 H   0  0  0  0  0  0  0  0  0  0  0  0
  148.9808  142.4852  155.9209 H   0  0  0  0  0  0  0  0  0  0  0  0
  150.1972  142.6565  154.6742 H   0  0  0  0  0  0  0  0  0  0  0  0
  149.0929  139.8957  155.0197 H   0  0  0  0  0  0  0  0  0  0  0  0
  149.5619  139.8593  152.9160 H   0  0  0  0  0  0  0  0  0  0  0  0
  147.0657  141.7354  154.9988 H   0  0  0  0  0  0  0  0  0  0  0  0
  147.4794  141.8011  153.3092 H   0  0  0  0  0  0  0  0  0  0  0  0
  147.6121  138.7115  155.4568 H   0  0  0  0  0  0  0  0  0  0  0  0
  146.2896  139.7025  156.0437 H   0  0  0  0  0  0  0  0  0  0  0  0
  145.5998  137.3159  155.8970 H   0  0  0  0  0  0  0  0  0  0  0  0
  144.6259  138.3346  154.8654 H   0  0  0  0  0  0  0  0  0  0  0  0
  146.9594  136.5665  154.0019 H   0  0  0  0  0  0  0  0  0  0  0  0
  145.2773  136.3046  153.6132 H   0  0  0  0  0  0  0  0  0  0  0  0
  146.6180  137.3363  151.7331 H   0  0  0  0  0  0  0  0  0  0  0  0
  144.8241  139.3057  152.3934 H   0  0  0  0  0  0  0  0  0  0  0  0
  147.1968  139.7690  151.9051 H   0  0  0  0  0  0  0  0  0  0  0  0
  148.1573  138.7728  152.9690 H   0  0  0  0  0  0  0  0  0  0  0  0
  149.9920  143.6803  157.8620 H   0  0  0  0  0  0  0  0  0  0  0  0
  150.2729  145.0847  159.7372 H   0  0  0  0  0  0  0  0  0  0  0  0
  151.8667  145.0901  160.4881 H   0  0  0  0  0  0  0  0  0  0  0  0
  150.5466  144.1604  161.2138 H   0  0  0  0  0  0  0  0  0  0  0  0
  145.7690  140.2463  153.7926 H   0  0  0  0  0  0  0  0  0  0  0  0
  1  2  1  0  0  0  0
  1 23  1  0  0  0  0
  1 24  1  0  0  0  0
  1 25  1  0  0  0  0
  2 21  1  0  0  0  0
  2  3  2  0  0  0  0
  3  4  1  0  0  0  0
  3 26  1  0  0  0  0
  4 19  2  0  0  0  0
  4  5  1  0  0  0  0
  5  6  2  0  0  0  0
  6  7  1  0  0  0  0
  6 27  1  0  0  0  0
  7  8  1  0  0  0  0
  7 19  1  0  0  0  0
  8  9  1  0  0  0  0
  8 28  1  0  0  0  0
  8 29  1  0  0  0  0
  9 10  1  0  0  0  0
  9 11  1  0  0  0  0
  9 30  1  0  0  0  0
 10 31  1  0  0  0  0
 11 12  1  0  0  0  0
 11 32  1  0  0  0  0
 11 33  1  0  0  0  0
 12 18  1  0  0  0  0
 12 13  1  0  0  0  0
 12 48  1  0  0  0  0
 13 14  1  0  0  0  0
 13 34  1  0  0  0  0
 13 35  1  0  0  0  0
 14 15  1  0  0  0  0
 14 36  1  0  0  0  0
 14 37  1  0  0  0  0
 15 16  1  0  0  0  0
 15 38  1  0  0  0  0
 15 39  1  0  0  0  0
 16 17  1  0  0  0  0
 16 18  1  0  0  0  0
 16 40  1  0  0  0  0
 17 41  1  0  0  0  0
 18 42  1  0  0  0  0
 18 43  1  0  0  0  0
 19 20  1  0  0  0  0
 20 21  2  0  0  0  0
 20 44  1  0  0  0  0
 21 22  1  0  0  0  0
 22 45  1  0  0  0  0
 22 46  1  0  0  0  0
 22 47  1  0  0  0  0
M  CHG  1  12   1
M  END
> <s_m_source_file>
AV-unprocessed.smi

> <i_m_source_file_index>
1487

> <i_lp_mmshare_version>
43012

> <i_f3d_flags>
0

> <s_epik_input>
W0NIM11jKFtjSF0xKWMoW0NIM10pW2NIXWMoYzEyKW4oW2NIXW4yKVtDSDJdW0NASF0oW09IXSlbQ0gyXU4zW0NIMl1bQ0gyXVtDSDJdW0NAQEhdKFtPSF0pW0NIMl0z

> <s_epik_cmdline>
J2VwaWtfcHl0aG9uJywgJy1waCcsICc3LjAnLCAnLXRuJywgJzgnLCAnLW1hJywgJzIwMCcsICctbWV0YWxfYmluZGluZycsICctaW1hZScsICc8aW5maWxlLm1hZT4nLCAnLW9tYWUnLCAnPG91dGZpbGUubWFlPic=

> <r_epik_Ionization_Penalty>
0.0940186

> <r_epik_Ionization_Penalty_Charging>
0.00679686

> <r_epik_Ionization_Penalty_Neutral>
0.0872218

> <r_epik_State_Penalty>
0.0799311

> <r_epik_Charging_Adjusted_Penalty>
0.086728

> <i_epik_Tot_Q>
1

> <i_epik_Tot_abs_Q>
1

> <r_epik_Metal_State_Penalty>
7.95545e-05

> <b_epik_Metal_Only>
0

> <s_lp_Force_Field>
OPLS_2005

> <r_lp_Energy>
25.8202

> <b_lp_Chiralities_Consistent>
1

> <s_lp_Variant>
AV-unprocessed.smi:1487-3

> <Gold.Version>
5.8.1

> <Gold.Id.Protein>
6NUR|6NUR_protein|mol2

> <Gold.PLP.Fitness>
50.6663

> <Gold.PLP.PLP>
-43.2867

> <Gold.PLP.part.hbond>
-4.3346

> <Gold.PLP.part.metal>
0.0000

> <Gold.PLP.part.buried>
-2.8680

> <Gold.PLP.part.nonpolar>
-35.8775

> <Gold.PLP.part.repulsive>
0.0000

> <Gold.PLP.ligand.clash>
0.0000

> <Gold.PLP.ligand.torsion>
1.1263

> <Gold.PLP.Chemscore.Hbond>
3.2000

> <Gold.PLP.Chemscore.CHOScore>
0.0000

> <Gold.PLP.Chemscore.Metal>
0.0000

> <Gold.Chemscore.Hbonds>
donor molecule, donor type, donor heavy atom, donor atom, acceptor molecule, acceptor atom, score
      L1  H    10    31       P1  7957  0.13
      L1  H    17    41       P1 10175  0.80
      P1  H  7989  7998       L1    10  0.29
      P1  H  7997  8008       L1     5  0.86
      P1  H  8011  8017       L1    10  1.00

> <Gold.PLP.Chemscore.Internal.Correction>
0.0322

> <Gold.Rescore>
     Score         DG    S(hbond)    S(metal)    S(lipo)     H(rot)  DE(clash)    DE(int)     intcor
     17.75     -19.25       2.37        0.00     108.40       2.67       0.30       1.20       ----

> <Gold.Chemscore.Fitness>
17.7454

> <Gold.Chemscore.DG>
-19.2472

> <Gold.Chemscore.ZeroCoef>
-5.4800

> <Gold.Chemscore.Hbond>
2.3721

> <Gold.Chemscore.Metal>
0.0000

> <Gold.Chemscore.Lipo>
108.4001

> <Gold.Chemscore.Internal_Hbond>
0.0000

> <Gold.Chemscore.DEClash>
0.2996

> <Gold.Chemscore.DEInternal>
1.2022

> <Gold.Chemscore.Rot>
2.6712

> <Gold.Chemscore.Internal.Correction>
   9.000000E+99

> <Gold.Chemscore.Hbonds>
donor molecule, donor type, donor heavy atom, donor atom, acceptor molecule, acceptor atom, score
      L1  H    10    31       P1  7957  0.13
      L1  H    12    48       P1 10175  0.03
      L1  H    17    41       P1 10175  0.79
      P1  H  7989  7998       L1    10  0.14
      P1  H  7997  8008       L1     5  0.25
      P1  H  8011  8017       L1    10  0.81

> <Gold.Chemscore.Hbond.Weighted>
-7.9227

> <Gold.Chemscore.Metal.Weighted>
-0.0000

> <Gold.Chemscore.Lipo.Weighted>
-12.6828

> <Gold.Chemscore.Internal_Hbond.Weighted>
0.0000

> <Gold.Chemscore.DEClash.Weighted>
0.2996

> <Gold.Chemscore.DEInternal.Weighted>
1.2022

> <Gold.Chemscore.Rot.Weighted>
6.8383

> <Gold.Chemscore.Internal.Correction.Weighted>
   9.000000E+99

> <Gold.Protein.RotatedTorsions>
[ 6907 6896 6895 6894 ] final   -5.98 input  -60.11 | X-H torsion
[ 7974 7965 7964 7962 ] final   14.37 input  175.53 | X-H torsion
[ 8008 7997 7996 7995 ] final  -59.76 input   59.86 | X-H torsion
[ 10167 10162 10161 10158 ] final   20.93 input  -65.29 | X-H torsion
[ 10718 10713 10712 10709 ] final  -80.51 input   66.30 | X-H torsion
[ 10763 10752 10751 10750 ] final  -81.82 input  -60.55 | X-H torsion
[ 11005 11000 10999 10996 ] final  126.20 input  -57.11 | X-H torsion

> <Gold.Protein.ActiveResidues>
 VAL166  LYS551  ARG553  GLY616  TRP617  ASP618  TYR619  PRO620  LYS621  CYS622 
 ASP623  PHE694  ASN695  SER759  ASP760  ASP761  ALA762  ILE779  LEU786  VAL792 
 PHE793  MET794  SER795  GLU796  ALA797  LYS798  CYS799  TRP800  GLU811  SER814 

> <Gold.Protein.RotatedAtoms>
  151.4729  135.1047  159.9756 H   0  0  0  0  0  0  0  0  0  0  0  0  # atno 6907 bound_to 6896
  152.4809  133.8249  159.7083 H   0  0  0  0  0  0  0  0  0  0  0  0  # atno 6908 bound_to 6896
  150.8881  133.7219  159.2939 H   0  0  0  0  0  0  0  0  0  0  0  0  # atno 6909 bound_to 6896
  146.2307  139.9052  142.8533 H   0  0  0  0  0  0  0  0  0  0  0  0  # atno 7974 bound_to 7965
  154.4367  140.1054  156.6166 H   0  0  0  0  0  0  0  0  0  0  0  0  # atno 8008 bound_to 7997
  155.5752  140.3490  155.4507 H   0  0  0  0  0  0  0  0  0  0  0  0  # atno 8009 bound_to 7997
  156.0360  140.1271  157.0197 H   0  0  0  0  0  0  0  0  0  0  0  0  # atno 8010 bound_to 7997
  140.5466  143.9583  150.6551 H   0  0  0  0  0  0  0  0  0  0  0  0  # atno 10167 bound_to 10162
  156.0069  130.4576  150.3811 H   0  0  0  0  0  0  0  0  0  0  0  0  # atno 10718 bound_to 10713
  154.5683  135.5613  153.7071 H   0  0  0  0  0  0  0  0  0  0  0  0  # atno 10763 bound_to 10752
  153.0040  135.6290  154.2150 H   0  0  0  0  0  0  0  0  0  0  0  0  # atno 10764 bound_to 10752
  154.2089  135.2874  155.2945 H   0  0  0  0  0  0  0  0  0  0  0  0  # atno 10765 bound_to 10752
  139.9444  134.9631  156.8672 H   0  0  0  0  0  0  0  0  0  0  0  0  # atno 11005 bound_to 11000
  145.2284  140.9963  143.4005 LP  0  0  0  0  0  0  0  0  0  0  0  0  # atno 17320 bound_to 7965
  144.9551  139.4040  143.6383 LP  0  0  0  0  0  0  0  0  0  0  0  0  # atno 17321 bound_to 7965
  140.2998  143.3268  152.0982 LP  0  0  0  0  0  0  0  0  0  0  0  0  # atno 17342 bound_to 10162
  139.5010  144.6704  151.6257 LP  0  0  0  0  0  0  0  0  0  0  0  0  # atno 17343 bound_to 10162
  157.1891  131.0411  151.2709 LP  0  0  0  0  0  0  0  0  0  0  0  0  # atno 17370 bound_to 10713
  157.4077  130.7368  149.6815 LP  0  0  0  0  0  0  0  0  0  0  0  0  # atno 17371 bound_to 10713
  140.5870  134.0298  155.7485 LP  0  0  0  0  0  0  0  0  0  0  0  0  # atno 17394 bound_to 11000
  141.1090  133.9647  157.2945 LP  0  0  0  0  0  0  0  0  0  0  0  0  # atno 17395 bound_to 11000

$$$$
