AV-unprocessed.smi:110|AV-procd|sdf|1073|dock1
  -GOLD-   2262018153D 1   1.00000     0.00000
 Structure written by MMmdl.
 46 50  0  0  0  0  0  0  0  0  1 V2000
  150.5690  132.0539  158.4814 O   0  0  0  0  0  0  0  0  0  0  0  0
  149.9939  131.9646  157.1952 C   0  0  0  0  0  0  0  0  0  0  0  0
  149.8357  133.3698  156.5885 C   0  0  1  0  0  0  0  0  0  0  0  0
  151.0200  134.1459  156.7672 O   0  0  0  0  0  0  0  0  0  0  0  0
  151.1586  135.0771  155.7348 C   0  0  2  0  0  0  0  0  0  0  0  0
  151.1435  136.4670  156.2990 N   0  0  0  0  0  0  0  0  0  0  0  0
  150.6045  136.8633  157.5016 C   0  0  0  0  0  0  0  0  0  0  0  0
  150.7197  138.1334  157.7761 N   0  0  0  0  0  0  0  0  0  0  0  0
  151.3773  138.6645  156.6731 C   0  0  0  0  0  0  0  0  0  0  0  0
  151.8224  139.9680  156.3087 C   0  0  0  0  0  0  0  0  0  0  0  0
  151.6562  141.0782  157.0653 N   0  0  0  0  0  0  0  0  0  0  0  0
  150.8739  142.2039  156.5349 C   0  0  0  0  0  0  0  0  0  0  0  0
  151.2225  143.4479  157.3736 C   0  0  0  0  0  0  0  0  0  0  0  0
  152.1120  142.8498  158.4152 C   0  0  0  0  0  0  0  0  0  0  0  0
  152.6873  143.5016  159.5198 C   0  0  0  0  0  0  0  0  0  0  0  0
  153.4809  142.7383  160.4029 C   0  0  0  0  0  0  0  0  0  0  0  0
  153.6744  141.3557  160.1763 C   0  0  0  0  0  0  0  0  0  0  0  0
  153.0841  140.7216  159.0608 C   0  0  0  0  0  0  0  0  0  0  0  0
  152.3116  141.4947  158.1696 C   0  0  0  0  0  0  0  0  0  0  0  0
  152.5064  140.0960  155.1435 N   0  0  0  0  0  0  0  0  0  0  0  0
  152.7061  139.0317  154.3624 C   0  0  0  0  0  0  0  0  0  0  0  0
  152.3262  137.7692  154.5623 N   0  0  0  0  0  0  0  0  0  0  0  0
  151.6632  137.6218  155.7451 C   0  0  0  0  0  0  0  0  0  0  0  0
  150.0371  134.8210  154.7080 C   0  0  2  0  0  0  0  0  0  0  0  0
  148.9526  135.7280  154.8022 O   0  0  0  0  0  0  0  0  0  0  0  0
  149.5915  133.4140  155.0740 C   0  0  1  0  0  0  0  0  0  0  0  0
  150.3805  132.4504  154.3988 O   0  0  0  0  0  0  0  0  0  0  0  0
  149.0023  133.8840  157.0690 H   0  0  0  0  0  0  0  0  0  0  0  0
  152.1543  134.9699  155.3031 H   0  0  0  0  0  0  0  0  0  0  0  0
  150.4422  134.8833  153.6971 H   0  0  0  0  0  0  0  0  0  0  0  0
  148.5462  133.2276  154.8234 H   0  0  0  0  0  0  0  0  0  0  0  0
  150.3310  131.2822  158.9719 H   0  0  0  0  0  0  0  0  0  0  0  0
  150.5969  131.3191  156.5560 H   0  0  0  0  0  0  0  0  0  0  0  0
  149.0177  131.4921  157.3080 H   0  0  0  0  0  0  0  0  0  0  0  0
  150.1217  136.1734  158.1785 H   0  0  0  0  0  0  0  0  0  0  0  0
  151.0955  142.3689  155.4796 H   0  0  0  0  0  0  0  0  0  0  0  0
  149.8115  141.9727  156.6206 H   0  0  0  0  0  0  0  0  0  0  0  0
  151.7661  144.1934  156.7928 H   0  0  0  0  0  0  0  0  0  0  0  0
  150.3402  143.9072  157.8203 H   0  0  0  0  0  0  0  0  0  0  0  0
  152.5225  144.5551  159.6912 H   0  0  0  0  0  0  0  0  0  0  0  0
  153.9352  143.2107  161.2613 H   0  0  0  0  0  0  0  0  0  0  0  0
  154.2741  140.7784  160.8642 H   0  0  0  0  0  0  0  0  0  0  0  0
  153.2225  139.6621  158.9047 H   0  0  0  0  0  0  0  0  0  0  0  0
  153.2488  139.2172  153.4474 H   0  0  0  0  0  0  0  0  0  0  0  0
  148.7918  136.0925  153.9451 H   0  0  0  0  0  0  0  0  0  0  0  0
  150.4405  132.6961  153.4882 H   0  0  0  0  0  0  0  0  0  0  0  0
  1  2  1  0  0  0  0
  1 32  1  0  0  0  0
  2  3  1  0  0  0  0
  2 33  1  0  0  0  0
  2 34  1  0  0  0  0
  3 28  1  0  0  0  0
  3 26  1  0  0  0  0
  3  4  1  0  0  0  0
  4  5  1  0  0  0  0
  5 29  1  0  0  0  0
  5  6  1  0  0  0  0
  5 24  1  0  0  0  0
  6 23  1  0  0  0  0
  6  7  1  0  0  0  0
  7  8  2  0  0  0  0
  7 35  1  0  0  0  0
  8  9  1  0  0  0  0
  9 23  2  0  0  0  0
  9 10  1  0  0  0  0
 10 11  1  0  0  0  0
 10 20  2  0  0  0  0
 11 19  1  0  0  0  0
 11 12  1  0  0  0  0
 12 13  1  0  0  0  0
 12 36  1  0  0  0  0
 12 37  1  0  0  0  0
 13 14  1  0  0  0  0
 13 38  1  0  0  0  0
 13 39  1  0  0  0  0
 14 19  2  0  0  0  0
 14 15  1  0  0  0  0
 15 16  2  0  0  0  0
 15 40  1  0  0  0  0
 16 17  1  0  0  0  0
 16 41  1  0  0  0  0
 17 18  2  0  0  0  0
 17 42  1  0  0  0  0
 18 19  1  0  0  0  0
 18 43  1  0  0  0  0
 20 21  1  0  0  0  0
 21 22  2  0  0  0  0
 21 44  1  0  0  0  0
 22 23  1  0  0  0  0
 24 30  1  0  0  0  0
 24 25  1  0  0  0  0
 24 26  1  0  0  0  0
 25 45  1  0  0  0  0
 26 31  1  0  0  0  0
 26 27  1  0  0  0  0
 27 46  1  0  0  0  0
M  END
> <s_m_source_file>
AV-unprocessed.smi

> <i_m_source_file_index>
110

> <i_lp_mmshare_version>
43012

> <i_f3d_flags>
0

> <s_epik_input>
W09IXVtDSDJdW0NASF0xT1tDQEhdKFtDQEhdKFtPSF0pW0NAQEhdMVtPSF0pbihbY0hdbjIpYyhjMjMpbltjSF1uYzNOKFtDSDJdW0NIMl00KWMoYzQ1KVtjSF1bY0hdW2NIXVtjSF01

> <s_epik_cmdline>
J2VwaWtfcHl0aG9uJywgJy1waCcsICc3LjAnLCAnLXRuJywgJzgnLCAnLW1hJywgJzIwMCcsICctbWV0YWxfYmluZGluZycsICctaW1hZScsICc8aW5maWxlLm1hZT4nLCAnLW9tYWUnLCAnPG91dGZpbGUubWFlPic=

> <r_lp_tautomer_probability>
1

> <r_epik_Ionization_Penalty>
0.00068475

> <r_epik_Ionization_Penalty_Charging>
0

> <r_epik_Ionization_Penalty_Neutral>
0.00068475

> <r_epik_State_Penalty>
0.000417442

> <r_epik_Charging_Adjusted_Penalty>
0.000417442

> <i_epik_Tot_Q>
0

> <i_epik_Tot_abs_Q>
0

> <r_epik_Metal_State_Penalty>
-0

> <b_epik_Metal_Only>
0

> <s_epik_Chemistry_Notes>
This compound contains an acetal/aminal-like group ( X-CH(R)-Y where X, Y are N, S, or O) that may be acid/base labile, releasing an aldehyde.

> <s_lp_Force_Field>
OPLS_2005

> <r_lp_Energy>
62.4803

> <b_lp_Chiralities_Consistent>
1

> <s_lp_Variant>
AV-unprocessed.smi:110-11

> <Gold.Version>
5.8.1

> <Gold.Id.Protein>
6NUR|6NUR_protein|mol2

> <Gold.PLP.Fitness>
53.6343

> <Gold.PLP.PLP>
-46.2034

> <Gold.PLP.part.hbond>
-5.5545

> <Gold.PLP.part.metal>
0.0000

> <Gold.PLP.part.buried>
-5.2145

> <Gold.PLP.part.nonpolar>
-34.6040

> <Gold.PLP.part.repulsive>
0.0887

> <Gold.PLP.ligand.clash>
0.0000

> <Gold.PLP.ligand.torsion>
2.0470

> <Gold.PLP.Chemscore.Hbond>
3.8169

> <Gold.PLP.Chemscore.CHOScore>
0.0000

> <Gold.PLP.Chemscore.Metal>
0.0000

> <Gold.Chemscore.Hbonds>
donor molecule, donor type, donor heavy atom, donor atom, acceptor molecule, acceptor atom, score
      L1  H    25    45       P1  7948  0.88
      P1  H  6896  6909       L1     1  1.00
      P1  H  7989  7998       L1    20  0.11
      P1  H  7997  8008       L1    20  0.68
      P1  H 10752 10763       L1    22  0.21

> <Gold.PLP.Chemscore.Internal.Correction>
0.0741

> <Gold.Rescore>
     Score         DG    S(hbond)    S(metal)    S(lipo)     H(rot)  DE(clash)    DE(int)     intcor
     15.39     -17.80       2.78        0.00      99.84       3.38       0.08       2.33       ----

> <Gold.Chemscore.Fitness>
15.3908

> <Gold.Chemscore.DG>
-17.8011

> <Gold.Chemscore.ZeroCoef>
-5.4800

> <Gold.Chemscore.Hbond>
2.7849

> <Gold.Chemscore.Metal>
0.0000

> <Gold.Chemscore.Lipo>
99.8440

> <Gold.Chemscore.Internal_Hbond>
0.0000

> <Gold.Chemscore.DEClash>
0.0849

> <Gold.Chemscore.DEInternal>
2.3255

> <Gold.Chemscore.Rot>
3.3837

> <Gold.Chemscore.Internal.Correction>
   9.000000E+99

> <Gold.Chemscore.Hbonds>
donor molecule, donor type, donor heavy atom, donor atom, acceptor molecule, acceptor atom, score
      L1  H    25    45       P1  7948  0.84
      P1  H  6896  6909       L1     1  0.98
      P1  H  7997  8008       L1    20  0.02
      P1  H 10752 10763       L1    22  0.02

> <Gold.Chemscore.Hbond.Weighted>
-9.3016

> <Gold.Chemscore.Metal.Weighted>
-0.0000

> <Gold.Chemscore.Lipo.Weighted>
-11.6818

> <Gold.Chemscore.Internal_Hbond.Weighted>
0.0000

> <Gold.Chemscore.DEClash.Weighted>
0.0849

> <Gold.Chemscore.DEInternal.Weighted>
2.3255

> <Gold.Chemscore.Rot.Weighted>
8.6622

> <Gold.Chemscore.Internal.Correction.Weighted>
   9.000000E+99

> <Gold.Protein.RotatedTorsions>
[ 6907 6896 6895 6894 ] final  -29.82 input  -60.11 | X-H torsion
[ 7974 7965 7964 7962 ] final   97.33 input  175.53 | X-H torsion
[ 8008 7997 7996 7995 ] final  -21.55 input   59.86 | X-H torsion
[ 10167 10162 10161 10158 ] final   22.43 input  -65.29 | X-H torsion
[ 10718 10713 10712 10709 ] final  -33.61 input   66.30 | X-H torsion
[ 10763 10752 10751 10750 ] final   55.37 input  -60.55 | X-H torsion
[ 11005 11000 10999 10996 ] final -148.65 input  -57.11 | X-H torsion

> <Gold.Protein.ActiveResidues>
 VAL166  LYS551  ARG553  GLY616  TRP617  ASP618  TYR619  PRO620  LYS621  CYS622 
 ASP623  PHE694  ASN695  SER759  ASP760  ASP761  ALA762  ILE779  LEU786  VAL792 
 PHE793  MET794  SER795  GLU796  ALA797  LYS798  CYS799  TRP800  GLU811  SER814 

> <Gold.Protein.RotatedAtoms>
  151.1139  135.0042  159.8506 H   0  0  0  0  0  0  0  0  0  0  0  0  # atno 6907 bound_to 6896
  152.5444  134.1803  159.8643 H   0  0  0  0  0  0  0  0  0  0  0  0  # atno 6908 bound_to 6896
  151.1855  133.4654  159.2627 H   0  0  0  0  0  0  0  0  0  0  0  0  # atno 6909 bound_to 6896
  145.4269  139.2315  143.3165 H   0  0  0  0  0  0  0  0  0  0  0  0  # atno 7974 bound_to 7965
  154.4698  140.2031  156.0023 H   0  0  0  0  0  0  0  0  0  0  0  0  # atno 8008 bound_to 7997
  156.0992  140.3246  155.7889 H   0  0  0  0  0  0  0  0  0  0  0  0  # atno 8009 bound_to 7997
  155.4827  140.0540  157.2955 H   0  0  0  0  0  0  0  0  0  0  0  0  # atno 8010 bound_to 7997
  140.5349  143.9778  150.6486 H   0  0  0  0  0  0  0  0  0  0  0  0  # atno 10167 bound_to 10162
  156.3606  130.4323  149.7627 H   0  0  0  0  0  0  0  0  0  0  0  0  # atno 10718 bound_to 10713
  152.9816  135.5713  154.5056 H   0  0  0  0  0  0  0  0  0  0  0  0  # atno 10763 bound_to 10752
  154.4568  135.2780  155.1743 H   0  0  0  0  0  0  0  0  0  0  0  0  # atno 10764 bound_to 10752
  154.3348  135.6242  153.5621 H   0  0  0  0  0  0  0  0  0  0  0  0  # atno 10765 bound_to 10752
  140.7590  134.3320  157.5106 H   0  0  0  0  0  0  0  0  0  0  0  0  # atno 11005 bound_to 11000
  146.2627  140.5001  142.8847 LP  0  0  0  0  0  0  0  0  0  0  0  0  # atno 17320 bound_to 7965
  144.8208  140.6546  143.6354 LP  0  0  0  0  0  0  0  0  0  0  0  0  # atno 17321 bound_to 7965
  140.3163  143.3166  152.0829 LP  0  0  0  0  0  0  0  0  0  0  0  0  # atno 17342 bound_to 10162
  139.4967  144.6603  151.6479 LP  0  0  0  0  0  0  0  0  0  0  0  0  # atno 17343 bound_to 10162
  156.4792  130.8033  151.3048 LP  0  0  0  0  0  0  0  0  0  0  0  0  # atno 17370 bound_to 10713
  157.7473  131.0011  150.2951 LP  0  0  0  0  0  0  0  0  0  0  0  0  # atno 17371 bound_to 10713
  139.8774  134.9190  156.3216 LP  0  0  0  0  0  0  0  0  0  0  0  0  # atno 17394 bound_to 11000
  140.9681  133.7345  156.0495 LP  0  0  0  0  0  0  0  0  0  0  0  0  # atno 17395 bound_to 11000

$$$$
