AV-unprocessed.smi:1774|AV-procd|sdf|7169|dock3
  -GOLD-   22720 8403D 1   1.00000     0.00000
 Structure written by MMmdl.
 46 47  0  0  0  0  0  0  0  0  2 V2000
  147.6780  132.5591  152.4493 C   0  0  0  0  0  0  0  0  0  0  0  0
  146.4599  132.8075  151.5749 C   0  0  0  0  0  0  0  0  0  0  0  0
  145.8917  131.7312  150.8606 C   0  0  0  0  0  0  0  0  0  0  0  0
  144.7651  131.9627  150.0533 C   0  0  0  0  0  0  0  0  0  0  0  0
  144.2512  133.2694  149.9935 C   0  0  0  0  0  0  0  0  0  0  0  0
  144.7876  134.3035  150.6729 N   0  0  0  0  0  0  0  0  0  0  0  0
  145.8745  134.0966  151.4582 C   0  0  0  0  0  0  0  0  0  0  0  0
  146.4904  135.1402  152.2057 N   0  0  0  0  0  0  0  0  0  0  0  0
  146.0211  135.7774  153.2929 C   0  0  0  0  0  0  0  0  0  0  0  0
  144.9320  135.5702  153.8291 O   0  0  0  0  0  0  0  0  0  0  0  0
  146.8989  136.6858  153.7432 N   0  0  0  0  0  0  0  0  0  0  0  0
  146.7007  137.5096  154.9301 C   0  0  0  0  0  0  0  0  0  0  0  0
  146.8429  139.0104  154.6120 C   0  0  0  0  0  0  0  0  0  0  0  0
  148.1884  139.5284  154.9615 N   0  3  1  0  0  0  0  0  0  0  0  0
  149.2817  138.7384  154.3504 C   0  0  0  0  0  0  0  0  0  0  0  0
  150.6499  139.2511  154.8359 C   0  0  1  0  0  0  0  0  0  0  0  0
  151.8125  138.5167  154.1595 C   0  0  0  0  0  0  0  0  0  0  0  0
  150.7727  140.6387  154.5337 O   0  0  0  0  0  0  0  0  0  0  0  0
  149.7526  141.4681  155.0903 C   0  0  2  0  0  0  0  0  0  0  0  0
  149.8950  141.6258  156.6146 C   0  0  0  0  0  0  0  0  0  0  0  0
  148.3624  140.9689  154.6509 C   0  0  0  0  0  0  0  0  0  0  0  0
  147.9642  131.5071  152.4415 H   0  0  0  0  0  0  0  0  0  0  0  0
  147.4724  132.8420  153.4821 H   0  0  0  0  0  0  0  0  0  0  0  0
  148.5280  133.1412  152.0925 H   0  0  0  0  0  0  0  0  0  0  0  0
  146.3114  130.7383  150.9290 H   0  0  0  0  0  0  0  0  0  0  0  0
  144.3066  131.1604  149.4945 H   0  0  0  0  0  0  0  0  0  0  0  0
  143.3872  133.4911  149.3848 H   0  0  0  0  0  0  0  0  0  0  0  0
  147.4063  135.4164  151.8842 H   0  0  0  0  0  0  0  0  0  0  0  0
  147.7709  136.7975  153.2465 H   0  0  0  0  0  0  0  0  0  0  0  0
  145.7256  137.2826  155.3621 H   0  0  0  0  0  0  0  0  0  0  0  0
  147.4427  137.2168  155.6735 H   0  0  0  0  0  0  0  0  0  0  0  0
  146.6695  139.1457  153.5432 H   0  0  0  0  0  0  0  0  0  0  0  0
  146.0799  139.5994  155.1235 H   0  0  0  0  0  0  0  0  0  0  0  0
  149.1718  137.6868  154.6186 H   0  0  0  0  0  0  0  0  0  0  0  0
  149.2133  138.8017  153.2630 H   0  0  0  0  0  0  0  0  0  0  0  0
  150.7367  139.1001  155.9120 H   0  0  0  0  0  0  0  0  0  0  0  0
  151.7731  137.4463  154.3632 H   0  0  0  0  0  0  0  0  0  0  0  0
  152.7712  138.8876  154.5225 H   0  0  0  0  0  0  0  0  0  0  0  0
  151.7912  138.6528  153.0778 H   0  0  0  0  0  0  0  0  0  0  0  0
  149.9007  142.4578  154.6573 H   0  0  0  0  0  0  0  0  0  0  0  0
  149.1906  142.3668  156.9933 H   0  0  0  0  0  0  0  0  0  0  0  0
  150.8980  141.9622  156.8780 H   0  0  0  0  0  0  0  0  0  0  0  0
  149.7032  140.6955  157.1483 H   0  0  0  0  0  0  0  0  0  0  0  0
  148.2470  141.1160  153.5756 H   0  0  0  0  0  0  0  0  0  0  0  0
  147.5892  141.5677  155.1312 H   0  0  0  0  0  0  0  0  0  0  0  0
  148.2876  139.4234  155.9611 H   0  0  0  0  0  0  0  0  0  0  0  0
  1  2  1  0  0  0  0
  1 22  1  0  0  0  0
  1 23  1  0  0  0  0
  1 24  1  0  0  0  0
  2  7  1  0  0  0  0
  2  3  2  0  0  0  0
  3  4  1  0  0  0  0
  3 25  1  0  0  0  0
  4  5  2  0  0  0  0
  4 26  1  0  0  0  0
  5  6  1  0  0  0  0
  5 27  1  0  0  0  0
  6  7  2  0  0  0  0
  7  8  1  0  0  0  0
  8  9  1  0  0  0  0
  8 28  1  0  0  0  0
  9 10  2  0  0  0  0
  9 11  1  0  0  0  0
 11 12  1  0  0  0  0
 11 29  1  0  0  0  0
 12 13  1  0  0  0  0
 12 30  1  0  0  0  0
 12 31  1  0  0  0  0
 13 14  1  0  0  0  0
 13 32  1  0  0  0  0
 13 33  1  0  0  0  0
 14 21  1  0  0  0  0
 14 15  1  0  0  0  0
 14 46  1  0  0  0  0
 15 16  1  0  0  0  0
 15 34  1  0  0  0  0
 15 35  1  0  0  0  0
 16 17  1  0  0  0  0
 16 18  1  0  0  0  0
 16 36  1  0  0  0  0
 17 37  1  0  0  0  0
 17 38  1  0  0  0  0
 17 39  1  0  0  0  0
 18 19  1  0  0  0  0
 19 20  1  0  0  0  0
 19 21  1  0  0  0  0
 19 40  1  0  0  0  0
 20 41  1  0  0  0  0
 20 42  1  0  0  0  0
 20 43  1  0  0  0  0
 21 44  1  0  0  0  0
 21 45  1  0  0  0  0
M  CHG  1  14   1
M  END
> <s_m_source_file>
AV-unprocessed.smi

> <i_m_source_file_index>
1774

> <i_lp_mmshare_version>
43012

> <i_f3d_flags>
0

> <s_epik_input>
W0NIM11jMVtjSF1bY0hdW2NIXW5jMVtOSF1DKD1PKVtOSF1bQ0gyXVtDSDJdTjJbQ0gyXVtDQEBIXShbQ0gzXSlPW0NAQEhdKFtDSDNdKVtDSDJdMg==

> <s_epik_cmdline>
J2VwaWtfcHl0aG9uJywgJy1waCcsICc3LjAnLCAnLXRuJywgJzgnLCAnLW1hJywgJzIwMCcsICctbWV0YWxfYmluZGluZycsICctaW1hZScsICc8aW5maWxlLm1hZT4nLCAnLW9tYWUnLCAnPG91dGZpbGUubWFlPic=

> <r_epik_Ionization_Penalty>
0.602573

> <r_epik_Ionization_Penalty_Charging>
0.602531

> <r_epik_Ionization_Penalty_Neutral>
4.21996e-05

> <r_epik_State_Penalty>
0.617039

> <r_epik_Charging_Adjusted_Penalty>
1.21957

> <i_epik_Tot_Q>
1

> <i_epik_Tot_abs_Q>
1

> <r_epik_Metal_State_Penalty>
0.617042

> <b_epik_Metal_Only>
0

> <s_lp_Force_Field>
OPLS_2005

> <r_lp_Energy>
18.7656

> <b_lp_Chiralities_Consistent>
1

> <s_lp_Variant>
AV-unprocessed.smi:1774-6

> <Gold.Version>
5.8.1

> <Gold.Id.Protein>
6NUR|6NUR_protein|mol2

> <Gold.PLP.Fitness>
44.5164

> <Gold.PLP.PLP>
-34.4471

> <Gold.PLP.part.hbond>
-2.7898

> <Gold.PLP.part.metal>
0.0000

> <Gold.PLP.part.buried>
-4.6066

> <Gold.PLP.part.nonpolar>
-27.5363

> <Gold.PLP.part.repulsive>
0.3580

> <Gold.PLP.ligand.clash>
0.0000

> <Gold.PLP.ligand.torsion>
0.9620

> <Gold.PLP.Chemscore.Hbond>
2.9913

> <Gold.PLP.Chemscore.CHOScore>
1.0000

> <Gold.PLP.Chemscore.Metal>
0.0000

> <Gold.Chemscore.Hbonds>
donor molecule, donor type, donor heavy atom, donor atom, acceptor molecule, acceptor atom, score
      L1  H     8    28       P1  7948  1.00
      L1  H    11    29       P1  7948  0.99
      P1  H  7989  7998       L1    18  0.56
      L1  C     5    27       P1 10186  0.93

> <Gold.PLP.Chemscore.Internal.Correction>
0.0196

> <Gold.Rescore>
     Score         DG    S(hbond)    S(metal)    S(lipo)     H(rot)  DE(clash)    DE(int)     intcor
     20.31     -21.38       2.84        0.00      87.50       1.49       0.04       1.03       ----

> <Gold.Chemscore.Fitness>
20.3105

> <Gold.Chemscore.DG>
-21.3787

> <Gold.Chemscore.ZeroCoef>
-5.4800

> <Gold.Chemscore.Hbond>
2.8403

> <Gold.Chemscore.Metal>
0.0000

> <Gold.Chemscore.Lipo>
87.5048

> <Gold.Chemscore.Internal_Hbond>
0.0000

> <Gold.Chemscore.DEClash>
0.0419

> <Gold.Chemscore.DEInternal>
1.0264

> <Gold.Chemscore.Rot>
1.4946

> <Gold.Chemscore.Internal.Correction>
   9.000000E+99

> <Gold.Chemscore.Hbonds>
donor molecule, donor type, donor heavy atom, donor atom, acceptor molecule, acceptor atom, score
      L1  H     8    28       P1  7948  0.99
      L1  H    11    29       P1  7948  0.93
      P1  H  7989  7998       L1    18  0.46

> <Gold.Chemscore.Hbond.Weighted>
-9.4867

> <Gold.Chemscore.Metal.Weighted>
-0.0000

> <Gold.Chemscore.Lipo.Weighted>
-10.2381

> <Gold.Chemscore.Internal_Hbond.Weighted>
0.0000

> <Gold.Chemscore.DEClash.Weighted>
0.0419

> <Gold.Chemscore.DEInternal.Weighted>
1.0264

> <Gold.Chemscore.Rot.Weighted>
3.8261

> <Gold.Chemscore.Internal.Correction.Weighted>
   9.000000E+99

> <Gold.Protein.RotatedTorsions>
[ 6907 6896 6895 6894 ] final -118.07 input  -60.11 | X-H torsion
[ 7974 7965 7964 7962 ] final -145.24 input  175.53 | X-H torsion
[ 8008 7997 7996 7995 ] final -121.07 input   59.86 | X-H torsion
[ 10167 10162 10161 10158 ] final -156.89 input  -65.29 | X-H torsion
[ 10718 10713 10712 10709 ] final   97.50 input   66.30 | X-H torsion
[ 10763 10752 10751 10750 ] final -122.97 input  -60.55 | X-H torsion
[ 11005 11000 10999 10996 ] final  135.09 input  -57.11 | X-H torsion

> <Gold.Protein.ActiveResidues>
 VAL166  LYS551  ARG553  GLY616  TRP617  ASP618  TYR619  PRO620  LYS621  CYS622 
 ASP623  PHE694  ASN695  SER759  ASP760  ASP761  ALA762  ILE779  LEU786  VAL792 
 PHE793  MET794  SER795  GLU796  ALA797  LYS798  CYS799  TRP800  GLU811  SER814 

> <Gold.Protein.RotatedAtoms>
  150.8189  133.8287  159.3147 H   0  0  0  0  0  0  0  0  0  0  0  0  # atno 6907 bound_to 6896
  151.6051  135.1043  160.0078 H   0  0  0  0  0  0  0  0  0  0  0  0  # atno 6908 bound_to 6896
  152.4279  133.7186  159.6577 H   0  0  0  0  0  0  0  0  0  0  0  0  # atno 6909 bound_to 6896
  144.8241  140.5608  143.5559 H   0  0  0  0  0  0  0  0  0  0  0  0  # atno 7974 bound_to 7965
  155.1421  140.0402  157.2801 H   0  0  0  0  0  0  0  0  0  0  0  0  # atno 8008 bound_to 7997
  154.6466  140.2559  155.7235 H   0  0  0  0  0  0  0  0  0  0  0  0  # atno 8009 bound_to 7997
  156.2557  140.2845  156.0882 H   0  0  0  0  0  0  0  0  0  0  0  0  # atno 8010 bound_to 7997
  139.6814  143.9574  152.2339 H   0  0  0  0  0  0  0  0  0  0  0  0  # atno 10167 bound_to 10162
  157.6911  131.0611  150.4653 H   0  0  0  0  0  0  0  0  0  0  0  0  # atno 10718 bound_to 10713
  154.8699  135.4114  154.2868 H   0  0  0  0  0  0  0  0  0  0  0  0  # atno 10763 bound_to 10752
  153.3751  135.7009  153.6613 H   0  0  0  0  0  0  0  0  0  0  0  0  # atno 10764 bound_to 10752
  153.5459  135.3638  155.2710 H   0  0  0  0  0  0  0  0  0  0  0  0  # atno 10765 bound_to 10752
  139.9957  134.9498  156.9958 H   0  0  0  0  0  0  0  0  0  0  0  0  # atno 11005 bound_to 11000
  145.5039  139.1482  143.3642 LP  0  0  0  0  0  0  0  0  0  0  0  0  # atno 17320 bound_to 7965
  146.2546  140.5179  142.8879 LP  0  0  0  0  0  0  0  0  0  0  0  0  # atno 17321 bound_to 7965
  139.9366  144.6708  150.8309 LP  0  0  0  0  0  0  0  0  0  0  0  0  # atno 17342 bound_to 10162
  140.7653  143.3273  151.2488 LP  0  0  0  0  0  0  0  0  0  0  0  0  # atno 17343 bound_to 10162
  156.4994  130.4113  149.6361 LP  0  0  0  0  0  0  0  0  0  0  0  0  # atno 17370 bound_to 10713
  156.3342  130.7348  151.2282 LP  0  0  0  0  0  0  0  0  0  0  0  0  # atno 17371 bound_to 10713
  140.4823  134.1277  155.7219 LP  0  0  0  0  0  0  0  0  0  0  0  0  # atno 17394 bound_to 11000
  141.1602  133.8807  157.1868 LP  0  0  0  0  0  0  0  0  0  0  0  0  # atno 17395 bound_to 11000

$$$$
