AV-unprocessed.smi:2639|AV-procd|sdf|10264|dock7
  -GOLD-   2272014273D 1   1.00000     0.00000
 Structure written by MMmdl.
 43 44  0  0  0  0  0  0  0  0  1 V2000
  145.0379  135.6183  154.6581 C   0  0  0  0  0  0  0  0  0  0  0  0
  145.4385  136.1699  153.2659 C   0  0  1  0  0  0  0  0  0  0  0  0
  144.4346  137.2939  152.8726 C   0  0  0  0  0  0  0  0  0  0  0  0
  144.9664  138.1764  151.9046 O   0  0  0  0  0  0  0  0  0  0  0  0
  146.7984  136.7295  153.3256 N   0  0  0  0  0  0  0  0  0  0  0  0
  147.2633  137.7430  154.0758 C   0  0  0  0  0  0  0  0  0  0  0  0
  146.5779  138.3794  154.8752 O   0  0  0  0  0  0  0  0  0  0  0  0
  148.5722  137.9466  153.8453 N   0  0  0  0  0  0  0  0  0  0  0  0
  149.4303  138.9335  154.4028 C   0  0  0  0  0  0  0  0  0  0  0  0
  148.8958  140.2196  154.6243 C   0  0  0  0  0  0  0  0  0  0  0  0
  149.7217  141.2104  155.1921 C   0  0  0  0  0  0  0  0  0  0  0  0
  151.0050  140.9913  155.5480 N   0  0  0  0  0  0  0  0  0  0  0  0
  151.5106  139.7555  155.3496 C   0  0  0  0  0  0  0  0  0  0  0  0
  150.7715  138.6949  154.7887 C   0  0  0  0  0  0  0  0  0  0  0  0
  145.4549  135.0124  152.2046 C   0  0  0  0  0  0  0  0  0  0  0  0
  144.0437  134.4574  151.8688 C   0  0  0  0  0  0  0  0  0  0  0  0
  144.0881  133.3653  150.7878 C   0  0  0  0  0  0  0  0  0  0  0  0
  145.0160  132.2141  151.1944 C   0  0  0  0  0  0  0  0  0  0  0  0
  146.4217  132.7390  151.5101 C   0  0  0  0  0  0  0  0  0  0  0  0
  146.3823  133.8290  152.5931 C   0  0  0  0  0  0  0  0  0  0  0  0
  144.1260  135.0234  154.5997 H   0  0  0  0  0  0  0  0  0  0  0  0
  144.8477  136.4183  155.3737 H   0  0  0  0  0  0  0  0  0  0  0  0
  145.8155  134.9902  155.0920 H   0  0  0  0  0  0  0  0  0  0  0  0
  143.5168  136.8759  152.4595 H   0  0  0  0  0  0  0  0  0  0  0  0
  144.1311  137.8760  153.7429 H   0  0  0  0  0  0  0  0  0  0  0  0
  144.3738  138.2071  151.1692 H   0  0  0  0  0  0  0  0  0  0  0  0
  147.4665  136.2829  152.7150 H   0  0  0  0  0  0  0  0  0  0  0  0
  149.0205  137.2863  153.2273 H   0  0  0  0  0  0  0  0  0  0  0  0
  147.8735  140.4493  154.3609 H   0  0  0  0  0  0  0  0  0  0  0  0
  149.3398  142.2052  155.3672 H   0  0  0  0  0  0  0  0  0  0  0  0
  152.5359  139.6039  155.6535 H   0  0  0  0  0  0  0  0  0  0  0  0
  151.2401  137.7290  154.6806 H   0  0  0  0  0  0  0  0  0  0  0  0
  145.8467  135.4280  151.2752 H   0  0  0  0  0  0  0  0  0  0  0  0
  143.5726  134.0505  152.7640 H   0  0  0  0  0  0  0  0  0  0  0  0
  143.3902  135.2521  151.5118 H   0  0  0  0  0  0  0  0  0  0  0  0
  143.0831  132.9837  150.6054 H   0  0  0  0  0  0  0  0  0  0  0  0
  144.4303  133.7968  149.8462 H   0  0  0  0  0  0  0  0  0  0  0  0
  144.6088  131.7032  152.0678 H   0  0  0  0  0  0  0  0  0  0  0  0
  145.0647  131.4738  150.3953 H   0  0  0  0  0  0  0  0  0  0  0  0
  147.0598  131.9166  151.8350 H   0  0  0  0  0  0  0  0  0  0  0  0
  146.8748  133.1418  150.6031 H   0  0  0  0  0  0  0  0  0  0  0  0
  147.4028  134.1733  152.7541 H   0  0  0  0  0  0  0  0  0  0  0  0
  146.0554  133.3855  153.5341 H   0  0  0  0  0  0  0  0  0  0  0  0
  1  2  1  0  0  0  0
  1 21  1  0  0  0  0
  1 22  1  0  0  0  0
  1 23  1  0  0  0  0
  2  3  1  0  0  0  0
  2  5  1  0  0  0  0
  2 15  1  0  0  0  0
  3  4  1  0  0  0  0
  3 24  1  0  0  0  0
  3 25  1  0  0  0  0
  4 26  1  0  0  0  0
  5  6  1  0  0  0  0
  5 27  1  0  0  0  0
  6  7  2  0  0  0  0
  6  8  1  0  0  0  0
  8  9  1  0  0  0  0
  8 28  1  0  0  0  0
  9 14  1  0  0  0  0
  9 10  2  0  0  0  0
 10 11  1  0  0  0  0
 10 29  1  0  0  0  0
 11 12  2  0  0  0  0
 11 30  1  0  0  0  0
 12 13  1  0  0  0  0
 13 14  2  0  0  0  0
 13 31  1  0  0  0  0
 14 32  1  0  0  0  0
 15 20  1  0  0  0  0
 15 16  1  0  0  0  0
 15 33  1  0  0  0  0
 16 17  1  0  0  0  0
 16 34  1  0  0  0  0
 16 35  1  0  0  0  0
 17 18  1  0  0  0  0
 17 36  1  0  0  0  0
 17 37  1  0  0  0  0
 18 19  1  0  0  0  0
 18 38  1  0  0  0  0
 18 39  1  0  0  0  0
 19 20  1  0  0  0  0
 19 40  1  0  0  0  0
 19 41  1  0  0  0  0
 20 42  1  0  0  0  0
 20 43  1  0  0  0  0
M  END
> <s_m_source_file>
AV-unprocessed.smi

> <i_m_source_file_index>
2639

> <i_lp_mmshare_version>
43012

> <i_f3d_flags>
0

> <s_epik_input>
W0NIMl0xW0NIMl1bQ0gyXVtDSDJdW0NIMl1bQ0hdMVtDQF0oW0NIM10pKFtDSDJdW09IXSlbTkhdQyg9TylbTkhdYzJbY0hdW2NIXW5bY0hdW2NIXTI=

> <s_epik_cmdline>
J2VwaWtfcHl0aG9uJywgJy1waCcsICc3LjAnLCAnLXRuJywgJzgnLCAnLW1hJywgJzIwMCcsICctbWV0YWxfYmluZGluZycsICctaW1hZScsICc8aW5maWxlLm1hZT4nLCAnLW9tYWUnLCAnPG91dGZpbGUubWFlPic=

> <r_epik_Ionization_Penalty>
0.119032

> <r_epik_Ionization_Penalty_Charging>
0

> <r_epik_Ionization_Penalty_Neutral>
0.119032

> <r_epik_State_Penalty>
0.108564

> <r_epik_Charging_Adjusted_Penalty>
0.108564

> <i_epik_Tot_Q>
0

> <i_epik_Tot_abs_Q>
0

> <r_epik_Metal_State_Penalty>
0.0902516

> <b_epik_Metal_Only>
0

> <s_lp_Force_Field>
OPLS_2005

> <r_lp_Energy>
25.5212

> <b_lp_Chiralities_Consistent>
1

> <s_lp_Variant>
AV-unprocessed.smi:2639-1

> <Gold.Version>
5.8.1

> <Gold.Id.Protein>
6NUR|6NUR_protein|mol2

> <Gold.PLP.Fitness>
43.1328

> <Gold.PLP.PLP>
-32.4569

> <Gold.PLP.part.hbond>
-4.6377

> <Gold.PLP.part.metal>
0.0000

> <Gold.PLP.part.buried>
-2.7881

> <Gold.PLP.part.nonpolar>
-25.2062

> <Gold.PLP.part.repulsive>
0.1328

> <Gold.PLP.ligand.clash>
0.0000

> <Gold.PLP.ligand.torsion>
0.6732

> <Gold.PLP.Chemscore.Hbond>
2.9920

> <Gold.PLP.Chemscore.CHOScore>
1.0000

> <Gold.PLP.Chemscore.Metal>
0.0000

> <Gold.Chemscore.Hbonds>
donor molecule, donor type, donor heavy atom, donor atom, acceptor molecule, acceptor atom, score
      L1  H     4    26       P1 10171  0.91
      L1  H     5    27       P1  7948  1.00
      L1  H     8    28       P1  7948  1.00
      L1  C    11    30       P1  8028  0.91

> <Gold.PLP.Chemscore.Internal.Correction>
0.0463

> <Gold.Rescore>
     Score         DG    S(hbond)    S(metal)    S(lipo)     H(rot)  DE(clash)    DE(int)     intcor
     17.21     -19.14       2.93        0.00      76.42       1.98       0.10       1.83       ----

> <Gold.Chemscore.Fitness>
17.2143

> <Gold.Chemscore.DG>
-19.1443

> <Gold.Chemscore.ZeroCoef>
-5.4800

> <Gold.Chemscore.Hbond>
2.9314

> <Gold.Chemscore.Metal>
0.0000

> <Gold.Chemscore.Lipo>
76.4236

> <Gold.Chemscore.Internal_Hbond>
0.0000

> <Gold.Chemscore.DEClash>
0.0961

> <Gold.Chemscore.DEInternal>
1.8339

> <Gold.Chemscore.Rot>
1.9798

> <Gold.Chemscore.Internal.Correction>
   9.000000E+99

> <Gold.Chemscore.Hbonds>
donor molecule, donor type, donor heavy atom, donor atom, acceptor molecule, acceptor atom, score
      L1  H     4    26       P1 10171  0.86
      L1  H     5    27       P1  7948  0.97
      L1  H     8    28       P1  7948  0.95

> <Gold.Chemscore.Hbond.Weighted>
-9.7909

> <Gold.Chemscore.Metal.Weighted>
-0.0000

> <Gold.Chemscore.Lipo.Weighted>
-8.9416

> <Gold.Chemscore.Internal_Hbond.Weighted>
0.0000

> <Gold.Chemscore.DEClash.Weighted>
0.0961

> <Gold.Chemscore.DEInternal.Weighted>
1.8339

> <Gold.Chemscore.Rot.Weighted>
5.0682

> <Gold.Chemscore.Internal.Correction.Weighted>
   9.000000E+99

> <Gold.Protein.RotatedTorsions>
[ 6907 6896 6895 6894 ] final  -52.25 input  -60.11 | X-H torsion
[ 7974 7965 7964 7962 ] final  -49.35 input  175.53 | X-H torsion
[ 8008 7997 7996 7995 ] final  129.54 input   59.86 | X-H torsion
[ 10167 10162 10161 10158 ] final  -70.19 input  -65.29 | X-H torsion
[ 10718 10713 10712 10709 ] final   68.50 input   66.30 | X-H torsion
[ 10763 10752 10751 10750 ] final    2.03 input  -60.55 | X-H torsion
[ 11005 11000 10999 10996 ] final   13.49 input  -57.11 | X-H torsion

> <Gold.Protein.ActiveResidues>
 VAL166  LYS551  ARG553  GLY616  TRP617  ASP618  TYR619  PRO620  LYS621  CYS622 
 ASP623  PHE694  ASN695  SER759  ASP760  ASP761  ALA762  ILE779  LEU786  VAL792 
 PHE793  MET794  SER795  GLU796  ALA797  LYS798  CYS799  TRP800  GLU811  SER814 

> <Gold.Protein.RotatedAtoms>
  150.8535  134.7867  159.7027 H   0  0  0  0  0  0  0  0  0  0  0  0  # atno 6907 bound_to 6896
  152.4593  134.5217  159.9794 H   0  0  0  0  0  0  0  0  0  0  0  0  # atno 6908 bound_to 6896
  151.5333  133.3407  159.2958 H   0  0  0  0  0  0  0  0  0  0  0  0  # atno 6909 bound_to 6896
  145.9414  140.7658  142.9550 H   0  0  0  0  0  0  0  0  0  0  0  0  # atno 7974 bound_to 7965
  156.2938  140.2618  156.2615 H   0  0  0  0  0  0  0  0  0  0  0  0  # atno 8008 bound_to 7997
  154.9784  140.0390  157.2285 H   0  0  0  0  0  0  0  0  0  0  0  0  # atno 8009 bound_to 7997
  154.7794  140.2792  155.6080 H   0  0  0  0  0  0  0  0  0  0  0  0  # atno 8010 bound_to 7997
  140.5372  143.2317  151.7155 H   0  0  0  0  0  0  0  0  0  0  0  0  # atno 10167 bound_to 10162
  157.6293  130.9377  150.0386 H   0  0  0  0  0  0  0  0  0  0  0  0  # atno 10718 bound_to 10713
  153.3006  135.6955  153.7206 H   0  0  0  0  0  0  0  0  0  0  0  0  # atno 10763 bound_to 10752
  153.6122  135.3442  155.2983 H   0  0  0  0  0  0  0  0  0  0  0  0  # atno 10764 bound_to 10752
  154.8549  135.4366  154.2116 H   0  0  0  0  0  0  0  0  0  0  0  0  # atno 10765 bound_to 10752
  140.4802  134.0943  155.7749 H   0  0  0  0  0  0  0  0  0  0  0  0  # atno 11005 bound_to 11000
  144.6780  140.2287  143.7358 LP  0  0  0  0  0  0  0  0  0  0  0  0  # atno 17320 bound_to 7965
  145.8294  139.2079  143.1891 LP  0  0  0  0  0  0  0  0  0  0  0  0  # atno 17321 bound_to 7965
  139.4975  144.4024  152.0167 LP  0  0  0  0  0  0  0  0  0  0  0  0  # atno 17342 bound_to 10162
  140.3131  144.3515  150.6029 LP  0  0  0  0  0  0  0  0  0  0  0  0  # atno 17343 bound_to 10162
  156.1485  130.3642  149.9474 LP  0  0  0  0  0  0  0  0  0  0  0  0  # atno 17370 bound_to 10713
  156.7499  130.9111  151.3637 LP  0  0  0  0  0  0  0  0  0  0  0  0  # atno 17371 bound_to 10713
  141.1535  133.8926  157.2038 LP  0  0  0  0  0  0  0  0  0  0  0  0  # atno 17394 bound_to 11000
  139.9831  135.0091  156.9798 LP  0  0  0  0  0  0  0  0  0  0  0  0  # atno 17395 bound_to 11000

$$$$
