AV-unprocessed.smi:2702|AV-procd|sdf|10431|dock5
  -GOLD-   2272014473D 1   1.00000     0.00000
 Structure written by MMmdl.
 47 48  0  0  0  0  0  0  0  0  1 V2000
  144.3245  136.8377  152.5045 C   0  0  0  0  0  0  0  0  0  0  0  0
  145.2326  137.7248  153.1333 O   0  0  0  0  0  0  0  0  0  0  0  0
  146.3369  138.0483  152.3059 C   0  0  0  0  0  0  0  0  0  0  0  0
  147.2403  139.0483  152.9979 C   0  0  0  0  0  0  0  0  0  0  0  0
  148.5162  138.7466  153.3344 C   0  0  0  0  0  0  0  0  0  0  0  0
  149.3601  139.7277  154.0166 C   0  0  0  0  0  0  0  0  0  0  0  0
  150.5289  139.4963  154.3272 O   0  0  0  0  0  0  0  0  0  0  0  0
  148.7518  140.9206  154.2855 N   0  0  0  0  0  0  0  0  0  0  0  0
  149.4680  142.0081  154.9774 C   0  0  0  0  0  0  0  0  0  0  0  0
  150.0396  141.6007  156.3433 C   0  0  0  0  0  0  0  0  0  0  0  0
  150.1913  140.4150  156.6419 O   0  0  0  0  0  0  0  0  0  0  0  0
  150.3659  142.6120  157.1616 N   0  0  0  0  0  0  0  0  0  0  0  0
  150.9290  142.4692  158.5021 C   0  0  1  0  0  0  0  0  0  0  0  0
  152.1561  141.5387  158.4546 C   0  0  0  0  0  0  0  0  0  0  0  0
  152.7555  141.3362  159.8540 C   0  0  0  0  0  0  0  0  0  0  0  0
  153.0906  142.6778  160.5242 C   0  0  0  0  0  0  0  0  0  0  0  0
  151.8631  143.6106  160.5652 C   0  0  1  0  0  0  0  0  0  0  0  0
  152.1613  144.9126  161.3270 C   0  0  0  0  0  0  0  0  0  0  0  0
  151.2721  143.8399  159.1483 C   0  0  1  0  0  0  0  0  0  0  0  0
  152.1557  144.7340  158.2470 C   0  0  0  0  0  0  0  0  0  0  0  0
  147.4173  141.1815  153.9150 C   0  0  0  0  0  0  0  0  0  0  0  0
  146.6920  140.2968  153.3080 N   0  0  0  0  0  0  0  0  0  0  0  0
  143.4977  136.6209  153.1810 H   0  0  0  0  0  0  0  0  0  0  0  0
  144.8076  135.8935  152.2495 H   0  0  0  0  0  0  0  0  0  0  0  0
  143.9099  137.2762  151.5958 H   0  0  0  0  0  0  0  0  0  0  0  0
  146.9090  137.1478  152.0750 H   0  0  0  0  0  0  0  0  0  0  0  0
  145.9903  138.4621  151.3573 H   0  0  0  0  0  0  0  0  0  0  0  0
  148.9227  137.7742  153.0972 H   0  0  0  0  0  0  0  0  0  0  0  0
  150.2866  142.3927  154.3665 H   0  0  0  0  0  0  0  0  0  0  0  0
  148.8004  142.8605  155.1182 H   0  0  0  0  0  0  0  0  0  0  0  0
  150.2074  143.5539  156.8345 H   0  0  0  0  0  0  0  0  0  0  0  0
  150.1801  141.9778  159.1268 H   0  0  0  0  0  0  0  0  0  0  0  0
  151.8727  140.5705  158.0398 H   0  0  0  0  0  0  0  0  0  0  0  0
  152.9150  141.9469  157.7861 H   0  0  0  0  0  0  0  0  0  0  0  0
  152.0469  140.7874  160.4759 H   0  0  0  0  0  0  0  0  0  0  0  0
  153.6514  140.7182  159.7893 H   0  0  0  0  0  0  0  0  0  0  0  0
  153.4501  142.4932  161.5371 H   0  0  0  0  0  0  0  0  0  0  0  0
  153.9128  143.1593  159.9940 H   0  0  0  0  0  0  0  0  0  0  0  0
  151.0950  143.0948  161.1441 H   0  0  0  0  0  0  0  0  0  0  0  0
  152.9909  145.4627  160.8829 H   0  0  0  0  0  0  0  0  0  0  0  0
  152.4305  144.7022  162.3623 H   0  0  0  0  0  0  0  0  0  0  0  0
  151.2906  145.5688  161.3418 H   0  0  0  0  0  0  0  0  0  0  0  0
  150.3320  144.3776  159.2806 H   0  0  0  0  0  0  0  0  0  0  0  0
  153.1381  144.2971  158.0714 H   0  0  0  0  0  0  0  0  0  0  0  0
  152.3069  145.7191  158.6869 H   0  0  0  0  0  0  0  0  0  0  0  0
  151.6945  144.9030  157.2741 H   0  0  0  0  0  0  0  0  0  0  0  0
  147.0449  142.1745  154.1718 H   0  0  0  0  0  0  0  0  0  0  0  0
  1  2  1  0  0  0  0
  1 23  1  0  0  0  0
  1 24  1  0  0  0  0
  1 25  1  0  0  0  0
  2  3  1  0  0  0  0
  3  4  1  0  0  0  0
  3 26  1  0  0  0  0
  3 27  1  0  0  0  0
  4 22  1  0  0  0  0
  4  5  2  0  0  0  0
  5  6  1  0  0  0  0
  5 28  1  0  0  0  0
  6  7  2  0  0  0  0
  6  8  1  0  0  0  0
  8  9  1  0  0  0  0
  8 21  1  0  0  0  0
  9 10  1  0  0  0  0
  9 29  1  0  0  0  0
  9 30  1  0  0  0  0
 10 11  2  0  0  0  0
 10 12  1  0  0  0  0
 12 13  1  0  0  0  0
 12 31  1  0  0  0  0
 13 19  1  0  0  0  0
 13 14  1  0  0  0  0
 13 32  1  0  0  0  0
 14 15  1  0  0  0  0
 14 33  1  0  0  0  0
 14 34  1  0  0  0  0
 15 16  1  0  0  0  0
 15 35  1  0  0  0  0
 15 36  1  0  0  0  0
 16 17  1  0  0  0  0
 16 37  1  0  0  0  0
 16 38  1  0  0  0  0
 17 18  1  0  0  0  0
 17 19  1  0  0  0  0
 17 39  1  0  0  0  0
 18 40  1  0  0  0  0
 18 41  1  0  0  0  0
 18 42  1  0  0  0  0
 19 20  1  0  0  0  0
 19 43  1  0  0  0  0
 20 44  1  0  0  0  0
 20 45  1  0  0  0  0
 20 46  1  0  0  0  0
 21 22  2  0  0  0  0
 21 47  1  0  0  0  0
M  END
> <s_m_source_file>
AV-unprocessed.smi

> <i_m_source_file_index>
2702

> <i_lp_mmshare_version>
43012

> <i_f3d_flags>
0

> <s_epik_input>
W0NIM11PW0NIMl1jMVtjSF1jKD1PKW4oW2NIXW4xKVtDSDJdQyg9TylbTkhdW0NAQEhdMltDSDJdW0NIMl1bQ0gyXVtDQEBIXShbQ0gzXSlbQ0BIXTJbQ0gzXQ==

> <s_epik_cmdline>
J2VwaWtfcHl0aG9uJywgJy1waCcsICc3LjAnLCAnLXRuJywgJzgnLCAnLW1hJywgJzIwMCcsICctbWV0YWxfYmluZGluZycsICctaW1hZScsICc8aW5maWxlLm1hZT4nLCAnLW9tYWUnLCAnPG91dGZpbGUubWFlPic=

> <r_lp_tautomer_probability>
1

> <r_epik_Ionization_Penalty>
1.22164e-06

> <r_epik_Ionization_Penalty_Charging>
3.17988e-07

> <r_epik_Ionization_Penalty_Neutral>
9.03656e-07

> <r_epik_State_Penalty>
-0

> <r_epik_Charging_Adjusted_Penalty>
3.17988e-07

> <i_epik_Tot_Q>
0

> <i_epik_Tot_abs_Q>
0

> <r_epik_Metal_State_Penalty>
-0

> <b_epik_Metal_Only>
0

> <s_lp_Force_Field>
OPLS_2005

> <r_lp_Energy>
18.9829

> <b_lp_Chiralities_Consistent>
1

> <s_lp_Variant>
AV-unprocessed.smi:2702-2

> <Gold.Version>
5.8.1

> <Gold.Id.Protein>
6NUR|6NUR_protein|mol2

> <Gold.PLP.Fitness>
44.4812

> <Gold.PLP.PLP>
-39.8858

> <Gold.PLP.part.hbond>
-2.0000

> <Gold.PLP.part.metal>
0.0000

> <Gold.PLP.part.buried>
4.7708

> <Gold.PLP.part.nonpolar>
-43.9320

> <Gold.PLP.part.repulsive>
1.2151

> <Gold.PLP.ligand.clash>
0.0000

> <Gold.PLP.ligand.torsion>
0.3099

> <Gold.PLP.Chemscore.Hbond>
1.7160

> <Gold.PLP.Chemscore.CHOScore>
0.0000

> <Gold.PLP.Chemscore.Metal>
0.0000

> <Gold.Chemscore.Hbonds>
donor molecule, donor type, donor heavy atom, donor atom, acceptor molecule, acceptor atom, score
      L1  H    12    31       P1  8028  0.70
      P1  H  7989  7998       L1     7  1.00

> <Gold.PLP.Chemscore.Internal.Correction>
0.0671

> <Gold.Rescore>
     Score         DG    S(hbond)    S(metal)    S(lipo)     H(rot)  DE(clash)    DE(int)     intcor
     10.47     -20.16       1.70        0.00     119.12       1.93       4.21       5.48       ----

> <Gold.Chemscore.Fitness>
10.4721

> <Gold.Chemscore.DG>
-20.1633

> <Gold.Chemscore.ZeroCoef>
-5.4800

> <Gold.Chemscore.Hbond>
1.7015

> <Gold.Chemscore.Metal>
0.0000

> <Gold.Chemscore.Lipo>
119.1207

> <Gold.Chemscore.Internal_Hbond>
0.0000

> <Gold.Chemscore.DEClash>
4.2073

> <Gold.Chemscore.DEInternal>
5.4840

> <Gold.Chemscore.Rot>
1.9284

> <Gold.Chemscore.Internal.Correction>
   9.000000E+99

> <Gold.Chemscore.Hbonds>
donor molecule, donor type, donor heavy atom, donor atom, acceptor molecule, acceptor atom, score
      L1  H    12    31       P1  8028  0.68
      P1  H  7989  7998       L1     7  0.60

> <Gold.Chemscore.Hbond.Weighted>
-5.6829

> <Gold.Chemscore.Metal.Weighted>
-0.0000

> <Gold.Chemscore.Lipo.Weighted>
-13.9371

> <Gold.Chemscore.Internal_Hbond.Weighted>
0.0000

> <Gold.Chemscore.DEClash.Weighted>
4.2073

> <Gold.Chemscore.DEInternal.Weighted>
5.4840

> <Gold.Chemscore.Rot.Weighted>
4.9368

> <Gold.Chemscore.Internal.Correction.Weighted>
   9.000000E+99

> <Gold.Protein.RotatedTorsions>
[ 6907 6896 6895 6894 ] final  159.98 input  -60.11 | X-H torsion
[ 7974 7965 7964 7962 ] final  175.28 input  175.53 | X-H torsion
[ 8008 7997 7996 7995 ] final -101.64 input   59.86 | X-H torsion
[ 10167 10162 10161 10158 ] final  -95.32 input  -65.29 | X-H torsion
[ 10718 10713 10712 10709 ] final  -48.06 input   66.30 | X-H torsion
[ 10763 10752 10751 10750 ] final -132.95 input  -60.55 | X-H torsion
[ 11005 11000 10999 10996 ] final  -60.69 input  -57.11 | X-H torsion

> <Gold.Protein.ActiveResidues>
 VAL166  LYS551  ARG553  GLY616  TRP617  ASP618  TYR619  PRO620  LYS621  CYS622 
 ASP623  PHE694  ASN695  SER759  ASP760  ASP761  ALA762  ILE779  LEU786  VAL792 
 PHE793  MET794  SER795  GLU796  ALA797  LYS798  CYS799  TRP800  GLU811  SER814 

> <Gold.Protein.RotatedAtoms>
  151.9775  133.3746  159.4094 H   0  0  0  0  0  0  0  0  0  0  0  0  # atno 6907 bound_to 6896
  150.6939  134.4074  159.5156 H   0  0  0  0  0  0  0  0  0  0  0  0  # atno 6908 bound_to 6896
  152.1788  134.8771  160.0579 H   0  0  0  0  0  0  0  0  0  0  0  0  # atno 6909 bound_to 6896
  144.7205  139.9923  143.6440 H   0  0  0  0  0  0  0  0  0  0  0  0  # atno 7974 bound_to 7965
  154.8455  140.0433  157.1569 H   0  0  0  0  0  0  0  0  0  0  0  0  # atno 8008 bound_to 7997
  154.9000  140.2999  155.5302 H   0  0  0  0  0  0  0  0  0  0  0  0  # atno 8009 bound_to 7997
  156.2994  140.2377  156.4027 H   0  0  0  0  0  0  0  0  0  0  0  0  # atno 8010 bound_to 7997
  140.3054  143.3137  152.0205 H   0  0  0  0  0  0  0  0  0  0  0  0  # atno 10167 bound_to 10162
  156.2024  130.4157  149.9222 H   0  0  0  0  0  0  0  0  0  0  0  0  # atno 10718 bound_to 10713
  154.8738  135.3781  154.4492 H   0  0  0  0  0  0  0  0  0  0  0  0  # atno 10763 bound_to 10752
  153.5170  135.7029  153.5756 H   0  0  0  0  0  0  0  0  0  0  0  0  # atno 10764 bound_to 10752
  153.4020  135.3946  155.1959 H   0  0  0  0  0  0  0  0  0  0  0  0  # atno 10765 bound_to 10752
  141.1297  133.6624  156.5261 H   0  0  0  0  0  0  0  0  0  0  0  0  # atno 11005 bound_to 11000
  146.0402  139.3414  143.0702 LP  0  0  0  0  0  0  0  0  0  0  0  0  # atno 17320 bound_to 7965
  145.8345  140.9613  143.0832 LP  0  0  0  0  0  0  0  0  0  0  0  0  # atno 17321 bound_to 7965
  139.4905  144.6425  151.6848 LP  0  0  0  0  0  0  0  0  0  0  0  0  # atno 17342 bound_to 10162
  140.5615  144.0261  150.6172 LP  0  0  0  0  0  0  0  0  0  0  0  0  # atno 17343 bound_to 10162
  156.6927  130.8902  151.3590 LP  0  0  0  0  0  0  0  0  0  0  0  0  # atno 17370 bound_to 10713
  157.6993  130.9316  150.0738 LP  0  0  0  0  0  0  0  0  0  0  0  0  # atno 17371 bound_to 10713
  140.4253  134.7151  157.4912 LP  0  0  0  0  0  0  0  0  0  0  0  0  # atno 17394 bound_to 11000
  140.0331  134.6376  155.9079 LP  0  0  0  0  0  0  0  0  0  0  0  0  # atno 17395 bound_to 11000

$$$$
