AV-unprocessed.smi:3169|AV-procd|sdf|12103|dock6
  -GOLD-   2272017543D 1   1.00000     0.00000
 Structure written by MMmdl.
 36 37  0  0  0  0  0  0  0  0  2 V2000
  146.0485  138.3674  154.3759 O   0  0  0  0  0  0  0  0  0  0  0  0
  146.8343  137.7457  153.6603 C   0  0  0  0  0  0  0  0  0  0  0  0
  146.4609  136.8081  152.7785 N   0  0  0  0  0  0  0  0  0  0  0  0
  145.0842  136.3898  152.5445 C   0  0  0  0  0  0  0  0  0  0  0  0
  144.9243  135.7177  151.1703 C   0  0  0  0  0  0  0  0  0  0  0  0
  145.1805  134.2787  151.2383 N   0  0  0  0  0  0  0  0  0  0  0  0
  146.3524  133.6564  151.5835 C   0  0  0  0  0  0  0  0  0  0  0  0
  146.1163  132.3080  151.5029 C   0  0  0  0  0  0  0  0  0  0  0  0
  144.8117  132.1653  151.1116 N   0  3  0  0  0  0  0  0  0  0  0  0
  144.2443  133.3653  150.9514 C   0  0  0  0  0  0  0  0  0  0  0  0
  148.1634  137.9148  153.6741 N   0  0  0  0  0  0  0  0  0  0  0  0
  148.8876  138.8458  154.5335 C   0  0  0  0  0  0  0  0  0  0  0  0
  150.3885  138.8868  154.1980 C   0  0  2  0  0  0  0  0  0  0  0  0
  151.1894  137.6628  154.6449 C   0  0  0  0  0  0  0  0  0  0  0  0
  152.5845  138.2345  154.7454 C   0  0  0  0  0  0  0  0  0  0  0  0
  152.3107  139.6254  155.3108 C   0  0  0  0  0  0  0  0  0  0  0  0
  151.0090  139.9882  154.8557 O   0  0  0  0  0  0  0  0  0  0  0  0
  147.1781  136.3524  152.2332 H   0  0  0  0  0  0  0  0  0  0  0  0
  144.7613  135.7177  153.3417 H   0  0  0  0  0  0  0  0  0  0  0  0
  144.4461  137.2718  152.6045 H   0  0  0  0  0  0  0  0  0  0  0  0
  143.9138  135.8620  150.7852 H   0  0  0  0  0  0  0  0  0  0  0  0
  145.6108  136.1467  150.4386 H   0  0  0  0  0  0  0  0  0  0  0  0
  147.2436  134.2045  151.8535 H   0  0  0  0  0  0  0  0  0  0  0  0
  146.7616  131.4620  151.6895 H   0  0  0  0  0  0  0  0  0  0  0  0
  143.2304  133.5588  150.6484 H   0  0  0  0  0  0  0  0  0  0  0  0
  148.7206  137.3537  153.0465 H   0  0  0  0  0  0  0  0  0  0  0  0
  148.4568  139.8356  154.3809 H   0  0  0  0  0  0  0  0  0  0  0  0
  148.7357  138.6078  155.5878 H   0  0  0  0  0  0  0  0  0  0  0  0
  150.5259  139.0324  153.1252 H   0  0  0  0  0  0  0  0  0  0  0  0
  150.8567  137.3214  155.6263 H   0  0  0  0  0  0  0  0  0  0  0  0
  151.1181  136.8274  153.9480 H   0  0  0  0  0  0  0  0  0  0  0  0
  153.2496  137.6413  155.3736 H   0  0  0  0  0  0  0  0  0  0  0  0
  153.0291  138.3120  153.7523 H   0  0  0  0  0  0  0  0  0  0  0  0
  152.2990  139.5981  156.4007 H   0  0  0  0  0  0  0  0  0  0  0  0
  153.0589  140.3540  154.9983 H   0  0  0  0  0  0  0  0  0  0  0  0
  144.3416  131.2807  150.9644 H   0  0  0  0  0  0  0  0  0  0  0  0
  1  2  2  0  0  0  0
  2  3  1  0  0  0  0
  2 11  1  0  0  0  0
  3  4  1  0  0  0  0
  3 18  1  0  0  0  0
  4  5  1  0  0  0  0
  4 19  1  0  0  0  0
  4 20  1  0  0  0  0
  5  6  1  0  0  0  0
  5 21  1  0  0  0  0
  5 22  1  0  0  0  0
  6 10  1  0  0  0  0
  6  7  1  0  0  0  0
  7  8  2  0  0  0  0
  7 23  1  0  0  0  0
  8  9  1  0  0  0  0
  8 24  1  0  0  0  0
  9 10  2  0  0  0  0
  9 36  1  0  0  0  0
 10 25  1  0  0  0  0
 11 12  1  0  0  0  0
 11 26  1  0  0  0  0
 12 13  1  0  0  0  0
 12 27  1  0  0  0  0
 12 28  1  0  0  0  0
 13 17  1  0  0  0  0
 13 14  1  0  0  0  0
 13 29  1  0  0  0  0
 14 15  1  0  0  0  0
 14 30  1  0  0  0  0
 14 31  1  0  0  0  0
 15 16  1  0  0  0  0
 15 32  1  0  0  0  0
 15 33  1  0  0  0  0
 16 17  1  0  0  0  0
 16 34  1  0  0  0  0
 16 35  1  0  0  0  0
M  CHG  1   9   1
M  END
> <s_m_source_file>
AV-unprocessed.smi

> <i_m_source_file_index>
3169

> <i_lp_mmshare_version>
43012

> <i_f3d_flags>
0

> <s_epik_input>
TzFbQ0gyXVtDSDJdW0NIMl1bQ0BIXTFbQ0gyXVtOSF1DKD1PKVtOSF1bQ0gyXVtDSDJdbjJbY0hdW2NIXW5bY0hdMg==

> <s_epik_cmdline>
J2VwaWtfcHl0aG9uJywgJy1waCcsICc3LjAnLCAnLXRuJywgJzgnLCAnLW1hJywgJzIwMCcsICctbWV0YWxfYmluZGluZycsICctaW1hZScsICc8aW5maWxlLm1hZT4nLCAnLW9tYWUnLCAnPG91dGZpbGUubWFlPic=

> <r_lp_tautomer_probability>
1

> <r_epik_Ionization_Penalty>
0.256136

> <r_epik_Ionization_Penalty_Charging>
0

> <r_epik_Ionization_Penalty_Neutral>
0.256136

> <r_epik_State_Penalty>
0.247629

> <r_epik_Charging_Adjusted_Penalty>
0.247629

> <i_epik_Tot_Q>
1

> <i_epik_Tot_abs_Q>
1

> <r_epik_Metal_State_Penalty>
0.537113

> <b_epik_Metal_Only>
0

> <s_lp_Force_Field>
OPLS_2005

> <r_lp_Energy>
17.2765

> <b_lp_Chiralities_Consistent>
1

> <s_lp_Variant>
AV-unprocessed.smi:3169-1

> <Gold.Version>
5.8.1

> <Gold.Id.Protein>
6NUR|6NUR_protein|mol2

> <Gold.PLP.Fitness>
45.2775

> <Gold.PLP.PLP>
-31.8653

> <Gold.PLP.part.hbond>
-2.9573

> <Gold.PLP.part.metal>
0.0000

> <Gold.PLP.part.buried>
-3.5046

> <Gold.PLP.part.nonpolar>
-26.7738

> <Gold.PLP.part.repulsive>
0.3138

> <Gold.PLP.ligand.clash>
0.0000

> <Gold.PLP.ligand.torsion>
0.4219

> <Gold.PLP.Chemscore.Hbond>
2.7440

> <Gold.PLP.Chemscore.CHOScore>
2.0000

> <Gold.PLP.Chemscore.Metal>
0.0000

> <Gold.Chemscore.Hbonds>
donor molecule, donor type, donor heavy atom, donor atom, acceptor molecule, acceptor atom, score
      L1  H     3    18       P1  7948  0.96
      L1  H    11    26       P1  7948  1.00
      P1  H  7989  7998       L1    17  0.65
      L1  C     7    23       P1  7948  0.83
      L1  C    10    25       P1 10186  0.77

> <Gold.PLP.Chemscore.Internal.Correction>
0.0239

> <Gold.Rescore>
     Score         DG    S(hbond)    S(metal)    S(lipo)     H(rot)  DE(clash)    DE(int)     intcor
     12.78     -13.15       1.91        0.00      61.84       2.33       0.03       0.34       ----

> <Gold.Chemscore.Fitness>
12.7784

> <Gold.Chemscore.DG>
-13.1489

> <Gold.Chemscore.ZeroCoef>
-5.4800

> <Gold.Chemscore.Hbond>
1.9149

> <Gold.Chemscore.Metal>
0.0000

> <Gold.Chemscore.Lipo>
61.8355

> <Gold.Chemscore.Internal_Hbond>
0.0000

> <Gold.Chemscore.DEClash>
0.0255

> <Gold.Chemscore.DEInternal>
0.3450

> <Gold.Chemscore.Rot>
2.3288

> <Gold.Chemscore.Internal.Correction>
   9.000000E+99

> <Gold.Chemscore.Hbonds>
donor molecule, donor type, donor heavy atom, donor atom, acceptor molecule, acceptor atom, score
      L1  H     3    18       P1  7948  0.92
      L1  H    11    26       P1  7948  0.98
      P1  H  7989  7998       L1    17  0.02

> <Gold.Chemscore.Hbond.Weighted>
-6.3958

> <Gold.Chemscore.Metal.Weighted>
-0.0000

> <Gold.Chemscore.Lipo.Weighted>
-7.2348

> <Gold.Chemscore.Internal_Hbond.Weighted>
0.0000

> <Gold.Chemscore.DEClash.Weighted>
0.0255

> <Gold.Chemscore.DEInternal.Weighted>
0.3450

> <Gold.Chemscore.Rot.Weighted>
5.9617

> <Gold.Chemscore.Internal.Correction.Weighted>
   9.000000E+99

> <Gold.Protein.RotatedTorsions>
[ 6907 6896 6895 6894 ] final   97.02 input  -60.11 | X-H torsion
[ 7974 7965 7964 7962 ] final -114.61 input  175.53 | X-H torsion
[ 8008 7997 7996 7995 ] final  -10.40 input   59.86 | X-H torsion
[ 10167 10162 10161 10158 ] final -120.60 input  -65.29 | X-H torsion
[ 10718 10713 10712 10709 ] final  -92.48 input   66.30 | X-H torsion
[ 10763 10752 10751 10750 ] final  -58.26 input  -60.55 | X-H torsion
[ 11005 11000 10999 10996 ] final  -88.29 input  -57.11 | X-H torsion

> <Gold.Protein.ActiveResidues>
 VAL166  LYS551  ARG553  GLY616  TRP617  ASP618  TYR619  PRO620  LYS621  CYS622 
 ASP623  PHE694  ASN695  SER759  ASP760  ASP761  ALA762  ILE779  LEU786  VAL792 
 PHE793  MET794  SER795  GLU796  ALA797  LYS798  CYS799  TRP800  GLU811  SER814 

> <Gold.Protein.RotatedAtoms>
  152.5428  134.0796  159.8229 H   0  0  0  0  0  0  0  0  0  0  0  0  # atno 6907 bound_to 6896
  151.0900  133.5316  159.2623 H   0  0  0  0  0  0  0  0  0  0  0  0  # atno 6908 bound_to 6896
  151.2111  135.0490  159.8965 H   0  0  0  0  0  0  0  0  0  0  0  0  # atno 6909 bound_to 6896
  145.1181  140.8652  143.3830 H   0  0  0  0  0  0  0  0  0  0  0  0  # atno 7974 bound_to 7965
  154.5558  140.2330  155.8413 H   0  0  0  0  0  0  0  0  0  0  0  0  # atno 8008 bound_to 7997
  156.1986  140.3058  155.9440 H   0  0  0  0  0  0  0  0  0  0  0  0  # atno 8009 bound_to 7997
  155.2984  140.0430  157.3018 H   0  0  0  0  0  0  0  0  0  0  0  0  # atno 8010 bound_to 7997
  140.0341  143.5219  152.2162 H   0  0  0  0  0  0  0  0  0  0  0  0  # atno 10167 bound_to 10162
  156.0003  130.4989  150.5632 H   0  0  0  0  0  0  0  0  0  0  0  0  # atno 10718 bound_to 10713
  154.2353  135.6353  153.5189 H   0  0  0  0  0  0  0  0  0  0  0  0  # atno 10763 bound_to 10752
  152.9940  135.5529  154.5968 H   0  0  0  0  0  0  0  0  0  0  0  0  # atno 10764 bound_to 10752
  154.5461  135.2898  155.1026 H   0  0  0  0  0  0  0  0  0  0  0  0  # atno 10765 bound_to 10752
  141.1604  133.7561  156.9429 H   0  0  0  0  0  0  0  0  0  0  0  0  # atno 11005 bound_to 11000
  145.0771  139.2987  143.5802 LP  0  0  0  0  0  0  0  0  0  0  0  0  # atno 17320 bound_to 7965
  146.3522  140.0265  142.8654 LP  0  0  0  0  0  0  0  0  0  0  0  0  # atno 17321 bound_to 7965
  139.6057  144.7595  151.3068 LP  0  0  0  0  0  0  0  0  0  0  0  0  # atno 17342 bound_to 10162
  140.7289  143.6922  150.7913 LP  0  0  0  0  0  0  0  0  0  0  0  0  # atno 17343 bound_to 10162
  157.3538  131.0738  151.1691 LP  0  0  0  0  0  0  0  0  0  0  0  0  # atno 17370 bound_to 10713
  157.2499  130.6609  149.5927 LP  0  0  0  0  0  0  0  0  0  0  0  0  # atno 17371 bound_to 10713
  140.1309  134.9356  157.2335 LP  0  0  0  0  0  0  0  0  0  0  0  0  # atno 17394 bound_to 11000
  140.2954  134.3192  155.7304 LP  0  0  0  0  0  0  0  0  0  0  0  0  # atno 17395 bound_to 11000

$$$$
