AV-unprocessed.smi:1643|AV-procd|sdf|6574|dock1
  -GOLD-   22720 7263D 1   1.00000     0.00000
 Structure written by MMmdl.
 54 56  0  0  0  0  0  0  0  0  2 V2000
  142.5128  141.4744  155.3443 C   0  0  0  0  0  0  0  0  0  0  0  0
  143.6253  141.1224  156.3354 C   0  0  0  0  0  0  0  0  0  0  0  0
  143.6016  140.0086  156.8586 O   0  0  0  0  0  0  0  0  0  0  0  0
  144.5956  142.0325  156.5981 N   0  0  0  0  0  0  0  0  0  0  0  0
  144.5488  143.3878  156.0299 C   0  0  0  0  0  0  0  0  0  0  0  0
  145.4628  143.5400  154.7918 C   0  0  0  0  0  0  0  0  0  0  0  0
  146.4288  142.3641  154.5179 C   0  0  0  0  0  0  0  0  0  0  0  0
  147.4657  142.1256  155.5666 N   0  3  2  0  0  0  0  0  0  0  0  0
  148.1026  140.7845  155.4569 C   0  0  0  0  0  0  0  0  0  0  0  0
  149.5361  140.8409  154.8926 C   0  0  1  0  0  0  0  0  0  0  0  0
  149.4761  141.1861  153.5216 O   0  0  0  0  0  0  0  0  0  0  0  0
  150.4076  141.8687  155.6395 C   0  0  0  0  0  0  0  0  0  0  0  0
  151.2712  141.2459  156.6265 N   0  0  0  0  0  0  0  0  0  0  0  0
  151.8919  140.0541  156.5321 C   0  0  0  0  0  0  0  0  0  0  0  0
  152.6395  139.6740  157.5642 N   0  0  0  0  0  0  0  0  0  0  0  0
  152.4897  140.7454  158.4277 C   0  0  0  0  0  0  0  0  0  0  0  0
  153.0291  140.9708  159.7130 C   0  0  0  0  0  0  0  0  0  0  0  0
  152.7365  142.1562  160.4244 C   0  0  0  0  0  0  0  0  0  0  0  0
  153.3368  142.3565  161.8048 C   0  0  0  0  0  0  0  0  0  0  0  0
  151.8919  143.1399  159.8497 C   0  0  0  0  0  0  0  0  0  0  0  0
  151.5631  144.4211  160.5958 C   0  0  0  0  0  0  0  0  0  0  0  0
  151.3454  142.9314  158.5662 C   0  0  0  0  0  0  0  0  0  0  0  0
  151.6426  141.7468  157.8695 C   0  0  0  0  0  0  0  0  0  0  0  0
  147.0710  142.4490  156.9683 C   0  0  0  0  0  0  0  0  0  0  0  0
  145.7653  141.7692  157.4553 C   0  0  0  0  0  0  0  0  0  0  0  0
  142.9261  141.8577  154.4108 H   0  0  0  0  0  0  0  0  0  0  0  0
  141.8411  142.2205  155.7691 H   0  0  0  0  0  0  0  0  0  0  0  0
  141.9198  140.5910  155.1049 H   0  0  0  0  0  0  0  0  0  0  0  0
  143.5313  143.6880  155.7737 H   0  0  0  0  0  0  0  0  0  0  0  0
  144.8424  144.1019  156.8000 H   0  0  0  0  0  0  0  0  0  0  0  0
  144.8252  143.6539  153.9144 H   0  0  0  0  0  0  0  0  0  0  0  0
  146.0239  144.4723  154.8636 H   0  0  0  0  0  0  0  0  0  0  0  0
  145.8536  141.4531  154.3458 H   0  0  0  0  0  0  0  0  0  0  0  0
  146.9421  142.5659  153.5780 H   0  0  0  0  0  0  0  0  0  0  0  0
  148.1380  140.3062  156.4370 H   0  0  0  0  0  0  0  0  0  0  0  0
  147.4764  140.1450  154.8327 H   0  0  0  0  0  0  0  0  0  0  0  0
  150.0132  139.8654  154.9778 H   0  0  0  0  0  0  0  0  0  0  0  0
  149.4466  140.3925  153.0088 H   0  0  0  0  0  0  0  0  0  0  0  0
  151.0238  142.4337  154.9383 H   0  0  0  0  0  0  0  0  0  0  0  0
  149.7766  142.5936  156.1552 H   0  0  0  0  0  0  0  0  0  0  0  0
  151.7862  139.4279  155.6583 H   0  0  0  0  0  0  0  0  0  0  0  0
  153.6724  140.2214  160.1507 H   0  0  0  0  0  0  0  0  0  0  0  0
  153.9200  143.2770  161.8397 H   0  0  0  0  0  0  0  0  0  0  0  0
  153.9988  141.5329  162.0747 H   0  0  0  0  0  0  0  0  0  0  0  0
  152.5500  142.4152  162.5573 H   0  0  0  0  0  0  0  0  0  0  0  0
  150.8880  145.0548  160.0200 H   0  0  0  0  0  0  0  0  0  0  0  0
  152.4709  144.9920  160.7927 H   0  0  0  0  0  0  0  0  0  0  0  0
  151.0809  144.1971  161.5476 H   0  0  0  0  0  0  0  0  0  0  0  0
  150.7014  143.6727  158.1171 H   0  0  0  0  0  0  0  0  0  0  0  0
  147.8845  142.1828  157.6440 H   0  0  0  0  0  0  0  0  0  0  0  0
  146.9995  143.5323  157.0643 H   0  0  0  0  0  0  0  0  0  0  0  0
  145.5321  142.1099  158.4649 H   0  0  0  0  0  0  0  0  0  0  0  0
  145.9720  140.7028  157.5376 H   0  0  0  0  0  0  0  0  0  0  0  0
  148.2064  142.7825  155.3641 H   0  0  0  0  0  0  0  0  0  0  0  0
  1  2  1  0  0  0  0
  1 26  1  0  0  0  0
  1 27  1  0  0  0  0
  1 28  1  0  0  0  0
  2  3  2  0  0  0  0
  2  4  1  0  0  0  0
  4 25  1  0  0  0  0
  4  5  1  0  0  0  0
  5  6  1  0  0  0  0
  5 29  1  0  0  0  0
  5 30  1  0  0  0  0
  6  7  1  0  0  0  0
  6 31  1  0  0  0  0
  6 32  1  0  0  0  0
  7  8  1  0  0  0  0
  7 33  1  0  0  0  0
  7 34  1  0  0  0  0
  8  9  1  0  0  0  0
  8 24  1  0  0  0  0
  8 54  1  0  0  0  0
  9 10  1  0  0  0  0
  9 35  1  0  0  0  0
  9 36  1  0  0  0  0
 10 11  1  0  0  0  0
 10 12  1  0  0  0  0
 10 37  1  0  0  0  0
 11 38  1  0  0  0  0
 12 13  1  0  0  0  0
 12 39  1  0  0  0  0
 12 40  1  0  0  0  0
 13 23  1  0  0  0  0
 13 14  1  0  0  0  0
 14 15  2  0  0  0  0
 14 41  1  0  0  0  0
 15 16  1  0  0  0  0
 16 23  2  0  0  0  0
 16 17  1  0  0  0  0
 17 18  2  0  0  0  0
 17 42  1  0  0  0  0
 18 19  1  0  0  0  0
 18 20  1  0  0  0  0
 19 43  1  0  0  0  0
 19 44  1  0  0  0  0
 19 45  1  0  0  0  0
 20 21  1  0  0  0  0
 20 22  2  0  0  0  0
 21 46  1  0  0  0  0
 21 47  1  0  0  0  0
 21 48  1  0  0  0  0
 22 23  1  0  0  0  0
 22 49  1  0  0  0  0
 24 25  1  0  0  0  0
 24 50  1  0  0  0  0
 24 51  1  0  0  0  0
 25 52  1  0  0  0  0
 25 53  1  0  0  0  0
M  CHG  1   8   1
M  END
> <s_m_source_file>
AV-unprocessed.smi

> <i_m_source_file_index>
1643

> <i_lp_mmshare_version>
43012

> <i_f3d_flags>
0

> <s_epik_input>
W0NIM11DKD1PKU4xW0NIMl1bQ0gyXVtDSDJdTihbQ0gyXVtDSDJdMSlbQ0gyXVtDQEhdKFtPSF0pW0NIMl1uKFtjSF1uMiljKGMyMylbY0hdYyhbQ0gzXSljKFtjSF0zKVtDSDNd

> <s_epik_cmdline>
J2VwaWtfcHl0aG9uJywgJy1waCcsICc3LjAnLCAnLXRuJywgJzgnLCAnLW1hJywgJzIwMCcsICctbWV0YWxfYmluZGluZycsICctaW1hZScsICc8aW5maWxlLm1hZT4nLCAnLW9tYWUnLCAnPG91dGZpbGUubWFlPic=

> <r_epik_Ionization_Penalty>
0.189467

> <r_epik_Ionization_Penalty_Charging>
0.101761

> <r_epik_Ionization_Penalty_Neutral>
0.0877056

> <r_epik_State_Penalty>
0.170758

> <r_epik_Charging_Adjusted_Penalty>
0.272519

> <i_epik_Tot_Q>
1

> <i_epik_Tot_abs_Q>
1

> <r_epik_Metal_State_Penalty>
0.0948013

> <b_epik_Metal_Only>
0

> <s_lp_Force_Field>
OPLS_2005

> <r_lp_Energy>
48.7512

> <b_lp_Chiralities_Consistent>
1

> <s_lp_Variant>
AV-unprocessed.smi:1643-3

> <Gold.Version>
5.8.1

> <Gold.Id.Protein>
6NUR|6NUR_protein|mol2

> <Gold.PLP.Fitness>
57.3606

> <Gold.PLP.PLP>
-46.6313

> <Gold.PLP.part.hbond>
-5.0000

> <Gold.PLP.part.metal>
0.0000

> <Gold.PLP.part.buried>
-3.7863

> <Gold.PLP.part.nonpolar>
-35.9439

> <Gold.PLP.part.repulsive>
0.0840

> <Gold.PLP.ligand.clash>
0.0000

> <Gold.PLP.ligand.torsion>
1.6618

> <Gold.PLP.Chemscore.Hbond>
4.6202

> <Gold.PLP.Chemscore.CHOScore>
0.0000

> <Gold.PLP.Chemscore.Metal>
0.0000

> <Gold.Chemscore.Hbonds>
donor molecule, donor type, donor heavy atom, donor atom, acceptor molecule, acceptor atom, score
      L1  H     8    54       P1  8028  1.66
      L1  H    11    38       P1  7957  0.66
      P1  H  7989  7998       L1    11  0.01
      P1  H  7997  8010       L1    15  0.90
      P1  H  8011  8017       L1    11  1.00

> <Gold.PLP.Chemscore.Internal.Correction>
0.1922

> <Gold.Rescore>
     Score         DG    S(hbond)    S(metal)    S(lipo)     H(rot)  DE(clash)    DE(int)     intcor
     17.33     -19.55       1.76        0.00     116.41       2.12       0.58       1.64       ----

> <Gold.Chemscore.Fitness>
17.3286

> <Gold.Chemscore.DG>
-19.5503

> <Gold.Chemscore.ZeroCoef>
-5.4800

> <Gold.Chemscore.Hbond>
1.7581

> <Gold.Chemscore.Metal>
0.0000

> <Gold.Chemscore.Lipo>
116.4068

> <Gold.Chemscore.Internal_Hbond>
0.0000

> <Gold.Chemscore.DEClash>
0.5774

> <Gold.Chemscore.DEInternal>
1.6444

> <Gold.Chemscore.Rot>
2.1178

> <Gold.Chemscore.Internal.Correction>
   9.000000E+99

> <Gold.Chemscore.Hbonds>
donor molecule, donor type, donor heavy atom, donor atom, acceptor molecule, acceptor atom, score
      L1  H     8    54       P1  8028  0.76
      L1  H    11    38       P1  7957  0.66
      P1  H  7997  8010       L1    15  0.05
      P1  H  8011  8017       L1    11  0.37

> <Gold.Chemscore.Hbond.Weighted>
-5.8722

> <Gold.Chemscore.Metal.Weighted>
-0.0000

> <Gold.Chemscore.Lipo.Weighted>
-13.6196

> <Gold.Chemscore.Internal_Hbond.Weighted>
0.0000

> <Gold.Chemscore.DEClash.Weighted>
0.5774

> <Gold.Chemscore.DEInternal.Weighted>
1.6444

> <Gold.Chemscore.Rot.Weighted>
5.4215

> <Gold.Chemscore.Internal.Correction.Weighted>
   9.000000E+99

> <Gold.Protein.RotatedTorsions>
[ 6907 6896 6895 6894 ] final   85.78 input  -60.11 | X-H torsion
[ 7974 7965 7964 7962 ] final  160.10 input  175.53 | X-H torsion
[ 8008 7997 7996 7995 ] final   52.32 input   59.86 | X-H torsion
[ 10167 10162 10161 10158 ] final   -1.97 input  -65.29 | X-H torsion
[ 10718 10713 10712 10709 ] final -151.66 input   66.30 | X-H torsion
[ 10763 10752 10751 10750 ] final  -43.13 input  -60.55 | X-H torsion
[ 11005 11000 10999 10996 ] final  -73.01 input  -57.11 | X-H torsion

> <Gold.Protein.ActiveResidues>
 VAL166  LYS551  ARG553  GLY616  TRP617  ASP618  TYR619  PRO620  LYS621  CYS622 
 ASP623  PHE694  ASN695  SER759  ASP760  ASP761  ALA762  ILE779  LEU786  VAL792 
 PHE793  MET794  SER795  GLU796  ALA797  LYS798  CYS799  TRP800  GLU811  SER814 

> <Gold.Protein.RotatedAtoms>
  152.5382  134.2532  159.8906 H   0  0  0  0  0  0  0  0  0  0  0  0  # atno 6907 bound_to 6896
  151.2495  133.4351  159.2618 H   0  0  0  0  0  0  0  0  0  0  0  0  # atno 6908 bound_to 6896
  151.0552  134.9714  159.8288 H   0  0  0  0  0  0  0  0  0  0  0  0  # atno 6909 bound_to 6896
  144.7755  139.7710  143.6280 H   0  0  0  0  0  0  0  0  0  0  0  0  # atno 7974 bound_to 7965
  155.4498  140.3458  155.4299 H   0  0  0  0  0  0  0  0  0  0  0  0  # atno 8008 bound_to 7997
  156.1227  140.1492  156.9210 H   0  0  0  0  0  0  0  0  0  0  0  0  # atno 8009 bound_to 7997
  154.4835  140.0862  156.7413 H   0  0  0  0  0  0  0  0  0  0  0  0  # atno 8010 bound_to 7997
  140.6832  143.6712  150.8183 H   0  0  0  0  0  0  0  0  0  0  0  0  # atno 10167 bound_to 10162
  156.4622  130.8219  151.2449 H   0  0  0  0  0  0  0  0  0  0  0  0  # atno 10718 bound_to 10713
  153.9906  135.6706  153.4754 H   0  0  0  0  0  0  0  0  0  0  0  0  # atno 10763 bound_to 10752
  153.0707  135.4976  154.8294 H   0  0  0  0  0  0  0  0  0  0  0  0  # atno 10764 bound_to 10752
  154.7111  135.3097  154.9157 H   0  0  0  0  0  0  0  0  0  0  0  0  # atno 10765 bound_to 10752
  141.1617  133.6864  156.7146 H   0  0  0  0  0  0  0  0  0  0  0  0  # atno 11005 bound_to 11000
  146.1931  139.5182  142.9792 LP  0  0  0  0  0  0  0  0  0  0  0  0  # atno 17320 bound_to 7965
  145.6200  141.0324  143.1920 LP  0  0  0  0  0  0  0  0  0  0  0  0  # atno 17321 bound_to 7965
  140.0415  143.5341  152.2715 LP  0  0  0  0  0  0  0  0  0  0  0  0  # atno 17342 bound_to 10162
  139.6170  144.7621  151.2824 LP  0  0  0  0  0  0  0  0  0  0  0  0  # atno 17343 bound_to 10162
  157.7497  131.0103  150.3302 LP  0  0  0  0  0  0  0  0  0  0  0  0  # atno 17370 bound_to 10713
  156.3705  130.3862  149.7179 LP  0  0  0  0  0  0  0  0  0  0  0  0  # atno 17371 bound_to 10713
  140.2861  134.8278  157.3976 LP  0  0  0  0  0  0  0  0  0  0  0  0  # atno 17394 bound_to 11000
  140.1389  134.4998  155.8047 LP  0  0  0  0  0  0  0  0  0  0  0  0  # atno 17395 bound_to 11000

$$$$
