AV-unprocessed.smi:3304|AV-procd|sdf|12697|dock1
  -GOLD-   2272019 33D 1   1.00000     0.00000
 Structure written by MMmdl.
 46 47  0  0  0  0  0  0  0  0  2 V2000
  147.9019  141.7115  156.0760 C   0  0  0  0  0  0  0  0  0  0  0  0
  148.6512  140.7886  155.1702 C   0  0  0  0  0  0  0  0  0  0  0  0
  148.2258  140.0356  154.1087 C   0  0  0  0  0  0  0  0  0  0  0  0
  146.8440  139.9103  153.5275 C   0  0  0  0  0  0  0  0  0  0  0  0
  146.7939  138.8506  152.4190 C   0  0  0  0  0  0  0  0  0  0  0  0
  145.4009  138.4894  152.0934 N   0  3  0  0  0  0  0  0  0  0  0  0
  144.8371  137.4309  152.9550 C   0  0  0  0  0  0  0  0  0  0  0  0
  144.2556  136.2723  152.1240 C   0  0  2  0  0  0  0  0  0  0  0  0
  143.5764  135.2291  153.0332 C   0  0  0  0  0  0  0  0  0  0  0  0
  142.9865  134.0641  152.2216 C   0  0  0  0  0  0  0  0  0  0  0  0
  144.0562  133.3832  151.3478 C   0  0  1  0  0  0  0  0  0  0  0  0
  143.4624  132.2269  150.5310 C   0  0  0  0  0  0  0  0  0  0  0  0
  144.7429  134.4206  150.4403 C   0  0  0  0  0  0  0  0  0  0  0  0
  145.3303  135.5850  151.2544 C   0  0  0  0  0  0  0  0  0  0  0  0
  149.4086  139.3781  153.6669 C   0  0  0  0  0  0  0  0  0  0  0  0
  150.4698  139.6906  154.3885 N   0  0  0  0  0  0  0  0  0  0  0  0
  150.0065  140.5574  155.3124 N   0  0  0  0  0  0  0  0  0  0  0  0
  150.9227  141.1125  156.2897 C   0  0  0  0  0  0  0  0  0  0  0  0
  146.8501  141.7734  155.7967 H   0  0  0  0  0  0  0  0  0  0  0  0
  148.3182  142.7182  156.0340 H   0  0  0  0  0  0  0  0  0  0  0  0
  147.9531  141.3665  157.1089 H   0  0  0  0  0  0  0  0  0  0  0  0
  146.1234  139.6565  154.3058 H   0  0  0  0  0  0  0  0  0  0  0  0
  146.5148  140.8681  153.1228 H   0  0  0  0  0  0  0  0  0  0  0  0
  147.2856  139.2273  151.5211 H   0  0  0  0  0  0  0  0  0  0  0  0
  147.3325  137.9546  152.7309 H   0  0  0  0  0  0  0  0  0  0  0  0
  144.8248  139.3146  152.1791 H   0  0  0  0  0  0  0  0  0  0  0  0
  145.6067  137.0604  153.6339 H   0  0  0  0  0  0  0  0  0  0  0  0
  144.0542  137.8736  153.5726 H   0  0  0  0  0  0  0  0  0  0  0  0
  143.4893  136.6818  151.4632 H   0  0  0  0  0  0  0  0  0  0  0  0
  144.2972  134.8405  153.7538 H   0  0  0  0  0  0  0  0  0  0  0  0
  142.7839  135.7003  153.6154 H   0  0  0  0  0  0  0  0  0  0  0  0
  142.5412  133.3359  152.9004 H   0  0  0  0  0  0  0  0  0  0  0  0
  142.1758  134.4337  151.5921 H   0  0  0  0  0  0  0  0  0  0  0  0
  144.8140  132.9618  152.0102 H   0  0  0  0  0  0  0  0  0  0  0  0
  142.6931  132.5800  149.8436 H   0  0  0  0  0  0  0  0  0  0  0  0
  143.0093  131.4787  151.1819 H   0  0  0  0  0  0  0  0  0  0  0  0
  144.2314  131.7273  149.9412 H   0  0  0  0  0  0  0  0  0  0  0  0
  145.5356  133.9431  149.8632 H   0  0  0  0  0  0  0  0  0  0  0  0
  144.0262  134.8093  149.7154 H   0  0  0  0  0  0  0  0  0  0  0  0
  145.7840  136.3041  150.5719 H   0  0  0  0  0  0  0  0  0  0  0  0
  146.1362  135.2129  151.8886 H   0  0  0  0  0  0  0  0  0  0  0  0
  149.5255  138.6839  152.8477 H   0  0  0  0  0  0  0  0  0  0  0  0
  150.9367  142.1990  156.2031 H   0  0  0  0  0  0  0  0  0  0  0  0
  151.9333  140.7339  156.1313 H   0  0  0  0  0  0  0  0  0  0  0  0
  150.5973  140.8387  157.2934 H   0  0  0  0  0  0  0  0  0  0  0  0
  145.3686  138.1711  151.1353 H   0  0  0  0  0  0  0  0  0  0  0  0
  1  2  1  0  0  0  0
  1 19  1  0  0  0  0
  1 20  1  0  0  0  0
  1 21  1  0  0  0  0
  2 17  1  0  0  0  0
  2  3  2  0  0  0  0
  3  4  1  0  0  0  0
  3 15  1  0  0  0  0
  4  5  1  0  0  0  0
  4 22  1  0  0  0  0
  4 23  1  0  0  0  0
  5  6  1  0  0  0  0
  5 24  1  0  0  0  0
  5 25  1  0  0  0  0
  6  7  1  0  0  0  0
  6 26  1  0  0  0  0
  6 46  1  0  0  0  0
  7  8  1  0  0  0  0
  7 27  1  0  0  0  0
  7 28  1  0  0  0  0
  8 14  1  0  0  0  0
  8  9  1  0  0  0  0
  8 29  1  0  0  0  0
  9 10  1  0  0  0  0
  9 30  1  0  0  0  0
  9 31  1  0  0  0  0
 10 11  1  0  0  0  0
 10 32  1  0  0  0  0
 10 33  1  0  0  0  0
 11 12  1  0  0  0  0
 11 13  1  0  0  0  0
 11 34  1  0  0  0  0
 12 35  1  0  0  0  0
 12 36  1  0  0  0  0
 12 37  1  0  0  0  0
 13 14  1  0  0  0  0
 13 38  1  0  0  0  0
 13 39  1  0  0  0  0
 14 40  1  0  0  0  0
 14 41  1  0  0  0  0
 15 16  2  0  0  0  0
 15 42  1  0  0  0  0
 16 17  1  0  0  0  0
 17 18  1  0  0  0  0
 18 43  1  0  0  0  0
 18 44  1  0  0  0  0
 18 45  1  0  0  0  0
M  CHG  1   6   1
M  END
> <s_m_source_file>
AV-unprocessed.smi

> <i_m_source_file_index>
3304

> <i_lp_mmshare_version>
43012

> <i_f3d_flags>
0

> <s_epik_input>
W0NIM11uMW5bY0hdYyhjMVtDSDNdKVtDSDJdW0NIMl1bTkhdW0NIMl1bQ0BASF0yW0NIMl1bQ0gyXVtDQEBIXShbQ0gzXSlbQ0gyXVtDSDJdMg==

> <s_epik_cmdline>
J2VwaWtfcHl0aG9uJywgJy1waCcsICc3LjAnLCAnLXRuJywgJzgnLCAnLW1hJywgJzIwMCcsICctbWV0YWxfYmluZGluZycsICctaW1hZScsICc8aW5maWxlLm1hZT4nLCAnLW9tYWUnLCAnPG91dGZpbGUubWFlPic=

> <r_lp_tautomer_probability>
1

> <r_epik_Ionization_Penalty>
0.000505313

> <r_epik_Ionization_Penalty_Charging>
0.000421171

> <r_epik_Ionization_Penalty_Neutral>
8.41424e-05

> <r_epik_State_Penalty>
-0

> <r_epik_Charging_Adjusted_Penalty>
0.000421171

> <i_epik_Tot_Q>
1

> <i_epik_Tot_abs_Q>
1

> <r_epik_Metal_State_Penalty>
-0

> <b_epik_Metal_Only>
0

> <s_lp_Force_Field>
OPLS_2005

> <r_lp_Energy>
10.3881

> <b_lp_Chiralities_Consistent>
1

> <s_lp_Variant>
AV-unprocessed.smi:3304-1

> <Gold.Version>
5.8.1

> <Gold.Id.Protein>
6NUR|6NUR_protein|mol2

> <Gold.PLP.Fitness>
48.0775

> <Gold.PLP.PLP>
-35.5959

> <Gold.PLP.part.hbond>
-3.0000

> <Gold.PLP.part.metal>
0.0000

> <Gold.PLP.part.buried>
0.4024

> <Gold.PLP.part.nonpolar>
-34.2151

> <Gold.PLP.part.repulsive>
0.1557

> <Gold.PLP.ligand.clash>
0.0000

> <Gold.PLP.ligand.torsion>
0.5931

> <Gold.PLP.Chemscore.Hbond>
3.4575

> <Gold.PLP.Chemscore.CHOScore>
1.0899

> <Gold.PLP.Chemscore.Metal>
0.0000

> <Gold.Chemscore.Hbonds>
donor molecule, donor type, donor heavy atom, donor atom, acceptor molecule, acceptor atom, score
      L1  H     6    26       P1 10175  2.00
      L1  H     6    46       P1 10171  0.49
      P1  H  7989  7998       L1    16  0.90
      L1  C    15    42       P1  7948  0.68
      L1  C    15    42       P1  7957  0.44

> <Gold.PLP.Chemscore.Internal.Correction>
0.0256

> <Gold.Rescore>
     Score         DG    S(hbond)    S(metal)    S(lipo)     H(rot)  DE(clash)    DE(int)     intcor
     18.10     -20.49       2.40        0.00      91.04       1.43       1.80       0.59       ----

> <Gold.Chemscore.Fitness>
18.0996

> <Gold.Chemscore.DG>
-20.4886

> <Gold.Chemscore.ZeroCoef>
-5.4800

> <Gold.Chemscore.Hbond>
2.4030

> <Gold.Chemscore.Metal>
0.0000

> <Gold.Chemscore.Lipo>
91.0364

> <Gold.Chemscore.Internal_Hbond>
0.0000

> <Gold.Chemscore.DEClash>
1.7973

> <Gold.Chemscore.DEInternal>
0.5916

> <Gold.Chemscore.Rot>
1.4331

> <Gold.Chemscore.Internal.Correction>
   9.000000E+99

> <Gold.Chemscore.Hbonds>
donor molecule, donor type, donor heavy atom, donor atom, acceptor molecule, acceptor atom, score
      L1  H     6    26       P1 10175  1.00
      L1  H     6    46       P1 10171  0.46
      P1  H  7989  7998       L1    16  0.15

> <Gold.Chemscore.Hbond.Weighted>
-8.0261

> <Gold.Chemscore.Metal.Weighted>
-0.0000

> <Gold.Chemscore.Lipo.Weighted>
-10.6513

> <Gold.Chemscore.Internal_Hbond.Weighted>
0.0000

> <Gold.Chemscore.DEClash.Weighted>
1.7973

> <Gold.Chemscore.DEInternal.Weighted>
0.5916

> <Gold.Chemscore.Rot.Weighted>
3.6688

> <Gold.Chemscore.Internal.Correction.Weighted>
   9.000000E+99

> <Gold.Protein.RotatedTorsions>
[ 6907 6896 6895 6894 ] final   77.72 input  -60.11 | X-H torsion
[ 7974 7965 7964 7962 ] final   53.06 input  175.53 | X-H torsion
[ 8008 7997 7996 7995 ] final -168.14 input   59.86 | X-H torsion
[ 10167 10162 10161 10158 ] final -169.02 input  -65.29 | X-H torsion
[ 10718 10713 10712 10709 ] final  -92.72 input   66.30 | X-H torsion
[ 10763 10752 10751 10750 ] final   48.33 input  -60.55 | X-H torsion
[ 11005 11000 10999 10996 ] final  -36.17 input  -57.11 | X-H torsion

> <Gold.Protein.ActiveResidues>
 VAL166  LYS551  ARG553  GLY616  TRP617  ASP618  TYR619  PRO620  LYS621  CYS622 
 ASP623  PHE694  ASN695  SER759  ASP760  ASP761  ALA762  ILE779  LEU786  VAL792 
 PHE793  MET794  SER795  GLU796  ALA797  LYS798  CYS799  TRP800  GLU811  SER814 

> <Gold.Protein.RotatedAtoms>
  152.5129  134.3774  159.9338 H   0  0  0  0  0  0  0  0  0  0  0  0  # atno 6907 bound_to 6896
  151.3730  133.3842  159.2709 H   0  0  0  0  0  0  0  0  0  0  0  0  # atno 6908 bound_to 6896
  150.9563  134.8977  159.7761 H   0  0  0  0  0  0  0  0  0  0  0  0  # atno 6909 bound_to 6896
  145.9750  139.4186  143.0167 H   0  0  0  0  0  0  0  0  0  0  0  0  # atno 7974 bound_to 7965
  155.8873  140.1019  157.1443 H   0  0  0  0  0  0  0  0  0  0  0  0  # atno 8008 bound_to 7997
  154.4011  140.1317  156.4335 H   0  0  0  0  0  0  0  0  0  0  0  0  # atno 8009 bound_to 7997
  155.7574  140.3464  155.5183 H   0  0  0  0  0  0  0  0  0  0  0  0  # atno 8010 bound_to 7997
  139.5949  144.1134  152.1677 H   0  0  0  0  0  0  0  0  0  0  0  0  # atno 10167 bound_to 10162
  156.0005  130.4998  150.5668 H   0  0  0  0  0  0  0  0  0  0  0  0  # atno 10718 bound_to 10713
  152.9793  135.5948  154.3908 H   0  0  0  0  0  0  0  0  0  0  0  0  # atno 10763 bound_to 10752
  154.3563  135.2767  155.2346 H   0  0  0  0  0  0  0  0  0  0  0  0  # atno 10764 bound_to 10752
  154.4363  135.6024  153.6155 H   0  0  0  0  0  0  0  0  0  0  0  0  # atno 10765 bound_to 10752
  140.9854  133.7033  156.1756 H   0  0  0  0  0  0  0  0  0  0  0  0  # atno 11005 bound_to 11000
  145.7852  140.9839  143.1078 LP  0  0  0  0  0  0  0  0  0  0  0  0  # atno 17320 bound_to 7965
  144.6846  139.9614  143.7480 LP  0  0  0  0  0  0  0  0  0  0  0  0  # atno 17321 bound_to 7965
  140.0717  144.5774  150.7187 LP  0  0  0  0  0  0  0  0  0  0  0  0  # atno 17342 bound_to 10162
  140.7203  143.2583  151.4299 LP  0  0  0  0  0  0  0  0  0  0  0  0  # atno 17343 bound_to 10162
  157.3569  131.0743  151.1668 LP  0  0  0  0  0  0  0  0  0  0  0  0  # atno 17370 bound_to 10713
  157.2466  130.6594  149.5913 LP  0  0  0  0  0  0  0  0  0  0  0  0  # atno 17371 bound_to 10713
  140.7123  134.4448  157.5581 LP  0  0  0  0  0  0  0  0  0  0  0  0  # atno 17394 bound_to 11000
  139.8968  134.8651  156.2071 LP  0  0  0  0  0  0  0  0  0  0  0  0  # atno 17395 bound_to 11000

$$$$
