AV-unprocessed.smi:1807|AV-procd|sdf|7303|dock6
  -GOLD-   22720 8563D 1   1.00000     0.00000
 Structure written by MMmdl.
 44 45  0  0  0  0  0  0  0  0  1 V2000
  150.1179  139.7881  154.2981 C   0  0  0  0  0  0  0  0  0  0  0  0
  149.0582  140.8756  154.5444 C   0  0  2  0  0  0  0  0  0  0  0  0
  148.5894  140.8862  156.0142 C   0  0  0  0  0  0  0  0  0  0  0  0
  147.5817  142.0164  156.2772 C   0  0  0  0  0  0  0  0  0  0  0  0
  146.3806  141.9280  155.3240 C   0  0  0  0  0  0  0  0  0  0  0  0
  146.8354  141.9127  153.8538 C   0  0  0  0  0  0  0  0  0  0  0  0
  147.8552  140.7913  153.5691 C   0  0  2  0  0  0  0  0  0  0  0  0
  147.1877  139.4896  153.6357 N   0  0  0  0  0  0  0  0  0  0  0  0
  146.5276  138.8813  152.6383 C   0  0  0  0  0  0  0  0  0  0  0  0
  146.4002  139.3666  151.5127 O   0  0  0  0  0  0  0  0  0  0  0  0
  145.9213  137.5194  152.9860 C   0  0  0  0  0  0  0  0  0  0  0  0
  146.3467  136.4768  152.0624 N   0  0  0  0  0  0  0  0  0  0  0  0
  145.4287  135.5097  151.6403 C   0  0  0  0  0  0  0  0  0  0  0  0
  144.0771  135.5063  152.0799 C   0  0  0  0  0  0  0  0  0  0  0  0
  143.5430  134.4260  151.4365 C   0  0  0  0  0  0  0  0  0  0  0  0
  144.5466  133.8550  150.6778 N   0  0  0  0  0  0  0  0  0  0  0  0
  144.4718  132.6922  149.8117 C   0  0  0  0  0  0  0  0  0  0  0  0
  145.6580  131.7545  150.0440 C   0  0  0  0  0  0  0  0  0  0  0  0
  146.7952  132.0381  149.4034 N   0  0  0  0  0  0  0  0  0  0  0  0
  145.5498  130.7859  150.7926 O   0  0  0  0  0  0  0  0  0  0  0  0
  145.7147  134.5228  150.8047 N   0  0  0  0  0  0  0  0  0  0  0  0
  149.7368  138.7923  154.5261 H   0  0  0  0  0  0  0  0  0  0  0  0
  150.9970  139.9525  154.9214 H   0  0  0  0  0  0  0  0  0  0  0  0
  150.4475  139.7895  153.2586 H   0  0  0  0  0  0  0  0  0  0  0  0
  149.5493  141.8322  154.3588 H   0  0  0  0  0  0  0  0  0  0  0  0
  148.1368  139.9267  156.2680 H   0  0  0  0  0  0  0  0  0  0  0  0
  149.4469  141.0041  156.6775 H   0  0  0  0  0  0  0  0  0  0  0  0
  147.2386  141.9755  157.3114 H   0  0  0  0  0  0  0  0  0  0  0  0
  148.0756  142.9810  156.1532 H   0  0  0  0  0  0  0  0  0  0  0  0
  145.8051  141.0280  155.5434 H   0  0  0  0  0  0  0  0  0  0  0  0
  145.7091  142.7696  155.4948 H   0  0  0  0  0  0  0  0  0  0  0  0
  145.9707  141.8127  153.1966 H   0  0  0  0  0  0  0  0  0  0  0  0
  147.2877  142.8753  153.6125 H   0  0  0  0  0  0  0  0  0  0  0  0
  148.2299  140.9490  152.5562 H   0  0  0  0  0  0  0  0  0  0  0  0
  147.2345  139.0080  154.5219 H   0  0  0  0  0  0  0  0  0  0  0  0
  146.2132  137.2470  154.0017 H   0  0  0  0  0  0  0  0  0  0  0  0
  144.8339  137.6017  152.9661 H   0  0  0  0  0  0  0  0  0  0  0  0
  147.3206  136.4158  151.8018 H   0  0  0  0  0  0  0  0  0  0  0  0
  143.5783  136.1866  152.7541 H   0  0  0  0  0  0  0  0  0  0  0  0
  142.5419  134.0213  151.4526 H   0  0  0  0  0  0  0  0  0  0  0  0
  143.5378  132.1597  149.9986 H   0  0  0  0  0  0  0  0  0  0  0  0
  144.4469  133.0260  148.7733 H   0  0  0  0  0  0  0  0  0  0  0  0
  147.6067  131.4504  149.5274 H   0  0  0  0  0  0  0  0  0  0  0  0
  146.8392  132.8450  148.7976 H   0  0  0  0  0  0  0  0  0  0  0  0
  1  2  1  0  0  0  0
  1 22  1  0  0  0  0
  1 23  1  0  0  0  0
  1 24  1  0  0  0  0
  2  7  1  0  0  0  0
  2  3  1  0  0  0  0
  2 25  1  0  0  0  0
  3  4  1  0  0  0  0
  3 26  1  0  0  0  0
  3 27  1  0  0  0  0
  4  5  1  0  0  0  0
  4 28  1  0  0  0  0
  4 29  1  0  0  0  0
  5  6  1  0  0  0  0
  5 30  1  0  0  0  0
  5 31  1  0  0  0  0
  6  7  1  0  0  0  0
  6 32  1  0  0  0  0
  6 33  1  0  0  0  0
  7  8  1  0  0  0  0
  7 34  1  0  0  0  0
  8  9  1  0  0  0  0
  8 35  1  0  0  0  0
  9 10  2  0  0  0  0
  9 11  1  0  0  0  0
 11 12  1  0  0  0  0
 11 36  1  0  0  0  0
 11 37  1  0  0  0  0
 12 13  1  0  0  0  0
 12 38  1  0  0  0  0
 13 21  2  0  0  0  0
 13 14  1  0  0  0  0
 14 15  2  0  0  0  0
 14 39  1  0  0  0  0
 15 16  1  0  0  0  0
 15 40  1  0  0  0  0
 16 17  1  0  0  0  0
 16 21  1  0  0  0  0
 17 18  1  0  0  0  0
 17 41  1  0  0  0  0
 17 42  1  0  0  0  0
 18 19  1  0  0  0  0
 18 20  2  0  0  0  0
 19 43  1  0  0  0  0
 19 44  1  0  0  0  0
M  END
> <s_m_source_file>
AV-unprocessed.smi

> <i_m_source_file_index>
1807

> <i_lp_mmshare_version>
43012

> <i_f3d_flags>
0

> <s_epik_input>
W0NIM11bQ0BASF0xW0NIMl1bQ0gyXVtDSDJdW0NIMl1bQ0BIXTFbTkhdQyg9TylbQ0gyXVtOSF1jMltjSF1bY0hdbihuMilbQ0gyXUMoPU8pW05IMl0=

> <s_epik_cmdline>
J2VwaWtfcHl0aG9uJywgJy1waCcsICc3LjAnLCAnLXRuJywgJzgnLCAnLW1hJywgJzIwMCcsICctbWV0YWxfYmluZGluZycsICctaW1hZScsICc8aW5maWxlLm1hZT4nLCAnLW9tYWUnLCAnPG91dGZpbGUubWFlPic=

> <r_lp_tautomer_probability>
1

> <r_epik_Ionization_Penalty>
0.000167642

> <r_epik_Ionization_Penalty_Charging>
0

> <r_epik_Ionization_Penalty_Neutral>
0.000167642

> <r_epik_State_Penalty>
-0

> <r_epik_Charging_Adjusted_Penalty>
0

> <i_epik_Tot_Q>
0

> <i_epik_Tot_abs_Q>
0

> <r_epik_Metal_State_Penalty>
-0

> <b_epik_Metal_Only>
0

> <s_lp_Force_Field>
OPLS_2005

> <r_lp_Energy>
5.83979

> <b_lp_Chiralities_Consistent>
1

> <s_lp_Variant>
AV-unprocessed.smi:1807-3

> <Gold.Version>
5.8.1

> <Gold.Id.Protein>
6NUR|6NUR_protein|mol2

> <Gold.PLP.Fitness>
40.0932

> <Gold.PLP.PLP>
-33.7940

> <Gold.PLP.part.hbond>
-1.9103

> <Gold.PLP.part.metal>
0.0000

> <Gold.PLP.part.buried>
-3.6026

> <Gold.PLP.part.nonpolar>
-30.1865

> <Gold.PLP.part.repulsive>
0.9167

> <Gold.PLP.ligand.clash>
0.0000

> <Gold.PLP.ligand.torsion>
1.0464

> <Gold.PLP.Chemscore.Hbond>
2.0000

> <Gold.PLP.Chemscore.CHOScore>
0.7863

> <Gold.PLP.Chemscore.Metal>
0.0000

> <Gold.Chemscore.Hbonds>
donor molecule, donor type, donor heavy atom, donor atom, acceptor molecule, acceptor atom, score
      L1  H    12    38       P1  7948  1.00
      L1  H    19    43       P1 10747  1.00
      L1  C    15    40       P1 10186  0.71

> <Gold.PLP.Chemscore.Internal.Correction>
0.0332

> <Gold.Rescore>
     Score         DG    S(hbond)    S(metal)    S(lipo)     H(rot)  DE(clash)    DE(int)     intcor
     11.18     -12.31       1.95        0.00      60.46       2.64       0.06       1.07       ----

> <Gold.Chemscore.Fitness>
11.1837

> <Gold.Chemscore.DG>
-12.3131

> <Gold.Chemscore.ZeroCoef>
-5.4800

> <Gold.Chemscore.Hbond>
1.9491

> <Gold.Chemscore.Metal>
0.0000

> <Gold.Chemscore.Lipo>
60.4582

> <Gold.Chemscore.Internal_Hbond>
0.0000

> <Gold.Chemscore.DEClash>
0.0641

> <Gold.Chemscore.DEInternal>
1.0652

> <Gold.Chemscore.Rot>
2.6369

> <Gold.Chemscore.Internal.Correction>
   9.000000E+99

> <Gold.Chemscore.Hbonds>
donor molecule, donor type, donor heavy atom, donor atom, acceptor molecule, acceptor atom, score
      L1  H    12    38       P1  7948  0.99
      L1  H    19    43       P1 10747  0.99

> <Gold.Chemscore.Hbond.Weighted>
-6.5098

> <Gold.Chemscore.Metal.Weighted>
-0.0000

> <Gold.Chemscore.Lipo.Weighted>
-7.0736

> <Gold.Chemscore.Internal_Hbond.Weighted>
0.0000

> <Gold.Chemscore.DEClash.Weighted>
0.0641

> <Gold.Chemscore.DEInternal.Weighted>
1.0652

> <Gold.Chemscore.Rot.Weighted>
6.7504

> <Gold.Chemscore.Internal.Correction.Weighted>
   9.000000E+99

> <Gold.Protein.RotatedTorsions>
[ 6907 6896 6895 6894 ] final  171.26 input  -60.11 | X-H torsion
[ 7974 7965 7964 7962 ] final   79.54 input  175.53 | X-H torsion
[ 8008 7997 7996 7995 ] final   35.41 input   59.86 | X-H torsion
[ 10167 10162 10161 10158 ] final  120.52 input  -65.29 | X-H torsion
[ 10718 10713 10712 10709 ] final  -23.20 input   66.30 | X-H torsion
[ 10763 10752 10751 10750 ] final   32.78 input  -60.55 | X-H torsion
[ 11005 11000 10999 10996 ] final   -4.24 input  -57.11 | X-H torsion

> <Gold.Protein.ActiveResidues>
 VAL166  LYS551  ARG553  GLY616  TRP617  ASP618  TYR619  PRO620  LYS621  CYS622 
 ASP623  PHE694  ASN695  SER759  ASP760  ASP761  ALA762  ILE779  LEU786  VAL792 
 PHE793  MET794  SER795  GLU796  ALA797  LYS798  CYS799  TRP800  GLU811  SER814 

> <Gold.Protein.RotatedAtoms>
  151.8030  133.3372  159.3532 H   0  0  0  0  0  0  0  0  0  0  0  0  # atno 6907 bound_to 6896
  150.7352  134.5735  159.5912 H   0  0  0  0  0  0  0  0  0  0  0  0  # atno 6908 bound_to 6896
  152.3129  134.7476  160.0383 H   0  0  0  0  0  0  0  0  0  0  0  0  # atno 6909 bound_to 6896
  145.6629  139.2476  143.1912 H   0  0  0  0  0  0  0  0  0  0  0  0  # atno 7974 bound_to 7965
  155.1706  140.3291  155.4393 H   0  0  0  0  0  0  0  0  0  0  0  0  # atno 8008 bound_to 7997
  156.2511  140.1944  156.6760 H   0  0  0  0  0  0  0  0  0  0  0  0  # atno 8009 bound_to 7997
  154.6340  140.0579  156.9753 H   0  0  0  0  0  0  0  0  0  0  0  0  # atno 8010 bound_to 7997
  139.5977  144.7047  151.3138 H   0  0  0  0  0  0  0  0  0  0  0  0  # atno 10167 bound_to 10162
  156.4943  130.4573  149.6737 H   0  0  0  0  0  0  0  0  0  0  0  0  # atno 10718 bound_to 10713
  153.0245  135.6404  154.1409 H   0  0  0  0  0  0  0  0  0  0  0  0  # atno 10763 bound_to 10752
  154.1139  135.2851  155.3226 H   0  0  0  0  0  0  0  0  0  0  0  0  # atno 10764 bound_to 10752
  154.6311  135.5492  153.7745 H   0  0  0  0  0  0  0  0  0  0  0  0  # atno 10765 bound_to 10752
  140.6781  133.9178  155.8537 H   0  0  0  0  0  0  0  0  0  0  0  0  # atno 11005 bound_to 11000
  146.1110  140.7428  142.9503 LP  0  0  0  0  0  0  0  0  0  0  0  0  # atno 17320 bound_to 7965
  144.7083  140.3939  143.7101 LP  0  0  0  0  0  0  0  0  0  0  0  0  # atno 17321 bound_to 7965
  140.7225  143.7097  150.7779 LP  0  0  0  0  0  0  0  0  0  0  0  0  # atno 17342 bound_to 10162
  140.0667  143.5102  152.2601 LP  0  0  0  0  0  0  0  0  0  0  0  0  # atno 17343 bound_to 10162
  156.3396  130.7375  151.2318 LP  0  0  0  0  0  0  0  0  0  0  0  0  # atno 17370 bound_to 10713
  157.7470  131.0407  150.4612 LP  0  0  0  0  0  0  0  0  0  0  0  0  # atno 17371 bound_to 10713
  141.0339  134.0717  157.3982 LP  0  0  0  0  0  0  0  0  0  0  0  0  # atno 17394 bound_to 11000
  139.8960  135.0144  156.7031 LP  0  0  0  0  0  0  0  0  0  0  0  0  # atno 17395 bound_to 11000

$$$$
