AV-unprocessed.smi:3170|AV-procd|sdf|12110|dock2
  -GOLD-   2272017543D 1   1.00000     0.00000
 Structure written by MMmdl.
 35 36  0  0  0  0  0  0  0  0  1 V2000
  146.8136  135.1014  155.7050 O   0  0  0  0  0  0  0  0  0  0  0  0
  147.3562  135.4394  154.6529 C   0  0  0  0  0  0  0  0  0  0  0  0
  147.1285  134.8556  153.4685 N   0  0  0  0  0  0  0  0  0  0  0  0
  146.2039  133.7486  153.2426 C   0  0  0  0  0  0  0  0  0  0  0  0
  146.6299  132.8522  152.0641 C   0  0  0  0  0  0  0  0  0  0  0  0
  145.5260  132.5539  151.1714 N   0  0  0  0  0  0  0  0  0  0  0  0
  144.1868  132.8672  151.3605 C   0  0  0  0  0  0  0  0  0  0  0  0
  143.5119  132.3856  150.2615 C   0  0  0  0  0  0  0  0  0  0  0  0
  144.4103  131.7753  149.3895 N   0  0  0  0  0  0  0  0  0  0  0  0
  145.5828  131.9163  149.9940 C   0  0  0  0  0  0  0  0  0  0  0  0
  148.2404  136.4397  154.5531 N   0  0  0  0  0  0  0  0  0  0  0  0
  148.6762  137.2653  155.6718 C   0  0  0  0  0  0  0  0  0  0  0  0
  149.2432  138.6066  155.1796 C   0  0  1  0  0  0  0  0  0  0  0  0
  149.6141  139.5636  156.2936 C   0  0  0  0  0  0  0  0  0  0  0  0
  150.5443  140.5371  155.5765 C   0  0  0  0  0  0  0  0  0  0  0  0
  151.1923  139.7785  154.5590 O   0  0  0  0  0  0  0  0  0  0  0  0
  150.5720  138.5027  154.4289 C   0  0  0  0  0  0  0  0  0  0  0  0
  147.6224  135.2071  152.6613 H   0  0  0  0  0  0  0  0  0  0  0  0
  146.1457  133.1584  154.1576 H   0  0  0  0  0  0  0  0  0  0  0  0
  145.2017  134.1426  153.0676 H   0  0  0  0  0  0  0  0  0  0  0  0
  147.4099  133.3488  151.4860 H   0  0  0  0  0  0  0  0  0  0  0  0
  147.0593  131.9150  152.4208 H   0  0  0  0  0  0  0  0  0  0  0  0
  143.8349  133.3911  152.2369 H   0  0  0  0  0  0  0  0  0  0  0  0
  142.4572  132.4303  150.0332 H   0  0  0  0  0  0  0  0  0  0  0  0
  146.5046  131.5415  149.5736 H   0  0  0  0  0  0  0  0  0  0  0  0
  148.6331  136.6475  153.6467 H   0  0  0  0  0  0  0  0  0  0  0  0
  147.8262  137.4409  156.3326 H   0  0  0  0  0  0  0  0  0  0  0  0
  149.4285  136.7307  156.2542 H   0  0  0  0  0  0  0  0  0  0  0  0
  148.5121  139.0964  154.5337 H   0  0  0  0  0  0  0  0  0  0  0  0
  148.7507  140.0546  156.7434 H   0  0  0  0  0  0  0  0  0  0  0  0
  150.1587  139.0402  157.0809 H   0  0  0  0  0  0  0  0  0  0  0  0
  149.9693  141.3329  155.1015 H   0  0  0  0  0  0  0  0  0  0  0  0
  151.2655  140.9975  156.2519 H   0  0  0  0  0  0  0  0  0  0  0  0
  151.2205  137.7572  154.8911 H   0  0  0  0  0  0  0  0  0  0  0  0
  150.4398  138.2309  153.3813 H   0  0  0  0  0  0  0  0  0  0  0  0
  1  2  2  0  0  0  0
  2  3  1  0  0  0  0
  2 11  1  0  0  0  0
  3  4  1  0  0  0  0
  3 18  1  0  0  0  0
  4  5  1  0  0  0  0
  4 19  1  0  0  0  0
  4 20  1  0  0  0  0
  5  6  1  0  0  0  0
  5 21  1  0  0  0  0
  5 22  1  0  0  0  0
  6 10  1  0  0  0  0
  6  7  1  0  0  0  0
  7  8  2  0  0  0  0
  7 23  1  0  0  0  0
  8  9  1  0  0  0  0
  8 24  1  0  0  0  0
  9 10  2  0  0  0  0
 10 25  1  0  0  0  0
 11 12  1  0  0  0  0
 11 26  1  0  0  0  0
 12 13  1  0  0  0  0
 12 27  1  0  0  0  0
 12 28  1  0  0  0  0
 13 17  1  0  0  0  0
 13 14  1  0  0  0  0
 13 29  1  0  0  0  0
 14 15  1  0  0  0  0
 14 30  1  0  0  0  0
 14 31  1  0  0  0  0
 15 16  1  0  0  0  0
 15 32  1  0  0  0  0
 15 33  1  0  0  0  0
 16 17  1  0  0  0  0
 17 34  1  0  0  0  0
 17 35  1  0  0  0  0
M  END
> <s_m_source_file>
AV-unprocessed.smi

> <i_m_source_file_index>
3170

> <i_lp_mmshare_version>
43012

> <i_f3d_flags>
0

> <s_epik_input>
W0NIMl0xT1tDSDJdW0NIMl1bQ0BIXTFbQ0gyXVtOSF1DKD1PKVtOSF1bQ0gyXVtDSDJdbjJbY0hdW2NIXW5bY0hdMg==

> <s_epik_cmdline>
J2VwaWtfcHl0aG9uJywgJy1waCcsICc3LjAnLCAnLXRuJywgJzgnLCAnLW1hJywgJzIwMCcsICctbWV0YWxfYmluZGluZycsICctaW1hZScsICc8aW5maWxlLm1hZT4nLCAnLW9tYWUnLCAnPG91dGZpbGUubWFlPic=

> <r_lp_tautomer_probability>
1

> <r_epik_Ionization_Penalty>
0.621287

> <r_epik_Ionization_Penalty_Charging>
0.621234

> <r_epik_Ionization_Penalty_Neutral>
5.30999e-05

> <r_epik_State_Penalty>
0.637278

> <r_epik_Charging_Adjusted_Penalty>
1.25851

> <i_epik_Tot_Q>
0

> <i_epik_Tot_abs_Q>
0

> <r_epik_Metal_State_Penalty>
0.306756

> <b_epik_Metal_Only>
0

> <s_lp_Force_Field>
OPLS_2005

> <r_lp_Energy>
18.1747

> <b_lp_Chiralities_Consistent>
1

> <s_lp_Variant>
AV-unprocessed.smi:3170-4

> <Gold.Version>
5.8.1

> <Gold.Id.Protein>
6NUR|6NUR_protein|mol2

> <Gold.PLP.Fitness>
42.6385

> <Gold.PLP.PLP>
-26.7200

> <Gold.PLP.part.hbond>
-4.0000

> <Gold.PLP.part.metal>
0.0000

> <Gold.PLP.part.buried>
-4.5646

> <Gold.PLP.part.nonpolar>
-19.9269

> <Gold.PLP.part.repulsive>
0.2748

> <Gold.PLP.ligand.clash>
0.0000

> <Gold.PLP.ligand.torsion>
0.7449

> <Gold.PLP.Chemscore.Hbond>
3.3869

> <Gold.PLP.Chemscore.CHOScore>
2.3951

> <Gold.PLP.Chemscore.Metal>
0.0000

> <Gold.Chemscore.Hbonds>
donor molecule, donor type, donor heavy atom, donor atom, acceptor molecule, acceptor atom, score
      L1  H     3    18       P1  7948  1.00
      L1  H    11    26       P1  7948  1.00
      P1  H  7989  7998       L1    16  1.00
      P1  H 10785 10796       L1     9  0.39
      L1  C     8    24       P1 10186  1.00
      L1  C     8    24       P1 10952  0.60
      L1  C    10    25       P1 10747  0.73

> <Gold.PLP.Chemscore.Internal.Correction>
0.0622

> <Gold.Rescore>
     Score         DG    S(hbond)    S(metal)    S(lipo)     H(rot)  DE(clash)    DE(int)     intcor
     16.77     -17.43       3.69        0.00      45.90       2.25       0.00       0.65       ----

> <Gold.Chemscore.Fitness>
16.7748

> <Gold.Chemscore.DG>
-17.4268

> <Gold.Chemscore.ZeroCoef>
-5.4800

> <Gold.Chemscore.Hbond>
3.6916

> <Gold.Chemscore.Metal>
0.0000

> <Gold.Chemscore.Lipo>
45.8983

> <Gold.Chemscore.Internal_Hbond>
0.0000

> <Gold.Chemscore.DEClash>
0.0000

> <Gold.Chemscore.DEInternal>
0.6521

> <Gold.Chemscore.Rot>
2.2474

> <Gold.Chemscore.Internal.Correction>
   9.000000E+99

> <Gold.Chemscore.Hbonds>
donor molecule, donor type, donor heavy atom, donor atom, acceptor molecule, acceptor atom, score
      L1  H     3    18       P1  7948  0.97
      L1  H    11    26       P1  7948  0.96
      P1  H  7989  7998       L1    16  0.44
      P1  H 10785 10796       L1     9  0.10

> <Gold.Chemscore.Hbond.Weighted>
-12.3299

> <Gold.Chemscore.Metal.Weighted>
-0.0000

> <Gold.Chemscore.Lipo.Weighted>
-5.3701

> <Gold.Chemscore.Internal_Hbond.Weighted>
0.0000

> <Gold.Chemscore.DEClash.Weighted>
0.0000

> <Gold.Chemscore.DEInternal.Weighted>
0.6521

> <Gold.Chemscore.Rot.Weighted>
5.7532

> <Gold.Chemscore.Internal.Correction.Weighted>
   9.000000E+99

> <Gold.Protein.RotatedTorsions>
[ 6907 6896 6895 6894 ] final -130.92 input  -60.11 | X-H torsion
[ 7974 7965 7964 7962 ] final  114.63 input  175.53 | X-H torsion
[ 8008 7997 7996 7995 ] final   41.30 input   59.86 | X-H torsion
[ 10167 10162 10161 10158 ] final   -8.03 input  -65.29 | X-H torsion
[ 10718 10713 10712 10709 ] final -107.38 input   66.30 | X-H torsion
[ 10763 10752 10751 10750 ] final -123.19 input  -60.55 | X-H torsion
[ 11005 11000 10999 10996 ] final -139.07 input  -57.11 | X-H torsion

> <Gold.Protein.ActiveResidues>
 VAL166  LYS551  ARG553  GLY616  TRP617  ASP618  TYR619  PRO620  LYS621  CYS622 
 ASP623  PHE694  ASN695  SER759  ASP760  ASP761  ALA762  ILE779  LEU786  VAL792 
 PHE793  MET794  SER795  GLU796  ALA797  LYS798  CYS799  TRP800  GLU811  SER814 

> <Gold.Protein.RotatedAtoms>
  150.9451  133.6612  159.2782 H   0  0  0  0  0  0  0  0  0  0  0  0  # atno 6907 bound_to 6896
  151.3987  135.0966  159.9559 H   0  0  0  0  0  0  0  0  0  0  0  0  # atno 6908 bound_to 6896
  152.5086  133.8950  159.7467 H   0  0  0  0  0  0  0  0  0  0  0  0  # atno 6909 bound_to 6896
  145.2020  139.2947  143.4313 H   0  0  0  0  0  0  0  0  0  0  0  0  # atno 7974 bound_to 7965
  155.2674  140.3363  155.4268 H   0  0  0  0  0  0  0  0  0  0  0  0  # atno 8008 bound_to 7997
  156.2148  140.1784  156.7656 H   0  0  0  0  0  0  0  0  0  0  0  0  # atno 8009 bound_to 7997
  154.5737  140.0665  156.8987 H   0  0  0  0  0  0  0  0  0  0  0  0  # atno 8010 bound_to 7997
  140.7047  143.6014  150.8794 H   0  0  0  0  0  0  0  0  0  0  0  0  # atno 10167 bound_to 10162
  156.0434  130.5659  150.7813 H   0  0  0  0  0  0  0  0  0  0  0  0  # atno 10718 bound_to 10713
  154.8703  135.4107  154.2903 H   0  0  0  0  0  0  0  0  0  0  0  0  # atno 10763 bound_to 10752
  153.3780  135.7010  153.6592 H   0  0  0  0  0  0  0  0  0  0  0  0  # atno 10764 bound_to 10752
  153.5426  135.3645  155.2697 H   0  0  0  0  0  0  0  0  0  0  0  0  # atno 10765 bound_to 10752
  140.8555  134.2233  157.4737 H   0  0  0  0  0  0  0  0  0  0  0  0  # atno 11005 bound_to 11000
  146.3415  140.2268  142.8592 LP  0  0  0  0  0  0  0  0  0  0  0  0  # atno 17320 bound_to 7965
  144.9938  140.8571  143.5323 LP  0  0  0  0  0  0  0  0  0  0  0  0  # atno 17321 bound_to 7965
  139.9738  143.6027  152.2965 LP  0  0  0  0  0  0  0  0  0  0  0  0  # atno 17342 bound_to 10162
  139.6623  144.7662  151.1939 LP  0  0  0  0  0  0  0  0  0  0  0  0  # atno 17343 bound_to 10162
  157.5279  131.0935  150.9993 LP  0  0  0  0  0  0  0  0  0  0  0  0  # atno 17370 bound_to 10713
  157.0307  130.5710  149.5343 LP  0  0  0  0  0  0  0  0  0  0  0  0  # atno 17371 bound_to 10713
  139.8705  134.9704  156.4701 LP  0  0  0  0  0  0  0  0  0  0  0  0  # atno 17394 bound_to 11000
  140.8742  133.7966  155.9396 LP  0  0  0  0  0  0  0  0  0  0  0  0  # atno 17395 bound_to 11000

$$$$
