AV-unprocessed.smi:1803|AV-procd|sdf|7280|dock3
  -GOLD-   22720 8543D 1   1.00000     0.00000
 Structure written by MMmdl.
 36 38  0  0  0  0  0  0  0  0  2 V2000
  145.8536  137.9139  154.3818 O   0  0  0  0  0  0  0  0  0  0  0  0
  146.7212  137.2696  153.7953 C   0  0  0  0  0  0  0  0  0  0  0  0
  147.9473  137.7873  153.5712 N   0  0  0  0  0  0  0  0  0  0  0  0
  148.5029  139.0559  153.9076 C   0  0  0  0  0  0  0  0  0  0  0  0
  149.7747  139.2456  154.2960 N   0  0  0  0  0  0  0  0  0  0  0  0
  150.0391  140.5767  154.5875 N   0  0  0  0  0  0  0  0  0  0  0  0
  148.9546  141.3389  154.4216 C   0  0  0  0  0  0  0  0  0  0  0  0
  147.5047  140.5031  153.8933 S   0  0  0  0  0  0  0  0  0  0  0  0
  146.5145  136.0223  153.3418 N   0  0  0  0  0  0  0  0  0  0  0  0
  145.2951  135.2468  153.5434 C   0  0  1  0  0  0  0  0  0  0  0  0
  144.0391  135.9595  153.0591 C   0  0  0  0  0  0  0  0  0  0  0  0
  143.0295  134.8163  152.9126 C   0  0  0  0  0  0  0  0  0  0  0  0
  143.8115  133.5832  152.6494 N   0  3  1  0  0  0  0  0  0  0  0  0
  143.4208  132.8741  151.4014 C   0  0  0  0  0  0  0  0  0  0  0  0
  144.4981  131.8627  150.9830 C   0  0  0  0  0  0  0  0  0  0  0  0
  145.8378  132.5592  150.6791 C   0  0  0  0  0  0  0  0  0  0  0  0
  145.9739  133.9153  151.3970 C   0  0  0  0  0  0  0  0  0  0  0  0
  145.2598  133.9141  152.7716 C   0  0  1  0  0  0  0  0  0  0  0  0
  148.5456  137.2132  152.9947 H   0  0  0  0  0  0  0  0  0  0  0  0
  149.0080  142.3999  154.6155 H   0  0  0  0  0  0  0  0  0  0  0  0
  147.2762  135.5629  152.8626 H   0  0  0  0  0  0  0  0  0  0  0  0
  145.1701  135.0416  154.6087 H   0  0  0  0  0  0  0  0  0  0  0  0
  143.6994  136.7360  153.7454 H   0  0  0  0  0  0  0  0  0  0  0  0
  144.2165  136.4229  152.0873 H   0  0  0  0  0  0  0  0  0  0  0  0
  142.4881  134.6742  153.8484 H   0  0  0  0  0  0  0  0  0  0  0  0
  142.2899  135.0307  152.1399 H   0  0  0  0  0  0  0  0  0  0  0  0
  142.4654  132.3738  151.5619 H   0  0  0  0  0  0  0  0  0  0  0  0
  143.2701  133.5906  150.5919 H   0  0  0  0  0  0  0  0  0  0  0  0
  144.6371  131.1399  151.7880 H   0  0  0  0  0  0  0  0  0  0  0  0
  144.1704  131.2908  150.1145 H   0  0  0  0  0  0  0  0  0  0  0  0
  146.6554  131.8985  150.9696 H   0  0  0  0  0  0  0  0  0  0  0  0
  145.9430  132.7168  149.6052 H   0  0  0  0  0  0  0  0  0  0  0  0
  147.0325  134.1549  151.5003 H   0  0  0  0  0  0  0  0  0  0  0  0
  145.5476  134.7001  150.7704 H   0  0  0  0  0  0  0  0  0  0  0  0
  145.7301  133.1428  153.3836 H   0  0  0  0  0  0  0  0  0  0  0  0
  143.6099  132.9534  153.4131 H   0  0  0  0  0  0  0  0  0  0  0  0
  1  2  2  0  0  0  0
  2  3  1  0  0  0  0
  2  9  1  0  0  0  0
  3  4  1  0  0  0  0
  3 19  1  0  0  0  0
  4  8  1  0  0  0  0
  4  5  2  0  0  0  0
  5  6  1  0  0  0  0
  6  7  2  0  0  0  0
  7  8  1  0  0  0  0
  7 20  1  0  0  0  0
  9 10  1  0  0  0  0
  9 21  1  0  0  0  0
 10 18  1  0  0  0  0
 10 11  1  0  0  0  0
 10 22  1  0  0  0  0
 11 12  1  0  0  0  0
 11 23  1  0  0  0  0
 11 24  1  0  0  0  0
 12 13  1  0  0  0  0
 12 25  1  0  0  0  0
 12 26  1  0  0  0  0
 13 18  1  0  0  0  0
 13 14  1  0  0  0  0
 13 36  1  0  0  0  0
 14 15  1  0  0  0  0
 14 27  1  0  0  0  0
 14 28  1  0  0  0  0
 15 16  1  0  0  0  0
 15 29  1  0  0  0  0
 15 30  1  0  0  0  0
 16 17  1  0  0  0  0
 16 31  1  0  0  0  0
 16 32  1  0  0  0  0
 17 18  1  0  0  0  0
 17 33  1  0  0  0  0
 17 34  1  0  0  0  0
 18 35  1  0  0  0  0
M  CHG  1  13   1
M  END
> <s_m_source_file>
AV-unprocessed.smi

> <i_m_source_file_index>
1803

> <i_lp_mmshare_version>
43012

> <i_f3d_flags>
0

> <s_epik_input>
czFbY0hdbm5jMVtOSF1DKD1PKVtOSF1bQ0BIXShbQ0gyXVtDSDJdMilbQ0BASF0oTjIzKVtDSDJdW0NIMl1bQ0gyXVtDSDJdMw==

> <s_epik_cmdline>
J2VwaWtfcHl0aG9uJywgJy1waCcsICc3LjAnLCAnLXRuJywgJzgnLCAnLW1hJywgJzIwMCcsICctbWV0YWxfYmluZGluZycsICctaW1hZScsICc8aW5maWxlLm1hZT4nLCAnLW9tYWUnLCAnPG91dGZpbGUubWFlPic=

> <r_lp_tautomer_probability>
1

> <r_epik_Ionization_Penalty>
0.00213286

> <r_epik_Ionization_Penalty_Charging>
0.00107044

> <r_epik_Ionization_Penalty_Neutral>
0.00106242

> <r_epik_State_Penalty>
-0

> <r_epik_Charging_Adjusted_Penalty>
0.00107044

> <i_epik_Tot_Q>
1

> <i_epik_Tot_abs_Q>
1

> <r_epik_Metal_State_Penalty>
0.292783

> <b_epik_Metal_Only>
0

> <s_lp_Force_Field>
OPLS_2005

> <r_lp_Energy>
41.8675

> <b_lp_Chiralities_Consistent>
1

> <s_lp_Variant>
AV-unprocessed.smi:1803-2

> <Gold.Version>
5.8.1

> <Gold.Id.Protein>
6NUR|6NUR_protein|mol2

> <Gold.PLP.Fitness>
43.2394

> <Gold.PLP.PLP>
-27.2973

> <Gold.PLP.part.hbond>
-3.9581

> <Gold.PLP.part.metal>
0.0000

> <Gold.PLP.part.buried>
-4.7368

> <Gold.PLP.part.nonpolar>
-19.5055

> <Gold.PLP.part.repulsive>
0.3922

> <Gold.PLP.ligand.clash>
0.0000

> <Gold.PLP.ligand.torsion>
0.2959

> <Gold.PLP.Chemscore.Hbond>
4.5100

> <Gold.PLP.Chemscore.CHOScore>
1.0000

> <Gold.PLP.Chemscore.Metal>
0.0000

> <Gold.Chemscore.Hbonds>
donor molecule, donor type, donor heavy atom, donor atom, acceptor molecule, acceptor atom, score
      L1  H     3    19       P1  7948  1.00
      L1  H     9    21       P1  7948  0.66
      L1  H    13    36       P1 10957  1.95
      P1  H  7989  7998       L1     6  0.85
      L1  C     7    20       P1  8028  1.00

> <Gold.PLP.Chemscore.Internal.Correction>
0.0037

> <Gold.Rescore>
     Score         DG    S(hbond)    S(metal)    S(lipo)     H(rot)  DE(clash)    DE(int)     intcor
     18.73     -19.03       2.92        0.00      54.29       1.00       0.01       0.28       ----

> <Gold.Chemscore.Fitness>
18.7341

> <Gold.Chemscore.DG>
-19.0281

> <Gold.Chemscore.ZeroCoef>
-5.4800

> <Gold.Chemscore.Hbond>
2.9210

> <Gold.Chemscore.Metal>
0.0000

> <Gold.Chemscore.Lipo>
54.2898

> <Gold.Chemscore.Internal_Hbond>
0.0000

> <Gold.Chemscore.DEClash>
0.0106

> <Gold.Chemscore.DEInternal>
0.2833

> <Gold.Chemscore.Rot>
1.0000

> <Gold.Chemscore.Internal.Correction>
   9.000000E+99

> <Gold.Chemscore.Hbonds>
donor molecule, donor type, donor heavy atom, donor atom, acceptor molecule, acceptor atom, score
      L1  H     3    19       P1  7948  0.94
      L1  H     9    21       P1  7948  0.63
      L1  H    13    36       P1 10957  0.72
      P1  H  7989  7998       L1     6  0.24

> <Gold.Chemscore.Hbond.Weighted>
-9.7562

> <Gold.Chemscore.Metal.Weighted>
-0.0000

> <Gold.Chemscore.Lipo.Weighted>
-6.3519

> <Gold.Chemscore.Internal_Hbond.Weighted>
0.0000

> <Gold.Chemscore.DEClash.Weighted>
0.0106

> <Gold.Chemscore.DEInternal.Weighted>
0.2833

> <Gold.Chemscore.Rot.Weighted>
2.5600

> <Gold.Chemscore.Internal.Correction.Weighted>
   9.000000E+99

> <Gold.Protein.RotatedTorsions>
[ 6907 6896 6895 6894 ] final   34.97 input  -60.11 | X-H torsion
[ 7974 7965 7964 7962 ] final -132.79 input  175.53 | X-H torsion
[ 8008 7997 7996 7995 ] final   18.74 input   59.86 | X-H torsion
[ 10167 10162 10161 10158 ] final  176.89 input  -65.29 | X-H torsion
[ 10718 10713 10712 10709 ] final   38.00 input   66.30 | X-H torsion
[ 10763 10752 10751 10750 ] final  -53.64 input  -60.55 | X-H torsion
[ 11005 11000 10999 10996 ] final  -31.82 input  -57.11 | X-H torsion

> <Gold.Protein.ActiveResidues>
 VAL166  LYS551  ARG553  GLY616  TRP617  ASP618  TYR619  PRO620  LYS621  CYS622 
 ASP623  PHE694  ASN695  SER759  ASP760  ASP761  ALA762  ILE779  LEU786  VAL792 
 PHE793  MET794  SER795  GLU796  ALA797  LYS798  CYS799  TRP800  GLU811  SER814 

> <Gold.Protein.RotatedAtoms>
  152.1097  134.9283  160.0566 H   0  0  0  0  0  0  0  0  0  0  0  0  # atno 6907 bound_to 6896
  152.0465  133.3995  159.4367 H   0  0  0  0  0  0  0  0  0  0  0  0  # atno 6908 bound_to 6896
  150.6843  134.3277  159.4857 H   0  0  0  0  0  0  0  0  0  0  0  0  # atno 6909 bound_to 6896
  144.9252  140.7063  143.4940 H   0  0  0  0  0  0  0  0  0  0  0  0  # atno 7974 bound_to 7965
  154.9104  140.3013  155.5269 H   0  0  0  0  0  0  0  0  0  0  0  0  # atno 8008 bound_to 7997
  156.3015  140.2390  156.4078 H   0  0  0  0  0  0  0  0  0  0  0  0  # atno 8009 bound_to 7997
  154.8431  140.0413  157.1543 H   0  0  0  0  0  0  0  0  0  0  0  0  # atno 8010 bound_to 7997
  139.5232  144.2862  152.0504 H   0  0  0  0  0  0  0  0  0  0  0  0  # atno 10167 bound_to 10162
  157.3536  130.7611  149.6996 H   0  0  0  0  0  0  0  0  0  0  0  0  # atno 10718 bound_to 10713
  154.1621  135.6473  153.4988 H   0  0  0  0  0  0  0  0  0  0  0  0  # atno 10763 bound_to 10752
  153.0107  135.5363  154.6700 H   0  0  0  0  0  0  0  0  0  0  0  0  # atno 10764 bound_to 10752
  154.6016  135.2944  155.0501 H   0  0  0  0  0  0  0  0  0  0  0  0  # atno 10765 bound_to 10752
  140.9500  133.7226  156.1206 H   0  0  0  0  0  0  0  0  0  0  0  0  # atno 11005 bound_to 11000
  145.3230  139.1782  143.4577 LP  0  0  0  0  0  0  0  0  0  0  0  0  # atno 17320 bound_to 7965
  146.3223  140.3250  142.8636 LP  0  0  0  0  0  0  0  0  0  0  0  0  # atno 17321 bound_to 7965
  140.2315  144.4364  150.6298 LP  0  0  0  0  0  0  0  0  0  0  0  0  # atno 17342 bound_to 10162
  140.6352  143.2193  151.6410 LP  0  0  0  0  0  0  0  0  0  0  0  0  # atno 17343 bound_to 10162
  155.9725  130.4133  150.4078 LP  0  0  0  0  0  0  0  0  0  0  0  0  # atno 17370 bound_to 10713
  157.2145  131.0468  151.2581 LP  0  0  0  0  0  0  0  0  0  0  0  0  # atno 17371 bound_to 10713
  140.7615  134.3934  157.5525 LP  0  0  0  0  0  0  0  0  0  0  0  0  # atno 17394 bound_to 11000
  139.8845  134.8964  156.2701 LP  0  0  0  0  0  0  0  0  0  0  0  0  # atno 17395 bound_to 11000

$$$$
