AV-unprocessed.smi:3183|AV-procd|sdf|12158|dock5
  -GOLD-   2272017593D 1   1.00000     0.00000
 Structure written by MMmdl.
 43 44  0  0  0  0  0  0  0  0  2 V2000
  152.2695  143.2245  161.7312 C   0  0  0  0  0  0  0  0  0  0  0  0
  152.4200  143.3133  160.2020 C   0  0  1  0  0  0  0  0  0  0  0  0
  152.0939  141.9470  159.5660 C   0  0  0  0  0  0  0  0  0  0  0  0
  152.2427  141.9687  158.0368 C   0  0  0  0  0  0  0  0  0  0  0  0
  151.3899  143.0728  157.3903 C   0  0  1  0  0  0  0  0  0  0  0  0
  149.9481  142.7473  157.4774 N   0  3  0  0  0  0  0  0  0  0  0  0
  149.5324  141.5494  156.7213 C   0  0  0  0  0  0  0  0  0  0  0  0
  149.3346  141.8780  155.2342 C   0  0  0  0  0  0  0  0  0  0  0  0
  148.6377  140.8048  154.4534 C   0  0  0  0  0  0  0  0  0  0  0  0
  148.9841  139.5024  154.2153 C   0  0  0  0  0  0  0  0  0  0  0  0
  147.9237  138.9987  153.4136 C   0  0  0  0  0  0  0  0  0  0  0  0
  146.9967  139.9080  153.1721 N   0  0  0  0  0  0  0  0  0  0  0  0
  147.4303  141.0164  153.8077 N   0  0  0  0  0  0  0  0  0  0  0  0
  146.6171  142.2155  153.7333 C   0  0  0  0  0  0  0  0  0  0  0  0
  151.6851  144.4397  158.0341 C   0  0  0  0  0  0  0  0  0  0  0  0
  151.5489  144.4334  159.5734 C   0  0  2  0  0  0  0  0  0  0  0  0
  151.8804  145.8301  160.1292 C   0  0  0  0  0  0  0  0  0  0  0  0
  151.2285  143.0761  162.0200 H   0  0  0  0  0  0  0  0  0  0  0  0
  152.6311  144.1248  162.2273 H   0  0  0  0  0  0  0  0  0  0  0  0
  152.8460  142.3911  162.1337 H   0  0  0  0  0  0  0  0  0  0  0  0
  153.4666  143.5363  159.9882 H   0  0  0  0  0  0  0  0  0  0  0  0
  152.7522  141.1808  159.9773 H   0  0  0  0  0  0  0  0  0  0  0  0
  151.0790  141.6486  159.8326 H   0  0  0  0  0  0  0  0  0  0  0  0
  153.2914  142.1340  157.7864 H   0  0  0  0  0  0  0  0  0  0  0  0
  151.9824  140.9949  157.6198 H   0  0  0  0  0  0  0  0  0  0  0  0
  151.6690  143.1335  156.3371 H   0  0  0  0  0  0  0  0  0  0  0  0
  149.7143  142.6078  158.4501 H   0  0  0  0  0  0  0  0  0  0  0  0
  150.2918  140.7746  156.8360 H   0  0  0  0  0  0  0  0  0  0  0  0
  148.6040  141.1649  157.1464 H   0  0  0  0  0  0  0  0  0  0  0  0
  148.7666  142.8051  155.1466 H   0  0  0  0  0  0  0  0  0  0  0  0
  150.3075  142.0711  154.7801 H   0  0  0  0  0  0  0  0  0  0  0  0
  149.8643  138.9807  154.5609 H   0  0  0  0  0  0  0  0  0  0  0  0
  147.8008  138.0073  153.0030 H   0  0  0  0  0  0  0  0  0  0  0  0
  147.0784  143.0352  154.2827 H   0  0  0  0  0  0  0  0  0  0  0  0
  145.6329  142.0184  154.1593 H   0  0  0  0  0  0  0  0  0  0  0  0
  146.4991  142.5149  152.6914 H   0  0  0  0  0  0  0  0  0  0  0  0
  152.7007  144.7387  157.7699 H   0  0  0  0  0  0  0  0  0  0  0  0
  151.0293  145.1971  157.6021 H   0  0  0  0  0  0  0  0  0  0  0  0
  150.5055  144.2274  159.8169 H   0  0  0  0  0  0  0  0  0  0  0  0
  152.9355  146.0711  159.9949 H   0  0  0  0  0  0  0  0  0  0  0  0
  151.6512  145.9087  161.1917 H   0  0  0  0  0  0  0  0  0  0  0  0
  151.2989  146.6014  159.6238 H   0  0  0  0  0  0  0  0  0  0  0  0
  149.4243  143.5398  157.1344 H   0  0  0  0  0  0  0  0  0  0  0  0
  1  2  1  0  0  0  0
  1 18  1  0  0  0  0
  1 19  1  0  0  0  0
  1 20  1  0  0  0  0
  2 16  1  0  0  0  0
  2  3  1  0  0  0  0
  2 21  1  0  0  0  0
  3  4  1  0  0  0  0
  3 22  1  0  0  0  0
  3 23  1  0  0  0  0
  4  5  1  0  0  0  0
  4 24  1  0  0  0  0
  4 25  1  0  0  0  0
  5  6  1  0  0  0  0
  5 15  1  0  0  0  0
  5 26  1  0  0  0  0
  6  7  1  0  0  0  0
  6 27  1  0  0  0  0
  6 43  1  0  0  0  0
  7  8  1  0  0  0  0
  7 28  1  0  0  0  0
  7 29  1  0  0  0  0
  8  9  1  0  0  0  0
  8 30  1  0  0  0  0
  8 31  1  0  0  0  0
  9 13  1  0  0  0  0
  9 10  2  0  0  0  0
 10 11  1  0  0  0  0
 10 32  1  0  0  0  0
 11 12  2  0  0  0  0
 11 33  1  0  0  0  0
 12 13  1  0  0  0  0
 13 14  1  0  0  0  0
 14 34  1  0  0  0  0
 14 35  1  0  0  0  0
 14 36  1  0  0  0  0
 15 16  1  0  0  0  0
 15 37  1  0  0  0  0
 15 38  1  0  0  0  0
 16 17  1  0  0  0  0
 16 39  1  0  0  0  0
 17 40  1  0  0  0  0
 17 41  1  0  0  0  0
 17 42  1  0  0  0  0
M  CHG  1   6   1
M  END
> <s_m_source_file>
AV-unprocessed.smi

> <i_m_source_file_index>
3183

> <i_lp_mmshare_version>
43012

> <i_f3d_flags>
0

> <s_epik_input>
W0NIM11bQ0BASF0xW0NIMl1bQ0gyXVtDQEhdKFtDSDJdW0NASF0xW0NIM10pW05IXVtDSDJdW0NIMl1jMltjSF1bY0hdbm4yW0NIM10=

> <s_epik_cmdline>
J2VwaWtfcHl0aG9uJywgJy1waCcsICc3LjAnLCAnLXRuJywgJzgnLCAnLW1hJywgJzIwMCcsICctbWV0YWxfYmluZGluZycsICctaW1hZScsICc8aW5maWxlLm1hZT4nLCAnLW9tYWUnLCAnPG91dGZpbGUubWFlPic=

> <r_lp_tautomer_probability>
1

> <r_epik_Ionization_Penalty>
0.000327718

> <r_epik_Ionization_Penalty_Charging>
0.000294043

> <r_epik_Ionization_Penalty_Neutral>
3.36755e-05

> <r_epik_State_Penalty>
-0

> <r_epik_Charging_Adjusted_Penalty>
0.000294043

> <i_epik_Tot_Q>
1

> <i_epik_Tot_abs_Q>
1

> <r_epik_Metal_State_Penalty>
-0

> <b_epik_Metal_Only>
0

> <s_lp_Force_Field>
OPLS_2005

> <r_lp_Energy>
17.888

> <b_lp_Chiralities_Consistent>
1

> <s_lp_Variant>
AV-unprocessed.smi:3183-6

> <Gold.Version>
5.8.1

> <Gold.Id.Protein>
6NUR|6NUR_protein|mol2

> <Gold.PLP.Fitness>
50.5145

> <Gold.PLP.PLP>
-41.8359

> <Gold.PLP.part.hbond>
-1.0000

> <Gold.PLP.part.metal>
0.0000

> <Gold.PLP.part.buried>
-2.6410

> <Gold.PLP.part.nonpolar>
-37.8759

> <Gold.PLP.part.repulsive>
0.2360

> <Gold.PLP.ligand.clash>
0.0000

> <Gold.PLP.ligand.torsion>
0.1660

> <Gold.PLP.Chemscore.Hbond>
2.0000

> <Gold.PLP.Chemscore.CHOScore>
1.0000

> <Gold.PLP.Chemscore.Metal>
0.0000

> <Gold.Chemscore.Hbonds>
donor molecule, donor type, donor heavy atom, donor atom, acceptor molecule, acceptor atom, score
      L1  H     6    43       P1  8028  2.00
      L1  C    11    33       P1  7948  1.00

> <Gold.PLP.Chemscore.Internal.Correction>
0.0107

> <Gold.Rescore>
     Score         DG    S(hbond)    S(metal)    S(lipo)     H(rot)  DE(clash)    DE(int)     intcor
     19.22     -20.09       0.96        0.00     127.64       1.38       0.73       0.14       ----

> <Gold.Chemscore.Fitness>
19.2216

> <Gold.Chemscore.DG>
-20.0856

> <Gold.Chemscore.ZeroCoef>
-5.4800

> <Gold.Chemscore.Hbond>
0.9571

> <Gold.Chemscore.Metal>
0.0000

> <Gold.Chemscore.Lipo>
127.6375

> <Gold.Chemscore.Internal_Hbond>
0.0000

> <Gold.Chemscore.DEClash>
0.7266

> <Gold.Chemscore.DEInternal>
0.1375

> <Gold.Chemscore.Rot>
1.3768

> <Gold.Chemscore.Internal.Correction>
   9.000000E+99

> <Gold.Chemscore.Hbonds>
donor molecule, donor type, donor heavy atom, donor atom, acceptor molecule, acceptor atom, score
      L1  H     6    43       P1  8028  0.77

> <Gold.Chemscore.Hbond.Weighted>
-3.1967

> <Gold.Chemscore.Metal.Weighted>
-0.0000

> <Gold.Chemscore.Lipo.Weighted>
-14.9336

> <Gold.Chemscore.Internal_Hbond.Weighted>
0.0000

> <Gold.Chemscore.DEClash.Weighted>
0.7266

> <Gold.Chemscore.DEInternal.Weighted>
0.1375

> <Gold.Chemscore.Rot.Weighted>
3.5247

> <Gold.Chemscore.Internal.Correction.Weighted>
   9.000000E+99

> <Gold.Protein.RotatedTorsions>
[ 6907 6896 6895 6894 ] final  103.43 input  -60.11 | X-H torsion
[ 7974 7965 7964 7962 ] final  168.37 input  175.53 | X-H torsion
[ 8008 7997 7996 7995 ] final  133.78 input   59.86 | X-H torsion
[ 10167 10162 10161 10158 ] final -125.01 input  -65.29 | X-H torsion
[ 10718 10713 10712 10709 ] final  124.13 input   66.30 | X-H torsion
[ 10763 10752 10751 10750 ] final  115.58 input  -60.55 | X-H torsion
[ 11005 11000 10999 10996 ] final -161.94 input  -57.11 | X-H torsion

> <Gold.Protein.ActiveResidues>
 VAL166  LYS551  ARG553  GLY616  TRP617  ASP618  TYR619  PRO620  LYS621  CYS622 
 ASP623  PHE694  ASN695  SER759  ASP760  ASP761  ALA762  ILE779  LEU786  VAL792 
 PHE793  MET794  SER795  GLU796  ALA797  LYS798  CYS799  TRP800  GLU811  SER814 

> <Gold.Protein.RotatedAtoms>
  152.5295  133.9827  159.7813 H   0  0  0  0  0  0  0  0  0  0  0  0  # atno 6907 bound_to 6896
  151.0078  133.5986  159.2693 H   0  0  0  0  0  0  0  0  0  0  0  0  # atno 6908 bound_to 6896
  151.3072  135.0791  159.9313 H   0  0  0  0  0  0  0  0  0  0  0  0  # atno 6909 bound_to 6896
  144.7391  139.8898  143.6402 H   0  0  0  0  0  0  0  0  0  0  0  0  # atno 7974 bound_to 7965
  156.2995  140.2513  156.3309 H   0  0  0  0  0  0  0  0  0  0  0  0  # atno 8008 bound_to 7997
  154.9146  140.0402  157.1984 H   0  0  0  0  0  0  0  0  0  0  0  0  # atno 8009 bound_to 7997
  154.8371  140.2885  155.5688 H   0  0  0  0  0  0  0  0  0  0  0  0  # atno 8010 bound_to 7997
  139.9867  143.5684  152.2358 H   0  0  0  0  0  0  0  0  0  0  0  0  # atno 10167 bound_to 10162
  157.5610  131.1089  150.8538 H   0  0  0  0  0  0  0  0  0  0  0  0  # atno 10718 bound_to 10713
  153.5244  135.3591  155.2647 H   0  0  0  0  0  0  0  0  0  0  0  0  # atno 10763 bound_to 10752
  154.8732  135.4053  154.3223 H   0  0  0  0  0  0  0  0  0  0  0  0  # atno 10764 bound_to 10752
  153.3900  135.7071  153.6569 H   0  0  0  0  0  0  0  0  0  0  0  0  # atno 10765 bound_to 10752
  140.6148  134.4812  157.5218 H   0  0  0  0  0  0  0  0  0  0  0  0  # atno 11005 bound_to 11000
  146.1150  139.4160  143.0264 LP  0  0  0  0  0  0  0  0  0  0  0  0  # atno 17320 bound_to 7965
  145.7387  141.0016  143.1312 LP  0  0  0  0  0  0  0  0  0  0  0  0  # atno 17321 bound_to 7965
  139.6370  144.7651  151.2417 LP  0  0  0  0  0  0  0  0  0  0  0  0  # atno 17342 bound_to 10162
  140.7470  143.6382  150.8360 LP  0  0  0  0  0  0  0  0  0  0  0  0  # atno 17343 bound_to 10162
  156.9036  130.5255  149.5282 LP  0  0  0  0  0  0  0  0  0  0  0  0  # atno 17370 bound_to 10713
  156.0663  130.5705  150.9294 LP  0  0  0  0  0  0  0  0  0  0  0  0  # atno 17371 bound_to 10713
  139.9177  134.8212  156.1311 LP  0  0  0  0  0  0  0  0  0  0  0  0  # atno 17394 bound_to 11000
  141.0783  133.6765  156.2283 LP  0  0  0  0  0  0  0  0  0  0  0  0  # atno 17395 bound_to 11000

$$$$
