AV-unprocessed.smi:3044|AV-procd|sdf|11607|dock2
  -GOLD-   2272016583D 1   1.00000     0.00000
 Structure written by MMmdl.
 41 42  0  0  0  0  0  0  0  0  1 V2000
  146.6016  137.2458  155.8599 C   0  0  0  0  0  0  0  0  0  0  0  0
  146.7125  137.8968  154.4918 C   0  0  0  0  0  0  0  0  0  0  0  0
  145.9234  137.3665  153.5307 N   0  0  0  0  0  0  0  0  0  0  0  0
  145.9780  137.9010  152.2931 C   0  0  0  0  0  0  0  0  0  0  0  0
  146.8202  138.9763  151.9541 C   0  0  0  0  0  0  0  0  0  0  0  0
  147.6408  139.5279  152.9558 C   0  0  0  0  0  0  0  0  0  0  0  0
  147.5840  138.9902  154.2644 C   0  0  0  0  0  0  0  0  0  0  0  0
  148.3875  139.4656  155.3372 N   0  0  0  0  0  0  0  0  0  0  0  0
  149.5969  140.0544  155.2852 C   0  0  0  0  0  0  0  0  0  0  0  0
  150.2303  140.2586  154.2503 O   0  0  0  0  0  0  0  0  0  0  0  0
  150.1946  140.4898  156.6242 C   0  0  0  0  0  0  0  0  0  0  0  0
  150.5004  141.8788  156.5788 O   0  0  0  0  0  0  0  0  0  0  0  0
  150.8352  142.4510  157.8355 C   0  0  2  0  0  0  0  0  0  0  0  0
  151.4023  143.8540  157.5621 C   0  0  0  0  0  0  0  0  0  0  0  0
  151.8740  144.5276  158.8593 C   0  0  0  0  0  0  0  0  0  0  0  0
  152.9079  143.6570  159.5907 C   0  0  0  0  0  0  0  0  0  0  0  0
  152.3594  142.2451  159.8741 C   0  0  2  0  0  0  0  0  0  0  0  0
  153.3986  141.3756  160.5963 C   0  0  0  0  0  0  0  0  0  0  0  0
  151.8753  141.5799  158.5703 C   0  0  0  0  0  0  0  0  0  0  0  0
  146.2793  137.9765  156.6021 H   0  0  0  0  0  0  0  0  0  0  0  0
  147.5667  136.8439  156.1689 H   0  0  0  0  0  0  0  0  0  0  0  0
  145.8809  136.4271  155.8586 H   0  0  0  0  0  0  0  0  0  0  0  0
  145.3353  137.4540  151.5489 H   0  0  0  0  0  0  0  0  0  0  0  0
  146.8400  139.3662  150.9471 H   0  0  0  0  0  0  0  0  0  0  0  0
  148.3052  140.3390  152.7005 H   0  0  0  0  0  0  0  0  0  0  0  0
  147.9532  139.4436  156.2487 H   0  0  0  0  0  0  0  0  0  0  0  0
  149.4720  140.2858  157.4155 H   0  0  0  0  0  0  0  0  0  0  0  0
  151.0884  139.8990  156.8259 H   0  0  0  0  0  0  0  0  0  0  0  0
  149.9385  142.5570  158.4494 H   0  0  0  0  0  0  0  0  0  0  0  0
  152.2383  143.7837  156.8647 H   0  0  0  0  0  0  0  0  0  0  0  0
  150.6464  144.4726  157.0773 H   0  0  0  0  0  0  0  0  0  0  0  0
  152.3030  145.5048  158.6360 H   0  0  0  0  0  0  0  0  0  0  0  0
  151.0184  144.7071  159.5116 H   0  0  0  0  0  0  0  0  0  0  0  0
  153.8143  143.5870  158.9877 H   0  0  0  0  0  0  0  0  0  0  0  0
  153.1961  144.1403  160.5248 H   0  0  0  0  0  0  0  0  0  0  0  0
  151.4992  142.3467  160.5374 H   0  0  0  0  0  0  0  0  0  0  0  0
  154.2877  141.2278  159.9824 H   0  0  0  0  0  0  0  0  0  0  0  0
  152.9914  140.3924  160.8343 H   0  0  0  0  0  0  0  0  0  0  0  0
  153.7139  141.8363  161.5329 H   0  0  0  0  0  0  0  0  0  0  0  0
  151.4541  140.6014  158.8001 H   0  0  0  0  0  0  0  0  0  0  0  0
  152.7268  141.4006  157.9123 H   0  0  0  0  0  0  0  0  0  0  0  0
  1  2  1  0  0  0  0
  1 20  1  0  0  0  0
  1 21  1  0  0  0  0
  1 22  1  0  0  0  0
  2  7  1  0  0  0  0
  2  3  2  0  0  0  0
  3  4  1  0  0  0  0
  4  5  2  0  0  0  0
  4 23  1  0  0  0  0
  5  6  1  0  0  0  0
  5 24  1  0  0  0  0
  6  7  2  0  0  0  0
  6 25  1  0  0  0  0
  7  8  1  0  0  0  0
  8  9  1  0  0  0  0
  8 26  1  0  0  0  0
  9 10  2  0  0  0  0
  9 11  1  0  0  0  0
 11 12  1  0  0  0  0
 11 27  1  0  0  0  0
 11 28  1  0  0  0  0
 12 13  1  0  0  0  0
 13 19  1  0  0  0  0
 13 14  1  0  0  0  0
 13 29  1  0  0  0  0
 14 15  1  0  0  0  0
 14 30  1  0  0  0  0
 14 31  1  0  0  0  0
 15 16  1  0  0  0  0
 15 32  1  0  0  0  0
 15 33  1  0  0  0  0
 16 17  1  0  0  0  0
 16 34  1  0  0  0  0
 16 35  1  0  0  0  0
 17 18  1  0  0  0  0
 17 19  1  0  0  0  0
 17 36  1  0  0  0  0
 18 37  1  0  0  0  0
 18 38  1  0  0  0  0
 18 39  1  0  0  0  0
 19 40  1  0  0  0  0
 19 41  1  0  0  0  0
M  END
> <s_m_source_file>
AV-unprocessed.smi

> <i_m_source_file_index>
3044

> <i_lp_mmshare_version>
43012

> <i_f3d_flags>
0

> <s_epik_input>
W0NIM11jMW5bY0hdW2NIXVtjSF1jMVtOSF1DKD1PKVtDSDJdT1tDQEBIXTJbQ0gyXVtDSDJdW0NIMl1bQ0BASF0oW0NIM10pW0NIMl0y

> <s_epik_cmdline>
J2VwaWtfcHl0aG9uJywgJy1waCcsICc3LjAnLCAnLXRuJywgJzgnLCAnLW1hJywgJzIwMCcsICctbWV0YWxfYmluZGluZycsICctaW1hZScsICc8aW5maWxlLm1hZT4nLCAnLW9tYWUnLCAnPG91dGZpbGUubWFlPic=

> <r_epik_Ionization_Penalty>
0.0077122

> <r_epik_Ionization_Penalty_Charging>
0

> <r_epik_Ionization_Penalty_Neutral>
0.0077122

> <r_epik_State_Penalty>
0.00577497

> <r_epik_Charging_Adjusted_Penalty>
0.00577497

> <i_epik_Tot_Q>
0

> <i_epik_Tot_abs_Q>
0

> <r_epik_Metal_State_Penalty>
-0

> <b_epik_Metal_Only>
0

> <s_lp_Force_Field>
OPLS_2005

> <r_lp_Energy>
17.0629

> <b_lp_Chiralities_Consistent>
1

> <s_lp_Variant>
AV-unprocessed.smi:3044-3

> <Gold.Version>
5.8.1

> <Gold.Id.Protein>
6NUR|6NUR_protein|mol2

> <Gold.PLP.Fitness>
40.6792

> <Gold.PLP.PLP>
-35.2386

> <Gold.PLP.part.hbond>
-1.0000

> <Gold.PLP.part.metal>
0.0000

> <Gold.PLP.part.buried>
-0.7677

> <Gold.PLP.part.nonpolar>
-35.0975

> <Gold.PLP.part.repulsive>
0.6041

> <Gold.PLP.ligand.clash>
0.0000

> <Gold.PLP.ligand.torsion>
0.2837

> <Gold.PLP.Chemscore.Hbond>
0.9920

> <Gold.PLP.Chemscore.CHOScore>
0.9999

> <Gold.PLP.Chemscore.Metal>
0.0000

> <Gold.Chemscore.Hbonds>
donor molecule, donor type, donor heavy atom, donor atom, acceptor molecule, acceptor atom, score
      P1  H  7989  7998       L1    10  0.99
      L1  C     4    23       P1 10171  0.96

> <Gold.PLP.Chemscore.Internal.Correction>
0.0323

> <Gold.Rescore>
     Score         DG    S(hbond)    S(metal)    S(lipo)     H(rot)  DE(clash)    DE(int)     intcor
     16.45     -18.38       0.94        0.00     111.88       1.31       0.64       1.29       ----

> <Gold.Chemscore.Fitness>
16.4477

> <Gold.Chemscore.DG>
-18.3792

> <Gold.Chemscore.ZeroCoef>
-5.4800

> <Gold.Chemscore.Hbond>
0.9443

> <Gold.Chemscore.Metal>
0.0000

> <Gold.Chemscore.Lipo>
111.8760

> <Gold.Chemscore.Internal_Hbond>
0.0000

> <Gold.Chemscore.DEClash>
0.6435

> <Gold.Chemscore.DEInternal>
1.2880

> <Gold.Chemscore.Rot>
1.3064

> <Gold.Chemscore.Internal.Correction>
   9.000000E+99

> <Gold.Chemscore.Hbonds>
donor molecule, donor type, donor heavy atom, donor atom, acceptor molecule, acceptor atom, score
      P1  H  7989  7998       L1    10  0.93

> <Gold.Chemscore.Hbond.Weighted>
-3.1540

> <Gold.Chemscore.Metal.Weighted>
-0.0000

> <Gold.Chemscore.Lipo.Weighted>
-13.0895

> <Gold.Chemscore.Internal_Hbond.Weighted>
0.0000

> <Gold.Chemscore.DEClash.Weighted>
0.6435

> <Gold.Chemscore.DEInternal.Weighted>
1.2880

> <Gold.Chemscore.Rot.Weighted>
3.3443

> <Gold.Chemscore.Internal.Correction.Weighted>
   9.000000E+99

> <Gold.Protein.RotatedTorsions>
[ 6907 6896 6895 6894 ] final  -19.76 input  -60.11 | X-H torsion
[ 7974 7965 7964 7962 ] final  171.87 input  175.53 | X-H torsion
[ 8008 7997 7996 7995 ] final   16.60 input   59.86 | X-H torsion
[ 10167 10162 10161 10158 ] final  -15.31 input  -65.29 | X-H torsion
[ 10718 10713 10712 10709 ] final  108.23 input   66.30 | X-H torsion
[ 10763 10752 10751 10750 ] final   33.88 input  -60.55 | X-H torsion
[ 11005 11000 10999 10996 ] final  152.69 input  -57.11 | X-H torsion

> <Gold.Protein.ActiveResidues>
 VAL166  LYS551  ARG553  GLY616  TRP617  ASP618  TYR619  PRO620  LYS621  CYS622 
 ASP623  PHE694  ASN695  SER759  ASP760  ASP761  ALA762  ILE779  LEU786  VAL792 
 PHE793  MET794  SER795  GLU796  ALA797  LYS798  CYS799  TRP800  GLU811  SER814 

> <Gold.Protein.RotatedAtoms>
  151.2583  135.0645  159.9088 H   0  0  0  0  0  0  0  0  0  0  0  0  # atno 6907 bound_to 6896
  152.5370  134.0258  159.8012 H   0  0  0  0  0  0  0  0  0  0  0  0  # atno 6908 bound_to 6896
  151.0477  133.5602  159.2676 H   0  0  0  0  0  0  0  0  0  0  0  0  # atno 6909 bound_to 6896
  144.7283  139.9413  143.6428 H   0  0  0  0  0  0  0  0  0  0  0  0  # atno 7974 bound_to 7965
  154.8793  140.2970  155.5434 H   0  0  0  0  0  0  0  0  0  0  0  0  # atno 8008 bound_to 7997
  156.3022  140.2445  156.3727 H   0  0  0  0  0  0  0  0  0  0  0  0  # atno 8009 bound_to 7997
  154.8733  140.0400  157.1727 H   0  0  0  0  0  0  0  0  0  0  0  0  # atno 8010 bound_to 7997
  140.7216  143.5231  150.9609 H   0  0  0  0  0  0  0  0  0  0  0  0  # atno 10167 bound_to 10162
  157.6595  131.0889  150.6274 H   0  0  0  0  0  0  0  0  0  0  0  0  # atno 10718 bound_to 10713
  153.0191  135.6375  154.1580 H   0  0  0  0  0  0  0  0  0  0  0  0  # atno 10763 bound_to 10752
  154.1316  135.2840  155.3185 H   0  0  0  0  0  0  0  0  0  0  0  0  # atno 10764 bound_to 10752
  154.6190  135.5531  153.7616 H   0  0  0  0  0  0  0  0  0  0  0  0  # atno 10765 bound_to 10752
  140.1330  134.8789  157.2229 H   0  0  0  0  0  0  0  0  0  0  0  0  # atno 11005 bound_to 11000
  146.0782  139.3770  143.0481 LP  0  0  0  0  0  0  0  0  0  0  0  0  # atno 17320 bound_to 7965
  145.7876  140.9828  143.1066 LP  0  0  0  0  0  0  0  0  0  0  0  0  # atno 17321 bound_to 7965
  139.8949  143.6907  152.3140 LP  0  0  0  0  0  0  0  0  0  0  0  0  # atno 17342 bound_to 10162
  139.7236  144.7597  151.0915 LP  0  0  0  0  0  0  0  0  0  0  0  0  # atno 17343 bound_to 10162
  156.6578  130.4503  149.5698 LP  0  0  0  0  0  0  0  0  0  0  0  0  # atno 17370 bound_to 10713
  156.2090  130.6667  151.1249 LP  0  0  0  0  0  0  0  0  0  0  0  0  # atno 17371 bound_to 10713
  140.2818  134.3341  155.7341 LP  0  0  0  0  0  0  0  0  0  0  0  0  # atno 17394 bound_to 11000
  141.2173  133.7483  156.9375 LP  0  0  0  0  0  0  0  0  0  0  0  0  # atno 17395 bound_to 11000

$$$$
