AV-unprocessed.smi:795|AV-procd|sdf|3764|dock4
  -GOLD-   22720 1193D 1   1.00000     0.00000
 Structure written by MMmdl.
 49 52  0  0  0  0  0  0  0  0  1 V2000
  149.1461  142.1566  157.2749 C   0  0  0  0  0  0  0  0  0  0  0  0
  150.0178  141.0033  157.6933 C   0  0  0  0  0  0  0  0  0  0  0  0
  149.5238  139.8188  157.5422 N   0  0  0  0  0  0  0  0  0  0  0  0
  150.2362  138.6896  157.8977 N   0  0  0  0  0  0  0  0  0  0  0  0
  149.4961  137.4375  157.6893 C   0  0  0  0  0  0  0  0  0  0  0  0
  149.3977  136.6038  158.9734 C   0  0  0  0  0  0  0  0  0  0  0  0
  150.3759  135.9887  159.3984 O   0  0  0  0  0  0  0  0  0  0  0  0
  148.1991  136.5860  159.5752 N   0  0  0  0  0  0  0  0  0  0  0  0
  147.8844  135.8978  160.8256 C   0  0  2  0  0  0  0  0  0  0  0  0
  147.8255  134.3644  160.6120 C   0  0  2  0  0  0  0  0  0  0  0  0
  146.6427  133.9855  159.6882 C   0  0  0  0  0  0  0  0  0  0  0  0
  145.3192  134.4601  160.3258 C   0  0  1  0  0  0  0  0  0  0  0  0
  145.1337  133.7738  161.6964 C   0  0  0  0  0  0  0  0  0  0  0  0
  146.3139  134.1474  162.6194 C   0  0  1  0  0  0  0  0  0  0  0  0
  147.6388  133.6728  161.9810 C   0  0  0  0  0  0  0  0  0  0  0  0
  146.3489  135.6797  162.8129 C   0  0  0  0  0  0  0  0  0  0  0  0
  146.5376  136.3661  161.4416 C   0  0  2  0  0  0  0  0  0  0  0  0
  145.3552  135.9915  160.5175 C   0  0  0  0  0  0  0  0  0  0  0  0
  151.4971  138.7002  158.4191 C   0  0  0  0  0  0  0  0  0  0  0  0
  152.0991  137.6690  158.7215 O   0  0  0  0  0  0  0  0  0  0  0  0
  152.0517  140.0457  158.5858 C   0  0  0  0  0  0  0  0  0  0  0  0
  153.3694  140.1022  159.1317 C   0  0  0  0  0  0  0  0  0  0  0  0
  154.4463  140.1467  159.5540 N   0  0  0  0  0  0  0  0  0  0  0  0
  151.3585  141.1615  158.2469 C   0  0  0  0  0  0  0  0  0  0  0  0
  151.8875  142.5807  158.4029 C   0  0  0  0  0  0  0  0  0  0  0  0
  149.6346  142.7521  156.5034 H   0  0  0  0  0  0  0  0  0  0  0  0
  148.9336  142.8079  158.1229 H   0  0  0  0  0  0  0  0  0  0  0  0
  148.1896  141.8187  156.8728 H   0  0  0  0  0  0  0  0  0  0  0  0
  148.4940  137.6647  157.3195 H   0  0  0  0  0  0  0  0  0  0  0  0
  149.9575  136.8275  156.9113 H   0  0  0  0  0  0  0  0  0  0  0  0
  147.4504  137.1129  159.1493 H   0  0  0  0  0  0  0  0  0  0  0  0
  148.6928  136.1179  161.5258 H   0  0  0  0  0  0  0  0  0  0  0  0
  148.7593  134.0214  160.1645 H   0  0  0  0  0  0  0  0  0  0  0  0
  146.7665  134.4295  158.6998 H   0  0  0  0  0  0  0  0  0  0  0  0
  146.6185  132.9061  159.5338 H   0  0  0  0  0  0  0  0  0  0  0  0
  144.4869  134.1962  159.6726 H   0  0  0  0  0  0  0  0  0  0  0  0
  144.1897  134.0816  162.1477 H   0  0  0  0  0  0  0  0  0  0  0  0
  145.0779  132.6917  161.5729 H   0  0  0  0  0  0  0  0  0  0  0  0
  146.1842  133.6630  163.5876 H   0  0  0  0  0  0  0  0  0  0  0  0
  147.6314  132.5889  161.8585 H   0  0  0  0  0  0  0  0  0  0  0  0
  148.4784  133.9015  162.6384 H   0  0  0  0  0  0  0  0  0  0  0  0
  145.4258  136.0222  163.2823 H   0  0  0  0  0  0  0  0  0  0  0  0
  147.1582  135.9573  163.4893 H   0  0  0  0  0  0  0  0  0  0  0  0
  146.5493  137.4460  161.5914 H   0  0  0  0  0  0  0  0  0  0  0  0
  145.4466  136.4936  159.5537 H   0  0  0  0  0  0  0  0  0  0  0  0
  144.4165  136.3376  160.9516 H   0  0  0  0  0  0  0  0  0  0  0  0
  152.8753  142.6045  158.8617 H   0  0  0  0  0  0  0  0  0  0  0  0
  151.2220  143.1714  159.0331 H   0  0  0  0  0  0  0  0  0  0  0  0
  151.9643  143.0686  157.4306 H   0  0  0  0  0  0  0  0  0  0  0  0
  1  2  1  0  0  0  0
  1 26  1  0  0  0  0
  1 27  1  0  0  0  0
  1 28  1  0  0  0  0
  2 24  1  0  0  0  0
  2  3  2  0  0  0  0
  3  4  1  0  0  0  0
  4  5  1  0  0  0  0
  4 19  1  0  0  0  0
  5  6  1  0  0  0  0
  5 29  1  0  0  0  0
  5 30  1  0  0  0  0
  6  7  2  0  0  0  0
  6  8  1  0  0  0  0
  8  9  1  0  0  0  0
  8 31  1  0  0  0  0
  9 17  1  0  0  0  0
  9 10  1  0  0  0  0
  9 32  1  0  0  0  0
 10 15  1  0  0  0  0
 10 11  1  0  0  0  0
 10 33  1  0  0  0  0
 11 12  1  0  0  0  0
 11 34  1  0  0  0  0
 11 35  1  0  0  0  0
 12 18  1  0  0  0  0
 12 13  1  0  0  0  0
 12 36  1  0  0  0  0
 13 14  1  0  0  0  0
 13 37  1  0  0  0  0
 13 38  1  0  0  0  0
 14 15  1  0  0  0  0
 14 16  1  0  0  0  0
 14 39  1  0  0  0  0
 15 40  1  0  0  0  0
 15 41  1  0  0  0  0
 16 17  1  0  0  0  0
 16 42  1  0  0  0  0
 16 43  1  0  0  0  0
 17 18  1  0  0  0  0
 17 44  1  0  0  0  0
 18 45  1  0  0  0  0
 18 46  1  0  0  0  0
 19 20  2  0  0  0  0
 19 21  1  0  0  0  0
 21 22  1  0  0  0  0
 21 24  2  0  0  0  0
 22 23  3  0  0  0  0
 24 25  1  0  0  0  0
 25 47  1  0  0  0  0
 25 48  1  0  0  0  0
 25 49  1  0  0  0  0
M  END
> <s_m_source_file>
AV-unprocessed.smi

> <i_m_source_file_index>
795

> <i_lp_mmshare_version>
43012

> <i_f3d_flags>
0

> <s_epik_input>
TiNDYyhjMVtDSDNdKWMoPU8pbihuYzFbQ0gzXSlbQ0gyXUMoPU8pW05IXVtDQEhdKFtDQEhdMjMpW0NAQEhdNFtDSDJdW0NASF0oW0NIMl0zKVtDSDJdW0NASF0oW0NIMl0yKVtDSDJdNA==

> <s_epik_cmdline>
J2VwaWtfcHl0aG9uJywgJy1waCcsICc3LjAnLCAnLXRuJywgJzgnLCAnLW1hJywgJzIwMCcsICctbWV0YWxfYmluZGluZycsICctaW1hZScsICc8aW5maWxlLm1hZT4nLCAnLW9tYWUnLCAnPG91dGZpbGUubWFlPic=

> <r_lp_tautomer_probability>
1

> <r_epik_Ionization_Penalty>
2.02301e-08

> <r_epik_Ionization_Penalty_Charging>
2.3673e-11

> <r_epik_Ionization_Penalty_Neutral>
2.02064e-08

> <r_epik_State_Penalty>
-0

> <r_epik_Charging_Adjusted_Penalty>
2.3673e-11

> <i_epik_Tot_Q>
0

> <i_epik_Tot_abs_Q>
0

> <r_epik_Metal_State_Penalty>
-0

> <b_epik_Metal_Only>
0

> <s_lp_Force_Field>
OPLS_2005

> <r_lp_Energy>
43.8057

> <b_lp_Chiralities_Consistent>
1

> <s_lp_Variant>
AV-unprocessed.smi:795-1

> <Gold.Version>
5.8.1

> <Gold.Id.Protein>
6NUR|6NUR_protein|mol2

> <Gold.PLP.Fitness>
41.4423

> <Gold.PLP.PLP>
-36.7533

> <Gold.PLP.part.hbond>
-2.0000

> <Gold.PLP.part.metal>
0.0000

> <Gold.PLP.part.buried>
-4.5004

> <Gold.PLP.part.nonpolar>
-31.0367

> <Gold.PLP.part.repulsive>
0.2175

> <Gold.PLP.ligand.clash>
0.0000

> <Gold.PLP.ligand.torsion>
0.3577

> <Gold.PLP.Chemscore.Hbond>
1.8000

> <Gold.PLP.Chemscore.CHOScore>
0.0000

> <Gold.PLP.Chemscore.Metal>
0.0000

> <Gold.Chemscore.Hbonds>
donor molecule, donor type, donor heavy atom, donor atom, acceptor molecule, acceptor atom, score
      P1  H  6896  6907       L1     7  0.32

> <Gold.PLP.Chemscore.Internal.Correction>
0.0044

> <Gold.Rescore>
     Score         DG    S(hbond)    S(metal)    S(lipo)     H(rot)  DE(clash)    DE(int)     intcor
     13.20     -18.12       1.56        0.00      95.03       1.44       0.14       4.77       ----

> <Gold.Chemscore.Fitness>
13.2043

> <Gold.Chemscore.DG>
-18.1221

> <Gold.Chemscore.ZeroCoef>
-5.4800

> <Gold.Chemscore.Hbond>
1.5630

> <Gold.Chemscore.Metal>
0.0000

> <Gold.Chemscore.Lipo>
95.0311

> <Gold.Chemscore.Internal_Hbond>
0.0000

> <Gold.Chemscore.DEClash>
0.1444

> <Gold.Chemscore.DEInternal>
4.7734

> <Gold.Chemscore.Rot>
1.4442

> <Gold.Chemscore.Internal.Correction>
   9.000000E+99

> <Gold.Chemscore.Hbonds>
donor molecule, donor type, donor heavy atom, donor atom, acceptor molecule, acceptor atom, score
      P1  H  6896  6907       L1     7  0.33

> <Gold.Chemscore.Hbond.Weighted>
-5.2206

> <Gold.Chemscore.Metal.Weighted>
-0.0000

> <Gold.Chemscore.Lipo.Weighted>
-11.1186

> <Gold.Chemscore.Internal_Hbond.Weighted>
0.0000

> <Gold.Chemscore.DEClash.Weighted>
0.1444

> <Gold.Chemscore.DEInternal.Weighted>
4.7734

> <Gold.Chemscore.Rot.Weighted>
3.6971

> <Gold.Chemscore.Internal.Correction.Weighted>
   9.000000E+99

> <Gold.Protein.RotatedTorsions>
[ 6907 6896 6895 6894 ] final  -52.45 input  -60.11 | X-H torsion
[ 7974 7965 7964 7962 ] final -150.43 input  175.53 | X-H torsion
[ 8008 7997 7996 7995 ] final -146.65 input   59.86 | X-H torsion
[ 10167 10162 10161 10158 ] final  -21.78 input  -65.29 | X-H torsion
[ 10718 10713 10712 10709 ] final   99.00 input   66.30 | X-H torsion
[ 10763 10752 10751 10750 ] final -103.04 input  -60.55 | X-H torsion
[ 11005 11000 10999 10996 ] final -109.37 input  -57.11 | X-H torsion

> <Gold.Protein.ActiveResidues>
 VAL166  LYS551  ARG553  GLY616  TRP617  ASP618  TYR619  PRO620  LYS621  CYS622 
 ASP623  PHE694  ASN695  SER759  ASP760  ASP761  ALA762  ILE779  LEU786  VAL792 
 PHE793  MET794  SER795  GLU796  ALA797  LYS798  CYS799  TRP800  GLU811  SER814 

> <Gold.Protein.RotatedAtoms>
  150.8517  134.7843  159.7013 H   0  0  0  0  0  0  0  0  0  0  0  0  # atno 6907 bound_to 6896
  152.4579  134.5246  159.9802 H   0  0  0  0  0  0  0  0  0  0  0  0  # atno 6908 bound_to 6896
  151.5366  133.3402  159.2963 H   0  0  0  0  0  0  0  0  0  0  0  0  # atno 6909 bound_to 6896
  144.7908  140.4933  143.5774 H   0  0  0  0  0  0  0  0  0  0  0  0  # atno 7974 bound_to 7965
  155.5628  140.0627  157.2825 H   0  0  0  0  0  0  0  0  0  0  0  0  # atno 8008 bound_to 7997
  154.4385  140.1882  156.0846 H   0  0  0  0  0  0  0  0  0  0  0  0  # atno 8009 bound_to 7997
  156.0434  140.3293  155.7273 H   0  0  0  0  0  0  0  0  0  0  0  0  # atno 8010 bound_to 7997
  140.7283  143.4595  151.0400 H   0  0  0  0  0  0  0  0  0  0  0  0  # atno 10167 bound_to 10162
  157.6885  131.0657  150.4882 H   0  0  0  0  0  0  0  0  0  0  0  0  # atno 10718 bound_to 10713
  154.7778  135.4838  153.9781 H   0  0  0  0  0  0  0  0  0  0  0  0  # atno 10763 bound_to 10752
  153.1453  135.6780  153.8972 H   0  0  0  0  0  0  0  0  0  0  0  0  # atno 10764 bound_to 10752
  153.8633  135.3152  155.3417 H   0  0  0  0  0  0  0  0  0  0  0  0  # atno 10765 bound_to 10752
  141.0851  133.9152  157.2203 H   0  0  0  0  0  0  0  0  0  0  0  0  # atno 11005 bound_to 11000
  145.5799  139.1488  143.3241 LP  0  0  0  0  0  0  0  0  0  0  0  0  # atno 17320 bound_to 7965
  146.2159  140.5929  142.9038 LP  0  0  0  0  0  0  0  0  0  0  0  0  # atno 17321 bound_to 7965
  139.8279  143.7731  152.3179 LP  0  0  0  0  0  0  0  0  0  0  0  0  # atno 17342 bound_to 10162
  139.7836  144.7435  151.0053 LP  0  0  0  0  0  0  0  0  0  0  0  0  # atno 17343 bound_to 10162
  156.5210  130.4162  149.6250 LP  0  0  0  0  0  0  0  0  0  0  0  0  # atno 17370 bound_to 10713
  156.3154  130.7251  151.2153 LP  0  0  0  0  0  0  0  0  0  0  0  0  # atno 17371 bound_to 10713
  139.9669  135.0139  156.9410 LP  0  0  0  0  0  0  0  0  0  0  0  0  # atno 17394 bound_to 11000
  140.5381  134.0747  155.7334 LP  0  0  0  0  0  0  0  0  0  0  0  0  # atno 17395 bound_to 11000

$$$$
