AV-unprocessed.smi:1115|AV-procd|sdf|4805|dock6
  -GOLD-   22720 3353D 1   1.00000     0.00000
 Structure written by MMmdl.
 51 52  0  0  0  0  0  0  0  0  2 V2000
  152.6005  144.2701  159.2202 C   0  0  0  0  0  0  0  0  0  0  0  0
  152.4783  142.8294  159.4047 N   0  0  0  0  0  0  0  0  0  0  0  0
  153.1773  142.1759  160.5066 C   0  0  0  0  0  0  0  0  0  0  0  0
  151.6285  142.0742  158.5644 C   0  0  0  0  0  0  0  0  0  0  0  0
  151.4055  140.6925  158.7868 C   0  0  0  0  0  0  0  0  0  0  0  0
  150.5499  139.9824  157.9227 C   0  0  0  0  0  0  0  0  0  0  0  0
  149.9272  140.6697  156.8558 C   0  0  0  0  0  0  0  0  0  0  0  0
  149.0633  140.0624  155.9047 N   0  0  0  0  0  0  0  0  0  0  0  0
  148.6832  138.7761  155.8212 C   0  0  0  0  0  0  0  0  0  0  0  0
  148.9966  137.8876  156.6131 O   0  0  0  0  0  0  0  0  0  0  0  0
  147.8809  138.5760  154.7655 N   0  0  0  0  0  0  0  0  0  0  0  0
  147.2894  137.2951  154.3774 C   0  0  0  0  0  0  0  0  0  0  0  0
  146.2117  137.4049  153.2552 C   0  0  0  0  0  0  0  0  0  0  0  0
  144.8391  137.6851  153.9234 C   0  0  0  0  0  0  0  0  0  0  0  0
  146.5392  138.5987  152.3253 C   0  0  0  0  0  0  0  0  0  0  0  0
  146.1778  136.1038  152.4875 N   0  3  0  0  0  0  0  0  0  0  0  0
  146.1095  134.8572  153.3046 C   0  0  0  0  0  0  0  0  0  0  0  0
  146.2252  133.6062  152.4153 C   0  0  0  0  0  0  0  0  0  0  0  0
  145.2171  133.6204  151.4161 O   0  0  0  0  0  0  0  0  0  0  0  0
  145.3448  134.7494  150.5656 C   0  0  0  0  0  0  0  0  0  0  0  0
  145.1657  136.0315  151.3936 C   0  0  0  0  0  0  0  0  0  0  0  0
  150.2196  142.0392  156.7055 C   0  0  0  0  0  0  0  0  0  0  0  0
  151.0369  142.7237  157.5322 N   0  0  0  0  0  0  0  0  0  0  0  0
  151.6304  144.7545  159.3338 H   0  0  0  0  0  0  0  0  0  0  0  0
  152.9924  144.4980  158.2287 H   0  0  0  0  0  0  0  0  0  0  0  0
  153.2781  144.7084  159.9530 H   0  0  0  0  0  0  0  0  0  0  0  0
  152.4642  141.7336  161.2030 H   0  0  0  0  0  0  0  0  0  0  0  0
  153.7932  142.8822  161.0637 H   0  0  0  0  0  0  0  0  0  0  0  0
  153.8312  141.3879  160.1321 H   0  0  0  0  0  0  0  0  0  0  0  0
  151.8766  140.1606  159.5994 H   0  0  0  0  0  0  0  0  0  0  0  0
  150.4036  138.9265  158.0883 H   0  0  0  0  0  0  0  0  0  0  0  0
  148.6514  140.6933  155.2327 H   0  0  0  0  0  0  0  0  0  0  0  0
  147.6715  139.3684  154.1757 H   0  0  0  0  0  0  0  0  0  0  0  0
  148.1331  136.6889  154.0544 H   0  0  0  0  0  0  0  0  0  0  0  0
  146.8721  136.7812  155.2452 H   0  0  0  0  0  0  0  0  0  0  0  0
  144.8622  138.5720  154.5555 H   0  0  0  0  0  0  0  0  0  0  0  0
  144.5213  136.8501  154.5491 H   0  0  0  0  0  0  0  0  0  0  0  0
  144.0550  137.8827  153.1928 H   0  0  0  0  0  0  0  0  0  0  0  0
  146.4633  139.5478  152.8570 H   0  0  0  0  0  0  0  0  0  0  0  0
  145.8525  138.6556  151.4808 H   0  0  0  0  0  0  0  0  0  0  0  0
  147.5526  138.5444  151.9276 H   0  0  0  0  0  0  0  0  0  0  0  0
  146.9238  134.8027  154.0247 H   0  0  0  0  0  0  0  0  0  0  0  0
  145.1749  134.8285  153.8658 H   0  0  0  0  0  0  0  0  0  0  0  0
  147.2116  133.5492  151.9517 H   0  0  0  0  0  0  0  0  0  0  0  0
  146.1078  132.7061  153.0189 H   0  0  0  0  0  0  0  0  0  0  0  0
  146.3116  134.7398  150.0596 H   0  0  0  0  0  0  0  0  0  0  0  0
  144.5796  134.6934  149.7910 H   0  0  0  0  0  0  0  0  0  0  0  0
  144.1585  136.0419  151.8113 H   0  0  0  0  0  0  0  0  0  0  0  0
  145.2391  136.8793  150.7167 H   0  0  0  0  0  0  0  0  0  0  0  0
  149.7809  142.6085  155.8990 H   0  0  0  0  0  0  0  0  0  0  0  0
  147.0761  136.0581  152.0273 H   0  0  0  0  0  0  0  0  0  0  0  0
  1  2  1  0  0  0  0
  1 24  1  0  0  0  0
  1 25  1  0  0  0  0
  1 26  1  0  0  0  0
  2  3  1  0  0  0  0
  2  4  1  0  0  0  0
  3 27  1  0  0  0  0
  3 28  1  0  0  0  0
  3 29  1  0  0  0  0
  4 23  1  0  0  0  0
  4  5  2  0  0  0  0
  5  6  1  0  0  0  0
  5 30  1  0  0  0  0
  6  7  2  0  0  0  0
  6 31  1  0  0  0  0
  7  8  1  0  0  0  0
  7 22  1  0  0  0  0
  8  9  1  0  0  0  0
  8 32  1  0  0  0  0
  9 10  2  0  0  0  0
  9 11  1  0  0  0  0
 11 12  1  0  0  0  0
 11 33  1  0  0  0  0
 12 13  1  0  0  0  0
 12 34  1  0  0  0  0
 12 35  1  0  0  0  0
 13 14  1  0  0  0  0
 13 15  1  0  0  0  0
 13 16  1  0  0  0  0
 14 36  1  0  0  0  0
 14 37  1  0  0  0  0
 14 38  1  0  0  0  0
 15 39  1  0  0  0  0
 15 40  1  0  0  0  0
 15 41  1  0  0  0  0
 16 21  1  0  0  0  0
 16 17  1  0  0  0  0
 16 51  1  0  0  0  0
 17 18  1  0  0  0  0
 17 42  1  0  0  0  0
 17 43  1  0  0  0  0
 18 19  1  0  0  0  0
 18 44  1  0  0  0  0
 18 45  1  0  0  0  0
 19 20  1  0  0  0  0
 20 21  1  0  0  0  0
 20 46  1  0  0  0  0
 20 47  1  0  0  0  0
 21 48  1  0  0  0  0
 21 49  1  0  0  0  0
 22 23  2  0  0  0  0
 22 50  1  0  0  0  0
M  CHG  1  16   1
M  END
> <s_m_source_file>
AV-unprocessed.smi

> <i_m_source_file_index>
1115

> <i_lp_mmshare_version>
43012

> <i_f3d_flags>
0

> <s_epik_input>
W0NIM11OKFtDSDNdKWMxW2NIXVtjSF1jKFtjSF1uMSlbTkhdQyg9TylbTkhdW0NIMl1DKFtDSDNdKShbQ0gzXSlOMltDSDJdW0NIMl1PW0NIMl1bQ0gyXTI=

> <s_epik_cmdline>
J2VwaWtfcHl0aG9uJywgJy1waCcsICc3LjAnLCAnLXRuJywgJzgnLCAnLW1hJywgJzIwMCcsICctbWV0YWxfYmluZGluZycsICctaW1hZScsICc8aW5maWxlLm1hZT4nLCAnLW9tYWUnLCAnPG91dGZpbGUubWFlPic=

> <r_epik_Ionization_Penalty>
1.14783

> <r_epik_Ionization_Penalty_Charging>
0.602531

> <r_epik_Ionization_Penalty_Neutral>
0.545303

> <r_epik_State_Penalty>
1.19446

> <r_epik_Charging_Adjusted_Penalty>
1.79699

> <i_epik_Tot_Q>
1

> <i_epik_Tot_abs_Q>
1

> <r_epik_Metal_State_Penalty>
0.937982

> <b_epik_Metal_Only>
0

> <s_lp_Force_Field>
OPLS_2005

> <r_lp_Energy>
30.1641

> <b_lp_Chiralities_Consistent>
1

> <s_lp_Variant>
AV-unprocessed.smi:1115-4

> <Gold.Version>
5.8.1

> <Gold.Id.Protein>
6NUR|6NUR_protein|mol2

> <Gold.PLP.Fitness>
41.8825

> <Gold.PLP.PLP>
-34.0819

> <Gold.PLP.part.hbond>
-1.0000

> <Gold.PLP.part.metal>
0.0000

> <Gold.PLP.part.buried>
-3.3583

> <Gold.PLP.part.nonpolar>
-30.2159

> <Gold.PLP.part.repulsive>
0.2406

> <Gold.PLP.ligand.clash>
0.0000

> <Gold.PLP.ligand.torsion>
0.6485

> <Gold.PLP.Chemscore.Hbond>
2.0000

> <Gold.PLP.Chemscore.CHOScore>
1.0000

> <Gold.PLP.Chemscore.Metal>
0.0000

> <Gold.Chemscore.Hbonds>
donor molecule, donor type, donor heavy atom, donor atom, acceptor molecule, acceptor atom, score
      L1  H    16    51       P1  7948  2.00
      L1  C    22    50       P1  8028  1.00

> <Gold.PLP.Chemscore.Internal.Correction>
0.0975

> <Gold.Rescore>
     Score         DG    S(hbond)    S(metal)    S(lipo)     H(rot)  DE(clash)    DE(int)     intcor
     12.48     -14.37       1.00        0.00      79.54       1.46       0.01       1.88       ----

> <Gold.Chemscore.Fitness>
12.4778

> <Gold.Chemscore.DG>
-14.3742

> <Gold.Chemscore.ZeroCoef>
-5.4800

> <Gold.Chemscore.Hbond>
0.9994

> <Gold.Chemscore.Metal>
0.0000

> <Gold.Chemscore.Lipo>
79.5403

> <Gold.Chemscore.Internal_Hbond>
0.0000

> <Gold.Chemscore.DEClash>
0.0126

> <Gold.Chemscore.DEInternal>
1.8838

> <Gold.Chemscore.Rot>
1.4648

> <Gold.Chemscore.Internal.Correction>
   9.000000E+99

> <Gold.Chemscore.Hbonds>
donor molecule, donor type, donor heavy atom, donor atom, acceptor molecule, acceptor atom, score
      L1  H    16    51       P1  7948  0.99

> <Gold.Chemscore.Hbond.Weighted>
-3.3379

> <Gold.Chemscore.Metal.Weighted>
-0.0000

> <Gold.Chemscore.Lipo.Weighted>
-9.3062

> <Gold.Chemscore.Internal_Hbond.Weighted>
0.0000

> <Gold.Chemscore.DEClash.Weighted>
0.0126

> <Gold.Chemscore.DEInternal.Weighted>
1.8838

> <Gold.Chemscore.Rot.Weighted>
3.7499

> <Gold.Chemscore.Internal.Correction.Weighted>
   9.000000E+99

> <Gold.Protein.RotatedTorsions>
[ 6907 6896 6895 6894 ] final -145.54 input  -60.11 | X-H torsion
[ 7974 7965 7964 7962 ] final   58.41 input  175.53 | X-H torsion
[ 8008 7997 7996 7995 ] final -170.84 input   59.86 | X-H torsion
[ 10167 10162 10161 10158 ] final  -38.46 input  -65.29 | X-H torsion
[ 10718 10713 10712 10709 ] final  109.11 input   66.30 | X-H torsion
[ 10763 10752 10751 10750 ] final  -61.89 input  -60.55 | X-H torsion
[ 11005 11000 10999 10996 ] final   40.54 input  -57.11 | X-H torsion

> <Gold.Protein.ActiveResidues>
 VAL166  LYS551  ARG553  GLY616  TRP617  ASP618  TYR619  PRO620  LYS621  CYS622 
 ASP623  PHE694  ASN695  SER759  ASP760  ASP761  ALA762  ILE779  LEU786  VAL792 
 PHE793  MET794  SER795  GLU796  ALA797  LYS798  CYS799  TRP800  GLU811  SER814 

> <Gold.Protein.RotatedAtoms>
  151.1292  133.5049  159.2599 H   0  0  0  0  0  0  0  0  0  0  0  0  # atno 6907 bound_to 6896
  151.1776  135.0346  159.8788 H   0  0  0  0  0  0  0  0  0  0  0  0  # atno 6908 bound_to 6896
  152.5459  134.1148  159.8427 H   0  0  0  0  0  0  0  0  0  0  0  0  # atno 6909 bound_to 6896
  145.9185  139.3710  143.0493 H   0  0  0  0  0  0  0  0  0  0  0  0  # atno 7974 bound_to 7965
  155.9236  140.1078  157.1187 H   0  0  0  0  0  0  0  0  0  0  0  0  # atno 8008 bound_to 7997
  154.4058  140.1251  156.4777 H   0  0  0  0  0  0  0  0  0  0  0  0  # atno 8009 bound_to 7997
  155.7166  140.3470  155.4999 H   0  0  0  0  0  0  0  0  0  0  0  0  # atno 8010 bound_to 7997
  140.7091  143.3276  151.2644 H   0  0  0  0  0  0  0  0  0  0  0  0  # atno 10167 bound_to 10162
  157.6556  131.0907  150.6406 H   0  0  0  0  0  0  0  0  0  0  0  0  # atno 10718 bound_to 10713
  154.2915  135.6252  153.5387 H   0  0  0  0  0  0  0  0  0  0  0  0  # atno 10763 bound_to 10752
  152.9852  135.5657  154.5385 H   0  0  0  0  0  0  0  0  0  0  0  0  # atno 10764 bound_to 10752
  154.4996  135.2871  155.1407 H   0  0  0  0  0  0  0  0  0  0  0  0  # atno 10765 bound_to 10752
  140.1920  134.3974  155.8141 H   0  0  0  0  0  0  0  0  0  0  0  0  # atno 11005 bound_to 11000
  145.8581  140.9491  143.0714 LP  0  0  0  0  0  0  0  0  0  0  0  0  # atno 17320 bound_to 7965
  144.6750  140.0494  143.7479 LP  0  0  0  0  0  0  0  0  0  0  0  0  # atno 17321 bound_to 7965
  139.6748  143.9956  152.2775 LP  0  0  0  0  0  0  0  0  0  0  0  0  # atno 17342 bound_to 10162
  139.9567  144.6585  150.8119 LP  0  0  0  0  0  0  0  0  0  0  0  0  # atno 17343 bound_to 10162
  156.6713  130.4540  149.5656 LP  0  0  0  0  0  0  0  0  0  0  0  0  # atno 17370 bound_to 10713
  156.1996  130.6611  151.1152 LP  0  0  0  0  0  0  0  0  0  0  0  0  # atno 17371 bound_to 10713
  141.2226  133.7051  156.8112 LP  0  0  0  0  0  0  0  0  0  0  0  0  # atno 17394 bound_to 11000
  140.2148  134.8800  157.3314 LP  0  0  0  0  0  0  0  0  0  0  0  0  # atno 17395 bound_to 11000

$$$$
