AV-unprocessed.smi:1575|AV-procd|sdf|6342|dock5
  -GOLD-   22720 6563D 1   1.00000     0.00000
 Structure written by MMmdl.
 40 40  0  0  0  0  0  0  0  0  2 V2000
  144.5259  134.6731  154.7345 C   0  0  0  0  0  0  0  0  0  0  0  0
  144.7267  133.4890  153.9138 N   0  0  0  0  0  0  0  0  0  0  0  0
  145.7478  133.3279  153.0601 C   0  0  0  0  0  0  0  0  0  0  0  0
  146.6123  134.1866  152.8773 O   0  0  0  0  0  0  0  0  0  0  0  0
  145.7815  132.0028  152.2800 C   0  0  1  0  0  0  0  0  0  0  0  0
  145.6468  132.3354  150.7748 C   0  0  0  0  0  0  0  0  0  0  0  0
  144.3495  133.0768  150.3771 C   0  0  0  0  0  0  0  0  0  0  0  0
  143.9355  132.7076  148.9445 C   0  0  0  0  0  0  0  0  0  0  0  0
  144.4752  134.6027  150.5211 C   0  0  0  0  0  0  0  0  0  0  0  0
  147.0626  131.3330  152.5025 N   0  0  0  0  0  0  0  0  0  0  0  0
  147.4421  130.7472  153.6485 C   0  0  0  0  0  0  0  0  0  0  0  0
  146.7176  130.6771  154.6423 O   0  0  0  0  0  0  0  0  0  0  0  0
  148.8448  130.1252  153.6548 C   0  0  0  0  0  0  0  0  0  0  0  0
  149.6878  130.6220  154.7541 N   0  0  0  0  0  0  0  0  0  0  0  0
  149.7831  132.0137  154.9296 C   0  0  0  0  0  0  0  0  0  0  0  0
  150.5330  132.5568  155.9072 C   0  0  0  0  0  0  0  0  0  0  0  0
  151.2591  131.6610  156.7988 C   0  0  0  0  0  0  0  0  0  0  0  0
  151.9445  132.1391  157.7007 O   0  0  0  0  0  0  0  0  0  0  0  0
  151.1390  130.3182  156.5846 N   0  5  0  0  0  0  0  0  0  0  0  0
  150.3739  129.7798  155.5847 C   0  0  0  0  0  0  0  0  0  0  0  0
  150.2807  128.5646  155.4082 O   0  0  0  0  0  0  0  0  0  0  0  0
  143.6311  134.5551  155.3451 H   0  0  0  0  0  0  0  0  0  0  0  0
  144.4005  135.5601  154.1127 H   0  0  0  0  0  0  0  0  0  0  0  0
  145.3749  134.8316  155.4005 H   0  0  0  0  0  0  0  0  0  0  0  0
  144.0550  132.7410  154.0067 H   0  0  0  0  0  0  0  0  0  0  0  0
  144.9560  131.3676  152.6048 H   0  0  0  0  0  0  0  0  0  0  0  0
  146.5009  132.9366  150.4582 H   0  0  0  0  0  0  0  0  0  0  0  0
  145.7087  131.4101  150.1984 H   0  0  0  0  0  0  0  0  0  0  0  0
  143.5434  132.7466  151.0329 H   0  0  0  0  0  0  0  0  0  0  0  0
  144.6932  133.0133  148.2222 H   0  0  0  0  0  0  0  0  0  0  0  0
  142.9978  133.1909  148.6682 H   0  0  0  0  0  0  0  0  0  0  0  0
  143.7909  131.6318  148.8405 H   0  0  0  0  0  0  0  0  0  0  0  0
  145.2991  134.9915  149.9223 H   0  0  0  0  0  0  0  0  0  0  0  0
  144.6446  134.8965  151.5566 H   0  0  0  0  0  0  0  0  0  0  0  0
  143.5630  135.1028  150.1940 H   0  0  0  0  0  0  0  0  0  0  0  0
  147.7226  131.3485  151.7387 H   0  0  0  0  0  0  0  0  0  0  0  0
  148.7340  129.0419  153.7164 H   0  0  0  0  0  0  0  0  0  0  0  0
  149.3358  130.3091  152.6973 H   0  0  0  0  0  0  0  0  0  0  0  0
  149.2198  132.6064  154.2238 H   0  0  0  0  0  0  0  0  0  0  0  0
  150.5983  133.6281  156.0267 H   0  0  0  0  0  0  0  0  0  0  0  0
  1  2  1  0  0  0  0
  1 22  1  0  0  0  0
  1 23  1  0  0  0  0
  1 24  1  0  0  0  0
  2  3  1  0  0  0  0
  2 25  1  0  0  0  0
  3  4  2  0  0  0  0
  3  5  1  0  0  0  0
  5  6  1  0  0  0  0
  5 10  1  0  0  0  0
  5 26  1  0  0  0  0
  6  7  1  0  0  0  0
  6 27  1  0  0  0  0
  6 28  1  0  0  0  0
  7  8  1  0  0  0  0
  7  9  1  0  0  0  0
  7 29  1  0  0  0  0
  8 30  1  0  0  0  0
  8 31  1  0  0  0  0
  8 32  1  0  0  0  0
  9 33  1  0  0  0  0
  9 34  1  0  0  0  0
  9 35  1  0  0  0  0
 10 11  1  0  0  0  0
 10 36  1  0  0  0  0
 11 12  2  0  0  0  0
 11 13  1  0  0  0  0
 13 14  1  0  0  0  0
 13 37  1  0  0  0  0
 13 38  1  0  0  0  0
 14 20  1  0  0  0  0
 14 15  1  0  0  0  0
 15 16  2  0  0  0  0
 15 39  1  0  0  0  0
 16 17  1  0  0  0  0
 16 40  1  0  0  0  0
 17 18  2  0  0  0  0
 17 19  1  0  0  0  0
 19 20  1  0  0  0  0
 20 21  2  0  0  0  0
M  CHG  1  19  -1
M  END
> <s_m_source_file>
AV-unprocessed.smi

> <i_m_source_file_index>
1575

> <i_lp_mmshare_version>
43012

> <i_f3d_flags>
0

> <s_epik_input>
W0NIM11bTkhdQyg9TylbQ0BIXShbQ0gyXVtDSF0oW0NIM10pW0NIM10pW05IXUMoPU8pW0NIMl1uMVtjSF1bY0hdYyg9TylbbkhdYzE9Tw==

> <s_epik_cmdline>
J2VwaWtfcHl0aG9uJywgJy1waCcsICc3LjAnLCAnLXRuJywgJzgnLCAnLW1hJywgJzIwMCcsICctbWV0YWxfYmluZGluZycsICctaW1hZScsICc8aW5maWxlLm1hZT4nLCAnLW9tYWUnLCAnPG91dGZpbGUubWFlPic=

> <r_lp_tautomer_probability>
0.999537

> <r_epik_Ionization_Penalty>
3.03017

> <r_epik_Ionization_Penalty_Charging>
2.35557e-08

> <r_epik_Ionization_Penalty_Neutral>
3.03017

> <r_epik_State_Penalty>
3.02913

> <r_epik_Charging_Adjusted_Penalty>
3.02913

> <i_epik_Tot_Q>
-1

> <i_epik_Tot_abs_Q>
1

> <r_epik_Metal_State_Penalty>
0.455824

> <b_epik_Metal_Only>
1

> <s_lp_Force_Field>
OPLS_2005

> <r_lp_Energy>
14.624

> <b_lp_Chiralities_Consistent>
1

> <s_lp_Variant>
AV-unprocessed.smi:1575-4

> <Gold.Version>
5.8.1

> <Gold.Id.Protein>
6NUR|6NUR_protein|mol2

> <Gold.PLP.Fitness>
41.0046

> <Gold.PLP.PLP>
-33.0702

> <Gold.PLP.part.hbond>
-3.0000

> <Gold.PLP.part.metal>
0.0000

> <Gold.PLP.part.buried>
-5.8796

> <Gold.PLP.part.nonpolar>
-24.6209

> <Gold.PLP.part.repulsive>
0.4682

> <Gold.PLP.ligand.clash>
0.0000

> <Gold.PLP.ligand.torsion>
0.5803

> <Gold.PLP.Chemscore.Hbond>
2.9920

> <Gold.PLP.Chemscore.CHOScore>
0.0000

> <Gold.PLP.Chemscore.Metal>
0.0000

> <Gold.Chemscore.Hbonds>
donor molecule, donor type, donor heavy atom, donor atom, acceptor molecule, acceptor atom, score
      L1  H     2    25       P1 10957  1.00
      L1  H    10    36       P1 10747  1.00
      P1  H  6896  6908       L1    18  1.00

> <Gold.PLP.Chemscore.Internal.Correction>
0.1190

> <Gold.Rescore>
     Score         DG    S(hbond)    S(metal)    S(lipo)     H(rot)  DE(clash)    DE(int)     intcor
     14.61     -15.19       2.89        0.00      60.55       2.74       0.01       0.56       ----

> <Gold.Chemscore.Fitness>
14.6086

> <Gold.Chemscore.DG>
-15.1878

> <Gold.Chemscore.ZeroCoef>
-5.4800

> <Gold.Chemscore.Hbond>
2.8881

> <Gold.Chemscore.Metal>
0.0000

> <Gold.Chemscore.Lipo>
60.5541

> <Gold.Chemscore.Internal_Hbond>
0.0000

> <Gold.Chemscore.DEClash>
0.0147

> <Gold.Chemscore.DEInternal>
0.5644

> <Gold.Chemscore.Rot>
2.7435

> <Gold.Chemscore.Internal.Correction>
   9.000000E+99

> <Gold.Chemscore.Hbonds>
donor molecule, donor type, donor heavy atom, donor atom, acceptor molecule, acceptor atom, score
      L1  H     2    25       P1 10957  0.87
      L1  H    10    36       P1 10747  0.97
      P1  H  6896  6908       L1    18  0.96

> <Gold.Chemscore.Hbond.Weighted>
-9.6462

> <Gold.Chemscore.Metal.Weighted>
-0.0000

> <Gold.Chemscore.Lipo.Weighted>
-7.0848

> <Gold.Chemscore.Internal_Hbond.Weighted>
0.0000

> <Gold.Chemscore.DEClash.Weighted>
0.0147

> <Gold.Chemscore.DEInternal.Weighted>
0.5644

> <Gold.Chemscore.Rot.Weighted>
7.0233

> <Gold.Chemscore.Internal.Correction.Weighted>
   9.000000E+99

> <Gold.Protein.RotatedTorsions>
[ 6907 6896 6895 6894 ] final   46.78 input  -60.11 | X-H torsion
[ 7974 7965 7964 7962 ] final  -78.90 input  175.53 | X-H torsion
[ 8008 7997 7996 7995 ] final  108.42 input   59.86 | X-H torsion
[ 10167 10162 10161 10158 ] final -121.25 input  -65.29 | X-H torsion
[ 10718 10713 10712 10709 ] final  -31.61 input   66.30 | X-H torsion
[ 10763 10752 10751 10750 ] final  -20.44 input  -60.55 | X-H torsion
[ 11005 11000 10999 10996 ] final  118.01 input  -57.11 | X-H torsion

> <Gold.Protein.ActiveResidues>
 VAL166  LYS551  ARG553  GLY616  TRP617  ASP618  TYR619  PRO620  LYS621  CYS622 
 ASP623  PHE694  ASN695  SER759  ASP760  ASP761  ALA762  ILE779  LEU786  VAL792 
 PHE793  MET794  SER795  GLU796  ALA797  LYS798  CYS799  TRP800  GLU811  SER814 

> <Gold.Protein.RotatedAtoms>
  152.2604  134.8040  160.0431 H   0  0  0  0  0  0  0  0  0  0  0  0  # atno 6907 bound_to 6896
  151.8688  133.3466  159.3736 H   0  0  0  0  0  0  0  0  0  0  0  0  # atno 6908 bound_to 6896
  150.7115  134.5060  159.5629 H   0  0  0  0  0  0  0  0  0  0  0  0  # atno 6909 bound_to 6896
  145.5804  140.9449  143.1347 H   0  0  0  0  0  0  0  0  0  0  0  0  # atno 7974 bound_to 7965
  156.1901  140.3077  155.9316 H   0  0  0  0  0  0  0  0  0  0  0  0  # atno 8008 bound_to 7997
  155.3192  140.0455  157.3055 H   0  0  0  0  0  0  0  0  0  0  0  0  # atno 8009 bound_to 7997
  154.5442  140.2271  155.8600 H   0  0  0  0  0  0  0  0  0  0  0  0  # atno 8010 bound_to 7997
  140.0270  143.5286  152.2194 H   0  0  0  0  0  0  0  0  0  0  0  0  # atno 10167 bound_to 10162
  156.3851  130.4363  149.7438 H   0  0  0  0  0  0  0  0  0  0  0  0  # atno 10718 bound_to 10713
  153.6205  135.6993  153.5312 H   0  0  0  0  0  0  0  0  0  0  0  0  # atno 10763 bound_to 10752
  153.2941  135.4148  155.1193 H   0  0  0  0  0  0  0  0  0  0  0  0  # atno 10764 bound_to 10752
  154.8544  135.3632  154.5746 H   0  0  0  0  0  0  0  0  0  0  0  0  # atno 10765 bound_to 10752
  139.9094  134.9616  156.7437 H   0  0  0  0  0  0  0  0  0  0  0  0  # atno 11005 bound_to 11000
  144.7396  139.7485  143.7316 LP  0  0  0  0  0  0  0  0  0  0  0  0  # atno 17320 bound_to 7965
  146.1720  139.4875  142.9921 LP  0  0  0  0  0  0  0  0  0  0  0  0  # atno 17321 bound_to 7965
  139.6101  144.7606  151.2971 LP  0  0  0  0  0  0  0  0  0  0  0  0  # atno 17342 bound_to 10162
  140.7318  143.6841  150.7976 LP  0  0  0  0  0  0  0  0  0  0  0  0  # atno 17343 bound_to 10162
  156.4513  130.7908  151.2929 LP  0  0  0  0  0  0  0  0  0  0  0  0  # atno 17370 bound_to 10713
  157.7495  131.0094  150.3267 LP  0  0  0  0  0  0  0  0  0  0  0  0  # atno 17371 bound_to 10713
  140.6829  133.9459  155.7921 LP  0  0  0  0  0  0  0  0  0  0  0  0  # atno 17394 bound_to 11000
  141.0497  134.0502  157.3799 LP  0  0  0  0  0  0  0  0  0  0  0  0  # atno 17395 bound_to 11000

$$$$
