AV-unprocessed.smi:2824|AV-procd|sdf|10886|dock7
  -GOLD-   2272015323D 1   1.00000     0.00000
 Structure written by MMmdl.
 38 39  0  0  0  0  0  0  0  0  1 V2000
  150.9556  143.8234  159.7056 C   0  0  0  0  0  0  0  0  0  0  0  0
  151.9760  142.8520  160.2688 C   0  0  0  0  0  0  0  0  0  0  0  0
  152.3730  142.9632  161.6180 C   0  0  0  0  0  0  0  0  0  0  0  0
  153.3170  142.0696  162.1554 C   0  0  0  0  0  0  0  0  0  0  0  0
  153.8677  141.0623  161.3436 C   0  0  0  0  0  0  0  0  0  0  0  0
  153.4746  140.9466  159.9967 C   0  0  0  0  0  0  0  0  0  0  0  0
  152.5221  141.8408  159.4437 C   0  0  0  0  0  0  0  0  0  0  0  0
  152.0902  141.7864  158.1342 O   0  0  0  0  0  0  0  0  0  0  0  0
  152.3331  140.6013  157.3878 C   0  0  0  0  0  0  0  0  0  0  0  0
  151.1441  140.3547  156.4442 C   0  0  2  0  0  0  0  0  0  0  0  0
  151.6703  140.1695  155.1442 O   0  0  0  0  0  0  0  0  0  0  0  0
  150.1887  141.5684  156.4009 C   0  0  0  0  0  0  0  0  0  0  0  0
  148.9049  141.2426  155.7682 N   0  0  0  0  0  0  0  0  0  0  0  0
  147.8329  141.2345  156.6435 N   0  0  0  0  0  0  0  0  0  0  0  0
  146.6333  140.9708  156.2360 C   0  0  0  0  0  0  0  0  0  0  0  0
  145.5299  140.9892  157.2651 C   0  0  0  0  0  0  0  0  0  0  0  0
  144.9443  139.7952  157.3629 F   0  0  0  0  0  0  0  0  0  0  0  0
  146.0229  141.3177  158.4597 F   0  0  0  0  0  0  0  0  0  0  0  0
  144.6046  141.8883  156.9285 F   0  0  0  0  0  0  0  0  0  0  0  0
  146.4150  140.6739  154.8299 C   0  0  0  0  0  0  0  0  0  0  0  0
  147.4629  140.6802  153.9784 C   0  0  0  0  0  0  0  0  0  0  0  0
  148.8190  140.9795  154.4314 C   0  0  0  0  0  0  0  0  0  0  0  0
  149.7938  140.9959  153.6802 O   0  0  0  0  0  0  0  0  0  0  0  0
  150.6205  144.5348  160.4610 H   0  0  0  0  0  0  0  0  0  0  0  0
  150.0825  143.2838  159.3380 H   0  0  0  0  0  0  0  0  0  0  0  0
  151.3862  144.3864  158.8770 H   0  0  0  0  0  0  0  0  0  0  0  0
  151.9541  143.7349  162.2472 H   0  0  0  0  0  0  0  0  0  0  0  0
  153.6187  142.1572  163.1886 H   0  0  0  0  0  0  0  0  0  0  0  0
  154.5938  140.3763  161.7543 H   0  0  0  0  0  0  0  0  0  0  0  0
  153.9221  140.1610  159.4074 H   0  0  0  0  0  0  0  0  0  0  0  0
  153.2381  140.7522  156.7970 H   0  0  0  0  0  0  0  0  0  0  0  0
  152.4977  139.7405  158.0386 H   0  0  0  0  0  0  0  0  0  0  0  0
  150.6098  139.4580  156.7608 H   0  0  0  0  0  0  0  0  0  0  0  0
  151.3068  139.3759  154.7824 H   0  0  0  0  0  0  0  0  0  0  0  0
  149.9910  141.9219  157.4147 H   0  0  0  0  0  0  0  0  0  0  0  0
  150.6672  142.4129  155.9006 H   0  0  0  0  0  0  0  0  0  0  0  0
  145.4209  140.4507  154.4720 H   0  0  0  0  0  0  0  0  0  0  0  0
  147.2959  140.4595  152.9343 H   0  0  0  0  0  0  0  0  0  0  0  0
  1  2  1  0  0  0  0
  1 24  1  0  0  0  0
  1 25  1  0  0  0  0
  1 26  1  0  0  0  0
  2  7  1  0  0  0  0
  2  3  2  0  0  0  0
  3  4  1  0  0  0  0
  3 27  1  0  0  0  0
  4  5  2  0  0  0  0
  4 28  1  0  0  0  0
  5  6  1  0  0  0  0
  5 29  1  0  0  0  0
  6  7  2  0  0  0  0
  6 30  1  0  0  0  0
  7  8  1  0  0  0  0
  8  9  1  0  0  0  0
  9 10  1  0  0  0  0
  9 31  1  0  0  0  0
  9 32  1  0  0  0  0
 10 11  1  0  0  0  0
 10 12  1  0  0  0  0
 10 33  1  0  0  0  0
 11 34  1  0  0  0  0
 12 13  1  0  0  0  0
 12 35  1  0  0  0  0
 12 36  1  0  0  0  0
 13 22  1  0  0  0  0
 13 14  1  0  0  0  0
 14 15  2  0  0  0  0
 15 16  1  0  0  0  0
 15 20  1  0  0  0  0
 16 17  1  0  0  0  0
 16 18  1  0  0  0  0
 16 19  1  0  0  0  0
 20 21  2  0  0  0  0
 20 37  1  0  0  0  0
 21 22  1  0  0  0  0
 21 38  1  0  0  0  0
 22 23  2  0  0  0  0
M  END
> <s_m_source_file>
AV-unprocessed.smi

> <i_m_source_file_index>
2824

> <i_lp_mmshare_version>
43012

> <i_f3d_flags>
0

> <s_epik_input>
W0NIM11jMVtjSF1bY0hdW2NIXVtjSF1jMU9bQ0gyXVtDQEhdKFtPSF0pW0NIMl1uMm5jKEMoRikoRilGKVtjSF1bY0hdYzI9Tw==

> <s_epik_cmdline>
J2VwaWtfcHl0aG9uJywgJy1waCcsICc3LjAnLCAnLXRuJywgJzgnLCAnLW1hJywgJzIwMCcsICctbWV0YWxfYmluZGluZycsICctaW1hZScsICc8aW5maWxlLm1hZT4nLCAnLW9tYWUnLCAnPG91dGZpbGUubWFlPic=

> <r_lp_tautomer_probability>
1

> <r_epik_Ionization_Penalty>
1.2156e-07

> <r_epik_Ionization_Penalty_Charging>
4.38548e-09

> <r_epik_Ionization_Penalty_Neutral>
1.17174e-07

> <r_epik_State_Penalty>
-0

> <r_epik_Charging_Adjusted_Penalty>
4.38548e-09

> <i_epik_Tot_Q>
0

> <i_epik_Tot_abs_Q>
0

> <r_epik_Metal_State_Penalty>
-0

> <b_epik_Metal_Only>
0

> <s_lp_Force_Field>
OPLS_2005

> <r_lp_Energy>
34.0835

> <b_lp_Chiralities_Consistent>
1

> <s_lp_Variant>
AV-unprocessed.smi:2824-1

> <Gold.Version>
5.8.1

> <Gold.Id.Protein>
6NUR|6NUR_protein|mol2

> <Gold.PLP.Fitness>
46.6910

> <Gold.PLP.PLP>
-43.4086

> <Gold.PLP.part.hbond>
-2.6714

> <Gold.PLP.part.metal>
0.0000

> <Gold.PLP.part.buried>
-3.4136

> <Gold.PLP.part.nonpolar>
-39.4540

> <Gold.PLP.part.repulsive>
4.0315

> <Gold.PLP.ligand.clash>
0.0000

> <Gold.PLP.ligand.torsion>
1.3502

> <Gold.PLP.Chemscore.Hbond>
1.9760

> <Gold.PLP.Chemscore.CHOScore>
0.0000

> <Gold.PLP.Chemscore.Metal>
0.0000

> <Gold.Chemscore.Hbonds>
donor molecule, donor type, donor heavy atom, donor atom, acceptor molecule, acceptor atom, score
      P1  H  7989  7998       L1    11  0.42
      P1  H  8011  8017       L1    23  0.96

> <Gold.PLP.Chemscore.Internal.Correction>
0.0548

> <Gold.Rescore>
     Score         DG    S(hbond)    S(metal)    S(lipo)     H(rot)  DE(clash)    DE(int)     intcor
     10.65     -16.66       1.58        0.00     107.29       2.60       2.12       3.88       ----

> <Gold.Chemscore.Fitness>
10.6507

> <Gold.Chemscore.DG>
-16.6589

> <Gold.Chemscore.ZeroCoef>
-5.4800

> <Gold.Chemscore.Hbond>
1.5796

> <Gold.Chemscore.Metal>
0.0000

> <Gold.Chemscore.Lipo>
107.2930

> <Gold.Chemscore.Internal_Hbond>
0.0000

> <Gold.Chemscore.DEClash>
2.1248

> <Gold.Chemscore.DEInternal>
3.8834

> <Gold.Chemscore.Rot>
2.5978

> <Gold.Chemscore.Internal.Correction>
   9.000000E+99

> <Gold.Chemscore.Hbonds>
donor molecule, donor type, donor heavy atom, donor atom, acceptor molecule, acceptor atom, score
      P1  H  7989  7998       L1    23  0.34
      P1  H  8011  8017       L1    23  0.85

> <Gold.Chemscore.Hbond.Weighted>
-5.2760

> <Gold.Chemscore.Metal.Weighted>
-0.0000

> <Gold.Chemscore.Lipo.Weighted>
-12.5533

> <Gold.Chemscore.Internal_Hbond.Weighted>
0.0000

> <Gold.Chemscore.DEClash.Weighted>
2.1248

> <Gold.Chemscore.DEInternal.Weighted>
3.8834

> <Gold.Chemscore.Rot.Weighted>
6.6504

> <Gold.Chemscore.Internal.Correction.Weighted>
   9.000000E+99

> <Gold.Protein.RotatedTorsions>
[ 6907 6896 6895 6894 ] final   48.86 input  -60.11 | X-H torsion
[ 7974 7965 7964 7962 ] final  -25.53 input  175.53 | X-H torsion
[ 8008 7997 7996 7995 ] final  178.00 input   59.86 | X-H torsion
[ 10167 10162 10161 10158 ] final -140.90 input  -65.29 | X-H torsion
[ 10718 10713 10712 10709 ] final -103.56 input   66.30 | X-H torsion
[ 10763 10752 10751 10750 ] final   -0.32 input  -60.55 | X-H torsion
[ 11005 11000 10999 10996 ] final   18.37 input  -57.11 | X-H torsion

> <Gold.Protein.ActiveResidues>
 VAL166  LYS551  ARG553  GLY616  TRP617  ASP618  TYR619  PRO620  LYS621  CYS622 
 ASP623  PHE694  ASN695  SER759  ASP760  ASP761  ALA762  ILE779  LEU786  VAL792 
 PHE793  MET794  SER795  GLU796  ALA797  LYS798  CYS799  TRP800  GLU811  SER814 

> <Gold.Protein.RotatedAtoms>
  152.2842  134.7794  160.0390 H   0  0  0  0  0  0  0  0  0  0  0  0  # atno 6907 bound_to 6896
  151.8363  133.3411  159.3637 H   0  0  0  0  0  0  0  0  0  0  0  0  # atno 6908 bound_to 6896
  150.7202  134.5363  159.5769 H   0  0  0  0  0  0  0  0  0  0  0  0  # atno 6909 bound_to 6896
  146.1485  140.4899  142.8621 H   0  0  0  0  0  0  0  0  0  0  0  0  # atno 7974 bound_to 7965
  156.0595  140.1344  156.9958 H   0  0  0  0  0  0  0  0  0  0  0  0  # atno 8008 bound_to 7997
  154.4474  140.0994  156.6566 H   0  0  0  0  0  0  0  0  0  0  0  0  # atno 8009 bound_to 7997
  155.5399  140.3460  155.4447 H   0  0  0  0  0  0  0  0  0  0  0  0  # atno 8010 bound_to 7997
  139.8237  143.7540  152.2666 H   0  0  0  0  0  0  0  0  0  0  0  0  # atno 10167 bound_to 10162
  156.0270  130.5473  150.7270 H   0  0  0  0  0  0  0  0  0  0  0  0  # atno 10718 bound_to 10713
  153.3304  135.6974  153.6953 H   0  0  0  0  0  0  0  0  0  0  0  0  # atno 10763 bound_to 10752
  153.5758  135.3507  155.2856 H   0  0  0  0  0  0  0  0  0  0  0  0  # atno 10764 bound_to 10752
  154.8617  135.4283  154.2491 H   0  0  0  0  0  0  0  0  0  0  0  0  # atno 10765 bound_to 10752
  140.4256  134.1473  155.7676 H   0  0  0  0  0  0  0  0  0  0  0  0  # atno 11005 bound_to 11000
  144.7875  140.5965  143.6564 LP  0  0  0  0  0  0  0  0  0  0  0  0  # atno 17320 bound_to 7965
  145.4880  139.1490  143.3725 LP  0  0  0  0  0  0  0  0  0  0  0  0  # atno 17321 bound_to 7965
  139.7726  144.7471  151.0203 LP  0  0  0  0  0  0  0  0  0  0  0  0  # atno 17342 bound_to 10162
  140.7811  143.4628  151.0253 LP  0  0  0  0  0  0  0  0  0  0  0  0  # atno 17343 bound_to 10162
  157.4872  131.0907  151.0469 LP  0  0  0  0  0  0  0  0  0  0  0  0  # atno 17370 bound_to 10713
  157.0886  130.5932  149.5435 LP  0  0  0  0  0  0  0  0  0  0  0  0  # atno 17371 bound_to 10713
  141.1766  133.8500  157.1399 LP  0  0  0  0  0  0  0  0  0  0  0  0  # atno 17394 bound_to 11000
  140.0170  134.9963  157.0513 LP  0  0  0  0  0  0  0  0  0  0  0  0  # atno 17395 bound_to 11000

$$$$
