AV-unprocessed.smi:2709|AV-procd|sdf|10461|dock4
  -GOLD-   2272014503D 1   1.00000     0.00000
 Structure written by MMmdl.
 40 42  0  0  0  0  0  0  0  0  1 V2000
  144.8065  135.2097  151.1532 C   0  0  0  0  0  0  0  0  0  0  0  0
  145.8914  135.1277  152.0650 O   0  0  0  0  0  0  0  0  0  0  0  0
  145.7685  134.0657  153.0074 C   0  0  1  0  0  0  0  0  0  0  0  0
  145.6150  132.7702  152.2033 C   0  0  0  0  0  0  0  0  0  0  0  0
  147.0404  132.2719  151.9939 C   0  0  0  0  0  0  0  0  0  0  0  0
  147.7371  132.5947  153.3140 C   0  0  0  0  0  0  0  0  0  0  0  0
  147.0564  133.8684  153.8502 C   0  0  1  0  0  0  0  0  0  0  0  0
  147.9725  135.0050  153.7570 N   0  0  0  0  0  0  0  0  0  0  0  0
  148.3023  135.8337  154.7569 C   0  0  0  0  0  0  0  0  0  0  0  0
  147.8728  135.7230  155.9042 O   0  0  0  0  0  0  0  0  0  0  0  0
  149.1569  136.7793  154.3312 N   0  0  0  0  0  0  0  0  0  0  0  0
  149.7414  137.8520  155.0578 C   0  0  0  0  0  0  0  0  0  0  0  0
  149.8805  137.9168  156.4668 C   0  0  0  0  0  0  0  0  0  0  0  0
  150.4422  138.9835  157.0760 N   0  0  0  0  0  0  0  0  0  0  0  0
  150.8498  139.9852  156.2922 C   0  0  0  0  0  0  0  0  0  0  0  0
  151.5044  141.1486  156.9704 C   0  0  0  0  0  0  0  0  0  0  0  0
  150.8720  141.8006  158.1833 C   0  0  0  0  0  0  0  0  0  0  0  0
  150.9036  142.5359  156.8726 C   0  0  0  0  0  0  0  0  0  0  0  0
  150.7780  140.0323  154.9595 N   0  0  0  0  0  0  0  0  0  0  0  0
  150.2190  138.9699  154.3422 C   0  0  0  0  0  0  0  0  0  0  0  0
  144.9434  136.0703  150.4988 H   0  0  0  0  0  0  0  0  0  0  0  0
  143.8533  135.3271  151.6692 H   0  0  0  0  0  0  0  0  0  0  0  0
  144.7545  134.3179  150.5274 H   0  0  0  0  0  0  0  0  0  0  0  0
  144.8908  134.2084  153.6410 H   0  0  0  0  0  0  0  0  0  0  0  0
  145.0626  132.0385  152.7946 H   0  0  0  0  0  0  0  0  0  0  0  0
  145.0734  132.9107  151.2672 H   0  0  0  0  0  0  0  0  0  0  0  0
  147.0846  131.2117  151.7430 H   0  0  0  0  0  0  0  0  0  0  0  0
  147.5097  132.8289  151.1818 H   0  0  0  0  0  0  0  0  0  0  0  0
  147.5716  131.7759  154.0157 H   0  0  0  0  0  0  0  0  0  0  0  0
  148.8165  132.6958  153.1921 H   0  0  0  0  0  0  0  0  0  0  0  0
  146.7713  133.6877  154.8880 H   0  0  0  0  0  0  0  0  0  0  0  0
  148.3720  135.1818  152.8469 H   0  0  0  0  0  0  0  0  0  0  0  0
  149.4420  136.7104  153.3651 H   0  0  0  0  0  0  0  0  0  0  0  0
  149.5441  137.1361  157.1297 H   0  0  0  0  0  0  0  0  0  0  0  0
  152.5891  141.0612  156.9475 H   0  0  0  0  0  0  0  0  0  0  0  0
  149.9098  141.4205  158.5214 H   0  0  0  0  0  0  0  0  0  0  0  0
  151.5394  142.1454  158.9705 H   0  0  0  0  0  0  0  0  0  0  0  0
  151.5901  143.3753  156.7835 H   0  0  0  0  0  0  0  0  0  0  0  0
  149.9616  142.6455  156.3389 H   0  0  0  0  0  0  0  0  0  0  0  0
  150.1558  139.0135  153.2647 H   0  0  0  0  0  0  0  0  0  0  0  0
  1  2  1  0  0  0  0
  1 21  1  0  0  0  0
  1 22  1  0  0  0  0
  1 23  1  0  0  0  0
  2  3  1  0  0  0  0
  3  7  1  0  0  0  0
  3  4  1  0  0  0  0
  3 24  1  0  0  0  0
  4  5  1  0  0  0  0
  4 25  1  0  0  0  0
  4 26  1  0  0  0  0
  5  6  1  0  0  0  0
  5 27  1  0  0  0  0
  5 28  1  0  0  0  0
  6  7  1  0  0  0  0
  6 29  1  0  0  0  0
  6 30  1  0  0  0  0
  7  8  1  0  0  0  0
  7 31  1  0  0  0  0
  8  9  1  0  0  0  0
  8 32  1  0  0  0  0
  9 10  2  0  0  0  0
  9 11  1  0  0  0  0
 11 12  1  0  0  0  0
 11 33  1  0  0  0  0
 12 20  1  0  0  0  0
 12 13  2  0  0  0  0
 13 14  1  0  0  0  0
 13 34  1  0  0  0  0
 14 15  2  0  0  0  0
 15 16  1  0  0  0  0
 15 19  1  0  0  0  0
 16 18  1  0  0  0  0
 16 17  1  0  0  0  0
 16 35  1  0  0  0  0
 17 18  1  0  0  0  0
 17 36  1  0  0  0  0
 17 37  1  0  0  0  0
 18 38  1  0  0  0  0
 18 39  1  0  0  0  0
 19 20  2  0  0  0  0
 20 40  1  0  0  0  0
M  END
> <s_m_source_file>
AV-unprocessed.smi

> <i_m_source_file_index>
2709

> <i_lp_mmshare_version>
43012

> <i_f3d_flags>
0

> <s_epik_input>
W0NIM11PW0NAQEhdMVtDSDJdW0NIMl1bQ0gyXVtDQEhdMVtOSF1DKD1PKVtOSF1jMltjSF1uYyhuW2NIXTIpW0NIXTNbQ0gyXVtDSDJdMw==

> <s_epik_cmdline>
J2VwaWtfcHl0aG9uJywgJy1waCcsICc3LjAnLCAnLXRuJywgJzgnLCAnLW1hJywgJzIwMCcsICctbWV0YWxfYmluZGluZycsICctaW1hZScsICc8aW5maWxlLm1hZT4nLCAnLW9tYWUnLCAnPG91dGZpbGUubWFlPic=

> <r_lp_tautomer_probability>
1

> <r_epik_Ionization_Penalty>
2.49969e-05

> <r_epik_Ionization_Penalty_Charging>
0

> <r_epik_Ionization_Penalty_Neutral>
2.49969e-05

> <r_epik_State_Penalty>
-0

> <r_epik_Charging_Adjusted_Penalty>
0

> <i_epik_Tot_Q>
0

> <i_epik_Tot_abs_Q>
0

> <r_epik_Metal_State_Penalty>
-0

> <b_epik_Metal_Only>
0

> <s_lp_Force_Field>
OPLS_2005

> <r_lp_Energy>
20.4457

> <b_lp_Chiralities_Consistent>
1

> <s_lp_Variant>
AV-unprocessed.smi:2709-2

> <Gold.Version>
5.8.1

> <Gold.Id.Protein>
6NUR|6NUR_protein|mol2

> <Gold.PLP.Fitness>
36.2384

> <Gold.PLP.PLP>
-24.7566

> <Gold.PLP.part.hbond>
-2.8969

> <Gold.PLP.part.metal>
0.0000

> <Gold.PLP.part.buried>
-3.2087

> <Gold.PLP.part.nonpolar>
-19.3119

> <Gold.PLP.part.repulsive>
0.2235

> <Gold.PLP.ligand.clash>
0.0000

> <Gold.PLP.ligand.torsion>
0.3094

> <Gold.PLP.Chemscore.Hbond>
2.9920

> <Gold.PLP.Chemscore.CHOScore>
1.0000

> <Gold.PLP.Chemscore.Metal>
0.0000

> <Gold.Chemscore.Hbonds>
donor molecule, donor type, donor heavy atom, donor atom, acceptor molecule, acceptor atom, score
      L1  H     8    32       P1  7948  0.95
      L1  H    11    33       P1  7948  0.91
      P1  H  7989  7998       L1    19  1.00
      L1  C    20    40       P1  7957  1.00

> <Gold.PLP.Chemscore.Internal.Correction>
0.1246

> <Gold.Rescore>
     Score         DG    S(hbond)    S(metal)    S(lipo)     H(rot)  DE(clash)    DE(int)     intcor
     16.34     -17.70       2.63        0.00      60.31       1.41       0.02       1.34       ----

> <Gold.Chemscore.Fitness>
16.3368

> <Gold.Chemscore.DG>
-17.6975

> <Gold.Chemscore.ZeroCoef>
-5.4800

> <Gold.Chemscore.Hbond>
2.6271

> <Gold.Chemscore.Metal>
0.0000

> <Gold.Chemscore.Lipo>
60.3086

> <Gold.Chemscore.Internal_Hbond>
0.0000

> <Gold.Chemscore.DEClash>
0.0174

> <Gold.Chemscore.DEInternal>
1.3432

> <Gold.Chemscore.Rot>
1.4114

> <Gold.Chemscore.Internal.Correction>
   9.000000E+99

> <Gold.Chemscore.Hbonds>
donor molecule, donor type, donor heavy atom, donor atom, acceptor molecule, acceptor atom, score
      L1  H     8    32       P1  7948  0.76
      L1  H    11    33       P1  7948  0.73
      P1  H  7989  7998       L1    19  0.30

> <Gold.Chemscore.Hbond.Weighted>
-8.7746

> <Gold.Chemscore.Metal.Weighted>
-0.0000

> <Gold.Chemscore.Lipo.Weighted>
-7.0561

> <Gold.Chemscore.Internal_Hbond.Weighted>
0.0000

> <Gold.Chemscore.DEClash.Weighted>
0.0174

> <Gold.Chemscore.DEInternal.Weighted>
1.3432

> <Gold.Chemscore.Rot.Weighted>
3.6133

> <Gold.Chemscore.Internal.Correction.Weighted>
   9.000000E+99

> <Gold.Protein.RotatedTorsions>
[ 6907 6896 6895 6894 ] final -157.83 input  -60.11 | X-H torsion
[ 7974 7965 7964 7962 ] final  106.55 input  175.53 | X-H torsion
[ 8008 7997 7996 7995 ] final -178.16 input   59.86 | X-H torsion
[ 10167 10162 10161 10158 ] final   19.23 input  -65.29 | X-H torsion
[ 10718 10713 10712 10709 ] final  148.79 input   66.30 | X-H torsion
[ 10763 10752 10751 10750 ] final -105.12 input  -60.55 | X-H torsion
[ 11005 11000 10999 10996 ] final  129.05 input  -57.11 | X-H torsion

> <Gold.Protein.ActiveResidues>
 VAL166  LYS551  ARG553  GLY616  TRP617  ASP618  TYR619  PRO620  LYS621  CYS622 
 ASP623  PHE694  ASN695  SER759  ASP760  ASP761  ALA762  ILE779  LEU786  VAL792 
 PHE793  MET794  SER795  GLU796  ALA797  LYS798  CYS799  TRP800  GLU811  SER814 

> <Gold.Protein.RotatedAtoms>
  151.3088  133.4090  159.2645 H   0  0  0  0  0  0  0  0  0  0  0  0  # atno 6907 bound_to 6896
  151.0132  134.9413  159.8029 H   0  0  0  0  0  0  0  0  0  0  0  0  # atno 6908 bound_to 6896
  152.5306  134.3052  159.9146 H   0  0  0  0  0  0  0  0  0  0  0  0  # atno 6909 bound_to 6896
  145.3051  139.2557  143.3793 H   0  0  0  0  0  0  0  0  0  0  0  0  # atno 7974 bound_to 7965
  156.0156  140.1250  157.0410 H   0  0  0  0  0  0  0  0  0  0  0  0  # atno 8008 bound_to 7997
  154.4292  140.1079  156.5960 H   0  0  0  0  0  0  0  0  0  0  0  0  # atno 8009 bound_to 7997
  155.6018  140.3470  155.4598 H   0  0  0  0  0  0  0  0  0  0  0  0  # atno 8010 bound_to 7997
  140.5594  143.9364  150.6632 H   0  0  0  0  0  0  0  0  0  0  0  0  # atno 10167 bound_to 10162
  157.3042  131.0876  151.1367 H   0  0  0  0  0  0  0  0  0  0  0  0  # atno 10718 bound_to 10713
  154.7925  135.4761  154.0085 H   0  0  0  0  0  0  0  0  0  0  0  0  # atno 10763 bound_to 10752
  153.1652  135.6815  153.8692 H   0  0  0  0  0  0  0  0  0  0  0  0  # atno 10764 bound_to 10752
  153.8292  135.3194  155.3395 H   0  0  0  0  0  0  0  0  0  0  0  0  # atno 10765 bound_to 10752
  139.9594  134.9606  156.9092 H   0  0  0  0  0  0  0  0  0  0  0  0  # atno 11005 bound_to 11000
  146.3138  140.3575  142.8662 LP  0  0  0  0  0  0  0  0  0  0  0  0  # atno 17320 bound_to 7965
  144.9061  140.7701  143.5836 LP  0  0  0  0  0  0  0  0  0  0  0  0  # atno 17321 bound_to 7965
  140.2811  143.3389  152.1150 LP  0  0  0  0  0  0  0  0  0  0  0  0  # atno 17342 bound_to 10162
  139.5063  144.6811  151.6006 LP  0  0  0  0  0  0  0  0  0  0  0  0  # atno 17343 bound_to 10162
  157.2714  130.6706  149.6021 LP  0  0  0  0  0  0  0  0  0  0  0  0  # atno 17370 bound_to 10713
  155.9673  130.4478  150.5594 LP  0  0  0  0  0  0  0  0  0  0  0  0  # atno 17371 bound_to 10713
  140.5535  134.0604  155.7376 LP  0  0  0  0  0  0  0  0  0  0  0  0  # atno 17394 bound_to 11000
  141.1269  133.9367  157.2616 LP  0  0  0  0  0  0  0  0  0  0  0  0  # atno 17395 bound_to 11000

$$$$
