AV-unprocessed.smi:2088|AV-procd|sdf|8526|dock7
  -GOLD-   2272011243D 1   1.00000     0.00000
 Structure written by MMmdl.
 33 34  0  0  0  0  0  0  0  0  1 V2000
  153.4286  139.0578  157.0637 O   0  0  0  0  0  0  0  0  0  0  0  0
  152.5043  139.5245  157.7298 C   0  0  0  0  0  0  0  0  0  0  0  0
  152.6401  139.6419  159.2492 C   0  0  0  0  0  0  0  0  0  0  0  0
  152.7039  141.0321  159.6637 N   0  0  0  0  0  0  0  0  0  0  0  0
  153.4965  141.6004  160.6379 C   0  0  0  0  0  0  0  0  0  0  0  0
  153.2121  142.9352  160.6647 C   0  0  0  0  0  0  0  0  0  0  0  0
  152.2177  143.0984  159.6567 C   0  0  0  0  0  0  0  0  0  0  0  0
  151.5181  144.3628  159.2320 C   0  0  0  0  0  0  0  0  0  0  0  0
  151.9034  145.3836  159.9977 F   0  0  0  0  0  0  0  0  0  0  0  0
  151.8137  144.6436  157.9629 F   0  0  0  0  0  0  0  0  0  0  0  0
  150.1988  144.2129  159.3491 F   0  0  0  0  0  0  0  0  0  0  0  0
  151.9180  141.9507  159.0621 N   0  0  0  0  0  0  0  0  0  0  0  0
  151.3503  139.9505  157.1937 N   0  0  0  0  0  0  0  0  0  0  0  0
  151.0287  139.9275  155.7713 C   0  0  0  0  0  0  0  0  0  0  0  0
  149.5172  140.0715  155.5244 C   0  0  2  0  0  0  0  0  0  0  0  0
  149.0357  139.3890  154.2472 C   0  0  0  0  0  0  0  0  0  0  0  0
  147.7385  140.1202  153.9871 C   0  0  0  0  0  0  0  0  0  0  0  0
  148.0777  141.5455  154.4199 C   0  0  0  0  0  0  0  0  0  0  0  0
  149.1609  141.4386  155.3422 O   0  0  0  0  0  0  0  0  0  0  0  0
  151.8078  139.1490  159.7550 H   0  0  0  0  0  0  0  0  0  0  0  0
  153.5528  139.1392  159.5710 H   0  0  0  0  0  0  0  0  0  0  0  0
  154.1909  141.0143  161.2219 H   0  0  0  0  0  0  0  0  0  0  0  0
  153.6498  143.6842  161.3077 H   0  0  0  0  0  0  0  0  0  0  0  0
  150.6437  140.3166  157.8151 H   0  0  0  0  0  0  0  0  0  0  0  0
  151.5671  140.7397  155.2824 H   0  0  0  0  0  0  0  0  0  0  0  0
  151.3971  139.0011  155.3279 H   0  0  0  0  0  0  0  0  0  0  0  0
  148.9484  139.6800  156.3697 H   0  0  0  0  0  0  0  0  0  0  0  0
  149.7350  139.5643  153.4284 H   0  0  0  0  0  0  0  0  0  0  0  0
  148.9044  138.3128  154.3634 H   0  0  0  0  0  0  0  0  0  0  0  0
  147.4093  140.0556  152.9497 H   0  0  0  0  0  0  0  0  0  0  0  0
  146.9496  139.7134  154.6211 H   0  0  0  0  0  0  0  0  0  0  0  0
  148.4062  142.1399  153.5668 H   0  0  0  0  0  0  0  0  0  0  0  0
  147.2227  142.0477  154.8731 H   0  0  0  0  0  0  0  0  0  0  0  0
  1  2  2  0  0  0  0
  2  3  1  0  0  0  0
  2 13  1  0  0  0  0
  3  4  1  0  0  0  0
  3 20  1  0  0  0  0
  3 21  1  0  0  0  0
  4 12  1  0  0  0  0
  4  5  1  0  0  0  0
  5  6  2  0  0  0  0
  5 22  1  0  0  0  0
  6  7  1  0  0  0  0
  6 23  1  0  0  0  0
  7  8  1  0  0  0  0
  7 12  2  0  0  0  0
  8  9  1  0  0  0  0
  8 10  1  0  0  0  0
  8 11  1  0  0  0  0
 13 14  1  0  0  0  0
 13 24  1  0  0  0  0
 14 15  1  0  0  0  0
 14 25  1  0  0  0  0
 14 26  1  0  0  0  0
 15 19  1  0  0  0  0
 15 16  1  0  0  0  0
 15 27  1  0  0  0  0
 16 17  1  0  0  0  0
 16 28  1  0  0  0  0
 16 29  1  0  0  0  0
 17 18  1  0  0  0  0
 17 30  1  0  0  0  0
 17 31  1  0  0  0  0
 18 19  1  0  0  0  0
 18 32  1  0  0  0  0
 18 33  1  0  0  0  0
M  END
> <s_m_source_file>
AV-unprocessed.smi

> <i_m_source_file_index>
2088

> <i_lp_mmshare_version>
43012

> <i_f3d_flags>
0

> <s_epik_input>
TzFbQ0gyXVtDSDJdW0NIMl1bQ0BIXTFbQ0gyXVtOSF1DKD1PKVtDSDJdbjJbY0hdW2NIXWMobjIpQyhGKShGKUY=

> <s_epik_cmdline>
J2VwaWtfcHl0aG9uJywgJy1waCcsICc3LjAnLCAnLXRuJywgJzgnLCAnLW1hJywgJzIwMCcsICctbWV0YWxfYmluZGluZycsICctaW1hZScsICc8aW5maWxlLm1hZT4nLCAnLW9tYWUnLCAnPG91dGZpbGUubWFlPic=

> <r_lp_tautomer_probability>
1

> <r_epik_Ionization_Penalty>
2.25732e-07

> <r_epik_Ionization_Penalty_Charging>
0

> <r_epik_Ionization_Penalty_Neutral>
2.25732e-07

> <r_epik_State_Penalty>
-0

> <r_epik_Charging_Adjusted_Penalty>
0

> <i_epik_Tot_Q>
0

> <i_epik_Tot_abs_Q>
0

> <r_epik_Metal_State_Penalty>
-0

> <b_epik_Metal_Only>
0

> <s_lp_Force_Field>
OPLS_2005

> <r_lp_Energy>
20.6352

> <b_lp_Chiralities_Consistent>
1

> <s_lp_Variant>
AV-unprocessed.smi:2088-1

> <Gold.Version>
5.8.1

> <Gold.Id.Protein>
6NUR|6NUR_protein|mol2

> <Gold.PLP.Fitness>
46.2567

> <Gold.PLP.PLP>
-45.0385

> <Gold.PLP.part.hbond>
-0.7568

> <Gold.PLP.part.metal>
0.0000

> <Gold.PLP.part.buried>
-3.3694

> <Gold.PLP.part.nonpolar>
-40.0376

> <Gold.PLP.part.repulsive>
0.1979

> <Gold.PLP.ligand.clash>
0.0000

> <Gold.PLP.ligand.torsion>
0.8848

> <Gold.PLP.Chemscore.Hbond>
0.9920

> <Gold.PLP.Chemscore.CHOScore>
0.0000

> <Gold.PLP.Chemscore.Metal>
0.0000

> <Gold.Chemscore.Hbonds>
donor molecule, donor type, donor heavy atom, donor atom, acceptor molecule, acceptor atom, score
      P1  H  7997  8010       L1     1  0.90

> <Gold.PLP.Chemscore.Internal.Correction>
0.0118

> <Gold.Rescore>
     Score         DG    S(hbond)    S(metal)    S(lipo)     H(rot)  DE(clash)    DE(int)     intcor
     12.10     -12.99       0.84        0.00      81.53       1.89       0.14       0.75       ----

> <Gold.Chemscore.Fitness>
12.1036

> <Gold.Chemscore.DG>
-12.9916

> <Gold.Chemscore.ZeroCoef>
-5.4800

> <Gold.Chemscore.Hbond>
0.8438

> <Gold.Chemscore.Metal>
0.0000

> <Gold.Chemscore.Lipo>
81.5276

> <Gold.Chemscore.Internal_Hbond>
0.0000

> <Gold.Chemscore.DEClash>
0.1405

> <Gold.Chemscore.DEInternal>
0.7475

> <Gold.Chemscore.Rot>
1.8928

> <Gold.Chemscore.Internal.Correction>
   9.000000E+99

> <Gold.Chemscore.Hbonds>
donor molecule, donor type, donor heavy atom, donor atom, acceptor molecule, acceptor atom, score
      P1  H  7997  8010       L1     1  0.75

> <Gold.Chemscore.Hbond.Weighted>
-2.8184

> <Gold.Chemscore.Metal.Weighted>
-0.0000

> <Gold.Chemscore.Lipo.Weighted>
-9.5387

> <Gold.Chemscore.Internal_Hbond.Weighted>
0.0000

> <Gold.Chemscore.DEClash.Weighted>
0.1405

> <Gold.Chemscore.DEInternal.Weighted>
0.7475

> <Gold.Chemscore.Rot.Weighted>
4.8455

> <Gold.Chemscore.Internal.Correction.Weighted>
   9.000000E+99

> <Gold.Protein.RotatedTorsions>
[ 6907 6896 6895 6894 ] final -110.37 input  -60.11 | X-H torsion
[ 7974 7965 7964 7962 ] final -149.13 input  175.53 | X-H torsion
[ 8008 7997 7996 7995 ] final   69.47 input   59.86 | X-H torsion
[ 10167 10162 10161 10158 ] final  176.67 input  -65.29 | X-H torsion
[ 10718 10713 10712 10709 ] final  -80.39 input   66.30 | X-H torsion
[ 10763 10752 10751 10750 ] final -160.35 input  -60.55 | X-H torsion
[ 11005 11000 10999 10996 ] final  133.45 input  -57.11 | X-H torsion

> <Gold.Protein.ActiveResidues>
 VAL166  LYS551  ARG553  GLY616  TRP617  ASP618  TYR619  PRO620  LYS621  CYS622 
 ASP623  PHE694  ASN695  SER759  ASP760  ASP761  ALA762  ILE779  LEU786  VAL792 
 PHE793  MET794  SER795  GLU796  ALA797  LYS798  CYS799  TRP800  GLU811  SER814 

> <Gold.Protein.RotatedAtoms>
  150.7621  133.9392  159.3450 H   0  0  0  0  0  0  0  0  0  0  0  0  # atno 6907 bound_to 6896
  151.7298  135.0875  160.0307 H   0  0  0  0  0  0  0  0  0  0  0  0  # atno 6908 bound_to 6896
  152.3597  133.6244  159.6041 H   0  0  0  0  0  0  0  0  0  0  0  0  # atno 6909 bound_to 6896
  144.7986  140.5105  143.5722 H   0  0  0  0  0  0  0  0  0  0  0  0  # atno 7974 bound_to 7965
  155.7241  140.3493  155.5029 H   0  0  0  0  0  0  0  0  0  0  0  0  # atno 8008 bound_to 7997
  155.9242  140.1072  157.1204 H   0  0  0  0  0  0  0  0  0  0  0  0  # atno 8009 bound_to 7997
  154.4074  140.1243  156.4706 H   0  0  0  0  0  0  0  0  0  0  0  0  # atno 8010 bound_to 7997
  139.5223  144.2888  152.0482 H   0  0  0  0  0  0  0  0  0  0  0  0  # atno 10167 bound_to 10162
  156.0071  130.4573  150.3794 H   0  0  0  0  0  0  0  0  0  0  0  0  # atno 10718 bound_to 10713
  154.7397  135.3066  154.8749 H   0  0  0  0  0  0  0  0  0  0  0  0  # atno 10763 bound_to 10752
  153.9567  135.6757  153.4749 H   0  0  0  0  0  0  0  0  0  0  0  0  # atno 10764 bound_to 10752
  153.0997  135.4918  154.8768 H   0  0  0  0  0  0  0  0  0  0  0  0  # atno 10765 bound_to 10752
  139.9853  134.9534  156.9727 H   0  0  0  0  0  0  0  0  0  0  0  0  # atno 11005 bound_to 11000
  145.5609  139.1479  143.3342 LP  0  0  0  0  0  0  0  0  0  0  0  0  # atno 17320 bound_to 7965
  146.2262  140.5745  142.8995 LP  0  0  0  0  0  0  0  0  0  0  0  0  # atno 17321 bound_to 7965
  140.2340  144.4339  150.6288 LP  0  0  0  0  0  0  0  0  0  0  0  0  # atno 17342 bound_to 10162
  140.6336  143.2191  151.6443 LP  0  0  0  0  0  0  0  0  0  0  0  0  # atno 17343 bound_to 10162
  157.1874  131.0407  151.2717 LP  0  0  0  0  0  0  0  0  0  0  0  0  # atno 17370 bound_to 10713
  157.4091  130.7375  149.6825 LP  0  0  0  0  0  0  0  0  0  0  0  0  # atno 17371 bound_to 10713
  140.5015  134.1092  155.7251 LP  0  0  0  0  0  0  0  0  0  0  0  0  # atno 17394 bound_to 11000
  141.1519  133.8954  157.2077 LP  0  0  0  0  0  0  0  0  0  0  0  0  # atno 17395 bound_to 11000

$$$$
