AV-unprocessed.smi:34|AV-procd|sdf|246|dock2
  -GOLD-   2262016 03D 1   1.00000     0.00000
 Structure written by MMmdl.
 54 58  0  0  0  0  0  0  0  0  2 V2000
  144.0090  142.7668  157.7527 O   0  0  0  0  0  0  0  0  0  0  0  0
  144.1337  143.0414  156.5572 C   0  0  0  0  0  0  0  0  0  0  0  0
  144.3760  142.1902  155.5282 N   0  5  0  0  0  0  0  0  0  0  0  0
  145.5925  142.1536  154.9638 C   0  0  0  0  0  0  0  0  0  0  0  0
  145.8997  142.9943  153.9434 N   0  0  0  0  0  0  0  0  0  0  0  0
  147.1115  142.9564  153.3789 C   0  0  0  0  0  0  0  0  0  0  0  0
  148.1492  142.1670  153.6710 N   0  0  0  0  0  0  0  0  0  0  0  0
  147.8520  141.3074  154.6886 C   0  0  0  0  0  0  0  0  0  0  0  0
  146.6036  141.2418  155.3744 C   0  0  0  0  0  0  0  0  0  0  0  0
  146.6292  140.2582  156.3513 N   0  0  0  0  0  0  0  0  0  0  0  0
  147.8644  139.7812  156.2190 C   0  0  0  0  0  0  0  0  0  0  0  0
  148.6525  140.3396  155.2782 N   0  0  0  0  0  0  0  0  0  0  0  0
  150.0622  139.9557  154.9517 C   0  0  1  0  0  0  0  0  0  0  0  0
  150.8572  140.2080  156.0759 O   0  0  0  0  0  0  0  0  0  0  0  0
  151.4067  138.9886  156.5703 C   0  0  2  0  0  0  0  0  0  0  0  0
  152.7414  139.2415  157.2826 C   0  0  0  0  0  0  0  0  0  0  0  0
  152.6851  140.4831  157.9668 O   0  0  0  0  0  0  0  0  0  0  0  0
  153.0645  140.5580  159.2575 C   0  0  0  0  0  0  0  0  0  0  0  0
  153.6006  139.6292  159.8655 O   0  0  0  0  0  0  0  0  0  0  0  0
  152.7607  141.8801  159.8772 C   0  0  0  0  0  0  0  0  0  0  0  0
  152.5078  142.9939  159.0427 C   0  0  0  0  0  0  0  0  0  0  0  0
  152.2235  144.2566  159.5977 C   0  0  0  0  0  0  0  0  0  0  0  0
  152.1854  144.4205  160.9945 C   0  0  0  0  0  0  0  0  0  0  0  0
  152.4324  143.3198  161.8357 C   0  0  0  0  0  0  0  0  0  0  0  0
  152.7192  142.0565  161.2823 C   0  0  0  0  0  0  0  0  0  0  0  0
  151.4864  138.1060  155.3253 C   0  0  2  0  0  0  0  0  0  0  0  0
  152.5377  138.4835  154.5911 F   0  0  0  0  0  0  0  0  0  0  0  0
  150.1822  138.4582  154.6276 C   0  0  2  0  0  0  0  0  0  0  0  0
  150.2644  138.1817  153.2439 O   0  0  0  0  0  0  0  0  0  0  0  0
  144.0853  144.4859  156.1363 C   0  0  0  0  0  0  0  0  0  0  0  0
  143.9608  144.8118  154.7662 C   0  0  0  0  0  0  0  0  0  0  0  0
  143.9388  146.1568  154.3486 C   0  0  0  0  0  0  0  0  0  0  0  0
  144.0509  147.1912  155.2964 C   0  0  0  0  0  0  0  0  0  0  0  0
  144.1897  146.8791  156.6618 C   0  0  0  0  0  0  0  0  0  0  0  0
  144.2117  145.5344  157.0802 C   0  0  0  0  0  0  0  0  0  0  0  0
  147.2736  143.6613  152.5771 H   0  0  0  0  0  0  0  0  0  0  0  0
  148.2183  138.9770  156.8473 H   0  0  0  0  0  0  0  0  0  0  0  0
  150.3635  140.6111  154.1330 H   0  0  0  0  0  0  0  0  0  0  0  0
  150.7043  138.5512  157.2787 H   0  0  0  0  0  0  0  0  0  0  0  0
  152.9624  138.4313  157.9790 H   0  0  0  0  0  0  0  0  0  0  0  0
  153.5509  139.2720  156.5522 H   0  0  0  0  0  0  0  0  0  0  0  0
  152.5327  142.8929  157.9672 H   0  0  0  0  0  0  0  0  0  0  0  0
  152.0350  145.1001  158.9499 H   0  0  0  0  0  0  0  0  0  0  0  0
  151.9669  145.3888  161.4199 H   0  0  0  0  0  0  0  0  0  0  0  0
  152.4019  143.4441  162.9081 H   0  0  0  0  0  0  0  0  0  0  0  0
  152.9040  141.2328  161.9562 H   0  0  0  0  0  0  0  0  0  0  0  0
  151.5914  137.0438  155.5477 H   0  0  0  0  0  0  0  0  0  0  0  0
  149.3575  137.9016  155.0736 H   0  0  0  0  0  0  0  0  0  0  0  0
  150.2245  138.9998  152.7724 H   0  0  0  0  0  0  0  0  0  0  0  0
  143.8761  144.0295  154.0256 H   0  0  0  0  0  0  0  0  0  0  0  0
  143.8377  146.3939  153.2999 H   0  0  0  0  0  0  0  0  0  0  0  0
  144.0346  148.2225  154.9765 H   0  0  0  0  0  0  0  0  0  0  0  0
  144.2821  147.6713  157.3901 H   0  0  0  0  0  0  0  0  0  0  0  0
  144.3295  145.3171  158.1322 H   0  0  0  0  0  0  0  0  0  0  0  0
  1  2  2  0  0  0  0
  2  3  1  0  0  0  0
  2 30  1  0  0  0  0
  3  4  1  0  0  0  0
  4  9  1  0  0  0  0
  4  5  2  0  0  0  0
  5  6  1  0  0  0  0
  6  7  2  0  0  0  0
  6 36  1  0  0  0  0
  7  8  1  0  0  0  0
  8 12  1  0  0  0  0
  8  9  2  0  0  0  0
  9 10  1  0  0  0  0
 10 11  2  0  0  0  0
 11 12  1  0  0  0  0
 11 37  1  0  0  0  0
 12 13  1  0  0  0  0
 13 28  1  0  0  0  0
 13 14  1  0  0  0  0
 13 38  1  0  0  0  0
 14 15  1  0  0  0  0
 15 16  1  0  0  0  0
 15 26  1  0  0  0  0
 15 39  1  0  0  0  0
 16 17  1  0  0  0  0
 16 40  1  0  0  0  0
 16 41  1  0  0  0  0
 17 18  1  0  0  0  0
 18 19  2  0  0  0  0
 18 20  1  0  0  0  0
 20 25  1  0  0  0  0
 20 21  2  0  0  0  0
 21 22  1  0  0  0  0
 21 42  1  0  0  0  0
 22 23  2  0  0  0  0
 22 43  1  0  0  0  0
 23 24  1  0  0  0  0
 23 44  1  0  0  0  0
 24 25  2  0  0  0  0
 24 45  1  0  0  0  0
 25 46  1  0  0  0  0
 26 27  1  0  0  0  0
 26 28  1  0  0  0  0
 26 47  1  0  0  0  0
 28 29  1  0  0  0  0
 28 48  1  0  0  0  0
 29 49  1  0  0  0  0
 30 35  1  0  0  0  0
 30 31  2  0  0  0  0
 31 32  1  0  0  0  0
 31 50  1  0  0  0  0
 32 33  2  0  0  0  0
 32 51  1  0  0  0  0
 33 34  1  0  0  0  0
 33 52  1  0  0  0  0
 34 35  2  0  0  0  0
 34 53  1  0  0  0  0
 35 54  1  0  0  0  0
M  CHG  1   3  -1
M  END
> <s_m_source_file>
AV-unprocessed.smi

> <i_m_source_file_index>
34

> <i_lp_mmshare_version>
43012

> <i_f3d_flags>
0

> <s_epik_input>
W2NIXTFbY0hdW2NIXVtjSF1bY0hdYzFDKD1PKVtOSF1jKG5bY0hdbjIpYyhjMjMpbltjSF1uM1tDQEBIXTRPW0NASF0oW0NAQEhdKEYpW0NASF00W09IXSlbQ0gyXU9DKD1PKWM1W2NIXVtjSF1bY0hdW2NIXVtjSF01

> <s_epik_cmdline>
J2VwaWtfcHl0aG9uJywgJy1waCcsICc3LjAnLCAnLXRuJywgJzgnLCAnLW1hJywgJzIwMCcsICctbWV0YWxfYmluZGluZycsICctaW1hZScsICc8aW5maWxlLm1hZT4nLCAnLW9tYWUnLCAnPG91dGZpbGUubWFlPic=

> <r_lp_tautomer_probability>
1

> <r_epik_Ionization_Penalty>
4.33227

> <r_epik_Ionization_Penalty_Charging>
3.41027

> <r_epik_Ionization_Penalty_Neutral>
0.922001

> <r_epik_State_Penalty>
3.41358

> <r_epik_Charging_Adjusted_Penalty>
6.82385

> <i_epik_Tot_Q>
-1

> <i_epik_Tot_abs_Q>
1

> <r_epik_Metal_State_Penalty>
0.496292

> <b_epik_Metal_Only>
1

> <s_epik_Chemistry_Notes>
This compound has an ester and may undergo hydrolysis at high or low pH. This compound contains an acetal/aminal-like group ( X-CH(R)-Y where X, Y are N, S, or O) that may be acid/base labile, releasing an aldehyde.

> <s_lp_Force_Field>
OPLS_2005

> <r_lp_Energy>
46.0199

> <b_lp_Chiralities_Consistent>
1

> <s_lp_Variant>
AV-unprocessed.smi:34-32

> <Gold.Version>
5.8.1

> <Gold.Id.Protein>
6NUR|6NUR_protein|mol2

> <Gold.PLP.Fitness>
55.5417

> <Gold.PLP.PLP>
-56.2733

> <Gold.PLP.part.hbond>
-5.0000

> <Gold.PLP.part.metal>
0.0000

> <Gold.PLP.part.buried>
-1.9629

> <Gold.PLP.part.nonpolar>
-48.6200

> <Gold.PLP.part.repulsive>
0.5050

> <Gold.PLP.ligand.clash>
0.0000

> <Gold.PLP.ligand.torsion>
2.4082

> <Gold.PLP.Chemscore.Hbond>
1.0744

> <Gold.PLP.Chemscore.CHOScore>
0.0000

> <Gold.PLP.Chemscore.Metal>
0.0000

> <Gold.Chemscore.Hbonds>
donor molecule, donor type, donor heavy atom, donor atom, acceptor molecule, acceptor atom, score
      L1  H    29    49       P1  7957  0.98
      P1  H  8011  8017       L1     7  0.25

> <Gold.PLP.Chemscore.Internal.Correction>
0.8616

> <Gold.Rescore>
     Score         DG    S(hbond)    S(metal)    S(lipo)     H(rot)  DE(clash)    DE(int)     intcor
      9.87     -12.30       0.00        0.00     117.23       2.69       0.12       2.30       ----

> <Gold.Chemscore.Fitness>
9.8724

> <Gold.Chemscore.DG>
-12.2987

> <Gold.Chemscore.ZeroCoef>
-5.4800

> <Gold.Chemscore.Hbond>
0.0000

> <Gold.Chemscore.Metal>
0.0000

> <Gold.Chemscore.Lipo>
117.2325

> <Gold.Chemscore.Internal_Hbond>
0.0000

> <Gold.Chemscore.DEClash>
0.1230

> <Gold.Chemscore.DEInternal>
2.3033

> <Gold.Chemscore.Rot>
2.6944

> <Gold.Chemscore.Internal.Correction>
   9.000000E+99

> <Gold.Chemscore.Hbonds>
donor molecule, donor type, donor heavy atom, donor atom, acceptor molecule, acceptor atom, score
      L1  H    29    49       P1  7957  0.55
      P1  H  8011  8017       L1     7  0.20

> <Gold.Chemscore.Hbond.Weighted>
-0.0000

> <Gold.Chemscore.Metal.Weighted>
-0.0000

> <Gold.Chemscore.Lipo.Weighted>
-13.7162

> <Gold.Chemscore.Internal_Hbond.Weighted>
0.0000

> <Gold.Chemscore.DEClash.Weighted>
0.1230

> <Gold.Chemscore.DEInternal.Weighted>
2.3033

> <Gold.Chemscore.Rot.Weighted>
6.8975

> <Gold.Chemscore.Internal.Correction.Weighted>
   9.000000E+99

> <Gold.Protein.RotatedTorsions>
[ 6907 6896 6895 6894 ] final   92.09 input  -60.11 | X-H torsion
[ 7974 7965 7964 7962 ] final  -13.31 input  175.53 | X-H torsion
[ 8008 7997 7996 7995 ] final   19.85 input   59.86 | X-H torsion
[ 10167 10162 10161 10158 ] final  -41.00 input  -65.29 | X-H torsion
[ 10718 10713 10712 10709 ] final  171.82 input   66.30 | X-H torsion
[ 10763 10752 10751 10750 ] final  -62.12 input  -60.55 | X-H torsion
[ 11005 11000 10999 10996 ] final -132.24 input  -57.11 | X-H torsion

> <Gold.Protein.ActiveResidues>
 VAL166  LYS551  ARG553  GLY616  TRP617  ASP618  TYR619  PRO620  LYS621  CYS622 
 ASP623  PHE694  ASN695  SER759  ASP760  ASP761  ALA762  ILE779  LEU786  VAL792 
 PHE793  MET794  SER795  GLU796  ALA797  LYS798  CYS799  TRP800  GLU811  SER814 

> <Gold.Protein.RotatedAtoms>
  152.5452  134.1556  159.8536 H   0  0  0  0  0  0  0  0  0  0  0  0  # atno 6907 bound_to 6896
  151.1579  133.4857  159.2602 H   0  0  0  0  0  0  0  0  0  0  0  0  # atno 6908 bound_to 6896
  151.1404  135.0187  159.8678 H   0  0  0  0  0  0  0  0  0  0  0  0  # atno 6909 bound_to 6896
  146.2119  140.3184  142.8388 H   0  0  0  0  0  0  0  0  0  0  0  0  # atno 7974 bound_to 7965
  154.9268  140.3035  155.5188 H   0  0  0  0  0  0  0  0  0  0  0  0  # atno 8008 bound_to 7997
  156.3006  140.2361  156.4260 H   0  0  0  0  0  0  0  0  0  0  0  0  # atno 8009 bound_to 7997
  154.8276  140.0420  157.1443 H   0  0  0  0  0  0  0  0  0  0  0  0  # atno 8010 bound_to 7997
  140.7017  143.3120  151.3004 H   0  0  0  0  0  0  0  0  0  0  0  0  # atno 10167 bound_to 10162
  156.9880  131.0139  151.2864 H   0  0  0  0  0  0  0  0  0  0  0  0  # atno 10718 bound_to 10713
  154.2950  135.6246  153.5401 H   0  0  0  0  0  0  0  0  0  0  0  0  # atno 10763 bound_to 10752
  152.9847  135.5665  154.5348 H   0  0  0  0  0  0  0  0  0  0  0  0  # atno 10764 bound_to 10752
  154.4966  135.2870  155.1430 H   0  0  0  0  0  0  0  0  0  0  0  0  # atno 10765 bound_to 10752
  140.9188  134.1472  157.4331 H   0  0  0  0  0  0  0  0  0  0  0  0  # atno 11005 bound_to 11000
  144.8937  140.7556  143.5910 LP  0  0  0  0  0  0  0  0  0  0  0  0  # atno 17320 bound_to 7965
  145.3108  139.1819  143.4640 LP  0  0  0  0  0  0  0  0  0  0  0  0  # atno 17321 bound_to 7965
  139.6546  144.0299  152.2651 LP  0  0  0  0  0  0  0  0  0  0  0  0  # atno 17342 bound_to 10162
  139.9847  144.6404  150.7869 LP  0  0  0  0  0  0  0  0  0  0  0  0  # atno 17343 bound_to 10162
  157.5479  130.8163  149.8108 LP  0  0  0  0  0  0  0  0  0  0  0  0  # atno 17370 bound_to 10713
  156.0218  130.3793  150.1939 LP  0  0  0  0  0  0  0  0  0  0  0  0  # atno 17371 bound_to 10713
  139.8771  134.9963  156.5790 LP  0  0  0  0  0  0  0  0  0  0  0  0  # atno 17394 bound_to 11000
  140.8015  133.8501  155.8731 LP  0  0  0  0  0  0  0  0  0  0  0  0  # atno 17395 bound_to 11000

$$$$
