AV-unprocessed.smi:1867|AV-procd|sdf|7573|dock10
  -GOLD-   22720 9283D 1   1.00000     0.00000
 Structure written by MMmdl.
 53 56  0  0  0  0  0  0  0  0  3 V2000
  146.8343  137.6513  153.6547 O   0  0  0  0  0  0  0  0  0  0  0  0
  146.5657  138.5394  152.8500 C   0  0  0  0  0  0  0  0  0  0  0  0
  147.1220  139.7676  152.8395 N   0  0  0  0  0  0  0  0  0  0  0  0
  148.1052  140.3227  153.7054 C   0  0  0  0  0  0  0  0  0  0  0  0
  148.9638  139.4232  154.3725 C   0  0  0  0  0  0  0  0  0  0  0  0
  149.9545  139.9127  155.2482 C   0  0  0  0  0  0  0  0  0  0  0  0
  150.0810  141.3068  155.4528 C   0  0  0  0  0  0  0  0  0  0  0  0
  151.0395  141.8709  156.3159 N   0  0  0  0  0  0  0  0  0  0  0  0
  150.9180  143.2338  156.8053 C   0  0  0  0  0  0  0  0  0  0  0  0
  152.0609  143.3863  157.8083 C   0  0  0  0  0  0  0  0  0  0  0  0
  152.2004  141.9807  158.3933 C   0  0  0  0  0  0  0  0  0  0  0  0
  151.8228  141.0526  157.2328 C   0  0  0  0  0  0  0  0  0  0  0  0
  149.2315  142.1336  154.7986 N   0  3  0  0  0  0  0  0  0  0  0  0
  148.2692  141.7078  153.9520 C   0  0  0  0  0  0  0  0  0  0  0  0
  145.6531  138.3397  151.8822 N   0  0  0  0  0  0  0  0  0  0  0  0
  144.8682  137.1348  151.6105 C   0  0  1  0  0  0  0  0  0  0  0  0
  145.7046  135.8843  151.3503 C   0  0  0  0  0  0  0  0  0  0  0  0
  144.7024  134.7611  151.6242 C   0  0  0  0  0  0  0  0  0  0  0  0
  143.8166  135.2584  152.7017 N   0  3  2  0  0  0  0  0  0  0  0  0
  142.4052  134.8135  152.5977 C   0  0  0  0  0  0  0  0  0  0  0  0
  141.5704  135.3713  153.7659 C   0  0  0  0  0  0  0  0  0  0  0  0
  141.7474  136.8917  153.9665 C   0  0  0  0  0  0  0  0  0  0  0  0
  142.6897  137.5149  152.9252 C   0  0  0  0  0  0  0  0  0  0  0  0
  144.0169  136.7304  152.8236 C   0  0  2  0  0  0  0  0  0  0  0  0
  146.7791  140.3932  152.1256 H   0  0  0  0  0  0  0  0  0  0  0  0
  148.8674  138.3585  154.2169 H   0  0  0  0  0  0  0  0  0  0  0  0
  150.6024  139.2114  155.7527 H   0  0  0  0  0  0  0  0  0  0  0  0
  150.9937  143.9630  155.9982 H   0  0  0  0  0  0  0  0  0  0  0  0
  149.9528  143.3583  157.2982 H   0  0  0  0  0  0  0  0  0  0  0  0
  152.9784  143.6588  157.2849 H   0  0  0  0  0  0  0  0  0  0  0  0
  151.8650  144.1474  158.5641 H   0  0  0  0  0  0  0  0  0  0  0  0
  153.1971  141.7805  158.7877 H   0  0  0  0  0  0  0  0  0  0  0  0
  151.4870  141.8544  159.2089 H   0  0  0  0  0  0  0  0  0  0  0  0
  151.2693  140.1845  157.5929 H   0  0  0  0  0  0  0  0  0  0  0  0
  152.7147  140.6993  156.7143 H   0  0  0  0  0  0  0  0  0  0  0  0
  147.6762  142.4990  153.5204 H   0  0  0  0  0  0  0  0  0  0  0  0
  145.4896  139.1181  151.2594 H   0  0  0  0  0  0  0  0  0  0  0  0
  144.2091  137.3023  150.7563 H   0  0  0  0  0  0  0  0  0  0  0  0
  146.1152  135.8453  150.3409 H   0  0  0  0  0  0  0  0  0  0  0  0
  146.5346  135.8262  152.0566 H   0  0  0  0  0  0  0  0  0  0  0  0
  144.1197  134.5731  150.7209 H   0  0  0  0  0  0  0  0  0  0  0  0
  145.1883  133.8270  151.9068 H   0  0  0  0  0  0  0  0  0  0  0  0
  141.9847  135.1418  151.6456 H   0  0  0  0  0  0  0  0  0  0  0  0
  142.3670  133.7235  152.5978 H   0  0  0  0  0  0  0  0  0  0  0  0
  140.5176  135.1387  153.6024 H   0  0  0  0  0  0  0  0  0  0  0  0
  141.8504  134.8563  154.6861 H   0  0  0  0  0  0  0  0  0  0  0  0
  140.7782  137.3905  153.9320 H   0  0  0  0  0  0  0  0  0  0  0  0
  142.1455  137.0764  154.9652 H   0  0  0  0  0  0  0  0  0  0  0  0
  142.1874  137.5309  151.9567 H   0  0  0  0  0  0  0  0  0  0  0  0
  142.8886  138.5573  153.1768 H   0  0  0  0  0  0  0  0  0  0  0  0
  144.5916  136.8796  153.7396 H   0  0  0  0  0  0  0  0  0  0  0  0
  144.1693  134.8694  153.5648 H   0  0  0  0  0  0  0  0  0  0  0  0
  149.3216  143.1378  154.9546 H   0  0  0  0  0  0  0  0  0  0  0  0
  1  2  2  0  0  0  0
  2  3  1  0  0  0  0
  2 15  1  0  0  0  0
  3  4  1  0  0  0  0
  3 25  1  0  0  0  0
  4 14  1  0  0  0  0
  4  5  2  0  0  0  0
  5  6  1  0  0  0  0
  5 26  1  0  0  0  0
  6  7  2  0  0  0  0
  6 27  1  0  0  0  0
  7  8  1  0  0  0  0
  7 13  1  0  0  0  0
  8 12  1  0  0  0  0
  8  9  1  0  0  0  0
  9 10  1  0  0  0  0
  9 28  1  0  0  0  0
  9 29  1  0  0  0  0
 10 11  1  0  0  0  0
 10 30  1  0  0  0  0
 10 31  1  0  0  0  0
 11 12  1  0  0  0  0
 11 32  1  0  0  0  0
 11 33  1  0  0  0  0
 12 34  1  0  0  0  0
 12 35  1  0  0  0  0
 13 14  2  0  0  0  0
 13 53  1  0  0  0  0
 14 36  1  0  0  0  0
 15 16  1  0  0  0  0
 15 37  1  0  0  0  0
 16 24  1  0  0  0  0
 16 17  1  0  0  0  0
 16 38  1  0  0  0  0
 17 18  1  0  0  0  0
 17 39  1  0  0  0  0
 17 40  1  0  0  0  0
 18 19  1  0  0  0  0
 18 41  1  0  0  0  0
 18 42  1  0  0  0  0
 19 24  1  0  0  0  0
 19 20  1  0  0  0  0
 19 52  1  0  0  0  0
 20 21  1  0  0  0  0
 20 43  1  0  0  0  0
 20 44  1  0  0  0  0
 21 22  1  0  0  0  0
 21 45  1  0  0  0  0
 21 46  1  0  0  0  0
 22 23  1  0  0  0  0
 22 47  1  0  0  0  0
 22 48  1  0  0  0  0
 23 24  1  0  0  0  0
 23 49  1  0  0  0  0
 23 50  1  0  0  0  0
 24 51  1  0  0  0  0
M  CHG  1  13   1
M  CHG  1  19   1
M  END
> <s_m_source_file>
AV-unprocessed.smi

> <i_m_source_file_index>
1867

> <i_lp_mmshare_version>
43012

> <i_f3d_flags>
0

> <s_epik_input>
W0NIMl0xW0NIMl1bQ0gyXVtDSDJdW0NASF0oTjEyKVtDQEBIXShbQ0gyXVtDSDJdMilbTkhdQyg9TylbTkhdYzNbY0hdW2NIXWMobltjSF0zKU40W0NIMl1bQ0gyXVtDSDJdW0NIMl00

> <s_epik_cmdline>
J2VwaWtfcHl0aG9uJywgJy1waCcsICc3LjAnLCAnLXRuJywgJzgnLCAnLW1hJywgJzIwMCcsICctbWV0YWxfYmluZGluZycsICctaW1hZScsICc8aW5maWxlLm1hZT4nLCAnLW9tYWUnLCAnPG91dGZpbGUubWFlPic=

> <r_lp_tautomer_probability>
0.999994

> <r_epik_Ionization_Penalty>
1.27347

> <r_epik_Ionization_Penalty_Charging>
1.27345

> <r_epik_Ionization_Penalty_Neutral>
1.96458e-05

> <r_epik_State_Penalty>
1.34393

> <r_epik_Charging_Adjusted_Penalty>
2.61738

> <i_epik_Tot_Q>
2

> <i_epik_Tot_abs_Q>
2

> <r_epik_Metal_State_Penalty>
1.41094

> <b_epik_Metal_Only>
0

> <s_lp_Force_Field>
OPLS_2005

> <r_lp_Energy>
84.8883

> <b_lp_Chiralities_Consistent>
1

> <s_lp_Variant>
AV-unprocessed.smi:1867-14

> <Gold.Version>
5.8.1

> <Gold.Id.Protein>
6NUR|6NUR_protein|mol2

> <Gold.PLP.Fitness>
46.9123

> <Gold.PLP.PLP>
-40.8177

> <Gold.PLP.part.hbond>
-3.5792

> <Gold.PLP.part.metal>
0.0000

> <Gold.PLP.part.buried>
-0.1637

> <Gold.PLP.part.nonpolar>
-38.6953

> <Gold.PLP.part.repulsive>
0.6863

> <Gold.PLP.ligand.clash>
0.0000

> <Gold.PLP.ligand.torsion>
0.2277

> <Gold.PLP.Chemscore.Hbond>
2.1201

> <Gold.PLP.Chemscore.CHOScore>
0.0000

> <Gold.PLP.Chemscore.Metal>
0.0000

> <Gold.Chemscore.Hbonds>
donor molecule, donor type, donor heavy atom, donor atom, acceptor molecule, acceptor atom, score
      L1  H    13    53       P1  8028  2.00
      L1  H    15    37       P1 10171  0.11

> <Gold.PLP.Chemscore.Internal.Correction>
0.1897

> <Gold.Rescore>
     Score         DG    S(hbond)    S(metal)    S(lipo)     H(rot)  DE(clash)    DE(int)     intcor
     15.47     -19.00       1.47        0.00      95.41       1.00       1.41       2.12       ----

> <Gold.Chemscore.Fitness>
15.4673

> <Gold.Chemscore.DG>
-18.9969

> <Gold.Chemscore.ZeroCoef>
-5.4800

> <Gold.Chemscore.Hbond>
1.4712

> <Gold.Chemscore.Metal>
0.0000

> <Gold.Chemscore.Lipo>
95.4121

> <Gold.Chemscore.Internal_Hbond>
0.0000

> <Gold.Chemscore.DEClash>
1.4053

> <Gold.Chemscore.DEInternal>
2.1243

> <Gold.Chemscore.Rot>
1.0000

> <Gold.Chemscore.Internal.Correction>
   9.000000E+99

> <Gold.Chemscore.Hbonds>
donor molecule, donor type, donor heavy atom, donor atom, acceptor molecule, acceptor atom, score
      L1  H    13    53       P1  8028  0.99
      L1  H    15    37       P1 10171  0.12

> <Gold.Chemscore.Hbond.Weighted>
-4.9137

> <Gold.Chemscore.Metal.Weighted>
-0.0000

> <Gold.Chemscore.Lipo.Weighted>
-11.1632

> <Gold.Chemscore.Internal_Hbond.Weighted>
0.0000

> <Gold.Chemscore.DEClash.Weighted>
1.4053

> <Gold.Chemscore.DEInternal.Weighted>
2.1243

> <Gold.Chemscore.Rot.Weighted>
2.5600

> <Gold.Chemscore.Internal.Correction.Weighted>
   9.000000E+99

> <Gold.Protein.RotatedTorsions>
[ 6907 6896 6895 6894 ] final   23.35 input  -60.11 | X-H torsion
[ 7974 7965 7964 7962 ] final  170.89 input  175.53 | X-H torsion
[ 8008 7997 7996 7995 ] final   21.60 input   59.86 | X-H torsion
[ 10167 10162 10161 10158 ] final -135.76 input  -65.29 | X-H torsion
[ 10718 10713 10712 10709 ] final   40.10 input   66.30 | X-H torsion
[ 10763 10752 10751 10750 ] final -140.70 input  -60.55 | X-H torsion
[ 11005 11000 10999 10996 ] final -127.15 input  -57.11 | X-H torsion

> <Gold.Protein.ActiveResidues>
 VAL166  LYS551  ARG553  GLY616  TRP617  ASP618  TYR619  PRO620  LYS621  CYS622 
 ASP623  PHE694  ASN695  SER759  ASP760  ASP761  ALA762  ILE779  LEU786  VAL792 
 PHE793  MET794  SER795  GLU796  ALA797  LYS798  CYS799  TRP800  GLU811  SER814 

> <Gold.Protein.RotatedAtoms>
  151.9410  135.0213  160.0535 H   0  0  0  0  0  0  0  0  0  0  0  0  # atno 6907 bound_to 6896
  152.2036  133.4854  159.5080 H   0  0  0  0  0  0  0  0  0  0  0  0  # atno 6908 bound_to 6896
  150.6960  134.1475  159.4171 H   0  0  0  0  0  0  0  0  0  0  0  0  # atno 6909 bound_to 6896
  144.7310  139.9269  143.6423 H   0  0  0  0  0  0  0  0  0  0  0  0  # atno 7974 bound_to 7965
  154.9530  140.3068  155.5066 H   0  0  0  0  0  0  0  0  0  0  0  0  # atno 8008 bound_to 7997
  156.2985  140.2315  156.4547 H   0  0  0  0  0  0  0  0  0  0  0  0  # atno 8009 bound_to 7997
  154.8037  140.0432  157.1280 H   0  0  0  0  0  0  0  0  0  0  0  0  # atno 8010 bound_to 7997
  139.8746  143.6914  152.2635 H   0  0  0  0  0  0  0  0  0  0  0  0  # atno 10167 bound_to 10162
  157.3782  130.7739  149.7172 H   0  0  0  0  0  0  0  0  0  0  0  0  # atno 10718 bound_to 10713
  154.8570  135.3545  154.5749 H   0  0  0  0  0  0  0  0  0  0  0  0  # atno 10763 bound_to 10752
  153.6362  135.7000  153.5262 H   0  0  0  0  0  0  0  0  0  0  0  0  # atno 10764 bound_to 10752
  153.3009  135.4206  155.1211 H   0  0  0  0  0  0  0  0  0  0  0  0  # atno 10765 bound_to 10752
  140.9623  134.0919  157.3955 H   0  0  0  0  0  0  0  0  0  0  0  0  # atno 11005 bound_to 11000
  146.0887  139.3876  143.0419 LP  0  0  0  0  0  0  0  0  0  0  0  0  # atno 17320 bound_to 7965
  145.7741  140.9884  143.1134 LP  0  0  0  0  0  0  0  0  0  0  0  0  # atno 17321 bound_to 7965
  139.7252  144.7594  151.0891 LP  0  0  0  0  0  0  0  0  0  0  0  0  # atno 17342 bound_to 10162
  140.7755  143.5157  150.9597 LP  0  0  0  0  0  0  0  0  0  0  0  0  # atno 17343 bound_to 10162
  155.9770  130.4068  150.3742 LP  0  0  0  0  0  0  0  0  0  0  0  0  # atno 17370 bound_to 10713
  157.1842  131.0399  151.2733 LP  0  0  0  0  0  0  0  0  0  0  0  0  # atno 17371 bound_to 10713
  139.8882  135.0096  156.6608 LP  0  0  0  0  0  0  0  0  0  0  0  0  # atno 17394 bound_to 11000
  140.7449  133.8946  155.8305 LP  0  0  0  0  0  0  0  0  0  0  0  0  # atno 17395 bound_to 11000

$$$$
