AV-unprocessed.smi:50|AV-procd|sdf|492|dock2
  -GOLD-   2262016353D 1   1.00000     0.00000
 Structure written by MMmdl.
 44 45  0  0  0  0  0  0  0  0  2 V2000
  152.0224  141.7649  160.0998 C   0  0  0  0  0  0  0  0  0  0  0  0
  152.2983  142.8891  159.0820 C   0  0  0  0  0  0  0  0  0  0  0  0
  152.5156  144.2153  159.8347 C   0  0  0  0  0  0  0  0  0  0  0  0
  151.1770  143.0058  158.0131 C   0  0  1  0  0  0  0  0  0  0  0  0
  151.5369  143.9572  156.9450 N   0  3  0  0  0  0  0  0  0  0  0  0
  150.8510  141.6841  157.2992 C   0  0  0  0  0  0  0  0  0  0  0  0
  151.4169  140.6124  157.5205 O   0  0  0  0  0  0  0  0  0  0  0  0
  149.8929  141.8774  156.3766 O   0  0  0  0  0  0  0  0  0  0  0  0
  149.4628  140.7905  155.5720 C   0  0  0  0  0  0  0  0  0  0  0  0
  148.8733  141.3226  154.2630 C   0  0  0  0  0  0  0  0  0  0  0  0
  147.9309  142.3379  154.5680 O   0  0  0  0  0  0  0  0  0  0  0  0
  147.2444  142.8044  153.4529 C   0  0  0  0  0  0  0  0  0  0  0  0
  146.3347  143.8519  153.8829 N   0  0  0  0  0  0  0  0  0  0  0  0
  145.5276  144.6658  153.1249 C   0  0  0  0  0  0  0  0  0  0  0  0
  144.8286  145.5176  153.8220 N   0  0  0  0  0  0  0  0  0  0  0  0
  145.2006  145.2668  155.1393 C   0  0  0  0  0  0  0  0  0  0  0  0
  144.7710  145.8935  156.3574 C   0  0  0  0  0  0  0  0  0  0  0  0
  143.9577  146.8040  156.5004 O   0  0  0  0  0  0  0  0  0  0  0  0
  145.4011  145.3470  157.4828 N   0  0  0  0  0  0  0  0  0  0  0  0
  146.3355  144.3153  157.4322 C   0  0  0  0  0  0  0  0  0  0  0  0
  146.8486  143.9090  158.6008 N   0  0  0  0  0  0  0  0  0  0  0  0
  146.7272  143.7365  156.3104 N   0  0  0  0  0  0  0  0  0  0  0  0
  146.1303  144.2461  155.1882 C   0  0  0  0  0  0  0  0  0  0  0  0
  150.2735  143.3804  158.4956 H   0  0  0  0  0  0  0  0  0  0  0  0
  145.1520  145.7377  158.3796 H   0  0  0  0  0  0  0  0  0  0  0  0
  151.0793  141.9284  160.6224 H   0  0  0  0  0  0  0  0  0  0  0  0
  152.8112  141.7144  160.8510 H   0  0  0  0  0  0  0  0  0  0  0  0
  151.9735  140.7842  159.6273 H   0  0  0  0  0  0  0  0  0  0  0  0
  153.2360  142.6508  158.5768 H   0  0  0  0  0  0  0  0  0  0  0  0
  151.6035  144.5391  160.3373 H   0  0  0  0  0  0  0  0  0  0  0  0
  152.8320  145.0162  159.1665 H   0  0  0  0  0  0  0  0  0  0  0  0
  153.2913  144.1118  160.5944 H   0  0  0  0  0  0  0  0  0  0  0  0
  152.2870  143.5695  156.3909 H   0  0  0  0  0  0  0  0  0  0  0  0
  151.8397  144.8270  157.3600 H   0  0  0  0  0  0  0  0  0  0  0  0
  150.3188  140.1493  155.3578 H   0  0  0  0  0  0  0  0  0  0  0  0
  148.7241  140.1859  156.1006 H   0  0  0  0  0  0  0  0  0  0  0  0
  149.6608  141.6997  153.6085 H   0  0  0  0  0  0  0  0  0  0  0  0
  148.3717  140.5081  153.7386 H   0  0  0  0  0  0  0  0  0  0  0  0
  147.9448  143.2175  152.7243 H   0  0  0  0  0  0  0  0  0  0  0  0
  146.6583  142.0071  152.9931 H   0  0  0  0  0  0  0  0  0  0  0  0
  145.4703  144.6096  152.0475 H   0  0  0  0  0  0  0  0  0  0  0  0
  146.5505  144.3507  159.4588 H   0  0  0  0  0  0  0  0  0  0  0  0
  147.5288  143.1633  158.6277 H   0  0  0  0  0  0  0  0  0  0  0  0
  150.7332  144.1251  156.3569 H   0  0  0  0  0  0  0  0  0  0  0  0
  1  2  1  0  0  0  0
  1 26  1  0  0  0  0
  1 27  1  0  0  0  0
  1 28  1  0  0  0  0
  2  3  1  0  0  0  0
  2  4  1  0  0  0  0
  2 29  1  0  0  0  0
  3 30  1  0  0  0  0
  3 31  1  0  0  0  0
  3 32  1  0  0  0  0
  4 24  1  0  0  0  0
  4  5  1  0  0  0  0
  4  6  1  0  0  0  0
  5 33  1  0  0  0  0
  5 34  1  0  0  0  0
  5 44  1  0  0  0  0
  6  7  2  0  0  0  0
  6  8  1  0  0  0  0
  8  9  1  0  0  0  0
  9 10  1  0  0  0  0
  9 35  1  0  0  0  0
  9 36  1  0  0  0  0
 10 11  1  0  0  0  0
 10 37  1  0  0  0  0
 10 38  1  0  0  0  0
 11 12  1  0  0  0  0
 12 13  1  0  0  0  0
 12 39  1  0  0  0  0
 12 40  1  0  0  0  0
 13 23  1  0  0  0  0
 13 14  1  0  0  0  0
 14 15  2  0  0  0  0
 14 41  1  0  0  0  0
 15 16  1  0  0  0  0
 16 23  2  0  0  0  0
 16 17  1  0  0  0  0
 17 18  2  0  0  0  0
 17 19  1  0  0  0  0
 19 25  1  0  0  0  0
 19 20  1  0  0  0  0
 20 21  1  0  0  0  0
 20 22  2  0  0  0  0
 21 42  1  0  0  0  0
 21 43  1  0  0  0  0
 22 23  1  0  0  0  0
M  CHG  1   5   1
M  END
> <s_m_source_file>
AV-unprocessed.smi

> <i_m_source_file_index>
50

> <i_lp_mmshare_version>
43012

> <i_f3d_flags>
0

> <s_epik_input>
W0NIM11bQ0hdKFtDSDNdKVtDQEhdKFtOSDJdKUMoPU8pT1tDSDJdW0NIMl1PW0NIMl1uKFtjSF1uMSljKGMxMiluYyhbTkgyXSlbbkhdYzI9Tw==

> <s_epik_cmdline>
J2VwaWtfcHl0aG9uJywgJy1waCcsICc3LjAnLCAnLXRuJywgJzgnLCAnLW1hJywgJzIwMCcsICctbWV0YWxfYmluZGluZycsICctaW1hZScsICc8aW5maWxlLm1hZT4nLCAnLW9tYWUnLCAnPG91dGZpbGUubWFlPic=

> <r_lp_tautomer_probability>
0.99994

> <r_epik_Ionization_Penalty>
0.217551

> <r_epik_Ionization_Penalty_Charging>
0.217477

> <r_epik_Ionization_Penalty_Neutral>
7.42487e-05

> <r_epik_State_Penalty>
0.206211

> <r_epik_Charging_Adjusted_Penalty>
0.423688

> <i_epik_Tot_Q>
1

> <i_epik_Tot_abs_Q>
1

> <r_epik_Metal_State_Penalty>
0.526339

> <b_epik_Metal_Only>
0

> <s_epik_Chemistry_Notes>
This compound has an ester and may undergo hydrolysis at high or low pH. This compound contains an acetal/aminal-like group ( X-CH(R)-Y where X, Y are N, S, or O) that may be acid/base labile, releasing an aldehyde.

> <s_lp_Force_Field>
OPLS_2005

> <r_lp_Energy>
7.49642

> <b_lp_Chiralities_Consistent>
1

> <s_lp_Variant>
AV-unprocessed.smi:50-2

> <Gold.Version>
5.8.1

> <Gold.Id.Protein>
6NUR|6NUR_protein|mol2

> <Gold.PLP.Fitness>
44.2571

> <Gold.PLP.PLP>
-36.0876

> <Gold.PLP.part.hbond>
-1.0000

> <Gold.PLP.part.metal>
0.0000

> <Gold.PLP.part.buried>
-6.3246

> <Gold.PLP.part.nonpolar>
-29.9061

> <Gold.PLP.part.repulsive>
1.3614

> <Gold.PLP.ligand.clash>
0.0000

> <Gold.PLP.ligand.torsion>
0.2441

> <Gold.PLP.Chemscore.Hbond>
2.0000

> <Gold.PLP.Chemscore.CHOScore>
0.7711

> <Gold.PLP.Chemscore.Metal>
0.0000

> <Gold.Chemscore.Hbonds>
donor molecule, donor type, donor heavy atom, donor atom, acceptor molecule, acceptor atom, score
      L1  H     5    44       P1  8028  1.95

> <Gold.PLP.Chemscore.Internal.Correction>
0.3445

> <Gold.Rescore>
     Score         DG    S(hbond)    S(metal)    S(lipo)     H(rot)  DE(clash)    DE(int)     intcor
      1.31      -3.58       1.00        0.00      61.50       4.86       0.19       2.08       ----

> <Gold.Chemscore.Fitness>
1.3116

> <Gold.Chemscore.DG>
-3.5808

> <Gold.Chemscore.ZeroCoef>
-5.4800

> <Gold.Chemscore.Hbond>
0.9999

> <Gold.Chemscore.Metal>
0.0000

> <Gold.Chemscore.Lipo>
61.4990

> <Gold.Chemscore.Internal_Hbond>
0.0000

> <Gold.Chemscore.DEClash>
0.1891

> <Gold.Chemscore.DEInternal>
2.0801

> <Gold.Chemscore.Rot>
4.8571

> <Gold.Chemscore.Internal.Correction>
   9.000000E+99

> <Gold.Chemscore.Hbonds>
donor molecule, donor type, donor heavy atom, donor atom, acceptor molecule, acceptor atom, score
      L1  H     5    44       P1  8028  0.92

> <Gold.Chemscore.Hbond.Weighted>
-3.3397

> <Gold.Chemscore.Metal.Weighted>
-0.0000

> <Gold.Chemscore.Lipo.Weighted>
-7.1954

> <Gold.Chemscore.Internal_Hbond.Weighted>
0.0000

> <Gold.Chemscore.DEClash.Weighted>
0.1891

> <Gold.Chemscore.DEInternal.Weighted>
2.0801

> <Gold.Chemscore.Rot.Weighted>
12.4343

> <Gold.Chemscore.Internal.Correction.Weighted>
   9.000000E+99

> <Gold.Protein.RotatedTorsions>
[ 6907 6896 6895 6894 ] final  -97.09 input  -60.11 | X-H torsion
[ 7974 7965 7964 7962 ] final   95.16 input  175.53 | X-H torsion
[ 8008 7997 7996 7995 ] final  -89.17 input   59.86 | X-H torsion
[ 10167 10162 10161 10158 ] final  130.62 input  -65.29 | X-H torsion
[ 10718 10713 10712 10709 ] final -164.61 input   66.30 | X-H torsion
[ 10763 10752 10751 10750 ] final  117.93 input  -60.55 | X-H torsion
[ 11005 11000 10999 10996 ] final  143.72 input  -57.11 | X-H torsion

> <Gold.Protein.ActiveResidues>
 VAL166  LYS551  ARG553  GLY616  TRP617  ASP618  TYR619  PRO620  LYS621  CYS622 
 ASP623  PHE694  ASN695  SER759  ASP760  ASP761  ALA762  ILE779  LEU786  VAL792 
 PHE793  MET794  SER795  GLU796  ALA797  LYS798  CYS799  TRP800  GLU811  SER814 

> <Gold.Protein.RotatedAtoms>
  150.7006  134.1402  159.4101 H   0  0  0  0  0  0  0  0  0  0  0  0  # atno 6907 bound_to 6896
  151.9386  135.0221  160.0543 H   0  0  0  0  0  0  0  0  0  0  0  0  # atno 6908 bound_to 6896
  152.2113  133.4878  159.5148 H   0  0  0  0  0  0  0  0  0  0  0  0  # atno 6909 bound_to 6896
  145.4559  139.2290  143.3014 H   0  0  0  0  0  0  0  0  0  0  0  0  # atno 7974 bound_to 7965
  154.6834  140.0545  157.0289 H   0  0  0  0  0  0  0  0  0  0  0  0  # atno 8008 bound_to 7997
  155.0919  140.3220  155.4552 H   0  0  0  0  0  0  0  0  0  0  0  0  # atno 8009 bound_to 7997
  156.2702  140.2046  156.6046 H   0  0  0  0  0  0  0  0  0  0  0  0  # atno 8010 bound_to 7997
  139.5422  144.6740  151.4589 H   0  0  0  0  0  0  0  0  0  0  0  0  # atno 10167 bound_to 10162
  156.6415  130.8970  151.2997 H   0  0  0  0  0  0  0  0  0  0  0  0  # atno 10718 bound_to 10713
  153.5598  135.3523  155.2794 H   0  0  0  0  0  0  0  0  0  0  0  0  # atno 10763 bound_to 10752
  154.8696  135.4134  154.2843 H   0  0  0  0  0  0  0  0  0  0  0  0  # atno 10764 bound_to 10752
  153.3587  135.7059  153.6799 H   0  0  0  0  0  0  0  0  0  0  0  0  # atno 10765 bound_to 10752
  140.0576  134.9222  157.1127 H   0  0  0  0  0  0  0  0  0  0  0  0  # atno 11005 bound_to 11000
  146.2478  140.5323  142.8906 LP  0  0  0  0  0  0  0  0  0  0  0  0  # atno 17320 bound_to 7965
  144.8032  140.6252  143.6464 LP  0  0  0  0  0  0  0  0  0  0  0  0  # atno 17321 bound_to 7965
  140.6656  143.8405  150.6938 LP  0  0  0  0  0  0  0  0  0  0  0  0  # atno 17342 bound_to 10162
  140.1813  143.4112  152.1930 LP  0  0  0  0  0  0  0  0  0  0  0  0  # atno 17343 bound_to 10162
  157.7169  130.9509  150.1291 LP  0  0  0  0  0  0  0  0  0  0  0  0  # atno 17370 bound_to 10713
  156.2155  130.3670  149.8618 LP  0  0  0  0  0  0  0  0  0  0  0  0  # atno 17371 bound_to 10713
  140.3820  134.2277  155.7170 LP  0  0  0  0  0  0  0  0  0  0  0  0  # atno 17394 bound_to 11000
  141.1959  133.8095  157.0696 LP  0  0  0  0  0  0  0  0  0  0  0  0  # atno 17395 bound_to 11000

$$$$
