AV-unprocessed.smi:3162|AV-procd|sdf|12070|dock6
  -GOLD-   2272017503D 1   1.00000     0.00000
 Structure written by MMmdl.
 36 36  0  0  0  0  0  0  0  0  1 V2000
  147.1763  141.1230  154.2459 C   0  0  0  0  0  0  0  0  0  0  0  0
  148.7030  141.1746  154.0767 C   0  0  0  0  0  0  0  0  0  0  0  0
  149.4748  140.1615  154.9508 C   0  0  1  0  0  0  0  0  0  0  0  0
  149.1641  140.4088  156.3724 N   0  0  0  0  0  0  0  0  0  0  0  0
  149.5161  141.7320  156.8839 C   0  0  1  0  0  0  0  0  0  0  0  0
  148.8262  141.8979  158.2483 C   0  0  0  0  0  0  0  0  0  0  0  0
  151.0533  141.8642  156.9775 C   0  0  0  0  0  0  0  0  0  0  0  0
  151.4754  142.7645  158.0346 N   0  0  0  0  0  0  0  0  0  0  0  0
  151.0959  144.0720  158.2509 C   0  0  0  0  0  0  0  0  0  0  0  0
  151.7486  144.5099  159.3683 C   0  0  0  0  0  0  0  0  0  0  0  0
  151.6847  145.8600  160.0224 C   0  0  0  0  0  0  0  0  0  0  0  0
  152.5103  143.3764  159.7715 C   0  0  0  0  0  0  0  0  0  0  0  0
  152.3428  142.3337  158.9748 N   0  0  0  0  0  0  0  0  0  0  0  0
  149.2002  138.7089  154.5192 C   0  0  0  0  0  0  0  0  0  0  0  0
  149.5046  138.3766  153.2624 N   0  0  0  0  0  0  0  0  0  0  0  0
  148.7390  137.8945  155.3169 O   0  0  0  0  0  0  0  0  0  0  0  0
  146.6892  141.8113  153.5552 H   0  0  0  0  0  0  0  0  0  0  0  0
  146.8710  141.4020  155.2546 H   0  0  0  0  0  0  0  0  0  0  0  0
  146.7923  140.1230  154.0424 H   0  0  0  0  0  0  0  0  0  0  0  0
  148.9309  140.9807  153.0276 H   0  0  0  0  0  0  0  0  0  0  0  0
  149.0551  142.1885  154.2733 H   0  0  0  0  0  0  0  0  0  0  0  0
  150.5391  140.3613  154.8120 H   0  0  0  0  0  0  0  0  0  0  0  0
  149.5336  139.6870  156.9746 H   0  0  0  0  0  0  0  0  0  0  0  0
  149.1188  142.5068  156.2261 H   0  0  0  0  0  0  0  0  0  0  0  0
  148.9951  142.8924  158.6619 H   0  0  0  0  0  0  0  0  0  0  0  0
  149.1940  141.1705  158.9728 H   0  0  0  0  0  0  0  0  0  0  0  0
  147.7472  141.7657  158.1615 H   0  0  0  0  0  0  0  0  0  0  0  0
  151.5049  140.8878  157.1590 H   0  0  0  0  0  0  0  0  0  0  0  0
  151.4768  142.2284  156.0417 H   0  0  0  0  0  0  0  0  0  0  0  0
  150.4021  144.5788  157.5964 H   0  0  0  0  0  0  0  0  0  0  0  0
  152.3007  145.9053  160.9209 H   0  0  0  0  0  0  0  0  0  0  0  0
  150.6669  146.1157  160.3178 H   0  0  0  0  0  0  0  0  0  0  0  0
  152.0337  146.6472  159.3539 H   0  0  0  0  0  0  0  0  0  0  0  0
  153.1760  143.2813  160.6166 H   0  0  0  0  0  0  0  0  0  0  0  0
  149.3390  137.4359  152.9356 H   0  0  0  0  0  0  0  0  0  0  0  0
  149.8975  139.0697  152.6421 H   0  0  0  0  0  0  0  0  0  0  0  0
  1  2  1  0  0  0  0
  1 17  1  0  0  0  0
  1 18  1  0  0  0  0
  1 19  1  0  0  0  0
  2  3  1  0  0  0  0
  2 20  1  0  0  0  0
  2 21  1  0  0  0  0
  3  4  1  0  0  0  0
  3 14  1  0  0  0  0
  3 22  1  0  0  0  0
  4  5  1  0  0  0  0
  4 23  1  0  0  0  0
  5  6  1  0  0  0  0
  5  7  1  0  0  0  0
  5 24  1  0  0  0  0
  6 25  1  0  0  0  0
  6 26  1  0  0  0  0
  6 27  1  0  0  0  0
  7  8  1  0  0  0  0
  7 28  1  0  0  0  0
  7 29  1  0  0  0  0
  8 13  1  0  0  0  0
  8  9  1  0  0  0  0
  9 10  2  0  0  0  0
  9 30  1  0  0  0  0
 10 11  1  0  0  0  0
 10 12  1  0  0  0  0
 11 31  1  0  0  0  0
 11 32  1  0  0  0  0
 11 33  1  0  0  0  0
 12 13  2  0  0  0  0
 12 34  1  0  0  0  0
 14 15  1  0  0  0  0
 14 16  2  0  0  0  0
 15 35  1  0  0  0  0
 15 36  1  0  0  0  0
M  END
> <s_m_source_file>
AV-unprocessed.smi

> <i_m_source_file_index>
3162

> <i_lp_mmshare_version>
43012

> <i_f3d_flags>
0

> <s_epik_input>
W0NIM11bQ0gyXVtDQEBIXShDKD1PKVtOSDJdKVtOSF1bQ0BIXShbQ0gzXSlbQ0gyXW4xW2NIXWMoW0NIM10pW2NIXW4x

> <s_epik_cmdline>
J2VwaWtfcHl0aG9uJywgJy1waCcsICc3LjAnLCAnLXRuJywgJzgnLCAnLW1hJywgJzIwMCcsICctbWV0YWxfYmluZGluZycsICctaW1hZScsICc8aW5maWxlLm1hZT4nLCAnLW9tYWUnLCAnPG91dGZpbGUubWFlPic=

> <r_lp_tautomer_probability>
1

> <r_epik_Ionization_Penalty>
1.04167

> <r_epik_Ionization_Penalty_Charging>
0

> <r_epik_Ionization_Penalty_Neutral>
1.04167

> <r_epik_State_Penalty>
1.09367

> <r_epik_Charging_Adjusted_Penalty>
1.09367

> <i_epik_Tot_Q>
0

> <i_epik_Tot_abs_Q>
0

> <r_epik_Metal_State_Penalty>
1.09362

> <b_epik_Metal_Only>
0

> <s_lp_Force_Field>
OPLS_2005

> <r_lp_Energy>
2.92594

> <b_lp_Chiralities_Consistent>
1

> <s_lp_Variant>
AV-unprocessed.smi:3162-8

> <Gold.Version>
5.8.1

> <Gold.Id.Protein>
6NUR|6NUR_protein|mol2

> <Gold.PLP.Fitness>
43.3140

> <Gold.PLP.PLP>
-35.3354

> <Gold.PLP.part.hbond>
-2.0000

> <Gold.PLP.part.metal>
0.0000

> <Gold.PLP.part.buried>
-3.7836

> <Gold.PLP.part.nonpolar>
-30.0554

> <Gold.PLP.part.repulsive>
0.1607

> <Gold.PLP.ligand.clash>
0.0000

> <Gold.PLP.ligand.torsion>
0.4861

> <Gold.PLP.Chemscore.Hbond>
1.9440

> <Gold.PLP.Chemscore.CHOScore>
1.0000

> <Gold.PLP.Chemscore.Metal>
0.0000

> <Gold.Chemscore.Hbonds>
donor molecule, donor type, donor heavy atom, donor atom, acceptor molecule, acceptor atom, score
      L1  H    15    35       P1  7948  1.00
      L1  H    15    36       P1  7957  0.90
      L1  C     9    30       P1  8028  1.00
      L1  C     9    30       P1  8029  0.02

> <Gold.PLP.Chemscore.Internal.Correction>
0.1188

> <Gold.Rescore>
     Score         DG    S(hbond)    S(metal)    S(lipo)     H(rot)  DE(clash)    DE(int)     intcor
     15.24     -15.81       1.95        0.00      85.77       2.43       0.07       0.49       ----

> <Gold.Chemscore.Fitness>
15.2448

> <Gold.Chemscore.DG>
-15.8101

> <Gold.Chemscore.ZeroCoef>
-5.4800

> <Gold.Chemscore.Hbond>
1.9530

> <Gold.Chemscore.Metal>
0.0000

> <Gold.Chemscore.Lipo>
85.7701

> <Gold.Chemscore.Internal_Hbond>
0.0000

> <Gold.Chemscore.DEClash>
0.0710

> <Gold.Chemscore.DEInternal>
0.4943

> <Gold.Chemscore.Rot>
2.4328

> <Gold.Chemscore.Internal.Correction>
   9.000000E+99

> <Gold.Chemscore.Hbonds>
donor molecule, donor type, donor heavy atom, donor atom, acceptor molecule, acceptor atom, score
      L1  H    15    35       P1  7948  0.93
      L1  H    15    36       P1  7957  0.72

> <Gold.Chemscore.Hbond.Weighted>
-6.5230

> <Gold.Chemscore.Metal.Weighted>
-0.0000

> <Gold.Chemscore.Lipo.Weighted>
-10.0351

> <Gold.Chemscore.Internal_Hbond.Weighted>
0.0000

> <Gold.Chemscore.DEClash.Weighted>
0.0710

> <Gold.Chemscore.DEInternal.Weighted>
0.4943

> <Gold.Chemscore.Rot.Weighted>
6.2279

> <Gold.Chemscore.Internal.Correction.Weighted>
   9.000000E+99

> <Gold.Protein.RotatedTorsions>
[ 6907 6896 6895 6894 ] final   57.63 input  -60.11 | X-H torsion
[ 7974 7965 7964 7962 ] final   49.06 input  175.53 | X-H torsion
[ 8008 7997 7996 7995 ] final  135.08 input   59.86 | X-H torsion
[ 10167 10162 10161 10158 ] final   98.34 input  -65.29 | X-H torsion
[ 10718 10713 10712 10709 ] final -155.32 input   66.30 | X-H torsion
[ 10763 10752 10751 10750 ] final  -96.86 input  -60.55 | X-H torsion
[ 11005 11000 10999 10996 ] final  -74.51 input  -57.11 | X-H torsion

> <Gold.Protein.ActiveResidues>
 VAL166  LYS551  ARG553  GLY616  TRP617  ASP618  TYR619  PRO620  LYS621  CYS622 
 ASP623  PHE694  ASN695  SER759  ASP760  ASP761  ALA762  ILE779  LEU786  VAL792 
 PHE793  MET794  SER795  GLU796  ALA797  LYS798  CYS799  TRP800  GLU811  SER814 

> <Gold.Protein.RotatedAtoms>
  152.3750  134.6678  160.0162 H   0  0  0  0  0  0  0  0  0  0  0  0  # atno 6907 bound_to 6896
  151.6959  133.3305  159.3262 H   0  0  0  0  0  0  0  0  0  0  0  0  # atno 6908 bound_to 6896
  150.7702  134.6593  159.6376 H   0  0  0  0  0  0  0  0  0  0  0  0  # atno 6909 bound_to 6896
  146.0145  139.4581  142.9935 H   0  0  0  0  0  0  0  0  0  0  0  0  # atno 7974 bound_to 7965
  156.3002  140.2479  156.3523 H   0  0  0  0  0  0  0  0  0  0  0  0  # atno 8008 bound_to 7997
  154.8954  140.0408  157.1882 H   0  0  0  0  0  0  0  0  0  0  0  0  # atno 8009 bound_to 7997
  154.8555  140.2912  155.5575 H   0  0  0  0  0  0  0  0  0  0  0  0  # atno 8010 bound_to 7997
  139.7718  144.6920  151.0145 H   0  0  0  0  0  0  0  0  0  0  0  0  # atno 10167 bound_to 10162
  156.5112  130.8435  151.2647 H   0  0  0  0  0  0  0  0  0  0  0  0  # atno 10718 bound_to 10713
  154.7277  135.5068  153.8913 H   0  0  0  0  0  0  0  0  0  0  0  0  # atno 10763 bound_to 10752
  153.0920  135.6662  153.9844 H   0  0  0  0  0  0  0  0  0  0  0  0  # atno 10764 bound_to 10752
  153.9652  135.3044  155.3410 H   0  0  0  0  0  0  0  0  0  0  0  0  # atno 10765 bound_to 10752
  141.1636  133.6914  156.7375 H   0  0  0  0  0  0  0  0  0  0  0  0  # atno 11005 bound_to 11000
  145.7290  141.0049  143.1362 LP  0  0  0  0  0  0  0  0  0  0  0  0  # atno 17320 bound_to 7965
  144.6965  139.8961  143.7456 LP  0  0  0  0  0  0  0  0  0  0  0  0  # atno 17321 bound_to 7965
  140.7814  143.4580  151.0318 LP  0  0  0  0  0  0  0  0  0  0  0  0  # atno 17342 bound_to 10162
  139.8264  143.7751  152.3178 LP  0  0  0  0  0  0  0  0  0  0  0  0  # atno 17343 bound_to 10162
  157.7450  130.9949  150.2724 LP  0  0  0  0  0  0  0  0  0  0  0  0  # atno 17370 bound_to 10713
  156.3239  130.3790  149.7551 LP  0  0  0  0  0  0  0  0  0  0  0  0  # atno 17371 bound_to 10713
  140.2699  134.8400  157.3837 LP  0  0  0  0  0  0  0  0  0  0  0  0  # atno 17394 bound_to 11000
  140.1531  134.4824  155.7947 LP  0  0  0  0  0  0  0  0  0  0  0  0  # atno 17395 bound_to 11000

$$$$
