AV-unprocessed.smi:246|AV-procd|sdf|1887|dock7
  -GOLD-   2262020543D 1   1.00000     0.00000
 Structure written by MMmdl.
 57 60  0  0  0  0  0  0  0  0  1 V2000
  148.4301  145.1477  161.1574 C   0  0  0  0  0  0  0  0  0  0  0  0
  149.1654  144.8372  159.8464 C   0  0  0  0  0  0  0  0  0  0  0  0
  150.2134  145.7627  159.5937 O   0  0  0  0  0  0  0  0  0  0  0  0
  151.3917  145.5333  160.3525 C   0  0  0  0  0  0  0  0  0  0  0  0
  151.9158  144.1277  160.0460 C   0  0  0  0  0  0  0  0  0  0  0  0
  151.5287  143.7653  158.7287 O   0  0  0  0  0  0  0  0  0  0  0  0
  151.2639  142.3785  158.5783 C   0  0  2  0  0  0  0  0  0  0  0  0
  152.4083  141.5375  159.1405 C   0  0  0  0  0  0  0  0  0  0  0  0
  152.2412  140.2123  158.3993 C   0  0  0  0  0  0  0  0  0  0  0  0
  151.7535  140.5864  157.0783 N   0  0  0  0  0  0  0  0  0  0  0  0
  151.2866  139.6615  156.2008 C   0  0  0  0  0  0  0  0  0  0  0  0
  150.8288  140.0739  154.9888 N   0  0  0  0  0  0  0  0  0  0  0  0
  150.3716  139.1884  154.0991 C   0  0  0  0  0  0  0  0  0  0  0  0
  150.2781  137.8629  154.2139 N   0  0  0  0  0  0  0  0  0  0  0  0
  150.7219  137.4404  155.4321 C   0  0  0  0  0  0  0  0  0  0  0  0
  151.2298  138.2640  156.4778 C   0  0  0  0  0  0  0  0  0  0  0  0
  151.5546  137.4767  157.5773 N   0  0  0  0  0  0  0  0  0  0  0  0
  151.2666  136.2620  157.2000 C   0  0  0  0  0  0  0  0  0  0  0  0
  150.7784  136.1459  155.9186 N   0  0  0  0  0  0  0  0  0  0  0  0
  150.3920  134.9168  155.2446 C   0  0  0  0  0  0  0  0  0  0  0  0
  149.1280  134.2397  155.8240 C   0  0  1  0  0  0  0  0  0  0  0  0
  147.9636  134.9779  155.5079 O   0  0  0  0  0  0  0  0  0  0  0  0
  148.9386  132.7527  155.4448 C   0  0  1  0  0  0  0  0  0  0  0  0
  148.9283  132.4449  153.9431 C   0  0  0  0  0  0  0  0  0  0  0  0
  149.3967  131.0071  153.9201 C   0  0  0  0  0  0  0  0  0  0  0  0
  150.4391  131.0108  155.0321 C   0  0  0  0  0  0  0  0  0  0  0  0
  149.9301  131.9014  156.0176 O   0  0  0  0  0  0  0  0  0  0  0  0
  151.1851  141.9281  157.1122 C   0  0  0  0  0  0  0  0  0  0  0  0
  150.3456  142.1025  159.1002 H   0  0  0  0  0  0  0  0  0  0  0  0
  147.5703  144.4894  161.2808 H   0  0  0  0  0  0  0  0  0  0  0  0
  148.0660  146.1751  161.1668 H   0  0  0  0  0  0  0  0  0  0  0  0
  149.0720  145.0101  162.0269 H   0  0  0  0  0  0  0  0  0  0  0  0
  149.5391  143.8121  159.8386 H   0  0  0  0  0  0  0  0  0  0  0  0
  148.4569  144.9134  159.0214 H   0  0  0  0  0  0  0  0  0  0  0  0
  152.1615  146.2751  160.1397 H   0  0  0  0  0  0  0  0  0  0  0  0
  151.1534  145.6044  161.4148 H   0  0  0  0  0  0  0  0  0  0  0  0
  153.0048  144.1279  160.1118 H   0  0  0  0  0  0  0  0  0  0  0  0
  151.5437  143.4147  160.7829 H   0  0  0  0  0  0  0  0  0  0  0  0
  153.3668  141.9878  158.8783 H   0  0  0  0  0  0  0  0  0  0  0  0
  152.3690  141.4291  160.2245 H   0  0  0  0  0  0  0  0  0  0  0  0
  153.1797  139.6605  158.3390 H   0  0  0  0  0  0  0  0  0  0  0  0
  151.5036  139.5876  158.9051 H   0  0  0  0  0  0  0  0  0  0  0  0
  150.0338  139.6016  153.1602 H   0  0  0  0  0  0  0  0  0  0  0  0
  151.4187  135.4087  157.8450 H   0  0  0  0  0  0  0  0  0  0  0  0
  150.2374  135.1408  154.1886 H   0  0  0  0  0  0  0  0  0  0  0  0
  151.2357  134.2269  155.2867 H   0  0  0  0  0  0  0  0  0  0  0  0
  149.2189  134.2835  156.9099 H   0  0  0  0  0  0  0  0  0  0  0  0
  147.3348  134.8610  156.2037 H   0  0  0  0  0  0  0  0  0  0  0  0
  147.9862  132.4153  155.8564 H   0  0  0  0  0  0  0  0  0  0  0  0
  147.9467  132.5819  153.4890 H   0  0  0  0  0  0  0  0  0  0  0  0
  149.6411  133.0681  153.4019 H   0  0  0  0  0  0  0  0  0  0  0  0
  148.5738  130.3383  154.1761 H   0  0  0  0  0  0  0  0  0  0  0  0
  149.8022  130.7019  152.9553 H   0  0  0  0  0  0  0  0  0  0  0  0
  150.6219  130.0183  155.4443 H   0  0  0  0  0  0  0  0  0  0  0  0
  151.3865  131.4065  154.6637 H   0  0  0  0  0  0  0  0  0  0  0  0
  150.1561  141.9552  156.7515 H   0  0  0  0  0  0  0  0  0  0  0  0
  151.7897  142.5750  156.4755 H   0  0  0  0  0  0  0  0  0  0  0  0
  1  2  1  0  0  0  0
  1 30  1  0  0  0  0
  1 31  1  0  0  0  0
  1 32  1  0  0  0  0
  2  3  1  0  0  0  0
  2 33  1  0  0  0  0
  2 34  1  0  0  0  0
  3  4  1  0  0  0  0
  4  5  1  0  0  0  0
  4 35  1  0  0  0  0
  4 36  1  0  0  0  0
  5  6  1  0  0  0  0
  5 37  1  0  0  0  0
  5 38  1  0  0  0  0
  6  7  1  0  0  0  0
  7 29  1  0  0  0  0
  7 28  1  0  0  0  0
  7  8  1  0  0  0  0
  8  9  1  0  0  0  0
  8 39  1  0  0  0  0
  8 40  1  0  0  0  0
  9 10  1  0  0  0  0
  9 41  1  0  0  0  0
  9 42  1  0  0  0  0
 10 11  1  0  0  0  0
 10 28  1  0  0  0  0
 11 16  1  0  0  0  0
 11 12  2  0  0  0  0
 12 13  1  0  0  0  0
 13 14  2  0  0  0  0
 13 43  1  0  0  0  0
 14 15  1  0  0  0  0
 15 19  1  0  0  0  0
 15 16  2  0  0  0  0
 16 17  1  0  0  0  0
 17 18  2  0  0  0  0
 18 19  1  0  0  0  0
 18 44  1  0  0  0  0
 19 20  1  0  0  0  0
 20 21  1  0  0  0  0
 20 45  1  0  0  0  0
 20 46  1  0  0  0  0
 21 22  1  0  0  0  0
 21 23  1  0  0  0  0
 21 47  1  0  0  0  0
 22 48  1  0  0  0  0
 23 27  1  0  0  0  0
 23 24  1  0  0  0  0
 23 49  1  0  0  0  0
 24 25  1  0  0  0  0
 24 50  1  0  0  0  0
 24 51  1  0  0  0  0
 25 26  1  0  0  0  0
 25 52  1  0  0  0  0
 25 53  1  0  0  0  0
 26 27  1  0  0  0  0
 26 54  1  0  0  0  0
 26 55  1  0  0  0  0
 28 56  1  0  0  0  0
 28 57  1  0  0  0  0
M  END
> <s_m_source_file>
AV-unprocessed.smi

> <i_m_source_file_index>
246

> <i_lp_mmshare_version>
43012

> <i_f3d_flags>
0

> <s_epik_input>
W0NIM11bQ0gyXU9bQ0gyXVtDSDJdT1tDQEhdMVtDSDJdW0NIMl1OKFtDSDJdMSljKG5bY0hdbjIpYyhjMjMpbltjSF1uM1tDSDJdW0NASF0oW09IXSlbQ0BASF00W0NIMl1bQ0gyXVtDSDJdTzQ=

> <s_epik_cmdline>
J2VwaWtfcHl0aG9uJywgJy1waCcsICc3LjAnLCAnLXRuJywgJzgnLCAnLW1hJywgJzIwMCcsICctbWV0YWxfYmluZGluZycsICctaW1hZScsICc8aW5maWxlLm1hZT4nLCAnLW9tYWUnLCAnPG91dGZpbGUubWFlPic=

> <r_lp_tautomer_probability>
1

> <r_epik_Ionization_Penalty>
0.0024631

> <r_epik_Ionization_Penalty_Charging>
0

> <r_epik_Ionization_Penalty_Neutral>
0.0024631

> <r_epik_State_Penalty>
0.00162428

> <r_epik_Charging_Adjusted_Penalty>
0.00162428

> <i_epik_Tot_Q>
0

> <i_epik_Tot_abs_Q>
0

> <r_epik_Metal_State_Penalty>
-0

> <b_epik_Metal_Only>
0

> <s_lp_Force_Field>
OPLS_2005

> <r_lp_Energy>
52.7235

> <b_lp_Chiralities_Consistent>
1

> <s_lp_Variant>
AV-unprocessed.smi:246-8

> <Gold.Version>
5.8.1

> <Gold.Id.Protein>
6NUR|6NUR_protein|mol2

> <Gold.PLP.Fitness>
47.7834

> <Gold.PLP.PLP>
-44.5841

> <Gold.PLP.part.hbond>
-2.7055

> <Gold.PLP.part.metal>
0.0000

> <Gold.PLP.part.buried>
-5.0664

> <Gold.PLP.part.nonpolar>
-36.6503

> <Gold.PLP.part.repulsive>
1.0779

> <Gold.PLP.ligand.clash>
0.0000

> <Gold.PLP.ligand.torsion>
1.0784

> <Gold.PLP.Chemscore.Hbond>
0.6000

> <Gold.PLP.Chemscore.CHOScore>
1.0000

> <Gold.PLP.Chemscore.Metal>
0.0000

> <Gold.Chemscore.Hbonds>
donor molecule, donor type, donor heavy atom, donor atom, acceptor molecule, acceptor atom, score
      P1  H  7989  7998       L1    12  0.20
      L1  C    13    43       P1  7957  1.00

> <Gold.PLP.Chemscore.Internal.Correction>
0.5561

> <Gold.Rescore>
     Score         DG    S(hbond)    S(metal)    S(lipo)     H(rot)  DE(clash)    DE(int)     intcor
      6.15      -8.93       0.02        0.00      96.70       3.10       0.15       2.63       ----

> <Gold.Chemscore.Fitness>
6.1484

> <Gold.Chemscore.DG>
-8.9273

> <Gold.Chemscore.ZeroCoef>
-5.4800

> <Gold.Chemscore.Hbond>
0.0228

> <Gold.Chemscore.Metal>
0.0000

> <Gold.Chemscore.Lipo>
96.6989

> <Gold.Chemscore.Internal_Hbond>
0.0000

> <Gold.Chemscore.DEClash>
0.1533

> <Gold.Chemscore.DEInternal>
2.6256

> <Gold.Chemscore.Rot>
3.1026

> <Gold.Chemscore.Internal.Correction>
   9.000000E+99

> <Gold.Chemscore.Hbond.Weighted>
-0.0762

> <Gold.Chemscore.Metal.Weighted>
-0.0000

> <Gold.Chemscore.Lipo.Weighted>
-11.3138

> <Gold.Chemscore.Internal_Hbond.Weighted>
0.0000

> <Gold.Chemscore.DEClash.Weighted>
0.1533

> <Gold.Chemscore.DEInternal.Weighted>
2.6256

> <Gold.Chemscore.Rot.Weighted>
7.9426

> <Gold.Chemscore.Internal.Correction.Weighted>
   9.000000E+99

> <Gold.Protein.RotatedTorsions>
[ 6907 6896 6895 6894 ] final   32.57 input  -60.11 | X-H torsion
[ 7974 7965 7964 7962 ] final -156.88 input  175.53 | X-H torsion
[ 8008 7997 7996 7995 ] final  -68.10 input   59.86 | X-H torsion
[ 10167 10162 10161 10158 ] final  169.63 input  -65.29 | X-H torsion
[ 10718 10713 10712 10709 ] final -149.01 input   66.30 | X-H torsion
[ 10763 10752 10751 10750 ] final   91.27 input  -60.55 | X-H torsion
[ 11005 11000 10999 10996 ] final   -5.37 input  -57.11 | X-H torsion

> <Gold.Protein.ActiveResidues>
 VAL166  LYS551  ARG553  GLY616  TRP617  ASP618  TYR619  PRO620  LYS621  CYS622 
 ASP623  PHE694  ASN695  SER759  ASP760  ASP761  ALA762  ILE779  LEU786  VAL792 
 PHE793  MET794  SER795  GLU796  ALA797  LYS798  CYS799  TRP800  GLU811  SER814 

> <Gold.Protein.RotatedAtoms>
  152.0763  134.9501  160.0573 H   0  0  0  0  0  0  0  0  0  0  0  0  # atno 6907 bound_to 6896
  152.0807  133.4146  159.4508 H   0  0  0  0  0  0  0  0  0  0  0  0  # atno 6908 bound_to 6896
  150.6836  134.2905  159.4708 H   0  0  0  0  0  0  0  0  0  0  0  0  # atno 6909 bound_to 6896
  144.7573  140.4048  143.6003 H   0  0  0  0  0  0  0  0  0  0  0  0  # atno 7974 bound_to 7965
  154.4845  140.0879  156.7453 H   0  0  0  0  0  0  0  0  0  0  0  0  # atno 8008 bound_to 7997
  155.4386  140.3453  155.4269 H   0  0  0  0  0  0  0  0  0  0  0  0  # atno 8009 bound_to 7997
  156.1240  140.1482  156.9151 H   0  0  0  0  0  0  0  0  0  0  0  0  # atno 8010 bound_to 7997
  139.4997  144.3685  151.9750 H   0  0  0  0  0  0  0  0  0  0  0  0  # atno 10167 bound_to 10162
  156.4276  130.8060  151.2285 H   0  0  0  0  0  0  0  0  0  0  0  0  # atno 10718 bound_to 10713
  153.2065  135.4403  155.0328 H   0  0  0  0  0  0  0  0  0  0  0  0  # atno 10763 bound_to 10752
  154.8176  135.3322  154.7134 H   0  0  0  0  0  0  0  0  0  0  0  0  # atno 10764 bound_to 10752
  153.7575  135.6994  153.4988 H   0  0  0  0  0  0  0  0  0  0  0  0  # atno 10765 bound_to 10752
  140.6904  133.9076  155.8614 H   0  0  0  0  0  0  0  0  0  0  0  0  # atno 11005 bound_to 11000
  145.6736  139.1604  143.2740 LP  0  0  0  0  0  0  0  0  0  0  0  0  # atno 17320 bound_to 7965
  146.1598  140.6805  142.9283 LP  0  0  0  0  0  0  0  0  0  0  0  0  # atno 17321 bound_to 7965
  140.3121  144.3526  150.6031 LP  0  0  0  0  0  0  0  0  0  0  0  0  # atno 17342 bound_to 10162
  140.5790  143.2174  151.7462 LP  0  0  0  0  0  0  0  0  0  0  0  0  # atno 17343 bound_to 10162
  157.7508  131.0208  150.3725 LP  0  0  0  0  0  0  0  0  0  0  0  0  # atno 17370 bound_to 10713
  156.4055  130.3924  149.6928 LP  0  0  0  0  0  0  0  0  0  0  0  0  # atno 17371 bound_to 10713
  141.0246  134.0842  157.4083 LP  0  0  0  0  0  0  0  0  0  0  0  0  # atno 17394 bound_to 11000
  139.8925  135.0125  156.6849 LP  0  0  0  0  0  0  0  0  0  0  0  0  # atno 17395 bound_to 11000

$$$$
