AV-unprocessed.smi:1138|AV-procd|sdf|4868|dock7
  -GOLD-   22720 3443D 1   1.00000     0.00000
 Structure written by MMmdl.
 49 51  0  0  0  0  0  0  0  0  1 V2000
  146.1602  132.6203  149.9020 C   0  0  0  0  0  0  0  0  0  0  0  0
  145.1399  132.6647  150.9446 N   0  0  0  0  0  0  0  0  0  0  0  0
  144.7663  131.4400  151.6417 C   0  0  0  0  0  0  0  0  0  0  0  0
  144.6619  133.9135  151.4043 C   0  0  0  0  0  0  0  0  0  0  0  0
  145.3746  135.1136  151.1599 C   0  0  0  0  0  0  0  0  0  0  0  0
  144.8519  136.3322  151.6325 C   0  0  0  0  0  0  0  0  0  0  0  0
  143.6291  136.3352  152.3299 C   0  0  0  0  0  0  0  0  0  0  0  0
  143.1319  137.5794  152.8033 N   0  0  0  0  0  0  0  0  0  0  0  0
  142.1131  137.8027  153.6511 C   0  0  0  0  0  0  0  0  0  0  0  0
  141.4172  136.9320  154.1735 O   0  0  0  0  0  0  0  0  0  0  0  0
  141.9268  139.1154  153.8499 N   0  0  0  0  0  0  0  0  0  0  0  0
  140.8861  139.6995  154.6909 C   0  0  0  0  0  0  0  0  0  0  0  0
  139.4968  139.3698  154.1045 C   0  0  0  0  0  0  0  0  0  0  0  0
  138.3794  140.1164  154.8556 C   0  0  0  0  0  0  0  0  0  0  0  0
  138.6643  141.5563  154.8155 N   0  0  0  0  0  0  0  0  0  0  0  0
  137.9099  142.4308  154.1035 C   0  0  0  0  0  0  0  0  0  0  0  0
  138.2168  143.6183  153.9865 O   0  0  0  0  0  0  0  0  0  0  0  0
  136.6583  141.8991  153.4742 C   0  0  0  0  0  0  0  0  0  0  0  0
  135.8489  142.8673  152.6371 C   0  0  0  0  0  0  0  0  0  0  0  0
  135.3217  142.4175  153.9740 C   0  0  0  0  0  0  0  0  0  0  0  0
  139.8945  141.8761  155.5535 C   0  0  0  0  0  0  0  0  0  0  0  0
  141.0892  141.2254  154.8342 C   0  0  0  0  0  0  0  0  0  0  0  0
  142.9956  135.0888  152.5436 C   0  0  0  0  0  0  0  0  0  0  0  0
  143.4947  133.9182  152.0938 N   0  0  0  0  0  0  0  0  0  0  0  0
  145.8083  133.1180  148.9979 H   0  0  0  0  0  0  0  0  0  0  0  0
  146.4145  131.5941  149.6374 H   0  0  0  0  0  0  0  0  0  0  0  0
  147.0718  133.1161  150.2380 H   0  0  0  0  0  0  0  0  0  0  0  0
  143.6932  131.2648  151.5605 H   0  0  0  0  0  0  0  0  0  0  0  0
  145.0330  131.5024  152.6972 H   0  0  0  0  0  0  0  0  0  0  0  0
  145.2764  130.5732  151.2212 H   0  0  0  0  0  0  0  0  0  0  0  0
  146.3098  135.1249  150.6211 H   0  0  0  0  0  0  0  0  0  0  0  0
  145.3854  137.2544  151.4531 H   0  0  0  0  0  0  0  0  0  0  0  0
  143.5585  138.3987  152.3961 H   0  0  0  0  0  0  0  0  0  0  0  0
  142.5431  139.7601  153.3769 H   0  0  0  0  0  0  0  0  0  0  0  0
  140.9367  139.2515  155.6853 H   0  0  0  0  0  0  0  0  0  0  0  0
  139.4639  139.6489  153.0500 H   0  0  0  0  0  0  0  0  0  0  0  0
  139.3183  138.2947  154.1454 H   0  0  0  0  0  0  0  0  0  0  0  0
  137.4112  139.8611  154.4229 H   0  0  0  0  0  0  0  0  0  0  0  0
  138.3358  139.7833  155.8936 H   0  0  0  0  0  0  0  0  0  0  0  0
  136.6725  140.8536  153.1712 H   0  0  0  0  0  0  0  0  0  0  0  0
  136.1999  143.8951  152.5575 H   0  0  0  0  0  0  0  0  0  0  0  0
  135.3792  142.4701  151.7399 H   0  0  0  0  0  0  0  0  0  0  0  0
  134.4919  141.7137  153.9832 H   0  0  0  0  0  0  0  0  0  0  0  0
  135.3011  143.1585  154.7711 H   0  0  0  0  0  0  0  0  0  0  0  0
  140.0674  142.9434  155.6839 H   0  0  0  0  0  0  0  0  0  0  0  0
  139.8150  141.4784  156.5663 H   0  0  0  0  0  0  0  0  0  0  0  0
  142.0088  141.4333  155.3824 H   0  0  0  0  0  0  0  0  0  0  0  0
  141.2062  141.6799  153.8491 H   0  0  0  0  0  0  0  0  0  0  0  0
  142.0768  135.0007  153.1015 H   0  0  0  0  0  0  0  0  0  0  0  0
  1  2  1  0  0  0  0
  1 25  1  0  0  0  0
  1 26  1  0  0  0  0
  1 27  1  0  0  0  0
  2  3  1  0  0  0  0
  2  4  1  0  0  0  0
  3 28  1  0  0  0  0
  3 29  1  0  0  0  0
  3 30  1  0  0  0  0
  4 24  1  0  0  0  0
  4  5  2  0  0  0  0
  5  6  1  0  0  0  0
  5 31  1  0  0  0  0
  6  7  2  0  0  0  0
  6 32  1  0  0  0  0
  7  8  1  0  0  0  0
  7 23  1  0  0  0  0
  8  9  1  0  0  0  0
  8 33  1  0  0  0  0
  9 10  2  0  0  0  0
  9 11  1  0  0  0  0
 11 12  1  0  0  0  0
 11 34  1  0  0  0  0
 12 22  1  0  0  0  0
 12 13  1  0  0  0  0
 12 35  1  0  0  0  0
 13 14  1  0  0  0  0
 13 36  1  0  0  0  0
 13 37  1  0  0  0  0
 14 15  1  0  0  0  0
 14 38  1  0  0  0  0
 14 39  1  0  0  0  0
 15 16  1  0  0  0  0
 15 21  1  0  0  0  0
 16 17  2  0  0  0  0
 16 18  1  0  0  0  0
 18 20  1  0  0  0  0
 18 19  1  0  0  0  0
 18 40  1  0  0  0  0
 19 20  1  0  0  0  0
 19 41  1  0  0  0  0
 19 42  1  0  0  0  0
 20 43  1  0  0  0  0
 20 44  1  0  0  0  0
 21 22  1  0  0  0  0
 21 45  1  0  0  0  0
 21 46  1  0  0  0  0
 22 47  1  0  0  0  0
 22 48  1  0  0  0  0
 23 24  2  0  0  0  0
 23 49  1  0  0  0  0
M  END
> <s_m_source_file>
AV-unprocessed.smi

> <i_m_source_file_index>
1138

> <i_lp_mmshare_version>
43012

> <i_f3d_flags>
0

> <s_epik_input>
W0NIM11OKFtDSDNdKWMxW2NIXVtjSF1jKFtjSF1uMSlbTkhdQyg9TylbTkhdW0NIXTJbQ0gyXVtDSDJdTihbQ0gyXVtDSDJdMilDKD1PKVtDSF0zW0NIMl1bQ0gyXTM=

> <s_epik_cmdline>
J2VwaWtfcHl0aG9uJywgJy1waCcsICc3LjAnLCAnLXRuJywgJzgnLCAnLW1hJywgJzIwMCcsICctbWV0YWxfYmluZGluZycsICctaW1hZScsICc8aW5maWxlLm1hZT4nLCAnLW9tYWUnLCAnPG91dGZpbGUubWFlPic=

> <r_lp_tautomer_probability>
1

> <r_epik_Ionization_Penalty>
0.622325

> <r_epik_Ionization_Penalty_Charging>
0

> <r_epik_Ionization_Penalty_Neutral>
0.622325

> <r_epik_State_Penalty>
0.637335

> <r_epik_Charging_Adjusted_Penalty>
0.637335

> <i_epik_Tot_Q>
0

> <i_epik_Tot_abs_Q>
0

> <r_epik_Metal_State_Penalty>
0.306682

> <b_epik_Metal_Only>
0

> <s_lp_Force_Field>
OPLS_2005

> <r_lp_Energy>
33.2088

> <b_lp_Chiralities_Consistent>
1

> <s_lp_Variant>
AV-unprocessed.smi:1138-2

> <Gold.Version>
5.8.1

> <Gold.Id.Protein>
6NUR|6NUR_protein|mol2

> <Gold.PLP.Fitness>
45.2144

> <Gold.PLP.PLP>
-37.7070

> <Gold.PLP.part.hbond>
-3.5262

> <Gold.PLP.part.metal>
0.0000

> <Gold.PLP.part.buried>
-3.6928

> <Gold.PLP.part.nonpolar>
-29.7898

> <Gold.PLP.part.repulsive>
0.2974

> <Gold.PLP.ligand.clash>
0.0000

> <Gold.PLP.ligand.torsion>
0.3196

> <Gold.PLP.Chemscore.Hbond>
2.6744

> <Gold.PLP.Chemscore.CHOScore>
0.0000

> <Gold.PLP.Chemscore.Metal>
0.0000

> <Gold.Chemscore.Hbonds>
donor molecule, donor type, donor heavy atom, donor atom, acceptor molecule, acceptor atom, score
      L1  H     8    33       P1 10175  0.89
      L1  H    11    34       P1 10175  1.00
      P1  H 10162 10167       L1    17  0.44

> <Gold.PLP.Chemscore.Internal.Correction>
0.1234

> <Gold.Rescore>
     Score         DG    S(hbond)    S(metal)    S(lipo)     H(rot)  DE(clash)    DE(int)     intcor
     18.38     -20.21       2.44        0.00      82.38       1.20       0.10       1.73       ----

> <Gold.Chemscore.Fitness>
18.3816

> <Gold.Chemscore.DG>
-20.2089

> <Gold.Chemscore.ZeroCoef>
-5.4800

> <Gold.Chemscore.Hbond>
2.4416

> <Gold.Chemscore.Metal>
0.0000

> <Gold.Chemscore.Lipo>
82.3768

> <Gold.Chemscore.Internal_Hbond>
0.0000

> <Gold.Chemscore.DEClash>
0.0957

> <Gold.Chemscore.DEInternal>
1.7316

> <Gold.Chemscore.Rot>
1.1969

> <Gold.Chemscore.Internal.Correction>
   9.000000E+99

> <Gold.Chemscore.Hbonds>
donor molecule, donor type, donor heavy atom, donor atom, acceptor molecule, acceptor atom, score
      L1  H     8    33       P1 10175  0.81
      L1  H    11    34       P1 10175  0.93
      P1  H 10162 10167       L1    17  0.36

> <Gold.Chemscore.Hbond.Weighted>
-8.1550

> <Gold.Chemscore.Metal.Weighted>
-0.0000

> <Gold.Chemscore.Lipo.Weighted>
-9.6381

> <Gold.Chemscore.Internal_Hbond.Weighted>
0.0000

> <Gold.Chemscore.DEClash.Weighted>
0.0957

> <Gold.Chemscore.DEInternal.Weighted>
1.7316

> <Gold.Chemscore.Rot.Weighted>
3.0641

> <Gold.Chemscore.Internal.Correction.Weighted>
   9.000000E+99

> <Gold.Protein.RotatedTorsions>
[ 6907 6896 6895 6894 ] final   17.24 input  -60.11 | X-H torsion
[ 7974 7965 7964 7962 ] final  175.15 input  175.53 | X-H torsion
[ 8008 7997 7996 7995 ] final   47.01 input   59.86 | X-H torsion
[ 10167 10162 10161 10158 ] final -156.99 input  -65.29 | X-H torsion
[ 10718 10713 10712 10709 ] final  -12.07 input   66.30 | X-H torsion
[ 10763 10752 10751 10750 ] final   60.31 input  -60.55 | X-H torsion
[ 11005 11000 10999 10996 ] final  174.69 input  -57.11 | X-H torsion

> <Gold.Protein.ActiveResidues>
 VAL166  LYS551  ARG553  GLY616  TRP617  ASP618  TYR619  PRO620  LYS621  CYS622 
 ASP623  PHE694  ASN695  SER759  ASP760  ASP761  ALA762  ILE779  LEU786  VAL792 
 PHE793  MET794  SER795  GLU796  ALA797  LYS798  CYS799  TRP800  GLU811  SER814 

> <Gold.Protein.RotatedAtoms>
  151.8466  135.0572  160.0453 H   0  0  0  0  0  0  0  0  0  0  0  0  # atno 6907 bound_to 6896
  152.2769  133.5429  159.5482 H   0  0  0  0  0  0  0  0  0  0  0  0  # atno 6908 bound_to 6896
  150.7173  134.0536  159.3849 H   0  0  0  0  0  0  0  0  0  0  0  0  # atno 6909 bound_to 6896
  144.7207  139.9904  143.6440 H   0  0  0  0  0  0  0  0  0  0  0  0  # atno 7974 bound_to 7965
  155.3619  140.3419  155.4241 H   0  0  0  0  0  0  0  0  0  0  0  0  # atno 8008 bound_to 7997
  156.1709  140.1631  156.8483 H   0  0  0  0  0  0  0  0  0  0  0  0  # atno 8009 bound_to 7997
  154.5232  140.0762  156.8193 H   0  0  0  0  0  0  0  0  0  0  0  0  # atno 8010 bound_to 7997
  139.6806  143.9587  152.2335 H   0  0  0  0  0  0  0  0  0  0  0  0  # atno 10167 bound_to 10162
  156.6499  130.4952  149.6065 H   0  0  0  0  0  0  0  0  0  0  0  0  # atno 10718 bound_to 10713
  152.9918  135.5541  154.5853 H   0  0  0  0  0  0  0  0  0  0  0  0  # atno 10763 bound_to 10752
  154.5226  135.2808  155.1251 H   0  0  0  0  0  0  0  0  0  0  0  0  # atno 10764 bound_to 10752
  154.2598  135.6383  153.5323 H   0  0  0  0  0  0  0  0  0  0  0  0  # atno 10765 bound_to 10752
  140.3540  134.7170  157.4287 H   0  0  0  0  0  0  0  0  0  0  0  0  # atno 11005 bound_to 11000
  146.0417  139.3427  143.0693 LP  0  0  0  0  0  0  0  0  0  0  0  0  # atno 17320 bound_to 7965
  145.8327  140.9622  143.0840 LP  0  0  0  0  0  0  0  0  0  0  0  0  # atno 17321 bound_to 7965
  139.9376  144.6702  150.8299 LP  0  0  0  0  0  0  0  0  0  0  0  0  # atno 17342 bound_to 10162
  140.7651  143.3266  151.2503 LP  0  0  0  0  0  0  0  0  0  0  0  0  # atno 17343 bound_to 10162
  156.2092  130.6668  151.1251 LP  0  0  0  0  0  0  0  0  0  0  0  0  # atno 17370 bound_to 10713
  157.7144  131.0717  150.6382 LP  0  0  0  0  0  0  0  0  0  0  0  0  # atno 17371 bound_to 10713
  140.0680  134.5903  155.8674 LP  0  0  0  0  0  0  0  0  0  0  0  0  # atno 17394 bound_to 11000
  141.2004  133.6612  156.5893 LP  0  0  0  0  0  0  0  0  0  0  0  0  # atno 17395 bound_to 11000

$$$$
