AV-unprocessed.smi:568|AV-procd|sdf|2957|dock3
  -GOLD-   2262023463D 1   1.00000     0.00000
 Structure written by MMmdl.
 35 36  0  0  0  0  0  0  0  0  1 V2000
  144.9002  147.4309  158.5438 C   0  0  0  0  0  0  0  0  0  0  0  0
  145.9614  147.0081  159.5188 C   0  0  0  0  0  0  0  0  0  0  0  0
  146.6307  147.9300  160.1901 N   0  0  0  0  0  0  0  0  0  0  0  0
  147.5309  147.2345  161.0027 O   0  0  0  0  0  0  0  0  0  0  0  0
  147.3655  145.9049  160.7877 C   0  0  0  0  0  0  0  0  0  0  0  0
  148.2447  144.9889  161.5702 C   0  0  0  0  0  0  0  0  0  0  0  0
  146.3842  145.6905  159.8582 C   0  0  0  0  0  0  0  0  0  0  0  0
  145.8691  144.3820  159.3136 C   0  0  0  0  0  0  0  0  0  0  0  0
  146.9989  143.3522  159.2890 C   0  0  0  0  0  0  0  0  0  0  0  0
  146.9026  142.3121  159.9398 O   0  0  0  0  0  0  0  0  0  0  0  0
  148.0601  143.6527  158.5273 N   0  0  0  0  0  0  0  0  0  0  0  0
  149.2115  142.7857  158.3209 C   0  0  0  0  0  0  0  0  0  0  0  0
  150.4653  143.3872  158.9764 C   0  0  2  0  0  0  0  0  0  0  0  0
  151.0034  144.6301  158.2936 C   0  0  0  0  0  0  0  0  0  0  0  0
  152.4316  144.6884  158.8266 C   0  0  0  0  0  0  0  0  0  0  0  0
  152.8173  143.3368  159.0626 O   0  0  0  0  0  0  0  0  0  0  0  0
  151.6902  142.4751  158.9329 C   0  0  0  0  0  0  0  0  0  0  0  0
  144.7713  146.6914  157.7536 H   0  0  0  0  0  0  0  0  0  0  0  0
  145.1516  148.3784  158.0661 H   0  0  0  0  0  0  0  0  0  0  0  0
  143.9393  147.5539  159.0436 H   0  0  0  0  0  0  0  0  0  0  0  0
  148.4445  144.0710  161.0176 H   0  0  0  0  0  0  0  0  0  0  0  0
  147.7736  144.7190  162.5152 H   0  0  0  0  0  0  0  0  0  0  0  0
  149.2022  145.4613  161.7906 H   0  0  0  0  0  0  0  0  0  0  0  0
  145.0482  143.9928  159.9168 H   0  0  0  0  0  0  0  0  0  0  0  0
  145.4716  144.5024  158.3051 H   0  0  0  0  0  0  0  0  0  0  0  0
  148.0538  144.5311  158.0297 H   0  0  0  0  0  0  0  0  0  0  0  0
  148.9996  141.8039  158.7463 H   0  0  0  0  0  0  0  0  0  0  0  0
  149.3786  142.6435  157.2516 H   0  0  0  0  0  0  0  0  0  0  0  0
  150.2502  143.6278  160.0192 H   0  0  0  0  0  0  0  0  0  0  0  0
  151.0126  144.4961  157.2108 H   0  0  0  0  0  0  0  0  0  0  0  0
  150.4309  145.5301  158.5204 H   0  0  0  0  0  0  0  0  0  0  0  0
  153.1136  145.1835  158.1351 H   0  0  0  0  0  0  0  0  0  0  0  0
  152.4610  145.2269  159.7746 H   0  0  0  0  0  0  0  0  0  0  0  0
  151.6757  141.7183  159.7177 H   0  0  0  0  0  0  0  0  0  0  0  0
  151.7589  141.9633  157.9718 H   0  0  0  0  0  0  0  0  0  0  0  0
  1  2  1  0  0  0  0
  1 18  1  0  0  0  0
  1 19  1  0  0  0  0
  1 20  1  0  0  0  0
  2  7  1  0  0  0  0
  2  3  2  0  0  0  0
  3  4  1  0  0  0  0
  4  5  1  0  0  0  0
  5  6  1  0  0  0  0
  5  7  2  0  0  0  0
  6 21  1  0  0  0  0
  6 22  1  0  0  0  0
  6 23  1  0  0  0  0
  7  8  1  0  0  0  0
  8  9  1  0  0  0  0
  8 24  1  0  0  0  0
  8 25  1  0  0  0  0
  9 10  2  0  0  0  0
  9 11  1  0  0  0  0
 11 12  1  0  0  0  0
 11 26  1  0  0  0  0
 12 13  1  0  0  0  0
 12 27  1  0  0  0  0
 12 28  1  0  0  0  0
 13 17  1  0  0  0  0
 13 14  1  0  0  0  0
 13 29  1  0  0  0  0
 14 15  1  0  0  0  0
 14 30  1  0  0  0  0
 14 31  1  0  0  0  0
 15 16  1  0  0  0  0
 15 32  1  0  0  0  0
 15 33  1  0  0  0  0
 16 17  1  0  0  0  0
 17 34  1  0  0  0  0
 17 35  1  0  0  0  0
M  END
> <s_m_source_file>
AV-unprocessed.smi

> <i_m_source_file_index>
568

> <i_lp_mmshare_version>
43012

> <i_f3d_flags>
0

> <s_epik_input>
W0NIM11jMW5vYyhbQ0gzXSljMVtDSDJdQyg9TylbTkhdW0NIMl1bQ0BASF0yW0NIMl1bQ0gyXU9bQ0gyXTI=

> <s_epik_cmdline>
J2VwaWtfcHl0aG9uJywgJy1waCcsICc3LjAnLCAnLXRuJywgJzgnLCAnLW1hJywgJzIwMCcsICctbWV0YWxfYmluZGluZycsICctaW1hZScsICc8aW5maWxlLm1hZT4nLCAnLW9tYWUnLCAnPG91dGZpbGUubWFlPic=

> <r_lp_tautomer_probability>
1

> <r_epik_Ionization_Penalty>
2.07075e-08

> <r_epik_Ionization_Penalty_Charging>
0

> <r_epik_Ionization_Penalty_Neutral>
2.07075e-08

> <r_epik_State_Penalty>
-0

> <r_epik_Charging_Adjusted_Penalty>
0

> <i_epik_Tot_Q>
0

> <i_epik_Tot_abs_Q>
0

> <r_epik_Metal_State_Penalty>
-0

> <b_epik_Metal_Only>
0

> <s_lp_Force_Field>
OPLS_2005

> <r_lp_Energy>
12.0647

> <b_lp_Chiralities_Consistent>
1

> <s_lp_Variant>
AV-unprocessed.smi:568-1

> <Gold.Version>
5.8.1

> <Gold.Id.Protein>
6NUR|6NUR_protein|mol2

> <Gold.PLP.Fitness>
38.4449

> <Gold.PLP.PLP>
-32.3722

> <Gold.PLP.part.hbond>
-6.4114

> <Gold.PLP.part.metal>
0.0000

> <Gold.PLP.part.buried>
-0.6465

> <Gold.PLP.part.nonpolar>
-24.8207

> <Gold.PLP.part.repulsive>
0.5253

> <Gold.PLP.ligand.clash>
0.0000

> <Gold.PLP.ligand.torsion>
0.4368

> <Gold.PLP.Chemscore.Hbond>
2.3118

> <Gold.PLP.Chemscore.CHOScore>
0.0000

> <Gold.PLP.Chemscore.Metal>
0.0000

> <Gold.Chemscore.Hbonds>
donor molecule, donor type, donor heavy atom, donor atom, acceptor molecule, acceptor atom, score
      L1  H    11    26       P1  8029  1.00
      P1  H  6933  6944       L1    10  0.37
      P1  H  6934  6946       L1    10  0.93

> <Gold.PLP.Chemscore.Internal.Correction>
0.0111

> <Gold.Rescore>
     Score         DG    S(hbond)    S(metal)    S(lipo)     H(rot)  DE(clash)    DE(int)     intcor
     10.23     -15.32       1.41        0.00      77.89       1.56       4.66       0.44       ----

> <Gold.Chemscore.Fitness>
10.2250

> <Gold.Chemscore.DG>
-15.3166

> <Gold.Chemscore.ZeroCoef>
-5.4800

> <Gold.Chemscore.Hbond>
1.4087

> <Gold.Chemscore.Metal>
0.0000

> <Gold.Chemscore.Lipo>
77.8857

> <Gold.Chemscore.Internal_Hbond>
0.0000

> <Gold.Chemscore.DEClash>
4.6559

> <Gold.Chemscore.DEInternal>
0.4357

> <Gold.Chemscore.Rot>
1.5551

> <Gold.Chemscore.Internal.Correction>
   9.000000E+99

> <Gold.Chemscore.Hbonds>
donor molecule, donor type, donor heavy atom, donor atom, acceptor molecule, acceptor atom, score
      L1  H    11    26       P1  8029  0.39
      P1  H  6933  6944       L1    10  0.24
      P1  H  6934  6946       L1    10  0.89

> <Gold.Chemscore.Hbond.Weighted>
-4.7049

> <Gold.Chemscore.Metal.Weighted>
-0.0000

> <Gold.Chemscore.Lipo.Weighted>
-9.1126

> <Gold.Chemscore.Internal_Hbond.Weighted>
0.0000

> <Gold.Chemscore.DEClash.Weighted>
4.6559

> <Gold.Chemscore.DEInternal.Weighted>
0.4357

> <Gold.Chemscore.Rot.Weighted>
3.9809

> <Gold.Chemscore.Internal.Correction.Weighted>
   9.000000E+99

> <Gold.Protein.RotatedTorsions>
[ 6907 6896 6895 6894 ] final -160.85 input  -60.11 | X-H torsion
[ 7974 7965 7964 7962 ] final  -90.10 input  175.53 | X-H torsion
[ 8008 7997 7996 7995 ] final -100.46 input   59.86 | X-H torsion
[ 10167 10162 10161 10158 ] final   28.61 input  -65.29 | X-H torsion
[ 10718 10713 10712 10709 ] final -129.05 input   66.30 | X-H torsion
[ 10763 10752 10751 10750 ] final  -96.13 input  -60.55 | X-H torsion
[ 11005 11000 10999 10996 ] final  176.31 input  -57.11 | X-H torsion

> <Gold.Protein.ActiveResidues>
 VAL166  LYS551  ARG553  GLY616  TRP617  ASP618  TYR619  PRO620  LYS621  CYS622 
 ASP623  PHE694  ASN695  SER759  ASP760  ASP761  ALA762  ILE779  LEU786  VAL792 
 PHE793  MET794  SER795  GLU796  ALA797  LYS798  CYS799  TRP800  GLU811  SER814 

> <Gold.Protein.RotatedAtoms>
  151.3554  133.3909  159.2684 H   0  0  0  0  0  0  0  0  0  0  0  0  # atno 6907 bound_to 6896
  150.9767  134.9131  159.7831 H   0  0  0  0  0  0  0  0  0  0  0  0  # atno 6908 bound_to 6896
  152.5203  134.3517  159.9306 H   0  0  0  0  0  0  0  0  0  0  0  0  # atno 6909 bound_to 6896
  145.4309  140.9555  143.2128 H   0  0  0  0  0  0  0  0  0  0  0  0  # atno 7974 bound_to 7965
  154.8289  140.0441  157.1463 H   0  0  0  0  0  0  0  0  0  0  0  0  # atno 8008 bound_to 7997
  154.9174  140.3022  155.5214 H   0  0  0  0  0  0  0  0  0  0  0  0  # atno 8009 bound_to 7997
  156.2985  140.2347  156.4220 H   0  0  0  0  0  0  0  0  0  0  0  0  # atno 8010 bound_to 7997
  140.4838  144.0574  150.6274 H   0  0  0  0  0  0  0  0  0  0  0  0  # atno 10167 bound_to 10162
  156.2009  130.6857  151.0538 H   0  0  0  0  0  0  0  0  0  0  0  0  # atno 10718 bound_to 10713
  154.7212  135.5095  153.8815 H   0  0  0  0  0  0  0  0  0  0  0  0  # atno 10763 bound_to 10752
  153.0864  135.6646  153.9950 H   0  0  0  0  0  0  0  0  0  0  0  0  # atno 10764 bound_to 10752
  153.9772  135.3032  155.3402 H   0  0  0  0  0  0  0  0  0  0  0  0  # atno 10765 bound_to 10752
  140.3717  134.7024  157.4396 H   0  0  0  0  0  0  0  0  0  0  0  0  # atno 11005 bound_to 11000
  144.8183  139.5836  143.6998 LP  0  0  0  0  0  0  0  0  0  0  0  0  # atno 17320 bound_to 7965
  146.2607  139.6405  142.9364 LP  0  0  0  0  0  0  0  0  0  0  0  0  # atno 17321 bound_to 7965
  140.3824  143.2795  152.0155 LP  0  0  0  0  0  0  0  0  0  0  0  0  # atno 17342 bound_to 10162
  139.4838  144.6144  151.7374 LP  0  0  0  0  0  0  0  0  0  0  0  0  # atno 17343 bound_to 10162
  157.6985  131.0785  150.6894 LP  0  0  0  0  0  0  0  0  0  0  0  0  # atno 17370 bound_to 10713
  156.6951  130.4607  149.5588 LP  0  0  0  0  0  0  0  0  0  0  0  0  # atno 17371 bound_to 10713
  140.0546  134.6082  155.8820 LP  0  0  0  0  0  0  0  0  0  0  0  0  # atno 17394 bound_to 11000
  141.1952  133.6586  156.5632 LP  0  0  0  0  0  0  0  0  0  0  0  0  # atno 17395 bound_to 11000

$$$$
