AV-unprocessed.smi:2247|AV-procd|sdf|9088|dock2
  -GOLD-   2272012293D 1   1.00000     0.00000
 Structure written by MMmdl.
 34 35  0  0  0  0  0  0  0  0  1 V2000
  153.6517  140.9011  160.2850 C   0  0  0  0  0  0  0  0  0  0  0  0
  153.3873  142.4163  160.3484 C   0  0  0  0  0  0  0  0  0  0  0  0
  152.9155  142.8603  161.7419 C   0  0  0  0  0  0  0  0  0  0  0  0
  152.4392  142.8655  159.3201 N   0  0  0  0  0  0  0  0  0  0  0  0
  152.5573  144.1568  158.6621 C   0  0  0  0  0  0  0  0  0  0  0  0
  151.6105  144.0648  157.4617 C   0  0  0  0  0  0  0  0  0  0  0  0
  150.6165  142.9416  157.7965 C   0  0  1  0  0  0  0  0  0  0  0  0
  150.3522  142.1333  156.6070 N   0  0  0  0  0  0  0  0  0  0  0  0
  149.1694  141.5909  156.2782 C   0  0  0  0  0  0  0  0  0  0  0  0
  148.1692  141.7414  156.9874 O   0  0  0  0  0  0  0  0  0  0  0  0
  149.2743  140.9108  155.0745 N   0  0  0  0  0  0  0  0  0  0  0  0
  150.1059  139.9202  154.9769 C   0  0  0  0  0  0  0  0  0  0  0  0
  150.3574  139.1324  153.8649 N   0  0  0  0  0  0  0  0  0  0  0  0
  151.2940  138.1972  154.2089 C   0  0  0  0  0  0  0  0  0  0  0  0
  151.6204  138.3877  155.4840 C   0  0  0  0  0  0  0  0  0  0  0  0
  150.9094  139.4365  155.9841 O   0  0  0  0  0  0  0  0  0  0  0  0
  151.4036  142.1575  158.8479 C   0  0  0  0  0  0  0  0  0  0  0  0
  151.0866  141.0243  159.2103 O   0  0  0  0  0  0  0  0  0  0  0  0
  154.4280  140.6141  160.9946 H   0  0  0  0  0  0  0  0  0  0  0  0
  153.9907  140.6014  159.2927 H   0  0  0  0  0  0  0  0  0  0  0  0
  152.7605  140.3217  160.5273 H   0  0  0  0  0  0  0  0  0  0  0  0
  154.3442  142.9046  160.1549 H   0  0  0  0  0  0  0  0  0  0  0  0
  153.6318  142.5659  162.5093 H   0  0  0  0  0  0  0  0  0  0  0  0
  151.9539  142.4130  161.9956 H   0  0  0  0  0  0  0  0  0  0  0  0
  152.8040  143.9437  161.7961 H   0  0  0  0  0  0  0  0  0  0  0  0
  152.2361  144.9435  159.3462 H   0  0  0  0  0  0  0  0  0  0  0  0
  153.5819  144.3646  158.3513 H   0  0  0  0  0  0  0  0  0  0  0  0
  151.1081  145.0121  157.2632 H   0  0  0  0  0  0  0  0  0  0  0  0
  152.1905  143.8156  156.5709 H   0  0  0  0  0  0  0  0  0  0  0  0
  149.7052  143.3443  158.2418 H   0  0  0  0  0  0  0  0  0  0  0  0
  151.1308  141.9742  155.9840 H   0  0  0  0  0  0  0  0  0  0  0  0
  149.9426  139.1957  152.9463 H   0  0  0  0  0  0  0  0  0  0  0  0
  151.6359  137.4736  153.4836 H   0  0  0  0  0  0  0  0  0  0  0  0
  152.3074  137.8852  156.1485 H   0  0  0  0  0  0  0  0  0  0  0  0
  1  2  1  0  0  0  0
  1 19  1  0  0  0  0
  1 20  1  0  0  0  0
  1 21  1  0  0  0  0
  2  3  1  0  0  0  0
  2  4  1  0  0  0  0
  2 22  1  0  0  0  0
  3 23  1  0  0  0  0
  3 24  1  0  0  0  0
  3 25  1  0  0  0  0
  4 17  1  0  0  0  0
  4  5  1  0  0  0  0
  5  6  1  0  0  0  0
  5 26  1  0  0  0  0
  5 27  1  0  0  0  0
  6  7  1  0  0  0  0
  6 28  1  0  0  0  0
  6 29  1  0  0  0  0
  7  8  1  0  0  0  0
  7 17  1  0  0  0  0
  7 30  1  0  0  0  0
  8 31  1  0  0  0  0
  8  9  1  0  0  0  0
  9 11  1  0  0  0  0
  9 10  2  0  0  0  0
 11 12  2  0  0  0  0
 12 16  1  0  0  0  0
 12 13  1  0  0  0  0
 13 32  1  0  0  0  0
 13 14  1  0  0  0  0
 14 33  1  0  0  0  0
 14 15  2  0  0  0  0
 15 34  1  0  0  0  0
 15 16  1  0  0  0  0
 17 18  2  0  0  0  0
M  END
> <s_m_source_file>
AV-unprocessed.smi

> <i_m_source_file_index>
2247

> <i_lp_mmshare_version>
43012

> <i_f3d_flags>
0

> <s_epik_input>
W0NIM11bQ0hdKFtDSDNdKU4xW0NIMl1bQ0gyXVtDQEhdKEMxPU8pW05IXUMoPU8pW05IXWMybltjSF1bY0hdbzI=

> <s_epik_cmdline>
J2VwaWtfcHl0aG9uJywgJy1waCcsICc3LjAnLCAnLXRuJywgJzgnLCAnLW1hJywgJzIwMCcsICctbWV0YWxfYmluZGluZycsICctaW1hZScsICc8aW5maWxlLm1hZT4nLCAnLW9tYWUnLCAnPG91dGZpbGUubWFlPic=

> <r_lp_tautomer_probability>
0.107061

> <r_epik_Ionization_Penalty>
0.180736

> <r_epik_Ionization_Penalty_Charging>
0.180388

> <r_epik_Ionization_Penalty_Neutral>
0.000348501

> <r_epik_State_Penalty>
2.44396

> <r_epik_Charging_Adjusted_Penalty>
2.62435

> <i_epik_Tot_Q>
0

> <i_epik_Tot_abs_Q>
0

> <r_epik_Metal_State_Penalty>
4.38331

> <b_epik_Metal_Only>
0

> <s_lp_Force_Field>
OPLS_2005

> <r_lp_Energy>
44.8331

> <b_lp_Chiralities_Consistent>
1

> <s_lp_Variant>
AV-unprocessed.smi:2247-3

> <Gold.Version>
5.8.1

> <Gold.Id.Protein>
6NUR|6NUR_protein|mol2

> <Gold.PLP.Fitness>
41.5565

> <Gold.PLP.PLP>
-38.5402

> <Gold.PLP.part.hbond>
-1.9924

> <Gold.PLP.part.metal>
0.0000

> <Gold.PLP.part.buried>
-3.7610

> <Gold.PLP.part.nonpolar>
-33.2564

> <Gold.PLP.part.repulsive>
0.8548

> <Gold.PLP.ligand.clash>
0.0000

> <Gold.PLP.ligand.torsion>
1.5402

> <Gold.PLP.Chemscore.Hbond>
1.0000

> <Gold.PLP.Chemscore.CHOScore>
1.0000

> <Gold.PLP.Chemscore.Metal>
0.0000

> <Gold.Chemscore.Hbonds>
donor molecule, donor type, donor heavy atom, donor atom, acceptor molecule, acceptor atom, score
      L1  H    13    32       P1  7957  1.00
      L1  C    14    33       P1  7949  1.00

> <Gold.PLP.Chemscore.Internal.Correction>
0.0966

> <Gold.Rescore>
     Score         DG    S(hbond)    S(metal)    S(lipo)     H(rot)  DE(clash)    DE(int)     intcor
     10.68     -14.69       0.98        0.00      79.94       1.33       0.02       3.99       ----

> <Gold.Chemscore.Fitness>
10.6757

> <Gold.Chemscore.DG>
-14.6851

> <Gold.Chemscore.ZeroCoef>
-5.4800

> <Gold.Chemscore.Hbond>
0.9779

> <Gold.Chemscore.Metal>
0.0000

> <Gold.Chemscore.Lipo>
79.9427

> <Gold.Chemscore.Internal_Hbond>
0.0000

> <Gold.Chemscore.DEClash>
0.0234

> <Gold.Chemscore.DEInternal>
3.9860

> <Gold.Chemscore.Rot>
1.3338

> <Gold.Chemscore.Internal.Correction>
   9.000000E+99

> <Gold.Chemscore.Hbonds>
donor molecule, donor type, donor heavy atom, donor atom, acceptor molecule, acceptor atom, score
      L1  H    13    32       P1  7957  0.90

> <Gold.Chemscore.Hbond.Weighted>
-3.2663

> <Gold.Chemscore.Metal.Weighted>
-0.0000

> <Gold.Chemscore.Lipo.Weighted>
-9.3533

> <Gold.Chemscore.Internal_Hbond.Weighted>
0.0000

> <Gold.Chemscore.DEClash.Weighted>
0.0234

> <Gold.Chemscore.DEInternal.Weighted>
3.9860

> <Gold.Chemscore.Rot.Weighted>
3.4145

> <Gold.Chemscore.Internal.Correction.Weighted>
   9.000000E+99

> <Gold.Protein.RotatedTorsions>
[ 6907 6896 6895 6894 ] final  -80.52 input  -60.11 | X-H torsion
[ 7974 7965 7964 7962 ] final  154.94 input  175.53 | X-H torsion
[ 8008 7997 7996 7995 ] final  -62.88 input   59.86 | X-H torsion
[ 10167 10162 10161 10158 ] final   33.42 input  -65.29 | X-H torsion
[ 10718 10713 10712 10709 ] final  -49.66 input   66.30 | X-H torsion
[ 10763 10752 10751 10750 ] final  158.37 input  -60.55 | X-H torsion
[ 11005 11000 10999 10996 ] final -135.92 input  -57.11 | X-H torsion

> <Gold.Protein.ActiveResidues>
 VAL166  LYS551  ARG553  GLY616  TRP617  ASP618  TYR619  PRO620  LYS621  CYS622 
 ASP623  PHE694  ASN695  SER759  ASP760  ASP761  ALA762  ILE779  LEU786  VAL792 
 PHE793  MET794  SER795  GLU796  ALA797  LYS798  CYS799  TRP800  GLU811  SER814 

> <Gold.Protein.RotatedAtoms>
  150.6928  134.3957  159.5096 H   0  0  0  0  0  0  0  0  0  0  0  0  # atno 6907 bound_to 6896
  152.1738  134.8809  160.0541 H   0  0  0  0  0  0  0  0  0  0  0  0  # atno 6908 bound_to 6896
  151.9825  133.3728  159.4150 H   0  0  0  0  0  0  0  0  0  0  0  0  # atno 6909 bound_to 6896
  144.8056  139.7002  143.6163 H   0  0  0  0  0  0  0  0  0  0  0  0  # atno 7974 bound_to 7965
  154.4523  140.0986  156.6656 H   0  0  0  0  0  0  0  0  0  0  0  0  # atno 8008 bound_to 7997
  155.5245  140.3480  155.4395 H   0  0  0  0  0  0  0  0  0  0  0  0  # atno 8009 bound_to 7997
  156.0707  140.1349  156.9821 H   0  0  0  0  0  0  0  0  0  0  0  0  # atno 8010 bound_to 7997
  140.4409  144.1188  150.6174 H   0  0  0  0  0  0  0  0  0  0  0  0  # atno 10167 bound_to 10162
  156.1872  130.4152  149.9422 H   0  0  0  0  0  0  0  0  0  0  0  0  # atno 10718 bound_to 10713
  154.2150  135.2784  155.2945 H   0  0  0  0  0  0  0  0  0  0  0  0  # atno 10763 bound_to 10752
  154.5748  135.5607  153.7132 H   0  0  0  0  0  0  0  0  0  0  0  0  # atno 10764 bound_to 10752
  153.0055  135.6330  154.2289 H   0  0  0  0  0  0  0  0  0  0  0  0  # atno 10765 bound_to 10752
  140.8854  134.1879  157.4564 H   0  0  0  0  0  0  0  0  0  0  0  0  # atno 11005 bound_to 11000
  146.2347  139.5881  142.9532 LP  0  0  0  0  0  0  0  0  0  0  0  0  # atno 17320 bound_to 7965
  145.5446  141.0418  143.2312 LP  0  0  0  0  0  0  0  0  0  0  0  0  # atno 17321 bound_to 7965
  140.4319  143.2564  151.9584 LP  0  0  0  0  0  0  0  0  0  0  0  0  # atno 17342 bound_to 10162
  139.4789  144.5736  151.8049 LP  0  0  0  0  0  0  0  0  0  0  0  0  # atno 17343 bound_to 10162
  156.7174  130.8993  151.3615 LP  0  0  0  0  0  0  0  0  0  0  0  0  # atno 17370 bound_to 10713
  157.6906  130.9230  150.0505 LP  0  0  0  0  0  0  0  0  0  0  0  0  # atno 17371 bound_to 10713
  139.8724  134.9835  156.5201 LP  0  0  0  0  0  0  0  0  0  0  0  0  # atno 17394 bound_to 11000
  140.8411  133.8204  155.9076 LP  0  0  0  0  0  0  0  0  0  0  0  0  # atno 17395 bound_to 11000

$$$$
