AV-unprocessed.smi:1325|AV-procd|sdf|5473|dock7
  -GOLD-   22720 5 43D 1   1.00000     0.00000
 Structure written by MMmdl.
 35 36  0  0  0  0  0  0  0  0  1 V2000
  154.4990  136.8880  163.1614 C   0  0  0  0  0  0  0  0  0  0  0  0
  154.4971  137.2998  161.7138 C   0  0  0  0  0  0  0  0  0  0  0  0
  154.5471  138.5682  161.4707 N   0  0  0  0  0  0  0  0  0  0  0  0
  154.5458  139.0538  160.1783 N   0  0  0  0  0  0  0  0  0  0  0  0
  154.6052  140.5186  160.0928 C   0  0  0  0  0  0  0  0  0  0  0  0
  153.7667  141.2081  161.1917 C   0  0  1  0  0  0  0  0  0  0  0  0
  154.5938  141.4421  162.3151 O   0  0  0  0  0  0  0  0  0  0  0  0
  153.1549  142.5028  160.6782 C   0  0  0  0  0  0  0  0  0  0  0  0
  153.2582  142.8559  159.3142 C   0  0  0  0  0  0  0  0  0  0  0  0
  152.6822  144.0523  158.8445 C   0  0  0  0  0  0  0  0  0  0  0  0
  151.9987  144.9022  159.7351 C   0  0  0  0  0  0  0  0  0  0  0  0
  151.8899  144.5540  161.0951 C   0  0  0  0  0  0  0  0  0  0  0  0
  152.4651  143.3573  161.5651 C   0  0  0  0  0  0  0  0  0  0  0  0
  154.4946  138.2786  159.0576 C   0  0  0  0  0  0  0  0  0  0  0  0
  154.4908  138.7553  157.9214 O   0  0  0  0  0  0  0  0  0  0  0  0
  154.4421  136.8421  159.3395 C   0  0  0  0  0  0  0  0  0  0  0  0
  154.3888  135.9935  158.1932 C   0  0  0  0  0  0  0  0  0  0  0  0
  154.3322  135.3175  157.2551 N   0  0  0  0  0  0  0  0  0  0  0  0
  154.4433  136.3528  160.6047 C   0  0  0  0  0  0  0  0  0  0  0  0
  154.3891  134.8712  160.9515 C   0  0  0  0  0  0  0  0  0  0  0  0
  153.6118  136.3011  163.3986 H   0  0  0  0  0  0  0  0  0  0  0  0
  154.5101  137.7502  163.8300 H   0  0  0  0  0  0  0  0  0  0  0  0
  155.3762  136.2826  163.3899 H   0  0  0  0  0  0  0  0  0  0  0  0
  155.6378  140.8729  160.1217 H   0  0  0  0  0  0  0  0  0  0  0  0
  154.2337  140.8178  159.1106 H   0  0  0  0  0  0  0  0  0  0  0  0
  152.9565  140.5526  161.5133 H   0  0  0  0  0  0  0  0  0  0  0  0
  155.2843  140.7971  162.3166 H   0  0  0  0  0  0  0  0  0  0  0  0
  153.7779  142.2083  158.6232 H   0  0  0  0  0  0  0  0  0  0  0  0
  152.7644  144.3173  157.8007 H   0  0  0  0  0  0  0  0  0  0  0  0
  151.5571  145.8196  159.3748 H   0  0  0  0  0  0  0  0  0  0  0  0
  151.3640  145.2046  161.7783 H   0  0  0  0  0  0  0  0  0  0  0  0
  152.3730  143.0980  162.6097 H   0  0  0  0  0  0  0  0  0  0  0  0
  154.3840  134.2392  160.0642 H   0  0  0  0  0  0  0  0  0  0  0  0
  153.4869  134.6450  161.5206 H   0  0  0  0  0  0  0  0  0  0  0  0
  155.2547  134.5857  161.5498 H   0  0  0  0  0  0  0  0  0  0  0  0
  1  2  1  0  0  0  0
  1 21  1  0  0  0  0
  1 22  1  0  0  0  0
  1 23  1  0  0  0  0
  2 19  1  0  0  0  0
  2  3  2  0  0  0  0
  3  4  1  0  0  0  0
  4  5  1  0  0  0  0
  4 14  1  0  0  0  0
  5  6  1  0  0  0  0
  5 24  1  0  0  0  0
  5 25  1  0  0  0  0
  6  7  1  0  0  0  0
  6  8  1  0  0  0  0
  6 26  1  0  0  0  0
  7 27  1  0  0  0  0
  8 13  1  0  0  0  0
  8  9  2  0  0  0  0
  9 10  1  0  0  0  0
  9 28  1  0  0  0  0
 10 11  2  0  0  0  0
 10 29  1  0  0  0  0
 11 12  1  0  0  0  0
 11 30  1  0  0  0  0
 12 13  2  0  0  0  0
 12 31  1  0  0  0  0
 13 32  1  0  0  0  0
 14 15  2  0  0  0  0
 14 16  1  0  0  0  0
 16 17  1  0  0  0  0
 16 19  2  0  0  0  0
 17 18  3  0  0  0  0
 19 20  1  0  0  0  0
 20 33  1  0  0  0  0
 20 34  1  0  0  0  0
 20 35  1  0  0  0  0
M  END
> <s_m_source_file>
AV-unprocessed.smi

> <i_m_source_file_index>
1325

> <i_lp_mmshare_version>
43012

> <i_f3d_flags>
0

> <s_epik_input>
TiNDYyhjMVtDSDNdKWMoPU8pbihuYzFbQ0gzXSlbQ0gyXVtDQEhdKFtPSF0pYzJbY0hdW2NIXVtjSF1bY0hdW2NIXTI=

> <s_epik_cmdline>
J2VwaWtfcHl0aG9uJywgJy1waCcsICc3LjAnLCAnLXRuJywgJzgnLCAnLW1hJywgJzIwMCcsICctbWV0YWxfYmluZGluZycsICctaW1hZScsICc8aW5maWxlLm1hZT4nLCAnLW9tYWUnLCAnPG91dGZpbGUubWFlPic=

> <r_lp_tautomer_probability>
1

> <r_epik_Ionization_Penalty>
7.1854e-08

> <r_epik_Ionization_Penalty_Charging>
1.40848e-10

> <r_epik_Ionization_Penalty_Neutral>
7.17131e-08

> <r_epik_State_Penalty>
-0

> <r_epik_Charging_Adjusted_Penalty>
1.40848e-10

> <i_epik_Tot_Q>
0

> <i_epik_Tot_abs_Q>
0

> <r_epik_Metal_State_Penalty>
-0

> <b_epik_Metal_Only>
0

> <s_lp_Force_Field>
OPLS_2005

> <r_lp_Energy>
28.0712

> <b_lp_Chiralities_Consistent>
1

> <s_lp_Variant>
AV-unprocessed.smi:1325-2

> <Gold.Version>
5.8.1

> <Gold.Id.Protein>
6NUR|6NUR_protein|mol2

> <Gold.PLP.Fitness>
47.3581

> <Gold.PLP.PLP>
-43.0614

> <Gold.PLP.part.hbond>
-2.7774

> <Gold.PLP.part.metal>
0.0000

> <Gold.PLP.part.buried>
-3.8670

> <Gold.PLP.part.nonpolar>
-36.5213

> <Gold.PLP.part.repulsive>
0.0000

> <Gold.PLP.ligand.clash>
0.0000

> <Gold.PLP.ligand.torsion>
0.8405

> <Gold.PLP.Chemscore.Hbond>
1.9913

> <Gold.PLP.Chemscore.CHOScore>
0.0000

> <Gold.PLP.Chemscore.Metal>
0.0000

> <Gold.Chemscore.Hbonds>
donor molecule, donor type, donor heavy atom, donor atom, acceptor molecule, acceptor atom, score
      P1  H  7997  8009       L1    15  0.84
      P1  H 10752 10764       L1    18  1.00

> <Gold.PLP.Chemscore.Internal.Correction>
0.0039

> <Gold.Rescore>
     Score         DG    S(hbond)    S(metal)    S(lipo)     H(rot)  DE(clash)    DE(int)     intcor
     19.65     -20.59       1.95        0.00     115.13       1.90       0.03       0.92       ----

> <Gold.Chemscore.Fitness>
19.6496

> <Gold.Chemscore.DG>
-20.5915

> <Gold.Chemscore.ZeroCoef>
-5.4800

> <Gold.Chemscore.Hbond>
1.9513

> <Gold.Chemscore.Metal>
0.0000

> <Gold.Chemscore.Lipo>
115.1309

> <Gold.Chemscore.Internal_Hbond>
0.0000

> <Gold.Chemscore.DEClash>
0.0255

> <Gold.Chemscore.DEInternal>
0.9164

> <Gold.Chemscore.Rot>
1.9047

> <Gold.Chemscore.Internal.Correction>
   9.000000E+99

> <Gold.Chemscore.Hbonds>
donor molecule, donor type, donor heavy atom, donor atom, acceptor molecule, acceptor atom, score
      P1  H  7997  8009       L1    15  0.78
      P1  H 10752 10764       L1    18  1.00

> <Gold.Chemscore.Hbond.Weighted>
-6.5172

> <Gold.Chemscore.Metal.Weighted>
-0.0000

> <Gold.Chemscore.Lipo.Weighted>
-13.4703

> <Gold.Chemscore.Internal_Hbond.Weighted>
0.0000

> <Gold.Chemscore.DEClash.Weighted>
0.0255

> <Gold.Chemscore.DEInternal.Weighted>
0.9164

> <Gold.Chemscore.Rot.Weighted>
4.8760

> <Gold.Chemscore.Internal.Correction.Weighted>
   9.000000E+99

> <Gold.Protein.RotatedTorsions>
[ 6907 6896 6895 6894 ] final  -50.06 input  -60.11 | X-H torsion
[ 7974 7965 7964 7962 ] final   -4.58 input  175.53 | X-H torsion
[ 8008 7997 7996 7995 ] final  130.41 input   59.86 | X-H torsion
[ 10167 10162 10161 10158 ] final -167.34 input  -65.29 | X-H torsion
[ 10718 10713 10712 10709 ] final  124.40 input   66.30 | X-H torsion
[ 10763 10752 10751 10750 ] final   34.23 input  -60.55 | X-H torsion
[ 11005 11000 10999 10996 ] final   34.17 input  -57.11 | X-H torsion

> <Gold.Protein.ActiveResidues>
 VAL166  LYS551  ARG553  GLY616  TRP617  ASP618  TYR619  PRO620  LYS621  CYS622 
 ASP623  PHE694  ASN695  SER759  ASP760  ASP761  ALA762  ILE779  LEU786  VAL792 
 PHE793  MET794  SER795  GLU796  ALA797  LYS798  CYS799  TRP800  GLU811  SER814 

> <Gold.Protein.RotatedAtoms>
  150.8743  134.8123  159.7178 H   0  0  0  0  0  0  0  0  0  0  0  0  # atno 6907 bound_to 6896
  152.4736  134.4896  159.9701 H   0  0  0  0  0  0  0  0  0  0  0  0  # atno 6908 bound_to 6896
  151.4980  133.3472  159.2899 H   0  0  0  0  0  0  0  0  0  0  0  0  # atno 6909 bound_to 6896
  146.2369  140.1892  142.8332 H   0  0  0  0  0  0  0  0  0  0  0  0  # atno 7974 bound_to 7965
  156.2954  140.2596  156.2757 H   0  0  0  0  0  0  0  0  0  0  0  0  # atno 8008 bound_to 7997
  154.9651  140.0392  157.2227 H   0  0  0  0  0  0  0  0  0  0  0  0  # atno 8009 bound_to 7997
  154.7910  140.2812  155.5996 H   0  0  0  0  0  0  0  0  0  0  0  0  # atno 8010 bound_to 7997
  139.6056  144.0920  152.1789 H   0  0  0  0  0  0  0  0  0  0  0  0  # atno 10167 bound_to 10162
  157.5587  131.1090  150.8576 H   0  0  0  0  0  0  0  0  0  0  0  0  # atno 10718 bound_to 10713
  153.0174  135.6366  154.1636 H   0  0  0  0  0  0  0  0  0  0  0  0  # atno 10763 bound_to 10752
  154.1373  135.2837  155.3171 H   0  0  0  0  0  0  0  0  0  0  0  0  # atno 10764 bound_to 10752
  154.6150  135.5544  153.7575 H   0  0  0  0  0  0  0  0  0  0  0  0  # atno 10765 bound_to 10752
  140.2556  134.3252  155.7875 H   0  0  0  0  0  0  0  0  0  0  0  0  # atno 11005 bound_to 11000
  144.9871  140.8513  143.5362 LP  0  0  0  0  0  0  0  0  0  0  0  0  # atno 17320 bound_to 7965
  145.1893  139.2309  143.5251 LP  0  0  0  0  0  0  0  0  0  0  0  0  # atno 17321 bound_to 7965
  140.0526  144.5920  150.7324 LP  0  0  0  0  0  0  0  0  0  0  0  0  # atno 17342 bound_to 10162
  140.7282  143.2659  151.4045 LP  0  0  0  0  0  0  0  0  0  0  0  0  # atno 17343 bound_to 10162
  156.9079  130.5270  149.5281 LP  0  0  0  0  0  0  0  0  0  0  0  0  # atno 17370 bound_to 10713
  156.0643  130.5689  150.9256 LP  0  0  0  0  0  0  0  0  0  0  0  0  # atno 17371 bound_to 10713
  141.2196  133.7379  156.9106 LP  0  0  0  0  0  0  0  0  0  0  0  0  # atno 17394 bound_to 11000
  140.1515  134.9227  157.2598 LP  0  0  0  0  0  0  0  0  0  0  0  0  # atno 17395 bound_to 11000

$$$$
