AV-unprocessed.smi:215|AV-procd|sdf|1656|dock6
  -GOLD-   2262020 43D 1   1.00000     0.00000
 Structure written by MMmdl.
 59 62  0  0  0  0  0  0  0  0  2 V2000
  143.2886  134.3424  162.0045 C   0  0  0  0  0  0  0  0  0  0  0  0
  144.3078  133.3208  161.4733 C   0  0  2  0  0  0  0  0  0  0  0  0
  143.8133  131.8703  161.5256 C   0  0  1  0  0  0  0  0  0  0  0  0
  142.7483  131.5112  160.5425 N   0  3  1  0  0  0  0  0  0  0  0  0
  143.0495  131.8355  159.1234 C   0  0  0  0  0  0  0  0  0  0  0  0
  142.2637  130.1169  160.7211 C   0  0  0  0  0  0  0  0  0  0  0  0
  141.3837  129.6449  159.5512 C   0  0  0  0  0  0  0  0  0  0  0  0
  140.0479  130.0527  159.7575 O   0  0  0  0  0  0  0  0  0  0  0  0
  145.1218  131.0837  161.4097 C   0  0  0  0  0  0  0  0  0  0  0  0
  146.1152  131.9545  162.1888 C   0  0  0  0  0  0  0  0  0  0  0  0
  145.5395  133.2989  162.2571 N   0  0  0  0  0  0  0  0  0  0  0  0
  146.3854  134.3244  162.0072 C   0  0  0  0  0  0  0  0  0  0  0  0
  146.5949  135.2818  162.9490 N   0  0  0  0  0  0  0  0  0  0  0  0
  147.4459  136.2824  162.7027 C   0  0  0  0  0  0  0  0  0  0  0  0
  148.1781  136.5047  161.6092 N   0  0  0  0  0  0  0  0  0  0  0  0
  147.9744  135.5406  160.6649 C   0  0  0  0  0  0  0  0  0  0  0  0
  147.1006  134.4243  160.7854 C   0  0  0  0  0  0  0  0  0  0  0  0
  147.1490  133.6509  159.6336 N   0  0  0  0  0  0  0  0  0  0  0  0
  148.0047  134.2757  158.8713 C   0  0  0  0  0  0  0  0  0  0  0  0
  148.5512  135.4202  159.4100 N   0  0  0  0  0  0  0  0  0  0  0  0
  149.5116  136.2834  158.7801 C   0  0  0  0  0  0  0  0  0  0  0  0
  150.8011  135.7312  158.1656 C   0  0  0  0  0  0  0  0  0  0  0  0
  151.5335  137.0349  158.5623 C   0  0  0  0  0  0  0  0  0  0  0  0
  152.9687  136.8790  159.1033 C   0  0  0  0  0  0  0  0  0  0  0  0
  153.0522  135.9488  160.1647 O   0  0  0  0  0  0  0  0  0  0  0  0
  151.5806  138.0913  157.4423 C   0  0  0  0  0  0  0  0  0  0  0  0
  152.0916  139.3239  157.9085 O   0  0  0  0  0  0  0  0  0  0  0  0
  150.4013  137.2207  159.6008 C   0  0  0  0  0  0  0  0  0  0  0  0
  144.5745  133.5916  160.4523 H   0  0  0  0  0  0  0  0  0  0  0  0
  143.4098  131.7063  162.5271 H   0  0  0  0  0  0  0  0  0  0  0  0
  142.3657  134.3110  161.4251 H   0  0  0  0  0  0  0  0  0  0  0  0
  143.6770  135.3593  161.9435 H   0  0  0  0  0  0  0  0  0  0  0  0
  143.0355  134.1449  163.0468 H   0  0  0  0  0  0  0  0  0  0  0  0
  143.8738  131.2370  158.7361 H   0  0  0  0  0  0  0  0  0  0  0  0
  143.2926  132.8874  158.9868 H   0  0  0  0  0  0  0  0  0  0  0  0
  142.1848  131.6418  158.4903 H   0  0  0  0  0  0  0  0  0  0  0  0
  143.1178  129.4497  160.8466 H   0  0  0  0  0  0  0  0  0  0  0  0
  141.6793  130.0309  161.6384 H   0  0  0  0  0  0  0  0  0  0  0  0
  141.7381  130.0157  158.5901 H   0  0  0  0  0  0  0  0  0  0  0  0
  141.4015  128.5562  159.4939 H   0  0  0  0  0  0  0  0  0  0  0  0
  139.6003  130.0543  158.9245 H   0  0  0  0  0  0  0  0  0  0  0  0
  145.0491  130.0716  161.8085 H   0  0  0  0  0  0  0  0  0  0  0  0
  145.4567  131.0144  160.3754 H   0  0  0  0  0  0  0  0  0  0  0  0
  146.2132  131.5841  163.2096 H   0  0  0  0  0  0  0  0  0  0  0  0
  147.1084  131.9212  161.7390 H   0  0  0  0  0  0  0  0  0  0  0  0
  147.5583  137.0081  163.4948 H   0  0  0  0  0  0  0  0  0  0  0  0
  148.2622  133.9132  157.8865 H   0  0  0  0  0  0  0  0  0  0  0  0
  148.9639  136.8589  158.0313 H   0  0  0  0  0  0  0  0  0  0  0  0
  151.1692  134.8446  158.6826 H   0  0  0  0  0  0  0  0  0  0  0  0
  150.7421  135.5500  157.0921 H   0  0  0  0  0  0  0  0  0  0  0  0
  153.6461  136.5480  158.3156 H   0  0  0  0  0  0  0  0  0  0  0  0
  153.3549  137.8296  159.4717 H   0  0  0  0  0  0  0  0  0  0  0  0
  153.9596  135.8531  160.4102 H   0  0  0  0  0  0  0  0  0  0  0  0
  152.1946  137.7506  156.6079 H   0  0  0  0  0  0  0  0  0  0  0  0
  150.5876  138.2771  157.0323 H   0  0  0  0  0  0  0  0  0  0  0  0
  151.3715  139.9259  158.0182 H   0  0  0  0  0  0  0  0  0  0  0  0
  150.0176  138.2376  159.6863 H   0  0  0  0  0  0  0  0  0  0  0  0
  150.6436  136.8195  160.5854 H   0  0  0  0  0  0  0  0  0  0  0  0
  141.9625  132.0929  160.7974 H   0  0  0  0  0  0  0  0  0  0  0  0
  1  2  1  0  0  0  0
  1 31  1  0  0  0  0
  1 32  1  0  0  0  0
  1 33  1  0  0  0  0
  2 29  1  0  0  0  0
  2 11  1  0  0  0  0
  2  3  1  0  0  0  0
  3 30  1  0  0  0  0
  3  4  1  0  0  0  0
  3  9  1  0  0  0  0
  4  5  1  0  0  0  0
  4  6  1  0  0  0  0
  4 59  1  0  0  0  0
  5 34  1  0  0  0  0
  5 35  1  0  0  0  0
  5 36  1  0  0  0  0
  6  7  1  0  0  0  0
  6 37  1  0  0  0  0
  6 38  1  0  0  0  0
  7  8  1  0  0  0  0
  7 39  1  0  0  0  0
  7 40  1  0  0  0  0
  8 41  1  0  0  0  0
  9 10  1  0  0  0  0
  9 42  1  0  0  0  0
  9 43  1  0  0  0  0
 10 11  1  0  0  0  0
 10 44  1  0  0  0  0
 10 45  1  0  0  0  0
 11 12  1  0  0  0  0
 12 17  1  0  0  0  0
 12 13  2  0  0  0  0
 13 14  1  0  0  0  0
 14 15  2  0  0  0  0
 14 46  1  0  0  0  0
 15 16  1  0  0  0  0
 16 20  1  0  0  0  0
 16 17  2  0  0  0  0
 17 18  1  0  0  0  0
 18 19  2  0  0  0  0
 19 20  1  0  0  0  0
 19 47  1  0  0  0  0
 20 21  1  0  0  0  0
 21 28  1  0  0  0  0
 21 22  1  0  0  0  0
 21 48  1  0  0  0  0
 22 23  1  0  0  0  0
 22 49  1  0  0  0  0
 22 50  1  0  0  0  0
 23 24  1  0  0  0  0
 23 26  1  0  0  0  0
 23 28  1  0  0  0  0
 24 25  1  0  0  0  0
 24 51  1  0  0  0  0
 24 52  1  0  0  0  0
 25 53  1  0  0  0  0
 26 27  1  0  0  0  0
 26 54  1  0  0  0  0
 26 55  1  0  0  0  0
 27 56  1  0  0  0  0
 28 57  1  0  0  0  0
 28 58  1  0  0  0  0
M  CHG  1   4   1
M  END
> <s_m_source_file>
AV-unprocessed.smi

> <i_m_source_file_index>
215

> <i_lp_mmshare_version>
43012

> <i_f3d_flags>
0

> <s_epik_input>
W09IXVtDSDJdW0NIMl1OKFtDSDNdKVtDQEBIXShbQ0BIXTFbQ0gzXSlbQ0gyXVtDSDJdTjFjKG5bY0hdbjIpYyhjMjMpbltjSF1uM1tDSF0oW0NIMl00KVtDSDJdQzQoW0NIMl1bT0hdKVtDSDJdW09IXQ==

> <s_epik_cmdline>
J2VwaWtfcHl0aG9uJywgJy1waCcsICc3LjAnLCAnLXRuJywgJzgnLCAnLW1hJywgJzIwMCcsICctbWV0YWxfYmluZGluZycsICctaW1hZScsICc8aW5maWxlLm1hZT4nLCAnLW9tYWUnLCAnPG91dGZpbGUubWFlPic=

> <r_lp_tautomer_probability>
1

> <r_epik_Ionization_Penalty>
0.0036237

> <r_epik_Ionization_Penalty_Charging>
0.0032725

> <r_epik_Ionization_Penalty_Neutral>
0.000351196

> <r_epik_State_Penalty>
-0

> <r_epik_Charging_Adjusted_Penalty>
0.0032725

> <i_epik_Tot_Q>
1

> <i_epik_Tot_abs_Q>
1

> <r_epik_Metal_State_Penalty>
-0

> <b_epik_Metal_Only>
0

> <s_lp_Force_Field>
OPLS_2005

> <r_lp_Energy>
69.5021

> <b_lp_Chiralities_Consistent>
1

> <s_lp_Variant>
AV-unprocessed.smi:215-7

> <Gold.Version>
5.8.1

> <Gold.Id.Protein>
6NUR|6NUR_protein|mol2

> <Gold.PLP.Fitness>
46.3095

> <Gold.PLP.PLP>
-38.5267

> <Gold.PLP.part.hbond>
-4.0000

> <Gold.PLP.part.metal>
0.0000

> <Gold.PLP.part.buried>
-5.5461

> <Gold.PLP.part.nonpolar>
-29.0488

> <Gold.PLP.part.repulsive>
0.0609

> <Gold.PLP.ligand.clash>
0.0000

> <Gold.PLP.ligand.torsion>
0.9353

> <Gold.PLP.Chemscore.Hbond>
3.0000

> <Gold.PLP.Chemscore.CHOScore>
0.0000

> <Gold.PLP.Chemscore.Metal>
0.0000

> <Gold.Chemscore.Hbonds>
donor molecule, donor type, donor heavy atom, donor atom, acceptor molecule, acceptor atom, score
      L1  H     8    41       P1 10998  1.00
      P1  H  6896  6908       L1    25  0.49
      P1  H  6931  6943       L1    15  1.00

> <Gold.PLP.Chemscore.Internal.Correction>
0.6533

> <Gold.Rescore>
     Score         DG    S(hbond)    S(metal)    S(lipo)     H(rot)  DE(clash)    DE(int)     intcor
      8.99     -11.12       2.85        0.00      72.02       4.81       0.76       1.37       ----

> <Gold.Chemscore.Fitness>
8.9914

> <Gold.Chemscore.DG>
-11.1221

> <Gold.Chemscore.ZeroCoef>
-5.4800

> <Gold.Chemscore.Hbond>
2.8529

> <Gold.Chemscore.Metal>
0.0000

> <Gold.Chemscore.Lipo>
72.0211

> <Gold.Chemscore.Internal_Hbond>
0.0000

> <Gold.Chemscore.DEClash>
0.7615

> <Gold.Chemscore.DEInternal>
1.3692

> <Gold.Chemscore.Rot>
4.8098

> <Gold.Chemscore.Internal.Correction>
   9.000000E+99

> <Gold.Chemscore.Hbonds>
donor molecule, donor type, donor heavy atom, donor atom, acceptor molecule, acceptor atom, score
      L1  H     8    41       P1 10998  1.00
      P1  H  6896  6908       L1    25  0.41
      P1  H  6931  6943       L1    15  0.49

> <Gold.Chemscore.Hbond.Weighted>
-9.5287

> <Gold.Chemscore.Metal.Weighted>
-0.0000

> <Gold.Chemscore.Lipo.Weighted>
-8.4265

> <Gold.Chemscore.Internal_Hbond.Weighted>
0.0000

> <Gold.Chemscore.DEClash.Weighted>
0.7615

> <Gold.Chemscore.DEInternal.Weighted>
1.3692

> <Gold.Chemscore.Rot.Weighted>
12.3130

> <Gold.Chemscore.Internal.Correction.Weighted>
   9.000000E+99

> <Gold.Protein.RotatedTorsions>
[ 6907 6896 6895 6894 ] final  -84.87 input  -60.11 | X-H torsion
[ 7974 7965 7964 7962 ] final  -54.51 input  175.53 | X-H torsion
[ 8008 7997 7996 7995 ] final  -28.11 input   59.86 | X-H torsion
[ 10167 10162 10161 10158 ] final  -17.05 input  -65.29 | X-H torsion
[ 10718 10713 10712 10709 ] final -144.32 input   66.30 | X-H torsion
[ 10763 10752 10751 10750 ] final  108.48 input  -60.55 | X-H torsion
[ 11005 11000 10999 10996 ] final -153.60 input  -57.11 | X-H torsion

> <Gold.Protein.ActiveResidues>
 VAL166  LYS551  ARG553  GLY616  TRP617  ASP618  TYR619  PRO620  LYS621  CYS622 
 ASP623  PHE694  ASN695  SER759  ASP760  ASP761  ALA762  ILE779  LEU786  VAL792 
 PHE793  MET794  SER795  GLU796  ALA797  LYS798  CYS799  TRP800  GLU811  SER814 

> <Gold.Protein.RotatedAtoms>
  150.6873  134.3292  159.4819 H   0  0  0  0  0  0  0  0  0  0  0  0  # atno 6907 bound_to 6896
  152.1158  134.9239  160.0574 H   0  0  0  0  0  0  0  0  0  0  0  0  # atno 6908 bound_to 6896
  152.0464  133.3965  159.4395 H   0  0  0  0  0  0  0  0  0  0  0  0  # atno 6909 bound_to 6896
  145.8847  140.8117  142.9822 H   0  0  0  0  0  0  0  0  0  0  0  0  # atno 7974 bound_to 7965
  154.4347  140.1854  156.1038 H   0  0  0  0  0  0  0  0  0  0  0  0  # atno 8008 bound_to 7997
  156.0271  140.3334  155.7074 H   0  0  0  0  0  0  0  0  0  0  0  0  # atno 8009 bound_to 7997
  155.5893  140.0629  157.2753 H   0  0  0  0  0  0  0  0  0  0  0  0  # atno 8010 bound_to 7997
  140.7242  143.5054  150.9816 H   0  0  0  0  0  0  0  0  0  0  0  0  # atno 10167 bound_to 10162
  156.3686  130.7776  151.1954 H   0  0  0  0  0  0  0  0  0  0  0  0  # atno 10718 bound_to 10713
  153.4212  135.3811  155.2112 H   0  0  0  0  0  0  0  0  0  0  0  0  # atno 10763 bound_to 10752
  154.8745  135.3817  154.4381 H   0  0  0  0  0  0  0  0  0  0  0  0  # atno 10764 bound_to 10752
  153.4902  135.7088  153.5951 H   0  0  0  0  0  0  0  0  0  0  0  0  # atno 10765 bound_to 10752
  140.7063  134.3881  157.5203 H   0  0  0  0  0  0  0  0  0  0  0  0  # atno 11005 bound_to 11000
  144.6728  140.1437  143.7435 LP  0  0  0  0  0  0  0  0  0  0  0  0  # atno 17320 bound_to 7965
  145.8981  139.2414  143.1510 LP  0  0  0  0  0  0  0  0  0  0  0  0  # atno 17321 bound_to 7965
  139.8765  143.7125  152.3161 LP  0  0  0  0  0  0  0  0  0  0  0  0  # atno 17342 bound_to 10162
  139.7393  144.7563  151.0678 LP  0  0  0  0  0  0  0  0  0  0  0  0  # atno 17343 bound_to 10162
  157.7481  131.0379  150.4476 LP  0  0  0  0  0  0  0  0  0  0  0  0  # atno 17370 bound_to 10713
  156.4700  130.4050  149.6524 LP  0  0  0  0  0  0  0  0  0  0  0  0  # atno 17371 bound_to 10713
  139.8883  134.8859  156.2481 LP  0  0  0  0  0  0  0  0  0  0  0  0  # atno 17394 bound_to 11000
  141.0121  133.7089  156.1129 LP  0  0  0  0  0  0  0  0  0  0  0  0  # atno 17395 bound_to 11000

$$$$
