AV-unprocessed.smi:243|AV-procd|sdf|1863|dock6
  -GOLD-   2262020503D 1   1.00000     0.00000
 Structure written by MMmdl.
 58 61  0  0  0  0  0  0  0  0  2 V2000
  146.1717  131.9490  148.9712 C   0  0  0  0  0  0  0  0  0  0  0  0
  145.7059  131.5278  150.3725 C   0  0  0  0  0  0  0  0  0  0  0  0
  145.3333  132.6886  151.2195 N   0  3  1  0  0  0  0  0  0  0  0  0
  146.5080  133.2894  151.8989 C   0  0  0  0  0  0  0  0  0  0  0  0
  146.0867  134.4004  152.8750 C   0  0  0  0  0  0  0  0  0  0  0  0
  145.2581  135.4918  152.1621 C   0  0  2  0  0  0  0  0  0  0  0  0
  144.8797  136.5913  153.0657 N   0  0  0  0  0  0  0  0  0  0  0  0
  144.2340  136.2402  154.3270 C   0  0  0  0  0  0  0  0  0  0  0  0
  145.8144  137.5474  153.2773 C   0  0  0  0  0  0  0  0  0  0  0  0
  146.0959  138.3750  152.2408 N   0  0  0  0  0  0  0  0  0  0  0  0
  147.0163  139.3335  152.3812 C   0  0  0  0  0  0  0  0  0  0  0  0
  147.7529  139.6328  153.4531 N   0  0  0  0  0  0  0  0  0  0  0  0
  147.4605  138.8119  154.5024 C   0  0  0  0  0  0  0  0  0  0  0  0
  146.5063  137.7562  154.5049 C   0  0  0  0  0  0  0  0  0  0  0  0
  146.4729  137.1516  155.7560 N   0  0  0  0  0  0  0  0  0  0  0  0
  147.3633  137.8062  156.4500 C   0  0  0  0  0  0  0  0  0  0  0  0
  148.0141  138.8110  155.7706 N   0  0  0  0  0  0  0  0  0  0  0  0
  149.0551  139.6840  156.2900 C   0  0  0  0  0  0  0  0  0  0  0  0
  150.3194  139.7259  155.4001 C   0  0  2  0  0  0  0  0  0  0  0  0
  150.0284  140.4404  154.2114 O   0  0  0  0  0  0  0  0  0  0  0  0
  150.8566  138.3489  155.0165 C   0  0  0  0  0  0  0  0  0  0  0  0
  152.3607  138.5736  154.9549 C   0  0  0  0  0  0  0  0  0  0  0  0
  152.5844  139.4423  156.0514 O   0  0  0  0  0  0  0  0  0  0  0  0
  151.5263  140.3938  156.0901 C   0  0  0  0  0  0  0  0  0  0  0  0
  144.0482  134.8248  151.4434 C   0  0  2  0  0  0  0  0  0  0  0  0
  142.9575  134.2883  152.3945 C   0  0  0  0  0  0  0  0  0  0  0  0
  144.5432  133.7172  150.4928 C   0  0  0  0  0  0  0  0  0  0  0  0
  146.3460  131.0730  148.3460 H   0  0  0  0  0  0  0  0  0  0  0  0
  147.1029  132.5137  148.9992 H   0  0  0  0  0  0  0  0  0  0  0  0
  145.4198  132.5630  148.4745 H   0  0  0  0  0  0  0  0  0  0  0  0
  144.8371  130.8796  150.2502 H   0  0  0  0  0  0  0  0  0  0  0  0
  146.4696  130.9291  150.8706 H   0  0  0  0  0  0  0  0  0  0  0  0
  147.0499  132.5192  152.4494 H   0  0  0  0  0  0  0  0  0  0  0  0
  147.1958  133.6876  151.1511 H   0  0  0  0  0  0  0  0  0  0  0  0
  145.5229  133.9745  153.7053 H   0  0  0  0  0  0  0  0  0  0  0  0
  146.9907  134.8273  153.3089 H   0  0  0  0  0  0  0  0  0  0  0  0
  145.9062  135.9177  151.3964 H   0  0  0  0  0  0  0  0  0  0  0  0
  144.2134  137.0772  155.0272 H   0  0  0  0  0  0  0  0  0  0  0  0
  144.7537  135.4102  154.8073 H   0  0  0  0  0  0  0  0  0  0  0  0
  143.2003  135.9429  154.1513 H   0  0  0  0  0  0  0  0  0  0  0  0
  147.1889  139.9468  151.5092 H   0  0  0  0  0  0  0  0  0  0  0  0
  147.5754  137.5677  157.4820 H   0  0  0  0  0  0  0  0  0  0  0  0
  148.6410  140.6863  156.4064 H   0  0  0  0  0  0  0  0  0  0  0  0
  149.3139  139.3425  157.2933 H   0  0  0  0  0  0  0  0  0  0  0  0
  149.3978  139.9462  153.7103 H   0  0  0  0  0  0  0  0  0  0  0  0
  150.6455  137.6279  155.8074 H   0  0  0  0  0  0  0  0  0  0  0  0
  150.4410  137.9545  154.0881 H   0  0  0  0  0  0  0  0  0  0  0  0
  152.9308  137.6492  155.0489 H   0  0  0  0  0  0  0  0  0  0  0  0
  152.6488  139.0682  154.0258 H   0  0  0  0  0  0  0  0  0  0  0  0
  151.8403  141.3041  155.5762 H   0  0  0  0  0  0  0  0  0  0  0  0
  151.3202  140.6602  157.1273 H   0  0  0  0  0  0  0  0  0  0  0  0
  143.5673  135.5708  150.8102 H   0  0  0  0  0  0  0  0  0  0  0  0
  143.3318  133.5000  153.0469 H   0  0  0  0  0  0  0  0  0  0  0  0
  142.1226  133.8730  151.8295 H   0  0  0  0  0  0  0  0  0  0  0  0
  142.5509  135.0740  153.0298 H   0  0  0  0  0  0  0  0  0  0  0  0
  145.1593  134.1531  149.7046 H   0  0  0  0  0  0  0  0  0  0  0  0
  143.6860  133.2626  149.9973 H   0  0  0  0  0  0  0  0  0  0  0  0
  144.7402  132.3268  151.9527 H   0  0  0  0  0  0  0  0  0  0  0  0
  1  2  1  0  0  0  0
  1 28  1  0  0  0  0
  1 29  1  0  0  0  0
  1 30  1  0  0  0  0
  2  3  1  0  0  0  0
  2 31  1  0  0  0  0
  2 32  1  0  0  0  0
  3 27  1  0  0  0  0
  3  4  1  0  0  0  0
  3 58  1  0  0  0  0
  4  5  1  0  0  0  0
  4 33  1  0  0  0  0
  4 34  1  0  0  0  0
  5  6  1  0  0  0  0
  5 35  1  0  0  0  0
  5 36  1  0  0  0  0
  6  7  1  0  0  0  0
  6 25  1  0  0  0  0
  6 37  1  0  0  0  0
  7  8  1  0  0  0  0
  7  9  1  0  0  0  0
  8 38  1  0  0  0  0
  8 39  1  0  0  0  0
  8 40  1  0  0  0  0
  9 14  1  0  0  0  0
  9 10  2  0  0  0  0
 10 11  1  0  0  0  0
 11 12  2  0  0  0  0
 11 41  1  0  0  0  0
 12 13  1  0  0  0  0
 13 17  1  0  0  0  0
 13 14  2  0  0  0  0
 14 15  1  0  0  0  0
 15 16  2  0  0  0  0
 16 17  1  0  0  0  0
 16 42  1  0  0  0  0
 17 18  1  0  0  0  0
 18 19  1  0  0  0  0
 18 43  1  0  0  0  0
 18 44  1  0  0  0  0
 19 24  1  0  0  0  0
 19 20  1  0  0  0  0
 19 21  1  0  0  0  0
 20 45  1  0  0  0  0
 21 22  1  0  0  0  0
 21 46  1  0  0  0  0
 21 47  1  0  0  0  0
 22 23  1  0  0  0  0
 22 48  1  0  0  0  0
 22 49  1  0  0  0  0
 23 24  1  0  0  0  0
 24 50  1  0  0  0  0
 24 51  1  0  0  0  0
 25 26  1  0  0  0  0
 25 27  1  0  0  0  0
 25 52  1  0  0  0  0
 26 53  1  0  0  0  0
 26 54  1  0  0  0  0
 26 55  1  0  0  0  0
 27 56  1  0  0  0  0
 27 57  1  0  0  0  0
M  CHG  1   3   1
M  END
> <s_m_source_file>
AV-unprocessed.smi

> <i_m_source_file_index>
243

> <i_lp_mmshare_version>
43012

> <i_f3d_flags>
0

> <s_epik_input>
W0NIM11bQ0gyXU4xW0NIMl1bQ0gyXVtDQEhdKFtDQEBIXShbQ0gzXSlbQ0gyXTEpTihbQ0gzXSljKG5bY0hdbjIpYyhjMjMpbltjSF1uM1tDSDJdW0NAQF00KFtPSF0pW0NIMl1bQ0gyXU9bQ0gyXTQ=

> <s_epik_cmdline>
J2VwaWtfcHl0aG9uJywgJy1waCcsICc3LjAnLCAnLXRuJywgJzgnLCAnLW1hJywgJzIwMCcsICctbWV0YWxfYmluZGluZycsICctaW1hZScsICc8aW5maWxlLm1hZT4nLCAnLW9tYWUnLCAnPG91dGZpbGUubWFlPic=

> <r_lp_tautomer_probability>
1

> <r_epik_Ionization_Penalty>
0.00253099

> <r_epik_Ionization_Penalty_Charging>
0.00137877

> <r_epik_Ionization_Penalty_Neutral>
0.00115221

> <r_epik_State_Penalty>
-0

> <r_epik_Charging_Adjusted_Penalty>
0.00137877

> <i_epik_Tot_Q>
1

> <i_epik_Tot_abs_Q>
1

> <r_epik_Metal_State_Penalty>
-0

> <b_epik_Metal_Only>
0

> <s_lp_Force_Field>
OPLS_2005

> <r_lp_Energy>
46.6392

> <b_lp_Chiralities_Consistent>
1

> <s_lp_Variant>
AV-unprocessed.smi:243-16

> <Gold.Version>
5.8.1

> <Gold.Id.Protein>
6NUR|6NUR_protein|mol2

> <Gold.PLP.Fitness>
42.6042

> <Gold.PLP.PLP>
-37.8224

> <Gold.PLP.part.hbond>
-2.7828

> <Gold.PLP.part.metal>
0.0000

> <Gold.PLP.part.buried>
-4.6379

> <Gold.PLP.part.nonpolar>
-32.3867

> <Gold.PLP.part.repulsive>
3.2625

> <Gold.PLP.ligand.clash>
0.4603

> <Gold.PLP.ligand.torsion>
1.1532

> <Gold.PLP.Chemscore.Hbond>
1.8660

> <Gold.PLP.Chemscore.CHOScore>
0.4875

> <Gold.PLP.Chemscore.Metal>
0.0000

> <Gold.Chemscore.Hbonds>
donor molecule, donor type, donor heavy atom, donor atom, acceptor molecule, acceptor atom, score
      P1  H  7989  7998       L1    20  0.83
      P1  H  7997  8010       L1    23  1.00
      L1  C    11    41       P1  7957  0.57

> <Gold.PLP.Chemscore.Internal.Correction>
0.4881

> <Gold.Rescore>
     Score         DG    S(hbond)    S(metal)    S(lipo)     H(rot)  DE(clash)    DE(int)     intcor
     10.31     -13.96       1.63        0.00      81.30       2.53       0.05       3.59       ----

> <Gold.Chemscore.Fitness>
10.3105

> <Gold.Chemscore.DG>
-13.9553

> <Gold.Chemscore.ZeroCoef>
-5.4800

> <Gold.Chemscore.Hbond>
1.6290

> <Gold.Chemscore.Metal>
0.0000

> <Gold.Chemscore.Lipo>
81.3032

> <Gold.Chemscore.Internal_Hbond>
0.0000

> <Gold.Chemscore.DEClash>
0.0529

> <Gold.Chemscore.DEInternal>
3.5919

> <Gold.Chemscore.Rot>
2.5305

> <Gold.Chemscore.Internal.Correction>
   9.000000E+99

> <Gold.Chemscore.Hbonds>
donor molecule, donor type, donor heavy atom, donor atom, acceptor molecule, acceptor atom, score
      P1  H  7989  7998       L1    20  0.48
      P1  H  7997  8010       L1    23  0.89

> <Gold.Chemscore.Hbond.Weighted>
-5.4408

> <Gold.Chemscore.Metal.Weighted>
-0.0000

> <Gold.Chemscore.Lipo.Weighted>
-9.5125

> <Gold.Chemscore.Internal_Hbond.Weighted>
0.0000

> <Gold.Chemscore.DEClash.Weighted>
0.0529

> <Gold.Chemscore.DEInternal.Weighted>
3.5919

> <Gold.Chemscore.Rot.Weighted>
6.4780

> <Gold.Chemscore.Internal.Correction.Weighted>
   9.000000E+99

> <Gold.Protein.RotatedTorsions>
[ 6907 6896 6895 6894 ] final  -17.63 input  -60.11 | X-H torsion
[ 7974 7965 7964 7962 ] final    5.21 input  175.53 | X-H torsion
[ 8008 7997 7996 7995 ] final   80.09 input   59.86 | X-H torsion
[ 10167 10162 10161 10158 ] final  -46.56 input  -65.29 | X-H torsion
[ 10718 10713 10712 10709 ] final -167.58 input   66.30 | X-H torsion
[ 10763 10752 10751 10750 ] final   89.05 input  -60.55 | X-H torsion
[ 11005 11000 10999 10996 ] final   50.18 input  -57.11 | X-H torsion

> <Gold.Protein.ActiveResidues>
 VAL166  LYS551  ARG553  GLY616  TRP617  ASP618  TYR619  PRO620  LYS621  CYS622 
 ASP623  PHE694  ASN695  SER759  ASP760  ASP761  ALA762  ILE779  LEU786  VAL792 
 PHE793  MET794  SER795  GLU796  ALA797  LYS798  CYS799  TRP800  GLU811  SER814 

> <Gold.Protein.RotatedAtoms>
  151.2904  135.0740  159.9201 H   0  0  0  0  0  0  0  0  0  0  0  0  # atno 6907 bound_to 6896
  152.5317  133.9937  159.7873 H   0  0  0  0  0  0  0  0  0  0  0  0  # atno 6908 bound_to 6896
  151.0206  133.5829  159.2702 H   0  0  0  0  0  0  0  0  0  0  0  0  # atno 6909 bound_to 6896
  146.2441  140.0419  142.8381 H   0  0  0  0  0  0  0  0  0  0  0  0  # atno 7974 bound_to 7965
  155.8787  140.3445  155.5872 H   0  0  0  0  0  0  0  0  0  0  0  0  # atno 8008 bound_to 7997
  155.7745  140.0850  157.2110 H   0  0  0  0  0  0  0  0  0  0  0  0  # atno 8009 bound_to 7997
  154.4023  140.1512  156.2968 H   0  0  0  0  0  0  0  0  0  0  0  0  # atno 8010 bound_to 7997
  140.6812  143.2825  151.3801 H   0  0  0  0  0  0  0  0  0  0  0  0  # atno 10167 bound_to 10162
  156.6845  130.9135  151.3061 H   0  0  0  0  0  0  0  0  0  0  0  0  # atno 10718 bound_to 10713
  153.1831  135.4484  155.0054 H   0  0  0  0  0  0  0  0  0  0  0  0  # atno 10763 bound_to 10752
  154.8043  135.3268  154.7474 H   0  0  0  0  0  0  0  0  0  0  0  0  # atno 10764 bound_to 10752
  153.7936  135.6968  153.4922 H   0  0  0  0  0  0  0  0  0  0  0  0  # atno 10765 bound_to 10752
  140.1039  134.5044  155.8737 H   0  0  0  0  0  0  0  0  0  0  0  0  # atno 11005 bound_to 11000
  145.1062  140.9377  143.4683 LP  0  0  0  0  0  0  0  0  0  0  0  0  # atno 17320 bound_to 7965
  145.0622  139.3096  143.5874 LP  0  0  0  0  0  0  0  0  0  0  0  0  # atno 17321 bound_to 7965
  139.6136  144.1048  152.2323 LP  0  0  0  0  0  0  0  0  0  0  0  0  # atno 17342 bound_to 10162
  140.0470  144.5962  150.7366 LP  0  0  0  0  0  0  0  0  0  0  0  0  # atno 17343 bound_to 10162
  157.7031  130.9355  150.0847 LP  0  0  0  0  0  0  0  0  0  0  0  0  # atno 17370 bound_to 10713
  156.1843  130.3651  149.8994 LP  0  0  0  0  0  0  0  0  0  0  0  0  # atno 17371 bound_to 10713
  141.2113  133.6705  156.6572 LP  0  0  0  0  0  0  0  0  0  0  0  0  # atno 17394 bound_to 11000
  140.3182  134.8030  157.4231 LP  0  0  0  0  0  0  0  0  0  0  0  0  # atno 17395 bound_to 11000

$$$$
