AV-unprocessed.smi:1377|AV-procd|sdf|5595|dock5
  -GOLD-   22720 5203D 1   1.00000     0.00000
 Structure written by MMmdl.
 28 29  0  0  0  0  0  0  0  0  2 V2000
  149.8668  138.5873  153.4059 N   0  0  0  0  0  0  0  0  0  0  0  0
  150.6931  138.7555  154.4414 C   0  0  0  0  0  0  0  0  0  0  0  0
  151.1600  139.8576  154.7258 O   0  0  0  0  0  0  0  0  0  0  0  0
  151.0311  137.4978  155.2537 C   0  0  0  0  0  0  0  0  0  0  0  0
  149.9424  137.1324  156.2245 C   0  0  0  0  0  0  0  0  0  0  0  0
  148.5893  137.1744  156.0045 C   0  0  0  0  0  0  0  0  0  0  0  0
  147.6925  136.6592  157.4038 S   0  0  0  0  0  0  0  0  0  0  0  0
  149.2104  136.3724  158.2570 C   0  0  0  0  0  0  0  0  0  0  0  0
  149.3116  135.9203  159.5167 N   0  5  0  0  0  0  0  0  0  0  0  0
  148.3774  136.2737  160.4313 C   0  0  0  0  0  0  0  0  0  0  0  0
  147.8313  137.3670  160.5908 O   0  0  0  0  0  0  0  0  0  0  0  0
  148.0057  135.0849  161.3316 C   0  0  0  0  0  0  0  0  0  0  0  0
  146.6183  134.4598  161.0881 C   0  0  0  0  0  0  0  0  0  0  0  0
  146.4330  134.3942  162.6074 C   0  0  0  0  0  0  0  0  0  0  0  0
  147.5088  135.4769  162.7341 C   0  0  0  0  0  0  0  0  0  0  0  0
  150.2731  136.6757  157.5038 N   0  0  0  0  0  0  0  0  0  0  0  0
  149.6137  139.3806  152.8349 H   0  0  0  0  0  0  0  0  0  0  0  0
  149.5016  137.6702  153.1954 H   0  0  0  0  0  0  0  0  0  0  0  0
  151.2088  136.6698  154.5665 H   0  0  0  0  0  0  0  0  0  0  0  0
  151.9720  137.6696  155.7778 H   0  0  0  0  0  0  0  0  0  0  0  0
  148.0676  137.4829  155.1112 H   0  0  0  0  0  0  0  0  0  0  0  0
  148.7901  134.3265  161.3709 H   0  0  0  0  0  0  0  0  0  0  0  0
  145.8963  135.1263  160.6135 H   0  0  0  0  0  0  0  0  0  0  0  0
  146.6425  133.4852  160.6004 H   0  0  0  0  0  0  0  0  0  0  0  0
  145.4449  134.6906  162.9600 H   0  0  0  0  0  0  0  0  0  0  0  0
  146.7454  133.4378  163.0294 H   0  0  0  0  0  0  0  0  0  0  0  0
  148.2291  135.3000  163.5330 H   0  0  0  0  0  0  0  0  0  0  0  0
  147.0927  136.4849  162.7860 H   0  0  0  0  0  0  0  0  0  0  0  0
  1  2  1  0  0  0  0
  1 17  1  0  0  0  0
  1 18  1  0  0  0  0
  2  3  2  0  0  0  0
  2  4  1  0  0  0  0
  4  5  1  0  0  0  0
  4 19  1  0  0  0  0
  4 20  1  0  0  0  0
  5 16  1  0  0  0  0
  5  6  2  0  0  0  0
  6  7  1  0  0  0  0
  6 21  1  0  0  0  0
  7  8  1  0  0  0  0
  8  9  1  0  0  0  0
  8 16  2  0  0  0  0
  9 10  1  0  0  0  0
 10 11  2  0  0  0  0
 10 12  1  0  0  0  0
 12 15  1  0  0  0  0
 12 13  1  0  0  0  0
 12 22  1  0  0  0  0
 13 14  1  0  0  0  0
 13 23  1  0  0  0  0
 13 24  1  0  0  0  0
 14 15  1  0  0  0  0
 14 25  1  0  0  0  0
 14 26  1  0  0  0  0
 15 27  1  0  0  0  0
 15 28  1  0  0  0  0
M  CHG  1   9  -1
M  END
> <s_m_source_file>
AV-unprocessed.smi

> <i_m_source_file_index>
1377

> <i_lp_mmshare_version>
43012

> <i_f3d_flags>
0

> <s_epik_input>
W05IMl1DKD1PKVtDSDJdYzFbY0hdc2MobjEpW05IXUMoPU8pW0NIXTJbQ0gyXVtDSDJdW0NIMl0y

> <s_epik_cmdline>
J2VwaWtfcHl0aG9uJywgJy1waCcsICc3LjAnLCAnLXRuJywgJzgnLCAnLW1hJywgJzIwMCcsICctbWV0YWxfYmluZGluZycsICctaW1hZScsICc8aW5maWxlLm1hZT4nLCAnLW9tYWUnLCAnPG91dGZpbGUubWFlPic=

> <r_lp_tautomer_probability>
1

> <r_epik_Ionization_Penalty>
5.13356

> <r_epik_Ionization_Penalty_Charging>
4.74096

> <r_epik_Ionization_Penalty_Neutral>
0.392596

> <r_epik_State_Penalty>
4.74076

> <r_epik_Charging_Adjusted_Penalty>
9.48173

> <i_epik_Tot_Q>
-1

> <i_epik_Tot_abs_Q>
1

> <r_epik_Metal_State_Penalty>
0.951691

> <b_epik_Metal_Only>
1

> <s_lp_Force_Field>
OPLS_2005

> <r_lp_Energy>
7.89776

> <b_lp_Chiralities_Consistent>
1

> <s_lp_Variant>
AV-unprocessed.smi:1377-2

> <Gold.Version>
5.8.1

> <Gold.Id.Protein>
6NUR|6NUR_protein|mol2

> <Gold.PLP.Fitness>
43.4825

> <Gold.PLP.PLP>
-27.2314

> <Gold.PLP.part.hbond>
-6.0000

> <Gold.PLP.part.metal>
0.0000

> <Gold.PLP.part.buried>
-4.0057

> <Gold.PLP.part.nonpolar>
-17.4234

> <Gold.PLP.part.repulsive>
0.1700

> <Gold.PLP.ligand.clash>
0.0000

> <Gold.PLP.ligand.torsion>
1.6038

> <Gold.PLP.Chemscore.Hbond>
6.3529

> <Gold.PLP.Chemscore.CHOScore>
0.0000

> <Gold.PLP.Chemscore.Metal>
0.0000

> <Gold.Chemscore.Hbonds>
donor molecule, donor type, donor heavy atom, donor atom, acceptor molecule, acceptor atom, score
      L1  H     1    17       P1  7957  0.88
      L1  H     1    18       P1  7948  0.99
      P1  H  6896  6908       L1     9  2.00
      P1  H  6931  6943       L1    11  0.70
      P1  H  6934  6947       L1    11  0.82
      P1  H  7989  7998       L1     3  1.00

> <Gold.PLP.Chemscore.Internal.Correction>
0.4000

> <Gold.Rescore>
     Score         DG    S(hbond)    S(metal)    S(lipo)     H(rot)  DE(clash)    DE(int)     intcor
     20.47     -22.22       4.98        0.00      42.38       1.89       0.02       1.73       ----

> <Gold.Chemscore.Fitness>
20.4668

> <Gold.Chemscore.DG>
-22.2157

> <Gold.Chemscore.ZeroCoef>
-5.4800

> <Gold.Chemscore.Hbond>
4.9774

> <Gold.Chemscore.Metal>
0.0000

> <Gold.Chemscore.Lipo>
42.3811

> <Gold.Chemscore.Internal_Hbond>
0.0000

> <Gold.Chemscore.DEClash>
0.0217

> <Gold.Chemscore.DEInternal>
1.7271

> <Gold.Chemscore.Rot>
1.8935

> <Gold.Chemscore.Internal.Correction>
   9.000000E+99

> <Gold.Chemscore.Hbonds>
donor molecule, donor type, donor heavy atom, donor atom, acceptor molecule, acceptor atom, score
      L1  H     1    17       P1  7957  0.86
      L1  H     1    18       P1  7948  0.80
      P1  H  6896  6908       L1     9  0.63
      P1  H  6931  6943       L1    11  0.27
      P1  H  6934  6947       L1    11  0.81
      P1  H  7989  7998       L1     3  0.97

> <Gold.Chemscore.Hbond.Weighted>
-16.6246

> <Gold.Chemscore.Metal.Weighted>
-0.0000

> <Gold.Chemscore.Lipo.Weighted>
-4.9586

> <Gold.Chemscore.Internal_Hbond.Weighted>
0.0000

> <Gold.Chemscore.DEClash.Weighted>
0.0217

> <Gold.Chemscore.DEInternal.Weighted>
1.7271

> <Gold.Chemscore.Rot.Weighted>
4.8475

> <Gold.Chemscore.Internal.Correction.Weighted>
   9.000000E+99

> <Gold.Protein.RotatedTorsions>
[ 6907 6896 6895 6894 ] final  167.30 input  -60.11 | X-H torsion
[ 7974 7965 7964 7962 ] final  -42.16 input  175.53 | X-H torsion
[ 8008 7997 7996 7995 ] final  -97.99 input   59.86 | X-H torsion
[ 10167 10162 10161 10158 ] final   -4.09 input  -65.29 | X-H torsion
[ 10718 10713 10712 10709 ] final   61.59 input   66.30 | X-H torsion
[ 10763 10752 10751 10750 ] final   97.24 input  -60.55 | X-H torsion
[ 11005 11000 10999 10996 ] final  -12.24 input  -57.11 | X-H torsion

> <Gold.Protein.ActiveResidues>
 VAL166  LYS551  ARG553  GLY616  TRP617  ASP618  TYR619  PRO620  LYS621  CYS622 
 ASP623  PHE694  ASN695  SER759  ASP760  ASP761  ALA762  ILE779  LEU786  VAL792 
 PHE793  MET794  SER795  GLU796  ALA797  LYS798  CYS799  TRP800  GLU811  SER814 

> <Gold.Protein.RotatedAtoms>
  151.8654  133.3465  159.3717 H   0  0  0  0  0  0  0  0  0  0  0  0  # atno 6907 bound_to 6896
  150.7167  134.5165  159.5642 H   0  0  0  0  0  0  0  0  0  0  0  0  # atno 6908 bound_to 6896
  152.2687  134.7957  160.0469 H   0  0  0  0  0  0  0  0  0  0  0  0  # atno 6909 bound_to 6896
  146.0143  140.6927  142.9209 H   0  0  0  0  0  0  0  0  0  0  0  0  # atno 7974 bound_to 7965
  154.7952  140.0458  157.1231 H   0  0  0  0  0  0  0  0  0  0  0  0  # atno 8008 bound_to 7997
  154.9543  140.3069  155.5040 H   0  0  0  0  0  0  0  0  0  0  0  0  # atno 8009 bound_to 7997
  156.2955  140.2282  156.4624 H   0  0  0  0  0  0  0  0  0  0  0  0  # atno 8010 bound_to 7997
  140.6915  143.6463  150.8390 H   0  0  0  0  0  0  0  0  0  0  0  0  # atno 10167 bound_to 10162
  157.5839  130.9003  149.9481 H   0  0  0  0  0  0  0  0  0  0  0  0  # atno 10718 bound_to 10713
  153.2745  135.4190  155.1020 H   0  0  0  0  0  0  0  0  0  0  0  0  # atno 10763 bound_to 10752
  154.8468  135.3480  154.6198 H   0  0  0  0  0  0  0  0  0  0  0  0  # atno 10764 bound_to 10752
  153.6618  135.7048  153.5232 H   0  0  0  0  0  0  0  0  0  0  0  0  # atno 10765 bound_to 10752
  140.7636  133.8495  155.9146 H   0  0  0  0  0  0  0  0  0  0  0  0  # atno 11005 bound_to 11000
  144.6965  140.3453  143.7192 LP  0  0  0  0  0  0  0  0  0  0  0  0  # atno 17320 bound_to 7965
  145.7294  139.1732  143.2439 LP  0  0  0  0  0  0  0  0  0  0  0  0  # atno 17321 bound_to 7965
  140.0177  143.5576  152.2813 LP  0  0  0  0  0  0  0  0  0  0  0  0  # atno 17342 bound_to 10162
  139.6322  144.7645  151.2512 LP  0  0  0  0  0  0  0  0  0  0  0  0  # atno 17343 bound_to 10162
  156.0887  130.3665  150.0437 LP  0  0  0  0  0  0  0  0  0  0  0  0  # atno 17370 bound_to 10713
  156.8572  130.9479  151.3621 LP  0  0  0  0  0  0  0  0  0  0  0  0  # atno 17371 bound_to 10713
  140.9640  134.1619  157.4631 LP  0  0  0  0  0  0  0  0  0  0  0  0  # atno 17394 bound_to 11000
  139.8767  134.9955  156.5746 LP  0  0  0  0  0  0  0  0  0  0  0  0  # atno 17395 bound_to 11000

$$$$
