AV-unprocessed.smi:148|AV-procd|sdf|1207|dock8
  -GOLD-   2262018373D 1   1.00000     0.00000
 Structure written by MMmdl.
 63 67  0  0  0  0  0  0  0  0  1 V2000
  147.0891  136.0327  154.0998 O   0  0  0  0  0  0  0  0  0  0  0  0
  146.0277  135.3641  153.4496 C   0  0  0  0  0  0  0  0  0  0  0  0
  146.5013  134.0675  152.7428 C   0  0  1  0  0  0  0  0  0  0  0  0
  146.5825  132.8629  153.7200 C   0  0  0  0  0  0  0  0  0  0  0  0
  146.5223  133.2430  155.1193 N   0  0  0  0  0  0  0  0  0  0  0  0
  145.3914  133.4978  155.8622 C   0  0  0  0  0  0  0  0  0  0  0  0
  145.6075  133.8467  157.1013 N   0  0  0  0  0  0  0  0  0  0  0  0
  146.9920  133.8217  157.2216 C   0  0  0  0  0  0  0  0  0  0  0  0
  147.9061  134.1169  158.2720 C   0  0  0  0  0  0  0  0  0  0  0  0
  147.5507  134.5400  159.5038 N   0  0  0  0  0  0  0  0  0  0  0  0
  148.1233  135.8666  159.7402 C   0  0  0  0  0  0  0  0  0  0  0  0
  147.5190  136.5235  160.9848 C   0  0  0  0  0  0  0  0  0  0  0  0
  147.6992  135.6062  162.1947 C   0  0  0  0  0  0  0  0  0  0  0  0
  147.0920  134.2285  161.9012 C   0  0  0  0  0  0  0  0  0  0  0  0
  147.6722  133.5736  160.6170 C   0  0  1  0  0  0  0  0  0  0  0  0
  146.9704  132.1956  160.3475 C   0  0  1  0  0  0  0  0  0  0  0  0
  146.6990  131.2901  161.5698 C   0  0  0  0  0  0  0  0  0  0  0  0
  145.5322  130.3637  161.1995 C   0  0  0  0  0  0  0  0  0  0  0  0
  145.0089  130.8580  159.8486 C   0  0  0  0  0  0  0  0  0  0  0  0
  145.5753  132.2696  159.6904 C   0  0  1  0  0  0  0  0  0  0  0  0
  144.7281  133.1732  160.3781 O   0  0  0  0  0  0  0  0  0  0  0  0
  149.2310  133.9614  158.0291 N   0  0  0  0  0  0  0  0  0  0  0  0
  149.6444  133.5670  156.8207 C   0  0  0  0  0  0  0  0  0  0  0  0
  148.9150  133.2831  155.7392 N   0  0  0  0  0  0  0  0  0  0  0  0
  147.5814  133.4257  155.9892 C   0  0  0  0  0  0  0  0  0  0  0  0
  145.5947  133.7154  151.5338 C   0  0  2  0  0  0  0  0  0  0  0  0
  144.1278  133.4736  151.8903 C   0  0  0  0  0  0  0  0  0  0  0  0
  143.6620  132.3722  150.9331 C   0  0  0  0  0  0  0  0  0  0  0  0
  144.7677  132.1163  150.0813 O   0  0  0  0  0  0  0  0  0  0  0  0
  145.9461  132.4133  150.8085 C   0  0  0  0  0  0  0  0  0  0  0  0
  147.8000  136.1370  153.4858 H   0  0  0  0  0  0  0  0  0  0  0  0
  145.2364  135.1475  154.1680 H   0  0  0  0  0  0  0  0  0  0  0  0
  145.6169  136.0787  152.7390 H   0  0  0  0  0  0  0  0  0  0  0  0
  147.5003  134.2526  152.3443 H   0  0  0  0  0  0  0  0  0  0  0  0
  145.7732  132.1604  153.5169 H   0  0  0  0  0  0  0  0  0  0  0  0
  147.5104  132.3086  153.5799 H   0  0  0  0  0  0  0  0  0  0  0  0
  144.3955  133.4325  155.4490 H   0  0  0  0  0  0  0  0  0  0  0  0
  149.2039  135.7806  159.8626 H   0  0  0  0  0  0  0  0  0  0  0  0
  147.9526  136.5096  158.8750 H   0  0  0  0  0  0  0  0  0  0  0  0
  147.9932  137.4878  161.1689 H   0  0  0  0  0  0  0  0  0  0  0  0
  146.4587  136.7203  160.8211 H   0  0  0  0  0  0  0  0  0  0  0  0
  148.7597  135.5013  162.4268 H   0  0  0  0  0  0  0  0  0  0  0  0
  147.2271  136.0458  163.0740 H   0  0  0  0  0  0  0  0  0  0  0  0
  147.2630  133.6001  162.7739 H   0  0  0  0  0  0  0  0  0  0  0  0
  146.0102  134.3278  161.8020 H   0  0  0  0  0  0  0  0  0  0  0  0
  148.7341  133.3937  160.7887 H   0  0  0  0  0  0  0  0  0  0  0  0
  147.6058  131.6324  159.6613 H   0  0  0  0  0  0  0  0  0  0  0  0
  147.5686  130.7008  161.8569 H   0  0  0  0  0  0  0  0  0  0  0  0
  146.4132  131.8968  162.4298 H   0  0  0  0  0  0  0  0  0  0  0  0
  145.8510  129.3228  161.1347 H   0  0  0  0  0  0  0  0  0  0  0  0
  144.7541  130.4199  161.9617 H   0  0  0  0  0  0  0  0  0  0  0  0
  145.4090  130.2220  159.0575 H   0  0  0  0  0  0  0  0  0  0  0  0
  143.9212  130.8189  159.7755 H   0  0  0  0  0  0  0  0  0  0  0  0
  145.6254  132.5549  158.6390 H   0  0  0  0  0  0  0  0  0  0  0  0
  143.8310  132.9359  160.1994 H   0  0  0  0  0  0  0  0  0  0  0  0
  150.7136  133.4723  156.7014 H   0  0  0  0  0  0  0  0  0  0  0  0
  145.6385  134.5254  150.8038 H   0  0  0  0  0  0  0  0  0  0  0  0
  144.0172  133.1300  152.9199 H   0  0  0  0  0  0  0  0  0  0  0  0
  143.5382  134.3840  151.7791 H   0  0  0  0  0  0  0  0  0  0  0  0
  143.4130  131.4647  151.4849 H   0  0  0  0  0  0  0  0  0  0  0  0
  142.7885  132.6666  150.3514 H   0  0  0  0  0  0  0  0  0  0  0  0
  146.7951  132.5152  150.1324 H   0  0  0  0  0  0  0  0  0  0  0  0
  146.1572  131.6075  151.5137 H   0  0  0  0  0  0  0  0  0  0  0  0
  1  2  1  0  0  0  0
  1 31  1  0  0  0  0
  2  3  1  0  0  0  0
  2 32  1  0  0  0  0
  2 33  1  0  0  0  0
  3  4  1  0  0  0  0
  3 26  1  0  0  0  0
  3 34  1  0  0  0  0
  4  5  1  0  0  0  0
  4 35  1  0  0  0  0
  4 36  1  0  0  0  0
  5 25  1  0  0  0  0
  5  6  1  0  0  0  0
  6  7  2  0  0  0  0
  6 37  1  0  0  0  0
  7  8  1  0  0  0  0
  8 25  2  0  0  0  0
  8  9  1  0  0  0  0
  9 10  1  0  0  0  0
  9 22  2  0  0  0  0
 10 15  1  0  0  0  0
 10 11  1  0  0  0  0
 11 12  1  0  0  0  0
 11 38  1  0  0  0  0
 11 39  1  0  0  0  0
 12 13  1  0  0  0  0
 12 40  1  0  0  0  0
 12 41  1  0  0  0  0
 13 14  1  0  0  0  0
 13 42  1  0  0  0  0
 13 43  1  0  0  0  0
 14 15  1  0  0  0  0
 14 44  1  0  0  0  0
 14 45  1  0  0  0  0
 15 16  1  0  0  0  0
 15 46  1  0  0  0  0
 16 20  1  0  0  0  0
 16 17  1  0  0  0  0
 16 47  1  0  0  0  0
 17 18  1  0  0  0  0
 17 48  1  0  0  0  0
 17 49  1  0  0  0  0
 18 19  1  0  0  0  0
 18 50  1  0  0  0  0
 18 51  1  0  0  0  0
 19 20  1  0  0  0  0
 19 52  1  0  0  0  0
 19 53  1  0  0  0  0
 20 21  1  0  0  0  0
 20 54  1  0  0  0  0
 21 55  1  0  0  0  0
 22 23  1  0  0  0  0
 23 24  2  0  0  0  0
 23 56  1  0  0  0  0
 24 25  1  0  0  0  0
 26 30  1  0  0  0  0
 26 27  1  0  0  0  0
 26 57  1  0  0  0  0
 27 28  1  0  0  0  0
 27 58  1  0  0  0  0
 27 59  1  0  0  0  0
 28 29  1  0  0  0  0
 28 60  1  0  0  0  0
 28 61  1  0  0  0  0
 29 30  1  0  0  0  0
 30 62  1  0  0  0  0
 30 63  1  0  0  0  0
M  END
> <s_m_source_file>
AV-unprocessed.smi

> <i_m_source_file_index>
148

> <i_lp_mmshare_version>
43012

> <i_f3d_flags>
0

> <s_epik_input>
W0NIMl0xT1tDSDJdW0NIMl1bQ0BIXTFbQ0BIXShbQ0gyXVtPSF0pW0NIMl1uKFtjSF1uMiljKGMyMyluW2NIXW5jM040W0NIMl1bQ0gyXVtDSDJdW0NIMl1bQ0BIXTRbQ0BASF01W0NIMl1bQ0gyXVtDSDJdW0NASF01W09IXQ==

> <s_epik_cmdline>
J2VwaWtfcHl0aG9uJywgJy1waCcsICc3LjAnLCAnLXRuJywgJzgnLCAnLW1hJywgJzIwMCcsICctbWV0YWxfYmluZGluZycsICctaW1hZScsICc8aW5maWxlLm1hZT4nLCAnLW9tYWUnLCAnPG91dGZpbGUubWFlPic=

> <r_lp_tautomer_probability>
1

> <r_epik_Ionization_Penalty>
0.00556303

> <r_epik_Ionization_Penalty_Charging>
0

> <r_epik_Ionization_Penalty_Neutral>
0.00556303

> <r_epik_State_Penalty>
0.00401767

> <r_epik_Charging_Adjusted_Penalty>
0.00401767

> <i_epik_Tot_Q>
0

> <i_epik_Tot_abs_Q>
0

> <r_epik_Metal_State_Penalty>
-0

> <b_epik_Metal_Only>
0

> <s_lp_Force_Field>
OPLS_2005

> <r_lp_Energy>
70.4735

> <b_lp_Chiralities_Consistent>
1

> <s_lp_Variant>
AV-unprocessed.smi:148-6

> <Gold.Version>
5.8.1

> <Gold.Id.Protein>
6NUR|6NUR_protein|mol2

> <Gold.PLP.Fitness>
40.5681

> <Gold.PLP.PLP>
-34.5039

> <Gold.PLP.part.hbond>
-2.0000

> <Gold.PLP.part.metal>
0.0000

> <Gold.PLP.part.buried>
-6.3449

> <Gold.PLP.part.nonpolar>
-26.8073

> <Gold.PLP.part.repulsive>
0.1874

> <Gold.PLP.ligand.clash>
0.0000

> <Gold.PLP.ligand.torsion>
1.7134

> <Gold.PLP.Chemscore.Hbond>
2.0000

> <Gold.PLP.Chemscore.CHOScore>
0.9971

> <Gold.PLP.Chemscore.Metal>
0.0000

> <Gold.Chemscore.Hbonds>
donor molecule, donor type, donor heavy atom, donor atom, acceptor molecule, acceptor atom, score
      L1  H     1    31       P1  7948  1.00
      P1  H  6896  6907       L1    22  1.00
      L1  C     6    37       P1 10957  1.00

> <Gold.PLP.Chemscore.Internal.Correction>
0.4997

> <Gold.Rescore>
     Score         DG    S(hbond)    S(metal)    S(lipo)     H(rot)  DE(clash)    DE(int)     intcor
     11.22     -14.06       1.93        0.00      90.80       3.32       0.04       2.80       ----

> <Gold.Chemscore.Fitness>
11.2191

> <Gold.Chemscore.DG>
-14.0589

> <Gold.Chemscore.ZeroCoef>
-5.4800

> <Gold.Chemscore.Hbond>
1.9328

> <Gold.Chemscore.Metal>
0.0000

> <Gold.Chemscore.Lipo>
90.7972

> <Gold.Chemscore.Internal_Hbond>
0.0000

> <Gold.Chemscore.DEClash>
0.0407

> <Gold.Chemscore.DEInternal>
2.7991

> <Gold.Chemscore.Rot>
3.3203

> <Gold.Chemscore.Internal.Correction>
   9.000000E+99

> <Gold.Chemscore.Hbonds>
donor molecule, donor type, donor heavy atom, donor atom, acceptor molecule, acceptor atom, score
      L1  H     1    31       P1  7948  0.97
      P1  H  6896  6907       L1    22  0.69

> <Gold.Chemscore.Hbond.Weighted>
-6.4556

> <Gold.Chemscore.Metal.Weighted>
-0.0000

> <Gold.Chemscore.Lipo.Weighted>
-10.6233

> <Gold.Chemscore.Internal_Hbond.Weighted>
0.0000

> <Gold.Chemscore.DEClash.Weighted>
0.0407

> <Gold.Chemscore.DEInternal.Weighted>
2.7991

> <Gold.Chemscore.Rot.Weighted>
8.5000

> <Gold.Chemscore.Internal.Correction.Weighted>
   9.000000E+99

> <Gold.Protein.RotatedTorsions>
[ 6907 6896 6895 6894 ] final -113.87 input  -60.11 | X-H torsion
[ 7974 7965 7964 7962 ] final  118.42 input  175.53 | X-H torsion
[ 8008 7997 7996 7995 ] final   99.30 input   59.86 | X-H torsion
[ 10167 10162 10161 10158 ] final   -3.46 input  -65.29 | X-H torsion
[ 10718 10713 10712 10709 ] final  -41.85 input   66.30 | X-H torsion
[ 10763 10752 10751 10750 ] final -101.00 input  -60.55 | X-H torsion
[ 11005 11000 10999 10996 ] final -101.87 input  -57.11 | X-H torsion

> <Gold.Protein.ActiveResidues>
 VAL166  LYS551  ARG553  GLY616  TRP617  ASP618  TYR619  PRO620  LYS621  CYS622 
 ASP623  PHE694  ASN695  SER759  ASP760  ASP761  ALA762  ILE779  LEU786  VAL792 
 PHE793  MET794  SER795  GLU796  ALA797  LYS798  CYS799  TRP800  GLU811  SER814 

> <Gold.Protein.RotatedAtoms>
  150.7861  133.8882  159.3305 H   0  0  0  0  0  0  0  0  0  0  0  0  # atno 6907 bound_to 6896
  151.6732  135.0971  160.0211 H   0  0  0  0  0  0  0  0  0  0  0  0  # atno 6908 bound_to 6896
  152.3925  133.6660  159.6284 H   0  0  0  0  0  0  0  0  0  0  0  0  # atno 6909 bound_to 6896
  145.1554  139.3186  143.4545 H   0  0  0  0  0  0  0  0  0  0  0  0  # atno 7974 bound_to 7965
  156.1091  140.3231  155.8047 H   0  0  0  0  0  0  0  0  0  0  0  0  # atno 8008 bound_to 7997
  155.4704  140.0546  157.2997 H   0  0  0  0  0  0  0  0  0  0  0  0  # atno 8009 bound_to 7997
  154.4748  140.2027  155.9920 H   0  0  0  0  0  0  0  0  0  0  0  0  # atno 8010 bound_to 7997
  140.6891  143.6538  150.8327 H   0  0  0  0  0  0  0  0  0  0  0  0  # atno 10167 bound_to 10162
  156.2659  130.4201  149.8490 H   0  0  0  0  0  0  0  0  0  0  0  0  # atno 10718 bound_to 10713
  154.7624  135.4914  153.9489 H   0  0  0  0  0  0  0  0  0  0  0  0  # atno 10763 bound_to 10752
  153.1267  135.6744  153.9253 H   0  0  0  0  0  0  0  0  0  0  0  0  # atno 10764 bound_to 10752
  153.8969  135.3114  155.3427 H   0  0  0  0  0  0  0  0  0  0  0  0  # atno 10765 bound_to 10752
  141.1213  133.8512  157.1287 H   0  0  0  0  0  0  0  0  0  0  0  0  # atno 11005 bound_to 11000
  146.3489  140.1645  142.8590 LP  0  0  0  0  0  0  0  0  0  0  0  0  # atno 17320 bound_to 7965
  145.0386  140.8928  143.5066 LP  0  0  0  0  0  0  0  0  0  0  0  0  # atno 17321 bound_to 7965
  140.0248  143.5504  152.2785 LP  0  0  0  0  0  0  0  0  0  0  0  0  # atno 17342 bound_to 10162
  139.6276  144.7639  151.2605 LP  0  0  0  0  0  0  0  0  0  0  0  0  # atno 17343 bound_to 10162
  156.5989  130.8538  151.3427 LP  0  0  0  0  0  0  0  0  0  0  0  0  # atno 17370 bound_to 10713
  157.7267  130.9633  150.1668 LP  0  0  0  0  0  0  0  0  0  0  0  0  # atno 17371 bound_to 10713
  140.0173  134.9962  157.0519 LP  0  0  0  0  0  0  0  0  0  0  0  0  # atno 17394 bound_to 11000
  140.4499  134.1593  155.7180 LP  0  0  0  0  0  0  0  0  0  0  0  0  # atno 17395 bound_to 11000

$$$$
