AV-unprocessed.smi:2268|AV-procd|sdf|9151|dock2
  -GOLD-   2272012353D 1   1.00000     0.00000
 Structure written by MMmdl.
 37 38  0  0  0  0  0  0  0  0  1 V2000
  150.5040  145.1311  160.0944 C   0  0  0  0  0  0  0  0  0  0  0  0
  151.4562  143.9596  160.2653 C   0  0  0  0  0  0  0  0  0  0  0  0
  152.1899  143.8568  161.4670 C   0  0  0  0  0  0  0  0  0  0  0  0
  153.0726  142.7819  161.6777 C   0  0  0  0  0  0  0  0  0  0  0  0
  153.7694  142.6935  162.8353 F   0  0  0  0  0  0  0  0  0  0  0  0
  153.2263  141.7974  160.6863 C   0  0  0  0  0  0  0  0  0  0  0  0
  152.5006  141.8925  159.4846 C   0  0  0  0  0  0  0  0  0  0  0  0
  151.6174  142.9735  159.2553 C   0  0  0  0  0  0  0  0  0  0  0  0
  150.8409  143.0362  157.9400 C   0  0  1  0  0  0  0  0  0  0  0  0
  151.2002  144.1736  157.1794 O   0  0  0  0  0  0  0  0  0  0  0  0
  151.0968  141.7679  157.0941 C   0  0  0  0  0  0  0  0  0  0  0  0
  149.8565  141.2068  156.5299 N   0  0  0  0  0  0  0  0  0  0  0  0
  148.6692  141.4987  157.2222 C   0  0  0  0  0  0  0  0  0  0  0  0
  147.5209  141.0661  156.8161 N   0  0  0  0  0  0  0  0  0  0  0  0
  147.4399  140.2853  155.6597 C   0  0  0  0  0  0  0  0  0  0  0  0
  146.0442  139.8295  155.2724 C   0  0  0  0  0  0  0  0  0  0  0  0
  148.5521  139.9656  154.9434 C   0  0  0  0  0  0  0  0  0  0  0  0
  148.5247  139.1176  153.6778 C   0  0  0  0  0  0  0  0  0  0  0  0
  149.8669  140.4507  155.3941 C   0  0  0  0  0  0  0  0  0  0  0  0
  150.9123  140.1965  154.7933 O   0  0  0  0  0  0  0  0  0  0  0  0
  150.4213  145.7133  161.0127 H   0  0  0  0  0  0  0  0  0  0  0  0
  149.5050  144.7807  159.8356 H   0  0  0  0  0  0  0  0  0  0  0  0
  150.8561  145.7984  159.3074 H   0  0  0  0  0  0  0  0  0  0  0  0
  152.0763  144.6040  162.2390 H   0  0  0  0  0  0  0  0  0  0  0  0
  153.8990  140.9678  160.8469 H   0  0  0  0  0  0  0  0  0  0  0  0
  152.6254  141.1231  158.7369 H   0  0  0  0  0  0  0  0  0  0  0  0
  149.7769  143.1381  158.1483 H   0  0  0  0  0  0  0  0  0  0  0  0
  150.4619  144.4224  156.6446 H   0  0  0  0  0  0  0  0  0  0  0  0
  151.8457  141.9656  156.3247 H   0  0  0  0  0  0  0  0  0  0  0  0
  151.5606  141.0073  157.7259 H   0  0  0  0  0  0  0  0  0  0  0  0
  148.7867  142.1133  158.1162 H   0  0  0  0  0  0  0  0  0  0  0  0
  145.7821  140.2023  154.2819 H   0  0  0  0  0  0  0  0  0  0  0  0
  145.2961  140.1971  155.9759 H   0  0  0  0  0  0  0  0  0  0  0  0
  145.9874  138.7408  155.2626 H   0  0  0  0  0  0  0  0  0  0  0  0
  149.1305  138.2210  153.8135 H   0  0  0  0  0  0  0  0  0  0  0  0
  148.9360  139.6799  152.8391 H   0  0  0  0  0  0  0  0  0  0  0  0
  147.5232  138.7958  153.3972 H   0  0  0  0  0  0  0  0  0  0  0  0
  1  2  1  0  0  0  0
  1 21  1  0  0  0  0
  1 22  1  0  0  0  0
  1 23  1  0  0  0  0
  2  8  1  0  0  0  0
  2  3  2  0  0  0  0
  3  4  1  0  0  0  0
  3 24  1  0  0  0  0
  4  5  1  0  0  0  0
  4  6  2  0  0  0  0
  6  7  1  0  0  0  0
  6 25  1  0  0  0  0
  7  8  2  0  0  0  0
  7 26  1  0  0  0  0
  8  9  1  0  0  0  0
  9 10  1  0  0  0  0
  9 11  1  0  0  0  0
  9 27  1  0  0  0  0
 10 28  1  0  0  0  0
 11 12  1  0  0  0  0
 11 29  1  0  0  0  0
 11 30  1  0  0  0  0
 12 19  1  0  0  0  0
 12 13  1  0  0  0  0
 13 14  2  0  0  0  0
 13 31  1  0  0  0  0
 14 15  1  0  0  0  0
 15 16  1  0  0  0  0
 15 17  2  0  0  0  0
 16 32  1  0  0  0  0
 16 33  1  0  0  0  0
 16 34  1  0  0  0  0
 17 18  1  0  0  0  0
 17 19  1  0  0  0  0
 18 35  1  0  0  0  0
 18 36  1  0  0  0  0
 18 37  1  0  0  0  0
 19 20  2  0  0  0  0
M  END
> <s_m_source_file>
AV-unprocessed.smi

> <i_m_source_file_index>
2268

> <i_lp_mmshare_version>
43012

> <i_f3d_flags>
0

> <s_epik_input>
W0NIM11jMVtjSF1jKEYpW2NIXVtjSF1jMVtDQEhdKFtPSF0pW0NIMl1uMltjSF1uYyhbQ0gzXSljKFtDSDNdKWMyPU8=

> <s_epik_cmdline>
J2VwaWtfcHl0aG9uJywgJy1waCcsICc3LjAnLCAnLXRuJywgJzgnLCAnLW1hJywgJzIwMCcsICctbWV0YWxfYmluZGluZycsICctaW1hZScsICc8aW5maWxlLm1hZT4nLCAnLW9tYWUnLCAnPG91dGZpbGUubWFlPic=

> <r_lp_tautomer_probability>
1

> <r_epik_Ionization_Penalty>
5.07449e-05

> <r_epik_Ionization_Penalty_Charging>
7.56727e-08

> <r_epik_Ionization_Penalty_Neutral>
5.06692e-05

> <r_epik_State_Penalty>
-0

> <r_epik_Charging_Adjusted_Penalty>
7.56727e-08

> <i_epik_Tot_Q>
0

> <i_epik_Tot_abs_Q>
0

> <r_epik_Metal_State_Penalty>
-0

> <b_epik_Metal_Only>
0

> <s_lp_Force_Field>
OPLS_2005

> <r_lp_Energy>
20.6014

> <b_lp_Chiralities_Consistent>
1

> <s_lp_Variant>
AV-unprocessed.smi:2268-2

> <Gold.Version>
5.8.1

> <Gold.Id.Protein>
6NUR|6NUR_protein|mol2

> <Gold.PLP.Fitness>
47.0932

> <Gold.PLP.PLP>
-43.2062

> <Gold.PLP.part.hbond>
-2.0000

> <Gold.PLP.part.metal>
0.0000

> <Gold.PLP.part.buried>
-4.5295

> <Gold.PLP.part.nonpolar>
-37.1480

> <Gold.PLP.part.repulsive>
0.1614

> <Gold.PLP.ligand.clash>
0.0000

> <Gold.PLP.ligand.torsion>
1.0234

> <Gold.PLP.Chemscore.Hbond>
1.9750

> <Gold.PLP.Chemscore.CHOScore>
0.0000

> <Gold.PLP.Chemscore.Metal>
0.0000

> <Gold.Chemscore.Hbonds>
donor molecule, donor type, donor heavy atom, donor atom, acceptor molecule, acceptor atom, score
      L1  H    10    28       P1  8028  1.00
      P1  H  7989  7998       L1    20  1.00

> <Gold.PLP.Chemscore.Internal.Correction>
0.0089

> <Gold.Rescore>
     Score         DG    S(hbond)    S(metal)    S(lipo)     H(rot)  DE(clash)    DE(int)     intcor
     18.13     -19.33       1.97        0.00     105.53       1.98       0.25       0.95       ----

> <Gold.Chemscore.Fitness>
18.1300

> <Gold.Chemscore.DG>
-19.3258

> <Gold.Chemscore.ZeroCoef>
-5.4800

> <Gold.Chemscore.Hbond>
1.9680

> <Gold.Chemscore.Metal>
0.0000

> <Gold.Chemscore.Lipo>
105.5344

> <Gold.Chemscore.Internal_Hbond>
0.0000

> <Gold.Chemscore.DEClash>
0.2487

> <Gold.Chemscore.DEInternal>
0.9470

> <Gold.Chemscore.Rot>
1.9823

> <Gold.Chemscore.Internal.Correction>
   9.000000E+99

> <Gold.Chemscore.Hbonds>
donor molecule, donor type, donor heavy atom, donor atom, acceptor molecule, acceptor atom, score
      L1  H    10    28       P1  8028  0.98
      P1  H  7989  7998       L1    20  0.99

> <Gold.Chemscore.Hbond.Weighted>
-6.5730

> <Gold.Chemscore.Metal.Weighted>
-0.0000

> <Gold.Chemscore.Lipo.Weighted>
-12.3475

> <Gold.Chemscore.Internal_Hbond.Weighted>
0.0000

> <Gold.Chemscore.DEClash.Weighted>
0.2487

> <Gold.Chemscore.DEInternal.Weighted>
0.9470

> <Gold.Chemscore.Rot.Weighted>
5.0748

> <Gold.Chemscore.Internal.Correction.Weighted>
   9.000000E+99

> <Gold.Protein.RotatedTorsions>
[ 6907 6896 6895 6894 ] final -160.69 input  -60.11 | X-H torsion
[ 7974 7965 7964 7962 ] final -110.22 input  175.53 | X-H torsion
[ 8008 7997 7996 7995 ] final   -8.91 input   59.86 | X-H torsion
[ 10167 10162 10161 10158 ] final  -16.70 input  -65.29 | X-H torsion
[ 10718 10713 10712 10709 ] final   17.69 input   66.30 | X-H torsion
[ 10763 10752 10751 10750 ] final  149.88 input  -60.55 | X-H torsion
[ 11005 11000 10999 10996 ] final  -87.25 input  -57.11 | X-H torsion

> <Gold.Protein.ActiveResidues>
 VAL166  LYS551  ARG553  GLY616  TRP617  ASP618  TYR619  PRO620  LYS621  CYS622 
 ASP623  PHE694  ASN695  SER759  ASP760  ASP761  ALA762  ILE779  LEU786  VAL792 
 PHE793  MET794  SER795  GLU796  ALA797  LYS798  CYS799  TRP800  GLU811  SER814 

> <Gold.Protein.RotatedAtoms>
  151.3530  133.3918  159.2681 H   0  0  0  0  0  0  0  0  0  0  0  0  # atno 6907 bound_to 6896
  150.9786  134.9146  159.7841 H   0  0  0  0  0  0  0  0  0  0  0  0  # atno 6908 bound_to 6896
  152.5209  134.3493  159.9298 H   0  0  0  0  0  0  0  0  0  0  0  0  # atno 6909 bound_to 6896
  145.1709  140.8925  143.3535 H   0  0  0  0  0  0  0  0  0  0  0  0  # atno 7974 bound_to 7965
  154.5696  140.2369  155.8211 H   0  0  0  0  0  0  0  0  0  0  0  0  # atno 8008 bound_to 7997
  156.2096  140.3030  155.9661 H   0  0  0  0  0  0  0  0  0  0  0  0  # atno 8009 bound_to 7997
  155.2737  140.0419  157.3000 H   0  0  0  0  0  0  0  0  0  0  0  0  # atno 8010 bound_to 7997
  140.7237  143.5090  150.9774 H   0  0  0  0  0  0  0  0  0  0  0  0  # atno 10167 bound_to 10162
  157.0857  130.6407  149.5837 H   0  0  0  0  0  0  0  0  0  0  0  0  # atno 10718 bound_to 10713
  154.0783  135.2861  155.3295 H   0  0  0  0  0  0  0  0  0  0  0  0  # atno 10763 bound_to 10752
  154.6701  135.5303  153.8130 H   0  0  0  0  0  0  0  0  0  0  0  0  # atno 10764 bound_to 10752
  153.0458  135.6555  154.0960 H   0  0  0  0  0  0  0  0  0  0  0  0  # atno 10765 bound_to 10752
  141.1619  133.7500  156.9279 H   0  0  0  0  0  0  0  0  0  0  0  0  # atno 11005 bound_to 11000
  145.0233  139.3405  143.6061 LP  0  0  0  0  0  0  0  0  0  0  0  0  # atno 17320 bound_to 7965
  146.3468  139.9542  142.8725 LP  0  0  0  0  0  0  0  0  0  0  0  0  # atno 17321 bound_to 7965
  139.8802  143.7081  152.3157 LP  0  0  0  0  0  0  0  0  0  0  0  0  # atno 17342 bound_to 10162
  139.7361  144.7571  151.0726 LP  0  0  0  0  0  0  0  0  0  0  0  0  # atno 17343 bound_to 10162
  155.9911  130.4965  150.7286 LP  0  0  0  0  0  0  0  0  0  0  0  0  # atno 17370 bound_to 10713
  157.4763  131.0898  151.0587 LP  0  0  0  0  0  0  0  0  0  0  0  0  # atno 17371 bound_to 10713
  140.1406  134.9296  157.2462 LP  0  0  0  0  0  0  0  0  0  0  0  0  # atno 17394 bound_to 11000
  140.2841  134.3316  155.7334 LP  0  0  0  0  0  0  0  0  0  0  0  0  # atno 17395 bound_to 11000

$$$$
