AV-unprocessed.smi:3167|AV-procd|sdf|12097|dock7
  -GOLD-   2272017533D 1   1.00000     0.00000
 Structure written by MMmdl.
 37 38  0  0  0  0  0  0  0  0  2 V2000
  145.6095  141.9906  155.0233 C   0  0  0  0  0  0  0  0  0  0  0  0
  146.9418  141.4970  154.4156 C   0  0  2  0  0  0  0  0  0  0  0  0
  146.9351  139.9537  154.2578 C   0  0  0  0  0  0  0  0  0  0  0  0
  145.6106  139.4159  153.9619 N   0  0  0  0  0  0  0  0  0  0  0  0
  145.1869  138.1928  154.3113 C   0  0  0  0  0  0  0  0  0  0  0  0
  145.8837  137.3849  154.9257 O   0  0  0  0  0  0  0  0  0  0  0  0
  143.9254  137.9768  153.9061 N   0  0  0  0  0  0  0  0  0  0  0  0
  143.1626  136.7940  154.0724 C   0  0  0  0  0  0  0  0  0  0  0  0
  141.7479  136.6197  154.0382 C   0  0  0  0  0  0  0  0  0  0  0  0
  141.4157  135.3528  154.2430 N   0  0  0  0  0  0  0  0  0  0  0  0
  142.5988  134.7196  154.4071 N   0  0  0  0  0  0  0  0  0  0  0  0
  143.6868  135.5589  154.3117 C   0  0  0  0  0  0  0  0  0  0  0  0
  148.1093  141.9371  155.2331 N   0  3  0  0  0  0  0  0  0  0  0  0
  148.1108  141.4566  156.6388 C   0  0  0  0  0  0  0  0  0  0  0  0
  149.5643  141.1326  157.0107 C   0  0  0  0  0  0  0  0  0  0  0  0
  150.3959  141.6931  155.8631 C   0  0  0  0  0  0  0  0  0  0  0  0
  149.4418  141.6144  154.6771 C   0  0  0  0  0  0  0  0  0  0  0  0
  142.6459  133.7257  154.5815 H   0  0  0  0  0  0  0  0  0  0  0  0
  144.7533  141.6662  154.4319 H   0  0  0  0  0  0  0  0  0  0  0  0
  145.5548  143.0784  155.0618 H   0  0  0  0  0  0  0  0  0  0  0  0
  145.4723  141.6120  156.0366 H   0  0  0  0  0  0  0  0  0  0  0  0
  147.0465  141.9525  153.4294 H   0  0  0  0  0  0  0  0  0  0  0  0
  147.6179  139.6274  153.4724 H   0  0  0  0  0  0  0  0  0  0  0  0
  147.2878  139.4867  155.1779 H   0  0  0  0  0  0  0  0  0  0  0  0
  144.9731  140.0172  153.4599 H   0  0  0  0  0  0  0  0  0  0  0  0
  143.4633  138.7340  153.4245 H   0  0  0  0  0  0  0  0  0  0  0  0
  140.9634  137.3440  153.8782 H   0  0  0  0  0  0  0  0  0  0  0  0
  144.7042  135.2129  154.4187 H   0  0  0  0  0  0  0  0  0  0  0  0
  147.7000  142.2335  157.2845 H   0  0  0  0  0  0  0  0  0  0  0  0
  147.4950  140.5640  156.7608 H   0  0  0  0  0  0  0  0  0  0  0  0
  149.8537  141.5505  157.9754 H   0  0  0  0  0  0  0  0  0  0  0  0
  149.6962  140.0510  157.0657 H   0  0  0  0  0  0  0  0  0  0  0  0
  150.6529  142.7340  156.0642 H   0  0  0  0  0  0  0  0  0  0  0  0
  151.3224  141.1415  155.7006 H   0  0  0  0  0  0  0  0  0  0  0  0
  149.4386  140.5997  154.2749 H   0  0  0  0  0  0  0  0  0  0  0  0
  149.7286  142.2992  153.8784 H   0  0  0  0  0  0  0  0  0  0  0  0
  148.0724  142.9451  155.2843 H   0  0  0  0  0  0  0  0  0  0  0  0
  1  2  1  0  0  0  0
  1 19  1  0  0  0  0
  1 20  1  0  0  0  0
  1 21  1  0  0  0  0
  2  3  1  0  0  0  0
  2 13  1  0  0  0  0
  2 22  1  0  0  0  0
  3  4  1  0  0  0  0
  3 23  1  0  0  0  0
  3 24  1  0  0  0  0
  4  5  1  0  0  0  0
  4 25  1  0  0  0  0
  5  6  2  0  0  0  0
  5  7  1  0  0  0  0
  7  8  1  0  0  0  0
  7 26  1  0  0  0  0
  8 12  2  0  0  0  0
  8  9  1  0  0  0  0
  9 10  2  0  0  0  0
  9 27  1  0  0  0  0
 10 11  1  0  0  0  0
 11 18  1  0  0  0  0
 11 12  1  0  0  0  0
 12 28  1  0  0  0  0
 13 17  1  0  0  0  0
 13 14  1  0  0  0  0
 13 37  1  0  0  0  0
 14 15  1  0  0  0  0
 14 29  1  0  0  0  0
 14 30  1  0  0  0  0
 15 16  1  0  0  0  0
 15 31  1  0  0  0  0
 15 32  1  0  0  0  0
 16 17  1  0  0  0  0
 16 33  1  0  0  0  0
 16 34  1  0  0  0  0
 17 35  1  0  0  0  0
 17 36  1  0  0  0  0
M  CHG  1  13   1
M  END
> <s_m_source_file>
AV-unprocessed.smi

> <i_m_source_file_index>
3167

> <i_lp_mmshare_version>
43012

> <i_f3d_flags>
0

> <s_epik_input>
W0NIMl0xW0NIMl1bQ0gyXVtDSDJdTjFbQ0BIXShbQ0gzXSlbQ0gyXVtOSF1DKD1PKVtOSF1jMltjSF1uW25IXVtjSF0y

> <s_epik_cmdline>
J2VwaWtfcHl0aG9uJywgJy1waCcsICc3LjAnLCAnLXRuJywgJzgnLCAnLW1hJywgJzIwMCcsICctbWV0YWxfYmluZGluZycsICctaW1hZScsICc8aW5maWxlLm1hZT4nLCAnLW9tYWUnLCAnPG91dGZpbGUubWFlPic=

> <r_lp_tautomer_probability>
0.5

> <r_epik_Ionization_Penalty>
0.000801258

> <r_epik_Ionization_Penalty_Charging>
0.000761583

> <r_epik_Ionization_Penalty_Neutral>
3.96747e-05

> <r_epik_State_Penalty>
0.000487427

> <r_epik_Charging_Adjusted_Penalty>
0.00124901

> <i_epik_Tot_Q>
1

> <i_epik_Tot_abs_Q>
1

> <r_epik_Metal_State_Penalty>
-0

> <b_epik_Metal_Only>
0

> <s_lp_Force_Field>
OPLS_2005

> <r_lp_Energy>
32.1126

> <b_lp_Chiralities_Consistent>
1

> <s_lp_Variant>
AV-unprocessed.smi:3167-1

> <Gold.Version>
5.8.1

> <Gold.Id.Protein>
6NUR|6NUR_protein|mol2

> <Gold.PLP.Fitness>
39.3544

> <Gold.PLP.PLP>
-23.4870

> <Gold.PLP.part.hbond>
-5.9349

> <Gold.PLP.part.metal>
0.0000

> <Gold.PLP.part.buried>
-3.9768

> <Gold.PLP.part.nonpolar>
-13.7446

> <Gold.PLP.part.repulsive>
0.2818

> <Gold.PLP.ligand.clash>
0.0000

> <Gold.PLP.ligand.torsion>
0.5724

> <Gold.PLP.Chemscore.Hbond>
5.6600

> <Gold.PLP.Chemscore.CHOScore>
0.0000

> <Gold.PLP.Chemscore.Metal>
0.0000

> <Gold.Chemscore.Hbonds>
donor molecule, donor type, donor heavy atom, donor atom, acceptor molecule, acceptor atom, score
      L1  H     4    25       P1 10175  1.00
      L1  H     7    26       P1 10175  0.96
      L1  H    11    18       P1 10957  1.00
      L1  H    13    37       P1  8028  2.00
      P1  H 11000 11005       L1    10  0.54

> <Gold.PLP.Chemscore.Internal.Correction>
0.0322

> <Gold.Rescore>
     Score         DG    S(hbond)    S(metal)    S(lipo)     H(rot)  DE(clash)    DE(int)     intcor
     20.40     -21.37       4.34        0.00      47.65       1.63       0.12       0.84       ----

> <Gold.Chemscore.Fitness>
20.3991

> <Gold.Chemscore.DG>
-21.3672

> <Gold.Chemscore.ZeroCoef>
-5.4800

> <Gold.Chemscore.Hbond>
4.3378

> <Gold.Chemscore.Metal>
0.0000

> <Gold.Chemscore.Lipo>
47.6462

> <Gold.Chemscore.Internal_Hbond>
0.0000

> <Gold.Chemscore.DEClash>
0.1246

> <Gold.Chemscore.DEInternal>
0.8435

> <Gold.Chemscore.Rot>
1.6311

> <Gold.Chemscore.Internal.Correction>
   9.000000E+99

> <Gold.Chemscore.Hbonds>
donor molecule, donor type, donor heavy atom, donor atom, acceptor molecule, acceptor atom, score
      L1  H     4    25       P1 10175  0.99
      L1  H     7    26       P1 10175  0.91
      L1  H    11    18       P1 10957  0.98
      L1  H    13    37       P1  8028  0.89
      P1  H 11000 11005       L1    10  0.16

> <Gold.Chemscore.Hbond.Weighted>
-14.4883

> <Gold.Chemscore.Metal.Weighted>
-0.0000

> <Gold.Chemscore.Lipo.Weighted>
-5.5746

> <Gold.Chemscore.Internal_Hbond.Weighted>
0.0000

> <Gold.Chemscore.DEClash.Weighted>
0.1246

> <Gold.Chemscore.DEInternal.Weighted>
0.8435

> <Gold.Chemscore.Rot.Weighted>
4.1757

> <Gold.Chemscore.Internal.Correction.Weighted>
   9.000000E+99

> <Gold.Protein.RotatedTorsions>
[ 6907 6896 6895 6894 ] final  123.37 input  -60.11 | X-H torsion
[ 7974 7965 7964 7962 ] final  128.17 input  175.53 | X-H torsion
[ 8008 7997 7996 7995 ] final  157.09 input   59.86 | X-H torsion
[ 10167 10162 10161 10158 ] final   21.97 input  -65.29 | X-H torsion
[ 10718 10713 10712 10709 ] final  171.57 input   66.30 | X-H torsion
[ 10763 10752 10751 10750 ] final    2.38 input  -60.55 | X-H torsion
[ 11005 11000 10999 10996 ] final   40.88 input  -57.11 | X-H torsion

> <Gold.Protein.ActiveResidues>
 VAL166  LYS551  ARG553  GLY616  TRP617  ASP618  TYR619  PRO620  LYS621  CYS622 
 ASP623  PHE694  ASN695  SER759  ASP760  ASP761  ALA762  ILE779  LEU786  VAL792 
 PHE793  MET794  SER795  GLU796  ALA797  LYS798  CYS799  TRP800  GLU811  SER814 

> <Gold.Protein.RotatedAtoms>
  152.4167  133.7050  159.6445 H   0  0  0  0  0  0  0  0  0  0  0  0  # atno 6907 bound_to 6896
  150.8044  133.8526  159.3218 H   0  0  0  0  0  0  0  0  0  0  0  0  # atno 6908 bound_to 6896
  151.6254  135.1030  160.0162 H   0  0  0  0  0  0  0  0  0  0  0  0  # atno 6909 bound_to 6896
  145.0424  139.3951  143.5095 H   0  0  0  0  0  0  0  0  0  0  0  0  # atno 7974 bound_to 7965
  156.2385  140.1895  156.7055 H   0  0  0  0  0  0  0  0  0  0  0  0  # atno 8008 bound_to 7997
  154.6151  140.0616  156.9570 H   0  0  0  0  0  0  0  0  0  0  0  0  # atno 8009 bound_to 7997
  155.1953  140.3288  155.4354 H   0  0  0  0  0  0  0  0  0  0  0  0  # atno 8010 bound_to 7997
  140.5385  143.9719  150.6505 H   0  0  0  0  0  0  0  0  0  0  0  0  # atno 10167 bound_to 10162
  156.9916  131.0149  151.2855 H   0  0  0  0  0  0  0  0  0  0  0  0  # atno 10718 bound_to 10713
  153.2963  135.6952  153.7245 H   0  0  0  0  0  0  0  0  0  0  0  0  # atno 10763 bound_to 10752
  153.6177  135.3433  155.3001 H   0  0  0  0  0  0  0  0  0  0  0  0  # atno 10764 bound_to 10752
  154.8538  135.4378  154.2061 H   0  0  0  0  0  0  0  0  0  0  0  0  # atno 10765 bound_to 10752
  140.1888  134.4012  155.8158 H   0  0  0  0  0  0  0  0  0  0  0  0  # atno 11005 bound_to 11000
  146.3510  140.0032  142.8674 LP  0  0  0  0  0  0  0  0  0  0  0  0  # atno 17320 bound_to 7965
  145.1630  140.9682  143.4366 LP  0  0  0  0  0  0  0  0  0  0  0  0  # atno 17321 bound_to 7965
  140.3113  143.3196  152.0876 LP  0  0  0  0  0  0  0  0  0  0  0  0  # atno 17342 bound_to 10162
  139.4980  144.6634  151.6411 LP  0  0  0  0  0  0  0  0  0  0  0  0  # atno 17343 bound_to 10162
  157.5455  130.8147  149.8080 LP  0  0  0  0  0  0  0  0  0  0  0  0  # atno 17370 bound_to 10713
  156.0205  130.3797  150.1977 LP  0  0  0  0  0  0  0  0  0  0  0  0  # atno 17371 bound_to 10713
  141.2225  133.7036  156.8059 LP  0  0  0  0  0  0  0  0  0  0  0  0  # atno 17394 bound_to 11000
  140.2183  134.8776  157.3349 LP  0  0  0  0  0  0  0  0  0  0  0  0  # atno 17395 bound_to 11000

$$$$
