AV-unprocessed.smi:1046|AV-procd|sdf|4553|dock5
  -GOLD-   22720 2583D 1   1.00000     0.00000
 Structure written by MMmdl.
 54 56  0  0  0  0  0  0  0  0  3 V2000
  151.9858  144.7678  160.6095 C   0  0  0  0  0  0  0  0  0  0  0  0
  151.9116  143.6601  159.5722 C   0  0  0  0  0  0  0  0  0  0  0  0
  151.0684  143.8416  158.4526 C   0  0  0  0  0  0  0  0  0  0  0  0
  151.0185  142.8100  157.5224 C   0  0  0  0  0  0  0  0  0  0  0  0
  150.2940  142.6810  156.3354 N   0  3  0  0  0  0  0  0  0  0  0  0
  150.5714  141.4773  155.7615 C   0  0  0  0  0  0  0  0  0  0  0  0
  151.4722  140.8409  156.5595 N   0  0  0  0  0  0  0  0  0  0  0  0
  152.1010  139.5215  156.4154 C   0  0  0  0  0  0  0  0  0  0  0  0
  151.0800  138.3752  156.2641 C   0  0  1  0  0  0  0  0  0  0  0  0
  150.0577  138.5968  157.2141 O   0  0  0  0  0  0  0  0  0  0  0  0
  150.4539  138.3033  154.8538 C   0  0  0  0  0  0  0  0  0  0  0  0
  149.6391  137.0796  154.6439 N   0  3  0  0  0  0  0  0  0  0  0  0
  148.2528  137.1933  155.1727 C   0  0  0  0  0  0  0  0  0  0  0  0
  147.4601  135.9017  154.8865 C   0  0  0  0  0  0  0  0  0  0  0  0
  148.0970  134.6979  155.4264 N   0  0  0  0  0  0  0  0  0  0  0  0
  148.0659  134.5957  156.8893 C   0  0  0  0  0  0  0  0  0  0  0  0
  148.8353  133.4007  157.4744 C   0  0  0  0  0  0  0  0  0  0  0  0
  150.1687  133.7861  157.7262 O   0  0  0  0  0  0  0  0  0  0  0  0
  149.4522  134.6096  154.8839 C   0  0  0  0  0  0  0  0  0  0  0  0
  150.3059  135.8614  155.1728 C   0  0  0  0  0  0  0  0  0  0  0  0
  151.7721  141.6303  157.6748 C   0  0  0  0  0  0  0  0  0  0  0  0
  152.6056  141.4336  158.7729 C   0  0  0  0  0  0  0  0  0  0  0  0
  152.6684  142.4701  159.7317 C   0  0  0  0  0  0  0  0  0  0  0  0
  153.5666  142.2820  160.9425 C   0  0  0  0  0  0  0  0  0  0  0  0
  151.4391  145.6541  160.2861 H   0  0  0  0  0  0  0  0  0  0  0  0
  153.0198  145.0643  160.7871 H   0  0  0  0  0  0  0  0  0  0  0  0
  151.5537  144.4333  161.5530 H   0  0  0  0  0  0  0  0  0  0  0  0
  150.4854  144.7427  158.3285 H   0  0  0  0  0  0  0  0  0  0  0  0
  150.1541  141.0989  154.8394 H   0  0  0  0  0  0  0  0  0  0  0  0
  152.7769  139.5599  155.5596 H   0  0  0  0  0  0  0  0  0  0  0  0
  152.7259  139.3597  157.2952 H   0  0  0  0  0  0  0  0  0  0  0  0
  151.5708  137.4359  156.5153 H   0  0  0  0  0  0  0  0  0  0  0  0
  149.2843  138.9085  156.7696 H   0  0  0  0  0  0  0  0  0  0  0  0
  149.8347  139.1898  154.7059 H   0  0  0  0  0  0  0  0  0  0  0  0
  151.2225  138.3418  154.0813 H   0  0  0  0  0  0  0  0  0  0  0  0
  148.2755  137.4041  156.2426 H   0  0  0  0  0  0  0  0  0  0  0  0
  147.7391  138.0315  154.7037 H   0  0  0  0  0  0  0  0  0  0  0  0
  146.4423  135.9978  155.2627 H   0  0  0  0  0  0  0  0  0  0  0  0
  147.3567  135.7893  153.8063 H   0  0  0  0  0  0  0  0  0  0  0  0
  148.5030  135.5035  157.3078 H   0  0  0  0  0  0  0  0  0  0  0  0
  147.0382  134.5708  157.2502 H   0  0  0  0  0  0  0  0  0  0  0  0
  148.3962  133.0579  158.4108 H   0  0  0  0  0  0  0  0  0  0  0  0
  148.8315  132.5608  156.7791 H   0  0  0  0  0  0  0  0  0  0  0  0
  150.3870  134.5083  157.1566 H   0  0  0  0  0  0  0  0  0  0  0  0
  149.9514  133.7222  155.2751 H   0  0  0  0  0  0  0  0  0  0  0  0
  149.3940  134.4634  153.8043 H   0  0  0  0  0  0  0  0  0  0  0  0
  151.2807  135.7454  154.6975 H   0  0  0  0  0  0  0  0  0  0  0  0
  150.4905  135.9707  156.2423 H   0  0  0  0  0  0  0  0  0  0  0  0
  153.1790  140.5266  158.8957 H   0  0  0  0  0  0  0  0  0  0  0  0
  154.0089  141.2854  160.9603 H   0  0  0  0  0  0  0  0  0  0  0  0
  153.0015  142.4100  161.8661 H   0  0  0  0  0  0  0  0  0  0  0  0
  154.3797  143.0083  160.9298 H   0  0  0  0  0  0  0  0  0  0  0  0
  149.5666  136.9438  153.6459 H   0  0  0  0  0  0  0  0  0  0  0  0
  149.6517  143.3602  155.9469 H   0  0  0  0  0  0  0  0  0  0  0  0
  1  2  1  0  0  0  0
  1 25  1  0  0  0  0
  1 26  1  0  0  0  0
  1 27  1  0  0  0  0
  2 23  1  0  0  0  0
  2  3  2  0  0  0  0
  3  4  1  0  0  0  0
  3 28  1  0  0  0  0
  4 21  2  0  0  0  0
  4  5  1  0  0  0  0
  5  6  2  0  0  0  0
  5 54  1  0  0  0  0
  6  7  1  0  0  0  0
  6 29  1  0  0  0  0
  7  8  1  0  0  0  0
  7 21  1  0  0  0  0
  8  9  1  0  0  0  0
  8 30  1  0  0  0  0
  8 31  1  0  0  0  0
  9 10  1  0  0  0  0
  9 11  1  0  0  0  0
  9 32  1  0  0  0  0
 10 33  1  0  0  0  0
 11 12  1  0  0  0  0
 11 34  1  0  0  0  0
 11 35  1  0  0  0  0
 12 20  1  0  0  0  0
 12 13  1  0  0  0  0
 12 53  1  0  0  0  0
 13 14  1  0  0  0  0
 13 36  1  0  0  0  0
 13 37  1  0  0  0  0
 14 15  1  0  0  0  0
 14 38  1  0  0  0  0
 14 39  1  0  0  0  0
 15 16  1  0  0  0  0
 15 19  1  0  0  0  0
 16 17  1  0  0  0  0
 16 40  1  0  0  0  0
 16 41  1  0  0  0  0
 17 18  1  0  0  0  0
 17 42  1  0  0  0  0
 17 43  1  0  0  0  0
 18 44  1  0  0  0  0
 19 20  1  0  0  0  0
 19 45  1  0  0  0  0
 19 46  1  0  0  0  0
 20 47  1  0  0  0  0
 20 48  1  0  0  0  0
 21 22  1  0  0  0  0
 22 23  2  0  0  0  0
 22 49  1  0  0  0  0
 23 24  1  0  0  0  0
 24 50  1  0  0  0  0
 24 51  1  0  0  0  0
 24 52  1  0  0  0  0
M  CHG  1   5   1
M  CHG  1  12   1
M  END
> <s_m_source_file>
AV-unprocessed.smi

> <i_m_source_file_index>
1046

> <i_lp_mmshare_version>
43012

> <i_f3d_flags>
0

> <s_epik_input>
W0NIM11jKFtjSF0xKWMoW0NIM10pW2NIXWMoYzEyKW4oW2NIXW4yKVtDSDJdW0NASF0oW09IXSlbQ0gyXU4zW0NIMl1bQ0gyXU4oW0NIMl1bQ0gyXTMpW0NIMl1bQ0gyXVtPSF0=

> <s_epik_cmdline>
J2VwaWtfcHl0aG9uJywgJy1waCcsICc3LjAnLCAnLXRuJywgJzgnLCAnLW1hJywgJzIwMCcsICctbWV0YWxfYmluZGluZycsICctaW1hZScsICc8aW5maWxlLm1hZT4nLCAnLW9tYWUnLCAnPG91dGZpbGUubWFlPic=

> <r_epik_Ionization_Penalty>
1.22056

> <r_epik_Ionization_Penalty_Charging>
1.17959

> <r_epik_Ionization_Penalty_Neutral>
0.0409743

> <r_epik_State_Penalty>
1.27074

> <r_epik_Charging_Adjusted_Penalty>
2.45032

> <i_epik_Tot_Q>
2

> <i_epik_Tot_abs_Q>
2

> <r_epik_Metal_State_Penalty>
5.26922

> <b_epik_Metal_Only>
0

> <s_lp_Force_Field>
OPLS_2005

> <r_lp_Energy>
42.2252

> <b_lp_Chiralities_Consistent>
1

> <s_lp_Variant>
AV-unprocessed.smi:1046-6

> <Gold.Version>
5.8.1

> <Gold.Id.Protein>
6NUR|6NUR_protein|mol2

> <Gold.PLP.Fitness>
56.0073

> <Gold.PLP.PLP>
-42.1187

> <Gold.PLP.part.hbond>
-3.0000

> <Gold.PLP.part.metal>
0.0000

> <Gold.PLP.part.buried>
-5.0195

> <Gold.PLP.part.nonpolar>
-33.8906

> <Gold.PLP.part.repulsive>
0.1762

> <Gold.PLP.ligand.clash>
0.0000

> <Gold.PLP.ligand.torsion>
0.5926

> <Gold.PLP.Chemscore.Hbond>
5.0000

> <Gold.PLP.Chemscore.CHOScore>
0.0000

> <Gold.PLP.Chemscore.Metal>
0.0000

> <Gold.Chemscore.Hbonds>
donor molecule, donor type, donor heavy atom, donor atom, acceptor molecule, acceptor atom, score
      L1  H     5    54       P1  8028  2.00
      L1  H    12    53       P1  7948  2.00
      P1  H  6896  6907       L1    18  1.00

> <Gold.PLP.Chemscore.Internal.Correction>
0.0738

> <Gold.Rescore>
     Score         DG    S(hbond)    S(metal)    S(lipo)     H(rot)  DE(clash)    DE(int)     intcor
     19.16     -20.07       2.87        0.00     114.68       3.29       0.07       0.85       ----

> <Gold.Chemscore.Fitness>
19.1590

> <Gold.Chemscore.DG>
-20.0744

> <Gold.Chemscore.ZeroCoef>
-5.4800

> <Gold.Chemscore.Hbond>
2.8736

> <Gold.Chemscore.Metal>
0.0000

> <Gold.Chemscore.Lipo>
114.6838

> <Gold.Chemscore.Internal_Hbond>
0.0000

> <Gold.Chemscore.DEClash>
0.0686

> <Gold.Chemscore.DEInternal>
0.8469

> <Gold.Chemscore.Rot>
3.2896

> <Gold.Chemscore.Internal.Correction>
   9.000000E+99

> <Gold.Chemscore.Hbonds>
donor molecule, donor type, donor heavy atom, donor atom, acceptor molecule, acceptor atom, score
      L1  H     5    54       P1  8028  0.98
      L1  H    12    53       P1  7948  0.80
      P1  H  6896  6907       L1    18  0.89

> <Gold.Chemscore.Hbond.Weighted>
-9.5979

> <Gold.Chemscore.Metal.Weighted>
-0.0000

> <Gold.Chemscore.Lipo.Weighted>
-13.4180

> <Gold.Chemscore.Internal_Hbond.Weighted>
0.0000

> <Gold.Chemscore.DEClash.Weighted>
0.0686

> <Gold.Chemscore.DEInternal.Weighted>
0.8469

> <Gold.Chemscore.Rot.Weighted>
8.4215

> <Gold.Chemscore.Internal.Correction.Weighted>
   9.000000E+99

> <Gold.Protein.RotatedTorsions>
[ 6907 6896 6895 6894 ] final -119.87 input  -60.11 | X-H torsion
[ 7974 7965 7964 7962 ] final  130.37 input  175.53 | X-H torsion
[ 8008 7997 7996 7995 ] final -156.06 input   59.86 | X-H torsion
[ 10167 10162 10161 10158 ] final   51.52 input  -65.29 | X-H torsion
[ 10718 10713 10712 10709 ] final  -73.94 input   66.30 | X-H torsion
[ 10763 10752 10751 10750 ] final -133.67 input  -60.55 | X-H torsion
[ 11005 11000 10999 10996 ] final   36.47 input  -57.11 | X-H torsion

> <Gold.Protein.ActiveResidues>
 VAL166  LYS551  ARG553  GLY616  TRP617  ASP618  TYR619  PRO620  LYS621  CYS622 
 ASP623  PHE694  ASN695  SER759  ASP760  ASP761  ALA762  ILE779  LEU786  VAL792 
 PHE793  MET794  SER795  GLU796  ALA797  LYS798  CYS799  TRP800  GLU811  SER814 

> <Gold.Protein.RotatedAtoms>
  150.8343  133.8040  159.3085 H   0  0  0  0  0  0  0  0  0  0  0  0  # atno 6907 bound_to 6896
  151.5760  135.1059  160.0016 H   0  0  0  0  0  0  0  0  0  0  0  0  # atno 6908 bound_to 6896
  152.4418  133.7420  159.6702 H   0  0  0  0  0  0  0  0  0  0  0  0  # atno 6909 bound_to 6896
  145.0186  139.4152  143.5208 H   0  0  0  0  0  0  0  0  0  0  0  0  # atno 7974 bound_to 7965
  155.7114  140.0779  157.2369 H   0  0  0  0  0  0  0  0  0  0  0  0  # atno 8008 bound_to 7997
  154.4058  140.1629  156.2354 H   0  0  0  0  0  0  0  0  0  0  0  0  # atno 8009 bound_to 7997
  155.9279  140.3393  155.6228 H   0  0  0  0  0  0  0  0  0  0  0  0  # atno 8010 bound_to 7997
  140.2610  144.3373  150.6318 H   0  0  0  0  0  0  0  0  0  0  0  0  # atno 10167 bound_to 10162
  156.0261  130.4405  150.2818 H   0  0  0  0  0  0  0  0  0  0  0  0  # atno 10718 bound_to 10713
  154.8729  135.3758  154.4611 H   0  0  0  0  0  0  0  0  0  0  0  0  # atno 10763 bound_to 10752
  153.5279  135.7028  153.5703 H   0  0  0  0  0  0  0  0  0  0  0  0  # atno 10764 bound_to 10752
  153.3921  135.3970  155.1895 H   0  0  0  0  0  0  0  0  0  0  0  0  # atno 10765 bound_to 10752
  140.2323  134.3513  155.7959 H   0  0  0  0  0  0  0  0  0  0  0  0  # atno 11005 bound_to 11000
  146.3482  139.9671  142.8710 LP  0  0  0  0  0  0  0  0  0  0  0  0  # atno 17320 bound_to 7965
  145.1926  140.9818  143.4202 LP  0  0  0  0  0  0  0  0  0  0  0  0  # atno 17321 bound_to 7965
  140.5966  143.2167  151.7153 LP  0  0  0  0  0  0  0  0  0  0  0  0  # atno 17342 bound_to 10162
  139.5017  144.3858  152.0330 LP  0  0  0  0  0  0  0  0  0  0  0  0  # atno 17343 bound_to 10162
  157.0921  131.0172  151.3117 LP  0  0  0  0  0  0  0  0  0  0  0  0  # atno 17370 bound_to 10713
  157.4846  130.7785  149.7447 LP  0  0  0  0  0  0  0  0  0  0  0  0  # atno 17371 bound_to 10713
  141.2217  133.7252  156.8751 LP  0  0  0  0  0  0  0  0  0  0  0  0  # atno 17394 bound_to 11000
  140.1738  134.9081  157.2866 LP  0  0  0  0  0  0  0  0  0  0  0  0  # atno 17395 bound_to 11000

$$$$
