AV-unprocessed.smi:2535|AV-procd|sdf|9976|dock3
  -GOLD-   2272014 23D 1   1.00000     0.00000
 Structure written by MMmdl.
 26 27  0  0  0  0  0  0  0  0  2 V2000
  152.3923  140.8797  158.3541 C   0  0  0  0  0  0  0  0  0  0  0  0
  152.1482  140.3425  157.0297 N   0  0  0  0  0  0  0  0  0  0  0  0
  152.9200  139.3465  156.5311 N   0  0  0  0  0  0  0  0  0  0  0  0
  152.4633  139.0777  155.3421 N   0  0  0  0  0  0  0  0  0  0  0  0
  151.3859  139.8824  155.0241 N   0  0  0  0  0  0  0  0  0  0  0  0
  151.2342  140.6469  156.0977 C   0  0  0  0  0  0  0  0  0  0  0  0
  150.1912  141.7104  156.2498 C   0  0  0  0  0  0  0  0  0  0  0  0
  148.7699  141.2027  155.9511 C   0  0  2  0  0  0  0  0  0  0  0  0
  148.5598  140.6753  154.5286 C   0  0  0  0  0  0  0  0  0  0  0  0
  147.0520  140.7957  154.3460 C   0  0  0  0  0  0  0  0  0  0  0  0
  146.7045  142.0798  155.1032 C   0  0  0  0  0  0  0  0  0  0  0  0
  147.7551  142.2609  156.1261 N   0  3  0  0  0  0  0  0  0  0  0  0
  151.4793  140.8269  158.9476 H   0  0  0  0  0  0  0  0  0  0  0  0
  152.7119  141.9186  158.2776 H   0  0  0  0  0  0  0  0  0  0  0  0
  153.1717  140.3084  158.8603 H   0  0  0  0  0  0  0  0  0  0  0  0
  150.2401  142.0864  157.2724 H   0  0  0  0  0  0  0  0  0  0  0  0
  150.4327  142.5552  155.6044 H   0  0  0  0  0  0  0  0  0  0  0  0
  148.5159  140.4063  156.6530 H   0  0  0  0  0  0  0  0  0  0  0  0
  149.0669  141.3143  153.8048 H   0  0  0  0  0  0  0  0  0  0  0  0
  148.9237  139.6559  154.3951 H   0  0  0  0  0  0  0  0  0  0  0  0
  146.7513  140.8271  153.2982 H   0  0  0  0  0  0  0  0  0  0  0  0
  146.5558  139.9432  154.8122 H   0  0  0  0  0  0  0  0  0  0  0  0
  146.7291  142.9370  154.4297 H   0  0  0  0  0  0  0  0  0  0  0  0
  145.7133  142.0351  155.5551 H   0  0  0  0  0  0  0  0  0  0  0  0
  147.3624  142.2118  157.0554 H   0  0  0  0  0  0  0  0  0  0  0  0
  148.1843  143.1646  155.9873 H   0  0  0  0  0  0  0  0  0  0  0  0
  1  2  1  0  0  0  0
  1 13  1  0  0  0  0
  1 14  1  0  0  0  0
  1 15  1  0  0  0  0
  2  6  1  0  0  0  0
  2  3  1  0  0  0  0
  3  4  2  0  0  0  0
  4  5  1  0  0  0  0
  5  6  2  0  0  0  0
  6  7  1  0  0  0  0
  7  8  1  0  0  0  0
  7 16  1  0  0  0  0
  7 17  1  0  0  0  0
  8 12  1  0  0  0  0
  8  9  1  0  0  0  0
  8 18  1  0  0  0  0
  9 10  1  0  0  0  0
  9 19  1  0  0  0  0
  9 20  1  0  0  0  0
 10 11  1  0  0  0  0
 10 21  1  0  0  0  0
 10 22  1  0  0  0  0
 11 12  1  0  0  0  0
 11 23  1  0  0  0  0
 11 24  1  0  0  0  0
 12 25  1  0  0  0  0
 12 26  1  0  0  0  0
M  CHG  1  12   1
M  END
> <s_m_source_file>
AV-unprocessed.smi

> <i_m_source_file_index>
2535

> <i_lp_mmshare_version>
43012

> <i_f3d_flags>
0

> <s_epik_input>
W0NIM11uMW5ubmMxW0NIMl1bQ0BASF0yW0NIMl1bQ0gyXVtDSDJdW05IXTI=

> <s_epik_cmdline>
J2VwaWtfcHl0aG9uJywgJy1waCcsICc3LjAnLCAnLXRuJywgJzgnLCAnLW1hJywgJzIwMCcsICctbWV0YWxfYmluZGluZycsICctaW1hZScsICc8aW5maWxlLm1hZT4nLCAnLW9tYWUnLCAnPG91dGZpbGUubWFlPic=

> <r_lp_tautomer_probability>
1

> <r_epik_Ionization_Penalty>
0.000863359

> <r_epik_Ionization_Penalty_Charging>
0.000863359

> <r_epik_Ionization_Penalty_Neutral>
1.80841e-10

> <r_epik_State_Penalty>
0.000557253

> <r_epik_Charging_Adjusted_Penalty>
0.00142061

> <i_epik_Tot_Q>
1

> <i_epik_Tot_abs_Q>
1

> <r_epik_Metal_State_Penalty>
-0

> <b_epik_Metal_Only>
0

> <s_lp_Force_Field>
OPLS_2005

> <r_lp_Energy>
24.3513

> <b_lp_Chiralities_Consistent>
1

> <s_lp_Variant>
AV-unprocessed.smi:2535-1

> <Gold.Version>
5.8.1

> <Gold.Id.Protein>
6NUR|6NUR_protein|mol2

> <Gold.PLP.Fitness>
36.7487

> <Gold.PLP.PLP>
-24.8743

> <Gold.PLP.part.hbond>
-3.3037

> <Gold.PLP.part.metal>
0.0000

> <Gold.PLP.part.buried>
-2.8491

> <Gold.PLP.part.nonpolar>
-19.4793

> <Gold.PLP.part.repulsive>
0.1438

> <Gold.PLP.ligand.clash>
0.0000

> <Gold.PLP.ligand.torsion>
0.0629

> <Gold.PLP.Chemscore.Hbond>
4.0000

> <Gold.PLP.Chemscore.CHOScore>
0.0000

> <Gold.PLP.Chemscore.Metal>
0.0000

> <Gold.Chemscore.Hbonds>
donor molecule, donor type, donor heavy atom, donor atom, acceptor molecule, acceptor atom, score
      L1  H    12    26       P1  8028  2.00
      P1  H  7989  7998       L1     5  1.00
      P1  H  7997  8008       L1     3  1.00

> <Gold.PLP.Chemscore.Internal.Correction>
0.0003

> <Gold.Rescore>
     Score         DG    S(hbond)    S(metal)    S(lipo)     H(rot)  DE(clash)    DE(int)     intcor
     12.45     -14.11       2.11        0.00      42.81       1.34       0.21       1.45       ----

> <Gold.Chemscore.Fitness>
12.4473

> <Gold.Chemscore.DG>
-14.1081

> <Gold.Chemscore.ZeroCoef>
-5.4800

> <Gold.Chemscore.Hbond>
2.1113

> <Gold.Chemscore.Metal>
0.0000

> <Gold.Chemscore.Lipo>
42.8081

> <Gold.Chemscore.Internal_Hbond>
0.0000

> <Gold.Chemscore.DEClash>
0.2125

> <Gold.Chemscore.DEInternal>
1.4483

> <Gold.Chemscore.Rot>
1.3407

> <Gold.Chemscore.Internal.Correction>
   9.000000E+99

> <Gold.Chemscore.Hbonds>
donor molecule, donor type, donor heavy atom, donor atom, acceptor molecule, acceptor atom, score
      L1  H    12    26       P1  8028  0.70
      P1  H  7989  7998       L1     5  0.70
      P1  H  7997  8008       L1     3  0.23

> <Gold.Chemscore.Hbond.Weighted>
-7.0518

> <Gold.Chemscore.Metal.Weighted>
-0.0000

> <Gold.Chemscore.Lipo.Weighted>
-5.0085

> <Gold.Chemscore.Internal_Hbond.Weighted>
0.0000

> <Gold.Chemscore.DEClash.Weighted>
0.2125

> <Gold.Chemscore.DEInternal.Weighted>
1.4483

> <Gold.Chemscore.Rot.Weighted>
3.4323

> <Gold.Chemscore.Internal.Correction.Weighted>
   9.000000E+99

> <Gold.Protein.RotatedTorsions>
[ 6907 6896 6895 6894 ] final   54.80 input  -60.11 | X-H torsion
[ 7974 7965 7964 7962 ] final    8.31 input  175.53 | X-H torsion
[ 8008 7997 7996 7995 ] final  -55.94 input   59.86 | X-H torsion
[ 10167 10162 10161 10158 ] final  -69.00 input  -65.29 | X-H torsion
[ 10718 10713 10712 10709 ] final -156.93 input   66.30 | X-H torsion
[ 10763 10752 10751 10750 ] final  170.55 input  -60.55 | X-H torsion
[ 11005 11000 10999 10996 ] final -112.53 input  -57.11 | X-H torsion

> <Gold.Protein.ActiveResidues>
 VAL166  LYS551  ARG553  GLY616  TRP617  ASP618  TYR619  PRO620  LYS621  CYS622 
 ASP623  PHE694  ASN695  SER759  ASP760  ASP761  ALA762  ILE779  LEU786  VAL792 
 PHE793  MET794  SER795  GLU796  ALA797  LYS798  CYS799  TRP800  GLU811  SER814 

> <Gold.Protein.RotatedAtoms>
  152.3475  134.7051  160.0245 H   0  0  0  0  0  0  0  0  0  0  0  0  # atno 6907 bound_to 6896
  151.7416  133.3317  159.3375 H   0  0  0  0  0  0  0  0  0  0  0  0  # atno 6908 bound_to 6896
  150.7519  134.6206  159.6179 H   0  0  0  0  0  0  0  0  0  0  0  0  # atno 6909 bound_to 6896
  146.2417  139.9952  142.8421 H   0  0  0  0  0  0  0  0  0  0  0  0  # atno 7974 bound_to 7965
  154.4212  140.1141  156.5557 H   0  0  0  0  0  0  0  0  0  0  0  0  # atno 8008 bound_to 7997
  155.6364  140.3496  155.4681 H   0  0  0  0  0  0  0  0  0  0  0  0  # atno 8009 bound_to 7997
  155.9906  140.1179  157.0631 H   0  0  0  0  0  0  0  0  0  0  0  0  # atno 8010 bound_to 7997
  140.5464  143.2313  151.6993 H   0  0  0  0  0  0  0  0  0  0  0  0  # atno 10167 bound_to 10162
  156.5332  130.8530  151.2723 H   0  0  0  0  0  0  0  0  0  0  0  0  # atno 10718 bound_to 10713
  154.3992  135.2755  155.2107 H   0  0  0  0  0  0  0  0  0  0  0  0  # atno 10763 bound_to 10752
  154.4140  135.6015  153.5973 H   0  0  0  0  0  0  0  0  0  0  0  0  # atno 10764 bound_to 10752
  152.9831  135.5956  154.4257 H   0  0  0  0  0  0  0  0  0  0  0  0  # atno 10765 bound_to 10752
  141.0670  133.9443  157.2560 H   0  0  0  0  0  0  0  0  0  0  0  0  # atno 11005 bound_to 11000
  145.1466  140.9600  143.4457 LP  0  0  0  0  0  0  0  0  0  0  0  0  # atno 17320 bound_to 7965
  145.0244  139.3395  143.6056 LP  0  0  0  0  0  0  0  0  0  0  0  0  # atno 17321 bound_to 7965
  139.5009  144.3887  152.0302 LP  0  0  0  0  0  0  0  0  0  0  0  0  # atno 17342 bound_to 10162
  140.3001  144.3657  150.6063 LP  0  0  0  0  0  0  0  0  0  0  0  0  # atno 17343 bound_to 10162
  157.7418  130.9877  150.2471 LP  0  0  0  0  0  0  0  0  0  0  0  0  # atno 17370 bound_to 10713
  156.3040  130.3762  149.7724 LP  0  0  0  0  0  0  0  0  0  0  0  0  # atno 17371 bound_to 10713
  139.9486  135.0180  156.8925 LP  0  0  0  0  0  0  0  0  0  0  0  0  # atno 17394 bound_to 11000
  140.5753  134.0404  155.7445 LP  0  0  0  0  0  0  0  0  0  0  0  0  # atno 17395 bound_to 11000

$$$$
