AV-unprocessed.smi:2243|AV-procd|sdf|9064|dock7
  -GOLD-   2272012273D 1   1.00000     0.00000
 Structure written by MMmdl.
 35 36  0  0  0  0  0  0  0  0  2 V2000
  146.8022  141.9441  153.7688 C   0  0  0  0  0  0  0  0  0  0  0  0
  147.7242  140.7617  153.4239 C   0  0  2  0  0  0  0  0  0  0  0  0
  146.9369  139.5317  153.5228 N   0  0  0  0  0  0  0  0  0  0  0  0
  146.6883  138.6727  152.5216 C   0  0  0  0  0  0  0  0  0  0  0  0
  147.1097  138.8142  151.3733 O   0  0  0  0  0  0  0  0  0  0  0  0
  145.9289  137.6452  152.9313 N   0  0  0  0  0  0  0  0  0  0  0  0
  145.4916  136.5699  152.1239 C   0  0  0  0  0  0  0  0  0  0  0  0
  146.3103  135.7035  151.5289 N   0  3  0  0  0  0  0  0  0  0  0  0
  145.5565  134.7947  150.8283 C   0  0  0  0  0  0  0  0  0  0  0  0
  144.2471  135.1588  151.0326 C   0  0  0  0  0  0  0  0  0  0  0  0
  144.1901  136.2734  151.8454 O   0  0  0  0  0  0  0  0  0  0  0  0
  148.9824  140.6791  154.3293 C   0  0  0  0  0  0  0  0  0  0  0  0
  149.7468  139.3500  154.1594 C   0  0  0  0  0  0  0  0  0  0  0  0
  150.9402  139.2608  155.1246 C   0  0  0  0  0  0  0  0  0  0  0  0
  150.4951  139.4140  156.4663 O   0  0  0  0  0  0  0  0  0  0  0  0
  149.9004  140.6835  156.7037 C   0  0  0  0  0  0  0  0  0  0  0  0
  148.6487  140.8502  155.8271 C   0  0  0  0  0  0  0  0  0  0  0  0
  147.2877  142.9023  153.5862 H   0  0  0  0  0  0  0  0  0  0  0  0
  146.4939  141.9177  154.8144 H   0  0  0  0  0  0  0  0  0  0  0  0
  145.8997  141.9277  153.1565 H   0  0  0  0  0  0  0  0  0  0  0  0
  148.0608  140.9027  152.3952 H   0  0  0  0  0  0  0  0  0  0  0  0
  146.5466  139.3260  154.4310 H   0  0  0  0  0  0  0  0  0  0  0  0
  147.3219  135.6826  151.5619 H   0  0  0  0  0  0  0  0  0  0  0  0
  146.0171  133.9954  150.2656 H   0  0  0  0  0  0  0  0  0  0  0  0
  143.3004  134.7611  150.6968 H   0  0  0  0  0  0  0  0  0  0  0  0
  149.6561  141.4895  154.0464 H   0  0  0  0  0  0  0  0  0  0  0  0
  149.0740  138.5107  154.3403 H   0  0  0  0  0  0  0  0  0  0  0  0
  150.1152  139.2418  153.1397 H   0  0  0  0  0  0  0  0  0  0  0  0
  151.4275  138.2906  155.0262 H   0  0  0  0  0  0  0  0  0  0  0  0
  151.6895  140.0181  154.8886 H   0  0  0  0  0  0  0  0  0  0  0  0
  149.6306  140.7526  157.7577 H   0  0  0  0  0  0  0  0  0  0  0  0
  150.6218  141.4785  156.5075 H   0  0  0  0  0  0  0  0  0  0  0  0
  148.2140  141.8310  156.0190 H   0  0  0  0  0  0  0  0  0  0  0  0
  147.8996  140.1146  156.1233 H   0  0  0  0  0  0  0  0  0  0  0  0
  145.6398  137.6312  153.8981 H   0  0  0  0  0  0  0  0  0  0  0  0
  1  2  1  0  0  0  0
  1 18  1  0  0  0  0
  1 19  1  0  0  0  0
  1 20  1  0  0  0  0
  2  3  1  0  0  0  0
  2 12  1  0  0  0  0
  2 21  1  0  0  0  0
  3 22  1  0  0  0  0
  3  4  1  0  0  0  0
  4  6  1  0  0  0  0
  4  5  2  0  0  0  0
  6  7  1  0  0  0  0
  6 35  1  0  0  0  0
  7 11  1  0  0  0  0
  7  8  2  0  0  0  0
  8 23  1  0  0  0  0
  8  9  1  0  0  0  0
  9 24  1  0  0  0  0
  9 10  2  0  0  0  0
 10 25  1  0  0  0  0
 10 11  1  0  0  0  0
 12 17  1  0  0  0  0
 12 13  1  0  0  0  0
 12 26  1  0  0  0  0
 13 14  1  0  0  0  0
 13 27  1  0  0  0  0
 13 28  1  0  0  0  0
 14 15  1  0  0  0  0
 14 29  1  0  0  0  0
 14 30  1  0  0  0  0
 15 16  1  0  0  0  0
 16 17  1  0  0  0  0
 16 31  1  0  0  0  0
 16 32  1  0  0  0  0
 17 33  1  0  0  0  0
 17 34  1  0  0  0  0
M  CHG  1   8   1
M  END
> <s_m_source_file>
AV-unprocessed.smi

> <i_m_source_file_index>
2243

> <i_lp_mmshare_version>
43012

> <i_f3d_flags>
0

> <s_epik_input>
W0NIMl0xW0NIMl1PW0NIMl1bQ0gyXVtDSF0xW0NASF0oW0NIM10pW05IXUMoPU8pW05IXWMybltjSF1bY0hdbzI=

> <s_epik_cmdline>
J2VwaWtfcHl0aG9uJywgJy1waCcsICc3LjAnLCAnLXRuJywgJzgnLCAnLW1hJywgJzIwMCcsICctbWV0YWxfYmluZGluZycsICctaW1hZScsICc8aW5maWxlLm1hZT4nLCAnLW9tYWUnLCAnPG91dGZpbGUubWFlPic=

> <r_epik_Ionization_Penalty>
6.61405

> <r_epik_Ionization_Penalty_Charging>
6.55981

> <r_epik_Ionization_Penalty_Neutral>
0.0542461

> <r_epik_State_Penalty>
1.79186

> <r_epik_Charging_Adjusted_Penalty>
8.35167

> <i_epik_Tot_Q>
1

> <i_epik_Tot_abs_Q>
1

> <r_epik_Metal_State_Penalty>
1.80655

> <b_epik_Metal_Only>
0

> <s_lp_Force_Field>
OPLS_2005

> <r_lp_Energy>
19.6033

> <b_lp_Chiralities_Consistent>
1

> <s_lp_Variant>
AV-unprocessed.smi:2243-3

> <Gold.Version>
5.8.1

> <Gold.Id.Protein>
6NUR|6NUR_protein|mol2

> <Gold.PLP.Fitness>
37.3036

> <Gold.PLP.PLP>
-27.1952

> <Gold.PLP.part.hbond>
-2.0000

> <Gold.PLP.part.metal>
0.0000

> <Gold.PLP.part.buried>
-3.1705

> <Gold.PLP.part.nonpolar>
-24.8115

> <Gold.PLP.part.repulsive>
3.2538

> <Gold.PLP.ligand.clash>
0.0000

> <Gold.PLP.ligand.torsion>
0.7640

> <Gold.PLP.Chemscore.Hbond>
2.8736

> <Gold.PLP.Chemscore.CHOScore>
1.0000

> <Gold.PLP.Chemscore.Metal>
0.0000

> <Gold.Chemscore.Hbonds>
donor molecule, donor type, donor heavy atom, donor atom, acceptor molecule, acceptor atom, score
      L1  H     8    23       P1  7948  2.00
      P1  H  7954  7966       L1     5  0.94
      L1  C    10    25       P1 10186  0.89

> <Gold.PLP.Chemscore.Internal.Correction>
0.0157

> <Gold.Rescore>
     Score         DG    S(hbond)    S(metal)    S(lipo)     H(rot)  DE(clash)    DE(int)     intcor
     12.87     -14.96       1.82        0.00      58.27       1.33       1.45       0.65       ----

> <Gold.Chemscore.Fitness>
12.8656

> <Gold.Chemscore.DG>
-14.9625

> <Gold.Chemscore.ZeroCoef>
-5.4800

> <Gold.Chemscore.Hbond>
1.8188

> <Gold.Chemscore.Metal>
0.0000

> <Gold.Chemscore.Lipo>
58.2734

> <Gold.Chemscore.Internal_Hbond>
0.0000

> <Gold.Chemscore.DEClash>
1.4472

> <Gold.Chemscore.DEInternal>
0.6497

> <Gold.Chemscore.Rot>
1.3321

> <Gold.Chemscore.Internal.Correction>
   9.000000E+99

> <Gold.Chemscore.Hbonds>
donor molecule, donor type, donor heavy atom, donor atom, acceptor molecule, acceptor atom, score
      L1  H     8    23       P1  7948  0.99
      P1  H  7954  7966       L1     5  0.84

> <Gold.Chemscore.Hbond.Weighted>
-6.0748

> <Gold.Chemscore.Metal.Weighted>
-0.0000

> <Gold.Chemscore.Lipo.Weighted>
-6.8180

> <Gold.Chemscore.Internal_Hbond.Weighted>
0.0000

> <Gold.Chemscore.DEClash.Weighted>
1.4472

> <Gold.Chemscore.DEInternal.Weighted>
0.6497

> <Gold.Chemscore.Rot.Weighted>
3.4103

> <Gold.Chemscore.Internal.Correction.Weighted>
   9.000000E+99

> <Gold.Protein.RotatedTorsions>
[ 6907 6896 6895 6894 ] final -127.16 input  -60.11 | X-H torsion
[ 7974 7965 7964 7962 ] final  -90.28 input  175.53 | X-H torsion
[ 8008 7997 7996 7995 ] final -161.67 input   59.86 | X-H torsion
[ 10167 10162 10161 10158 ] final  120.41 input  -65.29 | X-H torsion
[ 10718 10713 10712 10709 ] final   12.99 input   66.30 | X-H torsion
[ 10763 10752 10751 10750 ] final   56.13 input  -60.55 | X-H torsion
[ 11005 11000 10999 10996 ] final  162.83 input  -57.11 | X-H torsion

> <Gold.Protein.ActiveResidues>
 VAL166  LYS551  ARG553  GLY616  TRP617  ASP618  TYR619  PRO620  LYS621  CYS622 
 ASP623  PHE694  ASN695  SER759  ASP760  ASP761  ALA762  ILE779  LEU786  VAL792 
 PHE793  MET794  SER795  GLU796  ALA797  LYS798  CYS799  TRP800  GLU811  SER814 

> <Gold.Protein.RotatedAtoms>
  150.9044  133.7077  159.2870 H   0  0  0  0  0  0  0  0  0  0  0  0  # atno 6907 bound_to 6896
  151.4585  135.1035  159.9727 H   0  0  0  0  0  0  0  0  0  0  0  0  # atno 6908 bound_to 6896
  152.4895  133.8413  159.7209 H   0  0  0  0  0  0  0  0  0  0  0  0  # atno 6909 bound_to 6896
  145.4285  140.9554  143.2141 H   0  0  0  0  0  0  0  0  0  0  0  0  # atno 7974 bound_to 7965
  155.7956  140.0884  157.1985 H   0  0  0  0  0  0  0  0  0  0  0  0  # atno 8008 bound_to 7997
  154.3983  140.1482  156.3272 H   0  0  0  0  0  0  0  0  0  0  0  0  # atno 8009 bound_to 7997
  155.8515  140.3434  155.5699 H   0  0  0  0  0  0  0  0  0  0  0  0  # atno 8010 bound_to 7997
  139.5984  144.7049  151.3122 H   0  0  0  0  0  0  0  0  0  0  0  0  # atno 10167 bound_to 10162
  157.0182  130.6144  149.5717 H   0  0  0  0  0  0  0  0  0  0  0  0  # atno 10718 bound_to 10713
  152.9827  135.5687  154.5180 H   0  0  0  0  0  0  0  0  0  0  0  0  # atno 10763 bound_to 10752
  154.4673  135.2783  155.1671 H   0  0  0  0  0  0  0  0  0  0  0  0  # atno 10764 bound_to 10752
  154.3234  135.6264  153.5571 H   0  0  0  0  0  0  0  0  0  0  0  0  # atno 10765 bound_to 10752
  140.2297  134.8133  157.3304 H   0  0  0  0  0  0  0  0  0  0  0  0  # atno 11005 bound_to 11000
  144.8198  139.5812  143.6992 LP  0  0  0  0  0  0  0  0  0  0  0  0  # atno 17320 bound_to 7965
  146.2619  139.6431  142.9356 LP  0  0  0  0  0  0  0  0  0  0  0  0  # atno 17321 bound_to 7965
  140.7230  143.7083  150.7790 LP  0  0  0  0  0  0  0  0  0  0  0  0  # atno 17342 bound_to 10162
  140.0654  143.5114  152.2607 LP  0  0  0  0  0  0  0  0  0  0  0  0  # atno 17343 bound_to 10162
  156.0111  130.5203  150.7992 LP  0  0  0  0  0  0  0  0  0  0  0  0  # atno 17370 bound_to 10713
  157.5269  131.0934  151.0006 LP  0  0  0  0  0  0  0  0  0  0  0  0  # atno 17371 bound_to 10713
  140.1763  134.4545  155.7799 LP  0  0  0  0  0  0  0  0  0  0  0  0  # atno 17394 bound_to 11000
  141.2218  133.6964  156.7794 LP  0  0  0  0  0  0  0  0  0  0  0  0  # atno 17395 bound_to 11000

$$$$
