AV-unprocessed.smi:2252|AV-procd|sdf|9108|dock2
  -GOLD-   2272012313D 1   1.00000     0.00000
 Structure written by MMmdl.
 45 47  0  0  0  0  0  0  0  0  2 V2000
  152.7230  142.0466  159.4294 C   0  0  0  0  0  0  0  0  0  0  0  0
  152.0874  143.2885  158.9834 N   0  0  0  0  0  0  0  0  0  0  0  0
  152.0701  144.4849  159.6536 C   0  0  0  0  0  0  0  0  0  0  0  0
  151.3687  145.3639  158.8703 C   0  0  0  0  0  0  0  0  0  0  0  0
  150.9867  144.6685  157.7554 N   0  3  0  0  0  0  0  0  0  0  0  0
  151.4191  143.4039  157.8238 C   0  0  0  0  0  0  0  0  0  0  0  0
  151.2031  142.3515  156.7825 C   0  0  0  0  0  0  0  0  0  0  0  0
  149.8980  141.5664  156.9932 C   0  0  0  0  0  0  0  0  0  0  0  0
  148.9388  141.8384  155.9308 N   0  0  0  0  0  0  0  0  0  0  0  0
  148.9222  141.2204  154.7392 C   0  0  0  0  0  0  0  0  0  0  0  0
  149.7356  140.3514  154.4221 O   0  0  0  0  0  0  0  0  0  0  0  0
  147.7961  141.6211  153.7693 C   0  0  1  0  0  0  0  0  0  0  0  0
  146.9217  140.3903  153.4431 C   0  0  0  0  0  0  0  0  0  0  0  0
  147.5126  138.9942  153.4597 C   0  0  0  0  0  0  0  0  0  0  0  0
  147.1109  139.6214  152.1524 C   0  0  0  0  0  0  0  0  0  0  0  0
  146.9646  142.7352  154.2895 N   0  0  0  0  0  0  0  0  0  0  0  0
  146.1119  143.3946  153.3011 C   0  0  0  0  0  0  0  0  0  0  0  0
  145.1395  144.2206  154.1442 C   0  0  0  0  0  0  0  0  0  0  0  0
  145.1067  143.5197  155.4989 C   0  0  0  0  0  0  0  0  0  0  0  0
  146.0364  142.3174  155.3360 C   0  0  0  0  0  0  0  0  0  0  0  0
  153.2649  142.2264  160.3582 H   0  0  0  0  0  0  0  0  0  0  0  0
  153.4213  141.7002  158.6674 H   0  0  0  0  0  0  0  0  0  0  0  0
  151.9566  141.2904  159.5998 H   0  0  0  0  0  0  0  0  0  0  0  0
  152.5468  144.6197  160.6138 H   0  0  0  0  0  0  0  0  0  0  0  0
  151.1202  146.4047  159.0188 H   0  0  0  0  0  0  0  0  0  0  0  0
  151.2205  142.8474  155.8116 H   0  0  0  0  0  0  0  0  0  0  0  0
  152.0653  141.6844  156.8170 H   0  0  0  0  0  0  0  0  0  0  0  0
  150.1039  140.4959  157.0044 H   0  0  0  0  0  0  0  0  0  0  0  0
  149.4531  141.8068  157.9601 H   0  0  0  0  0  0  0  0  0  0  0  0
  148.2330  142.5370  156.1138 H   0  0  0  0  0  0  0  0  0  0  0  0
  148.2753  141.9544  152.8464 H   0  0  0  0  0  0  0  0  0  0  0  0
  145.9015  140.4621  153.8174 H   0  0  0  0  0  0  0  0  0  0  0  0
  148.5782  138.8916  153.6559 H   0  0  0  0  0  0  0  0  0  0  0  0
  146.8886  138.1905  153.8451 H   0  0  0  0  0  0  0  0  0  0  0  0
  146.2174  139.2392  151.6631 H   0  0  0  0  0  0  0  0  0  0  0  0
  147.9077  139.9399  151.4831 H   0  0  0  0  0  0  0  0  0  0  0  0
  146.6760  144.0187  152.6070 H   0  0  0  0  0  0  0  0  0  0  0  0
  145.5636  142.6482  152.7230 H   0  0  0  0  0  0  0  0  0  0  0  0
  145.5047  145.2419  154.2602 H   0  0  0  0  0  0  0  0  0  0  0  0
  144.1535  144.2708  153.6814 H   0  0  0  0  0  0  0  0  0  0  0  0
  145.4824  144.1888  156.2740 H   0  0  0  0  0  0  0  0  0  0  0  0
  144.0996  143.2139  155.7833 H   0  0  0  0  0  0  0  0  0  0  0  0
  145.4654  141.4456  155.0110 H   0  0  0  0  0  0  0  0  0  0  0  0
  146.5444  142.0643  156.2670 H   0  0  0  0  0  0  0  0  0  0  0  0
  150.4516  145.0528  156.9870 H   0  0  0  0  0  0  0  0  0  0  0  0
  1  2  1  0  0  0  0
  1 21  1  0  0  0  0
  1 22  1  0  0  0  0
  1 23  1  0  0  0  0
  2  6  1  0  0  0  0
  2  3  1  0  0  0  0
  3  4  2  0  0  0  0
  3 24  1  0  0  0  0
  4  5  1  0  0  0  0
  4 25  1  0  0  0  0
  5  6  2  0  0  0  0
  5 45  1  0  0  0  0
  6  7  1  0  0  0  0
  7  8  1  0  0  0  0
  7 26  1  0  0  0  0
  7 27  1  0  0  0  0
  8  9  1  0  0  0  0
  8 28  1  0  0  0  0
  8 29  1  0  0  0  0
  9 10  1  0  0  0  0
  9 30  1  0  0  0  0
 10 11  2  0  0  0  0
 10 12  1  0  0  0  0
 12 13  1  0  0  0  0
 12 16  1  0  0  0  0
 12 31  1  0  0  0  0
 13 15  1  0  0  0  0
 13 14  1  0  0  0  0
 13 32  1  0  0  0  0
 14 15  1  0  0  0  0
 14 33  1  0  0  0  0
 14 34  1  0  0  0  0
 15 35  1  0  0  0  0
 15 36  1  0  0  0  0
 16 20  1  0  0  0  0
 16 17  1  0  0  0  0
 17 18  1  0  0  0  0
 17 37  1  0  0  0  0
 17 38  1  0  0  0  0
 18 19  1  0  0  0  0
 18 39  1  0  0  0  0
 18 40  1  0  0  0  0
 19 20  1  0  0  0  0
 19 41  1  0  0  0  0
 19 42  1  0  0  0  0
 20 43  1  0  0  0  0
 20 44  1  0  0  0  0
M  CHG  1   5   1
M  END
> <s_m_source_file>
AV-unprocessed.smi

> <i_m_source_file_index>
2252

> <i_lp_mmshare_version>
43012

> <i_f3d_flags>
0

> <s_epik_input>
W0NIM11uMVtjSF1bY0hdbmMxW0NIMl1bQ0gyXVtOSF1DKD1PKVtDQEhdKFtDSF0yW0NIMl1bQ0gyXTIpTjNbQ0gyXVtDSDJdW0NIMl1bQ0gyXTM=

> <s_epik_cmdline>
J2VwaWtfcHl0aG9uJywgJy1waCcsICc3LjAnLCAnLXRuJywgJzgnLCAnLW1hJywgJzIwMCcsICctbWV0YWxfYmluZGluZycsICctaW1hZScsICc8aW5maWxlLm1hZT4nLCAnLW9tYWUnLCAnPG91dGZpbGUubWFlPic=

> <r_epik_Ionization_Penalty>
2.52117

> <r_epik_Ionization_Penalty_Charging>
0

> <r_epik_Ionization_Penalty_Neutral>
2.52117

> <r_epik_State_Penalty>
2.63608

> <r_epik_Charging_Adjusted_Penalty>
2.63608

> <i_epik_Tot_Q>
1

> <i_epik_Tot_abs_Q>
1

> <r_epik_Metal_State_Penalty>
2.94973

> <b_epik_Metal_Only>
0

> <s_lp_Force_Field>
OPLS_2005

> <r_lp_Energy>
33.653

> <b_lp_Chiralities_Consistent>
1

> <s_lp_Variant>
AV-unprocessed.smi:2252-6

> <Gold.Version>
5.8.1

> <Gold.Id.Protein>
6NUR|6NUR_protein|mol2

> <Gold.PLP.Fitness>
51.6536

> <Gold.PLP.PLP>
-46.1236

> <Gold.PLP.part.hbond>
-3.0021

> <Gold.PLP.part.metal>
0.0000

> <Gold.PLP.part.buried>
-3.9121

> <Gold.PLP.part.nonpolar>
-39.3055

> <Gold.PLP.part.repulsive>
0.5115

> <Gold.PLP.ligand.clash>
0.0000

> <Gold.PLP.ligand.torsion>
2.0479

> <Gold.PLP.Chemscore.Hbond>
2.8000

> <Gold.PLP.Chemscore.CHOScore>
0.0000

> <Gold.PLP.Chemscore.Metal>
0.0000

> <Gold.Chemscore.Hbonds>
donor molecule, donor type, donor heavy atom, donor atom, acceptor molecule, acceptor atom, score
      L1  H     5    45       P1  8028  1.89
      L1  H     9    30       P1  8028  0.09
      P1  H  7989  7998       L1    11  0.56

> <Gold.PLP.Chemscore.Internal.Correction>
1.2257

> <Gold.Rescore>
     Score         DG    S(hbond)    S(metal)    S(lipo)     H(rot)  DE(clash)    DE(int)     intcor
      9.54     -15.68       1.07        0.00      99.51       1.96       1.55       4.60       ----

> <Gold.Chemscore.Fitness>
9.5359

> <Gold.Chemscore.DG>
-15.6840

> <Gold.Chemscore.ZeroCoef>
-5.4800

> <Gold.Chemscore.Hbond>
1.0713

> <Gold.Chemscore.Metal>
0.0000

> <Gold.Chemscore.Lipo>
99.5073

> <Gold.Chemscore.Internal_Hbond>
0.0000

> <Gold.Chemscore.DEClash>
1.5500

> <Gold.Chemscore.DEInternal>
4.5980

> <Gold.Chemscore.Rot>
1.9595

> <Gold.Chemscore.Internal.Correction>
   9.000000E+99

> <Gold.Chemscore.Hbonds>
donor molecule, donor type, donor heavy atom, donor atom, acceptor molecule, acceptor atom, score
      L1  H     5    45       P1  8028  0.25
      L1  H     9    30       P1  8028  0.09
      P1  H  7989  7998       L1    11  0.55

> <Gold.Chemscore.Hbond.Weighted>
-3.5780

> <Gold.Chemscore.Metal.Weighted>
-0.0000

> <Gold.Chemscore.Lipo.Weighted>
-11.6424

> <Gold.Chemscore.Internal_Hbond.Weighted>
0.0000

> <Gold.Chemscore.DEClash.Weighted>
1.5500

> <Gold.Chemscore.DEInternal.Weighted>
4.5980

> <Gold.Chemscore.Rot.Weighted>
5.0164

> <Gold.Chemscore.Internal.Correction.Weighted>
   9.000000E+99

> <Gold.Protein.RotatedTorsions>
[ 6907 6896 6895 6894 ] final -113.14 input  -60.11 | X-H torsion
[ 7974 7965 7964 7962 ] final  -40.35 input  175.53 | X-H torsion
[ 8008 7997 7996 7995 ] final  147.19 input   59.86 | X-H torsion
[ 10167 10162 10161 10158 ] final  152.92 input  -65.29 | X-H torsion
[ 10718 10713 10712 10709 ] final  106.81 input   66.30 | X-H torsion
[ 10763 10752 10751 10750 ] final    1.11 input  -60.55 | X-H torsion
[ 11005 11000 10999 10996 ] final  172.38 input  -57.11 | X-H torsion

> <Gold.Protein.ActiveResidues>
 VAL166  LYS551  ARG553  GLY616  TRP617  ASP618  TYR619  PRO620  LYS621  CYS622 
 ASP623  PHE694  ASN695  SER759  ASP760  ASP761  ALA762  ILE779  LEU786  VAL792 
 PHE793  MET794  SER795  GLU796  ALA797  LYS798  CYS799  TRP800  GLU811  SER814 

> <Gold.Protein.RotatedAtoms>
  150.7808  133.8987  159.3334 H   0  0  0  0  0  0  0  0  0  0  0  0  # atno 6907 bound_to 6896
  151.6850  135.0954  160.0232 H   0  0  0  0  0  0  0  0  0  0  0  0  # atno 6908 bound_to 6896
  152.3859  133.6571  159.6233 H   0  0  0  0  0  0  0  0  0  0  0  0  # atno 6909 bound_to 6896
  146.0313  140.6728  142.9131 H   0  0  0  0  0  0  0  0  0  0  0  0  # atno 7974 bound_to 7965
  156.2832  140.2162  156.5497 H   0  0  0  0  0  0  0  0  0  0  0  0  # atno 8008 bound_to 7997
  154.7301  140.0496  157.0741 H   0  0  0  0  0  0  0  0  0  0  0  0  # atno 8009 bound_to 7997
  155.0365  140.3141  155.4743 H   0  0  0  0  0  0  0  0  0  0  0  0  # atno 8010 bound_to 7997
  139.4830  144.5317  151.7712 H   0  0  0  0  0  0  0  0  0  0  0  0  # atno 10167 bound_to 10162
  157.6653  131.0859  150.6063 H   0  0  0  0  0  0  0  0  0  0  0  0  # atno 10718 bound_to 10713
  153.3122  135.6963  153.7106 H   0  0  0  0  0  0  0  0  0  0  0  0  # atno 10763 bound_to 10752
  153.5979  135.3467  155.2935 H   0  0  0  0  0  0  0  0  0  0  0  0  # atno 10764 bound_to 10752
  154.8578  135.4333  154.2263 H   0  0  0  0  0  0  0  0  0  0  0  0  # atno 10765 bound_to 10752
  140.3291  134.7372  157.4121 H   0  0  0  0  0  0  0  0  0  0  0  0  # atno 11005 bound_to 11000
  144.7031  140.3740  143.7139 LP  0  0  0  0  0  0  0  0  0  0  0  0  # atno 17320 bound_to 7965
  145.7036  139.1667  143.2578 LP  0  0  0  0  0  0  0  0  0  0  0  0  # atno 17321 bound_to 7965
  140.4844  144.1402  150.5938 LP  0  0  0  0  0  0  0  0  0  0  0  0  # atno 17342 bound_to 10162
  140.4242  143.2598  151.9678 LP  0  0  0  0  0  0  0  0  0  0  0  0  # atno 17343 bound_to 10162
  156.6364  130.4446  149.5768 LP  0  0  0  0  0  0  0  0  0  0  0  0  # atno 17370 bound_to 10713
  156.2243  130.6756  151.1399 LP  0  0  0  0  0  0  0  0  0  0  0  0  # atno 17371 bound_to 10713
  140.0876  134.5645  155.8477 LP  0  0  0  0  0  0  0  0  0  0  0  0  # atno 17394 bound_to 11000
  141.2068  133.6658  156.6264 LP  0  0  0  0  0  0  0  0  0  0  0  0  # atno 17395 bound_to 11000

$$$$
