AV-unprocessed.smi:3255|AV-procd|sdf|12459|dock6
  -GOLD-   2272018353D 1   1.00000     0.00000
 Structure written by MMmdl.
 39 40  0  0  0  0  0  0  0  0  2 V2000
  150.9254  134.4343  155.7712 C   0  0  0  0  0  0  0  0  0  0  0  0
  150.0553  135.5918  155.2607 C   0  0  2  0  0  0  0  0  0  0  0  0
  149.2068  135.1031  154.1745 N   0  0  0  0  0  0  0  0  0  0  0  0
  148.5591  133.9297  154.1596 C   0  0  0  0  0  0  0  0  0  0  0  0
  148.6103  133.0989  155.0670 O   0  0  0  0  0  0  0  0  0  0  0  0
  147.8235  133.7794  153.0489 N   0  0  0  0  0  0  0  0  0  0  0  0
  146.9723  132.6291  152.7565 C   0  0  0  0  0  0  0  0  0  0  0  0
  146.5629  132.5664  151.2716 C   0  0  0  0  0  0  0  0  0  0  0  0
  145.5493  133.5625  150.9091 N   0  0  0  0  0  0  0  0  0  0  0  0
  145.6354  134.9242  151.0470 C   0  0  0  0  0  0  0  0  0  0  0  0
  144.4485  135.4391  150.5933 C   0  0  0  0  0  0  0  0  0  0  0  0
  143.6926  134.3718  150.1886 N   0  3  0  0  0  0  0  0  0  0  0  0
  144.3665  133.2321  150.3745 C   0  0  0  0  0  0  0  0  0  0  0  0
  150.9114  136.7856  154.7883 C   0  0  1  0  0  0  0  0  0  0  0  0
  150.1890  138.1316  154.7432 C   0  0  0  0  0  0  0  0  0  0  0  0
  151.3386  139.1177  154.7640 C   0  0  0  0  0  0  0  0  0  0  0  0
  152.4353  138.3719  155.5289 C   0  0  0  0  0  0  0  0  0  0  0  0
  151.9615  137.0405  155.7101 O   0  0  0  0  0  0  0  0  0  0  0  0
  151.5481  134.7503  156.6085 H   0  0  0  0  0  0  0  0  0  0  0  0
  151.5865  134.0580  154.9897 H   0  0  0  0  0  0  0  0  0  0  0  0
  150.3102  133.6030  156.1170 H   0  0  0  0  0  0  0  0  0  0  0  0
  149.4316  135.9236  156.0925 H   0  0  0  0  0  0  0  0  0  0  0  0
  149.0975  135.7151  153.3791 H   0  0  0  0  0  0  0  0  0  0  0  0
  147.8476  134.5161  152.3587 H   0  0  0  0  0  0  0  0  0  0  0  0
  147.5386  131.7321  153.0082 H   0  0  0  0  0  0  0  0  0  0  0  0
  146.0925  132.6194  153.4023 H   0  0  0  0  0  0  0  0  0  0  0  0
  147.4310  132.7117  150.6271 H   0  0  0  0  0  0  0  0  0  0  0  0
  146.1550  131.5828  151.0358 H   0  0  0  0  0  0  0  0  0  0  0  0
  146.5075  135.4129  151.4568 H   0  0  0  0  0  0  0  0  0  0  0  0
  144.0943  136.4578  150.5312 H   0  0  0  0  0  0  0  0  0  0  0  0
  144.0169  132.2398  150.1520 H   0  0  0  0  0  0  0  0  0  0  0  0
  151.3491  136.5762  153.8101 H   0  0  0  0  0  0  0  0  0  0  0  0
  149.5532  138.2441  153.8652 H   0  0  0  0  0  0  0  0  0  0  0  0
  149.5714  138.2621  155.6331 H   0  0  0  0  0  0  0  0  0  0  0  0
  151.6717  139.3271  153.7467 H   0  0  0  0  0  0  0  0  0  0  0  0
  151.0666  140.0644  155.2317 H   0  0  0  0  0  0  0  0  0  0  0  0
  153.3686  138.3649  154.9649 H   0  0  0  0  0  0  0  0  0  0  0  0
  152.6304  138.8247  156.5014 H   0  0  0  0  0  0  0  0  0  0  0  0
  142.7570  134.4330  149.8073 H   0  0  0  0  0  0  0  0  0  0  0  0
  1  2  1  0  0  0  0
  1 19  1  0  0  0  0
  1 20  1  0  0  0  0
  1 21  1  0  0  0  0
  2  3  1  0  0  0  0
  2 14  1  0  0  0  0
  2 22  1  0  0  0  0
  3  4  1  0  0  0  0
  3 23  1  0  0  0  0
  4  5  2  0  0  0  0
  4  6  1  0  0  0  0
  6  7  1  0  0  0  0
  6 24  1  0  0  0  0
  7  8  1  0  0  0  0
  7 25  1  0  0  0  0
  7 26  1  0  0  0  0
  8  9  1  0  0  0  0
  8 27  1  0  0  0  0
  8 28  1  0  0  0  0
  9 13  1  0  0  0  0
  9 10  1  0  0  0  0
 10 11  2  0  0  0  0
 10 29  1  0  0  0  0
 11 12  1  0  0  0  0
 11 30  1  0  0  0  0
 12 13  2  0  0  0  0
 12 39  1  0  0  0  0
 13 31  1  0  0  0  0
 14 18  1  0  0  0  0
 14 15  1  0  0  0  0
 14 32  1  0  0  0  0
 15 16  1  0  0  0  0
 15 33  1  0  0  0  0
 15 34  1  0  0  0  0
 16 17  1  0  0  0  0
 16 35  1  0  0  0  0
 16 36  1  0  0  0  0
 17 18  1  0  0  0  0
 17 37  1  0  0  0  0
 17 38  1  0  0  0  0
M  CHG  1  12   1
M  END
> <s_m_source_file>
AV-unprocessed.smi

> <i_m_source_file_index>
3255

> <i_lp_mmshare_version>
43012

> <i_f3d_flags>
0

> <s_epik_input>
TzFbQ0gyXVtDSDJdW0NIMl1bQ0BIXTFbQ0BIXShbQ0gzXSlbTkhdQyg9TylbTkhdW0NIMl1bQ0gyXW4yW2NIXVtjSF1uW2NIXTI=

> <s_epik_cmdline>
J2VwaWtfcHl0aG9uJywgJy1waCcsICc3LjAnLCAnLXRuJywgJzgnLCAnLW1hJywgJzIwMCcsICctbWV0YWxfYmluZGluZycsICctaW1hZScsICc8aW5maWxlLm1hZT4nLCAnLW9tYWUnLCAnPG91dGZpbGUubWFlPic=

> <r_lp_tautomer_probability>
1

> <r_epik_Ionization_Penalty>
0.256241

> <r_epik_Ionization_Penalty_Charging>
0

> <r_epik_Ionization_Penalty_Neutral>
0.256241

> <r_epik_State_Penalty>
0.247735

> <r_epik_Charging_Adjusted_Penalty>
0.247735

> <i_epik_Tot_Q>
1

> <i_epik_Tot_abs_Q>
1

> <r_epik_Metal_State_Penalty>
0.537184

> <b_epik_Metal_Only>
0

> <s_lp_Force_Field>
OPLS_2005

> <r_lp_Energy>
17.3031

> <b_lp_Chiralities_Consistent>
1

> <s_lp_Variant>
AV-unprocessed.smi:3255-3

> <Gold.Version>
5.8.1

> <Gold.Id.Protein>
6NUR|6NUR_protein|mol2

> <Gold.PLP.Fitness>
48.4685

> <Gold.PLP.PLP>
-33.1392

> <Gold.PLP.part.hbond>
-4.0000

> <Gold.PLP.part.metal>
0.0000

> <Gold.PLP.part.buried>
-1.5240

> <Gold.PLP.part.nonpolar>
-26.5717

> <Gold.PLP.part.repulsive>
0.1176

> <Gold.PLP.ligand.clash>
0.0000

> <Gold.PLP.ligand.torsion>
0.6726

> <Gold.PLP.Chemscore.Hbond>
4.5474

> <Gold.PLP.Chemscore.CHOScore>
1.0000

> <Gold.PLP.Chemscore.Metal>
0.0000

> <Gold.Chemscore.Hbonds>
donor molecule, donor type, donor heavy atom, donor atom, acceptor molecule, acceptor atom, score
      L1  H     3    23       P1  7948  1.00
      L1  H     6    24       P1  7948  0.77
      L1  H    12    39       P1 10186  2.00
      P1  H 10752 10765       L1    18  0.60
      L1  C    10    29       P1  7948  0.90

> <Gold.PLP.Chemscore.Internal.Correction>
0.0324

> <Gold.Rescore>
     Score         DG    S(hbond)    S(metal)    S(lipo)     H(rot)  DE(clash)    DE(int)     intcor
     13.81     -16.20       2.79        0.00      61.42       2.26       0.02       2.37       ----

> <Gold.Chemscore.Fitness>
13.8052

> <Gold.Chemscore.DG>
-16.1974

> <Gold.Chemscore.ZeroCoef>
-5.4800

> <Gold.Chemscore.Hbond>
2.7926

> <Gold.Chemscore.Metal>
0.0000

> <Gold.Chemscore.Lipo>
61.4172

> <Gold.Chemscore.Internal_Hbond>
0.0000

> <Gold.Chemscore.DEClash>
0.0234

> <Gold.Chemscore.DEInternal>
2.3688

> <Gold.Chemscore.Rot>
2.2640

> <Gold.Chemscore.Internal.Correction>
   9.000000E+99

> <Gold.Chemscore.Hbonds>
donor molecule, donor type, donor heavy atom, donor atom, acceptor molecule, acceptor atom, score
      L1  H     3    23       P1  7948  0.72
      L1  H     6    24       P1  7948  0.37
      L1  H    12    39       P1 10186  0.96
      P1  H 10752 10765       L1    18  0.09

> <Gold.Chemscore.Hbond.Weighted>
-9.3274

> <Gold.Chemscore.Metal.Weighted>
-0.0000

> <Gold.Chemscore.Lipo.Weighted>
-7.1858

> <Gold.Chemscore.Internal_Hbond.Weighted>
0.0000

> <Gold.Chemscore.DEClash.Weighted>
0.0234

> <Gold.Chemscore.DEInternal.Weighted>
2.3688

> <Gold.Chemscore.Rot.Weighted>
5.7958

> <Gold.Chemscore.Internal.Correction.Weighted>
   9.000000E+99

> <Gold.Protein.RotatedTorsions>
[ 6907 6896 6895 6894 ] final -158.83 input  -60.11 | X-H torsion
[ 7974 7965 7964 7962 ] final   80.16 input  175.53 | X-H torsion
[ 8008 7997 7996 7995 ] final   15.17 input   59.86 | X-H torsion
[ 10167 10162 10161 10158 ] final  172.56 input  -65.29 | X-H torsion
[ 10718 10713 10712 10709 ] final  -83.41 input   66.30 | X-H torsion
[ 10763 10752 10751 10750 ] final -143.84 input  -60.55 | X-H torsion
[ 11005 11000 10999 10996 ] final  -20.67 input  -57.11 | X-H torsion

> <Gold.Protein.ActiveResidues>
 VAL166  LYS551  ARG553  GLY616  TRP617  ASP618  TYR619  PRO620  LYS621  CYS622 
 ASP623  PHE694  ASN695  SER759  ASP760  ASP761  ALA762  ILE779  LEU786  VAL792 
 PHE793  MET794  SER795  GLU796  ALA797  LYS798  CYS799  TRP800  GLU811  SER814 

> <Gold.Protein.RotatedAtoms>
  151.3243  133.4027  159.2656 H   0  0  0  0  0  0  0  0  0  0  0  0  # atno 6907 bound_to 6896
  151.0009  134.9321  159.7963 H   0  0  0  0  0  0  0  0  0  0  0  0  # atno 6908 bound_to 6896
  152.5274  134.3208  159.9200 H   0  0  0  0  0  0  0  0  0  0  0  0  # atno 6909 bound_to 6896
  145.6548  139.2456  143.1956 H   0  0  0  0  0  0  0  0  0  0  0  0  # atno 7974 bound_to 7965
  154.8589  140.2941  155.5551 H   0  0  0  0  0  0  0  0  0  0  0  0  # atno 8008 bound_to 7997
  156.3019  140.2482  156.3492 H   0  0  0  0  0  0  0  0  0  0  0  0  # atno 8009 bound_to 7997
  154.8940  140.0393  157.1844 H   0  0  0  0  0  0  0  0  0  0  0  0  # atno 8010 bound_to 7997
  139.5080  144.3359  152.0065 H   0  0  0  0  0  0  0  0  0  0  0  0  # atno 10167 bound_to 10162
  156.0019  130.4665  150.4253 H   0  0  0  0  0  0  0  0  0  0  0  0  # atno 10718 bound_to 10713
  154.8453  135.3457  154.6251 H   0  0  0  0  0  0  0  0  0  0  0  0  # atno 10763 bound_to 10752
  153.6860  135.6977  153.5108 H   0  0  0  0  0  0  0  0  0  0  0  0  # atno 10764 bound_to 10752
  153.2631  135.4316  155.0870 H   0  0  0  0  0  0  0  0  0  0  0  0  # atno 10765 bound_to 10752
  140.8486  133.7873  155.9941 H   0  0  0  0  0  0  0  0  0  0  0  0  # atno 11005 bound_to 11000
  146.1174  140.7352  142.9474 LP  0  0  0  0  0  0  0  0  0  0  0  0  # atno 17320 bound_to 7965
  144.7110  140.4037  143.7081 LP  0  0  0  0  0  0  0  0  0  0  0  0  # atno 17321 bound_to 7965
  140.2798  144.3872  150.6123 LP  0  0  0  0  0  0  0  0  0  0  0  0  # atno 17342 bound_to 10162
  140.6026  143.2167  151.7042 LP  0  0  0  0  0  0  0  0  0  0  0  0  # atno 17343 bound_to 10162
  157.2306  131.0503  151.2494 LP  0  0  0  0  0  0  0  0  0  0  0  0  # atno 17370 bound_to 10713
  157.3714  130.7183  149.6568 LP  0  0  0  0  0  0  0  0  0  0  0  0  # atno 17371 bound_to 10713
  140.8815  134.2606  157.5141 LP  0  0  0  0  0  0  0  0  0  0  0  0  # atno 17394 bound_to 11000
  139.8704  134.9617  156.4405 LP  0  0  0  0  0  0  0  0  0  0  0  0  # atno 17395 bound_to 11000

$$$$
