AV-unprocessed.smi:1701|AV-procd|sdf|6827|dock5
  -GOLD-   22720 8 03D 1   1.00000     0.00000
 Structure written by MMmdl.
 55 57  0  0  0  0  0  0  0  0  3 V2000
  152.1259  140.7829  158.6234 C   0  0  0  0  0  0  0  0  0  0  0  0
  151.7089  141.1056  157.1811 C   0  0  0  0  0  0  0  0  0  0  0  0
  150.2612  141.2315  157.0139 N   0  0  0  0  0  0  0  0  0  0  0  0
  149.5609  142.3591  157.6333 C   0  0  0  0  0  0  0  0  0  0  0  0
  150.5071  143.3517  158.3267 C   0  0  0  0  0  0  0  0  0  0  0  0
  149.5726  140.3869  156.1095 C   0  0  0  0  0  0  0  0  0  0  0  0
  148.1689  140.1902  156.1329 C   0  0  0  0  0  0  0  0  0  0  0  0
  147.5622  139.3295  155.1957 C   0  0  0  0  0  0  0  0  0  0  0  0
  148.3517  138.6727  154.2296 C   0  0  0  0  0  0  0  0  0  0  0  0
  147.6941  137.8033  153.3180 N   0  0  0  0  0  0  0  0  0  0  0  0
  146.3766  137.5448  153.1986 C   0  0  0  0  0  0  0  0  0  0  0  0
  145.5006  138.0298  153.9101 O   0  0  0  0  0  0  0  0  0  0  0  0
  146.0747  136.6588  152.2322 N   0  0  0  0  0  0  0  0  0  0  0  0
  144.7535  136.1607  151.8410 C   0  0  2  0  0  0  0  0  0  0  0  0
  143.9364  135.6499  153.0213 C   0  0  0  0  0  0  0  0  0  0  0  0
  142.8672  134.7808  152.3527 C   0  0  0  0  0  0  0  0  0  0  0  0
  143.4509  134.2861  151.0818 N   0  3  2  0  0  0  0  0  0  0  0  0
  143.4576  132.8041  150.9569 C   0  0  0  0  0  0  0  0  0  0  0  0
  144.3947  132.3529  149.8266 C   0  0  0  0  0  0  0  0  0  0  0  0
  145.8523  132.7689  150.1009 C   0  0  0  0  0  0  0  0  0  0  0  0
  145.9527  133.9673  151.0639 C   0  0  0  0  0  0  0  0  0  0  0  0
  144.7709  134.9512  150.8838 C   0  0  2  0  0  0  0  0  0  0  0  0
  149.7490  138.8929  154.2488 C   0  0  0  0  0  0  0  0  0  0  0  0
  150.2873  139.7247  155.1660 N   0  3  0  0  0  0  0  0  0  0  0  0
  153.2123  140.7559  158.7092 H   0  0  0  0  0  0  0  0  0  0  0  0
  151.7530  139.8095  158.9396 H   0  0  0  0  0  0  0  0  0  0  0  0
  151.7575  141.5298  159.3267 H   0  0  0  0  0  0  0  0  0  0  0  0
  152.2087  142.0090  156.8322 H   0  0  0  0  0  0  0  0  0  0  0  0
  152.0684  140.3127  156.5245 H   0  0  0  0  0  0  0  0  0  0  0  0
  148.9541  142.8753  156.8888 H   0  0  0  0  0  0  0  0  0  0  0  0
  148.8527  141.9743  158.3675 H   0  0  0  0  0  0  0  0  0  0  0  0
  149.9424  144.1751  158.7646 H   0  0  0  0  0  0  0  0  0  0  0  0
  151.2229  143.7823  157.6264 H   0  0  0  0  0  0  0  0  0  0  0  0
  151.0705  142.8801  159.1307 H   0  0  0  0  0  0  0  0  0  0  0  0
  147.5392  140.6768  156.8618 H   0  0  0  0  0  0  0  0  0  0  0  0
  146.4926  139.1792  155.2220 H   0  0  0  0  0  0  0  0  0  0  0  0
  148.3023  137.2773  152.7085 H   0  0  0  0  0  0  0  0  0  0  0  0
  146.8573  136.2639  151.7299 H   0  0  0  0  0  0  0  0  0  0  0  0
  144.1854  136.9715  151.3799 H   0  0  0  0  0  0  0  0  0  0  0  0
  144.5570  135.0336  153.6739 H   0  0  0  0  0  0  0  0  0  0  0  0
  143.5102  136.4529  153.6236 H   0  0  0  0  0  0  0  0  0  0  0  0
  142.5280  133.9807  153.0120 H   0  0  0  0  0  0  0  0  0  0  0  0
  141.9956  135.3873  152.1048 H   0  0  0  0  0  0  0  0  0  0  0  0
  143.7808  132.3484  151.8945 H   0  0  0  0  0  0  0  0  0  0  0  0
  142.4399  132.4584  150.7727 H   0  0  0  0  0  0  0  0  0  0  0  0
  144.3349  131.2728  149.6886 H   0  0  0  0  0  0  0  0  0  0  0  0
  144.0584  132.7980  148.8891 H   0  0  0  0  0  0  0  0  0  0  0  0
  146.4087  131.9306  150.5215 H   0  0  0  0  0  0  0  0  0  0  0  0
  146.3376  133.0082  149.1539 H   0  0  0  0  0  0  0  0  0  0  0  0
  145.9654  133.6037  152.0925 H   0  0  0  0  0  0  0  0  0  0  0  0
  146.9097  134.4659  150.9082 H   0  0  0  0  0  0  0  0  0  0  0  0
  144.8063  135.3172  149.8566 H   0  0  0  0  0  0  0  0  0  0  0  0
  150.4637  138.4334  153.5828 H   0  0  0  0  0  0  0  0  0  0  0  0
  142.8534  134.6326  150.3444 H   0  0  0  0  0  0  0  0  0  0  0  0
  151.2985  139.8593  155.1496 H   0  0  0  0  0  0  0  0  0  0  0  0
  1  2  1  0  0  0  0
  1 25  1  0  0  0  0
  1 26  1  0  0  0  0
  1 27  1  0  0  0  0
  2  3  1  0  0  0  0
  2 28  1  0  0  0  0
  2 29  1  0  0  0  0
  3  4  1  0  0  0  0
  3  6  1  0  0  0  0
  4  5  1  0  0  0  0
  4 30  1  0  0  0  0
  4 31  1  0  0  0  0
  5 32  1  0  0  0  0
  5 33  1  0  0  0  0
  5 34  1  0  0  0  0
  6 24  1  0  0  0  0
  6  7  2  0  0  0  0
  7  8  1  0  0  0  0
  7 35  1  0  0  0  0
  8  9  2  0  0  0  0
  8 36  1  0  0  0  0
  9 10  1  0  0  0  0
  9 23  1  0  0  0  0
 10 11  1  0  0  0  0
 10 37  1  0  0  0  0
 11 12  2  0  0  0  0
 11 13  1  0  0  0  0
 13 14  1  0  0  0  0
 13 38  1  0  0  0  0
 14 22  1  0  0  0  0
 14 15  1  0  0  0  0
 14 39  1  0  0  0  0
 15 16  1  0  0  0  0
 15 40  1  0  0  0  0
 15 41  1  0  0  0  0
 16 17  1  0  0  0  0
 16 42  1  0  0  0  0
 16 43  1  0  0  0  0
 17 22  1  0  0  0  0
 17 18  1  0  0  0  0
 17 54  1  0  0  0  0
 18 19  1  0  0  0  0
 18 44  1  0  0  0  0
 18 45  1  0  0  0  0
 19 20  1  0  0  0  0
 19 46  1  0  0  0  0
 19 47  1  0  0  0  0
 20 21  1  0  0  0  0
 20 48  1  0  0  0  0
 20 49  1  0  0  0  0
 21 22  1  0  0  0  0
 21 50  1  0  0  0  0
 21 51  1  0  0  0  0
 22 52  1  0  0  0  0
 23 24  2  0  0  0  0
 23 53  1  0  0  0  0
 24 55  1  0  0  0  0
M  CHG  1  17   1
M  CHG  1  24   1
M  END
> <s_m_source_file>
AV-unprocessed.smi

> <i_m_source_file_index>
1701

> <i_lp_mmshare_version>
43012

> <i_f3d_flags>
0

> <s_epik_input>
W0NIM11bQ0gyXU4oW0NIMl1bQ0gzXSljMVtjSF1bY0hdYyhbY0hdbjEpW05IXUMoPU8pW05IXVtDQEhdKFtDSDJdW0NIMl0yKVtDQEBIXShOMjMpW0NIMl1bQ0gyXVtDSDJdW0NIMl0z

> <s_epik_cmdline>
J2VwaWtfcHl0aG9uJywgJy1waCcsICc3LjAnLCAnLXRuJywgJzgnLCAnLW1hJywgJzIwMCcsICctbWV0YWxfYmluZGluZycsICctaW1hZScsICc8aW5maWxlLm1hZT4nLCAnLW9tYWUnLCAnPG91dGZpbGUubWFlPic=

> <r_lp_tautomer_probability>
0.999994

> <r_epik_Ionization_Penalty>
0.302862

> <r_epik_Ionization_Penalty_Charging>
0.302842

> <r_epik_Ionization_Penalty_Neutral>
1.95166e-05

> <r_epik_State_Penalty>
0.019791

> <r_epik_Charging_Adjusted_Penalty>
0.322633

> <i_epik_Tot_Q>
2

> <i_epik_Tot_abs_Q>
2

> <r_epik_Metal_State_Penalty>
0.0536763

> <b_epik_Metal_Only>
0

> <s_lp_Force_Field>
OPLS_2005

> <r_lp_Energy>
67.6643

> <b_lp_Chiralities_Consistent>
1

> <s_lp_Variant>
AV-unprocessed.smi:1701-7

> <Gold.Version>
5.8.1

> <Gold.Id.Protein>
6NUR|6NUR_protein|mol2

> <Gold.PLP.Fitness>
47.0366

> <Gold.PLP.PLP>
-36.9184

> <Gold.PLP.part.hbond>
-2.9700

> <Gold.PLP.part.metal>
0.0000

> <Gold.PLP.part.buried>
-7.4142

> <Gold.PLP.part.nonpolar>
-27.8031

> <Gold.PLP.part.repulsive>
0.2683

> <Gold.PLP.ligand.clash>
0.0000

> <Gold.PLP.ligand.torsion>
0.4240

> <Gold.PLP.Chemscore.Hbond>
3.6043

> <Gold.PLP.Chemscore.CHOScore>
0.0000

> <Gold.PLP.Chemscore.Metal>
0.0000

> <Gold.Chemscore.Hbonds>
donor molecule, donor type, donor heavy atom, donor atom, acceptor molecule, acceptor atom, score
      L1  H    10    37       P1  7948  0.89
      L1  H    13    38       P1  7948  0.72
      L1  H    17    54       P1 10186  1.70

> <Gold.PLP.Chemscore.Internal.Correction>
0.1535

> <Gold.Rescore>
     Score         DG    S(hbond)    S(metal)    S(lipo)     H(rot)  DE(clash)    DE(int)     intcor
     17.46     -20.48       2.20        0.00      93.90       1.30       0.19       2.82       ----

> <Gold.Chemscore.Fitness>
17.4604

> <Gold.Chemscore.DG>
-20.4768

> <Gold.Chemscore.ZeroCoef>
-5.4800

> <Gold.Chemscore.Hbond>
2.1985

> <Gold.Chemscore.Metal>
0.0000

> <Gold.Chemscore.Lipo>
93.9039

> <Gold.Chemscore.Internal_Hbond>
0.0000

> <Gold.Chemscore.DEClash>
0.1934

> <Gold.Chemscore.DEInternal>
2.8230

> <Gold.Chemscore.Rot>
1.3020

> <Gold.Chemscore.Internal.Correction>
   9.000000E+99

> <Gold.Chemscore.Hbonds>
donor molecule, donor type, donor heavy atom, donor atom, acceptor molecule, acceptor atom, score
      L1  H    10    37       P1  7948  0.86
      L1  H    13    38       P1  7948  0.69
      L1  H    17    54       P1 10186  0.40

> <Gold.Chemscore.Hbond.Weighted>
-7.3431

> <Gold.Chemscore.Metal.Weighted>
-0.0000

> <Gold.Chemscore.Lipo.Weighted>
-10.9868

> <Gold.Chemscore.Internal_Hbond.Weighted>
0.0000

> <Gold.Chemscore.DEClash.Weighted>
0.1934

> <Gold.Chemscore.DEInternal.Weighted>
2.8230

> <Gold.Chemscore.Rot.Weighted>
3.3330

> <Gold.Chemscore.Internal.Correction.Weighted>
   9.000000E+99

> <Gold.Protein.RotatedTorsions>
[ 6907 6896 6895 6894 ] final  103.68 input  -60.11 | X-H torsion
[ 7974 7965 7964 7962 ] final  122.46 input  175.53 | X-H torsion
[ 8008 7997 7996 7995 ] final  126.88 input   59.86 | X-H torsion
[ 10167 10162 10161 10158 ] final -119.58 input  -65.29 | X-H torsion
[ 10718 10713 10712 10709 ] final  150.64 input   66.30 | X-H torsion
[ 10763 10752 10751 10750 ] final -128.79 input  -60.55 | X-H torsion
[ 11005 11000 10999 10996 ] final  174.26 input  -57.11 | X-H torsion

> <Gold.Protein.ActiveResidues>
 VAL166  LYS551  ARG553  GLY616  TRP617  ASP618  TYR619  PRO620  LYS621  CYS622 
 ASP623  PHE694  ASN695  SER759  ASP760  ASP761  ALA762  ILE779  LEU786  VAL792 
 PHE793  MET794  SER795  GLU796  ALA797  LYS798  CYS799  TRP800  GLU811  SER814 

> <Gold.Protein.RotatedAtoms>
  152.5288  133.9789  159.7796 H   0  0  0  0  0  0  0  0  0  0  0  0  # atno 6907 bound_to 6896
  151.0047  133.6015  159.2697 H   0  0  0  0  0  0  0  0  0  0  0  0  # atno 6908 bound_to 6896
  151.3111  135.0801  159.9326 H   0  0  0  0  0  0  0  0  0  0  0  0  # atno 6909 bound_to 6896
  145.1073  139.3477  143.4781 H   0  0  0  0  0  0  0  0  0  0  0  0  # atno 7974 bound_to 7965
  156.2876  140.2682  156.2182 H   0  0  0  0  0  0  0  0  0  0  0  0  # atno 8008 bound_to 7997
  155.0195  140.0386  157.2449 H   0  0  0  0  0  0  0  0  0  0  0  0  # atno 8009 bound_to 7997
  154.7448  140.2732  155.6347 H   0  0  0  0  0  0  0  0  0  0  0  0  # atno 8010 bound_to 7997
  140.0451  143.5115  152.2110 H   0  0  0  0  0  0  0  0  0  0  0  0  # atno 10167 bound_to 10162
  157.2808  131.0835  151.1533 H   0  0  0  0  0  0  0  0  0  0  0  0  # atno 10718 bound_to 10713
  154.8757  135.3917  154.3814 H   0  0  0  0  0  0  0  0  0  0  0  0  # atno 10763 bound_to 10752
  153.4561  135.7028  153.6084 H   0  0  0  0  0  0  0  0  0  0  0  0  # atno 10764 bound_to 10752
  153.4603  135.3813  155.2303 H   0  0  0  0  0  0  0  0  0  0  0  0  # atno 10765 bound_to 10752
  140.3494  134.7208  157.4257 H   0  0  0  0  0  0  0  0  0  0  0  0  # atno 11005 bound_to 11000
  146.3528  140.0976  142.8609 LP  0  0  0  0  0  0  0  0  0  0  0  0  # atno 17320 bound_to 7965
  145.0887  140.9270  143.4782 LP  0  0  0  0  0  0  0  0  0  0  0  0  # atno 17321 bound_to 7965
  139.5989  144.7576  151.3220 LP  0  0  0  0  0  0  0  0  0  0  0  0  # atno 17342 bound_to 10162
  140.7242  143.7050  150.7815 LP  0  0  0  0  0  0  0  0  0  0  0  0  # atno 17343 bound_to 10162
  157.2967  130.6823  149.6142 LP  0  0  0  0  0  0  0  0  0  0  0  0  # atno 17370 bound_to 10713
  155.9664  130.4404  150.5299 LP  0  0  0  0  0  0  0  0  0  0  0  0  # atno 17371 bound_to 10713
  140.0715  134.5855  155.8636 LP  0  0  0  0  0  0  0  0  0  0  0  0  # atno 17394 bound_to 11000
  141.2016  133.6620  156.5961 LP  0  0  0  0  0  0  0  0  0  0  0  0  # atno 17395 bound_to 11000

$$$$
