AV-unprocessed.smi:90|AV-procd|sdf|830|dock2
  -GOLD-   2262017253D 1   1.00000     0.00000
 Structure written by MMmdl.
 64 67  0  0  0  0  0  0  0  0  2 V2000
  151.2859  140.1030  155.6536 C   0  0  0  0  0  0  0  0  0  0  0  0
  150.9938  140.2563  157.0762 N   0  0  0  0  0  0  0  0  0  0  0  0
  150.4903  141.5555  157.5180 C   0  0  0  0  0  0  0  0  0  0  0  0
  151.1452  142.0295  158.8301 C   0  0  0  0  0  0  0  0  0  0  0  0
  152.6035  142.5291  158.6545 C   0  0  1  0  0  0  0  0  0  0  0  0
  152.7024  144.0244  158.2737 C   0  0  0  0  0  0  0  0  0  0  0  0
  152.3297  144.9433  159.4478 C   0  0  0  0  0  0  0  0  0  0  0  0
  153.1886  144.6069  160.6743 C   0  0  0  0  0  0  0  0  0  0  0  0
  153.1077  143.1113  161.0237 C   0  0  0  0  0  0  0  0  0  0  0  0
  153.4627  142.2737  159.8494 N   0  3  1  0  0  0  0  0  0  0  0  0
  153.6400  140.8435  160.1907 C   0  0  0  0  0  0  0  0  0  0  0  0
  150.5626  139.1609  157.7590 C   0  0  0  0  0  0  0  0  0  0  0  0
  151.4354  138.4924  158.5604 N   0  0  0  0  0  0  0  0  0  0  0  0
  151.0492  137.3988  159.2225 C   0  0  0  0  0  0  0  0  0  0  0  0
  149.8531  136.8105  159.2321 N   0  0  0  0  0  0  0  0  0  0  0  0
  148.9640  137.4812  158.4464 C   0  0  0  0  0  0  0  0  0  0  0  0
  149.2333  138.6505  157.6778 C   0  0  0  0  0  0  0  0  0  0  0  0
  148.0805  139.0426  157.0069 N   0  0  0  0  0  0  0  0  0  0  0  0
  147.1889  138.1544  157.3493 C   0  0  0  0  0  0  0  0  0  0  0  0
  147.6283  137.1885  158.2259 N   0  0  0  0  0  0  0  0  0  0  0  0
  146.8466  136.0852  158.7688 C   0  0  0  0  0  0  0  0  0  0  0  0
  146.3655  136.2791  160.2386 C   0  0  0  0  0  0  0  0  0  0  0  0
  145.3381  137.4432  160.3309 C   0  0  0  0  0  0  0  0  0  0  0  0
  144.1904  137.2081  159.5402 O   0  0  0  0  0  0  0  0  0  0  0  0
  145.7137  134.9725  160.7602 C   0  0  0  0  0  0  0  0  0  0  0  0
  145.5103  134.9634  162.2872 C   0  0  0  0  0  0  0  0  0  0  0  0
  146.7435  135.2096  162.9495 O   0  0  0  0  0  0  0  0  0  0  0  0
  147.2945  136.4806  162.6314 C   0  0  0  0  0  0  0  0  0  0  0  0
  147.6067  136.5496  161.1265 C   0  0  0  0  0  0  0  0  0  0  0  0
  151.9338  139.2426  155.4809 H   0  0  0  0  0  0  0  0  0  0  0  0
  151.7991  140.9857  155.2714 H   0  0  0  0  0  0  0  0  0  0  0  0
  150.3691  139.9687  155.0783 H   0  0  0  0  0  0  0  0  0  0  0  0
  150.6178  142.3084  156.7431 H   0  0  0  0  0  0  0  0  0  0  0  0
  149.4136  141.4600  157.6549 H   0  0  0  0  0  0  0  0  0  0  0  0
  150.5248  142.8012  159.2846 H   0  0  0  0  0  0  0  0  0  0  0  0
  151.1336  141.1910  159.5250 H   0  0  0  0  0  0  0  0  0  0  0  0
  153.0403  141.9611  157.8317 H   0  0  0  0  0  0  0  0  0  0  0  0
  153.7267  144.2439  157.9692 H   0  0  0  0  0  0  0  0  0  0  0  0
  152.0860  144.2543  157.4054 H   0  0  0  0  0  0  0  0  0  0  0  0
  152.4744  145.9867  159.1661 H   0  0  0  0  0  0  0  0  0  0  0  0
  151.2725  144.8349  159.6911 H   0  0  0  0  0  0  0  0  0  0  0  0
  154.2266  144.8756  160.4737 H   0  0  0  0  0  0  0  0  0  0  0  0
  152.8741  145.2085  161.5275 H   0  0  0  0  0  0  0  0  0  0  0  0
  153.7971  142.8985  161.8416 H   0  0  0  0  0  0  0  0  0  0  0  0
  152.1112  142.8544  161.3845 H   0  0  0  0  0  0  0  0  0  0  0  0
  152.7397  140.4182  160.6347 H   0  0  0  0  0  0  0  0  0  0  0  0
  154.4503  140.7274  160.9107 H   0  0  0  0  0  0  0  0  0  0  0  0
  153.8995  140.2614  159.3060 H   0  0  0  0  0  0  0  0  0  0  0  0
  151.8069  136.9269  159.8305 H   0  0  0  0  0  0  0  0  0  0  0  0
  146.1759  138.1848  156.9751 H   0  0  0  0  0  0  0  0  0  0  0  0
  145.9881  135.9409  158.1114 H   0  0  0  0  0  0  0  0  0  0  0  0
  147.4370  135.1726  158.6790 H   0  0  0  0  0  0  0  0  0  0  0  0
  145.0221  137.6015  161.3621 H   0  0  0  0  0  0  0  0  0  0  0  0
  145.7681  138.3881  160.0035 H   0  0  0  0  0  0  0  0  0  0  0  0
  143.8288  136.3679  159.7771 H   0  0  0  0  0  0  0  0  0  0  0  0
  144.7549  134.7984  160.2711 H   0  0  0  0  0  0  0  0  0  0  0  0
  146.3474  134.1237  160.4994 H   0  0  0  0  0  0  0  0  0  0  0  0
  144.7637  135.6944  162.5989 H   0  0  0  0  0  0  0  0  0  0  0  0
  145.1376  133.9889  162.6029 H   0  0  0  0  0  0  0  0  0  0  0  0
  146.6167  137.2774  162.9392 H   0  0  0  0  0  0  0  0  0  0  0  0
  148.2116  136.6136  163.2054 H   0  0  0  0  0  0  0  0  0  0  0  0
  148.3749  135.8057  160.9111 H   0  0  0  0  0  0  0  0  0  0  0  0
  148.0555  137.5133  160.8847 H   0  0  0  0  0  0  0  0  0  0  0  0
  154.3824  142.5870  159.5732 H   0  0  0  0  0  0  0  0  0  0  0  0
  1  2  1  0  0  0  0
  1 30  1  0  0  0  0
  1 31  1  0  0  0  0
  1 32  1  0  0  0  0
  2  3  1  0  0  0  0
  2 12  1  0  0  0  0
  3  4  1  0  0  0  0
  3 33  1  0  0  0  0
  3 34  1  0  0  0  0
  4  5  1  0  0  0  0
  4 35  1  0  0  0  0
  4 36  1  0  0  0  0
  5 10  1  0  0  0  0
  5  6  1  0  0  0  0
  5 37  1  0  0  0  0
  6  7  1  0  0  0  0
  6 38  1  0  0  0  0
  6 39  1  0  0  0  0
  7  8  1  0  0  0  0
  7 40  1  0  0  0  0
  7 41  1  0  0  0  0
  8  9  1  0  0  0  0
  8 42  1  0  0  0  0
  8 43  1  0  0  0  0
  9 10  1  0  0  0  0
  9 44  1  0  0  0  0
  9 45  1  0  0  0  0
 10 11  1  0  0  0  0
 10 64  1  0  0  0  0
 11 46  1  0  0  0  0
 11 47  1  0  0  0  0
 11 48  1  0  0  0  0
 12 17  1  0  0  0  0
 12 13  2  0  0  0  0
 13 14  1  0  0  0  0
 14 15  2  0  0  0  0
 14 49  1  0  0  0  0
 15 16  1  0  0  0  0
 16 20  1  0  0  0  0
 16 17  2  0  0  0  0
 17 18  1  0  0  0  0
 18 19  2  0  0  0  0
 19 20  1  0  0  0  0
 19 50  1  0  0  0  0
 20 21  1  0  0  0  0
 21 22  1  0  0  0  0
 21 51  1  0  0  0  0
 21 52  1  0  0  0  0
 22 29  1  0  0  0  0
 22 23  1  0  0  0  0
 22 25  1  0  0  0  0
 23 24  1  0  0  0  0
 23 53  1  0  0  0  0
 23 54  1  0  0  0  0
 24 55  1  0  0  0  0
 25 26  1  0  0  0  0
 25 56  1  0  0  0  0
 25 57  1  0  0  0  0
 26 27  1  0  0  0  0
 26 58  1  0  0  0  0
 26 59  1  0  0  0  0
 27 28  1  0  0  0  0
 28 29  1  0  0  0  0
 28 60  1  0  0  0  0
 28 61  1  0  0  0  0
 29 62  1  0  0  0  0
 29 63  1  0  0  0  0
M  CHG  1  10   1
M  END
> <s_m_source_file>
AV-unprocessed.smi

> <i_m_source_file_index>
90

> <i_lp_mmshare_version>
43012

> <i_f3d_flags>
0

> <s_epik_input>
W0NIM11OMVtDSDJdW0NIMl1bQ0gyXVtDSDJdW0NASF0xW0NIMl1bQ0gyXU4oW0NIM10pYyhuW2NIXW4yKWMoYzIzKW5bY0hdbjNbQ0gyXUM0KFtDSDJdW09IXSlbQ0gyXVtDSDJdT1tDSDJdW0NIMl00

> <s_epik_cmdline>
J2VwaWtfcHl0aG9uJywgJy1waCcsICc3LjAnLCAnLXRuJywgJzgnLCAnLW1hJywgJzIwMCcsICctbWV0YWxfYmluZGluZycsICctaW1hZScsICc8aW5maWxlLm1hZT4nLCAnLW9tYWUnLCAnPG91dGZpbGUubWFlPic=

> <r_lp_tautomer_probability>
1

> <r_epik_Ionization_Penalty>
0.00234895

> <r_epik_Ionization_Penalty_Charging>
0.00106647

> <r_epik_Ionization_Penalty_Neutral>
0.00128248

> <r_epik_State_Penalty>
-0

> <r_epik_Charging_Adjusted_Penalty>
0.00106647

> <i_epik_Tot_Q>
1

> <i_epik_Tot_abs_Q>
1

> <r_epik_Metal_State_Penalty>
-0

> <b_epik_Metal_Only>
0

> <s_lp_Force_Field>
OPLS_2005

> <r_lp_Energy>
42.9862

> <b_lp_Chiralities_Consistent>
1

> <s_lp_Variant>
AV-unprocessed.smi:90-2

> <Gold.Version>
5.8.1

> <Gold.Id.Protein>
6NUR|6NUR_protein|mol2

> <Gold.PLP.Fitness>
55.6052

> <Gold.PLP.PLP>
-56.2030

> <Gold.PLP.part.hbond>
-1.0000

> <Gold.PLP.part.metal>
0.0000

> <Gold.PLP.part.buried>
-8.3527

> <Gold.PLP.part.nonpolar>
-47.4322

> <Gold.PLP.part.repulsive>
0.0376

> <Gold.PLP.ligand.clash>
0.0000

> <Gold.PLP.ligand.torsion>
2.2704

> <Gold.PLP.Chemscore.Hbond>
1.0000

> <Gold.PLP.Chemscore.CHOScore>
0.0000

> <Gold.PLP.Chemscore.Metal>
0.0000

> <Gold.Chemscore.Hbonds>
donor molecule, donor type, donor heavy atom, donor atom, acceptor molecule, acceptor atom, score
      P1  H  6896  6907       L1    15  0.08

> <Gold.PLP.Chemscore.Internal.Correction>
0.9430

> <Gold.Rescore>
     Score         DG    S(hbond)    S(metal)    S(lipo)     H(rot)  DE(clash)    DE(int)     intcor
     14.14     -16.84       0.92        0.00     130.61       2.73       0.10       2.59       ----

> <Gold.Chemscore.Fitness>
14.1424

> <Gold.Chemscore.DG>
-16.8383

> <Gold.Chemscore.ZeroCoef>
-5.4800

> <Gold.Chemscore.Hbond>
0.9213

> <Gold.Chemscore.Metal>
0.0000

> <Gold.Chemscore.Lipo>
130.6144

> <Gold.Chemscore.Internal_Hbond>
0.0000

> <Gold.Chemscore.DEClash>
0.1045

> <Gold.Chemscore.DEInternal>
2.5913

> <Gold.Chemscore.Rot>
2.7347

> <Gold.Chemscore.Internal.Correction>
   9.000000E+99

> <Gold.Chemscore.Hbond.Weighted>
-3.0773

> <Gold.Chemscore.Metal.Weighted>
-0.0000

> <Gold.Chemscore.Lipo.Weighted>
-15.2819

> <Gold.Chemscore.Internal_Hbond.Weighted>
0.0000

> <Gold.Chemscore.DEClash.Weighted>
0.1045

> <Gold.Chemscore.DEInternal.Weighted>
2.5913

> <Gold.Chemscore.Rot.Weighted>
7.0009

> <Gold.Chemscore.Internal.Correction.Weighted>
   9.000000E+99

> <Gold.Protein.RotatedTorsions>
[ 6907 6896 6895 6894 ] final  -33.66 input  -60.11 | X-H torsion
[ 7974 7965 7964 7962 ] final -103.65 input  175.53 | X-H torsion
[ 8008 7997 7996 7995 ] final  174.62 input   59.86 | X-H torsion
[ 10167 10162 10161 10158 ] final -168.60 input  -65.29 | X-H torsion
[ 10718 10713 10712 10709 ] final -144.30 input   66.30 | X-H torsion
[ 10763 10752 10751 10750 ] final  -52.92 input  -60.55 | X-H torsion
[ 11005 11000 10999 10996 ] final  123.44 input  -57.11 | X-H torsion

> <Gold.Protein.ActiveResidues>
 VAL166  LYS551  ARG553  GLY616  TRP617  ASP618  TYR619  PRO620  LYS621  CYS622 
 ASP623  PHE694  ASN695  SER759  ASP760  ASP761  ALA762  ILE779  LEU786  VAL792 
 PHE793  MET794  SER795  GLU796  ALA797  LYS798  CYS799  TRP800  GLU811  SER814 

> <Gold.Protein.RotatedAtoms>
  151.0627  134.9747  159.8268 H   0  0  0  0  0  0  0  0  0  0  0  0  # atno 6907 bound_to 6896
  152.5398  134.2397  159.8867 H   0  0  0  0  0  0  0  0  0  0  0  0  # atno 6908 bound_to 6896
  151.2418  133.4352  159.2641 H   0  0  0  0  0  0  0  0  0  0  0  0  # atno 6909 bound_to 6896
  145.2531  140.9245  143.3083 H   0  0  0  0  0  0  0  0  0  0  0  0  # atno 7974 bound_to 7965
  156.0955  140.1430  156.9536 H   0  0  0  0  0  0  0  0  0  0  0  0  # atno 8008 bound_to 7997
  154.4669  140.0923  156.7089 H   0  0  0  0  0  0  0  0  0  0  0  0  # atno 8009 bound_to 7997
  155.4847  140.3446  155.4347 H   0  0  0  0  0  0  0  0  0  0  0  0  # atno 8010 bound_to 7997
  139.5975  144.1081  152.1706 H   0  0  0  0  0  0  0  0  0  0  0  0  # atno 10167 bound_to 10162
  156.3685  130.7775  151.1953 H   0  0  0  0  0  0  0  0  0  0  0  0  # atno 10718 bound_to 10713
  154.1506  135.6491  153.4962 H   0  0  0  0  0  0  0  0  0  0  0  0  # atno 10763 bound_to 10752
  153.0139  135.5337  154.6812 H   0  0  0  0  0  0  0  0  0  0  0  0  # atno 10764 bound_to 10752
  154.6099  135.2953  155.0415 H   0  0  0  0  0  0  0  0  0  0  0  0  # atno 10765 bound_to 10752
  139.9312  134.9641  156.8259 H   0  0  0  0  0  0  0  0  0  0  0  0  # atno 11005 bound_to 11000
  144.9485  139.4109  143.6414 LP  0  0  0  0  0  0  0  0  0  0  0  0  # atno 17320 bound_to 7965
  146.3297  139.8480  142.8878 LP  0  0  0  0  0  0  0  0  0  0  0  0  # atno 17321 bound_to 7965
  140.0669  144.5811  150.7221 LP  0  0  0  0  0  0  0  0  0  0  0  0  # atno 17342 bound_to 10162
  140.7224  143.2601  151.4236 LP  0  0  0  0  0  0  0  0  0  0  0  0  # atno 17343 bound_to 10162
  157.7481  131.0379  150.4478 LP  0  0  0  0  0  0  0  0  0  0  0  0  # atno 17370 bound_to 10713
  156.4701  130.4051  149.6523 LP  0  0  0  0  0  0  0  0  0  0  0  0  # atno 17371 bound_to 10713
  140.6196  134.0006  155.7612 LP  0  0  0  0  0  0  0  0  0  0  0  0  # atno 17394 bound_to 11000
  141.0902  133.9928  157.3249 LP  0  0  0  0  0  0  0  0  0  0  0  0  # atno 17395 bound_to 11000

$$$$
