AV-unprocessed.smi:3116|AV-procd|sdf|11874|dock3
  -GOLD-   2272017253D 1   1.00000     0.00000
 Structure written by MMmdl.
 33 33  0  0  0  0  0  0  0  0  1 V2000
  152.8604  138.2436  155.8723 C   0  0  0  0  0  0  0  0  0  0  0  0
  151.8462  139.0520  155.0386 C   0  0  2  0  0  0  0  0  0  0  0  0
  150.9589  139.8253  155.9225 N   0  0  0  0  0  0  0  0  0  0  0  0
  151.6254  140.5424  157.0095 C   0  0  2  0  0  0  0  0  0  0  0  0
  151.7227  139.6538  158.2651 C   0  0  0  0  0  0  0  0  0  0  0  0
  150.8867  141.8792  157.2872 C   0  0  1  0  0  0  0  0  0  0  0  0
  149.4529  141.6829  157.8138 C   0  0  0  0  0  0  0  0  0  0  0  0
  151.6493  142.7922  158.1352 N   0  0  0  0  0  0  0  0  0  0  0  0
  151.9669  144.1197  157.9203 C   0  0  0  0  0  0  0  0  0  0  0  0
  152.6691  144.5555  159.0069 C   0  0  0  0  0  0  0  0  0  0  0  0
  152.7299  143.4116  159.8497 C   0  0  0  0  0  0  0  0  0  0  0  0
  152.1170  142.3617  159.3284 N   0  0  0  0  0  0  0  0  0  0  0  0
  151.0110  138.1508  154.1151 C   0  0  0  0  0  0  0  0  0  0  0  0
  150.1842  138.7654  153.2645 N   0  0  0  0  0  0  0  0  0  0  0  0
  151.1035  136.9250  154.1558 O   0  0  0  0  0  0  0  0  0  0  0  0
  153.5322  137.6703  155.2323 H   0  0  0  0  0  0  0  0  0  0  0  0
  152.3602  137.5430  156.5426 H   0  0  0  0  0  0  0  0  0  0  0  0
  153.4828  138.8921  156.4877 H   0  0  0  0  0  0  0  0  0  0  0  0
  152.4011  139.7255  154.3832 H   0  0  0  0  0  0  0  0  0  0  0  0
  150.1912  139.2705  156.2733 H   0  0  0  0  0  0  0  0  0  0  0  0
  152.6367  140.7961  156.6875 H   0  0  0  0  0  0  0  0  0  0  0  0
  152.1222  140.2173  159.1085 H   0  0  0  0  0  0  0  0  0  0  0  0
  152.3895  138.8067  158.1068 H   0  0  0  0  0  0  0  0  0  0  0  0
  150.7489  139.2624  158.5616 H   0  0  0  0  0  0  0  0  0  0  0  0
  150.7747  142.3730  156.3200 H   0  0  0  0  0  0  0  0  0  0  0  0
  148.8680  141.0663  157.1312 H   0  0  0  0  0  0  0  0  0  0  0  0
  148.9398  142.6399  157.9130 H   0  0  0  0  0  0  0  0  0  0  0  0
  149.4384  141.1979  158.7902 H   0  0  0  0  0  0  0  0  0  0  0  0
  151.6683  144.6407  157.0225 H   0  0  0  0  0  0  0  0  0  0  0  0
  153.0752  145.5419  159.1753 H   0  0  0  0  0  0  0  0  0  0  0  0
  153.1954  143.3140  160.8192 H   0  0  0  0  0  0  0  0  0  0  0  0
  149.6219  138.2188  152.6288 H   0  0  0  0  0  0  0  0  0  0  0  0
  150.1340  139.7738  153.2539 H   0  0  0  0  0  0  0  0  0  0  0  0
  1  2  1  0  0  0  0
  1 16  1  0  0  0  0
  1 17  1  0  0  0  0
  1 18  1  0  0  0  0
  2  3  1  0  0  0  0
  2 13  1  0  0  0  0
  2 19  1  0  0  0  0
  3  4  1  0  0  0  0
  3 20  1  0  0  0  0
  4  5  1  0  0  0  0
  4  6  1  0  0  0  0
  4 21  1  0  0  0  0
  5 22  1  0  0  0  0
  5 23  1  0  0  0  0
  5 24  1  0  0  0  0
  6  7  1  0  0  0  0
  6  8  1  0  0  0  0
  6 25  1  0  0  0  0
  7 26  1  0  0  0  0
  7 27  1  0  0  0  0
  7 28  1  0  0  0  0
  8 12  1  0  0  0  0
  8  9  1  0  0  0  0
  9 10  2  0  0  0  0
  9 29  1  0  0  0  0
 10 11  1  0  0  0  0
 10 30  1  0  0  0  0
 11 12  2  0  0  0  0
 11 31  1  0  0  0  0
 13 14  1  0  0  0  0
 13 15  2  0  0  0  0
 14 32  1  0  0  0  0
 14 33  1  0  0  0  0
M  END
> <s_m_source_file>
AV-unprocessed.smi

> <i_m_source_file_index>
3116

> <i_lp_mmshare_version>
43012

> <i_f3d_flags>
0

> <s_epik_input>
W05IMl1DKD1PKVtDQEhdKFtDSDNdKVtOSF1bQ0BIXShbQ0gzXSlbQ0BIXShbQ0gzXSluMVtjSF1bY0hdW2NIXW4x

> <s_epik_cmdline>
J2VwaWtfcHl0aG9uJywgJy1waCcsICc3LjAnLCAnLXRuJywgJzgnLCAnLW1hJywgJzIwMCcsICctbWV0YWxfYmluZGluZycsICctaW1hZScsICc8aW5maWxlLm1hZT4nLCAnLW9tYWUnLCAnPG91dGZpbGUubWFlPic=

> <r_lp_tautomer_probability>
1

> <r_epik_Ionization_Penalty>
0.865977

> <r_epik_Ionization_Penalty_Charging>
0

> <r_epik_Ionization_Penalty_Neutral>
0.865977

> <r_epik_State_Penalty>
0.901888

> <r_epik_Charging_Adjusted_Penalty>
0.901888

> <i_epik_Tot_Q>
0

> <i_epik_Tot_abs_Q>
0

> <r_epik_Metal_State_Penalty>
0.901181

> <b_epik_Metal_Only>
0

> <s_lp_Force_Field>
OPLS_2005

> <r_lp_Energy>
11.5103

> <b_lp_Chiralities_Consistent>
1

> <s_lp_Variant>
AV-unprocessed.smi:3116-13

> <Gold.Version>
5.8.1

> <Gold.Id.Protein>
6NUR|6NUR_protein|mol2

> <Gold.PLP.Fitness>
43.2878

> <Gold.PLP.PLP>
-35.7043

> <Gold.PLP.part.hbond>
-3.0465

> <Gold.PLP.part.metal>
0.0000

> <Gold.PLP.part.buried>
-4.2451

> <Gold.PLP.part.nonpolar>
-29.2508

> <Gold.PLP.part.repulsive>
0.9778

> <Gold.PLP.ligand.clash>
0.0000

> <Gold.PLP.ligand.torsion>
0.8685

> <Gold.PLP.Chemscore.Hbond>
2.0372

> <Gold.PLP.Chemscore.CHOScore>
1.0000

> <Gold.PLP.Chemscore.Metal>
0.0000

> <Gold.Chemscore.Hbonds>
donor molecule, donor type, donor heavy atom, donor atom, acceptor molecule, acceptor atom, score
      L1  H    14    32       P1  7948  0.61
      P1  H 10752 10763       L1    15  0.37

> <Gold.PLP.Chemscore.Internal.Correction>
0.2089

> <Gold.Rescore>
     Score         DG    S(hbond)    S(metal)    S(lipo)     H(rot)  DE(clash)    DE(int)     intcor
     13.83     -14.76       1.94        0.00      76.18       2.38       0.15       0.78       ----

> <Gold.Chemscore.Fitness>
13.8257

> <Gold.Chemscore.DG>
-14.7605

> <Gold.Chemscore.ZeroCoef>
-5.4800

> <Gold.Chemscore.Hbond>
1.9368

> <Gold.Chemscore.Metal>
0.0000

> <Gold.Chemscore.Lipo>
76.1832

> <Gold.Chemscore.Internal_Hbond>
0.0000

> <Gold.Chemscore.DEClash>
0.1537

> <Gold.Chemscore.DEInternal>
0.7810

> <Gold.Chemscore.Rot>
2.3836

> <Gold.Chemscore.Internal.Correction>
   9.000000E+99

> <Gold.Chemscore.Hbonds>
donor molecule, donor type, donor heavy atom, donor atom, acceptor molecule, acceptor atom, score
      L1  H    14    32       P1  7948  0.36
      L1  H    14    33       P1  7957  0.02
      P1  H 10752 10763       L1    15  0.37

> <Gold.Chemscore.Hbond.Weighted>
-6.4690

> <Gold.Chemscore.Metal.Weighted>
-0.0000

> <Gold.Chemscore.Lipo.Weighted>
-8.9134

> <Gold.Chemscore.Internal_Hbond.Weighted>
0.0000

> <Gold.Chemscore.DEClash.Weighted>
0.1537

> <Gold.Chemscore.DEInternal.Weighted>
0.7810

> <Gold.Chemscore.Rot.Weighted>
6.1020

> <Gold.Chemscore.Internal.Correction.Weighted>
   9.000000E+99

> <Gold.Protein.RotatedTorsions>
[ 6907 6896 6895 6894 ] final    9.26 input  -60.11 | X-H torsion
[ 7974 7965 7964 7962 ] final   25.50 input  175.53 | X-H torsion
[ 8008 7997 7996 7995 ] final  176.69 input   59.86 | X-H torsion
[ 10167 10162 10161 10158 ] final  -27.90 input  -65.29 | X-H torsion
[ 10718 10713 10712 10709 ] final    8.14 input   66.30 | X-H torsion
[ 10763 10752 10751 10750 ] final   57.15 input  -60.55 | X-H torsion
[ 11005 11000 10999 10996 ] final -171.83 input  -57.11 | X-H torsion

> <Gold.Protein.ActiveResidues>
 VAL166  LYS551  ARG553  GLY616  TRP617  ASP618  TYR619  PRO620  LYS621  CYS622 
 ASP623  PHE694  ASN695  SER759  ASP760  ASP761  ALA762  ILE779  LEU786  VAL792 
 PHE793  MET794  SER795  GLU796  ALA797  LYS798  CYS799  TRP800  GLU811  SER814 

> <Gold.Protein.RotatedAtoms>
  151.7193  135.0897  160.0280 H   0  0  0  0  0  0  0  0  0  0  0  0  # atno 6907 bound_to 6896
  152.3612  133.6295  159.6025 H   0  0  0  0  0  0  0  0  0  0  0  0  # atno 6908 bound_to 6896
  150.7606  133.9336  159.3476 H   0  0  0  0  0  0  0  0  0  0  0  0  # atno 6909 bound_to 6896
  146.1885  139.7457  142.8849 H   0  0  0  0  0  0  0  0  0  0  0  0  # atno 7974 bound_to 7965
  156.0737  140.1377  156.9797 H   0  0  0  0  0  0  0  0  0  0  0  0  # atno 8008 bound_to 7997
  154.4546  140.0966  156.6769 H   0  0  0  0  0  0  0  0  0  0  0  0  # atno 8009 bound_to 7997
  155.5187  140.3455  155.4405 H   0  0  0  0  0  0  0  0  0  0  0  0  # atno 8010 bound_to 7997
  140.7274  143.4055  151.1193 H   0  0  0  0  0  0  0  0  0  0  0  0  # atno 10167 bound_to 10162
  156.9472  130.5883  149.5655 H   0  0  0  0  0  0  0  0  0  0  0  0  # atno 10718 bound_to 10713
  152.9844  135.5652  154.5343 H   0  0  0  0  0  0  0  0  0  0  0  0  # atno 10763 bound_to 10752
  154.4809  135.2788  155.1573 H   0  0  0  0  0  0  0  0  0  0  0  0  # atno 10764 bound_to 10752
  154.3082  135.6293  153.5507 H   0  0  0  0  0  0  0  0  0  0  0  0  # atno 10765 bound_to 10752
  140.5038  134.5868  157.4996 H   0  0  0  0  0  0  0  0  0  0  0  0  # atno 11005 bound_to 11000
  145.3865  141.0366  143.3148 LP  0  0  0  0  0  0  0  0  0  0  0  0  # atno 17320 bound_to 7965
  144.8442  139.5423  143.6886 LP  0  0  0  0  0  0  0  0  0  0  0  0  # atno 17321 bound_to 7965
  139.7681  143.8535  152.3115 LP  0  0  0  0  0  0  0  0  0  0  0  0  # atno 17342 bound_to 10162
  139.8444  144.7194  150.9291 LP  0  0  0  0  0  0  0  0  0  0  0  0  # atno 17343 bound_to 10162
  156.0378  130.5464  150.8698 LP  0  0  0  0  0  0  0  0  0  0  0  0  # atno 17370 bound_to 10713
  157.5746  131.0946  150.9365 LP  0  0  0  0  0  0  0  0  0  0  0  0  # atno 17371 bound_to 10713
  139.9698  134.7312  156.0064 LP  0  0  0  0  0  0  0  0  0  0  0  0  # atno 17394 bound_to 11000
  141.1422  133.6562  156.3762 LP  0  0  0  0  0  0  0  0  0  0  0  0  # atno 17395 bound_to 11000

$$$$
