AV-unprocessed.smi:2633|AV-procd|sdf|10252|dock6
  -GOLD-   2272014263D 1   1.00000     0.00000
 Structure written by MMmdl.
 35 37  0  0  0  0  0  0  0  0  1 V2000
  151.9942  137.2051  153.8635 O   0  0  0  0  0  0  0  0  0  0  0  0
  151.2915  137.7560  154.9577 C   0  0  0  0  0  0  0  0  0  0  0  0
  151.9602  139.0461  155.4624 C   0  0  0  0  0  0  0  0  0  0  0  0
  150.9983  140.1116  155.7133 N   0  0  0  0  0  0  0  0  0  0  0  0
  151.0444  141.1005  156.6445 C   0  0  0  0  0  0  0  0  0  0  0  0
  152.1850  141.2394  157.6164 C   0  0  0  0  0  0  0  0  0  0  0  0
  152.0772  142.4636  158.5099 C   0  0  0  0  0  0  0  0  0  0  0  0
  152.2838  142.3418  159.9003 C   0  0  0  0  0  0  0  0  0  0  0  0
  152.1898  143.4749  160.7314 C   0  0  0  0  0  0  0  0  0  0  0  0
  151.8891  144.7334  160.1756 C   0  0  0  0  0  0  0  0  0  0  0  0
  151.6819  144.8587  158.7881 C   0  0  0  0  0  0  0  0  0  0  0  0
  151.7755  143.7258  157.9563 C   0  0  0  0  0  0  0  0  0  0  0  0
  149.9986  141.9311  156.6510 N   0  0  0  0  0  0  0  0  0  0  0  0
  149.2146  141.4497  155.6225 C   0  0  0  0  0  0  0  0  0  0  0  0
  147.9738  141.9057  155.1225 C   0  0  0  0  0  0  0  0  0  0  0  0
  147.3512  141.2414  154.0456 C   0  0  0  0  0  0  0  0  0  0  0  0
  147.9583  140.1138  153.4556 C   0  0  0  0  0  0  0  0  0  0  0  0
  149.1938  139.6427  153.9401 C   0  0  0  0  0  0  0  0  0  0  0  0
  149.8117  140.3105  155.0145 C   0  0  0  0  0  0  0  0  0  0  0  0
  151.3669  136.8646  153.2441 H   0  0  0  0  0  0  0  0  0  0  0  0
  150.2635  137.9535  154.6528 H   0  0  0  0  0  0  0  0  0  0  0  0
  151.2519  137.0163  155.7575 H   0  0  0  0  0  0  0  0  0  0  0  0
  152.4870  138.8404  156.3946 H   0  0  0  0  0  0  0  0  0  0  0  0
  152.7225  139.3899  154.7638 H   0  0  0  0  0  0  0  0  0  0  0  0
  152.2326  140.3373  158.2270 H   0  0  0  0  0  0  0  0  0  0  0  0
  153.1333  141.3058  157.0854 H   0  0  0  0  0  0  0  0  0  0  0  0
  152.5184  141.3791  160.3311 H   0  0  0  0  0  0  0  0  0  0  0  0
  152.3502  143.3789  161.7951 H   0  0  0  0  0  0  0  0  0  0  0  0
  151.8187  145.6027  160.8129 H   0  0  0  0  0  0  0  0  0  0  0  0
  151.4532  145.8239  158.3611 H   0  0  0  0  0  0  0  0  0  0  0  0
  151.6202  143.8296  156.8924 H   0  0  0  0  0  0  0  0  0  0  0  0
  147.5013  142.7684  155.5682 H   0  0  0  0  0  0  0  0  0  0  0  0
  146.4033  141.5990  153.6708 H   0  0  0  0  0  0  0  0  0  0  0  0
  147.4747  139.6108  152.6310 H   0  0  0  0  0  0  0  0  0  0  0  0
  149.6618  138.7796  153.4908 H   0  0  0  0  0  0  0  0  0  0  0  0
  1  2  1  0  0  0  0
  1 20  1  0  0  0  0
  2  3  1  0  0  0  0
  2 21  1  0  0  0  0
  2 22  1  0  0  0  0
  3  4  1  0  0  0  0
  3 23  1  0  0  0  0
  3 24  1  0  0  0  0
  4 19  1  0  0  0  0
  4  5  1  0  0  0  0
  5  6  1  0  0  0  0
  5 13  2  0  0  0  0
  6  7  1  0  0  0  0
  6 25  1  0  0  0  0
  6 26  1  0  0  0  0
  7 12  1  0  0  0  0
  7  8  2  0  0  0  0
  8  9  1  0  0  0  0
  8 27  1  0  0  0  0
  9 10  2  0  0  0  0
  9 28  1  0  0  0  0
 10 11  1  0  0  0  0
 10 29  1  0  0  0  0
 11 12  2  0  0  0  0
 11 30  1  0  0  0  0
 12 31  1  0  0  0  0
 13 14  1  0  0  0  0
 14 19  2  0  0  0  0
 14 15  1  0  0  0  0
 15 16  2  0  0  0  0
 15 32  1  0  0  0  0
 16 17  1  0  0  0  0
 16 33  1  0  0  0  0
 17 18  2  0  0  0  0
 17 34  1  0  0  0  0
 18 19  1  0  0  0  0
 18 35  1  0  0  0  0
M  END
> <s_m_source_file>
AV-unprocessed.smi

> <i_m_source_file_index>
2633

> <i_lp_mmshare_version>
43012

> <i_f3d_flags>
0

> <s_epik_input>
W2NIXTFbY0hdW2NIXVtjSF1jKGMxMiluKFtDSDJdW0NIMl1bT0hdKWMobjIpW0NIMl1jM1tjSF1bY0hdW2NIXVtjSF1bY0hdMw==

> <s_epik_cmdline>
J2VwaWtfcHl0aG9uJywgJy1waCcsICc3LjAnLCAnLXRuJywgJzgnLCAnLW1hJywgJzIwMCcsICctbWV0YWxfYmluZGluZycsICctaW1hZScsICc8aW5maWxlLm1hZT4nLCAnLW9tYWUnLCAnPG91dGZpbGUubWFlPic=

> <r_epik_Ionization_Penalty>
0.0631471

> <r_epik_Ionization_Penalty_Charging>
0

> <r_epik_Ionization_Penalty_Neutral>
0.0631471

> <r_epik_State_Penalty>
0.0549237

> <r_epik_Charging_Adjusted_Penalty>
0.0549237

> <i_epik_Tot_Q>
0

> <i_epik_Tot_abs_Q>
0

> <r_epik_Metal_State_Penalty>
5.75471e-05

> <b_epik_Metal_Only>
0

> <s_lp_Force_Field>
OPLS_2005

> <r_lp_Energy>
13.1063

> <b_lp_Chiralities_Consistent>
1

> <s_lp_Variant>
AV-unprocessed.smi:2633-1

> <Gold.Version>
5.8.1

> <Gold.Id.Protein>
6NUR|6NUR_protein|mol2

> <Gold.PLP.Fitness>
48.5671

> <Gold.PLP.PLP>
-44.6469

> <Gold.PLP.part.hbond>
-2.0000

> <Gold.PLP.part.metal>
0.0000

> <Gold.PLP.part.buried>
0.1145

> <Gold.PLP.part.nonpolar>
-43.3010

> <Gold.PLP.part.repulsive>
0.1199

> <Gold.PLP.ligand.clash>
0.0254

> <Gold.PLP.ligand.torsion>
0.8522

> <Gold.PLP.Chemscore.Hbond>
1.8800

> <Gold.PLP.Chemscore.CHOScore>
0.0000

> <Gold.PLP.Chemscore.Metal>
0.0000

> <Gold.Chemscore.Hbonds>
donor molecule, donor type, donor heavy atom, donor atom, acceptor molecule, acceptor atom, score
      L1  H     1    20       P1  7949  0.88
      P1  H 10752 10764       L1     1  1.00

> <Gold.PLP.Chemscore.Internal.Correction>
0.0101

> <Gold.Rescore>
     Score         DG    S(hbond)    S(metal)    S(lipo)     H(rot)  DE(clash)    DE(int)     intcor
     16.32     -18.45       0.94        0.00     126.81       1.96       0.55       1.58       ----

> <Gold.Chemscore.Fitness>
16.3228

> <Gold.Chemscore.DG>
-18.4549

> <Gold.Chemscore.ZeroCoef>
-5.4800

> <Gold.Chemscore.Hbond>
0.9445

> <Gold.Chemscore.Metal>
0.0000

> <Gold.Chemscore.Lipo>
126.8063

> <Gold.Chemscore.Internal_Hbond>
0.0000

> <Gold.Chemscore.DEClash>
0.5509

> <Gold.Chemscore.DEInternal>
1.5812

> <Gold.Chemscore.Rot>
1.9594

> <Gold.Chemscore.Internal.Correction>
   9.000000E+99

> <Gold.Chemscore.Hbonds>
donor molecule, donor type, donor heavy atom, donor atom, acceptor molecule, acceptor atom, score
      L1  H     1    20       P1  7949  0.67
      P1  H 10752 10764       L1     1  0.24

> <Gold.Chemscore.Hbond.Weighted>
-3.1546

> <Gold.Chemscore.Metal.Weighted>
-0.0000

> <Gold.Chemscore.Lipo.Weighted>
-14.8363

> <Gold.Chemscore.Internal_Hbond.Weighted>
0.0000

> <Gold.Chemscore.DEClash.Weighted>
0.5509

> <Gold.Chemscore.DEInternal.Weighted>
1.5812

> <Gold.Chemscore.Rot.Weighted>
5.0160

> <Gold.Chemscore.Internal.Correction.Weighted>
   9.000000E+99

> <Gold.Protein.RotatedTorsions>
[ 6907 6896 6895 6894 ] final   82.70 input  -60.11 | X-H torsion
[ 7974 7965 7964 7962 ] final   15.09 input  175.53 | X-H torsion
[ 8008 7997 7996 7995 ] final   71.18 input   59.86 | X-H torsion
[ 10167 10162 10161 10158 ] final  -33.84 input  -65.29 | X-H torsion
[ 10718 10713 10712 10709 ] final  -44.51 input   66.30 | X-H torsion
[ 10763 10752 10751 10750 ] final  -84.19 input  -60.55 | X-H torsion
[ 11005 11000 10999 10996 ] final  160.44 input  -57.11 | X-H torsion

> <Gold.Protein.ActiveResidues>
 VAL166  LYS551  ARG553  GLY616  TRP617  ASP618  TYR619  PRO620  LYS621  CYS622 
 ASP623  PHE694  ASN695  SER759  ASP760  ASP761  ALA762  ILE779  LEU786  VAL792 
 PHE793  MET794  SER795  GLU796  ALA797  LYS798  CYS799  TRP800  GLU811  SER814 

> <Gold.Protein.RotatedAtoms>
  152.5306  134.3010  159.9078 H   0  0  0  0  0  0  0  0  0  0  0  0  # atno 6907 bound_to 6896
  151.2960  133.4137  159.2644 H   0  0  0  0  0  0  0  0  0  0  0  0  # atno 6908 bound_to 6896
  151.0159  134.9449  159.8090 H   0  0  0  0  0  0  0  0  0  0  0  0  # atno 6909 bound_to 6896
  146.2288  139.8945  142.8549 H   0  0  0  0  0  0  0  0  0  0  0  0  # atno 7974 bound_to 7965
  155.7500  140.3489  155.5146 H   0  0  0  0  0  0  0  0  0  0  0  0  # atno 8008 bound_to 7997
  155.9013  140.1034  157.1369 H   0  0  0  0  0  0  0  0  0  0  0  0  # atno 8009 bound_to 7997
  154.4044  140.1285  156.4427 H   0  0  0  0  0  0  0  0  0  0  0  0  # atno 8010 bound_to 7997
  140.7197  143.3591  151.2000 H   0  0  0  0  0  0  0  0  0  0  0  0  # atno 10167 bound_to 10162
  156.2379  130.4177  149.8796 H   0  0  0  0  0  0  0  0  0  0  0  0  # atno 10718 bound_to 10713
  154.5966  135.5529  153.7332 H   0  0  0  0  0  0  0  0  0  0  0  0  # atno 10763 bound_to 10752
  153.0138  135.6356  154.1773 H   0  0  0  0  0  0  0  0  0  0  0  0  # atno 10764 bound_to 10752
  154.1714  135.2892  155.3060 H   0  0  0  0  0  0  0  0  0  0  0  0  # atno 10765 bound_to 10752
  140.2059  134.8303  157.3069 H   0  0  0  0  0  0  0  0  0  0  0  0  # atno 11005 bound_to 11000
  145.2385  141.0000  143.3949 LP  0  0  0  0  0  0  0  0  0  0  0  0  # atno 17320 bound_to 7965
  144.9471  139.4123  143.6420 LP  0  0  0  0  0  0  0  0  0  0  0  0  # atno 17321 bound_to 7965
  139.7139  143.9332  152.2958 LP  0  0  0  0  0  0  0  0  0  0  0  0  # atno 17342 bound_to 10162
  139.9067  144.6880  150.8607 LP  0  0  0  0  0  0  0  0  0  0  0  0  # atno 17343 bound_to 10162
  156.6388  130.8696  151.3510 LP  0  0  0  0  0  0  0  0  0  0  0  0  # atno 17370 bound_to 10713
  157.7162  130.9500  150.1265 LP  0  0  0  0  0  0  0  0  0  0  0  0  # atno 17371 bound_to 10713
  140.2003  134.4263  155.7666 LP  0  0  0  0  0  0  0  0  0  0  0  0  # atno 17394 bound_to 11000
  141.2227  133.7069  156.8172 LP  0  0  0  0  0  0  0  0  0  0  0  0  # atno 17395 bound_to 11000

$$$$
