AV-unprocessed.smi:2528|AV-procd|sdf|9958|dock9
  -GOLD-   2272013593D 1   1.00000     0.00000
 Structure written by MMmdl.
 43 45  0  0  0  0  0  0  0  0  1 V2000
  144.5219  136.6476  152.7983 O   0  0  0  0  0  0  0  0  0  0  0  0
  145.7277  136.4775  152.6150 C   0  0  0  0  0  0  0  0  0  0  0  0
  146.6674  137.3295  153.0489 N   0  0  0  0  0  0  0  0  0  0  0  0
  146.4051  138.5521  153.8003 C   0  0  0  0  0  0  0  0  0  0  0  0
  147.1028  139.7737  153.1636 C   0  0  2  0  0  0  0  0  0  0  0  0
  148.6402  139.6864  153.2133 C   0  0  0  0  0  0  0  0  0  0  0  0
  149.1762  139.8997  154.5524 N   0  0  0  0  0  0  0  0  0  0  0  0
  150.6370  139.8355  154.5493 C   0  0  0  0  0  0  0  0  0  0  0  0
  151.2370  140.0247  155.9511 C   0  0  0  0  0  0  0  0  0  0  0  0
  150.7675  141.3559  156.5541 C   0  0  0  0  0  0  0  0  0  0  0  0
  149.2343  141.4403  156.5100 C   0  0  0  0  0  0  0  0  0  0  0  0
  148.7056  141.1822  155.0832 C   0  0  2  0  0  0  0  0  0  0  0  0
  147.1661  141.2580  155.0593 C   0  0  0  0  0  0  0  0  0  0  0  0
  146.6737  141.0065  153.7457 O   0  0  0  0  0  0  0  0  0  0  0  0
  146.2776  135.4338  151.9698 N   0  0  0  0  0  0  0  0  0  0  0  0
  145.6192  134.3326  151.3599 C   0  0  0  0  0  0  0  0  0  0  0  0
  146.4745  133.3784  150.7634 C   0  0  0  0  0  0  0  0  0  0  0  0
  145.9191  132.2489  150.1311 C   0  0  0  0  0  0  0  0  0  0  0  0
  144.5207  132.1028  150.1103 C   0  0  0  0  0  0  0  0  0  0  0  0
  143.7409  133.0982  150.7271 C   0  0  0  0  0  0  0  0  0  0  0  0
  144.2711  134.1812  151.3337 N   0  0  0  0  0  0  0  0  0  0  0  0
  147.6345  137.1123  152.8587 H   0  0  0  0  0  0  0  0  0  0  0  0
  145.3267  138.6986  153.8508 H   0  0  0  0  0  0  0  0  0  0  0  0
  146.7368  138.4281  154.8327 H   0  0  0  0  0  0  0  0  0  0  0  0
  146.8126  139.8100  152.1130 H   0  0  0  0  0  0  0  0  0  0  0  0
  148.9642  138.7173  152.8319 H   0  0  0  0  0  0  0  0  0  0  0  0
  149.0537  140.4350  152.5356 H   0  0  0  0  0  0  0  0  0  0  0  0
  150.9600  138.8728  154.1515 H   0  0  0  0  0  0  0  0  0  0  0  0
  151.0395  140.5964  153.8788 H   0  0  0  0  0  0  0  0  0  0  0  0
  150.9311  139.1994  156.5953 H   0  0  0  0  0  0  0  0  0  0  0  0
  152.3259  139.9968  155.9017 H   0  0  0  0  0  0  0  0  0  0  0  0
  151.1243  141.4562  157.5795 H   0  0  0  0  0  0  0  0  0  0  0  0
  151.1962  142.1848  155.9897 H   0  0  0  0  0  0  0  0  0  0  0  0
  148.8114  140.7072  157.1985 H   0  0  0  0  0  0  0  0  0  0  0  0
  148.9097  142.4199  156.8621 H   0  0  0  0  0  0  0  0  0  0  0  0
  149.0827  141.9798  154.4406 H   0  0  0  0  0  0  0  0  0  0  0  0
  146.7288  140.5520  155.7656 H   0  0  0  0  0  0  0  0  0  0  0  0
  146.8324  142.2496  155.3661 H   0  0  0  0  0  0  0  0  0  0  0  0
  147.2847  135.4270  151.9066 H   0  0  0  0  0  0  0  0  0  0  0  0
  147.5471  133.5064  150.7886 H   0  0  0  0  0  0  0  0  0  0  0  0
  146.5559  131.5083  149.6702 H   0  0  0  0  0  0  0  0  0  0  0  0
  144.0574  131.2510  149.6344 H   0  0  0  0  0  0  0  0  0  0  0  0
  142.6635  133.0242  150.7335 H   0  0  0  0  0  0  0  0  0  0  0  0
  1  2  2  0  0  0  0
  2  3  1  0  0  0  0
  2 15  1  0  0  0  0
  3  4  1  0  0  0  0
  3 22  1  0  0  0  0
  4  5  1  0  0  0  0
  4 23  1  0  0  0  0
  4 24  1  0  0  0  0
  5 14  1  0  0  0  0
  5  6  1  0  0  0  0
  5 25  1  0  0  0  0
  6  7  1  0  0  0  0
  6 26  1  0  0  0  0
  6 27  1  0  0  0  0
  7 12  1  0  0  0  0
  7  8  1  0  0  0  0
  8  9  1  0  0  0  0
  8 28  1  0  0  0  0
  8 29  1  0  0  0  0
  9 10  1  0  0  0  0
  9 30  1  0  0  0  0
  9 31  1  0  0  0  0
 10 11  1  0  0  0  0
 10 32  1  0  0  0  0
 10 33  1  0  0  0  0
 11 12  1  0  0  0  0
 11 34  1  0  0  0  0
 11 35  1  0  0  0  0
 12 13  1  0  0  0  0
 12 36  1  0  0  0  0
 13 14  1  0  0  0  0
 13 37  1  0  0  0  0
 13 38  1  0  0  0  0
 15 16  1  0  0  0  0
 15 39  1  0  0  0  0
 16 21  1  0  0  0  0
 16 17  2  0  0  0  0
 17 18  1  0  0  0  0
 17 40  1  0  0  0  0
 18 19  2  0  0  0  0
 18 41  1  0  0  0  0
 19 20  1  0  0  0  0
 19 42  1  0  0  0  0
 20 21  2  0  0  0  0
 20 43  1  0  0  0  0
M  END
> <s_m_source_file>
AV-unprocessed.smi

> <i_m_source_file_index>
2528

> <i_lp_mmshare_version>
43012

> <i_f3d_flags>
0

> <s_epik_input>
bjFbY0hdW2NIXVtjSF1bY0hdYzFbTkhdQyg9TylbTkhdW0NIMl1bQ0BIXShbQ0gyXTIpT1tDSDJdW0NAQEhdKE4yMylbQ0gyXVtDSDJdW0NIMl1bQ0gyXTM=

> <s_epik_cmdline>
J2VwaWtfcHl0aG9uJywgJy1waCcsICc3LjAnLCAnLXRuJywgJzgnLCAnLW1hJywgJzIwMCcsICctbWV0YWxfYmluZGluZycsICctaW1hZScsICc8aW5maWxlLm1hZT4nLCAnLW9tYWUnLCAnPG91dGZpbGUubWFlPic=

> <r_epik_Ionization_Penalty>
1.14192

> <r_epik_Ionization_Penalty_Charging>
0

> <r_epik_Ionization_Penalty_Neutral>
1.14192

> <r_epik_State_Penalty>
1.20248

> <r_epik_Charging_Adjusted_Penalty>
1.20248

> <i_epik_Tot_Q>
0

> <i_epik_Tot_abs_Q>
0

> <r_epik_Metal_State_Penalty>
1.20248

> <b_epik_Metal_Only>
0

> <s_lp_Force_Field>
OPLS_2005

> <r_lp_Energy>
38.2617

> <b_lp_Chiralities_Consistent>
1

> <s_lp_Variant>
AV-unprocessed.smi:2528-11

> <Gold.Version>
5.8.1

> <Gold.Id.Protein>
6NUR|6NUR_protein|mol2

> <Gold.PLP.Fitness>
40.2646

> <Gold.PLP.PLP>
-31.4226

> <Gold.PLP.part.hbond>
-2.0000

> <Gold.PLP.part.metal>
0.0000

> <Gold.PLP.part.buried>
1.8700

> <Gold.PLP.part.nonpolar>
-32.6942

> <Gold.PLP.part.repulsive>
0.6446

> <Gold.PLP.ligand.clash>
0.0000

> <Gold.PLP.ligand.torsion>
0.0678

> <Gold.PLP.Chemscore.Hbond>
2.0000

> <Gold.PLP.Chemscore.CHOScore>
0.9904

> <Gold.PLP.Chemscore.Metal>
0.0000

> <Gold.Chemscore.Hbonds>
donor molecule, donor type, donor heavy atom, donor atom, acceptor molecule, acceptor atom, score
      L1  H     3    22       P1  7948  1.00
      L1  H    15    39       P1  7948  1.00
      L1  C    20    43       P1 10186  0.99

> <Gold.PLP.Chemscore.Internal.Correction>
0.0064

> <Gold.Rescore>
     Score         DG    S(hbond)    S(metal)    S(lipo)     H(rot)  DE(clash)    DE(int)     intcor
     16.09     -19.15       1.87        0.00      91.09       1.27       1.70       1.35       ----

> <Gold.Chemscore.Fitness>
16.0908

> <Gold.Chemscore.DG>
-19.1451

> <Gold.Chemscore.ZeroCoef>
-5.4800

> <Gold.Chemscore.Hbond>
1.8735

> <Gold.Chemscore.Metal>
0.0000

> <Gold.Chemscore.Lipo>
91.0930

> <Gold.Chemscore.Internal_Hbond>
0.0000

> <Gold.Chemscore.DEClash>
1.7013

> <Gold.Chemscore.DEInternal>
1.3530

> <Gold.Chemscore.Rot>
1.2696

> <Gold.Chemscore.Internal.Correction>
   9.000000E+99

> <Gold.Chemscore.Hbonds>
donor molecule, donor type, donor heavy atom, donor atom, acceptor molecule, acceptor atom, score
      L1  H     3    22       P1  7948  0.95
      L1  H    15    39       P1  7948  0.98

> <Gold.Chemscore.Hbond.Weighted>
-6.2574

> <Gold.Chemscore.Metal.Weighted>
-0.0000

> <Gold.Chemscore.Lipo.Weighted>
-10.6579

> <Gold.Chemscore.Internal_Hbond.Weighted>
0.0000

> <Gold.Chemscore.DEClash.Weighted>
1.7013

> <Gold.Chemscore.DEInternal.Weighted>
1.3530

> <Gold.Chemscore.Rot.Weighted>
3.2502

> <Gold.Chemscore.Internal.Correction.Weighted>
   9.000000E+99

> <Gold.Protein.RotatedTorsions>
[ 6907 6896 6895 6894 ] final  145.54 input  -60.11 | X-H torsion
[ 7974 7965 7964 7962 ] final  124.16 input  175.53 | X-H torsion
[ 8008 7997 7996 7995 ] final -167.38 input   59.86 | X-H torsion
[ 10167 10162 10161 10158 ] final -132.67 input  -65.29 | X-H torsion
[ 10718 10713 10712 10709 ] final  -11.04 input   66.30 | X-H torsion
[ 10763 10752 10751 10750 ] final -142.04 input  -60.55 | X-H torsion
[ 11005 11000 10999 10996 ] final -166.21 input  -57.11 | X-H torsion

> <Gold.Protein.ActiveResidues>
 VAL166  LYS551  ARG553  GLY616  TRP617  ASP618  TYR619  PRO620  LYS621  CYS622 
 ASP623  PHE694  ASN695  SER759  ASP760  ASP761  ALA762  ILE779  LEU786  VAL792 
 PHE793  MET794  SER795  GLU796  ALA797  LYS798  CYS799  TRP800  GLU811  SER814 

> <Gold.Protein.RotatedAtoms>
  152.1796  133.4698  159.4950 H   0  0  0  0  0  0  0  0  0  0  0  0  # atno 6907 bound_to 6896
  150.6932  134.1850  159.4272 H   0  0  0  0  0  0  0  0  0  0  0  0  # atno 6908 bound_to 6896
  151.9761  135.0052  160.0606 H   0  0  0  0  0  0  0  0  0  0  0  0  # atno 6909 bound_to 6896
  145.0875  139.3611  143.4877 H   0  0  0  0  0  0  0  0  0  0  0  0  # atno 7974 bound_to 7965
  155.8769  140.1002  157.1512 H   0  0  0  0  0  0  0  0  0  0  0  0  # atno 8008 bound_to 7997
  154.4002  140.1336  156.4211 H   0  0  0  0  0  0  0  0  0  0  0  0  # atno 8009 bound_to 7997
  155.7687  140.3461  155.5238 H   0  0  0  0  0  0  0  0  0  0  0  0  # atno 8010 bound_to 7997
  139.9062  143.6549  152.2585 H   0  0  0  0  0  0  0  0  0  0  0  0  # atno 10167 bound_to 10162
  156.6648  130.4992  149.6019 H   0  0  0  0  0  0  0  0  0  0  0  0  # atno 10718 bound_to 10713
  154.8523  135.3507  154.5964 H   0  0  0  0  0  0  0  0  0  0  0  0  # atno 10763 bound_to 10752
  153.6573  135.6991  153.5193 H   0  0  0  0  0  0  0  0  0  0  0  0  # atno 10764 bound_to 10752
  153.2845  135.4253  155.1068 H   0  0  0  0  0  0  0  0  0  0  0  0  # atno 10765 bound_to 10752
  140.5670  134.5276  157.5154 H   0  0  0  0  0  0  0  0  0  0  0  0  # atno 11005 bound_to 11000
  146.3531  140.0694  142.8624 LP  0  0  0  0  0  0  0  0  0  0  0  0  # atno 17320 bound_to 7965
  145.1105  140.9402  143.4659 LP  0  0  0  0  0  0  0  0  0  0  0  0  # atno 17321 bound_to 7965
  139.6982  144.7638  151.1319 LP  0  0  0  0  0  0  0  0  0  0  0  0  # atno 17342 bound_to 10162
  140.7696  143.5494  150.9222 LP  0  0  0  0  0  0  0  0  0  0  0  0  # atno 17343 bound_to 10162
  156.1984  130.6604  151.1139 LP  0  0  0  0  0  0  0  0  0  0  0  0  # atno 17370 bound_to 10713
  157.7097  131.0740  150.6543 LP  0  0  0  0  0  0  0  0  0  0  0  0  # atno 17371 bound_to 10713
  139.9380  134.7839  156.0752 LP  0  0  0  0  0  0  0  0  0  0  0  0  # atno 17394 bound_to 11000
  141.1080  133.6653  156.2909 LP  0  0  0  0  0  0  0  0  0  0  0  0  # atno 17395 bound_to 11000

$$$$
