AV-unprocessed.smi:283|AV-procd|sdf|2126|dock4
  -GOLD-   2262021433D 1   1.00000     0.00000
 Structure written by MMmdl.
 48 51  0  0  0  0  0  0  0  0  1 V2000
  146.1978  133.3308  158.0819 C   0  0  0  0  0  0  0  0  0  0  0  0
  147.1822  132.8671  159.1709 C   0  0  1  0  0  0  0  0  0  0  0  0
  148.5232  132.6705  158.6213 N   0  0  0  0  0  0  0  0  0  0  0  0
  148.8449  133.0710  157.3711 C   0  0  0  0  0  0  0  0  0  0  0  0
  148.7127  132.2389  156.3048 N   0  0  0  0  0  0  0  0  0  0  0  0
  149.0422  132.6615  155.0803 C   0  0  0  0  0  0  0  0  0  0  0  0
  149.5169  133.8527  154.7077 N   0  0  0  0  0  0  0  0  0  0  0  0
  149.6560  134.6880  155.7774 C   0  0  0  0  0  0  0  0  0  0  0  0
  149.3441  134.3766  157.1294 C   0  0  0  0  0  0  0  0  0  0  0  0
  149.6101  135.4747  157.9374 N   0  0  0  0  0  0  0  0  0  0  0  0
  150.0527  136.3798  157.1057 C   0  0  0  0  0  0  0  0  0  0  0  0
  150.1120  135.9873  155.7849 N   0  0  0  0  0  0  0  0  0  0  0  0
  150.5564  136.7594  154.5849 C   0  0  2  0  0  0  0  0  0  0  0  0
  151.9352  136.9678  154.6959 O   0  0  0  0  0  0  0  0  0  0  0  0
  152.2335  138.3579  154.8119 C   0  0  2  0  0  0  0  0  0  0  0  0
  153.4278  138.5532  155.7589 C   0  0  0  0  0  0  0  0  0  0  0  0
  154.6020  138.0148  155.1898 O   0  0  0  0  0  0  0  0  0  0  0  0
  150.9235  138.9888  155.2891 C   0  0  1  0  0  0  0  0  0  0  0  0
  150.8064  140.3626  154.9730 O   0  0  0  0  0  0  0  0  0  0  0  0
  149.8776  138.1345  154.5881 C   0  0  1  0  0  0  0  0  0  0  0  0
  149.5988  138.5622  153.2672 O   0  0  0  0  0  0  0  0  0  0  0  0
  147.1644  133.8489  160.3416 C   0  0  0  0  0  0  0  0  0  0  0  0
  147.8013  135.1068  160.2196 C   0  0  0  0  0  0  0  0  0  0  0  0
  147.7875  136.0257  161.2858 C   0  0  0  0  0  0  0  0  0  0  0  0
  147.1307  135.7005  162.4858 C   0  0  0  0  0  0  0  0  0  0  0  0
  146.4830  134.4583  162.6146 C   0  0  0  0  0  0  0  0  0  0  0  0
  146.4924  133.5342  161.5505 C   0  0  0  0  0  0  0  0  0  0  0  0
  145.6624  132.0318  161.7617 Cl  0  0  0  0  0  0  0  0  0  0  0  0
  150.3018  136.1230  153.7360 H   0  0  0  0  0  0  0  0  0  0  0  0
  152.4791  138.7137  153.8094 H   0  0  0  0  0  0  0  0  0  0  0  0
  150.8249  138.8631  156.3684 H   0  0  0  0  0  0  0  0  0  0  0  0
  148.9360  138.1078  155.1390 H   0  0  0  0  0  0  0  0  0  0  0  0
  145.1894  133.4299  158.4845 H   0  0  0  0  0  0  0  0  0  0  0  0
  146.1457  132.6258  157.2525 H   0  0  0  0  0  0  0  0  0  0  0  0
  146.4881  134.2996  157.6743 H   0  0  0  0  0  0  0  0  0  0  0  0
  146.8527  131.9010  159.5506 H   0  0  0  0  0  0  0  0  0  0  0  0
  149.2060  132.2977  159.2651 H   0  0  0  0  0  0  0  0  0  0  0  0
  148.9064  131.9421  154.2864 H   0  0  0  0  0  0  0  0  0  0  0  0
  150.3478  137.3637  157.4395 H   0  0  0  0  0  0  0  0  0  0  0  0
  153.5806  139.6076  155.9902 H   0  0  0  0  0  0  0  0  0  0  0  0
  153.2438  138.0399  156.7028 H   0  0  0  0  0  0  0  0  0  0  0  0
  154.8685  138.5674  154.4706 H   0  0  0  0  0  0  0  0  0  0  0  0
  150.1206  140.7322  155.5087 H   0  0  0  0  0  0  0  0  0  0  0  0
  149.3588  137.8068  152.7525 H   0  0  0  0  0  0  0  0  0  0  0  0
  148.3030  135.3810  159.3035 H   0  0  0  0  0  0  0  0  0  0  0  0
  148.2795  136.9816  161.1814 H   0  0  0  0  0  0  0  0  0  0  0  0
  147.1185  136.4047  163.3046 H   0  0  0  0  0  0  0  0  0  0  0  0
  145.9730  134.2149  163.5352 H   0  0  0  0  0  0  0  0  0  0  0  0
  1  2  1  0  0  0  0
  1 33  1  0  0  0  0
  1 34  1  0  0  0  0
  1 35  1  0  0  0  0
  2  3  1  0  0  0  0
  2 22  1  0  0  0  0
  2 36  1  0  0  0  0
  3  4  1  0  0  0  0
  3 37  1  0  0  0  0
  4  9  1  0  0  0  0
  4  5  2  0  0  0  0
  5  6  1  0  0  0  0
  6  7  2  0  0  0  0
  6 38  1  0  0  0  0
  7  8  1  0  0  0  0
  8 12  1  0  0  0  0
  8  9  2  0  0  0  0
  9 10  1  0  0  0  0
 10 11  2  0  0  0  0
 11 12  1  0  0  0  0
 11 39  1  0  0  0  0
 12 13  1  0  0  0  0
 13 29  1  0  0  0  0
 13 20  1  0  0  0  0
 13 14  1  0  0  0  0
 14 15  1  0  0  0  0
 15 30  1  0  0  0  0
 15 16  1  0  0  0  0
 15 18  1  0  0  0  0
 16 17  1  0  0  0  0
 16 40  1  0  0  0  0
 16 41  1  0  0  0  0
 17 42  1  0  0  0  0
 18 31  1  0  0  0  0
 18 19  1  0  0  0  0
 18 20  1  0  0  0  0
 19 43  1  0  0  0  0
 20 32  1  0  0  0  0
 20 21  1  0  0  0  0
 21 44  1  0  0  0  0
 22 27  1  0  0  0  0
 22 23  2  0  0  0  0
 23 24  1  0  0  0  0
 23 45  1  0  0  0  0
 24 25  2  0  0  0  0
 24 46  1  0  0  0  0
 25 26  1  0  0  0  0
 25 47  1  0  0  0  0
 26 27  2  0  0  0  0
 26 48  1  0  0  0  0
 27 28  1  0  0  0  0
M  END
> <s_m_source_file>
AV-unprocessed.smi

> <i_m_source_file_index>
283

> <i_lp_mmshare_version>
43012

> <i_f3d_flags>
0

> <s_epik_input>
Q2xjMVtjSF1bY0hdW2NIXVtjSF1jMVtDQEhdKFtDSDNdKVtOSF1jKG5bY0hdbjIpYyhjMjMpbltjSF1uM1tDQEBIXTRPW0NASF0oW0NIMl1bT0hdKVtDQEBIXShbT0hdKVtDQEhdNFtPSF0=

> <s_epik_cmdline>
J2VwaWtfcHl0aG9uJywgJy1waCcsICc3LjAnLCAnLXRuJywgJzgnLCAnLW1hJywgJzIwMCcsICctbWV0YWxfYmluZGluZycsICctaW1hZScsICc8aW5maWxlLm1hZT4nLCAnLW9tYWUnLCAnPG91dGZpbGUubWFlPic=

> <r_lp_tautomer_probability>
1

> <r_epik_Ionization_Penalty>
0.000266407

> <r_epik_Ionization_Penalty_Charging>
0

> <r_epik_Ionization_Penalty_Neutral>
0.000266407

> <r_epik_State_Penalty>
-0

> <r_epik_Charging_Adjusted_Penalty>
0

> <i_epik_Tot_Q>
0

> <i_epik_Tot_abs_Q>
0

> <r_epik_Metal_State_Penalty>
-0

> <b_epik_Metal_Only>
0

> <s_epik_Chemistry_Notes>
This compound contains an acetal/aminal-like group ( X-CH(R)-Y where X, Y are N, S, or O) that may be acid/base labile, releasing an aldehyde.

> <s_lp_Force_Field>
OPLS_2005

> <r_lp_Energy>
43.9323

> <b_lp_Chiralities_Consistent>
1

> <s_lp_Variant>
AV-unprocessed.smi:283-2

> <Gold.Version>
5.8.1

> <Gold.Id.Protein>
6NUR|6NUR_protein|mol2

> <Gold.PLP.Fitness>
51.1603

> <Gold.PLP.PLP>
-41.7798

> <Gold.PLP.part.hbond>
-6.9117

> <Gold.PLP.part.metal>
0.0000

> <Gold.PLP.part.buried>
-3.1093

> <Gold.PLP.part.nonpolar>
-34.3066

> <Gold.PLP.part.repulsive>
0.3234

> <Gold.PLP.ligand.clash>
0.0000

> <Gold.PLP.ligand.torsion>
1.3290

> <Gold.PLP.Chemscore.Hbond>
3.9840

> <Gold.PLP.Chemscore.CHOScore>
0.0000

> <Gold.PLP.Chemscore.Metal>
0.0000

> <Gold.Chemscore.Hbonds>
donor molecule, donor type, donor heavy atom, donor atom, acceptor molecule, acceptor atom, score
      L1  H    21    44       P1  7948  1.00
      P1  H  6896  6909       L1    10  0.76
      P1  H  7989  7998       L1    19  1.00
      P1  H 10752 10763       L1    14  1.00

> <Gold.PLP.Chemscore.Internal.Correction>
0.0864

> <Gold.Rescore>
     Score         DG    S(hbond)    S(metal)    S(lipo)     H(rot)  DE(clash)    DE(int)     intcor
     15.15     -17.12       3.41        0.00      91.72       4.10       0.63       1.33       ----

> <Gold.Chemscore.Fitness>
15.1540

> <Gold.Chemscore.DG>
-17.1172

> <Gold.Chemscore.ZeroCoef>
-5.4800

> <Gold.Chemscore.Hbond>
3.4113

> <Gold.Chemscore.Metal>
0.0000

> <Gold.Chemscore.Lipo>
91.7225

> <Gold.Chemscore.Internal_Hbond>
0.0000

> <Gold.Chemscore.DEClash>
0.6305

> <Gold.Chemscore.DEInternal>
1.3327

> <Gold.Chemscore.Rot>
4.0968

> <Gold.Chemscore.Internal.Correction>
   9.000000E+99

> <Gold.Chemscore.Hbonds>
donor molecule, donor type, donor heavy atom, donor atom, acceptor molecule, acceptor atom, score
      L1  H    21    44       P1  7948  0.91
      P1  H  6896  6909       L1    10  0.26
      P1  H  7989  7998       L1    19  0.91
      P1  H 10752 10763       L1    14  0.91

> <Gold.Chemscore.Hbond.Weighted>
-11.3936

> <Gold.Chemscore.Metal.Weighted>
-0.0000

> <Gold.Chemscore.Lipo.Weighted>
-10.7315

> <Gold.Chemscore.Internal_Hbond.Weighted>
0.0000

> <Gold.Chemscore.DEClash.Weighted>
0.6305

> <Gold.Chemscore.DEInternal.Weighted>
1.3327

> <Gold.Chemscore.Rot.Weighted>
10.4879

> <Gold.Chemscore.Internal.Correction.Weighted>
   9.000000E+99

> <Gold.Protein.RotatedTorsions>
[ 6907 6896 6895 6894 ] final   50.24 input  -60.11 | X-H torsion
[ 7974 7965 7964 7962 ] final   76.42 input  175.53 | X-H torsion
[ 8008 7997 7996 7995 ] final  -24.85 input   59.86 | X-H torsion
[ 10167 10162 10161 10158 ] final -142.77 input  -65.29 | X-H torsion
[ 10718 10713 10712 10709 ] final   64.84 input   66.30 | X-H torsion
[ 10763 10752 10751 10750 ] final   48.68 input  -60.55 | X-H torsion
[ 11005 11000 10999 10996 ] final   27.73 input  -57.11 | X-H torsion

> <Gold.Protein.ActiveResidues>
 VAL166  LYS551  ARG553  GLY616  TRP617  ASP618  TYR619  PRO620  LYS621  CYS622 
 ASP623  PHE694  ASN695  SER759  ASP760  ASP761  ALA762  ILE779  LEU786  VAL792 
 PHE793  MET794  SER795  GLU796  ALA797  LYS798  CYS799  TRP800  GLU811  SER814 

> <Gold.Protein.RotatedAtoms>
  152.2996  134.7627  160.0360 H   0  0  0  0  0  0  0  0  0  0  0  0  # atno 6907 bound_to 6896
  151.8144  133.3381  159.3573 H   0  0  0  0  0  0  0  0  0  0  0  0  # atno 6908 bound_to 6896
  150.7267  134.5562  159.5864 H   0  0  0  0  0  0  0  0  0  0  0  0  # atno 6909 bound_to 6896
  145.7031  139.2589  143.1694 H   0  0  0  0  0  0  0  0  0  0  0  0  # atno 7974 bound_to 7965
  154.4507  140.1942  156.0528 H   0  0  0  0  0  0  0  0  0  0  0  0  # atno 8008 bound_to 7997
  156.0641  140.3293  155.7469 H   0  0  0  0  0  0  0  0  0  0  0  0  # atno 8009 bound_to 7997
  155.5366  140.0582  157.2869 H   0  0  0  0  0  0  0  0  0  0  0  0  # atno 8010 bound_to 7997
  139.8056  143.7773  152.2661 H   0  0  0  0  0  0  0  0  0  0  0  0  # atno 10167 bound_to 10162
  157.6066  130.9182  149.9899 H   0  0  0  0  0  0  0  0  0  0  0  0  # atno 10718 bound_to 10713
  152.9790  135.5936  154.3966 H   0  0  0  0  0  0  0  0  0  0  0  0  # atno 10763 bound_to 10752
  154.3616  135.2767  155.2319 H   0  0  0  0  0  0  0  0  0  0  0  0  # atno 10764 bound_to 10752
  154.4313  135.6035  153.6125 H   0  0  0  0  0  0  0  0  0  0  0  0  # atno 10765 bound_to 10752
  140.3231  134.2521  155.7714 H   0  0  0  0  0  0  0  0  0  0  0  0  # atno 11005 bound_to 11000
  146.0780  140.7795  142.9655 LP  0  0  0  0  0  0  0  0  0  0  0  0  # atno 17320 bound_to 7965
  144.6963  140.3445  143.7193 LP  0  0  0  0  0  0  0  0  0  0  0  0  # atno 17321 bound_to 7965
  139.7906  144.7411  150.9960 LP  0  0  0  0  0  0  0  0  0  0  0  0  # atno 17342 bound_to 10162
  140.7819  143.4446  151.0501 LP  0  0  0  0  0  0  0  0  0  0  0  0  # atno 17343 bound_to 10162
  156.1155  130.3648  149.9976 LP  0  0  0  0  0  0  0  0  0  0  0  0  # atno 17370 bound_to 10713
  156.8066  130.9309  151.3645 LP  0  0  0  0  0  0  0  0  0  0  0  0  # atno 17371 bound_to 10713
  141.2082  133.7785  157.0075 LP  0  0  0  0  0  0  0  0  0  0  0  0  # atno 17394 bound_to 11000
  140.0925  134.9584  157.1798 LP  0  0  0  0  0  0  0  0  0  0  0  0  # atno 17395 bound_to 11000

$$$$
