AV-unprocessed.smi:40|AV-procd|sdf|368|dock4
  -GOLD-   2262016213D 1   1.00000     0.00000
 Structure written by MMmdl.
 47 48  0  0  0  0  0  0  0  0  1 V2000
  151.5178  145.1451  159.8275 C   0  0  0  0  0  0  0  0  0  0  0  0
  152.2086  144.5466  158.5950 C   0  0  0  0  0  0  0  0  0  0  0  0
  152.2290  143.0092  158.5811 C   0  0  0  0  0  0  0  0  0  0  0  0
  153.0117  142.3894  159.7527 C   0  0  0  0  0  0  0  0  0  0  0  0
  153.4000  140.9252  159.5073 C   0  0  0  0  0  0  0  0  0  0  0  0
  152.6964  140.4289  158.3808 O   0  0  0  0  0  0  0  0  0  0  0  0
  152.0600  139.2456  158.4415 C   0  0  0  0  0  0  0  0  0  0  0  0
  152.0511  138.5205  159.4359 O   0  0  0  0  0  0  0  0  0  0  0  0
  151.4204  138.9131  157.1783 N   0  0  0  0  0  0  0  0  0  0  0  0
  150.6915  137.8196  156.8429 C   0  0  0  0  0  0  0  0  0  0  0  0
  150.4434  136.8332  157.6908 N   0  0  0  0  0  0  0  0  0  0  0  0
  149.7260  135.7118  157.3729 C   0  0  0  0  0  0  0  0  0  0  0  0
  149.5350  134.8279  158.2072 O   0  0  0  0  0  0  0  0  0  0  0  0
  149.2267  135.6115  156.0536 N   0  0  0  0  0  0  0  0  0  0  0  0
  148.4374  134.3748  155.6754 C   0  0  1  0  0  0  0  0  0  0  0  0
  147.9886  134.4939  154.3550 O   0  0  0  0  0  0  0  0  0  0  0  0
  148.6293  133.5261  153.5295 C   0  0  2  0  0  0  0  0  0  0  0  0
  147.7367  133.1841  152.3314 C   0  0  0  0  0  0  0  0  0  0  0  0
  148.8705  132.3604  154.4856 C   0  0  1  0  0  0  0  0  0  0  0  0
  149.8521  131.4556  154.0161 O   0  0  0  0  0  0  0  0  0  0  0  0
  149.2639  133.0708  155.7763 C   0  0  1  0  0  0  0  0  0  0  0  0
  150.6648  133.2892  155.8620 O   0  0  0  0  0  0  0  0  0  0  0  0
  149.4934  136.6225  155.1418 C   0  0  0  0  0  0  0  0  0  0  0  0
  150.2061  137.7175  155.4829 C   0  0  0  0  0  0  0  0  0  0  0  0
  150.4540  138.6831  154.5810 F   0  0  0  0  0  0  0  0  0  0  0  0
  147.5525  134.3719  156.3139 H   0  0  0  0  0  0  0  0  0  0  0  0
  149.5823  133.9305  153.1852 H   0  0  0  0  0  0  0  0  0  0  0  0
  147.9366  131.8199  154.6470 H   0  0  0  0  0  0  0  0  0  0  0  0
  148.9506  132.5074  156.6558 H   0  0  0  0  0  0  0  0  0  0  0  0
  151.5832  146.2333  159.8156 H   0  0  0  0  0  0  0  0  0  0  0  0
  151.9847  144.7957  160.7487 H   0  0  0  0  0  0  0  0  0  0  0  0
  150.4611  144.8817  159.8639 H   0  0  0  0  0  0  0  0  0  0  0  0
  151.7339  144.9194  157.6866 H   0  0  0  0  0  0  0  0  0  0  0  0
  153.2369  144.9085  158.5675 H   0  0  0  0  0  0  0  0  0  0  0  0
  151.1980  142.6549  158.6188 H   0  0  0  0  0  0  0  0  0  0  0  0
  152.6351  142.6550  157.6329 H   0  0  0  0  0  0  0  0  0  0  0  0
  153.9231  142.9606  159.9269 H   0  0  0  0  0  0  0  0  0  0  0  0
  152.4249  142.4608  160.6693 H   0  0  0  0  0  0  0  0  0  0  0  0
  154.4749  140.8390  159.3434 H   0  0  0  0  0  0  0  0  0  0  0  0
  153.1526  140.3262  160.3847 H   0  0  0  0  0  0  0  0  0  0  0  0
  151.5108  139.6299  156.4730 H   0  0  0  0  0  0  0  0  0  0  0  0
  148.2007  132.4245  151.7021 H   0  0  0  0  0  0  0  0  0  0  0  0
  147.5604  134.0657  151.7150 H   0  0  0  0  0  0  0  0  0  0  0  0
  146.7672  132.8042  152.6554 H   0  0  0  0  0  0  0  0  0  0  0  0
  150.6640  131.9263  153.9041 H   0  0  0  0  0  0  0  0  0  0  0  0
  151.0477  133.0990  155.0195 H   0  0  0  0  0  0  0  0  0  0  0  0
  149.1367  136.5523  154.1256 H   0  0  0  0  0  0  0  0  0  0  0  0
  1  2  1  0  0  0  0
  1 30  1  0  0  0  0
  1 31  1  0  0  0  0
  1 32  1  0  0  0  0
  2  3  1  0  0  0  0
  2 33  1  0  0  0  0
  2 34  1  0  0  0  0
  3  4  1  0  0  0  0
  3 35  1  0  0  0  0
  3 36  1  0  0  0  0
  4  5  1  0  0  0  0
  4 37  1  0  0  0  0
  4 38  1  0  0  0  0
  5  6  1  0  0  0  0
  5 39  1  0  0  0  0
  5 40  1  0  0  0  0
  6  7  1  0  0  0  0
  7  8  2  0  0  0  0
  7  9  1  0  0  0  0
  9 10  1  0  0  0  0
  9 41  1  0  0  0  0
 10 24  1  0  0  0  0
 10 11  2  0  0  0  0
 11 12  1  0  0  0  0
 12 13  2  0  0  0  0
 12 14  1  0  0  0  0
 14 15  1  0  0  0  0
 14 23  1  0  0  0  0
 15 26  1  0  0  0  0
 15 21  1  0  0  0  0
 15 16  1  0  0  0  0
 16 17  1  0  0  0  0
 17 27  1  0  0  0  0
 17 18  1  0  0  0  0
 17 19  1  0  0  0  0
 18 42  1  0  0  0  0
 18 43  1  0  0  0  0
 18 44  1  0  0  0  0
 19 28  1  0  0  0  0
 19 20  1  0  0  0  0
 19 21  1  0  0  0  0
 20 45  1  0  0  0  0
 21 29  1  0  0  0  0
 21 22  1  0  0  0  0
 22 46  1  0  0  0  0
 23 24  2  0  0  0  0
 23 47  1  0  0  0  0
 24 25  1  0  0  0  0
M  END
> <s_m_source_file>
AV-unprocessed.smi

> <i_m_source_file_index>
40

> <i_lp_mmshare_version>
43012

> <i_f3d_flags>
0

> <s_epik_input>
W0NIM11bQ0gyXVtDSDJdW0NIMl1bQ0gyXU9DKD1PKVtOSF1jMW5jKD1PKW4oW2NIXWMxRilbQ0BASF0yT1tDQEhdKFtDSDNdKVtDQEBIXShbT0hdKVtDQEhdMltPSF0=

> <s_epik_cmdline>
J2VwaWtfcHl0aG9uJywgJy1waCcsICc3LjAnLCAnLXRuJywgJzgnLCAnLW1hJywgJzIwMCcsICctbWV0YWxfYmluZGluZycsICctaW1hZScsICc8aW5maWxlLm1hZT4nLCAnLW9tYWUnLCAnPG91dGZpbGUubWFlPic=

> <r_lp_tautomer_probability>
1

> <r_epik_Ionization_Penalty>
2.29506e-06

> <r_epik_Ionization_Penalty_Charging>
8.26867e-09

> <r_epik_Ionization_Penalty_Neutral>
2.2868e-06

> <r_epik_State_Penalty>
-0

> <r_epik_Charging_Adjusted_Penalty>
8.26867e-09

> <i_epik_Tot_Q>
0

> <i_epik_Tot_abs_Q>
0

> <r_epik_Metal_State_Penalty>
-0

> <b_epik_Metal_Only>
0

> <s_epik_Chemistry_Notes>
This compound has an ester and may undergo hydrolysis at high or low pH. This compound contains an acetal/aminal-like group ( X-CH(R)-Y where X, Y are N, S, or O) that may be acid/base labile, releasing an aldehyde.

> <s_lp_Force_Field>
OPLS_2005

> <r_lp_Energy>
42.3286

> <b_lp_Chiralities_Consistent>
1

> <s_lp_Variant>
AV-unprocessed.smi:40-2

> <Gold.Version>
5.8.1

> <Gold.Id.Protein>
6NUR|6NUR_protein|mol2

> <Gold.PLP.Fitness>
42.2477

> <Gold.PLP.PLP>
-37.6415

> <Gold.PLP.part.hbond>
-1.7644

> <Gold.PLP.part.metal>
0.0000

> <Gold.PLP.part.buried>
-2.5011

> <Gold.PLP.part.nonpolar>
-32.1963

> <Gold.PLP.part.repulsive>
0.1724

> <Gold.PLP.ligand.clash>
0.0000

> <Gold.PLP.ligand.torsion>
0.7794

> <Gold.PLP.Chemscore.Hbond>
1.0000

> <Gold.PLP.Chemscore.CHOScore>
1.0000

> <Gold.PLP.Chemscore.Metal>
0.0000

> <Gold.Chemscore.Hbonds>
donor molecule, donor type, donor heavy atom, donor atom, acceptor molecule, acceptor atom, score
      P1  H  6896  6909       L1    13  1.00
      L1  C    23    47       P1  7948  1.00

> <Gold.PLP.Chemscore.Internal.Correction>
0.1650

> <Gold.Rescore>
     Score         DG    S(hbond)    S(metal)    S(lipo)     H(rot)  DE(clash)    DE(int)     intcor
      7.43      -9.69       1.00        0.00      88.42       3.70       0.11       2.15       ----

> <Gold.Chemscore.Fitness>
7.4314

> <Gold.Chemscore.DG>
-9.6950

> <Gold.Chemscore.ZeroCoef>
-5.4800

> <Gold.Chemscore.Hbond>
0.9971

> <Gold.Chemscore.Metal>
0.0000

> <Gold.Chemscore.Lipo>
88.4250

> <Gold.Chemscore.Internal_Hbond>
0.0000

> <Gold.Chemscore.DEClash>
0.1096

> <Gold.Chemscore.DEInternal>
2.1539

> <Gold.Chemscore.Rot>
3.6957

> <Gold.Chemscore.Internal.Correction>
   9.000000E+99

> <Gold.Chemscore.Hbonds>
donor molecule, donor type, donor heavy atom, donor atom, acceptor molecule, acceptor atom, score
      P1  H  6896  6909       L1    13  0.96

> <Gold.Chemscore.Hbond.Weighted>
-3.3302

> <Gold.Chemscore.Metal.Weighted>
-0.0000

> <Gold.Chemscore.Lipo.Weighted>
-10.3457

> <Gold.Chemscore.Internal_Hbond.Weighted>
0.0000

> <Gold.Chemscore.DEClash.Weighted>
0.1096

> <Gold.Chemscore.DEInternal.Weighted>
2.1539

> <Gold.Chemscore.Rot.Weighted>
9.4610

> <Gold.Chemscore.Internal.Correction.Weighted>
   9.000000E+99

> <Gold.Protein.RotatedTorsions>
[ 6907 6896 6895 6894 ] final   48.17 input  -60.11 | X-H torsion
[ 7974 7965 7964 7962 ] final  172.06 input  175.53 | X-H torsion
[ 8008 7997 7996 7995 ] final   45.80 input   59.86 | X-H torsion
[ 10167 10162 10161 10158 ] final  -54.65 input  -65.29 | X-H torsion
[ 10718 10713 10712 10709 ] final -125.22 input   66.30 | X-H torsion
[ 10763 10752 10751 10750 ] final   76.99 input  -60.55 | X-H torsion
[ 11005 11000 10999 10996 ] final -171.71 input  -57.11 | X-H torsion

> <Gold.Protein.ActiveResidues>
 VAL166  LYS551  ARG553  GLY616  TRP617  ASP618  TYR619  PRO620  LYS621  CYS622 
 ASP623  PHE694  ASN695  SER759  ASP760  ASP761  ALA762  ILE779  LEU786  VAL792 
 PHE793  MET794  SER795  GLU796  ALA797  LYS798  CYS799  TRP800  GLU811  SER814 

> <Gold.Protein.RotatedAtoms>
  152.2764  134.7876  160.0404 H   0  0  0  0  0  0  0  0  0  0  0  0  # atno 6907 bound_to 6896
  151.8471  133.3428  159.3669 H   0  0  0  0  0  0  0  0  0  0  0  0  # atno 6908 bound_to 6896
  150.7172  134.5263  159.5722 H   0  0  0  0  0  0  0  0  0  0  0  0  # atno 6909 bound_to 6896
  144.7278  139.9442  143.6429 H   0  0  0  0  0  0  0  0  0  0  0  0  # atno 7974 bound_to 7965
  155.3419  140.3408  155.4239 H   0  0  0  0  0  0  0  0  0  0  0  0  # atno 8008 bound_to 7997
  156.1809  140.1663  156.8312 H   0  0  0  0  0  0  0  0  0  0  0  0  # atno 8009 bound_to 7997
  154.5332  140.0740  156.8365 H   0  0  0  0  0  0  0  0  0  0  0  0  # atno 8010 bound_to 7997
  140.6419  143.2512  151.4967 H   0  0  0  0  0  0  0  0  0  0  0  0  # atno 10167 bound_to 10162
  156.1656  130.6632  151.0110 H   0  0  0  0  0  0  0  0  0  0  0  0  # atno 10718 bound_to 10713
  153.0765  135.4931  154.8416 H   0  0  0  0  0  0  0  0  0  0  0  0  # atno 10763 bound_to 10752
  154.7095  135.3017  154.9222 H   0  0  0  0  0  0  0  0  0  0  0  0  # atno 10764 bound_to 10752
  153.9920  135.6777  153.4807 H   0  0  0  0  0  0  0  0  0  0  0  0  # atno 10765 bound_to 10752
  140.5052  134.5855  157.5001 H   0  0  0  0  0  0  0  0  0  0  0  0  # atno 11005 bound_to 11000
  146.0761  139.3749  143.0493 LP  0  0  0  0  0  0  0  0  0  0  0  0  # atno 17320 bound_to 7965
  145.7903  140.9817  143.1052 LP  0  0  0  0  0  0  0  0  0  0  0  0  # atno 17321 bound_to 7965
  139.5628  144.2115  152.1718 LP  0  0  0  0  0  0  0  0  0  0  0  0  # atno 17342 bound_to 10162
  140.1388  144.5221  150.6757 LP  0  0  0  0  0  0  0  0  0  0  0  0  # atno 17343 bound_to 10162
  157.6765  131.0849  150.7481 LP  0  0  0  0  0  0  0  0  0  0  0  0  # atno 17370 bound_to 10713
  156.7542  130.4778  149.5450 LP  0  0  0  0  0  0  0  0  0  0  0  0  # atno 17371 bound_to 10713
  139.9690  134.7324  156.0079 LP  0  0  0  0  0  0  0  0  0  0  0  0  # atno 17394 bound_to 11000
  141.1415  133.6564  156.3742 LP  0  0  0  0  0  0  0  0  0  0  0  0  # atno 17395 bound_to 11000

$$$$
