AV-unprocessed.smi:2354|AV-procd|sdf|9384|dock2
  -GOLD-   2272013 13D 1   1.00000     0.00000
 Structure written by MMmdl.
 44 45  0  0  0  0  0  0  0  0  2 V2000
  141.4115  134.4646  153.1924 C   0  0  0  0  0  0  0  0  0  0  0  0
  142.8429  134.4683  153.5667 N   0  3  0  0  0  0  0  0  0  0  0  0
  143.0845  135.2714  154.7868 C   0  0  0  0  0  0  0  0  0  0  0  0
  143.7322  134.8359  152.4316 C   0  0  0  0  0  0  0  0  0  0  0  0
  145.1546  134.2221  152.5446 C   0  0  0  0  0  0  0  0  0  0  0  0
  145.8918  134.7080  153.8286 C   0  0  0  0  0  0  0  0  0  0  0  0
  146.9074  135.7279  153.5709 N   0  0  0  0  0  0  0  0  0  0  0  0
  146.9622  136.9364  154.1497 C   0  0  0  0  0  0  0  0  0  0  0  0
  146.1316  137.3380  154.9645 O   0  0  0  0  0  0  0  0  0  0  0  0
  148.0195  137.6389  153.7077 N   0  0  0  0  0  0  0  0  0  0  0  0
  148.3853  138.9723  154.0296 C   0  0  0  0  0  0  0  0  0  0  0  0
  147.4005  139.9508  154.3133 C   0  0  0  0  0  0  0  0  0  0  0  0
  147.8296  141.2458  154.6501 C   0  0  0  0  0  0  0  0  0  0  0  0
  149.2150  141.4757  154.6920 C   0  0  0  0  0  0  0  0  0  0  0  0
  150.1179  140.5064  154.4306 N   0  0  0  0  0  0  0  0  0  0  0  0
  149.7036  139.2753  154.1127 N   0  0  0  0  0  0  0  0  0  0  0  0
  145.0735  132.6827  152.4882 C   0  0  0  0  0  0  0  0  0  0  0  0
  146.4460  132.1996  152.0093 C   0  0  0  0  0  0  0  0  0  0  0  0
  147.0442  133.3678  151.2164 C   0  0  0  0  0  0  0  0  0  0  0  0
  146.0190  134.5059  151.3013 C   0  0  0  0  0  0  0  0  0  0  0  0
  141.0800  135.4629  152.9040 H   0  0  0  0  0  0  0  0  0  0  0  0
  140.7954  134.1265  154.0262 H   0  0  0  0  0  0  0  0  0  0  0  0
  141.2330  133.7876  152.3565 H   0  0  0  0  0  0  0  0  0  0  0  0
  142.8495  136.3227  154.6149 H   0  0  0  0  0  0  0  0  0  0  0  0
  144.1220  135.2031  155.1107 H   0  0  0  0  0  0  0  0  0  0  0  0
  142.4627  134.9157  155.6092 H   0  0  0  0  0  0  0  0  0  0  0  0
  143.2883  134.4991  151.4934 H   0  0  0  0  0  0  0  0  0  0  0  0
  143.7841  135.9222  152.3391 H   0  0  0  0  0  0  0  0  0  0  0  0
  145.1799  135.0643  154.5745 H   0  0  0  0  0  0  0  0  0  0  0  0
  146.3976  133.8681  154.3053 H   0  0  0  0  0  0  0  0  0  0  0  0
  147.6345  135.4896  152.9125 H   0  0  0  0  0  0  0  0  0  0  0  0
  148.5616  137.2120  152.9713 H   0  0  0  0  0  0  0  0  0  0  0  0
  146.3440  139.7306  154.2920 H   0  0  0  0  0  0  0  0  0  0  0  0
  147.1232  142.0319  154.8726 H   0  0  0  0  0  0  0  0  0  0  0  0
  149.6069  142.4494  154.9458 H   0  0  0  0  0  0  0  0  0  0  0  0
  144.7757  132.2214  153.4290 H   0  0  0  0  0  0  0  0  0  0  0  0
  144.3288  132.3818  151.7496 H   0  0  0  0  0  0  0  0  0  0  0  0
  147.0819  131.9680  152.8650 H   0  0  0  0  0  0  0  0  0  0  0  0
  146.3649  131.2930  151.4086 H   0  0  0  0  0  0  0  0  0  0  0  0
  147.9909  133.6733  151.6638 H   0  0  0  0  0  0  0  0  0  0  0  0
  147.2479  133.0945  150.1803 H   0  0  0  0  0  0  0  0  0  0  0  0
  145.3988  134.4726  150.4044 H   0  0  0  0  0  0  0  0  0  0  0  0
  146.4948  135.4871  151.3275 H   0  0  0  0  0  0  0  0  0  0  0  0
  143.0674  133.5117  153.8007 H   0  0  0  0  0  0  0  0  0  0  0  0
  1  2  1  0  0  0  0
  1 21  1  0  0  0  0
  1 22  1  0  0  0  0
  1 23  1  0  0  0  0
  2  3  1  0  0  0  0
  2  4  1  0  0  0  0
  2 44  1  0  0  0  0
  3 24  1  0  0  0  0
  3 25  1  0  0  0  0
  3 26  1  0  0  0  0
  4  5  1  0  0  0  0
  4 27  1  0  0  0  0
  4 28  1  0  0  0  0
  5 20  1  0  0  0  0
  5  6  1  0  0  0  0
  5 17  1  0  0  0  0
  6  7  1  0  0  0  0
  6 29  1  0  0  0  0
  6 30  1  0  0  0  0
  7  8  1  0  0  0  0
  7 31  1  0  0  0  0
  8  9  2  0  0  0  0
  8 10  1  0  0  0  0
 10 11  1  0  0  0  0
 10 32  1  0  0  0  0
 11 16  1  0  0  0  0
 11 12  2  0  0  0  0
 12 13  1  0  0  0  0
 12 33  1  0  0  0  0
 13 14  2  0  0  0  0
 13 34  1  0  0  0  0
 14 15  1  0  0  0  0
 14 35  1  0  0  0  0
 15 16  2  0  0  0  0
 17 18  1  0  0  0  0
 17 36  1  0  0  0  0
 17 37  1  0  0  0  0
 18 19  1  0  0  0  0
 18 38  1  0  0  0  0
 18 39  1  0  0  0  0
 19 20  1  0  0  0  0
 19 40  1  0  0  0  0
 19 41  1  0  0  0  0
 20 42  1  0  0  0  0
 20 43  1  0  0  0  0
M  CHG  1   2   1
M  END
> <s_m_source_file>
AV-unprocessed.smi

> <i_m_source_file_index>
2354

> <i_lp_mmshare_version>
43012

> <i_f3d_flags>
0

> <s_epik_input>
W0NIMl0xW0NIMl1bQ0gyXVtDSDJdQzEoW0NIMl1OKFtDSDNdKVtDSDNdKVtDSDJdW05IXUMoPU8pW05IXWMyW2NIXVtjSF1bY0hdbm4y

> <s_epik_cmdline>
J2VwaWtfcHl0aG9uJywgJy1waCcsICc3LjAnLCAnLXRuJywgJzgnLCAnLW1hJywgJzIwMCcsICctbWV0YWxfYmluZGluZycsICctaW1hZScsICc8aW5maWxlLm1hZT4nLCAnLW9tYWUnLCAnPG91dGZpbGUubWFlPic=

> <r_lp_tautomer_probability>
1

> <r_epik_Ionization_Penalty>
0.0045793

> <r_epik_Ionization_Penalty_Charging>
0.000516438

> <r_epik_Ionization_Penalty_Neutral>
0.00406287

> <r_epik_State_Penalty>
-0

> <r_epik_Charging_Adjusted_Penalty>
0.000516438

> <i_epik_Tot_Q>
1

> <i_epik_Tot_abs_Q>
1

> <r_epik_Metal_State_Penalty>
-0

> <b_epik_Metal_Only>
0

> <s_lp_Force_Field>
OPLS_2005

> <r_lp_Energy>
45.7912

> <b_lp_Chiralities_Consistent>
1

> <s_lp_Variant>
AV-unprocessed.smi:2354-1

> <Gold.Version>
5.8.1

> <Gold.Id.Protein>
6NUR|6NUR_protein|mol2

> <Gold.PLP.Fitness>
41.8752

> <Gold.PLP.PLP>
-27.9097

> <Gold.PLP.part.hbond>
-3.9675

> <Gold.PLP.part.metal>
0.0000

> <Gold.PLP.part.buried>
-5.5188

> <Gold.PLP.part.nonpolar>
-20.5243

> <Gold.PLP.part.repulsive>
0.8834

> <Gold.PLP.ligand.clash>
0.8529

> <Gold.PLP.ligand.torsion>
1.4130

> <Gold.PLP.Chemscore.Hbond>
4.7425

> <Gold.PLP.Chemscore.CHOScore>
1.0000

> <Gold.PLP.Chemscore.Metal>
0.0000

> <Gold.Chemscore.Hbonds>
donor molecule, donor type, donor heavy atom, donor atom, acceptor molecule, acceptor atom, score
      L1  H     2    44       P1 10957  1.95
      L1  H     7    31       P1  7948  0.88
      L1  H    10    32       P1  7948  0.98
      P1  H  7989  7998       L1    15  0.88
      L1  C    14    35       P1  8028  1.00

> <Gold.PLP.Chemscore.Internal.Correction>
0.4168

> <Gold.Rescore>
     Score         DG    S(hbond)    S(metal)    S(lipo)     H(rot)  DE(clash)    DE(int)     intcor
     16.79     -19.55       3.55        0.00      58.35       1.81       0.10       2.66       ----

> <Gold.Chemscore.Fitness>
16.7853

> <Gold.Chemscore.DG>
-19.5472

> <Gold.Chemscore.ZeroCoef>
-5.4800

> <Gold.Chemscore.Hbond>
3.5536

> <Gold.Chemscore.Metal>
0.0000

> <Gold.Chemscore.Lipo>
58.3487

> <Gold.Chemscore.Internal_Hbond>
0.0000

> <Gold.Chemscore.DEClash>
0.0980

> <Gold.Chemscore.DEInternal>
2.6639

> <Gold.Chemscore.Rot>
1.8080

> <Gold.Chemscore.Internal.Correction>
   9.000000E+99

> <Gold.Chemscore.Hbonds>
donor molecule, donor type, donor heavy atom, donor atom, acceptor molecule, acceptor atom, score
      L1  H     2    44       P1 10957  0.87
      L1  H     7    31       P1  7948  0.87
      L1  H    10    32       P1  7948  0.92
      P1  H  7989  7998       L1    15  0.59

> <Gold.Chemscore.Hbond.Weighted>
-11.8690

> <Gold.Chemscore.Metal.Weighted>
-0.0000

> <Gold.Chemscore.Lipo.Weighted>
-6.8268

> <Gold.Chemscore.Internal_Hbond.Weighted>
0.0000

> <Gold.Chemscore.DEClash.Weighted>
0.0980

> <Gold.Chemscore.DEInternal.Weighted>
2.6639

> <Gold.Chemscore.Rot.Weighted>
4.6286

> <Gold.Chemscore.Internal.Correction.Weighted>
   9.000000E+99

> <Gold.Protein.RotatedTorsions>
[ 6907 6896 6895 6894 ] final -148.12 input  -60.11 | X-H torsion
[ 7974 7965 7964 7962 ] final    5.14 input  175.53 | X-H torsion
[ 8008 7997 7996 7995 ] final  -59.80 input   59.86 | X-H torsion
[ 10167 10162 10161 10158 ] final   79.41 input  -65.29 | X-H torsion
[ 10718 10713 10712 10709 ] final -127.69 input   66.30 | X-H torsion
[ 10763 10752 10751 10750 ] final   -8.76 input  -60.55 | X-H torsion
[ 11005 11000 10999 10996 ] final  -55.68 input  -57.11 | X-H torsion

> <Gold.Protein.ActiveResidues>
 VAL166  LYS551  ARG553  GLY616  TRP617  ASP618  TYR619  PRO620  LYS621  CYS622 
 ASP623  PHE694  ASN695  SER759  ASP760  ASP761  ALA762  ILE779  LEU786  VAL792 
 PHE793  MET794  SER795  GLU796  ALA797  LYS798  CYS799  TRP800  GLU811  SER814 

> <Gold.Protein.RotatedAtoms>
  151.1653  133.4819  159.2593 H   0  0  0  0  0  0  0  0  0  0  0  0  # atno 6907 bound_to 6896
  151.1412  135.0180  159.8636 H   0  0  0  0  0  0  0  0  0  0  0  0  # atno 6908 bound_to 6896
  152.5462  134.1547  159.8586 H   0  0  0  0  0  0  0  0  0  0  0  0  # atno 6909 bound_to 6896
  146.2441  140.0429  142.8381 H   0  0  0  0  0  0  0  0  0  0  0  0  # atno 7974 bound_to 7965
  154.4369  140.1054  156.6172 H   0  0  0  0  0  0  0  0  0  0  0  0  # atno 8008 bound_to 7997
  155.5746  140.3490  155.4505 H   0  0  0  0  0  0  0  0  0  0  0  0  # atno 8009 bound_to 7997
  156.0364  140.1272  157.0192 H   0  0  0  0  0  0  0  0  0  0  0  0  # atno 8010 bound_to 7997
  139.9606  144.5964  150.8076 H   0  0  0  0  0  0  0  0  0  0  0  0  # atno 10167 bound_to 10162
  156.1881  130.6777  151.0389 H   0  0  0  0  0  0  0  0  0  0  0  0  # atno 10718 bound_to 10713
  153.4451  135.7014  153.6144 H   0  0  0  0  0  0  0  0  0  0  0  0  # atno 10763 bound_to 10752
  153.4502  135.3760  155.2280 H   0  0  0  0  0  0  0  0  0  0  0  0  # atno 10764 bound_to 10752
  154.8728  135.3995  154.3856 H   0  0  0  0  0  0  0  0  0  0  0  0  # atno 10765 bound_to 10752
  141.1085  133.6612  156.4506 H   0  0  0  0  0  0  0  0  0  0  0  0  # atno 11005 bound_to 11000
  145.1053  140.9371  143.4688 LP  0  0  0  0  0  0  0  0  0  0  0  0  # atno 17320 bound_to 7965
  145.0631  139.3090  143.5870 LP  0  0  0  0  0  0  0  0  0  0  0  0  # atno 17321 bound_to 7965
  140.7554  143.3046  151.2994 LP  0  0  0  0  0  0  0  0  0  0  0  0  # atno 17342 bound_to 10162
  139.6557  144.0281  152.2658 LP  0  0  0  0  0  0  0  0  0  0  0  0  # atno 17343 bound_to 10162
  157.6911  131.0809  150.7103 LP  0  0  0  0  0  0  0  0  0  0  0  0  # atno 17370 bound_to 10713
  156.7160  130.4666  149.5535 LP  0  0  0  0  0  0  0  0  0  0  0  0  # atno 17371 bound_to 10713
  140.4838  134.6640  157.5182 LP  0  0  0  0  0  0  0  0  0  0  0  0  # atno 17394 bound_to 11000
  139.9967  134.6900  155.9598 LP  0  0  0  0  0  0  0  0  0  0  0  0  # atno 17395 bound_to 11000

$$$$
