AV-unprocessed.smi:2843|AV-procd|sdf|10937|dock9
  -GOLD-   2272015383D 1   1.00000     0.00000
 Structure written by MMmdl.
 29 29  0  0  0  0  0  0  0  0  1 V2000
  151.7865  144.8213  160.5711 C   0  0  0  0  0  0  0  0  0  0  0  0
  151.5208  143.8167  159.5030 C   0  0  0  0  0  0  0  0  0  0  0  0
  151.2958  143.9214  158.1600 C   0  0  0  0  0  0  0  0  0  0  0  0
  151.1218  142.5731  157.7421 C   0  0  0  0  0  0  0  0  0  0  0  0
  150.8466  142.0522  156.3607 C   0  0  0  0  0  0  0  0  0  0  0  0
  151.0756  140.2245  156.3372 S   0  0  0  0  0  0  0  0  0  0  0  0
  152.5042  139.9148  156.5010 O   0  0  0  0  0  0  0  0  0  0  0  0
  150.0845  139.6153  157.2377 O   0  0  0  0  0  0  0  0  0  0  0  0
  150.6393  139.8122  154.7212 N   0  0  0  0  0  0  0  0  0  0  0  0
  149.2334  139.9350  154.3413 C   0  0  0  0  0  0  0  0  0  0  0  0
  148.8411  141.4132  154.2210 C   0  0  0  0  0  0  0  0  0  0  0  0
  147.3405  141.5991  153.9614 C   0  0  0  0  0  0  0  0  0  0  0  0
  146.9941  142.9591  154.1084 O   0  0  0  0  0  0  0  0  0  0  0  0
  151.2263  141.7287  158.7553 N   0  0  0  0  0  0  0  0  0  0  0  0
  151.4831  142.5141  159.8844 O   0  0  0  0  0  0  0  0  0  0  0  0
  151.8501  145.8266  160.1541 H   0  0  0  0  0  0  0  0  0  0  0  0
  152.7270  144.6062  161.0786 H   0  0  0  0  0  0  0  0  0  0  0  0
  150.9901  144.8133  161.3154 H   0  0  0  0  0  0  0  0  0  0  0  0
  151.2660  144.8229  157.5661 H   0  0  0  0  0  0  0  0  0  0  0  0
  149.8272  142.2751  156.0437 H   0  0  0  0  0  0  0  0  0  0  0  0
  151.5265  142.4954  155.6335 H   0  0  0  0  0  0  0  0  0  0  0  0
  151.0011  138.8915  154.4733 H   0  0  0  0  0  0  0  0  0  0  0  0
  149.0754  139.4218  153.3919 H   0  0  0  0  0  0  0  0  0  0  0  0
  148.6152  139.4362  155.0886 H   0  0  0  0  0  0  0  0  0  0  0  0
  149.1194  141.9387  155.1360 H   0  0  0  0  0  0  0  0  0  0  0  0
  149.4093  141.8760  153.4125 H   0  0  0  0  0  0  0  0  0  0  0  0
  147.0806  141.2731  152.9536 H   0  0  0  0  0  0  0  0  0  0  0  0
  146.7515  141.0044  154.6605 H   0  0  0  0  0  0  0  0  0  0  0  0
  147.7316  143.4194  154.4793 H   0  0  0  0  0  0  0  0  0  0  0  0
  1  2  1  0  0  0  0
  1 16  1  0  0  0  0
  1 17  1  0  0  0  0
  1 18  1  0  0  0  0
  2 15  1  0  0  0  0
  2  3  2  0  0  0  0
  3  4  1  0  0  0  0
  3 19  1  0  0  0  0
  4  5  1  0  0  0  0
  4 14  2  0  0  0  0
  5  6  1  0  0  0  0
  5 20  1  0  0  0  0
  5 21  1  0  0  0  0
  6  7  2  0  0  0  0
  6  8  2  0  0  0  0
  6  9  1  0  0  0  0
  9 10  1  0  0  0  0
  9 22  1  0  0  0  0
 10 11  1  0  0  0  0
 10 23  1  0  0  0  0
 10 24  1  0  0  0  0
 11 12  1  0  0  0  0
 11 25  1  0  0  0  0
 11 26  1  0  0  0  0
 12 13  1  0  0  0  0
 12 27  1  0  0  0  0
 12 28  1  0  0  0  0
 13 29  1  0  0  0  0
 14 15  1  0  0  0  0
M  END
> <s_m_source_file>
AV-unprocessed.smi

> <i_m_source_file_index>
2843

> <i_lp_mmshare_version>
43012

> <i_f3d_flags>
0

> <s_epik_input>
W0NIM11jMVtjSF1jKG5vMSlbQ0gyXVMoPU8pKD1PKVtOSF1bQ0gyXVtDSDJdW0NIMl1bT0hd

> <s_epik_cmdline>
J2VwaWtfcHl0aG9uJywgJy1waCcsICc3LjAnLCAnLXRuJywgJzgnLCAnLW1hJywgJzIwMCcsICctbWV0YWxfYmluZGluZycsICctaW1hZScsICc8aW5maWxlLm1hZT4nLCAnLW9tYWUnLCAnPG91dGZpbGUubWFlPic=

> <r_lp_tautomer_probability>
1

> <r_epik_Ionization_Penalty>
0.000153409

> <r_epik_Ionization_Penalty_Charging>
0

> <r_epik_Ionization_Penalty_Neutral>
0.000153409

> <r_epik_State_Penalty>
-0

> <r_epik_Charging_Adjusted_Penalty>
0

> <i_epik_Tot_Q>
0

> <i_epik_Tot_abs_Q>
0

> <r_epik_Metal_State_Penalty>
0.110712

> <b_epik_Metal_Only>
0

> <s_lp_Force_Field>
OPLS_2005

> <r_lp_Energy>
-3.16936

> <b_lp_Chiralities_Consistent>
1

> <s_lp_Variant>
AV-unprocessed.smi:2843-1

> <Gold.Version>
5.8.1

> <Gold.Id.Protein>
6NUR|6NUR_protein|mol2

> <Gold.PLP.Fitness>
41.3399

> <Gold.PLP.PLP>
-32.9851

> <Gold.PLP.part.hbond>
-4.2604

> <Gold.PLP.part.metal>
0.0000

> <Gold.PLP.part.buried>
-2.5860

> <Gold.PLP.part.nonpolar>
-25.4527

> <Gold.PLP.part.repulsive>
0.0064

> <Gold.PLP.ligand.clash>
0.0000

> <Gold.PLP.ligand.torsion>
0.4061

> <Gold.PLP.Chemscore.Hbond>
3.0000

> <Gold.PLP.Chemscore.CHOScore>
0.0000

> <Gold.PLP.Chemscore.Metal>
0.0000

> <Gold.Chemscore.Hbonds>
donor molecule, donor type, donor heavy atom, donor atom, acceptor molecule, acceptor atom, score
      L1  H    13    29       P1  8028  0.94
      P1  H  7989  7998       L1     9  0.95
      P1  H  7997  8008       L1     7  1.00

> <Gold.PLP.Chemscore.Internal.Correction>
0.1670

> <Gold.Rescore>
     Score         DG    S(hbond)    S(metal)    S(lipo)     H(rot)  DE(clash)    DE(int)     intcor
      9.99     -12.45       1.88        0.00      73.73       3.09       0.08       2.38       ----

> <Gold.Chemscore.Fitness>
9.9909

> <Gold.Chemscore.DG>
-12.4513

> <Gold.Chemscore.ZeroCoef>
-5.4800

> <Gold.Chemscore.Hbond>
1.8757

> <Gold.Chemscore.Metal>
0.0000

> <Gold.Chemscore.Lipo>
73.7260

> <Gold.Chemscore.Internal_Hbond>
0.0000

> <Gold.Chemscore.DEClash>
0.0811

> <Gold.Chemscore.DEInternal>
2.3793

> <Gold.Chemscore.Rot>
3.0935

> <Gold.Chemscore.Internal.Correction>
   9.000000E+99

> <Gold.Chemscore.Hbonds>
donor molecule, donor type, donor heavy atom, donor atom, acceptor molecule, acceptor atom, score
      L1  H    13    29       P1  8028  0.50
      P1  H  7989  7998       L1     9  0.10
      P1  H  7997  8008       L1     7  1.00

> <Gold.Chemscore.Hbond.Weighted>
-6.2648

> <Gold.Chemscore.Metal.Weighted>
-0.0000

> <Gold.Chemscore.Lipo.Weighted>
-8.6259

> <Gold.Chemscore.Internal_Hbond.Weighted>
0.0000

> <Gold.Chemscore.DEClash.Weighted>
0.0811

> <Gold.Chemscore.DEInternal.Weighted>
2.3793

> <Gold.Chemscore.Rot.Weighted>
7.9195

> <Gold.Chemscore.Internal.Correction.Weighted>
   9.000000E+99

> <Gold.Protein.RotatedTorsions>
[ 6907 6896 6895 6894 ] final -117.79 input  -60.11 | X-H torsion
[ 7974 7965 7964 7962 ] final   13.26 input  175.53 | X-H torsion
[ 8008 7997 7996 7995 ] final  -42.08 input   59.86 | X-H torsion
[ 10167 10162 10161 10158 ] final   58.90 input  -65.29 | X-H torsion
[ 10718 10713 10712 10709 ] final  102.11 input   66.30 | X-H torsion
[ 10763 10752 10751 10750 ] final  174.81 input  -60.55 | X-H torsion
[ 11005 11000 10999 10996 ] final  -74.95 input  -57.11 | X-H torsion

> <Gold.Protein.ActiveResidues>
 VAL166  LYS551  ARG553  GLY616  TRP617  ASP618  TYR619  PRO620  LYS621  CYS622 
 ASP623  PHE694  ASN695  SER759  ASP760  ASP761  ALA762  ILE779  LEU786  VAL792 
 PHE793  MET794  SER795  GLU796  ALA797  LYS798  CYS799  TRP800  GLU811  SER814 

> <Gold.Protein.RotatedAtoms>
  150.8166  133.8326  159.3157 H   0  0  0  0  0  0  0  0  0  0  0  0  # atno 6907 bound_to 6896
  151.6096  135.1039  160.0088 H   0  0  0  0  0  0  0  0  0  0  0  0  # atno 6908 bound_to 6896
  152.4257  133.7151  159.6557 H   0  0  0  0  0  0  0  0  0  0  0  0  # atno 6909 bound_to 6896
  146.2333  139.9214  142.8509 H   0  0  0  0  0  0  0  0  0  0  0  0  # atno 7974 bound_to 7965
  154.4000  140.1483  156.3295 H   0  0  0  0  0  0  0  0  0  0  0  0  # atno 8008 bound_to 7997
  155.8456  140.3460  155.5638 H   0  0  0  0  0  0  0  0  0  0  0  0  # atno 8009 bound_to 7997
  155.8040  140.0874  157.1932 H   0  0  0  0  0  0  0  0  0  0  0  0  # atno 8010 bound_to 7997
  140.1822  144.4170  150.6610 H   0  0  0  0  0  0  0  0  0  0  0  0  # atno 10167 bound_to 10162
  157.6811  131.0744  150.5354 H   0  0  0  0  0  0  0  0  0  0  0  0  # atno 10718 bound_to 10713
  154.4591  135.2767  155.1726 H   0  0  0  0  0  0  0  0  0  0  0  0  # atno 10763 bound_to 10752
  154.3521  135.6147  153.5652 H   0  0  0  0  0  0  0  0  0  0  0  0  # atno 10764 bound_to 10752
  152.9853  135.5814  154.4949 H   0  0  0  0  0  0  0  0  0  0  0  0  # atno 10765 bound_to 10752
  141.1640  133.6929  156.7443 H   0  0  0  0  0  0  0  0  0  0  0  0  # atno 11005 bound_to 11000
  145.2133  140.9904  143.4088 LP  0  0  0  0  0  0  0  0  0  0  0  0  # atno 17320 bound_to 7965
  144.9673  139.3917  143.6326 LP  0  0  0  0  0  0  0  0  0  0  0  0  # atno 17321 bound_to 7965
  140.6512  143.2225  151.6073 LP  0  0  0  0  0  0  0  0  0  0  0  0  # atno 17342 bound_to 10162
  139.5291  144.2969  152.1106 LP  0  0  0  0  0  0  0  0  0  0  0  0  # atno 17343 bound_to 10162
  156.5662  130.4268  149.6040 LP  0  0  0  0  0  0  0  0  0  0  0  0  # atno 17370 bound_to 10713
  156.2779  130.7054  151.1870 LP  0  0  0  0  0  0  0  0  0  0  0  0  # atno 17371 bound_to 10713
  140.2651  134.8436  157.3795 LP  0  0  0  0  0  0  0  0  0  0  0  0  # atno 17394 bound_to 11000
  140.1574  134.4772  155.7918 LP  0  0  0  0  0  0  0  0  0  0  0  0  # atno 17395 bound_to 11000

$$$$
