AV-unprocessed.smi:3132|AV-procd|sdf|11936|dock5
  -GOLD-   2272017323D 1   1.00000     0.00000
 Structure written by MMmdl.
 33 34  0  0  0  0  0  0  0  0  1 V2000
  151.4289  140.6858  158.0346 C   0  0  0  0  0  0  0  0  0  0  0  0
  150.4828  141.8162  157.6039 C   0  0  1  0  0  0  0  0  0  0  0  0
  151.2522  143.1146  157.2960 C   0  0  0  0  0  0  0  0  0  0  0  0
  151.5192  143.8901  158.4935 N   0  0  0  0  0  0  0  0  0  0  0  0
  151.0051  145.1391  158.8166 C   0  0  0  0  0  0  0  0  0  0  0  0
  151.5289  145.4737  160.0449 C   0  0  0  0  0  0  0  0  0  0  0  0
  152.3651  144.4532  160.4918 N   0  0  0  0  0  0  0  0  0  0  0  0
  152.3094  143.5504  159.5211 C   0  0  0  0  0  0  0  0  0  0  0  0
  149.7179  141.3997  156.4303 N   0  0  0  0  0  0  0  0  0  0  0  0
  150.2039  140.7233  155.3786 C   0  0  0  0  0  0  0  0  0  0  0  0
  151.3852  140.3918  155.2734 O   0  0  0  0  0  0  0  0  0  0  0  0
  149.1893  140.3523  154.2909 C   0  0  1  0  0  0  0  0  0  0  0  0
  147.9978  139.5140  154.7916 C   0  0  0  0  0  0  0  0  0  0  0  0
  146.8274  140.4744  154.7152 C   0  0  0  0  0  0  0  0  0  0  0  0
  147.2401  141.3765  153.5610 C   0  0  0  0  0  0  0  0  0  0  0  0
  148.6301  141.5605  153.7788 O   0  0  0  0  0  0  0  0  0  0  0  0
  151.9989  140.9683  158.9200 H   0  0  0  0  0  0  0  0  0  0  0  0
  152.1403  140.4406  157.2455 H   0  0  0  0  0  0  0  0  0  0  0  0
  150.8737  139.7793  158.2781 H   0  0  0  0  0  0  0  0  0  0  0  0
  149.8023  142.0187  158.4332 H   0  0  0  0  0  0  0  0  0  0  0  0
  152.2085  142.8836  156.8247 H   0  0  0  0  0  0  0  0  0  0  0  0
  150.6978  143.7352  156.5903 H   0  0  0  0  0  0  0  0  0  0  0  0
  150.3248  145.6698  158.1670 H   0  0  0  0  0  0  0  0  0  0  0  0
  151.3695  146.3631  160.6362 H   0  0  0  0  0  0  0  0  0  0  0  0
  152.8537  142.6181  159.5597 H   0  0  0  0  0  0  0  0  0  0  0  0
  148.7328  141.6208  156.4300 H   0  0  0  0  0  0  0  0  0  0  0  0
  149.6913  139.8221  153.4798 H   0  0  0  0  0  0  0  0  0  0  0  0
  147.8334  138.6734  154.1166 H   0  0  0  0  0  0  0  0  0  0  0  0
  148.1261  139.1027  155.7937 H   0  0  0  0  0  0  0  0  0  0  0  0
  145.8727  139.9752  154.5479 H   0  0  0  0  0  0  0  0  0  0  0  0
  146.7562  141.0546  155.6362 H   0  0  0  0  0  0  0  0  0  0  0  0
  147.0824  140.8801  152.6021 H   0  0  0  0  0  0  0  0  0  0  0  0
  146.7046  142.3262  153.5527 H   0  0  0  0  0  0  0  0  0  0  0  0
  1  2  1  0  0  0  0
  1 17  1  0  0  0  0
  1 18  1  0  0  0  0
  1 19  1  0  0  0  0
  2  3  1  0  0  0  0
  2  9  1  0  0  0  0
  2 20  1  0  0  0  0
  3  4  1  0  0  0  0
  3 21  1  0  0  0  0
  3 22  1  0  0  0  0
  4  8  1  0  0  0  0
  4  5  1  0  0  0  0
  5  6  2  0  0  0  0
  5 23  1  0  0  0  0
  6  7  1  0  0  0  0
  6 24  1  0  0  0  0
  7  8  2  0  0  0  0
  8 25  1  0  0  0  0
  9 10  1  0  0  0  0
  9 26  1  0  0  0  0
 10 11  2  0  0  0  0
 10 12  1  0  0  0  0
 12 16  1  0  0  0  0
 12 13  1  0  0  0  0
 12 27  1  0  0  0  0
 13 14  1  0  0  0  0
 13 28  1  0  0  0  0
 13 29  1  0  0  0  0
 14 15  1  0  0  0  0
 14 30  1  0  0  0  0
 14 31  1  0  0  0  0
 15 16  1  0  0  0  0
 15 32  1  0  0  0  0
 15 33  1  0  0  0  0
M  END
> <s_m_source_file>
AV-unprocessed.smi

> <i_m_source_file_index>
3132

> <i_lp_mmshare_version>
43012

> <i_f3d_flags>
0

> <s_epik_input>
W2NIXTFuW2NIXVtjSF1uMVtDSDJdW0NAQEhdKFtDSDNdKVtOSF1DKD1PKVtDQEBIXTJbQ0gyXVtDSDJdW0NIMl1PMg==

> <s_epik_cmdline>
J2VwaWtfcHl0aG9uJywgJy1waCcsICc3LjAnLCAnLXRuJywgJzgnLCAnLW1hJywgJzIwMCcsICctbWV0YWxfYmluZGluZycsICctaW1hZScsICc8aW5maWxlLm1hZT4nLCAnLW9tYWUnLCAnPG91dGZpbGUubWFlPic=

> <r_lp_tautomer_probability>
1

> <r_epik_Ionization_Penalty>
0.630322

> <r_epik_Ionization_Penalty_Charging>
0.630322

> <r_epik_Ionization_Penalty_Neutral>
3.82652e-08

> <r_epik_State_Penalty>
0.647117

> <r_epik_Charging_Adjusted_Penalty>
1.27744

> <i_epik_Tot_Q>
0

> <i_epik_Tot_abs_Q>
0

> <r_epik_Metal_State_Penalty>
0.309095

> <b_epik_Metal_Only>
0

> <s_lp_Force_Field>
OPLS_2005

> <r_lp_Energy>
20.0706

> <b_lp_Chiralities_Consistent>
1

> <s_lp_Variant>
AV-unprocessed.smi:3132-8

> <Gold.Version>
5.8.1

> <Gold.Id.Protein>
6NUR|6NUR_protein|mol2

> <Gold.PLP.Fitness>
40.3372

> <Gold.PLP.PLP>
-33.8374

> <Gold.PLP.part.hbond>
-2.0000

> <Gold.PLP.part.metal>
0.0000

> <Gold.PLP.part.buried>
-3.6542

> <Gold.PLP.part.nonpolar>
-28.3578

> <Gold.PLP.part.repulsive>
0.3404

> <Gold.PLP.ligand.clash>
0.0000

> <Gold.PLP.ligand.torsion>
0.6002

> <Gold.PLP.Chemscore.Hbond>
1.5614

> <Gold.PLP.Chemscore.CHOScore>
1.0000

> <Gold.PLP.Chemscore.Metal>
0.0000

> <Gold.Chemscore.Hbonds>
donor molecule, donor type, donor heavy atom, donor atom, acceptor molecule, acceptor atom, score
      P1  H  7989  7998       L1    11  0.90
      P1  H  8011  8017       L1    16  0.66
      L1  C     5    23       P1  8029  0.88

> <Gold.PLP.Chemscore.Internal.Correction>
0.0160

> <Gold.Rescore>
     Score         DG    S(hbond)    S(metal)    S(lipo)     H(rot)  DE(clash)    DE(int)     intcor
      9.62     -11.76       0.92        0.00      68.33       1.86       0.45       1.69       ----

> <Gold.Chemscore.Fitness>
9.6242

> <Gold.Chemscore.DG>
-11.7611

> <Gold.Chemscore.ZeroCoef>
-5.4800

> <Gold.Chemscore.Hbond>
0.9152

> <Gold.Chemscore.Metal>
0.0000

> <Gold.Chemscore.Lipo>
68.3349

> <Gold.Chemscore.Internal_Hbond>
0.0000

> <Gold.Chemscore.DEClash>
0.4453

> <Gold.Chemscore.DEInternal>
1.6915

> <Gold.Chemscore.Rot>
1.8636

> <Gold.Chemscore.Internal.Correction>
   9.000000E+99

> <Gold.Chemscore.Hbonds>
donor molecule, donor type, donor heavy atom, donor atom, acceptor molecule, acceptor atom, score
      P1  H  7989  7998       L1    11  0.20
      P1  H  8011  8017       L1    16  0.52

> <Gold.Chemscore.Hbond.Weighted>
-3.0567

> <Gold.Chemscore.Metal.Weighted>
-0.0000

> <Gold.Chemscore.Lipo.Weighted>
-7.9952

> <Gold.Chemscore.Internal_Hbond.Weighted>
0.0000

> <Gold.Chemscore.DEClash.Weighted>
0.4453

> <Gold.Chemscore.DEInternal.Weighted>
1.6915

> <Gold.Chemscore.Rot.Weighted>
4.7709

> <Gold.Chemscore.Internal.Correction.Weighted>
   9.000000E+99

> <Gold.Protein.RotatedTorsions>
[ 6907 6896 6895 6894 ] final   -3.02 input  -60.11 | X-H torsion
[ 7974 7965 7964 7962 ] final  -58.73 input  175.53 | X-H torsion
[ 8008 7997 7996 7995 ] final  -84.63 input   59.86 | X-H torsion
[ 10167 10162 10161 10158 ] final  -29.88 input  -65.29 | X-H torsion
[ 10718 10713 10712 10709 ] final   43.46 input   66.30 | X-H torsion
[ 10763 10752 10751 10750 ] final  -86.57 input  -60.55 | X-H torsion
[ 11005 11000 10999 10996 ] final   46.27 input  -57.11 | X-H torsion

> <Gold.Protein.ActiveResidues>
 VAL166  LYS551  ARG553  GLY616  TRP617  ASP618  TYR619  PRO620  LYS621  CYS622 
 ASP623  PHE694  ASN695  SER759  ASP760  ASP761  ALA762  ILE779  LEU786  VAL792 
 PHE793  MET794  SER795  GLU796  ALA797  LYS798  CYS799  TRP800  GLU811  SER814 

> <Gold.Protein.RotatedAtoms>
  151.5205  135.1067  159.9876 H   0  0  0  0  0  0  0  0  0  0  0  0  # atno 6907 bound_to 6896
  152.4623  133.7843  159.6878 H   0  0  0  0  0  0  0  0  0  0  0  0  # atno 6908 bound_to 6896
  150.8590  133.7607  159.3024 H   0  0  0  0  0  0  0  0  0  0  0  0  # atno 6909 bound_to 6896
  145.8359  140.8449  143.0059 H   0  0  0  0  0  0  0  0  0  0  0  0  # atno 7974 bound_to 7965
  154.6319  140.0602  156.9743 H   0  0  0  0  0  0  0  0  0  0  0  0  # atno 8008 bound_to 7997
  155.1652  140.3286  155.4385 H   0  0  0  0  0  0  0  0  0  0  0  0  # atno 8009 bound_to 7997
  156.2487  140.1924  156.6757 H   0  0  0  0  0  0  0  0  0  0  0  0  # atno 8010 bound_to 7997
  140.7256  143.3893  151.1459 H   0  0  0  0  0  0  0  0  0  0  0  0  # atno 10167 bound_to 10162
  157.4161  130.7942  149.7474 H   0  0  0  0  0  0  0  0  0  0  0  0  # atno 10718 bound_to 10713
  154.6239  135.5444  153.7606 H   0  0  0  0  0  0  0  0  0  0  0  0  # atno 10763 bound_to 10752
  153.0251  135.6419  154.1400 H   0  0  0  0  0  0  0  0  0  0  0  0  # atno 10764 bound_to 10752
  154.1333  135.2913  155.3159 H   0  0  0  0  0  0  0  0  0  0  0  0  # atno 10765 bound_to 10752
  140.1384  134.4614  155.8468 H   0  0  0  0  0  0  0  0  0  0  0  0  # atno 11005 bound_to 11000
  144.6736  140.0741  143.7472 LP  0  0  0  0  0  0  0  0  0  0  0  0  # atno 17320 bound_to 7965
  145.9519  139.2740  143.1207 LP  0  0  0  0  0  0  0  0  0  0  0  0  # atno 17321 bound_to 7965
  139.7495  143.8800  152.3073 LP  0  0  0  0  0  0  0  0  0  0  0  0  # atno 17342 bound_to 10162
  139.8649  144.7098  150.9056 LP  0  0  0  0  0  0  0  0  0  0  0  0  # atno 17343 bound_to 10162
  155.9866  130.3974  150.3206 LP  0  0  0  0  0  0  0  0  0  0  0  0  # atno 17370 bound_to 10713
  157.1349  131.0281  151.2953 LP  0  0  0  0  0  0  0  0  0  0  0  0  # atno 17371 bound_to 10713
  141.2182  133.6823  156.7201 LP  0  0  0  0  0  0  0  0  0  0  0  0  # atno 17394 bound_to 11000
  140.2753  134.8360  157.3884 LP  0  0  0  0  0  0  0  0  0  0  0  0  # atno 17395 bound_to 11000

$$$$
