AV-unprocessed.smi:225|AV-procd|sdf|1724|dock9
  -GOLD-   2262020203D 1   1.00000     0.00000
 Structure written by MMmdl.
 56 59  0  0  0  0  0  0  0  0  1 V2000
  149.8558  140.0950  154.0643 O   0  0  0  0  0  0  0  0  0  0  0  0
  149.1558  141.0292  154.8564 C   0  0  0  0  0  0  0  0  0  0  0  0
  148.8114  140.3941  156.2141 C   0  0  0  0  0  0  0  0  0  0  0  0
  149.9699  140.2968  157.1068 N   0  0  0  0  0  0  0  0  0  0  0  0
  151.2218  140.9059  156.6549 C   0  0  0  0  0  0  0  0  0  0  0  0
  151.8639  141.8372  157.7048 C   0  0  0  0  0  0  0  0  0  0  0  0
  152.0410  141.0993  159.0469 C   0  0  0  0  0  0  0  0  0  0  0  0
  152.6847  142.0020  160.1122 C   0  0  0  0  0  0  0  0  0  0  0  0
  151.8753  143.2923  160.3110 C   0  0  0  0  0  0  0  0  0  0  0  0
  151.6880  144.0370  158.9806 C   0  0  0  0  0  0  0  0  0  0  0  0
  151.0460  143.1285  157.9197 C   0  0  0  0  0  0  0  0  0  0  0  0
  150.1598  139.1250  157.7672 C   0  0  0  0  0  0  0  0  0  0  0  0
  151.4151  138.6268  157.9271 N   0  0  0  0  0  0  0  0  0  0  0  0
  151.6076  137.4814  158.5876 C   0  0  0  0  0  0  0  0  0  0  0  0
  150.7023  136.6880  159.1631 N   0  0  0  0  0  0  0  0  0  0  0  0
  149.4414  137.1849  159.0123 C   0  0  0  0  0  0  0  0  0  0  0  0
  149.0846  138.3832  158.3318 C   0  0  0  0  0  0  0  0  0  0  0  0
  147.7069  138.5561  158.3695 N   0  0  0  0  0  0  0  0  0  0  0  0
  147.2741  137.5234  159.0392 C   0  0  0  0  0  0  0  0  0  0  0  0
  148.2491  136.6540  159.4743 N   0  0  0  0  0  0  0  0  0  0  0  0
  148.0514  135.4318  160.2398 C   0  0  0  0  0  0  0  0  0  0  0  0
  147.3922  135.6613  161.6220 C   0  0  2  0  0  0  0  0  0  0  0  0
  148.1345  136.6385  162.3280 O   0  0  0  0  0  0  0  0  0  0  0  0
  147.3311  134.3814  162.4593 C   0  0  0  0  0  0  0  0  0  0  0  0
  145.8495  134.0243  162.4628 C   0  0  0  0  0  0  0  0  0  0  0  0
  145.2253  135.2951  162.4756 O   0  0  0  0  0  0  0  0  0  0  0  0
  145.9186  136.1082  161.5404 C   0  0  0  0  0  0  0  0  0  0  0  0
  149.4320  140.0388  153.2215 H   0  0  0  0  0  0  0  0  0  0  0  0
  149.7790  141.9130  154.9955 H   0  0  0  0  0  0  0  0  0  0  0  0
  148.2607  141.3420  154.3187 H   0  0  0  0  0  0  0  0  0  0  0  0
  148.0146  140.9560  156.7032 H   0  0  0  0  0  0  0  0  0  0  0  0
  148.4046  139.3986  156.0406 H   0  0  0  0  0  0  0  0  0  0  0  0
  151.9472  140.1467  156.3582 H   0  0  0  0  0  0  0  0  0  0  0  0
  151.0044  141.4764  155.7511 H   0  0  0  0  0  0  0  0  0  0  0  0
  152.8585  142.1219  157.3617 H   0  0  0  0  0  0  0  0  0  0  0  0
  151.0722  140.7485  159.4053 H   0  0  0  0  0  0  0  0  0  0  0  0
  152.6567  140.2105  158.9047 H   0  0  0  0  0  0  0  0  0  0  0  0
  152.7639  141.4639  161.0572 H   0  0  0  0  0  0  0  0  0  0  0  0
  153.7033  142.2520  159.8122 H   0  0  0  0  0  0  0  0  0  0  0  0
  150.8997  143.0504  160.7349 H   0  0  0  0  0  0  0  0  0  0  0  0
  152.3753  143.9383  161.0332 H   0  0  0  0  0  0  0  0  0  0  0  0
  151.0706  144.9225  159.1340 H   0  0  0  0  0  0  0  0  0  0  0  0
  152.6545  144.3920  158.6207 H   0  0  0  0  0  0  0  0  0  0  0  0
  150.9553  143.6789  156.9827 H   0  0  0  0  0  0  0  0  0  0  0  0
  150.0316  142.8744  158.2290 H   0  0  0  0  0  0  0  0  0  0  0  0
  152.6339  137.1557  158.6694 H   0  0  0  0  0  0  0  0  0  0  0  0
  146.2232  137.3693  159.2365 H   0  0  0  0  0  0  0  0  0  0  0  0
  147.4402  134.7539  159.6427 H   0  0  0  0  0  0  0  0  0  0  0  0
  149.0191  134.9427  160.3594 H   0  0  0  0  0  0  0  0  0  0  0  0
  148.0598  136.4605  163.2531 H   0  0  0  0  0  0  0  0  0  0  0  0
  147.9498  133.5737  162.0667 H   0  0  0  0  0  0  0  0  0  0  0  0
  147.6520  134.5682  163.4854 H   0  0  0  0  0  0  0  0  0  0  0  0
  145.5727  133.4854  161.5552 H   0  0  0  0  0  0  0  0  0  0  0  0
  145.5619  133.4229  163.3253 H   0  0  0  0  0  0  0  0  0  0  0  0
  145.7703  137.1691  161.7465 H   0  0  0  0  0  0  0  0  0  0  0  0
  145.4980  135.9024  160.5558 H   0  0  0  0  0  0  0  0  0  0  0  0
  1  2  1  0  0  0  0
  1 28  1  0  0  0  0
  2  3  1  0  0  0  0
  2 29  1  0  0  0  0
  2 30  1  0  0  0  0
  3  4  1  0  0  0  0
  3 31  1  0  0  0  0
  3 32  1  0  0  0  0
  4  5  1  0  0  0  0
  4 12  1  0  0  0  0
  5  6  1  0  0  0  0
  5 33  1  0  0  0  0
  5 34  1  0  0  0  0
  6 11  1  0  0  0  0
  6  7  1  0  0  0  0
  6 35  1  0  0  0  0
  7  8  1  0  0  0  0
  7 36  1  0  0  0  0
  7 37  1  0  0  0  0
  8  9  1  0  0  0  0
  8 38  1  0  0  0  0
  8 39  1  0  0  0  0
  9 10  1  0  0  0  0
  9 40  1  0  0  0  0
  9 41  1  0  0  0  0
 10 11  1  0  0  0  0
 10 42  1  0  0  0  0
 10 43  1  0  0  0  0
 11 44  1  0  0  0  0
 11 45  1  0  0  0  0
 12 17  1  0  0  0  0
 12 13  2  0  0  0  0
 13 14  1  0  0  0  0
 14 15  2  0  0  0  0
 14 46  1  0  0  0  0
 15 16  1  0  0  0  0
 16 20  1  0  0  0  0
 16 17  2  0  0  0  0
 17 18  1  0  0  0  0
 18 19  2  0  0  0  0
 19 20  1  0  0  0  0
 19 47  1  0  0  0  0
 20 21  1  0  0  0  0
 21 22  1  0  0  0  0
 21 48  1  0  0  0  0
 21 49  1  0  0  0  0
 22 27  1  0  0  0  0
 22 23  1  0  0  0  0
 22 24  1  0  0  0  0
 23 50  1  0  0  0  0
 24 25  1  0  0  0  0
 24 51  1  0  0  0  0
 24 52  1  0  0  0  0
 25 26  1  0  0  0  0
 25 53  1  0  0  0  0
 25 54  1  0  0  0  0
 26 27  1  0  0  0  0
 27 55  1  0  0  0  0
 27 56  1  0  0  0  0
M  END
> <s_m_source_file>
AV-unprocessed.smi

> <i_m_source_file_index>
225

> <i_lp_mmshare_version>
43012

> <i_f3d_flags>
0

> <s_epik_input>
W0NIMl0xW0NIMl1bQ0gyXVtDSDJdW0NIMl1bQ0hdMVtDSDJdTihbQ0gyXVtDSDJdW09IXSljKG5bY0hdbjIpYyhjMjMpbltjSF1uM1tDSDJdW0NAQF00KFtPSF0pW0NIMl1bQ0gyXU9bQ0gyXTQ=

> <s_epik_cmdline>
J2VwaWtfcHl0aG9uJywgJy1waCcsICc3LjAnLCAnLXRuJywgJzgnLCAnLW1hJywgJzIwMCcsICctbWV0YWxfYmluZGluZycsICctaW1hZScsICc8aW5maWxlLm1hZT4nLCAnLW9tYWUnLCAnPG91dGZpbGUubWFlPic=

> <r_lp_tautomer_probability>
1

> <r_epik_Ionization_Penalty>
0.00405109

> <r_epik_Ionization_Penalty_Charging>
0

> <r_epik_Ionization_Penalty_Neutral>
0.00405109

> <r_epik_State_Penalty>
0.00270467

> <r_epik_Charging_Adjusted_Penalty>
0.00270467

> <i_epik_Tot_Q>
0

> <i_epik_Tot_abs_Q>
0

> <r_epik_Metal_State_Penalty>
-0

> <b_epik_Metal_Only>
0

> <s_lp_Force_Field>
OPLS_2005

> <r_lp_Energy>
36.6988

> <b_lp_Chiralities_Consistent>
1

> <s_lp_Variant>
AV-unprocessed.smi:225-2

> <Gold.Version>
5.8.1

> <Gold.Id.Protein>
6NUR|6NUR_protein|mol2

> <Gold.PLP.Fitness>
58.2882

> <Gold.PLP.PLP>
-49.1209

> <Gold.PLP.part.hbond>
-4.9138

> <Gold.PLP.part.metal>
0.0000

> <Gold.PLP.part.buried>
-8.0640

> <Gold.PLP.part.nonpolar>
-36.6410

> <Gold.PLP.part.repulsive>
0.0082

> <Gold.PLP.ligand.clash>
0.2930

> <Gold.PLP.ligand.torsion>
1.6312

> <Gold.PLP.Chemscore.Hbond>
3.8960

> <Gold.PLP.Chemscore.CHOScore>
0.0000

> <Gold.PLP.Chemscore.Metal>
0.0000

> <Gold.Chemscore.Hbonds>
donor molecule, donor type, donor heavy atom, donor atom, acceptor molecule, acceptor atom, score
      L1  H     1    28       P1  7957  0.87
      P1  H  6896  6909       L1    15  1.00
      P1  H  6931  6943       L1    23  1.00
      P1  H  7989  7998       L1     1  0.82

> <Gold.PLP.Chemscore.Internal.Correction>
1.0347

> <Gold.Rescore>
     Score         DG    S(hbond)    S(metal)    S(lipo)     H(rot)  DE(clash)    DE(int)     intcor
     17.05     -18.91       2.97        0.00     112.26       3.76       0.07       1.79       ----

> <Gold.Chemscore.Fitness>
17.0454

> <Gold.Chemscore.DG>
-18.9123

> <Gold.Chemscore.ZeroCoef>
-5.4800

> <Gold.Chemscore.Hbond>
2.9746

> <Gold.Chemscore.Metal>
0.0000

> <Gold.Chemscore.Lipo>
112.2567

> <Gold.Chemscore.Internal_Hbond>
0.0000

> <Gold.Chemscore.DEClash>
0.0727

> <Gold.Chemscore.DEInternal>
1.7942

> <Gold.Chemscore.Rot>
3.7644

> <Gold.Chemscore.Internal.Correction>
   9.000000E+99

> <Gold.Chemscore.Hbonds>
donor molecule, donor type, donor heavy atom, donor atom, acceptor molecule, acceptor atom, score
      L1  H     1    28       P1  7957  0.80
      P1  H  6896  6909       L1    15  0.98
      P1  H  6931  6943       L1    23  0.88
      P1  H  7989  7998       L1     1  0.13

> <Gold.Chemscore.Hbond.Weighted>
-9.9351

> <Gold.Chemscore.Metal.Weighted>
-0.0000

> <Gold.Chemscore.Lipo.Weighted>
-13.1340

> <Gold.Chemscore.Internal_Hbond.Weighted>
0.0000

> <Gold.Chemscore.DEClash.Weighted>
0.0727

> <Gold.Chemscore.DEInternal.Weighted>
1.7942

> <Gold.Chemscore.Rot.Weighted>
9.6369

> <Gold.Chemscore.Internal.Correction.Weighted>
   9.000000E+99

> <Gold.Protein.RotatedTorsions>
[ 6907 6896 6895 6894 ] final   84.24 input  -60.11 | X-H torsion
[ 7974 7965 7964 7962 ] final  171.42 input  175.53 | X-H torsion
[ 8008 7997 7996 7995 ] final -117.28 input   59.86 | X-H torsion
[ 10167 10162 10161 10158 ] final   -3.61 input  -65.29 | X-H torsion
[ 10718 10713 10712 10709 ] final   -1.54 input   66.30 | X-H torsion
[ 10763 10752 10751 10750 ] final -115.89 input  -60.55 | X-H torsion
[ 11005 11000 10999 10996 ] final   73.84 input  -57.11 | X-H torsion

> <Gold.Protein.ActiveResidues>
 VAL166  LYS551  ARG553  GLY616  TRP617  ASP618  TYR619  PRO620  LYS621  CYS622 
 ASP623  PHE694  ASN695  SER759  ASP760  ASP761  ALA762  ILE779  LEU786  VAL792 
 PHE793  MET794  SER795  GLU796  ALA797  LYS798  CYS799  TRP800  GLU811  SER814 

> <Gold.Protein.RotatedAtoms>
  152.5347  134.2771  159.8992 H   0  0  0  0  0  0  0  0  0  0  0  0  # atno 6907 bound_to 6896
  151.2726  133.4241  159.2630 H   0  0  0  0  0  0  0  0  0  0  0  0  # atno 6908 bound_to 6896
  151.0354  134.9584  159.8190 H   0  0  0  0  0  0  0  0  0  0  0  0  # atno 6909 bound_to 6896
  144.7295  139.9347  143.6426 H   0  0  0  0  0  0  0  0  0  0  0  0  # atno 7974 bound_to 7965
  155.0813  140.0394  157.2640 H   0  0  0  0  0  0  0  0  0  0  0  0  # atno 8008 bound_to 7997
  154.6905  140.2652  155.6793 H   0  0  0  0  0  0  0  0  0  0  0  0  # atno 8009 bound_to 7997
  156.2727  140.2760  156.1481 H   0  0  0  0  0  0  0  0  0  0  0  0  # atno 8010 bound_to 7997
  140.6897  143.6519  150.8342 H   0  0  0  0  0  0  0  0  0  0  0  0  # atno 10167 bound_to 10162
  156.8041  130.5402  149.5717 H   0  0  0  0  0  0  0  0  0  0  0  0  # atno 10718 bound_to 10713
  154.8499  135.4365  154.1734 H   0  0  0  0  0  0  0  0  0  0  0  0  # atno 10763 bound_to 10752
  153.2842  135.6956  153.7361 H   0  0  0  0  0  0  0  0  0  0  0  0  # atno 10764 bound_to 10752
  153.6553  135.3444  155.3086 H   0  0  0  0  0  0  0  0  0  0  0  0  # atno 10765 bound_to 10752
  139.9420  134.7381  156.1075 H   0  0  0  0  0  0  0  0  0  0  0  0  # atno 11005 bound_to 11000
  146.0831  139.3818  143.0452 LP  0  0  0  0  0  0  0  0  0  0  0  0  # atno 17320 bound_to 7965
  145.7814  140.9854  143.1097 LP  0  0  0  0  0  0  0  0  0  0  0  0  # atno 17321 bound_to 7965
  140.0231  143.5522  152.2792 LP  0  0  0  0  0  0  0  0  0  0  0  0  # atno 17342 bound_to 10162
  139.6287  144.7641  151.2582 LP  0  0  0  0  0  0  0  0  0  0  0  0  # atno 17343 bound_to 10162
  156.1084  130.6021  151.0007 LP  0  0  0  0  0  0  0  0  0  0  0  0  # atno 17370 bound_to 10713
  157.6539  131.0892  150.7990 LP  0  0  0  0  0  0  0  0  0  0  0  0  # atno 17371 bound_to 10713
  141.1058  133.6660  156.2860 LP  0  0  0  0  0  0  0  0  0  0  0  0  # atno 17394 bound_to 11000
  140.5928  134.5633  157.5503 LP  0  0  0  0  0  0  0  0  0  0  0  0  # atno 17395 bound_to 11000

$$$$
