AV-unprocessed.smi:2658|AV-procd|sdf|10310|dock4
  -GOLD-   2272014323D 1   1.00000     0.00000
 Structure written by MMmdl.
 47 49  0  0  0  0  0  0  0  0  2 V2000
  152.8736  143.4831  161.5156 C   0  0  0  0  0  0  0  0  0  0  0  0
  152.2629  142.9409  160.2343 C   0  0  0  0  0  0  0  0  0  0  0  0
  152.3999  141.5630  159.9523 C   0  0  0  0  0  0  0  0  0  0  0  0
  151.8381  141.0987  158.7689 C   0  0  0  0  0  0  0  0  0  0  0  0
  151.8078  139.8183  158.2120 N   0  3  0  0  0  0  0  0  0  0  0  0
  151.1409  139.8546  157.0255 C   0  0  0  0  0  0  0  0  0  0  0  0
  150.7438  141.1390  156.8163 N   0  0  0  0  0  0  0  0  0  0  0  0
  150.0006  141.7181  155.6883 C   0  0  0  0  0  0  0  0  0  0  0  0
  149.2954  140.6480  154.8294 C   0  0  2  0  0  0  0  0  0  0  0  0
  150.1487  140.1293  153.8291 O   0  0  0  0  0  0  0  0  0  0  0  0
  147.9955  141.1405  154.1734 C   0  0  0  0  0  0  0  0  0  0  0  0
  147.0455  141.4836  155.1793 O   0  0  0  0  0  0  0  0  0  0  0  0
  146.1767  142.5271  154.9357 C   0  0  0  0  0  0  0  0  0  0  0  0
  146.2773  143.2241  153.7170 C   0  0  0  0  0  0  0  0  0  0  0  0
  145.3791  144.2839  153.4907 C   0  0  0  0  0  0  0  0  0  0  0  0
  145.4308  145.0832  152.2022 C   0  0  0  0  0  0  0  0  0  0  0  0
  144.4403  144.5609  154.5097 C   0  0  0  0  0  0  0  0  0  0  0  0
  143.4187  145.6742  154.3717 C   0  0  0  0  0  0  0  0  0  0  0  0
  144.3938  143.8544  155.6634 N   0  0  0  0  0  0  0  0  0  0  0  0
  145.2515  142.8510  155.8757 N   0  0  0  0  0  0  0  0  0  0  0  0
  151.1551  141.9515  157.8799 C   0  0  0  0  0  0  0  0  0  0  0  0
  151.0074  143.3110  158.1454 C   0  0  0  0  0  0  0  0  0  0  0  0
  151.5746  143.8036  159.3425 C   0  0  0  0  0  0  0  0  0  0  0  0
  151.4338  145.2835  159.6552 C   0  0  0  0  0  0  0  0  0  0  0  0
  153.3634  142.6954  162.0887 H   0  0  0  0  0  0  0  0  0  0  0  0
  152.1056  143.9278  162.1487 H   0  0  0  0  0  0  0  0  0  0  0  0
  153.6206  144.2447  161.2904 H   0  0  0  0  0  0  0  0  0  0  0  0
  152.9233  140.9007  160.6262 H   0  0  0  0  0  0  0  0  0  0  0  0
  150.9625  139.0162  156.3674 H   0  0  0  0  0  0  0  0  0  0  0  0
  149.2596  142.3990  156.1088 H   0  0  0  0  0  0  0  0  0  0  0  0
  150.6766  142.3333  155.0941 H   0  0  0  0  0  0  0  0  0  0  0  0
  149.0416  139.8047  155.4727 H   0  0  0  0  0  0  0  0  0  0  0  0
  149.6864  140.1440  153.0051 H   0  0  0  0  0  0  0  0  0  0  0  0
  148.2002  141.9867  153.5148 H   0  0  0  0  0  0  0  0  0  0  0  0
  147.5853  140.3377  153.5582 H   0  0  0  0  0  0  0  0  0  0  0  0
  147.0216  142.9511  152.9835 H   0  0  0  0  0  0  0  0  0  0  0  0
  145.5954  146.1396  152.4154 H   0  0  0  0  0  0  0  0  0  0  0  0
  144.4946  144.9826  151.6527 H   0  0  0  0  0  0  0  0  0  0  0  0
  146.2399  144.7398  151.5569 H   0  0  0  0  0  0  0  0  0  0  0  0
  142.8111  145.5245  153.4790 H   0  0  0  0  0  0  0  0  0  0  0  0
  143.9181  146.6400  154.2930 H   0  0  0  0  0  0  0  0  0  0  0  0
  142.7484  145.7100  155.2314 H   0  0  0  0  0  0  0  0  0  0  0  0
  150.4883  143.9697  157.4653 H   0  0  0  0  0  0  0  0  0  0  0  0
  150.8806  145.8057  158.8739 H   0  0  0  0  0  0  0  0  0  0  0  0
  152.4145  145.7525  159.7386 H   0  0  0  0  0  0  0  0  0  0  0  0
  150.8993  145.4275  160.5944 H   0  0  0  0  0  0  0  0  0  0  0  0
  152.2147  138.9809  158.6086 H   0  0  0  0  0  0  0  0  0  0  0  0
  1  2  1  0  0  0  0
  1 25  1  0  0  0  0
  1 26  1  0  0  0  0
  1 27  1  0  0  0  0
  2 23  1  0  0  0  0
  2  3  2  0  0  0  0
  3  4  1  0  0  0  0
  3 28  1  0  0  0  0
  4 21  2  0  0  0  0
  4  5  1  0  0  0  0
  5  6  2  0  0  0  0
  5 47  1  0  0  0  0
  6  7  1  0  0  0  0
  6 29  1  0  0  0  0
  7  8  1  0  0  0  0
  7 21  1  0  0  0  0
  8  9  1  0  0  0  0
  8 30  1  0  0  0  0
  8 31  1  0  0  0  0
  9 10  1  0  0  0  0
  9 11  1  0  0  0  0
  9 32  1  0  0  0  0
 10 33  1  0  0  0  0
 11 12  1  0  0  0  0
 11 34  1  0  0  0  0
 11 35  1  0  0  0  0
 12 13  1  0  0  0  0
 13 20  1  0  0  0  0
 13 14  2  0  0  0  0
 14 15  1  0  0  0  0
 14 36  1  0  0  0  0
 15 16  1  0  0  0  0
 15 17  2  0  0  0  0
 16 37  1  0  0  0  0
 16 38  1  0  0  0  0
 16 39  1  0  0  0  0
 17 18  1  0  0  0  0
 17 19  1  0  0  0  0
 18 40  1  0  0  0  0
 18 41  1  0  0  0  0
 18 42  1  0  0  0  0
 19 20  2  0  0  0  0
 21 22  1  0  0  0  0
 22 23  2  0  0  0  0
 22 43  1  0  0  0  0
 23 24  1  0  0  0  0
 24 44  1  0  0  0  0
 24 45  1  0  0  0  0
 24 46  1  0  0  0  0
M  CHG  1   5   1
M  END
> <s_m_source_file>
AV-unprocessed.smi

> <i_m_source_file_index>
2658

> <i_lp_mmshare_version>
43012

> <i_f3d_flags>
0

> <s_epik_input>
W0NIM11jKFtjSF0xKWMoW0NIM10pW2NIXWMoYzEyKW4oW2NIXW4yKVtDSDJdW0NASF0oW09IXSlbQ0gyXU9jM1tjSF1jKFtDSDNdKWMoW0NIM10pbm4z

> <s_epik_cmdline>
J2VwaWtfcHl0aG9uJywgJy1waCcsICc3LjAnLCAnLXRuJywgJzgnLCAnLW1hJywgJzIwMCcsICctbWV0YWxfYmluZGluZycsICctaW1hZScsICc8aW5maWxlLm1hZT4nLCAnLW9tYWUnLCAnPG91dGZpbGUubWFlPic=

> <r_lp_tautomer_probability>
1

> <r_epik_Ionization_Penalty>
1.0494

> <r_epik_Ionization_Penalty_Charging>
1.04926

> <r_epik_Ionization_Penalty_Neutral>
0.000140304

> <r_epik_State_Penalty>
1.10197

> <r_epik_Charging_Adjusted_Penalty>
2.15123

> <i_epik_Tot_Q>
1

> <i_epik_Tot_abs_Q>
1

> <r_epik_Metal_State_Penalty>
1.19636

> <b_epik_Metal_Only>
0

> <s_lp_Force_Field>
OPLS_2005

> <r_lp_Energy>
21.5781

> <b_lp_Chiralities_Consistent>
1

> <s_lp_Variant>
AV-unprocessed.smi:2658-3

> <Gold.Version>
5.8.1

> <Gold.Id.Protein>
6NUR|6NUR_protein|mol2

> <Gold.PLP.Fitness>
58.8258

> <Gold.PLP.PLP>
-55.3114

> <Gold.PLP.part.hbond>
-1.9484

> <Gold.PLP.part.metal>
0.0000

> <Gold.PLP.part.buried>
-8.2565

> <Gold.PLP.part.nonpolar>
-44.8315

> <Gold.PLP.part.repulsive>
0.4216

> <Gold.PLP.ligand.clash>
0.3988

> <Gold.PLP.ligand.torsion>
0.8083

> <Gold.PLP.Chemscore.Hbond>
1.8320

> <Gold.PLP.Chemscore.CHOScore>
0.0000

> <Gold.PLP.Chemscore.Metal>
0.0000

> <Gold.Chemscore.Hbonds>
donor molecule, donor type, donor heavy atom, donor atom, acceptor molecule, acceptor atom, score
      L1  H    10    33       P1  7957  1.00
      P1  H  7989  7998       L1    10  0.83

> <Gold.PLP.Chemscore.Internal.Correction>
0.0339

> <Gold.Rescore>
     Score         DG    S(hbond)    S(metal)    S(lipo)     H(rot)  DE(clash)    DE(int)     intcor
     19.76     -21.00       1.50        0.00     143.77       2.47       0.43       0.80       ----

> <Gold.Chemscore.Fitness>
19.7608

> <Gold.Chemscore.DG>
-20.9988

> <Gold.Chemscore.ZeroCoef>
-5.4800

> <Gold.Chemscore.Hbond>
1.5020

> <Gold.Chemscore.Metal>
0.0000

> <Gold.Chemscore.Lipo>
143.7750

> <Gold.Chemscore.Internal_Hbond>
0.0000

> <Gold.Chemscore.DEClash>
0.4347

> <Gold.Chemscore.DEInternal>
0.8033

> <Gold.Chemscore.Rot>
2.4685

> <Gold.Chemscore.Internal.Correction>
   9.000000E+99

> <Gold.Chemscore.Hbonds>
donor molecule, donor type, donor heavy atom, donor atom, acceptor molecule, acceptor atom, score
      L1  H    10    33       P1  7957  0.96
      P1  H  7989  7998       L1    10  0.32

> <Gold.Chemscore.Hbond.Weighted>
-5.0165

> <Gold.Chemscore.Metal.Weighted>
-0.0000

> <Gold.Chemscore.Lipo.Weighted>
-16.8217

> <Gold.Chemscore.Internal_Hbond.Weighted>
0.0000

> <Gold.Chemscore.DEClash.Weighted>
0.4347

> <Gold.Chemscore.DEInternal.Weighted>
0.8033

> <Gold.Chemscore.Rot.Weighted>
6.3194

> <Gold.Chemscore.Internal.Correction.Weighted>
   9.000000E+99

> <Gold.Protein.RotatedTorsions>
[ 6907 6896 6895 6894 ] final  144.21 input  -60.11 | X-H torsion
[ 7974 7965 7964 7962 ] final -107.55 input  175.53 | X-H torsion
[ 8008 7997 7996 7995 ] final  128.77 input   59.86 | X-H torsion
[ 10167 10162 10161 10158 ] final   99.45 input  -65.29 | X-H torsion
[ 10718 10713 10712 10709 ] final    4.47 input   66.30 | X-H torsion
[ 10763 10752 10751 10750 ] final   38.49 input  -60.55 | X-H torsion
[ 11005 11000 10999 10996 ] final  -27.75 input  -57.11 | X-H torsion

> <Gold.Protein.ActiveResidues>
 VAL166  LYS551  ARG553  GLY616  TRP617  ASP618  TYR619  PRO620  LYS621  CYS622 
 ASP623  PHE694  ASN695  SER759  ASP760  ASP761  ALA762  ILE779  LEU786  VAL792 
 PHE793  MET794  SER795  GLU796  ALA797  LYS798  CYS799  TRP800  GLU811  SER814 

> <Gold.Protein.RotatedAtoms>
  152.1966  133.4811  159.5035 H   0  0  0  0  0  0  0  0  0  0  0  0  # atno 6907 bound_to 6896
  150.6961  134.1645  159.4197 H   0  0  0  0  0  0  0  0  0  0  0  0  # atno 6908 bound_to 6896
  151.9561  135.0146  160.0595 H   0  0  0  0  0  0  0  0  0  0  0  0  # atno 6909 bound_to 6896
  145.2039  140.9068  143.3353 H   0  0  0  0  0  0  0  0  0  0  0  0  # atno 7974 bound_to 7965
  156.2922  140.2636  156.2490 H   0  0  0  0  0  0  0  0  0  0  0  0  # atno 8008 bound_to 7997
  154.9901  140.0389  157.2334 H   0  0  0  0  0  0  0  0  0  0  0  0  # atno 8009 bound_to 7997
  154.7693  140.2775  155.6155 H   0  0  0  0  0  0  0  0  0  0  0  0  # atno 8010 bound_to 7997
  139.7616  144.6952  151.0284 H   0  0  0  0  0  0  0  0  0  0  0  0  # atno 10167 bound_to 10162
  156.8931  130.5694  149.5649 H   0  0  0  0  0  0  0  0  0  0  0  0  # atno 10718 bound_to 10713
  152.9999  135.6248  154.2313 H   0  0  0  0  0  0  0  0  0  0  0  0  # atno 10763 bound_to 10752
  154.2055  135.2802  155.2978 H   0  0  0  0  0  0  0  0  0  0  0  0  # atno 10764 bound_to 10752
  154.5649  135.5694  153.7100 H   0  0  0  0  0  0  0  0  0  0  0  0  # atno 10765 bound_to 10752
  140.9147  133.7438  156.0719 H   0  0  0  0  0  0  0  0  0  0  0  0  # atno 11005 bound_to 11000
  144.9921  139.3679  143.6209 LP  0  0  0  0  0  0  0  0  0  0  0  0  # atno 17320 bound_to 7965
  146.3412  139.9108  142.8780 LP  0  0  0  0  0  0  0  0  0  0  0  0  # atno 17321 bound_to 7965
  140.7807  143.4690  151.0172 LP  0  0  0  0  0  0  0  0  0  0  0  0  # atno 17342 bound_to 10162
  139.8376  143.7606  152.3180 LP  0  0  0  0  0  0  0  0  0  0  0  0  # atno 17343 bound_to 10162
  156.0619  130.5670  150.9210 LP  0  0  0  0  0  0  0  0  0  0  0  0  # atno 17370 bound_to 10713
  157.6072  131.0938  150.8859 LP  0  0  0  0  0  0  0  0  0  0  0  0  # atno 17371 bound_to 10713
  140.8065  134.3449  157.5424 LP  0  0  0  0  0  0  0  0  0  0  0  0  # atno 17394 bound_to 11000
  139.8764  134.9229  156.3311 LP  0  0  0  0  0  0  0  0  0  0  0  0  # atno 17395 bound_to 11000

$$$$
