AV-unprocessed.smi:905|AV-procd|sdf|4099|dock7
  -GOLD-   22720 1593D 1   1.00000     0.00000
 Structure written by MMmdl.
 37 38  0  0  0  0  0  0  0  0  1 V2000
  144.3178  144.6125  155.0254 N   0  0  0  0  0  0  0  0  0  0  0  0
  145.0795  143.4449  154.8555 C   0  0  0  0  0  0  0  0  0  0  0  0
  144.9355  142.3766  155.6277 N   0  0  0  0  0  0  0  0  0  0  0  0
  145.8716  141.4727  155.1049 O   0  0  0  0  0  0  0  0  0  0  0  0
  146.4817  142.1221  154.0842 C   0  0  0  0  0  0  0  0  0  0  0  0
  147.5134  141.3992  153.2853 C   0  0  0  0  0  0  0  0  0  0  0  0
  148.6775  140.8926  154.1527 C   0  0  0  0  0  0  0  0  0  0  0  0
  149.1315  141.9093  155.0948 N   0  0  0  0  0  0  0  0  0  0  0  0
  150.2398  141.8166  155.8429 C   0  0  0  0  0  0  0  0  0  0  0  0
  151.0052  140.8526  155.8219 O   0  0  0  0  0  0  0  0  0  0  0  0
  150.4115  142.8960  156.6192 N   0  0  0  0  0  0  0  0  0  0  0  0
  151.5188  143.0915  157.5505 C   0  0  0  0  0  0  0  0  0  0  0  0
  151.5427  141.9709  158.6113 C   0  0  0  0  0  0  0  0  0  0  0  0
  152.6586  142.1983  159.6438 C   0  0  0  0  0  0  0  0  0  0  0  0
  152.5370  143.5811  160.3033 C   0  0  0  0  0  0  0  0  0  0  0  0
  152.5168  144.6991  159.2489 C   0  0  0  0  0  0  0  0  0  0  0  0
  151.3974  144.4738  158.2196 C   0  0  0  0  0  0  0  0  0  0  0  0
  146.0141  143.3501  153.8719 N   0  0  0  0  0  0  0  0  0  0  0  0
  144.4552  145.4043  154.4140 H   0  0  0  0  0  0  0  0  0  0  0  0
  143.6182  144.6647  155.7515 H   0  0  0  0  0  0  0  0  0  0  0  0
  147.0350  140.5635  152.7726 H   0  0  0  0  0  0  0  0  0  0  0  0
  147.8791  142.0730  152.5096 H   0  0  0  0  0  0  0  0  0  0  0  0
  148.3869  139.9899  154.6930 H   0  0  0  0  0  0  0  0  0  0  0  0
  149.5204  140.6169  153.5179 H   0  0  0  0  0  0  0  0  0  0  0  0
  148.5652  142.7408  155.1792 H   0  0  0  0  0  0  0  0  0  0  0  0
  149.7273  143.6362  156.5647 H   0  0  0  0  0  0  0  0  0  0  0  0
  152.4578  143.0684  156.9938 H   0  0  0  0  0  0  0  0  0  0  0  0
  150.5805  141.9259  159.1233 H   0  0  0  0  0  0  0  0  0  0  0  0
  151.6829  141.0009  158.1328 H   0  0  0  0  0  0  0  0  0  0  0  0
  152.6241  141.4187  160.4055 H   0  0  0  0  0  0  0  0  0  0  0  0
  153.6300  142.1106  159.1555 H   0  0  0  0  0  0  0  0  0  0  0  0
  151.6238  143.6232  160.8983 H   0  0  0  0  0  0  0  0  0  0  0  0
  153.3647  143.7372  160.9958 H   0  0  0  0  0  0  0  0  0  0  0  0
  152.3858  145.6664  159.7348 H   0  0  0  0  0  0  0  0  0  0  0  0
  153.4798  144.7376  158.7380 H   0  0  0  0  0  0  0  0  0  0  0  0
  151.4317  145.2598  157.4639 H   0  0  0  0  0  0  0  0  0  0  0  0
  150.4293  144.5633  158.7148 H   0  0  0  0  0  0  0  0  0  0  0  0
  1  2  1  0  0  0  0
  1 19  1  0  0  0  0
  1 20  1  0  0  0  0
  2 18  1  0  0  0  0
  2  3  2  0  0  0  0
  3  4  1  0  0  0  0
  4  5  1  0  0  0  0
  5  6  1  0  0  0  0
  5 18  2  0  0  0  0
  6  7  1  0  0  0  0
  6 21  1  0  0  0  0
  6 22  1  0  0  0  0
  7  8  1  0  0  0  0
  7 23  1  0  0  0  0
  7 24  1  0  0  0  0
  8  9  1  0  0  0  0
  8 25  1  0  0  0  0
  9 10  2  0  0  0  0
  9 11  1  0  0  0  0
 11 12  1  0  0  0  0
 11 26  1  0  0  0  0
 12 17  1  0  0  0  0
 12 13  1  0  0  0  0
 12 27  1  0  0  0  0
 13 14  1  0  0  0  0
 13 28  1  0  0  0  0
 13 29  1  0  0  0  0
 14 15  1  0  0  0  0
 14 30  1  0  0  0  0
 14 31  1  0  0  0  0
 15 16  1  0  0  0  0
 15 32  1  0  0  0  0
 15 33  1  0  0  0  0
 16 17  1  0  0  0  0
 16 34  1  0  0  0  0
 16 35  1  0  0  0  0
 17 36  1  0  0  0  0
 17 37  1  0  0  0  0
M  END
> <s_m_source_file>
AV-unprocessed.smi

> <i_m_source_file_index>
905

> <i_lp_mmshare_version>
43012

> <i_f3d_flags>
0

> <s_epik_input>
W05IMl1jMW5vYyhuMSlbQ0gyXVtDSDJdW05IXUMoPU8pW05IXVtDSF0yW0NIMl1bQ0gyXVtDSDJdW0NIMl1bQ0gyXTI=

> <s_epik_cmdline>
J2VwaWtfcHl0aG9uJywgJy1waCcsICc3LjAnLCAnLXRuJywgJzgnLCAnLW1hJywgJzIwMCcsICctbWV0YWxfYmluZGluZycsICctaW1hZScsICc8aW5maWxlLm1hZT4nLCAnLW9tYWUnLCAnPG91dGZpbGUubWFlPic=

> <r_lp_tautomer_probability>
1

> <r_epik_Ionization_Penalty>
0.000203748

> <r_epik_Ionization_Penalty_Charging>
0

> <r_epik_Ionization_Penalty_Neutral>
0.000203748

> <r_epik_State_Penalty>
-0

> <r_epik_Charging_Adjusted_Penalty>
0

> <i_epik_Tot_Q>
0

> <i_epik_Tot_abs_Q>
0

> <r_epik_Metal_State_Penalty>
-0

> <b_epik_Metal_Only>
0

> <s_lp_Force_Field>
OPLS_2005

> <r_lp_Energy>
0.830847

> <b_lp_Chiralities_Consistent>
1

> <s_lp_Variant>
AV-unprocessed.smi:905-1

> <Gold.Version>
5.8.1

> <Gold.Id.Protein>
6NUR|6NUR_protein|mol2

> <Gold.PLP.Fitness>
42.9233

> <Gold.PLP.PLP>
-37.4467

> <Gold.PLP.part.hbond>
-2.6781

> <Gold.PLP.part.metal>
0.0000

> <Gold.PLP.part.buried>
-5.9224

> <Gold.PLP.part.nonpolar>
-28.9219

> <Gold.PLP.part.repulsive>
0.8012

> <Gold.PLP.ligand.clash>
0.0000

> <Gold.PLP.ligand.torsion>
0.1217

> <Gold.PLP.Chemscore.Hbond>
1.9012

> <Gold.PLP.Chemscore.CHOScore>
0.0000

> <Gold.PLP.Chemscore.Metal>
0.0000

> <Gold.Chemscore.Hbonds>
donor molecule, donor type, donor heavy atom, donor atom, acceptor molecule, acceptor atom, score
      L1  H     8    25       P1  8028  0.72
      L1  H    11    26       P1  8028  0.99
      P1  H  7989  7998       L1    10  0.06

> <Gold.PLP.Chemscore.Internal.Correction>
0.0163

> <Gold.Rescore>
     Score         DG    S(hbond)    S(metal)    S(lipo)     H(rot)  DE(clash)    DE(int)     intcor
     14.69     -14.90       1.64        0.00      86.07       2.39       0.12       0.09       ----

> <Gold.Chemscore.Fitness>
14.6946

> <Gold.Chemscore.DG>
-14.9022

> <Gold.Chemscore.ZeroCoef>
-5.4800

> <Gold.Chemscore.Hbond>
1.6350

> <Gold.Chemscore.Metal>
0.0000

> <Gold.Chemscore.Lipo>
86.0726

> <Gold.Chemscore.Internal_Hbond>
0.0000

> <Gold.Chemscore.DEClash>
0.1216

> <Gold.Chemscore.DEInternal>
0.0860

> <Gold.Chemscore.Rot>
2.3865

> <Gold.Chemscore.Internal.Correction>
   9.000000E+99

> <Gold.Chemscore.Hbonds>
donor molecule, donor type, donor heavy atom, donor atom, acceptor molecule, acceptor atom, score
      L1  H     8    25       P1  8028  0.67
      L1  H    11    26       P1  8028  0.94
      P1  H  7989  7998       L1    10  0.02

> <Gold.Chemscore.Hbond.Weighted>
-5.4611

> <Gold.Chemscore.Metal.Weighted>
-0.0000

> <Gold.Chemscore.Lipo.Weighted>
-10.0705

> <Gold.Chemscore.Internal_Hbond.Weighted>
0.0000

> <Gold.Chemscore.DEClash.Weighted>
0.1216

> <Gold.Chemscore.DEInternal.Weighted>
0.0860

> <Gold.Chemscore.Rot.Weighted>
6.1093

> <Gold.Chemscore.Internal.Correction.Weighted>
   9.000000E+99

> <Gold.Protein.RotatedTorsions>
[ 6907 6896 6895 6894 ] final   47.22 input  -60.11 | X-H torsion
[ 7974 7965 7964 7962 ] final  -75.25 input  175.53 | X-H torsion
[ 8008 7997 7996 7995 ] final  138.92 input   59.86 | X-H torsion
[ 10167 10162 10161 10158 ] final  138.59 input  -65.29 | X-H torsion
[ 10718 10713 10712 10709 ] final -121.11 input   66.30 | X-H torsion
[ 10763 10752 10751 10750 ] final  171.59 input  -60.55 | X-H torsion
[ 11005 11000 10999 10996 ] final  -63.26 input  -57.11 | X-H torsion

> <Gold.Protein.ActiveResidues>
 VAL166  LYS551  ARG553  GLY616  TRP617  ASP618  TYR619  PRO620  LYS621  CYS622 
 ASP623  PHE694  ASN695  SER759  ASP760  ASP761  ALA762  ILE779  LEU786  VAL792 
 PHE793  MET794  SER795  GLU796  ALA797  LYS798  CYS799  TRP800  GLU811  SER814 

> <Gold.Protein.RotatedAtoms>
  152.2656  134.7988  160.0422 H   0  0  0  0  0  0  0  0  0  0  0  0  # atno 6907 bound_to 6896
  151.8619  133.3453  159.3714 H   0  0  0  0  0  0  0  0  0  0  0  0  # atno 6908 bound_to 6896
  150.7132  134.5125  159.5659 H   0  0  0  0  0  0  0  0  0  0  0  0  # atno 6909 bound_to 6896
  145.6285  140.9344  143.1100 H   0  0  0  0  0  0  0  0  0  0  0  0  # atno 7974 bound_to 7965
  156.2994  140.2381  156.4153 H   0  0  0  0  0  0  0  0  0  0  0  0  # atno 8008 bound_to 7997
  154.8404  140.0428  157.1558 H   0  0  0  0  0  0  0  0  0  0  0  0  # atno 8009 bound_to 7997
  154.9108  140.2990  155.5271 H   0  0  0  0  0  0  0  0  0  0  0  0  # atno 8010 bound_to 7997
  139.5106  144.6344  151.5734 H   0  0  0  0  0  0  0  0  0  0  0  0  # atno 10167 bound_to 10162
  156.1311  130.6396  150.9623 H   0  0  0  0  0  0  0  0  0  0  0  0  # atno 10718 bound_to 10713
  154.4141  135.2756  155.2018 H   0  0  0  0  0  0  0  0  0  0  0  0  # atno 10763 bound_to 10752
  154.3991  135.6048  153.5890 H   0  0  0  0  0  0  0  0  0  0  0  0  # atno 10764 bound_to 10752
  152.9831  135.5922  154.4427 H   0  0  0  0  0  0  0  0  0  0  0  0  # atno 10765 bound_to 10752
  141.1387  133.6650  156.5653 H   0  0  0  0  0  0  0  0  0  0  0  0  # atno 11005 bound_to 11000
  144.7203  139.8053  143.7384 LP  0  0  0  0  0  0  0  0  0  0  0  0  # atno 17320 bound_to 7965
  146.1376  139.4425  143.0129 LP  0  0  0  0  0  0  0  0  0  0  0  0  # atno 17321 bound_to 7965
  140.6088  143.9474  150.6438 LP  0  0  0  0  0  0  0  0  0  0  0  0  # atno 17342 bound_to 10162
  140.2710  143.3456  152.1238 LP  0  0  0  0  0  0  0  0  0  0  0  0  # atno 17343 bound_to 10162
  157.6489  131.0900  150.8094 LP  0  0  0  0  0  0  0  0  0  0  0  0  # atno 17370 bound_to 10713
  156.8178  130.4974  149.5347 LP  0  0  0  0  0  0  0  0  0  0  0  0  # atno 17371 bound_to 10713
  140.3955  134.7402  157.4748 LP  0  0  0  0  0  0  0  0  0  0  0  0  # atno 17394 bound_to 11000
  140.0534  134.6098  155.8834 LP  0  0  0  0  0  0  0  0  0  0  0  0  # atno 17395 bound_to 11000

$$$$
