AV-unprocessed.smi:1979|AV-procd|sdf|8016|dock6
  -GOLD-   2272010213D 1   1.00000     0.00000
 Structure written by MMmdl.
 28 28  0  0  0  0  0  0  0  0  1 V2000
  154.2270  142.8847  164.3993 N   0  0  0  0  0  0  0  0  0  0  0  0
  153.8023  142.8677  163.3233 C   0  0  0  0  0  0  0  0  0  0  0  0
  153.2687  142.8460  161.9722 C   0  0  0  0  0  0  0  0  0  0  0  0
  152.3311  143.8085  161.5500 C   0  0  0  0  0  0  0  0  0  0  0  0
  151.8425  143.7478  160.2304 C   0  0  0  0  0  0  0  0  0  0  0  0
  152.3126  142.7207  159.3764 C   0  0  0  0  0  0  0  0  0  0  0  0
  151.8843  142.5865  158.0497 N   0  0  0  0  0  0  0  0  0  0  0  0
  151.6180  141.2717  157.4863 C   0  0  0  0  0  0  0  0  0  0  0  0
  150.5233  141.3284  156.4160 C   0  0  0  0  0  0  0  0  0  0  0  0
  150.9753  140.6509  155.2553 O   0  0  0  0  0  0  0  0  0  0  0  0
  149.9927  139.7905  154.7026 C   0  0  0  0  0  0  0  0  0  0  0  0
  148.7943  140.6292  154.2425 C   0  0  0  0  0  0  0  0  0  0  0  0
  148.0571  139.9271  153.2649 O   0  0  0  0  0  0  0  0  0  0  0  0
  153.2104  141.7967  159.7834 N   0  0  0  0  0  0  0  0  0  0  0  0
  153.6755  141.8612  161.0498 C   0  0  0  0  0  0  0  0  0  0  0  0
  151.9879  144.5827  162.2212 H   0  0  0  0  0  0  0  0  0  0  0  0
  151.1219  144.4804  159.8992 H   0  0  0  0  0  0  0  0  0  0  0  0
  151.5181  143.3963  157.5700 H   0  0  0  0  0  0  0  0  0  0  0  0
  152.5376  140.8955  157.0373 H   0  0  0  0  0  0  0  0  0  0  0  0
  151.3337  140.5759  158.2767 H   0  0  0  0  0  0  0  0  0  0  0  0
  149.5955  140.8904  156.7879 H   0  0  0  0  0  0  0  0  0  0  0  0
  150.3162  142.3704  156.1678 H   0  0  0  0  0  0  0  0  0  0  0  0
  150.4233  139.2795  153.8401 H   0  0  0  0  0  0  0  0  0  0  0  0
  149.6862  139.0223  155.4150 H   0  0  0  0  0  0  0  0  0  0  0  0
  148.1544  140.9019  155.0823 H   0  0  0  0  0  0  0  0  0  0  0  0
  149.1442  141.5563  153.7880 H   0  0  0  0  0  0  0  0  0  0  0  0
  148.5551  139.9178  152.4620 H   0  0  0  0  0  0  0  0  0  0  0  0
  154.3928  141.1029  161.3294 H   0  0  0  0  0  0  0  0  0  0  0  0
  1  2  3  0  0  0  0
  2  3  1  0  0  0  0
  3 15  1  0  0  0  0
  3  4  2  0  0  0  0
  4  5  1  0  0  0  0
  4 16  1  0  0  0  0
  5  6  2  0  0  0  0
  5 17  1  0  0  0  0
  6  7  1  0  0  0  0
  6 14  1  0  0  0  0
  7  8  1  0  0  0  0
  7 18  1  0  0  0  0
  8  9  1  0  0  0  0
  8 19  1  0  0  0  0
  8 20  1  0  0  0  0
  9 10  1  0  0  0  0
  9 21  1  0  0  0  0
  9 22  1  0  0  0  0
 10 11  1  0  0  0  0
 11 12  1  0  0  0  0
 11 23  1  0  0  0  0
 11 24  1  0  0  0  0
 12 13  1  0  0  0  0
 12 25  1  0  0  0  0
 12 26  1  0  0  0  0
 13 27  1  0  0  0  0
 14 15  2  0  0  0  0
 15 28  1  0  0  0  0
M  END
> <s_m_source_file>
AV-unprocessed.smi

> <i_m_source_file_index>
1979

> <i_lp_mmshare_version>
43012

> <i_f3d_flags>
0

> <s_epik_input>
TiNDYzFbY0hdW2NIXWMobltjSF0xKVtOSF1bQ0gyXVtDSDJdT1tDSDJdW0NIMl1bT0hd

> <s_epik_cmdline>
J2VwaWtfcHl0aG9uJywgJy1waCcsICc3LjAnLCAnLXRuJywgJzgnLCAnLW1hJywgJzIwMCcsICctbWV0YWxfYmluZGluZycsICctaW1hZScsICc8aW5maWxlLm1hZT4nLCAnLW9tYWUnLCAnPG91dGZpbGUubWFlPic=

> <r_lp_tautomer_probability>
1

> <r_epik_Ionization_Penalty>
1.11368e-05

> <r_epik_Ionization_Penalty_Charging>
0

> <r_epik_Ionization_Penalty_Neutral>
1.11368e-05

> <r_epik_State_Penalty>
-0

> <r_epik_Charging_Adjusted_Penalty>
0

> <i_epik_Tot_Q>
0

> <i_epik_Tot_abs_Q>
0

> <r_epik_Metal_State_Penalty>
-0

> <b_epik_Metal_Only>
0

> <s_lp_Force_Field>
OPLS_2005

> <r_lp_Energy>
5.28627

> <b_lp_Chiralities_Consistent>
1

> <s_lp_Variant>
AV-unprocessed.smi:1979-1

> <Gold.Version>
5.8.1

> <Gold.Id.Protein>
6NUR|6NUR_protein|mol2

> <Gold.PLP.Fitness>
41.4988

> <Gold.PLP.PLP>
-38.4832

> <Gold.PLP.part.hbond>
-2.5778

> <Gold.PLP.part.metal>
0.0000

> <Gold.PLP.part.buried>
-4.7537

> <Gold.PLP.part.nonpolar>
-29.5900

> <Gold.PLP.part.repulsive>
0.1975

> <Gold.PLP.ligand.clash>
0.0000

> <Gold.PLP.ligand.torsion>
1.2842

> <Gold.PLP.Chemscore.Hbond>
1.8480

> <Gold.PLP.Chemscore.CHOScore>
0.0000

> <Gold.PLP.Chemscore.Metal>
0.0000

> <Gold.Chemscore.Hbonds>
donor molecule, donor type, donor heavy atom, donor atom, acceptor molecule, acceptor atom, score
      L1  H    13    27       P1  7957  1.00
      P1  H  7989  7998       L1    10  0.36

> <Gold.PLP.Chemscore.Internal.Correction>
0.0401

> <Gold.Rescore>
     Score         DG    S(hbond)    S(metal)    S(lipo)     H(rot)  DE(clash)    DE(int)     intcor
     11.08     -12.49       1.68        0.00      74.86       2.88       0.24       1.18       ----

> <Gold.Chemscore.Fitness>
11.0776

> <Gold.Chemscore.DG>
-12.4901

> <Gold.Chemscore.ZeroCoef>
-5.4800

> <Gold.Chemscore.Hbond>
1.6830

> <Gold.Chemscore.Metal>
0.0000

> <Gold.Chemscore.Lipo>
74.8623

> <Gold.Chemscore.Internal_Hbond>
0.0000

> <Gold.Chemscore.DEClash>
0.2353

> <Gold.Chemscore.DEInternal>
1.1772

> <Gold.Chemscore.Rot>
2.8788

> <Gold.Chemscore.Internal.Correction>
   9.000000E+99

> <Gold.Chemscore.Hbonds>
donor molecule, donor type, donor heavy atom, donor atom, acceptor molecule, acceptor atom, score
      L1  H    13    27       P1  7957  1.00
      P1  H  7989  7998       L1    10  0.01

> <Gold.Chemscore.Hbond.Weighted>
-5.6211

> <Gold.Chemscore.Metal.Weighted>
-0.0000

> <Gold.Chemscore.Lipo.Weighted>
-8.7589

> <Gold.Chemscore.Internal_Hbond.Weighted>
0.0000

> <Gold.Chemscore.DEClash.Weighted>
0.2353

> <Gold.Chemscore.DEInternal.Weighted>
1.1772

> <Gold.Chemscore.Rot.Weighted>
7.3699

> <Gold.Chemscore.Internal.Correction.Weighted>
   9.000000E+99

> <Gold.Protein.RotatedTorsions>
[ 6907 6896 6895 6894 ] final  170.77 input  -60.11 | X-H torsion
[ 7974 7965 7964 7962 ] final  121.06 input  175.53 | X-H torsion
[ 8008 7997 7996 7995 ] final  120.29 input   59.86 | X-H torsion
[ 10167 10162 10161 10158 ] final -130.75 input  -65.29 | X-H torsion
[ 10718 10713 10712 10709 ] final  122.44 input   66.30 | X-H torsion
[ 10763 10752 10751 10750 ] final   33.71 input  -60.55 | X-H torsion
[ 11005 11000 10999 10996 ] final -161.14 input  -57.11 | X-H torsion

> <Gold.Protein.ActiveResidues>
 VAL166  LYS551  ARG553  GLY616  TRP617  ASP618  TYR619  PRO620  LYS621  CYS622 
 ASP623  PHE694  ASN695  SER759  ASP760  ASP761  ALA762  ILE779  LEU786  VAL792 
 PHE793  MET794  SER795  GLU796  ALA797  LYS798  CYS799  TRP800  GLU811  SER814 

> <Gold.Protein.RotatedAtoms>
  151.8107  133.3381  159.3554 H   0  0  0  0  0  0  0  0  0  0  0  0  # atno 6907 bound_to 6896
  150.7327  134.5666  159.5878 H   0  0  0  0  0  0  0  0  0  0  0  0  # atno 6908 bound_to 6896
  152.3077  134.7537  160.0395 H   0  0  0  0  0  0  0  0  0  0  0  0  # atno 6909 bound_to 6896
  145.1238  139.3372  143.4700 H   0  0  0  0  0  0  0  0  0  0  0  0  # atno 7974 bound_to 7965
  156.2636  140.2834  156.1126 H   0  0  0  0  0  0  0  0  0  0  0  0  # atno 8008 bound_to 7997
  155.1241  140.0392  157.2775 H   0  0  0  0  0  0  0  0  0  0  0  0  # atno 8009 bound_to 7997
  154.6649  140.2575  155.7075 H   0  0  0  0  0  0  0  0  0  0  0  0  # atno 8010 bound_to 7997
  139.9261  143.6326  152.2541 H   0  0  0  0  0  0  0  0  0  0  0  0  # atno 10167 bound_to 10162
  157.5742  131.1081  150.8310 H   0  0  0  0  0  0  0  0  0  0  0  0  # atno 10718 bound_to 10713
  153.0199  135.6380  154.1553 H   0  0  0  0  0  0  0  0  0  0  0  0  # atno 10763 bound_to 10752
  154.1289  135.2842  155.3192 H   0  0  0  0  0  0  0  0  0  0  0  0  # atno 10764 bound_to 10752
  154.6209  135.5525  153.7636 H   0  0  0  0  0  0  0  0  0  0  0  0  # atno 10765 bound_to 10752
  140.6238  134.4723  157.5225 H   0  0  0  0  0  0  0  0  0  0  0  0  # atno 11005 bound_to 11000
  146.3519  140.1208  142.8600 LP  0  0  0  0  0  0  0  0  0  0  0  0  # atno 17320 bound_to 7965
  145.0711  140.9156  143.4881 LP  0  0  0  0  0  0  0  0  0  0  0  0  # atno 17321 bound_to 7965
  139.6821  144.7654  151.1590 LP  0  0  0  0  0  0  0  0  0  0  0  0  # atno 17342 bound_to 10162
  140.7650  143.5710  150.8996 LP  0  0  0  0  0  0  0  0  0  0  0  0  # atno 17343 bound_to 10162
  156.8773  130.5167  149.5293 LP  0  0  0  0  0  0  0  0  0  0  0  0  # atno 17370 bound_to 10713
  156.0787  130.5803  150.9522 LP  0  0  0  0  0  0  0  0  0  0  0  0  # atno 17371 bound_to 10713
  139.9143  134.8279  156.1420 LP  0  0  0  0  0  0  0  0  0  0  0  0  # atno 17394 bound_to 11000
  141.0724  133.6791  156.2167 LP  0  0  0  0  0  0  0  0  0  0  0  0  # atno 17395 bound_to 11000

$$$$
