AV-unprocessed.smi:3137|AV-procd|sdf|11953|dock4
  -GOLD-   2272017353D 1   1.00000     0.00000
 Structure written by MMmdl.
 40 40  0  0  0  0  0  0  0  0  2 V2000
  144.9778  144.9595  152.8960 C   0  0  0  0  0  0  0  0  0  0  0  0
  145.1405  143.8992  153.9894 C   0  0  0  0  0  0  0  0  0  0  0  0
  146.4191  143.2153  153.8555 N   0  0  0  0  0  0  0  0  0  0  0  0
  146.8384  142.2302  154.6626 C   0  0  0  0  0  0  0  0  0  0  0  0
  146.1741  141.8065  155.6086 O   0  0  0  0  0  0  0  0  0  0  0  0
  148.2192  141.6422  154.3546 C   0  0  0  0  0  0  0  0  0  0  0  0
  149.0179  141.2909  155.6213 C   0  0  0  0  0  0  0  0  0  0  0  0
  150.0319  142.3274  155.9098 N   0  3  0  0  0  0  0  0  0  0  0  0
  150.6715  142.2488  157.2443 C   0  0  1  0  0  0  0  0  0  0  0  0
  151.4119  140.9096  157.3625 C   0  0  0  0  0  0  0  0  0  0  0  0
  151.6476  143.4237  157.4875 C   0  0  0  0  0  0  0  0  0  0  0  0
  151.9284  143.6715  158.8901 N   0  0  0  0  0  0  0  0  0  0  0  0
  152.5514  142.8434  159.8000 C   0  0  0  0  0  0  0  0  0  0  0  0
  152.5827  143.4992  160.9981 C   0  0  0  0  0  0  0  0  0  0  0  0
  153.1588  143.0372  162.3054 C   0  0  0  0  0  0  0  0  0  0  0  0
  151.9296  144.7330  160.7178 C   0  0  0  0  0  0  0  0  0  0  0  0
  151.5354  144.8310  159.4587 N   0  0  0  0  0  0  0  0  0  0  0  0
  144.0215  145.4732  152.9947 H   0  0  0  0  0  0  0  0  0  0  0  0
  145.0124  144.5115  151.9026 H   0  0  0  0  0  0  0  0  0  0  0  0
  145.7658  145.7113  152.9542 H   0  0  0  0  0  0  0  0  0  0  0  0
  145.0780  144.3680  154.9725 H   0  0  0  0  0  0  0  0  0  0  0  0
  144.3297  143.1723  153.9254 H   0  0  0  0  0  0  0  0  0  0  0  0
  147.0221  143.5120  153.1018 H   0  0  0  0  0  0  0  0  0  0  0  0
  148.1003  140.7503  153.7375 H   0  0  0  0  0  0  0  0  0  0  0  0
  148.7708  142.3675  153.7558 H   0  0  0  0  0  0  0  0  0  0  0  0
  148.3407  141.1931  156.4678 H   0  0  0  0  0  0  0  0  0  0  0  0
  149.5152  140.3283  155.4935 H   0  0  0  0  0  0  0  0  0  0  0  0
  150.7634  142.2152  155.2225 H   0  0  0  0  0  0  0  0  0  0  0  0
  149.8958  142.2476  158.0117 H   0  0  0  0  0  0  0  0  0  0  0  0
  151.8630  140.7959  158.3487 H   0  0  0  0  0  0  0  0  0  0  0  0
  152.2079  140.8268  156.6217 H   0  0  0  0  0  0  0  0  0  0  0  0
  150.7314  140.0699  157.2170 H   0  0  0  0  0  0  0  0  0  0  0  0
  152.6016  143.2213  156.9986 H   0  0  0  0  0  0  0  0  0  0  0  0
  151.2613  144.3400  157.0385 H   0  0  0  0  0  0  0  0  0  0  0  0
  152.9231  141.8679  159.5229 H   0  0  0  0  0  0  0  0  0  0  0  0
  153.3012  143.8652  163.0005 H   0  0  0  0  0  0  0  0  0  0  0  0
  154.1300  142.5602  162.1724 H   0  0  0  0  0  0  0  0  0  0  0  0
  152.5088  142.3134  162.7971 H   0  0  0  0  0  0  0  0  0  0  0  0
  151.7305  145.5554  161.3892 H   0  0  0  0  0  0  0  0  0  0  0  0
  149.6243  143.2440  155.7928 H   0  0  0  0  0  0  0  0  0  0  0  0
  1  2  1  0  0  0  0
  1 18  1  0  0  0  0
  1 19  1  0  0  0  0
  1 20  1  0  0  0  0
  2  3  1  0  0  0  0
  2 21  1  0  0  0  0
  2 22  1  0  0  0  0
  3  4  1  0  0  0  0
  3 23  1  0  0  0  0
  4  5  2  0  0  0  0
  4  6  1  0  0  0  0
  6  7  1  0  0  0  0
  6 24  1  0  0  0  0
  6 25  1  0  0  0  0
  7  8  1  0  0  0  0
  7 26  1  0  0  0  0
  7 27  1  0  0  0  0
  8  9  1  0  0  0  0
  8 28  1  0  0  0  0
  8 40  1  0  0  0  0
  9 10  1  0  0  0  0
  9 11  1  0  0  0  0
  9 29  1  0  0  0  0
 10 30  1  0  0  0  0
 10 31  1  0  0  0  0
 10 32  1  0  0  0  0
 11 12  1  0  0  0  0
 11 33  1  0  0  0  0
 11 34  1  0  0  0  0
 12 17  1  0  0  0  0
 12 13  1  0  0  0  0
 13 14  2  0  0  0  0
 13 35  1  0  0  0  0
 14 15  1  0  0  0  0
 14 16  1  0  0  0  0
 15 36  1  0  0  0  0
 15 37  1  0  0  0  0
 15 38  1  0  0  0  0
 16 17  2  0  0  0  0
 16 39  1  0  0  0  0
M  CHG  1   8   1
M  END
> <s_m_source_file>
AV-unprocessed.smi

> <i_m_source_file_index>
3137

> <i_lp_mmshare_version>
43012

> <i_f3d_flags>
0

> <s_epik_input>
W0NIM11bQ0gyXVtOSF1DKD1PKVtDSDJdW0NIMl1bTkhdW0NASF0oW0NIM10pW0NIMl1uMVtjSF1jKFtDSDNdKVtjSF1uMQ==

> <s_epik_cmdline>
J2VwaWtfcHl0aG9uJywgJy1waCcsICc3LjAnLCAnLXRuJywgJzgnLCAnLW1hJywgJzIwMCcsICctbWV0YWxfYmluZGluZycsICctaW1hZScsICc8aW5maWxlLm1hZT4nLCAnLW9tYWUnLCAnPG91dGZpbGUubWFlPic=

> <r_lp_tautomer_probability>
1

> <r_epik_Ionization_Penalty>
0.00598586

> <r_epik_Ionization_Penalty_Charging>
0.00597743

> <r_epik_Ionization_Penalty_Neutral>
8.43172e-06

> <r_epik_State_Penalty>
0.00439883

> <r_epik_Charging_Adjusted_Penalty>
0.0103763

> <i_epik_Tot_Q>
1

> <i_epik_Tot_abs_Q>
1

> <r_epik_Metal_State_Penalty>
-0

> <b_epik_Metal_Only>
0

> <s_lp_Force_Field>
OPLS_2005

> <r_lp_Energy>
6.05872

> <b_lp_Chiralities_Consistent>
1

> <s_lp_Variant>
AV-unprocessed.smi:3137-2

> <Gold.Version>
5.8.1

> <Gold.Id.Protein>
6NUR|6NUR_protein|mol2

> <Gold.PLP.Fitness>
49.3760

> <Gold.PLP.PLP>
-44.9652

> <Gold.PLP.part.hbond>
-1.0000

> <Gold.PLP.part.metal>
0.0000

> <Gold.PLP.part.buried>
-6.8481

> <Gold.PLP.part.nonpolar>
-37.5075

> <Gold.PLP.part.repulsive>
0.5947

> <Gold.PLP.ligand.clash>
0.0000

> <Gold.PLP.ligand.torsion>
0.8610

> <Gold.PLP.Chemscore.Hbond>
2.0000

> <Gold.PLP.Chemscore.CHOScore>
0.0000

> <Gold.PLP.Chemscore.Metal>
0.0000

> <Gold.Chemscore.Hbonds>
donor molecule, donor type, donor heavy atom, donor atom, acceptor molecule, acceptor atom, score
      L1  H     8    40       P1  8028  2.00

> <Gold.PLP.Chemscore.Internal.Correction>
0.1328

> <Gold.Rescore>
     Score         DG    S(hbond)    S(metal)    S(lipo)     H(rot)  DE(clash)    DE(int)     intcor
     13.92     -14.76       1.00        0.00     101.04       2.30       0.06       0.77       ----

> <Gold.Chemscore.Fitness>
13.9234

> <Gold.Chemscore.DG>
-14.7627

> <Gold.Chemscore.ZeroCoef>
-5.4800

> <Gold.Chemscore.Hbond>
0.9999

> <Gold.Chemscore.Metal>
0.0000

> <Gold.Chemscore.Lipo>
101.0384

> <Gold.Chemscore.Internal_Hbond>
0.0000

> <Gold.Chemscore.DEClash>
0.0645

> <Gold.Chemscore.DEInternal>
0.7748

> <Gold.Chemscore.Rot>
2.2963

> <Gold.Chemscore.Internal.Correction>
   9.000000E+99

> <Gold.Chemscore.Hbonds>
donor molecule, donor type, donor heavy atom, donor atom, acceptor molecule, acceptor atom, score
      L1  H     8    40       P1  8028  1.00

> <Gold.Chemscore.Hbond.Weighted>
-3.3398

> <Gold.Chemscore.Metal.Weighted>
-0.0000

> <Gold.Chemscore.Lipo.Weighted>
-11.8215

> <Gold.Chemscore.Internal_Hbond.Weighted>
0.0000

> <Gold.Chemscore.DEClash.Weighted>
0.0645

> <Gold.Chemscore.DEInternal.Weighted>
0.7748

> <Gold.Chemscore.Rot.Weighted>
5.8786

> <Gold.Chemscore.Internal.Correction.Weighted>
   9.000000E+99

> <Gold.Protein.RotatedTorsions>
[ 6907 6896 6895 6894 ] final -138.08 input  -60.11 | X-H torsion
[ 7974 7965 7964 7962 ] final -113.97 input  175.53 | X-H torsion
[ 8008 7997 7996 7995 ] final   54.86 input   59.86 | X-H torsion
[ 10167 10162 10161 10158 ] final   23.76 input  -65.29 | X-H torsion
[ 10718 10713 10712 10709 ] final  -87.77 input   66.30 | X-H torsion
[ 10763 10752 10751 10750 ] final  146.10 input  -60.55 | X-H torsion
[ 11005 11000 10999 10996 ] final  122.36 input  -57.11 | X-H torsion

> <Gold.Protein.ActiveResidues>
 VAL166  LYS551  ARG553  GLY616  TRP617  ASP618  TYR619  PRO620  LYS621  CYS622 
 ASP623  PHE694  ASN695  SER759  ASP760  ASP761  ALA762  ILE779  LEU786  VAL792 
 PHE793  MET794  SER795  GLU796  ALA797  LYS798  CYS799  TRP800  GLU811  SER814 

> <Gold.Protein.RotatedAtoms>
  151.0305  133.5794  159.2661 H   0  0  0  0  0  0  0  0  0  0  0  0  # atno 6907 bound_to 6896
  151.2878  135.0732  159.9203 H   0  0  0  0  0  0  0  0  0  0  0  0  # atno 6908 bound_to 6896
  152.5343  134.0009  159.7948 H   0  0  0  0  0  0  0  0  0  0  0  0  # atno 6909 bound_to 6896
  145.1257  140.8695  143.3788 H   0  0  0  0  0  0  0  0  0  0  0  0  # atno 7974 bound_to 7965
  155.4916  140.3471  155.4356 H   0  0  0  0  0  0  0  0  0  0  0  0  # atno 8008 bound_to 7997
  156.0973  140.1426  156.9542 H   0  0  0  0  0  0  0  0  0  0  0  0  # atno 8009 bound_to 7997
  154.4671  140.0913  156.7027 H   0  0  0  0  0  0  0  0  0  0  0  0  # atno 8010 bound_to 7997
  140.5243  143.9950  150.6432 H   0  0  0  0  0  0  0  0  0  0  0  0  # atno 10167 bound_to 10162
  155.9984  130.4812  150.4918 H   0  0  0  0  0  0  0  0  0  0  0  0  # atno 10718 bound_to 10713
  154.0163  135.2910  155.3386 H   0  0  0  0  0  0  0  0  0  0  0  0  # atno 10763 bound_to 10752
  154.7073  135.5164  153.8617 H   0  0  0  0  0  0  0  0  0  0  0  0  # atno 10764 bound_to 10752
  153.0700  135.6644  154.0390 H   0  0  0  0  0  0  0  0  0  0  0  0  # atno 10765 bound_to 10752
  139.9265  134.9641  156.8098 H   0  0  0  0  0  0  0  0  0  0  0  0  # atno 11005 bound_to 11000
  145.0691  139.3045  143.5841 LP  0  0  0  0  0  0  0  0  0  0  0  0  # atno 17320 bound_to 7965
  146.3518  140.0159  142.8663 LP  0  0  0  0  0  0  0  0  0  0  0  0  # atno 17321 bound_to 7965
  140.3308  143.3079  152.0689 LP  0  0  0  0  0  0  0  0  0  0  0  0  # atno 17342 bound_to 10162
  139.4933  144.6510  151.6674 LP  0  0  0  0  0  0  0  0  0  0  0  0  # atno 17343 bound_to 10162
  157.2912  131.0626  151.2132 LP  0  0  0  0  0  0  0  0  0  0  0  0  # atno 17370 bound_to 10713
  157.3144  130.6906  149.6234 LP  0  0  0  0  0  0  0  0  0  0  0  0  # atno 17371 bound_to 10713
  140.6321  133.9896  155.7667 LP  0  0  0  0  0  0  0  0  0  0  0  0  # atno 17394 bound_to 11000
  141.0826  134.0039  157.3362 LP  0  0  0  0  0  0  0  0  0  0  0  0  # atno 17395 bound_to 11000

$$$$
