AV-unprocessed.smi:3310|AV-procd|sdf|12718|dock2
  -GOLD-   2272019 53D 1   1.00000     0.00000
 Structure written by MMmdl.
 45 46  0  0  0  0  0  0  0  0  2 V2000
  145.9932  141.8106  154.9955 C   0  0  0  0  0  0  0  0  0  0  0  0
  147.0272  142.0949  153.9007 C   0  0  0  0  0  0  0  0  0  0  0  0
  148.1617  141.1181  153.9137 C   0  0  0  0  0  0  0  0  0  0  0  0
  149.4401  141.4791  154.0764 N   0  0  0  0  0  0  0  0  0  0  0  0
  150.1698  140.3095  154.0071 N   0  0  0  0  0  0  0  0  0  0  0  0
  149.2602  139.3590  153.8000 C   0  0  0  0  0  0  0  0  0  0  0  0
  147.9919  139.7917  153.7289 N   0  0  0  0  0  0  0  0  0  0  0  0
  146.7878  139.0108  153.5114 C   0  0  0  0  0  0  0  0  0  0  0  0
  146.4847  138.8494  152.0155 C   0  0  0  0  0  0  0  0  0  0  0  0
  146.5237  137.4296  151.6157 N   0  3  0  0  0  0  0  0  0  0  0  0
  145.6796  136.5491  152.4480 C   0  0  0  0  0  0  0  0  0  0  0  0
  145.9512  135.0606  152.1613 C   0  0  2  0  0  0  0  0  0  0  0  0
  145.6550  134.7248  150.6860 C   0  0  0  0  0  0  0  0  0  0  0  0
  145.9018  133.2383  150.3735 C   0  0  0  0  0  0  0  0  0  0  0  0
  145.1070  132.3001  151.3028 C   0  0  2  0  0  0  0  0  0  0  0  0
  143.6047  132.2709  150.9706 C   0  0  0  0  0  0  0  0  0  0  0  0
  145.3802  132.6494  152.7789 C   0  0  0  0  0  0  0  0  0  0  0  0
  145.1325  134.1362  153.0881 C   0  0  0  0  0  0  0  0  0  0  0  0
  145.1764  142.5314  154.9556 H   0  0  0  0  0  0  0  0  0  0  0  0
  146.4424  141.8697  155.9870 H   0  0  0  0  0  0  0  0  0  0  0  0
  145.5638  140.8147  154.8813 H   0  0  0  0  0  0  0  0  0  0  0  0
  146.5440  142.0510  152.9240 H   0  0  0  0  0  0  0  0  0  0  0  0
  147.4125  143.1093  154.0014 H   0  0  0  0  0  0  0  0  0  0  0  0
  149.5274  138.3173  153.6968 H   0  0  0  0  0  0  0  0  0  0  0  0
  146.9019  138.0388  153.9921 H   0  0  0  0  0  0  0  0  0  0  0  0
  145.9597  139.5130  154.0133 H   0  0  0  0  0  0  0  0  0  0  0  0
  145.4973  139.2555  151.7903 H   0  0  0  0  0  0  0  0  0  0  0  0
  147.2071  139.4105  151.4212 H   0  0  0  0  0  0  0  0  0  0  0  0
  146.2200  137.3532  150.6554 H   0  0  0  0  0  0  0  0  0  0  0  0
  145.8510  136.7656  153.5034 H   0  0  0  0  0  0  0  0  0  0  0  0
  144.6343  136.7829  152.2412 H   0  0  0  0  0  0  0  0  0  0  0  0
  147.0113  134.8689  152.3354 H   0  0  0  0  0  0  0  0  0  0  0  0
  144.6235  134.9856  150.4456 H   0  0  0  0  0  0  0  0  0  0  0  0
  146.2807  135.3357  150.0342 H   0  0  0  0  0  0  0  0  0  0  0  0
  145.6583  133.0308  149.3309 H   0  0  0  0  0  0  0  0  0  0  0  0
  146.9667  133.0274  150.4811 H   0  0  0  0  0  0  0  0  0  0  0  0
  145.4763  131.2876  151.1346 H   0  0  0  0  0  0  0  0  0  0  0  0
  143.1339  133.2443  151.1060 H   0  0  0  0  0  0  0  0  0  0  0  0
  143.0784  131.5597  151.6075 H   0  0  0  0  0  0  0  0  0  0  0  0
  143.4393  131.9670  149.9367 H   0  0  0  0  0  0  0  0  0  0  0  0
  144.7701  132.0251  153.4328 H   0  0  0  0  0  0  0  0  0  0  0  0
  146.4176  132.4082  153.0152 H   0  0  0  0  0  0  0  0  0  0  0  0
  145.3872  134.3266  154.1309 H   0  0  0  0  0  0  0  0  0  0  0  0
  144.0698  134.3602  152.9913 H   0  0  0  0  0  0  0  0  0  0  0  0
  147.4786  137.1069  151.6794 H   0  0  0  0  0  0  0  0  0  0  0  0
  1  2  1  0  0  0  0
  1 19  1  0  0  0  0
  1 20  1  0  0  0  0
  1 21  1  0  0  0  0
  2  3  1  0  0  0  0
  2 22  1  0  0  0  0
  2 23  1  0  0  0  0
  3  7  1  0  0  0  0
  3  4  2  0  0  0  0
  4  5  1  0  0  0  0
  5  6  2  0  0  0  0
  6  7  1  0  0  0  0
  6 24  1  0  0  0  0
  7  8  1  0  0  0  0
  8  9  1  0  0  0  0
  8 25  1  0  0  0  0
  8 26  1  0  0  0  0
  9 10  1  0  0  0  0
  9 27  1  0  0  0  0
  9 28  1  0  0  0  0
 10 11  1  0  0  0  0
 10 29  1  0  0  0  0
 10 45  1  0  0  0  0
 11 12  1  0  0  0  0
 11 30  1  0  0  0  0
 11 31  1  0  0  0  0
 12 18  1  0  0  0  0
 12 13  1  0  0  0  0
 12 32  1  0  0  0  0
 13 14  1  0  0  0  0
 13 33  1  0  0  0  0
 13 34  1  0  0  0  0
 14 15  1  0  0  0  0
 14 35  1  0  0  0  0
 14 36  1  0  0  0  0
 15 16  1  0  0  0  0
 15 17  1  0  0  0  0
 15 37  1  0  0  0  0
 16 38  1  0  0  0  0
 16 39  1  0  0  0  0
 16 40  1  0  0  0  0
 17 18  1  0  0  0  0
 17 41  1  0  0  0  0
 17 42  1  0  0  0  0
 18 43  1  0  0  0  0
 18 44  1  0  0  0  0
M  CHG  1  10   1
M  END
> <s_m_source_file>
AV-unprocessed.smi

> <i_m_source_file_index>
3310

> <i_lp_mmshare_version>
43012

> <i_f3d_flags>
0

> <s_epik_input>
W0NIM11bQ0gyXWMxbm5bY0hdbjFbQ0gyXVtDSDJdW05IXVtDSDJdW0NAQEhdMltDSDJdW0NIMl1bQ0BASF0oW0NIM10pW0NIMl1bQ0gyXTI=

> <s_epik_cmdline>
J2VwaWtfcHl0aG9uJywgJy1waCcsICc3LjAnLCAnLXRuJywgJzgnLCAnLW1hJywgJzIwMCcsICctbWV0YWxfYmluZGluZycsICctaW1hZScsICc8aW5maWxlLm1hZT4nLCAnLW9tYWUnLCAnPG91dGZpbGUubWFlPic=

> <r_lp_tautomer_probability>
1

> <r_epik_Ionization_Penalty>
0.00127868

> <r_epik_Ionization_Penalty_Charging>
0.00126792

> <r_epik_Ionization_Penalty_Neutral>
1.07546e-05

> <r_epik_State_Penalty>
-0

> <r_epik_Charging_Adjusted_Penalty>
0.00126792

> <i_epik_Tot_Q>
1

> <i_epik_Tot_abs_Q>
1

> <r_epik_Metal_State_Penalty>
-0

> <b_epik_Metal_Only>
0

> <s_lp_Force_Field>
OPLS_2005

> <r_lp_Energy>
17.5761

> <b_lp_Chiralities_Consistent>
1

> <s_lp_Variant>
AV-unprocessed.smi:3310-2

> <Gold.Version>
5.8.1

> <Gold.Id.Protein>
6NUR|6NUR_protein|mol2

> <Gold.PLP.Fitness>
44.0883

> <Gold.PLP.PLP>
-34.5083

> <Gold.PLP.part.hbond>
-4.0000

> <Gold.PLP.part.metal>
0.0000

> <Gold.PLP.part.buried>
0.9600

> <Gold.PLP.part.nonpolar>
-30.9693

> <Gold.PLP.part.repulsive>
1.2977

> <Gold.PLP.ligand.clash>
0.0000

> <Gold.PLP.ligand.torsion>
0.7903

> <Gold.PLP.Chemscore.Hbond>
3.2900

> <Gold.PLP.Chemscore.CHOScore>
0.3954

> <Gold.PLP.Chemscore.Metal>
0.0000

> <Gold.Chemscore.Hbonds>
donor molecule, donor type, donor heavy atom, donor atom, acceptor molecule, acceptor atom, score
      L1  H    10    45       P1  7948  2.00
      P1  H  7989  7998       L1     5  0.85
      P1  H  8011  8017       L1     4  0.67
      L1  C     6    24       P1  7948  0.31

> <Gold.PLP.Chemscore.Internal.Correction>
0.1043

> <Gold.Rescore>
     Score         DG    S(hbond)    S(metal)    S(lipo)     H(rot)  DE(clash)    DE(int)     intcor
     13.04     -14.01       1.68        0.00      69.39       2.03       0.11       0.85       ----

> <Gold.Chemscore.Fitness>
13.0448

> <Gold.Chemscore.DG>
-14.0074

> <Gold.Chemscore.ZeroCoef>
-5.4800

> <Gold.Chemscore.Hbond>
1.6780

> <Gold.Chemscore.Metal>
0.0000

> <Gold.Chemscore.Lipo>
69.3869

> <Gold.Chemscore.Internal_Hbond>
0.0000

> <Gold.Chemscore.DEClash>
0.1119

> <Gold.Chemscore.DEInternal>
0.8507

> <Gold.Chemscore.Rot>
2.0295

> <Gold.Chemscore.Internal.Correction>
   9.000000E+99

> <Gold.Chemscore.Hbonds>
donor molecule, donor type, donor heavy atom, donor atom, acceptor molecule, acceptor atom, score
      L1  H    10    45       P1  7948  1.00
      P1  H  7989  7998       L1     5  0.25
      P1  H  8011  8017       L1     4  0.09

> <Gold.Chemscore.Hbond.Weighted>
-5.6047

> <Gold.Chemscore.Metal.Weighted>
-0.0000

> <Gold.Chemscore.Lipo.Weighted>
-8.1183

> <Gold.Chemscore.Internal_Hbond.Weighted>
0.0000

> <Gold.Chemscore.DEClash.Weighted>
0.1119

> <Gold.Chemscore.DEInternal.Weighted>
0.8507

> <Gold.Chemscore.Rot.Weighted>
5.1956

> <Gold.Chemscore.Internal.Correction.Weighted>
   9.000000E+99

> <Gold.Protein.RotatedTorsions>
[ 6907 6896 6895 6894 ] final  148.30 input  -60.11 | X-H torsion
[ 7974 7965 7964 7962 ] final  147.22 input  175.53 | X-H torsion
[ 8008 7997 7996 7995 ] final  -11.57 input   59.86 | X-H torsion
[ 10167 10162 10161 10158 ] final  116.44 input  -65.29 | X-H torsion
[ 10718 10713 10712 10709 ] final    9.69 input   66.30 | X-H torsion
[ 10763 10752 10751 10750 ] final   52.93 input  -60.55 | X-H torsion
[ 11005 11000 10999 10996 ] final -141.87 input  -57.11 | X-H torsion

> <Gold.Protein.ActiveResidues>
 VAL166  LYS551  ARG553  GLY616  TRP617  ASP618  TYR619  PRO620  LYS621  CYS622 
 ASP623  PHE694  ASN695  SER759  ASP760  ASP761  ALA762  ILE779  LEU786  VAL792 
 PHE793  MET794  SER795  GLU796  ALA797  LYS798  CYS799  TRP800  GLU811  SER814 

> <Gold.Protein.RotatedAtoms>
  152.1433  133.4477  159.4777 H   0  0  0  0  0  0  0  0  0  0  0  0  # atno 6907 bound_to 6896
  150.6888  134.2279  159.4432 H   0  0  0  0  0  0  0  0  0  0  0  0  # atno 6908 bound_to 6896
  152.0171  134.9843  160.0620 H   0  0  0  0  0  0  0  0  0  0  0  0  # atno 6909 bound_to 6896
  144.8608  139.6002  143.5931 H   0  0  0  0  0  0  0  0  0  0  0  0  # atno 7974 bound_to 7965
  154.5453  140.2299  155.8573 H   0  0  0  0  0  0  0  0  0  0  0  0  # atno 8008 bound_to 7997
  156.1897  140.3080  155.9269 H   0  0  0  0  0  0  0  0  0  0  0  0  # atno 8009 bound_to 7997
  155.3176  140.0439  157.3028 H   0  0  0  0  0  0  0  0  0  0  0  0  # atno 8010 bound_to 7997
  139.6247  144.7106  151.2559 H   0  0  0  0  0  0  0  0  0  0  0  0  # atno 10167 bound_to 10162
  156.9701  130.5965  149.5668 H   0  0  0  0  0  0  0  0  0  0  0  0  # atno 10718 bound_to 10713
  152.9792  135.5796  154.4659 H   0  0  0  0  0  0  0  0  0  0  0  0  # atno 10763 bound_to 10752
  154.4229  135.2772  155.1965 H   0  0  0  0  0  0  0  0  0  0  0  0  # atno 10764 bound_to 10752
  154.3707  135.6168  153.5792 H   0  0  0  0  0  0  0  0  0  0  0  0  # atno 10765 bound_to 10752
  140.8281  134.2550  157.4869 H   0  0  0  0  0  0  0  0  0  0  0  0  # atno 11005 bound_to 11000
  146.2859  139.7003  142.9196 LP  0  0  0  0  0  0  0  0  0  0  0  0  # atno 17320 bound_to 7965
  145.4315  141.0415  143.2908 LP  0  0  0  0  0  0  0  0  0  0  0  0  # atno 17321 bound_to 7965
  140.7403  143.6590  150.8180 LP  0  0  0  0  0  0  0  0  0  0  0  0  # atno 17342 bound_to 10162
  140.0207  143.5546  152.2802 LP  0  0  0  0  0  0  0  0  0  0  0  0  # atno 17343 bound_to 10162
  156.0286  130.5379  150.8475 LP  0  0  0  0  0  0  0  0  0  0  0  0  # atno 17370 bound_to 10713
  157.5599  131.0945  150.9575 LP  0  0  0  0  0  0  0  0  0  0  0  0  # atno 17371 bound_to 10713
  139.8706  134.9571  156.4260 LP  0  0  0  0  0  0  0  0  0  0  0  0  # atno 17394 bound_to 11000
  140.9027  133.7768  155.9699 LP  0  0  0  0  0  0  0  0  0  0  0  0  # atno 17395 bound_to 11000

$$$$
