AV-unprocessed.smi:651|AV-procd|sdf|3188|dock1
  -GOLD-   22720 0113D 1   1.00000     0.00000
 Structure written by MMmdl.
 39 40  0  0  0  0  0  0  0  0  2 V2000
  153.9083  142.8222  163.5635 C   0  0  0  0  0  0  0  0  0  0  0  0
  153.2776  143.0192  162.2013 C   0  0  0  0  0  0  0  0  0  0  0  0
  153.6181  142.2166  161.0915 C   0  0  0  0  0  0  0  0  0  0  0  0
  152.9843  142.4487  159.8535 C   0  0  0  0  0  0  0  0  0  0  0  0
  152.0199  143.4760  159.7497 C   0  0  0  0  0  0  0  0  0  0  0  0
  151.3020  143.7359  158.4367 C   0  0  0  0  0  0  0  0  0  0  0  0
  150.6235  142.4572  157.9440 C   0  0  0  0  0  0  0  0  0  0  0  0
  150.8105  141.3946  158.5354 O   0  0  0  0  0  0  0  0  0  0  0  0
  149.8522  142.5727  156.8519 N   0  0  0  0  0  0  0  0  0  0  0  0
  149.1618  141.4717  156.1860 C   0  0  2  0  0  0  0  0  0  0  0  0
  149.4971  141.3984  154.6853 C   0  0  0  0  0  0  0  0  0  0  0  0
  148.2026  140.9623  154.0069 C   0  0  0  0  0  0  0  0  0  0  0  0
  147.1105  141.6428  154.8275 C   0  0  0  0  0  0  0  0  0  0  0  0
  147.6226  141.6506  156.2809 C   0  0  1  0  0  0  0  0  0  0  0  0
  146.9627  140.5551  157.1350 C   0  0  0  0  0  0  0  0  0  0  0  0
  146.1774  139.6797  156.5021 N   0  0  0  0  0  0  0  0  0  0  0  0
  147.1610  140.4963  158.3472 O   0  0  0  0  0  0  0  0  0  0  0  0
  151.7236  144.2497  160.8930 C   0  0  0  0  0  0  0  0  0  0  0  0
  152.3532  143.9959  162.0609 N   0  3  0  0  0  0  0  0  0  0  0  0
  154.8233  142.2339  163.4884 H   0  0  0  0  0  0  0  0  0  0  0  0
  153.2188  142.2986  164.2263 H   0  0  0  0  0  0  0  0  0  0  0  0
  154.1591  143.7824  164.0150 H   0  0  0  0  0  0  0  0  0  0  0  0
  154.3526  141.4299  161.1858 H   0  0  0  0  0  0  0  0  0  0  0  0
  153.2314  141.8384  158.9971 H   0  0  0  0  0  0  0  0  0  0  0  0
  150.5582  144.5220  158.5754 H   0  0  0  0  0  0  0  0  0  0  0  0
  152.0045  144.0942  157.6828 H   0  0  0  0  0  0  0  0  0  0  0  0
  149.7517  143.4874  156.4371 H   0  0  0  0  0  0  0  0  0  0  0  0
  149.4682  140.5344  156.6561 H   0  0  0  0  0  0  0  0  0  0  0  0
  149.7786  142.3835  154.3095 H   0  0  0  0  0  0  0  0  0  0  0  0
  150.3248  140.7197  154.4763 H   0  0  0  0  0  0  0  0  0  0  0  0
  148.1681  141.2352  152.9517 H   0  0  0  0  0  0  0  0  0  0  0  0
  148.0968  139.8788  154.0761 H   0  0  0  0  0  0  0  0  0  0  0  0
  146.9852  142.6702  154.4837 H   0  0  0  0  0  0  0  0  0  0  0  0
  146.1458  141.1475  154.7065 H   0  0  0  0  0  0  0  0  0  0  0  0
  147.3734  142.6189  156.7201 H   0  0  0  0  0  0  0  0  0  0  0  0
  145.7186  138.9439  157.0193 H   0  0  0  0  0  0  0  0  0  0  0  0
  146.0426  139.7602  155.5045 H   0  0  0  0  0  0  0  0  0  0  0  0
  150.9997  145.0519  160.9105 H   0  0  0  0  0  0  0  0  0  0  0  0
  152.1182  144.5651  162.8745 H   0  0  0  0  0  0  0  0  0  0  0  0
  1  2  1  0  0  0  0
  1 20  1  0  0  0  0
  1 21  1  0  0  0  0
  1 22  1  0  0  0  0
  2 19  1  0  0  0  0
  2  3  2  0  0  0  0
  3  4  1  0  0  0  0
  3 23  1  0  0  0  0
  4  5  2  0  0  0  0
  4 24  1  0  0  0  0
  5  6  1  0  0  0  0
  5 18  1  0  0  0  0
  6  7  1  0  0  0  0
  6 25  1  0  0  0  0
  6 26  1  0  0  0  0
  7  8  2  0  0  0  0
  7  9  1  0  0  0  0
  9 10  1  0  0  0  0
  9 27  1  0  0  0  0
 10 14  1  0  0  0  0
 10 11  1  0  0  0  0
 10 28  1  0  0  0  0
 11 12  1  0  0  0  0
 11 29  1  0  0  0  0
 11 30  1  0  0  0  0
 12 13  1  0  0  0  0
 12 31  1  0  0  0  0
 12 32  1  0  0  0  0
 13 14  1  0  0  0  0
 13 33  1  0  0  0  0
 13 34  1  0  0  0  0
 14 15  1  0  0  0  0
 14 35  1  0  0  0  0
 15 16  1  0  0  0  0
 15 17  2  0  0  0  0
 16 36  1  0  0  0  0
 16 37  1  0  0  0  0
 18 19  2  0  0  0  0
 18 38  1  0  0  0  0
 19 39  1  0  0  0  0
M  CHG  1  19   1
M  END
> <s_m_source_file>
AV-unprocessed.smi

> <i_m_source_file_index>
651

> <i_lp_mmshare_version>
43012

> <i_f3d_flags>
0

> <s_epik_input>
W0NIM11jMVtjSF1bY0hdYyhbY0hdbjEpW0NIMl1DKD1PKVtOSF1bQ0BASF0yW0NIMl1bQ0gyXVtDSDJdW0NASF0yQyg9TylbTkgyXQ==

> <s_epik_cmdline>
J2VwaWtfcHl0aG9uJywgJy1waCcsICc3LjAnLCAnLXRuJywgJzgnLCAnLW1hJywgJzIwMCcsICctbWV0YWxfYmluZGluZycsICctaW1hZScsICc8aW5maWxlLm1hZT4nLCAnLW9tYWUnLCAnPG91dGZpbGUubWFlPic=

> <r_epik_Ionization_Penalty>
2.14971

> <r_epik_Ionization_Penalty_Charging>
2.14971

> <r_epik_Ionization_Penalty_Neutral>
1.65229e-07

> <r_epik_State_Penalty>
2.28946

> <r_epik_Charging_Adjusted_Penalty>
4.43917

> <i_epik_Tot_Q>
1

> <i_epik_Tot_abs_Q>
1

> <r_epik_Metal_State_Penalty>
2.30508

> <b_epik_Metal_Only>
0

> <s_lp_Force_Field>
OPLS_2005

> <r_lp_Energy>
20.422

> <b_lp_Chiralities_Consistent>
1

> <s_lp_Variant>
AV-unprocessed.smi:651-5

> <Gold.Version>
5.8.1

> <Gold.Id.Protein>
6NUR|6NUR_protein|mol2

> <Gold.PLP.Fitness>
45.8161

> <Gold.PLP.PLP>
-43.2240

> <Gold.PLP.part.hbond>
-3.1968

> <Gold.PLP.part.metal>
0.0000

> <Gold.PLP.part.buried>
-5.4928

> <Gold.PLP.part.nonpolar>
-34.9883

> <Gold.PLP.part.repulsive>
0.1051

> <Gold.PLP.ligand.clash>
0.2231

> <Gold.PLP.ligand.torsion>
0.1946

> <Gold.PLP.Chemscore.Hbond>
1.0601

> <Gold.PLP.Chemscore.CHOScore>
0.0000

> <Gold.PLP.Chemscore.Metal>
0.0000

> <Gold.Chemscore.Hbonds>
donor molecule, donor type, donor heavy atom, donor atom, acceptor molecule, acceptor atom, score
      L1  H     9    27       P1  8028  1.00

> <Gold.PLP.Chemscore.Internal.Correction>
0.0241

> <Gold.Rescore>
     Score         DG    S(hbond)    S(metal)    S(lipo)     H(rot)  DE(clash)    DE(int)     intcor
     14.87     -16.18       0.98        0.00     107.96       2.04       0.12       1.19       ----

> <Gold.Chemscore.Fitness>
14.8694

> <Gold.Chemscore.DG>
-16.1799

> <Gold.Chemscore.ZeroCoef>
-5.4800

> <Gold.Chemscore.Hbond>
0.9843

> <Gold.Chemscore.Metal>
0.0000

> <Gold.Chemscore.Lipo>
107.9585

> <Gold.Chemscore.Internal_Hbond>
0.0000

> <Gold.Chemscore.DEClash>
0.1162

> <Gold.Chemscore.DEInternal>
1.1944

> <Gold.Chemscore.Rot>
2.0386

> <Gold.Chemscore.Internal.Correction>
   9.000000E+99

> <Gold.Chemscore.Hbonds>
donor molecule, donor type, donor heavy atom, donor atom, acceptor molecule, acceptor atom, score
      L1  H     9    27       P1  8028  0.98
      P1  H  6934  6946       L1    17  0.01

> <Gold.Chemscore.Hbond.Weighted>
-3.2875

> <Gold.Chemscore.Metal.Weighted>
-0.0000

> <Gold.Chemscore.Lipo.Weighted>
-12.6311

> <Gold.Chemscore.Internal_Hbond.Weighted>
0.0000

> <Gold.Chemscore.DEClash.Weighted>
0.1162

> <Gold.Chemscore.DEInternal.Weighted>
1.1944

> <Gold.Chemscore.Rot.Weighted>
5.2188

> <Gold.Chemscore.Internal.Correction.Weighted>
   9.000000E+99

> <Gold.Protein.RotatedTorsions>
[ 6907 6896 6895 6894 ] final  103.11 input  -60.11 | X-H torsion
[ 7974 7965 7964 7962 ] final  150.33 input  175.53 | X-H torsion
[ 8008 7997 7996 7995 ] final  144.94 input   59.86 | X-H torsion
[ 10167 10162 10161 10158 ] final  -82.87 input  -65.29 | X-H torsion
[ 10718 10713 10712 10709 ] final  -16.60 input   66.30 | X-H torsion
[ 10763 10752 10751 10750 ] final   94.18 input  -60.55 | X-H torsion
[ 11005 11000 10999 10996 ] final  -91.53 input  -57.11 | X-H torsion

> <Gold.Protein.ActiveResidues>
 VAL166  LYS551  ARG553  GLY616  TRP617  ASP618  TYR619  PRO620  LYS621  CYS622 
 ASP623  PHE694  ASN695  SER759  ASP760  ASP761  ALA762  ILE779  LEU786  VAL792 
 PHE793  MET794  SER795  GLU796  ALA797  LYS798  CYS799  TRP800  GLU811  SER814 

> <Gold.Protein.RotatedAtoms>
  152.5305  133.9874  159.7834 H   0  0  0  0  0  0  0  0  0  0  0  0  # atno 6907 bound_to 6896
  151.0117  133.5951  159.2689 H   0  0  0  0  0  0  0  0  0  0  0  0  # atno 6908 bound_to 6896
  151.3023  135.0779  159.9296 H   0  0  0  0  0  0  0  0  0  0  0  0  # atno 6909 bound_to 6896
  144.8372  139.6395  143.6032 H   0  0  0  0  0  0  0  0  0  0  0  0  # atno 7974 bound_to 7965
  156.2896  140.2222  156.5135 H   0  0  0  0  0  0  0  0  0  0  0  0  # atno 8008 bound_to 7997
  154.7589  140.0475  157.0978 H   0  0  0  0  0  0  0  0  0  0  0  0  # atno 8009 bound_to 7997
  155.0016  140.3102  155.4868 H   0  0  0  0  0  0  0  0  0  0  0  0  # atno 8010 bound_to 7997
  140.4280  143.2559  151.8799 H   0  0  0  0  0  0  0  0  0  0  0  0  # atno 10167 bound_to 10162
  156.5854  130.4785  149.6302 H   0  0  0  0  0  0  0  0  0  0  0  0  # atno 10718 bound_to 10713
  153.2387  135.4299  155.0675 H   0  0  0  0  0  0  0  0  0  0  0  0  # atno 10763 bound_to 10752
  154.8331  135.3397  154.6680 H   0  0  0  0  0  0  0  0  0  0  0  0  # atno 10764 bound_to 10752
  153.7105  135.7023  153.5095 H   0  0  0  0  0  0  0  0  0  0  0  0  # atno 10765 bound_to 10752
  141.1542  133.7762  156.9892 H   0  0  0  0  0  0  0  0  0  0  0  0  # atno 11005 bound_to 11000
  146.2669  139.6542  142.9323 LP  0  0  0  0  0  0  0  0  0  0  0  0  # atno 17320 bound_to 7965
  145.4770  141.0437  143.2667 LP  0  0  0  0  0  0  0  0  0  0  0  0  # atno 17321 bound_to 7965
  139.4784  144.5366  151.8590 LP  0  0  0  0  0  0  0  0  0  0  0  0  # atno 17342 bound_to 10162
  140.4459  144.1922  150.5894 LP  0  0  0  0  0  0  0  0  0  0  0  0  # atno 17343 bound_to 10162
  156.2596  130.6954  151.1719 LP  0  0  0  0  0  0  0  0  0  0  0  0  # atno 17370 bound_to 10713
  157.7317  131.0606  150.5667 LP  0  0  0  0  0  0  0  0  0  0  0  0  # atno 17371 bound_to 10713
  140.1014  134.9533  157.1928 LP  0  0  0  0  0  0  0  0  0  0  0  0  # atno 17394 bound_to 11000
  140.3314  134.2806  155.7227 LP  0  0  0  0  0  0  0  0  0  0  0  0  # atno 17395 bound_to 11000

$$$$
