AV-unprocessed.smi:1221|AV-procd|sdf|5118|dock9
  -GOLD-   22720 4173D 1   1.00000     0.00000
 Structure written by MMmdl.
 40 41  0  0  0  0  0  0  0  0  1 V2000
  143.9834  132.4194  149.6330 C   0  0  0  0  0  0  0  0  0  0  0  0
  144.4104  133.4870  150.5811 C   0  0  0  0  0  0  0  0  0  0  0  0
  145.5899  134.1533  150.7616 C   0  0  0  0  0  0  0  0  0  0  0  0
  145.2972  135.0360  151.8351 C   0  0  0  0  0  0  0  0  0  0  0  0
  146.2832  135.9231  152.3374 N   0  0  0  0  0  0  0  0  0  0  0  0
  146.1098  136.9265  153.2142 C   0  0  0  0  0  0  0  0  0  0  0  0
  145.0368  137.2390  153.7315 O   0  0  0  0  0  0  0  0  0  0  0  0
  147.2649  137.5584  153.4679 N   0  0  0  0  0  0  0  0  0  0  0  0
  147.4125  138.6861  154.3795 C   0  0  0  0  0  0  0  0  0  0  0  0
  147.8525  139.9602  153.6344 C   0  0  0  0  0  0  0  0  0  0  0  0
  148.4809  140.9197  154.5508 N   0  0  0  0  0  0  0  0  0  0  0  0
  147.6220  142.0063  155.0499 C   0  0  0  0  0  0  0  0  0  0  0  0
  147.2716  141.8822  156.5514 C   0  0  0  0  0  0  0  0  0  0  0  0
  148.3190  141.1856  157.4426 C   0  0  0  0  0  0  0  0  0  0  0  0
  149.7501  141.7510  157.3311 C   0  0  0  0  0  0  0  0  0  0  0  0
  150.3534  141.8269  155.9082 C   0  0  0  0  0  0  0  0  0  0  0  0
  149.7796  140.7973  154.9215 C   0  0  0  0  0  0  0  0  0  0  0  0
  150.5142  139.8991  154.5096 O   0  0  0  0  0  0  0  0  0  0  0  0
  144.0520  134.9190  152.2703 N   0  0  0  0  0  0  0  0  0  0  0  0
  143.4767  133.9269  151.4678 O   0  0  0  0  0  0  0  0  0  0  0  0
  144.8472  131.9067  149.2096 H   0  0  0  0  0  0  0  0  0  0  0  0
  143.4046  132.8428  148.8123 H   0  0  0  0  0  0  0  0  0  0  0  0
  143.3642  131.6772  150.1371 H   0  0  0  0  0  0  0  0  0  0  0  0
  146.5114  134.0273  150.2129 H   0  0  0  0  0  0  0  0  0  0  0  0
  147.2206  135.7759  151.9941 H   0  0  0  0  0  0  0  0  0  0  0  0
  148.0999  137.2369  153.0005 H   0  0  0  0  0  0  0  0  0  0  0  0
  146.4528  138.8565  154.8686 H   0  0  0  0  0  0  0  0  0  0  0  0
  148.1204  138.4314  155.1702 H   0  0  0  0  0  0  0  0  0  0  0  0
  148.5491  139.7073  152.8330 H   0  0  0  0  0  0  0  0  0  0  0  0
  146.9947  140.4070  153.1311 H   0  0  0  0  0  0  0  0  0  0  0  0
  148.1108  142.9627  154.8627 H   0  0  0  0  0  0  0  0  0  0  0  0
  146.6933  142.0702  154.4819 H   0  0  0  0  0  0  0  0  0  0  0  0
  147.0581  142.8759  156.9466 H   0  0  0  0  0  0  0  0  0  0  0  0
  146.3388  141.3248  156.6427 H   0  0  0  0  0  0  0  0  0  0  0  0
  147.9947  141.2510  158.4814 H   0  0  0  0  0  0  0  0  0  0  0  0
  148.3310  140.1180  157.2192 H   0  0  0  0  0  0  0  0  0  0  0  0
  149.7707  142.7494  157.7692 H   0  0  0  0  0  0  0  0  0  0  0  0
  150.4054  141.1445  157.9574 H   0  0  0  0  0  0  0  0  0  0  0  0
  150.2176  142.8265  155.4958 H   0  0  0  0  0  0  0  0  0  0  0  0
  151.4347  141.6971  155.9711 H   0  0  0  0  0  0  0  0  0  0  0  0
  1  2  1  0  0  0  0
  1 21  1  0  0  0  0
  1 22  1  0  0  0  0
  1 23  1  0  0  0  0
  2 20  1  0  0  0  0
  2  3  2  0  0  0  0
  3  4  1  0  0  0  0
  3 24  1  0  0  0  0
  4  5  1  0  0  0  0
  4 19  2  0  0  0  0
  5  6  1  0  0  0  0
  5 25  1  0  0  0  0
  6  7  2  0  0  0  0
  6  8  1  0  0  0  0
  8  9  1  0  0  0  0
  8 26  1  0  0  0  0
  9 10  1  0  0  0  0
  9 27  1  0  0  0  0
  9 28  1  0  0  0  0
 10 11  1  0  0  0  0
 10 29  1  0  0  0  0
 10 30  1  0  0  0  0
 11 17  1  0  0  0  0
 11 12  1  0  0  0  0
 12 13  1  0  0  0  0
 12 31  1  0  0  0  0
 12 32  1  0  0  0  0
 13 14  1  0  0  0  0
 13 33  1  0  0  0  0
 13 34  1  0  0  0  0
 14 15  1  0  0  0  0
 14 35  1  0  0  0  0
 14 36  1  0  0  0  0
 15 16  1  0  0  0  0
 15 37  1  0  0  0  0
 15 38  1  0  0  0  0
 16 17  1  0  0  0  0
 16 39  1  0  0  0  0
 16 40  1  0  0  0  0
 17 18  2  0  0  0  0
 19 20  1  0  0  0  0
M  END
> <s_m_source_file>
AV-unprocessed.smi

> <i_m_source_file_index>
1221

> <i_lp_mmshare_version>
43012

> <i_f3d_flags>
0

> <s_epik_input>
W0NIM11jMVtjSF1jKG5vMSlbTkhdQyg9TylbTkhdW0NIMl1bQ0gyXU4yW0NIMl1bQ0gyXVtDSDJdW0NIMl1bQ0gyXUMyPU8=

> <s_epik_cmdline>
J2VwaWtfcHl0aG9uJywgJy1waCcsICc3LjAnLCAnLXRuJywgJzgnLCAnLW1hJywgJzIwMCcsICctbWV0YWxfYmluZGluZycsICctaW1hZScsICc8aW5maWxlLm1hZT4nLCAnLW9tYWUnLCAnPG91dGZpbGUubWFlPic=

> <r_lp_tautomer_probability>
1

> <r_epik_Ionization_Penalty>
2.943e-05

> <r_epik_Ionization_Penalty_Charging>
0

> <r_epik_Ionization_Penalty_Neutral>
2.943e-05

> <r_epik_State_Penalty>
-0

> <r_epik_Charging_Adjusted_Penalty>
0

> <i_epik_Tot_Q>
0

> <i_epik_Tot_abs_Q>
0

> <r_epik_Metal_State_Penalty>
0.0104721

> <b_epik_Metal_Only>
0

> <s_lp_Force_Field>
OPLS_2005

> <r_lp_Energy>
18.1231

> <b_lp_Chiralities_Consistent>
1

> <s_lp_Variant>
AV-unprocessed.smi:1221-1

> <Gold.Version>
5.8.1

> <Gold.Id.Protein>
6NUR|6NUR_protein|mol2

> <Gold.PLP.Fitness>
38.0882

> <Gold.PLP.PLP>
-29.9600

> <Gold.PLP.part.hbond>
-3.0000

> <Gold.PLP.part.metal>
0.0000

> <Gold.PLP.part.buried>
-1.8349

> <Gold.PLP.part.nonpolar>
-24.7176

> <Gold.PLP.part.repulsive>
0.5608

> <Gold.PLP.ligand.clash>
0.0000

> <Gold.PLP.ligand.torsion>
0.4404

> <Gold.PLP.Chemscore.Hbond>
3.0000

> <Gold.PLP.Chemscore.CHOScore>
0.0000

> <Gold.PLP.Chemscore.Metal>
0.0000

> <Gold.Chemscore.Hbonds>
donor molecule, donor type, donor heavy atom, donor atom, acceptor molecule, acceptor atom, score
      L1  H     5    25       P1  7948  1.00
      L1  H     8    26       P1  7948  1.00
      P1  H  7989  7998       L1    18  1.00

> <Gold.PLP.Chemscore.Internal.Correction>
0.0089

> <Gold.Rescore>
     Score         DG    S(hbond)    S(metal)    S(lipo)     H(rot)  DE(clash)    DE(int)     intcor
     15.35     -17.10       2.86        0.00      53.13       1.63       0.01       1.74       ----

> <Gold.Chemscore.Fitness>
15.3470

> <Gold.Chemscore.DG>
-17.0969

> <Gold.Chemscore.ZeroCoef>
-5.4800

> <Gold.Chemscore.Hbond>
2.8637

> <Gold.Chemscore.Metal>
0.0000

> <Gold.Chemscore.Lipo>
53.1291

> <Gold.Chemscore.Internal_Hbond>
0.0000

> <Gold.Chemscore.DEClash>
0.0123

> <Gold.Chemscore.DEInternal>
1.7377

> <Gold.Chemscore.Rot>
1.6266

> <Gold.Chemscore.Internal.Correction>
   9.000000E+99

> <Gold.Chemscore.Hbonds>
donor molecule, donor type, donor heavy atom, donor atom, acceptor molecule, acceptor atom, score
      L1  H     5    25       P1  7948  0.98
      L1  H     8    26       P1  7948  0.98
      P1  H  7989  7998       L1    18  0.26

> <Gold.Chemscore.Hbond.Weighted>
-9.5649

> <Gold.Chemscore.Metal.Weighted>
-0.0000

> <Gold.Chemscore.Lipo.Weighted>
-6.2161

> <Gold.Chemscore.Internal_Hbond.Weighted>
0.0000

> <Gold.Chemscore.DEClash.Weighted>
0.0123

> <Gold.Chemscore.DEInternal.Weighted>
1.7377

> <Gold.Chemscore.Rot.Weighted>
4.1641

> <Gold.Chemscore.Internal.Correction.Weighted>
   9.000000E+99

> <Gold.Protein.RotatedTorsions>
[ 6907 6896 6895 6894 ] final   33.14 input  -60.11 | X-H torsion
[ 7974 7965 7964 7962 ] final -149.38 input  175.53 | X-H torsion
[ 8008 7997 7996 7995 ] final  -58.20 input   59.86 | X-H torsion
[ 10167 10162 10161 10158 ] final -121.99 input  -65.29 | X-H torsion
[ 10718 10713 10712 10709 ] final  -95.71 input   66.30 | X-H torsion
[ 10763 10752 10751 10750 ] final  -14.76 input  -60.55 | X-H torsion
[ 11005 11000 10999 10996 ] final   21.90 input  -57.11 | X-H torsion

> <Gold.Protein.ActiveResidues>
 VAL166  LYS551  ARG553  GLY616  TRP617  ASP618  TYR619  PRO620  LYS621  CYS622 
 ASP623  PHE694  ASN695  SER759  ASP760  ASP761  ALA762  ILE779  LEU786  VAL792 
 PHE793  MET794  SER795  GLU796  ALA797  LYS798  CYS799  TRP800  GLU811  SER814 

> <Gold.Protein.RotatedAtoms>
  152.0843  134.9450  160.0572 H   0  0  0  0  0  0  0  0  0  0  0  0  # atno 6907 bound_to 6896
  152.0726  133.4109  159.4474 H   0  0  0  0  0  0  0  0  0  0  0  0  # atno 6908 bound_to 6896
  150.6836  134.2994  159.4743 H   0  0  0  0  0  0  0  0  0  0  0  0  # atno 6909 bound_to 6896
  144.7971  140.5072  143.5733 H   0  0  0  0  0  0  0  0  0  0  0  0  # atno 7974 bound_to 7965
  154.4299  140.1089  156.5918 H   0  0  0  0  0  0  0  0  0  0  0  0  # atno 8008 bound_to 7997
  155.6004  140.3493  155.4573 H   0  0  0  0  0  0  0  0  0  0  0  0  # atno 8009 bound_to 7997
  156.0178  140.1233  157.0378 H   0  0  0  0  0  0  0  0  0  0  0  0  # atno 8010 bound_to 7997
  140.0190  143.5363  152.2229 H   0  0  0  0  0  0  0  0  0  0  0  0  # atno 10167 bound_to 10162
  156.0048  130.5121  150.6117 H   0  0  0  0  0  0  0  0  0  0  0  0  # atno 10718 bound_to 10713
  153.5330  135.7014  153.5674 H   0  0  0  0  0  0  0  0  0  0  0  0  # atno 10763 bound_to 10752
  153.3672  135.3954  155.1762 H   0  0  0  0  0  0  0  0  0  0  0  0  # atno 10764 bound_to 10752
  154.8682  135.3803  154.4829 H   0  0  0  0  0  0  0  0  0  0  0  0  # atno 10765 bound_to 10752
  140.3864  134.1865  155.7663 H   0  0  0  0  0  0  0  0  0  0  0  0  # atno 11005 bound_to 11000
  145.5646  139.1481  143.3322 LP  0  0  0  0  0  0  0  0  0  0  0  0  # atno 17320 bound_to 7965
  146.2242  140.5781  142.9004 LP  0  0  0  0  0  0  0  0  0  0  0  0  # atno 17321 bound_to 7965
  139.6152  144.7618  151.2861 LP  0  0  0  0  0  0  0  0  0  0  0  0  # atno 17342 bound_to 10162
  140.7350  143.6749  150.8050 LP  0  0  0  0  0  0  0  0  0  0  0  0  # atno 17343 bound_to 10162
  157.3949  131.0801  151.1361 LP  0  0  0  0  0  0  0  0  0  0  0  0  # atno 17370 bound_to 10713
  157.2041  130.6408  149.5749 LP  0  0  0  0  0  0  0  0  0  0  0  0  # atno 17371 bound_to 10713
  141.1906  133.8214  157.0913 LP  0  0  0  0  0  0  0  0  0  0  0  0  # atno 17394 bound_to 11000
  140.0439  134.9840  157.1013 LP  0  0  0  0  0  0  0  0  0  0  0  0  # atno 17395 bound_to 11000

$$$$
