AV-unprocessed.smi:1118|AV-procd|sdf|4814|dock1
  -GOLD-   22720 3363D 1   1.00000     0.00000
 Structure written by MMmdl.
 45 46  0  0  0  0  0  0  0  0  2 V2000
  144.2056  133.5985  151.1958 C   0  0  0  0  0  0  0  0  0  0  0  0
  143.6686  134.8194  151.6739 O   0  0  0  0  0  0  0  0  0  0  0  0
  144.6728  135.7728  151.9800 C   0  0  0  0  0  0  0  0  0  0  0  0
  143.9977  137.0796  152.4241 C   0  0  0  0  0  0  0  0  0  0  0  0
  144.9793  138.1074  152.8549 N   0  3  2  0  0  0  0  0  0  0  0  0
  146.2059  138.0987  152.0181 C   0  0  0  0  0  0  0  0  0  0  0  0
  147.1383  139.2641  152.3876 C   0  0  0  0  0  0  0  0  0  0  0  0
  147.5189  139.2330  153.8781 C   0  0  1  0  0  0  0  0  0  0  0  0
  148.4474  140.4123  154.2361 C   0  0  0  0  0  0  0  0  0  0  0  0
  148.9141  140.3353  155.6163 N   0  0  0  0  0  0  0  0  0  0  0  0
  150.1951  140.3969  156.0122 C   0  0  0  0  0  0  0  0  0  0  0  0
  151.1478  140.4589  155.2352 O   0  0  0  0  0  0  0  0  0  0  0  0
  150.4349  140.4342  157.5208 C   0  0  0  0  0  0  0  0  0  0  0  0
  151.1585  141.6376  157.8902 N   0  0  0  0  0  0  0  0  0  0  0  0
  150.9650  142.9258  157.4364 C   0  0  0  0  0  0  0  0  0  0  0  0
  151.8672  143.7232  158.0803 C   0  0  0  0  0  0  0  0  0  0  0  0
  152.5783  142.8205  158.9196 C   0  0  0  0  0  0  0  0  0  0  0  0
  152.1508  141.5735  158.8057 N   0  0  0  0  0  0  0  0  0  0  0  0
  146.2278  139.1959  154.7216 C   0  0  0  0  0  0  0  0  0  0  0  0
  145.3110  138.0353  154.3021 C   0  0  0  0  0  0  0  0  0  0  0  0
  143.3956  132.9022  150.9781 H   0  0  0  0  0  0  0  0  0  0  0  0
  144.8563  133.1357  151.9392 H   0  0  0  0  0  0  0  0  0  0  0  0
  144.7748  133.7501  150.2777 H   0  0  0  0  0  0  0  0  0  0  0  0
  145.3492  135.3893  152.7441 H   0  0  0  0  0  0  0  0  0  0  0  0
  145.2741  135.9630  151.0896 H   0  0  0  0  0  0  0  0  0  0  0  0
  143.3764  137.4802  151.6220 H   0  0  0  0  0  0  0  0  0  0  0  0
  143.3208  136.8452  153.2470 H   0  0  0  0  0  0  0  0  0  0  0  0
  146.7247  137.1462  152.1382 H   0  0  0  0  0  0  0  0  0  0  0  0
  145.9345  138.1819  150.9651 H   0  0  0  0  0  0  0  0  0  0  0  0
  148.0375  139.2197  151.7719 H   0  0  0  0  0  0  0  0  0  0  0  0
  146.6490  140.2101  152.1503 H   0  0  0  0  0  0  0  0  0  0  0  0
  148.0686  138.3086  154.0634 H   0  0  0  0  0  0  0  0  0  0  0  0
  149.3274  140.3951  153.5926 H   0  0  0  0  0  0  0  0  0  0  0  0
  147.9491  141.3634  154.0404 H   0  0  0  0  0  0  0  0  0  0  0  0
  148.2040  140.2876  156.3331 H   0  0  0  0  0  0  0  0  0  0  0  0
  149.4871  140.3973  158.0606 H   0  0  0  0  0  0  0  0  0  0  0  0
  151.0158  139.5634  157.8280 H   0  0  0  0  0  0  0  0  0  0  0  0
  150.2078  143.1643  156.7037 H   0  0  0  0  0  0  0  0  0  0  0  0
  151.9991  144.7893  157.9690 H   0  0  0  0  0  0  0  0  0  0  0  0
  153.3857  143.0330  159.6046 H   0  0  0  0  0  0  0  0  0  0  0  0
  146.4656  139.0872  155.7801 H   0  0  0  0  0  0  0  0  0  0  0  0
  145.6925  140.1412  154.6211 H   0  0  0  0  0  0  0  0  0  0  0  0
  144.4033  138.0717  154.9033 H   0  0  0  0  0  0  0  0  0  0  0  0
  145.7942  137.0814  154.5191 H   0  0  0  0  0  0  0  0  0  0  0  0
  144.5384  139.0026  152.6958 H   0  0  0  0  0  0  0  0  0  0  0  0
  1  2  1  0  0  0  0
  1 21  1  0  0  0  0
  1 22  1  0  0  0  0
  1 23  1  0  0  0  0
  2  3  1  0  0  0  0
  3  4  1  0  0  0  0
  3 24  1  0  0  0  0
  3 25  1  0  0  0  0
  4  5  1  0  0  0  0
  4 26  1  0  0  0  0
  4 27  1  0  0  0  0
  5 20  1  0  0  0  0
  5  6  1  0  0  0  0
  5 45  1  0  0  0  0
  6  7  1  0  0  0  0
  6 28  1  0  0  0  0
  6 29  1  0  0  0  0
  7  8  1  0  0  0  0
  7 30  1  0  0  0  0
  7 31  1  0  0  0  0
  8  9  1  0  0  0  0
  8 19  1  0  0  0  0
  8 32  1  0  0  0  0
  9 10  1  0  0  0  0
  9 33  1  0  0  0  0
  9 34  1  0  0  0  0
 10 11  1  0  0  0  0
 10 35  1  0  0  0  0
 11 12  2  0  0  0  0
 11 13  1  0  0  0  0
 13 14  1  0  0  0  0
 13 36  1  0  0  0  0
 13 37  1  0  0  0  0
 14 18  1  0  0  0  0
 14 15  1  0  0  0  0
 15 16  2  0  0  0  0
 15 38  1  0  0  0  0
 16 17  1  0  0  0  0
 16 39  1  0  0  0  0
 17 18  2  0  0  0  0
 17 40  1  0  0  0  0
 19 20  1  0  0  0  0
 19 41  1  0  0  0  0
 19 42  1  0  0  0  0
 20 43  1  0  0  0  0
 20 44  1  0  0  0  0
M  CHG  1   5   1
M  END
> <s_m_source_file>
AV-unprocessed.smi

> <i_m_source_file_index>
1118

> <i_lp_mmshare_version>
43012

> <i_f3d_flags>
0

> <s_epik_input>
W0NIM11PW0NIMl1bQ0gyXU4xW0NIMl1bQ0gyXVtDSF0oW0NIMl1bQ0gyXTEpW0NIMl1bTkhdQyg9TylbQ0gyXW4yW2NIXVtjSF1bY0hdbjI=

> <s_epik_cmdline>
J2VwaWtfcHl0aG9uJywgJy1waCcsICc3LjAnLCAnLXRuJywgJzgnLCAnLW1hJywgJzIwMCcsICctbWV0YWxfYmluZGluZycsICctaW1hZScsICc8aW5maWxlLm1hZT4nLCAnLW9tYWUnLCAnPG91dGZpbGUubWFlPic=

> <r_lp_tautomer_probability>
1

> <r_epik_Ionization_Penalty>
0.00991549

> <r_epik_Ionization_Penalty_Charging>
0.00990284

> <r_epik_Ionization_Penalty_Neutral>
1.26554e-05

> <r_epik_State_Penalty>
0.00754525

> <r_epik_Charging_Adjusted_Penalty>
0.0174481

> <i_epik_Tot_Q>
1

> <i_epik_Tot_abs_Q>
1

> <r_epik_Metal_State_Penalty>
0.00754527

> <b_epik_Metal_Only>
0

> <s_lp_Force_Field>
OPLS_2005

> <r_lp_Energy>
19.0863

> <b_lp_Chiralities_Consistent>
1

> <s_lp_Variant>
AV-unprocessed.smi:1118-1

> <Gold.Version>
5.8.1

> <Gold.Id.Protein>
6NUR|6NUR_protein|mol2

> <Gold.PLP.Fitness>
44.0038

> <Gold.PLP.PLP>
-33.0238

> <Gold.PLP.part.hbond>
-2.2026

> <Gold.PLP.part.metal>
0.0000

> <Gold.PLP.part.buried>
-0.5127

> <Gold.PLP.part.nonpolar>
-30.8493

> <Gold.PLP.part.repulsive>
0.2667

> <Gold.PLP.ligand.clash>
0.0000

> <Gold.PLP.ligand.torsion>
0.5867

> <Gold.PLP.Chemscore.Hbond>
2.9920

> <Gold.PLP.Chemscore.CHOScore>
1.0000

> <Gold.PLP.Chemscore.Metal>
0.0000

> <Gold.Chemscore.Hbonds>
donor molecule, donor type, donor heavy atom, donor atom, acceptor molecule, acceptor atom, score
      L1  H     5    45       P1 10175  2.00
      P1  H  7989  7998       L1    12  0.98
      L1  C    15    38       P1  8028  1.00

> <Gold.PLP.Chemscore.Internal.Correction>
0.1775

> <Gold.Rescore>
     Score         DG    S(hbond)    S(metal)    S(lipo)     H(rot)  DE(clash)    DE(int)     intcor
     15.01     -16.18       1.96        0.00      83.91       2.22       0.84       0.33       ----

> <Gold.Chemscore.Fitness>
15.0107

> <Gold.Chemscore.DG>
-16.1757

> <Gold.Chemscore.ZeroCoef>
-5.4800

> <Gold.Chemscore.Hbond>
1.9621

> <Gold.Chemscore.Metal>
0.0000

> <Gold.Chemscore.Lipo>
83.9053

> <Gold.Chemscore.Internal_Hbond>
0.0000

> <Gold.Chemscore.DEClash>
0.8356

> <Gold.Chemscore.DEInternal>
0.3294

> <Gold.Chemscore.Rot>
2.2166

> <Gold.Chemscore.Internal.Correction>
   9.000000E+99

> <Gold.Chemscore.Hbonds>
donor molecule, donor type, donor heavy atom, donor atom, acceptor molecule, acceptor atom, score
      L1  H     5    45       P1 10175  1.00
      P1  H  7989  7998       L1    12  0.93

> <Gold.Chemscore.Hbond.Weighted>
-6.5533

> <Gold.Chemscore.Metal.Weighted>
-0.0000

> <Gold.Chemscore.Lipo.Weighted>
-9.8169

> <Gold.Chemscore.Internal_Hbond.Weighted>
0.0000

> <Gold.Chemscore.DEClash.Weighted>
0.8356

> <Gold.Chemscore.DEInternal.Weighted>
0.3294

> <Gold.Chemscore.Rot.Weighted>
5.6745

> <Gold.Chemscore.Internal.Correction.Weighted>
   9.000000E+99

> <Gold.Protein.RotatedTorsions>
[ 6907 6896 6895 6894 ] final -150.50 input  -60.11 | X-H torsion
[ 7974 7965 7964 7962 ] final  169.13 input  175.53 | X-H torsion
[ 8008 7997 7996 7995 ] final  -46.37 input   59.86 | X-H torsion
[ 10167 10162 10161 10158 ] final   14.93 input  -65.29 | X-H torsion
[ 10718 10713 10712 10709 ] final   63.77 input   66.30 | X-H torsion
[ 10763 10752 10751 10750 ] final  -57.84 input  -60.55 | X-H torsion
[ 11005 11000 10999 10996 ] final   74.60 input  -57.11 | X-H torsion

> <Gold.Protein.ActiveResidues>
 VAL166  LYS551  ARG553  GLY616  TRP617  ASP618  TYR619  PRO620  LYS621  CYS622 
 ASP623  PHE694  ASN695  SER759  ASP760  ASP761  ALA762  ILE779  LEU786  VAL792 
 PHE793  MET794  SER795  GLU796  ALA797  LYS798  CYS799  TRP800  GLU811  SER814 

> <Gold.Protein.RotatedAtoms>
  151.1994  133.4620  159.2595 H   0  0  0  0  0  0  0  0  0  0  0  0  # atno 6907 bound_to 6896
  151.1084  135.0012  159.8492 H   0  0  0  0  0  0  0  0  0  0  0  0  # atno 6908 bound_to 6896
  152.5448  134.1915  159.8729 H   0  0  0  0  0  0  0  0  0  0  0  0  # atno 6909 bound_to 6896
  144.7365  139.9010  143.6409 H   0  0  0  0  0  0  0  0  0  0  0  0  # atno 7974 bound_to 7965
  154.4007  140.1373  156.4001 H   0  0  0  0  0  0  0  0  0  0  0  0  # atno 8008 bound_to 7997
  155.7832  140.3481  155.5288 H   0  0  0  0  0  0  0  0  0  0  0  0  # atno 8009 bound_to 7997
  155.8652  140.0963  157.1577 H   0  0  0  0  0  0  0  0  0  0  0  0  # atno 8010 bound_to 7997
  140.5902  143.8810  150.6867 H   0  0  0  0  0  0  0  0  0  0  0  0  # atno 10167 bound_to 10162
  157.5994  130.9123  149.9758 H   0  0  0  0  0  0  0  0  0  0  0  0  # atno 10718 bound_to 10713
  154.2287  135.6364  153.5168 H   0  0  0  0  0  0  0  0  0  0  0  0  # atno 10763 bound_to 10752
  152.9953  135.5514  154.6036 H   0  0  0  0  0  0  0  0  0  0  0  0  # atno 10764 bound_to 10752
  154.5514  135.2902  155.0979 H   0  0  0  0  0  0  0  0  0  0  0  0  # atno 10765 bound_to 10752
  139.9383  134.7446  156.1167 H   0  0  0  0  0  0  0  0  0  0  0  0  # atno 11005 bound_to 11000
  146.1072  139.4073  143.0310 LP  0  0  0  0  0  0  0  0  0  0  0  0  # atno 17320 bound_to 7965
  145.7495  140.9978  143.1258 LP  0  0  0  0  0  0  0  0  0  0  0  0  # atno 17321 bound_to 7965
  140.2331  143.3720  152.1549 LP  0  0  0  0  0  0  0  0  0  0  0  0  # atno 17342 bound_to 10162
  139.5223  144.7057  151.5362 LP  0  0  0  0  0  0  0  0  0  0  0  0  # atno 17343 bound_to 10162
  156.1063  130.3652  150.0127 LP  0  0  0  0  0  0  0  0  0  0  0  0  # atno 17370 bound_to 10713
  156.8233  130.9366  151.3640 LP  0  0  0  0  0  0  0  0  0  0  0  0  # atno 17371 bound_to 10713
  141.1007  133.6678  156.2748 LP  0  0  0  0  0  0  0  0  0  0  0  0  # atno 17394 bound_to 11000
  140.6017  134.5548  157.5518 LP  0  0  0  0  0  0  0  0  0  0  0  0  # atno 17395 bound_to 11000

$$$$
