AV-unprocessed.smi:550|AV-procd|sdf|2896|dock9
  -GOLD-   2262023393D 1   1.00000     0.00000
 Structure written by MMmdl.
 46 48  0  0  0  0  0  0  0  0  2 V2000
  146.8536  140.0883  154.1114 O   0  0  0  0  0  0  0  0  0  0  0  0
  147.7451  139.3573  153.6809 C   0  0  0  0  0  0  0  0  0  0  0  0
  147.5345  138.3947  152.7719 N   0  0  0  0  0  0  0  0  0  0  0  0
  146.2474  138.0961  152.1510 C   0  0  0  0  0  0  0  0  0  0  0  0
  145.2768  137.3650  153.1073 C   0  0  2  0  0  0  0  0  0  0  0  0
  145.8798  136.0679  153.6931 C   0  0  0  0  0  0  0  0  0  0  0  0
  145.7959  134.9496  152.6447 C   0  0  0  0  0  0  0  0  0  0  0  0
  144.3131  135.3197  151.6328 S   0  0  0  0  0  0  0  0  0  0  0  0
  144.7260  135.4987  150.2327 O   0  0  0  0  0  0  0  0  0  0  0  0
  143.2247  134.3970  151.9895 O   0  0  0  0  0  0  0  0  0  0  0  0
  143.9827  136.9587  152.3842 C   0  0  0  0  0  0  0  0  0  0  0  0
  149.0349  139.3978  154.0588 N   0  0  0  0  0  0  0  0  0  0  0  0
  149.6698  140.2949  154.9615 C   0  0  0  0  0  0  0  0  0  0  0  0
  150.7188  139.7893  155.7596 C   0  0  0  0  0  0  0  0  0  0  0  0
  151.3917  140.6430  156.6577 C   0  0  0  0  0  0  0  0  0  0  0  0
  151.0114  142.0028  156.7385 C   0  0  0  0  0  0  0  0  0  0  0  0
  151.6141  142.9344  157.5954 N   0  0  0  0  0  0  0  0  0  0  0  0
  150.6787  143.7794  158.3172 C   0  0  0  0  0  0  0  0  0  0  0  0
  151.4929  144.4156  159.4459 C   0  0  0  0  0  0  0  0  0  0  0  0
  152.6816  143.4696  159.6544 C   0  0  0  0  0  0  0  0  0  0  0  0
  152.5076  142.3754  158.5970 C   0  0  0  0  0  0  0  0  0  0  0  0
  150.0079  142.4508  155.9536 N   0  3  0  0  0  0  0  0  0  0  0  0
  149.3364  141.6667  155.0826 C   0  0  0  0  0  0  0  0  0  0  0  0
  148.3213  137.8355  152.4759 H   0  0  0  0  0  0  0  0  0  0  0  0
  145.7953  139.0229  151.7934 H   0  0  0  0  0  0  0  0  0  0  0  0
  146.4358  137.4918  151.2634 H   0  0  0  0  0  0  0  0  0  0  0  0
  145.0251  138.0467  153.9209 H   0  0  0  0  0  0  0  0  0  0  0  0
  146.8981  136.2008  154.0584 H   0  0  0  0  0  0  0  0  0  0  0  0
  145.2824  135.7734  154.5568 H   0  0  0  0  0  0  0  0  0  0  0  0
  146.6655  134.9624  151.9876 H   0  0  0  0  0  0  0  0  0  0  0  0
  145.7105  133.9578  153.0890 H   0  0  0  0  0  0  0  0  0  0  0  0
  143.1692  136.8369  153.0999 H   0  0  0  0  0  0  0  0  0  0  0  0
  143.6626  137.6684  151.6209 H   0  0  0  0  0  0  0  0  0  0  0  0
  149.6313  138.6824  153.6695 H   0  0  0  0  0  0  0  0  0  0  0  0
  151.0075  138.7504  155.6899 H   0  0  0  0  0  0  0  0  0  0  0  0
  152.1883  140.2521  157.2736 H   0  0  0  0  0  0  0  0  0  0  0  0
  150.2439  144.5345  157.6616 H   0  0  0  0  0  0  0  0  0  0  0  0
  149.8652  143.1812  158.7300 H   0  0  0  0  0  0  0  0  0  0  0  0
  151.8525  145.3996  159.1423 H   0  0  0  0  0  0  0  0  0  0  0  0
  150.8979  144.5443  160.3508 H   0  0  0  0  0  0  0  0  0  0  0  0
  153.6181  144.0068  159.4994 H   0  0  0  0  0  0  0  0  0  0  0  0
  152.7028  143.0495  160.6605 H   0  0  0  0  0  0  0  0  0  0  0  0
  152.0745  141.4839  159.0516 H   0  0  0  0  0  0  0  0  0  0  0  0
  153.4629  142.0941  158.1526 H   0  0  0  0  0  0  0  0  0  0  0  0
  148.5734  142.1769  154.5147 H   0  0  0  0  0  0  0  0  0  0  0  0
  149.7463  143.4350  156.0184 H   0  0  0  0  0  0  0  0  0  0  0  0
  1  2  2  0  0  0  0
  2  3  1  0  0  0  0
  2 12  1  0  0  0  0
  3  4  1  0  0  0  0
  3 24  1  0  0  0  0
  4  5  1  0  0  0  0
  4 25  1  0  0  0  0
  4 26  1  0  0  0  0
  5 11  1  0  0  0  0
  5  6  1  0  0  0  0
  5 27  1  0  0  0  0
  6  7  1  0  0  0  0
  6 28  1  0  0  0  0
  6 29  1  0  0  0  0
  7  8  1  0  0  0  0
  7 30  1  0  0  0  0
  7 31  1  0  0  0  0
  8  9  2  0  0  0  0
  8 10  2  0  0  0  0
  8 11  1  0  0  0  0
 11 32  1  0  0  0  0
 11 33  1  0  0  0  0
 12 13  1  0  0  0  0
 12 34  1  0  0  0  0
 13 23  1  0  0  0  0
 13 14  2  0  0  0  0
 14 15  1  0  0  0  0
 14 35  1  0  0  0  0
 15 16  2  0  0  0  0
 15 36  1  0  0  0  0
 16 17  1  0  0  0  0
 16 22  1  0  0  0  0
 17 21  1  0  0  0  0
 17 18  1  0  0  0  0
 18 19  1  0  0  0  0
 18 37  1  0  0  0  0
 18 38  1  0  0  0  0
 19 20  1  0  0  0  0
 19 39  1  0  0  0  0
 19 40  1  0  0  0  0
 20 21  1  0  0  0  0
 20 41  1  0  0  0  0
 20 42  1  0  0  0  0
 21 43  1  0  0  0  0
 21 44  1  0  0  0  0
 22 23  2  0  0  0  0
 22 46  1  0  0  0  0
 23 45  1  0  0  0  0
M  CHG  1  22   1
M  END
> <s_m_source_file>
AV-unprocessed.smi

> <i_m_source_file_index>
550

> <i_lp_mmshare_version>
43012

> <i_f3d_flags>
0

> <s_epik_input>
Tz1TMSg9TylbQ0gyXVtDSDJdW0NASF0oW0NIMl0xKVtDSDJdW05IXUMoPU8pW05IXWMyW2NIXVtjSF1jKG5bY0hdMilOM1tDSDJdW0NIMl1bQ0gyXVtDSDJdMw==

> <s_epik_cmdline>
J2VwaWtfcHl0aG9uJywgJy1waCcsICc3LjAnLCAnLXRuJywgJzgnLCAnLW1hJywgJzIwMCcsICctbWV0YWxfYmluZGluZycsICctaW1hZScsICc8aW5maWxlLm1hZT4nLCAnLW9tYWUnLCAnPG91dGZpbGUubWFlPic=

> <r_lp_tautomer_probability>
0.999994

> <r_epik_Ionization_Penalty>
1.12573

> <r_epik_Ionization_Penalty_Charging>
1.12571

> <r_epik_Ionization_Penalty_Neutral>
1.93198e-05

> <r_epik_State_Penalty>
1.18495

> <r_epik_Charging_Adjusted_Penalty>
2.31065

> <i_epik_Tot_Q>
1

> <i_epik_Tot_abs_Q>
1

> <r_epik_Metal_State_Penalty>
1.26884

> <b_epik_Metal_Only>
0

> <s_lp_Force_Field>
OPLS_2005

> <r_lp_Energy>
42.4783

> <b_lp_Chiralities_Consistent>
1

> <s_lp_Variant>
AV-unprocessed.smi:550-3

> <Gold.Version>
5.8.1

> <Gold.Id.Protein>
6NUR|6NUR_protein|mol2

> <Gold.PLP.Fitness>
45.9029

> <Gold.PLP.PLP>
-38.1891

> <Gold.PLP.part.hbond>
-3.8531

> <Gold.PLP.part.metal>
0.0000

> <Gold.PLP.part.buried>
-4.0314

> <Gold.PLP.part.nonpolar>
-33.0388

> <Gold.PLP.part.repulsive>
1.5518

> <Gold.PLP.ligand.clash>
0.0000

> <Gold.PLP.ligand.torsion>
0.6418

> <Gold.PLP.Chemscore.Hbond>
2.9920

> <Gold.PLP.Chemscore.CHOScore>
0.0000

> <Gold.PLP.Chemscore.Metal>
0.0000

> <Gold.Chemscore.Hbonds>
donor molecule, donor type, donor heavy atom, donor atom, acceptor molecule, acceptor atom, score
      L1  H     3    24       P1  7948  0.99
      L1  H    22    46       P1  8028  2.00

> <Gold.PLP.Chemscore.Internal.Correction>
0.0213

> <Gold.Rescore>
     Score         DG    S(hbond)    S(metal)    S(lipo)     H(rot)  DE(clash)    DE(int)     intcor
     18.06     -18.62       1.93        0.00      90.02       1.50       0.07       0.49       ----

> <Gold.Chemscore.Fitness>
18.0624

> <Gold.Chemscore.DG>
-18.6174

> <Gold.Chemscore.ZeroCoef>
-5.4800

> <Gold.Chemscore.Hbond>
1.9268

> <Gold.Chemscore.Metal>
0.0000

> <Gold.Chemscore.Lipo>
90.0185

> <Gold.Chemscore.Internal_Hbond>
0.0000

> <Gold.Chemscore.DEClash>
0.0697

> <Gold.Chemscore.DEInternal>
0.4852

> <Gold.Chemscore.Rot>
1.4962

> <Gold.Chemscore.Internal.Correction>
   9.000000E+99

> <Gold.Chemscore.Hbonds>
donor molecule, donor type, donor heavy atom, donor atom, acceptor molecule, acceptor atom, score
      L1  H     3    24       P1  7948  0.94
      L1  H    22    46       P1  8028  0.96

> <Gold.Chemscore.Hbond.Weighted>
-6.4355

> <Gold.Chemscore.Metal.Weighted>
-0.0000

> <Gold.Chemscore.Lipo.Weighted>
-10.5322

> <Gold.Chemscore.Internal_Hbond.Weighted>
0.0000

> <Gold.Chemscore.DEClash.Weighted>
0.0697

> <Gold.Chemscore.DEInternal.Weighted>
0.4852

> <Gold.Chemscore.Rot.Weighted>
3.8303

> <Gold.Chemscore.Internal.Correction.Weighted>
   9.000000E+99

> <Gold.Protein.RotatedTorsions>
[ 6907 6896 6895 6894 ] final  -86.53 input  -60.11 | X-H torsion
[ 7974 7965 7964 7962 ] final  105.07 input  175.53 | X-H torsion
[ 8008 7997 7996 7995 ] final -141.59 input   59.86 | X-H torsion
[ 10167 10162 10161 10158 ] final   38.82 input  -65.29 | X-H torsion
[ 10718 10713 10712 10709 ] final -108.80 input   66.30 | X-H torsion
[ 10763 10752 10751 10750 ] final -156.94 input  -60.55 | X-H torsion
[ 11005 11000 10999 10996 ] final   55.71 input  -57.11 | X-H torsion

> <Gold.Protein.ActiveResidues>
 VAL166  LYS551  ARG553  GLY616  TRP617  ASP618  TYR619  PRO620  LYS621  CYS622 
 ASP623  PHE694  ASN695  SER759  ASP760  ASP761  ALA762  ILE779  LEU786  VAL792 
 PHE793  MET794  SER795  GLU796  ALA797  LYS798  CYS799  TRP800  GLU811  SER814 

> <Gold.Protein.RotatedAtoms>
  150.6867  134.3036  159.4716 H   0  0  0  0  0  0  0  0  0  0  0  0  # atno 6907 bound_to 6896
  152.0929  134.9392  160.0580 H   0  0  0  0  0  0  0  0  0  0  0  0  # atno 6908 bound_to 6896
  152.0701  133.4068  159.4492 H   0  0  0  0  0  0  0  0  0  0  0  0  # atno 6909 bound_to 6896
  145.3245  139.2503  143.3694 H   0  0  0  0  0  0  0  0  0  0  0  0  # atno 7974 bound_to 7965
  155.4804  140.0560  157.2968 H   0  0  0  0  0  0  0  0  0  0  0  0  # atno 8008 bound_to 7997
  154.4663  140.2020  156.0063 H   0  0  0  0  0  0  0  0  0  0  0  0  # atno 8009 bound_to 7997
  156.0979  140.3223  155.7907 H   0  0  0  0  0  0  0  0  0  0  0  0  # atno 8010 bound_to 7997
  140.3899  144.1866  150.6131 H   0  0  0  0  0  0  0  0  0  0  0  0  # atno 10167 bound_to 10162
  156.0504  130.5731  150.8012 H   0  0  0  0  0  0  0  0  0  0  0  0  # atno 10718 bound_to 10713
  154.7675  135.3135  154.8257 H   0  0  0  0  0  0  0  0  0  0  0  0  # atno 10763 bound_to 10752
  153.9002  135.6816  153.4760 H   0  0  0  0  0  0  0  0  0  0  0  0  # atno 10764 bound_to 10752
  153.1283  135.4791  154.9241 H   0  0  0  0  0  0  0  0  0  0  0  0  # atno 10765 bound_to 10752
  140.0586  134.5634  155.9178 H   0  0  0  0  0  0  0  0  0  0  0  0  # atno 11005 bound_to 11000
  146.3069  140.3810  142.8684 LP  0  0  0  0  0  0  0  0  0  0  0  0  # atno 17320 bound_to 7965
  144.8913  140.7527  143.5925 LP  0  0  0  0  0  0  0  0  0  0  0  0  # atno 17321 bound_to 7965
  140.4850  143.2366  151.8901 LP  0  0  0  0  0  0  0  0  0  0  0  0  # atno 17342 bound_to 10162
  139.4789  144.5228  151.8777 LP  0  0  0  0  0  0  0  0  0  0  0  0  # atno 17343 bound_to 10162
  157.5424  131.0941  150.9809 LP  0  0  0  0  0  0  0  0  0  0  0  0  # atno 17370 bound_to 10713
  157.0088  130.5628  149.5318 LP  0  0  0  0  0  0  0  0  0  0  0  0  # atno 17371 bound_to 10713
  141.1963  133.6591  156.5685 LP  0  0  0  0  0  0  0  0  0  0  0  0  # atno 17394 bound_to 11000
  140.3805  134.7527  157.4658 LP  0  0  0  0  0  0  0  0  0  0  0  0  # atno 17395 bound_to 11000

$$$$
