AV-unprocessed.smi:3232|AV-procd|sdf|12343|dock1
  -GOLD-   2272018203D 1   1.00000     0.00000
 Structure written by MMmdl.
 40 41  0  0  0  0  0  0  0  0  2 V2000
  144.3625  135.4438  150.9085 C   0  0  0  0  0  0  0  0  0  0  0  0
  145.7753  135.9252  151.2641 C   0  0  0  0  0  0  0  0  0  0  0  0
  146.5603  134.8853  151.9724 N   0  3  2  0  0  0  0  0  0  0  0  0
  146.5668  133.5602  151.3167 C   0  0  0  0  0  0  0  0  0  0  0  0
  146.8777  132.5690  152.4309 C   0  0  0  0  0  0  0  0  0  0  0  0
  146.1408  133.1625  153.6254 C   0  0  0  0  0  0  0  0  0  0  0  0
  146.1697  134.6867  153.3911 C   0  0  1  0  0  0  0  0  0  0  0  0
  147.1430  135.4384  154.3237 C   0  0  0  0  0  0  0  0  0  0  0  0
  147.3697  136.8096  153.8835 N   0  0  0  0  0  0  0  0  0  0  0  0
  146.7560  137.8916  154.3887 C   0  0  0  0  0  0  0  0  0  0  0  0
  145.8587  137.8185  155.2292 O   0  0  0  0  0  0  0  0  0  0  0  0
  147.2538  139.2537  153.8769 C   0  0  1  0  0  0  0  0  0  0  0  0
  146.3378  140.4251  154.2859 C   0  0  0  0  0  0  0  0  0  0  0  0
  148.6336  139.4727  154.2960 N   0  0  0  0  0  0  0  0  0  0  0  0
  149.7709  138.9817  153.7986 C   0  0  0  0  0  0  0  0  0  0  0  0
  150.8545  139.3493  154.4677 N   0  0  0  0  0  0  0  0  0  0  0  0
  150.2750  140.1189  155.4361 C   0  0  0  0  0  0  0  0  0  0  0  0
  148.9466  140.2163  155.3869 N   0  0  0  0  0  0  0  0  0  0  0  0
  143.8281  136.2063  150.3414 H   0  0  0  0  0  0  0  0  0  0  0  0
  143.7735  135.2277  151.7998 H   0  0  0  0  0  0  0  0  0  0  0  0
  144.3955  134.5406  150.2983 H   0  0  0  0  0  0  0  0  0  0  0  0
  146.2954  136.1875  150.3418 H   0  0  0  0  0  0  0  0  0  0  0  0
  145.7283  136.8339  151.8663 H   0  0  0  0  0  0  0  0  0  0  0  0
  145.5806  133.3452  150.9019 H   0  0  0  0  0  0  0  0  0  0  0  0
  147.2934  133.5139  150.5051 H   0  0  0  0  0  0  0  0  0  0  0  0
  146.5600  131.5524  152.1973 H   0  0  0  0  0  0  0  0  0  0  0  0
  147.9506  132.5524  152.6269 H   0  0  0  0  0  0  0  0  0  0  0  0
  145.1065  132.8154  153.6205 H   0  0  0  0  0  0  0  0  0  0  0  0
  146.5785  132.8517  154.5746 H   0  0  0  0  0  0  0  0  0  0  0  0
  145.1585  135.0690  153.5442 H   0  0  0  0  0  0  0  0  0  0  0  0
  146.7413  135.4700  155.3369 H   0  0  0  0  0  0  0  0  0  0  0  0
  148.0974  134.9124  154.3860 H   0  0  0  0  0  0  0  0  0  0  0  0
  148.0879  136.9534  153.1882 H   0  0  0  0  0  0  0  0  0  0  0  0
  147.2520  139.2043  152.7868 H   0  0  0  0  0  0  0  0  0  0  0  0
  145.3243  140.2826  153.9092 H   0  0  0  0  0  0  0  0  0  0  0  0
  146.7065  141.3666  153.8777 H   0  0  0  0  0  0  0  0  0  0  0  0
  146.2761  140.5376  155.3693 H   0  0  0  0  0  0  0  0  0  0  0  0
  149.8064  138.3325  152.9357 H   0  0  0  0  0  0  0  0  0  0  0  0
  150.8478  140.6139  156.2064 H   0  0  0  0  0  0  0  0  0  0  0  0
  147.5211  135.1960  151.9943 H   0  0  0  0  0  0  0  0  0  0  0  0
  1  2  1  0  0  0  0
  1 19  1  0  0  0  0
  1 20  1  0  0  0  0
  1 21  1  0  0  0  0
  2  3  1  0  0  0  0
  2 22  1  0  0  0  0
  2 23  1  0  0  0  0
  3  7  1  0  0  0  0
  3  4  1  0  0  0  0
  3 40  1  0  0  0  0
  4  5  1  0  0  0  0
  4 24  1  0  0  0  0
  4 25  1  0  0  0  0
  5  6  1  0  0  0  0
  5 26  1  0  0  0  0
  5 27  1  0  0  0  0
  6  7  1  0  0  0  0
  6 28  1  0  0  0  0
  6 29  1  0  0  0  0
  7  8  1  0  0  0  0
  7 30  1  0  0  0  0
  8  9  1  0  0  0  0
  8 31  1  0  0  0  0
  8 32  1  0  0  0  0
  9 10  1  0  0  0  0
  9 33  1  0  0  0  0
 10 11  2  0  0  0  0
 10 12  1  0  0  0  0
 12 13  1  0  0  0  0
 12 14  1  0  0  0  0
 12 34  1  0  0  0  0
 13 35  1  0  0  0  0
 13 36  1  0  0  0  0
 13 37  1  0  0  0  0
 14 18  1  0  0  0  0
 14 15  1  0  0  0  0
 15 16  2  0  0  0  0
 15 38  1  0  0  0  0
 16 17  1  0  0  0  0
 17 18  2  0  0  0  0
 17 39  1  0  0  0  0
M  CHG  1   3   1
M  END
> <s_m_source_file>
AV-unprocessed.smi

> <i_m_source_file_index>
3232

> <i_lp_mmshare_version>
43012

> <i_f3d_flags>
0

> <s_epik_input>
W0NIM11bQ0gyXU4xW0NIMl1bQ0gyXVtDSDJdW0NASF0xW0NIMl1bTkhdQyg9TylbQ0BIXShbQ0gzXSluMltjSF1uW2NIXW4y

> <s_epik_cmdline>
J2VwaWtfcHl0aG9uJywgJy1waCcsICc3LjAnLCAnLXRuJywgJzgnLCAnLW1hJywgJzIwMCcsICctbWV0YWxfYmluZGluZycsICctaW1hZScsICc8aW5maWxlLm1hZT4nLCAnLW9tYWUnLCAnPG91dGZpbGUubWFlPic=

> <r_lp_tautomer_probability>
1

> <r_epik_Ionization_Penalty>
0.00177695

> <r_epik_Ionization_Penalty_Charging>
0.00176881

> <r_epik_Ionization_Penalty_Neutral>
8.13528e-06

> <r_epik_State_Penalty>
0.00119827

> <r_epik_Charging_Adjusted_Penalty>
0.00296709

> <i_epik_Tot_Q>
1

> <i_epik_Tot_abs_Q>
1

> <r_epik_Metal_State_Penalty>
-0

> <b_epik_Metal_Only>
0

> <s_lp_Force_Field>
OPLS_2005

> <r_lp_Energy>
32.1761

> <b_lp_Chiralities_Consistent>
1

> <s_lp_Variant>
AV-unprocessed.smi:3232-5

> <Gold.Version>
5.8.1

> <Gold.Id.Protein>
6NUR|6NUR_protein|mol2

> <Gold.PLP.Fitness>
35.4789

> <Gold.PLP.PLP>
-21.4127

> <Gold.PLP.part.hbond>
-3.0000

> <Gold.PLP.part.metal>
0.0000

> <Gold.PLP.part.buried>
-1.1131

> <Gold.PLP.part.nonpolar>
-18.7458

> <Gold.PLP.part.repulsive>
0.2293

> <Gold.PLP.ligand.clash>
0.0000

> <Gold.PLP.ligand.torsion>
1.1016

> <Gold.PLP.Chemscore.Hbond>
3.8480

> <Gold.PLP.Chemscore.CHOScore>
1.5279

> <Gold.PLP.Chemscore.Metal>
0.0000

> <Gold.Chemscore.Hbonds>
donor molecule, donor type, donor heavy atom, donor atom, acceptor molecule, acceptor atom, score
      L1  H     3    40       P1  7948  2.00
      L1  H     9    33       P1  7948  0.91
      P1  H  7989  7998       L1    16  0.75
      L1  C    15    38       P1  7948  1.00
      L1  C    15    38       P1  7957  0.40

> <Gold.PLP.Chemscore.Internal.Correction>
0.1418

> <Gold.Rescore>
     Score         DG    S(hbond)    S(metal)    S(lipo)     H(rot)  DE(clash)    DE(int)     intcor
     10.28     -12.17       2.62        0.00      36.93       2.49       0.80       1.10       ----

> <Gold.Chemscore.Fitness>
10.2780

> <Gold.Chemscore.DG>
-12.1743

> <Gold.Chemscore.ZeroCoef>
-5.4800

> <Gold.Chemscore.Hbond>
2.6178

> <Gold.Chemscore.Metal>
0.0000

> <Gold.Chemscore.Lipo>
36.9276

> <Gold.Chemscore.Internal_Hbond>
0.0000

> <Gold.Chemscore.DEClash>
0.7956

> <Gold.Chemscore.DEInternal>
1.1007

> <Gold.Chemscore.Rot>
2.4882

> <Gold.Chemscore.Internal.Correction>
   9.000000E+99

> <Gold.Chemscore.Hbonds>
donor molecule, donor type, donor heavy atom, donor atom, acceptor molecule, acceptor atom, score
      L1  H     3    40       P1  7948  0.97
      L1  H     9    33       P1  7948  0.88
      P1  H  7989  7998       L1    16  0.06

> <Gold.Chemscore.Hbond.Weighted>
-8.7435

> <Gold.Chemscore.Metal.Weighted>
-0.0000

> <Gold.Chemscore.Lipo.Weighted>
-4.3205

> <Gold.Chemscore.Internal_Hbond.Weighted>
0.0000

> <Gold.Chemscore.DEClash.Weighted>
0.7956

> <Gold.Chemscore.DEInternal.Weighted>
1.1007

> <Gold.Chemscore.Rot.Weighted>
6.3697

> <Gold.Chemscore.Internal.Correction.Weighted>
   9.000000E+99

> <Gold.Protein.RotatedTorsions>
[ 6907 6896 6895 6894 ] final  103.99 input  -60.11 | X-H torsion
[ 7974 7965 7964 7962 ] final  102.84 input  175.53 | X-H torsion
[ 8008 7997 7996 7995 ] final  -89.08 input   59.86 | X-H torsion
[ 10167 10162 10161 10158 ] final  -55.47 input  -65.29 | X-H torsion
[ 10718 10713 10712 10709 ] final   10.77 input   66.30 | X-H torsion
[ 10763 10752 10751 10750 ] final  105.61 input  -60.55 | X-H torsion
[ 11005 11000 10999 10996 ] final  -99.98 input  -57.11 | X-H torsion

> <Gold.Protein.ActiveResidues>
 VAL166  LYS551  ARG553  GLY616  TRP617  ASP618  TYR619  PRO620  LYS621  CYS622 
 ASP623  PHE694  ASN695  SER759  ASP760  ASP761  ALA762  ILE779  LEU786  VAL792 
 PHE793  MET794  SER795  GLU796  ALA797  LYS798  CYS799  TRP800  GLU811  SER814 

> <Gold.Protein.RotatedAtoms>
  152.5278  133.9744  159.7776 H   0  0  0  0  0  0  0  0  0  0  0  0  # atno 6907 bound_to 6896
  151.0010  133.6048  159.2702 H   0  0  0  0  0  0  0  0  0  0  0  0  # atno 6908 bound_to 6896
  151.3158  135.0812  159.9341 H   0  0  0  0  0  0  0  0  0  0  0  0  # atno 6909 bound_to 6896
  145.3538  139.2433  143.3544 H   0  0  0  0  0  0  0  0  0  0  0  0  # atno 7974 bound_to 7965
  154.6824  140.0546  157.0279 H   0  0  0  0  0  0  0  0  0  0  0  0  # atno 8008 bound_to 7997
  155.0933  140.3221  155.4549 H   0  0  0  0  0  0  0  0  0  0  0  0  # atno 8009 bound_to 7997
  156.2699  140.2044  156.6060 H   0  0  0  0  0  0  0  0  0  0  0  0  # atno 8010 bound_to 7997
  140.6372  143.2488  151.5085 H   0  0  0  0  0  0  0  0  0  0  0  0  # atno 10167 bound_to 10162
  156.9858  130.6023  149.5681 H   0  0  0  0  0  0  0  0  0  0  0  0  # atno 10718 bound_to 10713
  153.3817  135.3904  155.1861 H   0  0  0  0  0  0  0  0  0  0  0  0  # atno 10763 bound_to 10752
  154.8708  135.3727  154.4849 H   0  0  0  0  0  0  0  0  0  0  0  0  # atno 10764 bound_to 10752
  153.5326  135.7085  153.5737 H   0  0  0  0  0  0  0  0  0  0  0  0  # atno 10765 bound_to 10752
  141.1288  133.8364  157.1043 H   0  0  0  0  0  0  0  0  0  0  0  0  # atno 11005 bound_to 11000
  146.2957  140.4159  142.8723 LP  0  0  0  0  0  0  0  0  0  0  0  0  # atno 17320 bound_to 7965
  144.8698  140.7256  143.6054 LP  0  0  0  0  0  0  0  0  0  0  0  0  # atno 17321 bound_to 7965
  139.5582  144.2221  152.1648 LP  0  0  0  0  0  0  0  0  0  0  0  0  # atno 17342 bound_to 10162
  140.1481  144.5140  150.6703 LP  0  0  0  0  0  0  0  0  0  0  0  0  # atno 17343 bound_to 10162
  156.0226  130.5321  150.8319 LP  0  0  0  0  0  0  0  0  0  0  0  0  # atno 17370 bound_to 10713
  157.5494  131.0943  150.9717 LP  0  0  0  0  0  0  0  0  0  0  0  0  # atno 17371 bound_to 10713
  140.0314  134.9899  157.0787 LP  0  0  0  0  0  0  0  0  0  0  0  0  # atno 17394 bound_to 11000
  140.4279  134.1811  155.7167 LP  0  0  0  0  0  0  0  0  0  0  0  0  # atno 17395 bound_to 11000

$$$$
