AV-unprocessed.smi:72|AV-procd|sdf|664|dock6
  -GOLD-   2262016563D 1   1.00000     0.00000
 Structure written by MMmdl.
 29 30  0  0  0  0  0  0  0  0  1 V2000
  151.9864  137.0756  153.9454 N   0  0  0  0  0  0  0  0  0  0  0  0
  151.7580  137.9155  154.8909 C   0  0  0  0  0  0  0  0  0  0  0  0
  152.7131  138.3870  155.8041 N   0  0  0  0  0  0  0  0  0  0  0  0
  152.3413  139.2370  156.7111 C   0  0  0  0  0  0  0  0  0  0  0  0
  150.9687  139.7124  156.8123 N   0  0  0  0  0  0  0  0  0  0  0  0
  150.5334  140.7084  157.8712 C   0  0  1  0  0  0  0  0  0  0  0  0
  151.6045  140.9813  158.7317 O   0  0  0  0  0  0  0  0  0  0  0  0
  152.0134  142.3348  158.5734 C   0  0  2  0  0  0  0  0  0  0  0  0
  152.7705  142.8260  159.8203 C   0  0  0  0  0  0  0  0  0  0  0  0
  152.0316  142.6218  161.0069 O   0  0  0  0  0  0  0  0  0  0  0  0
  150.7220  143.0652  158.2039 C   0  0  1  0  0  0  0  0  0  0  0  0
  150.9474  144.3267  157.6027 O   0  0  0  0  0  0  0  0  0  0  0  0
  150.0445  142.0563  157.2805 C   0  0  1  0  0  0  0  0  0  0  0  0
  150.4065  142.2438  155.9200 O   0  0  0  0  0  0  0  0  0  0  0  0
  149.9958  139.2531  155.8922 C   0  0  0  0  0  0  0  0  0  0  0  0
  148.8278  139.6403  155.9204 O   0  0  0  0  0  0  0  0  0  0  0  0
  150.4336  138.3663  154.9725 N   0  0  0  0  0  0  0  0  0  0  0  0
  149.7695  140.1993  158.4612 H   0  0  0  0  0  0  0  0  0  0  0  0
  152.6957  142.3651  157.7220 H   0  0  0  0  0  0  0  0  0  0  0  0
  150.0959  143.2017  159.0860 H   0  0  0  0  0  0  0  0  0  0  0  0
  148.9583  142.1149  157.3553 H   0  0  0  0  0  0  0  0  0  0  0  0
  151.1430  136.8920  153.4221 H   0  0  0  0  0  0  0  0  0  0  0  0
  153.0340  139.6449  157.4468 H   0  0  0  0  0  0  0  0  0  0  0  0
  153.7378  142.3294  159.9007 H   0  0  0  0  0  0  0  0  0  0  0  0
  152.9680  143.8945  159.7316 H   0  0  0  0  0  0  0  0  0  0  0  0
  152.4214  141.9054  161.4846 H   0  0  0  0  0  0  0  0  0  0  0  0
  150.2621  144.4841  156.9716 H   0  0  0  0  0  0  0  0  0  0  0  0
  150.2442  143.1454  155.6887 H   0  0  0  0  0  0  0  0  0  0  0  0
  149.7611  138.0185  154.3050 H   0  0  0  0  0  0  0  0  0  0  0  0
  1  2  2  0  0  0  0
  1 22  1  0  0  0  0
  2 17  1  0  0  0  0
  2  3  1  0  0  0  0
  3  4  2  0  0  0  0
  4  5  1  0  0  0  0
  4 23  1  0  0  0  0
  5  6  1  0  0  0  0
  5 15  1  0  0  0  0
  6 18  1  0  0  0  0
  6 13  1  0  0  0  0
  6  7  1  0  0  0  0
  7  8  1  0  0  0  0
  8 19  1  0  0  0  0
  8  9  1  0  0  0  0
  8 11  1  0  0  0  0
  9 10  1  0  0  0  0
  9 24  1  0  0  0  0
  9 25  1  0  0  0  0
 10 26  1  0  0  0  0
 11 20  1  0  0  0  0
 11 12  1  0  0  0  0
 11 13  1  0  0  0  0
 12 27  1  0  0  0  0
 13 21  1  0  0  0  0
 13 14  1  0  0  0  0
 14 28  1  0  0  0  0
 15 16  2  0  0  0  0
 15 17  1  0  0  0  0
 17 29  1  0  0  0  0
M  END
> <s_m_source_file>
AV-unprocessed.smi

> <i_m_source_file_index>
72

> <i_lp_mmshare_version>
43012

> <i_f3d_flags>
0

> <s_epik_input>
W05IMl1jMW5bY0hdbihjKD1PKW4xKVtDQEBIXTJPW0NASF0oW0NIMl1bT0hdKVtDQEBIXShbT0hdKVtDQEhdMltPSF0=

> <s_epik_cmdline>
J2VwaWtfcHl0aG9uJywgJy1waCcsICc3LjAnLCAnLXRuJywgJzgnLCAnLW1hJywgJzIwMCcsICctbWV0YWxfYmluZGluZycsICctaW1hZScsICc8aW5maWxlLm1hZT4nLCAnLW9tYWUnLCAnPG91dGZpbGUubWFlPic=

> <r_lp_tautomer_probability>
7.17554e-07

> <r_epik_Ionization_Penalty>
0.0066451

> <r_epik_Ionization_Penalty_Charging>
0.00663793

> <r_epik_Ionization_Penalty_Neutral>
7.17052e-06

> <r_epik_State_Penalty>
0.419231

> <r_epik_Charging_Adjusted_Penalty>
0.425868

> <i_epik_Tot_Q>
0

> <i_epik_Tot_abs_Q>
0

> <r_epik_Metal_State_Penalty>
1.44144

> <b_epik_Metal_Only>
0

> <s_epik_Chemistry_Notes>
This compound contains an acetal/aminal-like group ( X-CH(R)-Y where X, Y are N, S, or O) that may be acid/base labile, releasing an aldehyde.

> <s_lp_Force_Field>
OPLS_2005

> <r_lp_Energy>
49.4302

> <b_lp_Chiralities_Consistent>
1

> <s_lp_Variant>
AV-unprocessed.smi:72-2

> <Gold.Version>
5.8.1

> <Gold.Id.Protein>
6NUR|6NUR_protein|mol2

> <Gold.PLP.Fitness>
36.4755

> <Gold.PLP.PLP>
-25.8606

> <Gold.PLP.part.hbond>
-5.1851

> <Gold.PLP.part.metal>
0.0000

> <Gold.PLP.part.buried>
-3.5366

> <Gold.PLP.part.nonpolar>
-16.6764

> <Gold.PLP.part.repulsive>
0.0863

> <Gold.PLP.ligand.clash>
0.0000

> <Gold.PLP.ligand.torsion>
0.0448

> <Gold.PLP.Chemscore.Hbond>
3.5520

> <Gold.PLP.Chemscore.CHOScore>
0.0000

> <Gold.PLP.Chemscore.Metal>
0.0000

> <Gold.Chemscore.Hbonds>
donor molecule, donor type, donor heavy atom, donor atom, acceptor molecule, acceptor atom, score
      L1  H     1    22       P1  7949  0.33
      L1  H    12    27       P1  8028  1.00
      L1  H    14    28       P1  8028  0.86
      P1  H 10752 10763       L1     1  0.98

> <Gold.PLP.Chemscore.Internal.Correction>
0.0484

> <Gold.Rescore>
     Score         DG    S(hbond)    S(metal)    S(lipo)     H(rot)  DE(clash)    DE(int)     intcor
      8.25      -8.65       2.79        0.00      36.16       4.06       0.26       0.14       ----

> <Gold.Chemscore.Fitness>
8.2453

> <Gold.Chemscore.DG>
-8.6460

> <Gold.Chemscore.ZeroCoef>
-5.4800

> <Gold.Chemscore.Hbond>
2.7931

> <Gold.Chemscore.Metal>
0.0000

> <Gold.Chemscore.Lipo>
36.1580

> <Gold.Chemscore.Internal_Hbond>
0.0000

> <Gold.Chemscore.DEClash>
0.2577

> <Gold.Chemscore.DEInternal>
0.1431

> <Gold.Chemscore.Rot>
4.0600

> <Gold.Chemscore.Internal.Correction>
   9.000000E+99

> <Gold.Chemscore.Hbonds>
donor molecule, donor type, donor heavy atom, donor atom, acceptor molecule, acceptor atom, score
      L1  H     1    22       P1  7949  0.15
      L1  H    12    27       P1  8028  0.78
      L1  H    14    28       P1  8028  0.79
      P1  H 10752 10763       L1     1  0.77

> <Gold.Chemscore.Hbond.Weighted>
-9.3291

> <Gold.Chemscore.Metal.Weighted>
-0.0000

> <Gold.Chemscore.Lipo.Weighted>
-4.2305

> <Gold.Chemscore.Internal_Hbond.Weighted>
0.0000

> <Gold.Chemscore.DEClash.Weighted>
0.2577

> <Gold.Chemscore.DEInternal.Weighted>
0.1431

> <Gold.Chemscore.Rot.Weighted>
10.3936

> <Gold.Chemscore.Internal.Correction.Weighted>
   9.000000E+99

> <Gold.Protein.RotatedTorsions>
[ 6907 6896 6895 6894 ] final -168.36 input  -60.11 | X-H torsion
[ 7974 7965 7964 7962 ] final   -8.18 input  175.53 | X-H torsion
[ 8008 7997 7996 7995 ] final   63.37 input   59.86 | X-H torsion
[ 10167 10162 10161 10158 ] final -120.56 input  -65.29 | X-H torsion
[ 10718 10713 10712 10709 ] final -141.25 input   66.30 | X-H torsion
[ 10763 10752 10751 10750 ] final   17.02 input  -60.55 | X-H torsion
[ 11005 11000 10999 10996 ] final -171.57 input  -57.11 | X-H torsion

> <Gold.Protein.ActiveResidues>
 VAL166  LYS551  ARG553  GLY616  TRP617  ASP618  TYR619  PRO620  LYS621  CYS622 
 ASP623  PHE694  ASN695  SER759  ASP760  ASP761  ALA762  ILE779  LEU786  VAL792 
 PHE793  MET794  SER795  GLU796  ALA797  LYS798  CYS799  TRP800  GLU811  SER814 

> <Gold.Protein.RotatedAtoms>
  151.4743  133.3561  159.2827 H   0  0  0  0  0  0  0  0  0  0  0  0  # atno 6907 bound_to 6896
  150.8940  134.8348  159.7324 H   0  0  0  0  0  0  0  0  0  0  0  0  # atno 6908 bound_to 6896
  152.4840  134.4656  159.9671 H   0  0  0  0  0  0  0  0  0  0  0  0  # atno 6909 bound_to 6896
  146.2287  140.2429  142.8344 H   0  0  0  0  0  0  0  0  0  0  0  0  # atno 7974 bound_to 7965
  155.6292  140.3496  155.4677 H   0  0  0  0  0  0  0  0  0  0  0  0  # atno 8008 bound_to 7997
  156.0017  140.1214  157.0564 H   0  0  0  0  0  0  0  0  0  0  0  0  # atno 8009 bound_to 7997
  154.4251  140.1099  156.5692 H   0  0  0  0  0  0  0  0  0  0  0  0  # atno 8010 bound_to 7997
  140.0345  143.5215  152.2160 H   0  0  0  0  0  0  0  0  0  0  0  0  # atno 10167 bound_to 10162
  156.3318  130.7590  151.1710 H   0  0  0  0  0  0  0  0  0  0  0  0  # atno 10718 bound_to 10713
  153.1377  135.6753  153.9076 H   0  0  0  0  0  0  0  0  0  0  0  0  # atno 10763 bound_to 10752
  153.8543  135.3089  155.3435 H   0  0  0  0  0  0  0  0  0  0  0  0  # atno 10764 bound_to 10752
  154.7761  135.4913  153.9831 H   0  0  0  0  0  0  0  0  0  0  0  0  # atno 10765 bound_to 10752
  140.5067  134.5841  157.5006 H   0  0  0  0  0  0  0  0  0  0  0  0  # atno 11005 bound_to 11000
  144.9470  140.8139  143.5595 LP  0  0  0  0  0  0  0  0  0  0  0  0  # atno 17320 bound_to 7965
  145.2386  139.2082  143.5004 LP  0  0  0  0  0  0  0  0  0  0  0  0  # atno 17321 bound_to 7965
  139.6054  144.7594  151.3074 LP  0  0  0  0  0  0  0  0  0  0  0  0  # atno 17342 bound_to 10162
  140.7287  143.6927  150.7909 LP  0  0  0  0  0  0  0  0  0  0  0  0  # atno 17343 bound_to 10162
  157.7432  131.0479  150.4967 LP  0  0  0  0  0  0  0  0  0  0  0  0  # atno 17370 bound_to 10713
  156.5134  130.4145  149.6289 LP  0  0  0  0  0  0  0  0  0  0  0  0  # atno 17371 bound_to 10713
  139.9682  134.7337  156.0095 LP  0  0  0  0  0  0  0  0  0  0  0  0  # atno 17394 bound_to 11000
  141.1407  133.6565  156.3721 LP  0  0  0  0  0  0  0  0  0  0  0  0  # atno 17395 bound_to 11000

$$$$
