AV-unprocessed.smi:3352|AV-procd|sdf|12951|dock1
  -GOLD-   2272019383D 1   1.00000     0.00000
 Structure written by MMmdl.
 38 39  0  0  0  0  0  0  0  0  1 V2000
  145.9124  139.2399  158.0234 C   0  0  0  0  0  0  0  0  0  0  0  0
  145.5994  138.4423  156.7496 C   0  0  0  0  0  0  0  0  0  0  0  0
  145.9619  136.9561  156.8832 C   0  0  0  0  0  0  0  0  0  0  0  0
  146.2233  139.0667  155.5404 C   0  0  0  0  0  0  0  0  0  0  0  0
  147.0194  140.1376  155.5982 N   0  0  0  0  0  0  0  0  0  0  0  0
  147.5212  140.5105  154.3463 C   0  0  0  0  0  0  0  0  0  0  0  0
  148.4733  141.6666  154.2325 C   0  0  0  0  0  0  0  0  0  0  0  0
  149.7158  141.3848  155.0783 C   0  0  0  0  0  0  0  0  0  0  0  0
  150.3680  140.3568  154.8976 O   0  0  0  0  0  0  0  0  0  0  0  0
  150.0073  142.2918  156.0232 N   0  0  0  0  0  0  0  0  0  0  0  0
  151.0156  142.1293  157.0623 C   0  0  0  0  0  0  0  0  0  0  0  0
  151.5709  143.4899  157.5209 C   0  0  2  0  0  0  0  0  0  0  0  0
  152.6855  143.4099  158.5661 C   0  0  0  0  0  0  0  0  0  0  0  0
  152.5814  144.7354  159.3042 C   0  0  0  0  0  0  0  0  0  0  0  0
  151.2308  145.3075  158.8620 C   0  0  0  0  0  0  0  0  0  0  0  0
  150.5733  144.2398  158.1933 O   0  0  0  0  0  0  0  0  0  0  0  0
  147.0721  139.7100  153.3253 C   0  0  0  0  0  0  0  0  0  0  0  0
  146.0262  138.4432  153.9041 S   0  0  0  0  0  0  0  0  0  0  0  0
  145.5785  140.2738  157.9301 H   0  0  0  0  0  0  0  0  0  0  0  0
  146.9825  139.2527  158.2318 H   0  0  0  0  0  0  0  0  0  0  0  0
  145.4102  138.8090  158.8898 H   0  0  0  0  0  0  0  0  0  0  0  0
  144.5183  138.4887  156.6084 H   0  0  0  0  0  0  0  0  0  0  0  0
  145.6713  136.3999  155.9913 H   0  0  0  0  0  0  0  0  0  0  0  0
  145.4520  136.5038  157.7341 H   0  0  0  0  0  0  0  0  0  0  0  0
  147.0337  136.8175  157.0287 H   0  0  0  0  0  0  0  0  0  0  0  0
  148.7677  141.8238  153.1940 H   0  0  0  0  0  0  0  0  0  0  0  0
  148.0071  142.5942  154.5678 H   0  0  0  0  0  0  0  0  0  0  0  0
  149.4165  143.1083  156.0890 H   0  0  0  0  0  0  0  0  0  0  0  0
  150.6056  141.5771  157.9093 H   0  0  0  0  0  0  0  0  0  0  0  0
  151.8214  141.5189  156.6538 H   0  0  0  0  0  0  0  0  0  0  0  0
  151.9158  144.0657  156.6599 H   0  0  0  0  0  0  0  0  0  0  0  0
  152.4956  142.5900  159.2600 H   0  0  0  0  0  0  0  0  0  0  0  0
  153.6676  143.2500  158.1191 H   0  0  0  0  0  0  0  0  0  0  0  0
  152.6188  144.5807  160.3830 H   0  0  0  0  0  0  0  0  0  0  0  0
  153.3938  145.4107  159.0338 H   0  0  0  0  0  0  0  0  0  0  0  0
  150.6362  145.6732  159.6994 H   0  0  0  0  0  0  0  0  0  0  0  0
  151.3751  146.1320  158.1622 H   0  0  0  0  0  0  0  0  0  0  0  0
  147.3074  139.7785  152.2735 H   0  0  0  0  0  0  0  0  0  0  0  0
  1  2  1  0  0  0  0
  1 19  1  0  0  0  0
  1 20  1  0  0  0  0
  1 21  1  0  0  0  0
  2  3  1  0  0  0  0
  2  4  1  0  0  0  0
  2 22  1  0  0  0  0
  3 23  1  0  0  0  0
  3 24  1  0  0  0  0
  3 25  1  0  0  0  0
  4 18  1  0  0  0  0
  4  5  2  0  0  0  0
  5  6  1  0  0  0  0
  6  7  1  0  0  0  0
  6 17  2  0  0  0  0
  7  8  1  0  0  0  0
  7 26  1  0  0  0  0
  7 27  1  0  0  0  0
  8  9  2  0  0  0  0
  8 10  1  0  0  0  0
 10 11  1  0  0  0  0
 10 28  1  0  0  0  0
 11 12  1  0  0  0  0
 11 29  1  0  0  0  0
 11 30  1  0  0  0  0
 12 16  1  0  0  0  0
 12 13  1  0  0  0  0
 12 31  1  0  0  0  0
 13 14  1  0  0  0  0
 13 32  1  0  0  0  0
 13 33  1  0  0  0  0
 14 15  1  0  0  0  0
 14 34  1  0  0  0  0
 14 35  1  0  0  0  0
 15 16  1  0  0  0  0
 15 36  1  0  0  0  0
 15 37  1  0  0  0  0
 17 18  1  0  0  0  0
 17 38  1  0  0  0  0
M  END
> <s_m_source_file>
AV-unprocessed.smi

> <i_m_source_file_index>
3352

> <i_lp_mmshare_version>
43012

> <i_f3d_flags>
0

> <s_epik_input>
W0NIM11bQ0hdKFtDSDNdKWMxbmMoW2NIXXMxKVtDSDJdQyg9TylbTkhdW0NIMl1bQ0BASF0yW0NIMl1bQ0gyXVtDSDJdTzI=

> <s_epik_cmdline>
J2VwaWtfcHl0aG9uJywgJy1waCcsICc3LjAnLCAnLXRuJywgJzgnLCAnLW1hJywgJzIwMCcsICctbWV0YWxfYmluZGluZycsICctaW1hZScsICc8aW5maWxlLm1hZT4nLCAnLW9tYWUnLCAnPG91dGZpbGUubWFlPic=

> <r_lp_tautomer_probability>
1

> <r_epik_Ionization_Penalty>
4.66014e-05

> <r_epik_Ionization_Penalty_Charging>
0

> <r_epik_Ionization_Penalty_Neutral>
4.66014e-05

> <r_epik_State_Penalty>
-0

> <r_epik_Charging_Adjusted_Penalty>
0

> <i_epik_Tot_Q>
0

> <i_epik_Tot_abs_Q>
0

> <r_epik_Metal_State_Penalty>
-0

> <b_epik_Metal_Only>
0

> <s_lp_Force_Field>
OPLS_2005

> <r_lp_Energy>
7.75536

> <b_lp_Chiralities_Consistent>
1

> <s_lp_Variant>
AV-unprocessed.smi:3352-1

> <Gold.Version>
5.8.1

> <Gold.Id.Protein>
6NUR|6NUR_protein|mol2

> <Gold.PLP.Fitness>
39.8483

> <Gold.PLP.PLP>
-31.2242

> <Gold.PLP.part.hbond>
-2.0000

> <Gold.PLP.part.metal>
0.0000

> <Gold.PLP.part.buried>
-3.5047

> <Gold.PLP.part.nonpolar>
-26.4543

> <Gold.PLP.part.repulsive>
0.7996

> <Gold.PLP.ligand.clash>
0.0000

> <Gold.PLP.ligand.torsion>
0.2423

> <Gold.PLP.Chemscore.Hbond>
2.0000

> <Gold.PLP.Chemscore.CHOScore>
0.9993

> <Gold.PLP.Chemscore.Metal>
0.0000

> <Gold.Chemscore.Hbonds>
donor molecule, donor type, donor heavy atom, donor atom, acceptor molecule, acceptor atom, score
      L1  H    10    28       P1  8028  1.00
      P1  H  7989  7998       L1     9  1.00
      L1  C    17    38       P1  7957  0.96

> <Gold.PLP.Chemscore.Internal.Correction>
0.1108

> <Gold.Rescore>
     Score         DG    S(hbond)    S(metal)    S(lipo)     H(rot)  DE(clash)    DE(int)     intcor
     16.21     -16.52       1.64        0.00      81.60       1.55       0.06       0.25       ----

> <Gold.Chemscore.Fitness>
16.2077

> <Gold.Chemscore.DG>
-16.5233

> <Gold.Chemscore.ZeroCoef>
-5.4800

> <Gold.Chemscore.Hbond>
1.6372

> <Gold.Chemscore.Metal>
0.0000

> <Gold.Chemscore.Lipo>
81.6049

> <Gold.Chemscore.Internal_Hbond>
0.0000

> <Gold.Chemscore.DEClash>
0.0618

> <Gold.Chemscore.DEInternal>
0.2537

> <Gold.Chemscore.Rot>
1.5518

> <Gold.Chemscore.Internal.Correction>
   9.000000E+99

> <Gold.Chemscore.Hbonds>
donor molecule, donor type, donor heavy atom, donor atom, acceptor molecule, acceptor atom, score
      L1  H    10    28       P1  8028  0.98
      P1  H  7989  7998       L1     9  0.38

> <Gold.Chemscore.Hbond.Weighted>
-5.4681

> <Gold.Chemscore.Metal.Weighted>
-0.0000

> <Gold.Chemscore.Lipo.Weighted>
-9.5478

> <Gold.Chemscore.Internal_Hbond.Weighted>
0.0000

> <Gold.Chemscore.DEClash.Weighted>
0.0618

> <Gold.Chemscore.DEInternal.Weighted>
0.2537

> <Gold.Chemscore.Rot.Weighted>
3.9727

> <Gold.Chemscore.Internal.Correction.Weighted>
   9.000000E+99

> <Gold.Protein.RotatedTorsions>
[ 6907 6896 6895 6894 ] final  -27.29 input  -60.11 | X-H torsion
[ 7974 7965 7964 7962 ] final -106.61 input  175.53 | X-H torsion
[ 8008 7997 7996 7995 ] final -155.50 input   59.86 | X-H torsion
[ 10167 10162 10161 10158 ] final   22.47 input  -65.29 | X-H torsion
[ 10718 10713 10712 10709 ] final  106.33 input   66.30 | X-H torsion
[ 10763 10752 10751 10750 ] final -141.79 input  -60.55 | X-H torsion
[ 11005 11000 10999 10996 ] final -150.03 input  -57.11 | X-H torsion

> <Gold.Protein.ActiveResidues>
 VAL166  LYS551  ARG553  GLY616  TRP617  ASP618  TYR619  PRO620  LYS621  CYS622 
 ASP623  PHE694  ASN695  SER759  ASP760  ASP761  ALA762  ILE779  LEU786  VAL792 
 PHE793  MET794  SER795  GLU796  ALA797  LYS798  CYS799  TRP800  GLU811  SER814 

> <Gold.Protein.RotatedAtoms>
  151.1489  135.0217  159.8659 H   0  0  0  0  0  0  0  0  0  0  0  0  # atno 6907 bound_to 6896
  152.5453  134.1412  159.8489 H   0  0  0  0  0  0  0  0  0  0  0  0  # atno 6908 bound_to 6896
  151.1495  133.4871  159.2628 H   0  0  0  0  0  0  0  0  0  0  0  0  # atno 6909 bound_to 6896
  145.2157  140.9114  143.3288 H   0  0  0  0  0  0  0  0  0  0  0  0  # atno 7974 bound_to 7965
  155.7028  140.0769  157.2403 H   0  0  0  0  0  0  0  0  0  0  0  0  # atno 8008 bound_to 7997
  154.4070  140.1644  156.2262 H   0  0  0  0  0  0  0  0  0  0  0  0  # atno 8009 bound_to 7997
  155.9353  140.3388  155.6285 H   0  0  0  0  0  0  0  0  0  0  0  0  # atno 8010 bound_to 7997
  140.5345  143.9783  150.6484 H   0  0  0  0  0  0  0  0  0  0  0  0  # atno 10167 bound_to 10162
  157.6672  131.0848  150.5990 H   0  0  0  0  0  0  0  0  0  0  0  0  # atno 10718 bound_to 10713
  154.8532  135.3514  154.5924 H   0  0  0  0  0  0  0  0  0  0  0  0  # atno 10763 bound_to 10752
  153.6534  135.6993  153.5206 H   0  0  0  0  0  0  0  0  0  0  0  0  # atno 10764 bound_to 10752
  153.2876  135.4244  155.1095 H   0  0  0  0  0  0  0  0  0  0  0  0  # atno 10765 bound_to 10752
  140.7445  134.3477  157.5140 H   0  0  0  0  0  0  0  0  0  0  0  0  # atno 11005 bound_to 11000
  144.9813  139.3780  143.6260 LP  0  0  0  0  0  0  0  0  0  0  0  0  # atno 17320 bound_to 7965
  146.3387  139.8955  142.8802 LP  0  0  0  0  0  0  0  0  0  0  0  0  # atno 17321 bound_to 7965
  140.3167  143.3163  152.0825 LP  0  0  0  0  0  0  0  0  0  0  0  0  # atno 17342 bound_to 10162
  139.4966  144.6600  151.6485 LP  0  0  0  0  0  0  0  0  0  0  0  0  # atno 17343 bound_to 10162
  156.6291  130.4427  149.5793 LP  0  0  0  0  0  0  0  0  0  0  0  0  # atno 17370 bound_to 10713
  156.2296  130.6786  151.1450 LP  0  0  0  0  0  0  0  0  0  0  0  0  # atno 17371 bound_to 10713
  139.8799  134.9102  156.3008 LP  0  0  0  0  0  0  0  0  0  0  0  0  # atno 17394 bound_to 11000
  140.9807  133.7269  156.0668 LP  0  0  0  0  0  0  0  0  0  0  0  0  # atno 17395 bound_to 11000

$$$$
