AV-unprocessed.smi:2335|AV-procd|sdf|9324|dock7
  -GOLD-   2272012543D 1   1.00000     0.00000
 Structure written by MMmdl.
 42 43  0  0  0  0  0  0  0  0  1 V2000
  150.6043  141.6266  155.9631 C   0  0  0  0  0  0  0  0  0  0  0  0
  149.1255  141.5416  156.3557 C   0  0  0  0  0  0  0  0  0  0  0  0
  148.4352  140.3720  155.7376 C   0  0  0  0  0  0  0  0  0  0  0  0
  147.1557  140.0698  155.9910 N   0  0  0  0  0  0  0  0  0  0  0  0
  146.7265  138.9581  155.2793 N   0  0  0  0  0  0  0  0  0  0  0  0
  147.6938  138.4629  154.4954 C   0  0  0  0  0  0  0  0  0  0  0  0
  147.5282  137.3294  153.6567 N   0  0  0  0  0  0  0  0  0  0  0  0
  146.5099  136.4520  153.6313 C   0  0  0  0  0  0  0  0  0  0  0  0
  145.5123  136.4966  154.3512 O   0  0  0  0  0  0  0  0  0  0  0  0
  146.7167  135.5000  152.7110 N   0  0  0  0  0  0  0  0  0  0  0  0
  145.8204  134.3764  152.4444 C   0  0  1  0  0  0  0  0  0  0  0  0
  145.5657  134.2064  150.9598 C   0  0  0  0  0  0  0  0  0  0  0  0
  145.1615  132.7318  150.8426 C   0  0  0  0  0  0  0  0  0  0  0  0
  143.6440  132.5358  151.0023 C   0  0  0  0  0  0  0  0  0  0  0  0
  145.6649  132.0923  149.5397 C   0  0  0  0  0  0  0  0  0  0  0  0
  145.7917  132.0767  151.9422 O   0  0  0  0  0  0  0  0  0  0  0  0
  146.4022  133.0016  152.8417 C   0  0  0  0  0  0  0  0  0  0  0  0
  147.9257  132.8716  152.6339 C   0  0  0  0  0  0  0  0  0  0  0  0
  146.0122  132.5959  154.2718 C   0  0  0  0  0  0  0  0  0  0  0  0
  149.2229  139.3218  154.5659 S   0  0  0  0  0  0  0  0  0  0  0  0
  151.0810  142.4892  156.4288 H   0  0  0  0  0  0  0  0  0  0  0  0
  150.7193  141.7246  154.8833 H   0  0  0  0  0  0  0  0  0  0  0  0
  151.1466  140.7348  156.2783 H   0  0  0  0  0  0  0  0  0  0  0  0
  149.0329  141.4688  157.4396 H   0  0  0  0  0  0  0  0  0  0  0  0
  148.6084  142.4550  156.0594 H   0  0  0  0  0  0  0  0  0  0  0  0
  148.2775  137.1637  153.0014 H   0  0  0  0  0  0  0  0  0  0  0  0
  147.5641  135.5423  152.1644 H   0  0  0  0  0  0  0  0  0  0  0  0
  144.8580  134.5337  152.9356 H   0  0  0  0  0  0  0  0  0  0  0  0
  144.8072  134.8913  150.5784 H   0  0  0  0  0  0  0  0  0  0  0  0
  146.4841  134.3927  150.4003 H   0  0  0  0  0  0  0  0  0  0  0  0
  143.0957  133.0312  150.2004 H   0  0  0  0  0  0  0  0  0  0  0  0
  143.2850  132.9411  151.9487 H   0  0  0  0  0  0  0  0  0  0  0  0
  143.3803  131.4780  150.9798 H   0  0  0  0  0  0  0  0  0  0  0  0
  145.2295  132.5802  148.6671 H   0  0  0  0  0  0  0  0  0  0  0  0
  145.4044  131.0344  149.4940 H   0  0  0  0  0  0  0  0  0  0  0  0
  146.7497  132.1655  149.4560 H   0  0  0  0  0  0  0  0  0  0  0  0
  148.4811  133.5153  153.3166 H   0  0  0  0  0  0  0  0  0  0  0  0
  148.2168  133.1336  151.6166 H   0  0  0  0  0  0  0  0  0  0  0  0
  148.2572  131.8487  152.8131 H   0  0  0  0  0  0  0  0  0  0  0  0
  146.4595  133.2632  155.0084 H   0  0  0  0  0  0  0  0  0  0  0  0
  146.3449  131.5828  154.4992 H   0  0  0  0  0  0  0  0  0  0  0  0
  144.9310  132.6245  154.4099 H   0  0  0  0  0  0  0  0  0  0  0  0
  1  2  1  0  0  0  0
  1 21  1  0  0  0  0
  1 22  1  0  0  0  0
  1 23  1  0  0  0  0
  2  3  1  0  0  0  0
  2 24  1  0  0  0  0
  2 25  1  0  0  0  0
  3 20  1  0  0  0  0
  3  4  2  0  0  0  0
  4  5  1  0  0  0  0
  5  6  2  0  0  0  0
  6  7  1  0  0  0  0
  6 20  1  0  0  0  0
  7  8  1  0  0  0  0
  7 26  1  0  0  0  0
  8  9  2  0  0  0  0
  8 10  1  0  0  0  0
 10 11  1  0  0  0  0
 10 27  1  0  0  0  0
 11 17  1  0  0  0  0
 11 12  1  0  0  0  0
 11 28  1  0  0  0  0
 12 13  1  0  0  0  0
 12 29  1  0  0  0  0
 12 30  1  0  0  0  0
 13 14  1  0  0  0  0
 13 15  1  0  0  0  0
 13 16  1  0  0  0  0
 14 31  1  0  0  0  0
 14 32  1  0  0  0  0
 14 33  1  0  0  0  0
 15 34  1  0  0  0  0
 15 35  1  0  0  0  0
 15 36  1  0  0  0  0
 16 17  1  0  0  0  0
 17 18  1  0  0  0  0
 17 19  1  0  0  0  0
 18 37  1  0  0  0  0
 18 38  1  0  0  0  0
 18 39  1  0  0  0  0
 19 40  1  0  0  0  0
 19 41  1  0  0  0  0
 19 42  1  0  0  0  0
M  END
> <s_m_source_file>
AV-unprocessed.smi

> <i_m_source_file_index>
2335

> <i_lp_mmshare_version>
43012

> <i_f3d_flags>
0

> <s_epik_input>
W0NIM11bQ0gyXWMxbm5jKHMxKVtOSF1DKD1PKVtOSF1bQ0BASF0oQyhPMikoW0NIM10pW0NIM10pW0NIMl1DMihbQ0gzXSlbQ0gzXQ==

> <s_epik_cmdline>
J2VwaWtfcHl0aG9uJywgJy1waCcsICc3LjAnLCAnLXRuJywgJzgnLCAnLW1hJywgJzIwMCcsICctbWV0YWxfYmluZGluZycsICctaW1hZScsICc8aW5maWxlLm1hZT4nLCAnLW9tYWUnLCAnPG91dGZpbGUubWFlPic=

> <r_lp_tautomer_probability>
1

> <r_epik_Ionization_Penalty>
0.000542824

> <r_epik_Ionization_Penalty_Charging>
0

> <r_epik_Ionization_Penalty_Neutral>
0.000542824

> <r_epik_State_Penalty>
-0

> <r_epik_Charging_Adjusted_Penalty>
0

> <i_epik_Tot_Q>
0

> <i_epik_Tot_abs_Q>
0

> <r_epik_Metal_State_Penalty>
0.227439

> <b_epik_Metal_Only>
0

> <s_lp_Force_Field>
OPLS_2005

> <r_lp_Energy>
12.5908

> <b_lp_Chiralities_Consistent>
1

> <s_lp_Variant>
AV-unprocessed.smi:2335-2

> <Gold.Version>
5.8.1

> <Gold.Id.Protein>
6NUR|6NUR_protein|mol2

> <Gold.PLP.Fitness>
32.4843

> <Gold.PLP.PLP>
-26.7679

> <Gold.PLP.part.hbond>
-1.8197

> <Gold.PLP.part.metal>
0.0000

> <Gold.PLP.part.buried>
-3.2113

> <Gold.PLP.part.nonpolar>
-22.1505

> <Gold.PLP.part.repulsive>
0.2167

> <Gold.PLP.ligand.clash>
0.0000

> <Gold.PLP.ligand.torsion>
0.1499

> <Gold.PLP.Chemscore.Hbond>
2.0000

> <Gold.PLP.Chemscore.CHOScore>
0.0000

> <Gold.PLP.Chemscore.Metal>
0.0000

> <Gold.Chemscore.Hbonds>
donor molecule, donor type, donor heavy atom, donor atom, acceptor molecule, acceptor atom, score
      L1  H     7    26       P1  7948  1.00
      L1  H    10    27       P1  7948  1.00

> <Gold.PLP.Chemscore.Internal.Correction>
0.0162

> <Gold.Rescore>
     Score         DG    S(hbond)    S(metal)    S(lipo)     H(rot)  DE(clash)    DE(int)     intcor
     14.96     -16.75       1.85        0.00      70.03       1.21       0.38       1.42       ----

> <Gold.Chemscore.Fitness>
14.9565

> <Gold.Chemscore.DG>
-16.7517

> <Gold.Chemscore.ZeroCoef>
-5.4800

> <Gold.Chemscore.Hbond>
1.8468

> <Gold.Chemscore.Metal>
0.0000

> <Gold.Chemscore.Lipo>
70.0257

> <Gold.Chemscore.Internal_Hbond>
0.0000

> <Gold.Chemscore.DEClash>
0.3773

> <Gold.Chemscore.DEInternal>
1.4180

> <Gold.Chemscore.Rot>
1.2068

> <Gold.Chemscore.Internal.Correction>
   9.000000E+99

> <Gold.Chemscore.Hbonds>
donor molecule, donor type, donor heavy atom, donor atom, acceptor molecule, acceptor atom, score
      L1  H     7    26       P1  7948  0.93
      L1  H    10    27       P1  7948  0.91

> <Gold.Chemscore.Hbond.Weighted>
-6.1682

> <Gold.Chemscore.Metal.Weighted>
-0.0000

> <Gold.Chemscore.Lipo.Weighted>
-8.1930

> <Gold.Chemscore.Internal_Hbond.Weighted>
0.0000

> <Gold.Chemscore.DEClash.Weighted>
0.3773

> <Gold.Chemscore.DEInternal.Weighted>
1.4180

> <Gold.Chemscore.Rot.Weighted>
3.0895

> <Gold.Chemscore.Internal.Correction.Weighted>
   9.000000E+99

> <Gold.Protein.RotatedTorsions>
[ 6907 6896 6895 6894 ] final  -52.68 input  -60.11 | X-H torsion
[ 7974 7965 7964 7962 ] final  110.23 input  175.53 | X-H torsion
[ 8008 7997 7996 7995 ] final  141.91 input   59.86 | X-H torsion
[ 10167 10162 10161 10158 ] final -155.67 input  -65.29 | X-H torsion
[ 10718 10713 10712 10709 ] final  -89.40 input   66.30 | X-H torsion
[ 10763 10752 10751 10750 ] final -177.40 input  -60.55 | X-H torsion
[ 11005 11000 10999 10996 ] final  -45.77 input  -57.11 | X-H torsion

> <Gold.Protein.ActiveResidues>
 VAL166  LYS551  ARG553  GLY616  TRP617  ASP618  TYR619  PRO620  LYS621  CYS622 
 ASP623  PHE694  ASN695  SER759  ASP760  ASP761  ALA762  ILE779  LEU786  VAL792 
 PHE793  MET794  SER795  GLU796  ALA797  LYS798  CYS799  TRP800  GLU811  SER814 

> <Gold.Protein.RotatedAtoms>
  150.8496  134.7816  159.6997 H   0  0  0  0  0  0  0  0  0  0  0  0  # atno 6907 bound_to 6896
  152.4564  134.5279  159.9812 H   0  0  0  0  0  0  0  0  0  0  0  0  # atno 6908 bound_to 6896
  151.5403  133.3396  159.2970 H   0  0  0  0  0  0  0  0  0  0  0  0  # atno 6909 bound_to 6896
  145.2576  139.2715  143.4034 H   0  0  0  0  0  0  0  0  0  0  0  0  # atno 7974 bound_to 7965
  156.2958  140.2303  156.4641 H   0  0  0  0  0  0  0  0  0  0  0  0  # atno 8008 bound_to 7997
  154.7992  140.0449  157.1281 H   0  0  0  0  0  0  0  0  0  0  0  0  # atno 8009 bound_to 7997
  154.9553  140.3047  155.5059 H   0  0  0  0  0  0  0  0  0  0  0  0  # atno 8010 bound_to 7997
  139.6913  143.9416  152.2386 H   0  0  0  0  0  0  0  0  0  0  0  0  # atno 10167 bound_to 10162
  155.9984  130.4871  150.5166 H   0  0  0  0  0  0  0  0  0  0  0  0  # atno 10718 bound_to 10713
  154.5606  135.2820  155.0923 H   0  0  0  0  0  0  0  0  0  0  0  0  # atno 10763 bound_to 10752
  154.2333  135.6370  153.5186 H   0  0  0  0  0  0  0  0  0  0  0  0  # atno 10764 bound_to 10752
  153.0028  135.5542  154.6199 H   0  0  0  0  0  0  0  0  0  0  0  0  # atno 10765 bound_to 10752
  141.0537  133.6733  156.3060 H   0  0  0  0  0  0  0  0  0  0  0  0  # atno 11005 bound_to 11000
  146.3285  140.2984  142.8619 LP  0  0  0  0  0  0  0  0  0  0  0  0  # atno 17320 bound_to 7965
  144.9447  140.8116  143.5609 LP  0  0  0  0  0  0  0  0  0  0  0  0  # atno 17321 bound_to 7965
  139.9233  144.6786  150.8438 LP  0  0  0  0  0  0  0  0  0  0  0  0  # atno 17342 bound_to 10162
  140.7683  143.3359  151.2309 LP  0  0  0  0  0  0  0  0  0  0  0  0  # atno 17343 bound_to 10162
  157.3132  131.0668  151.1985 LP  0  0  0  0  0  0  0  0  0  0  0  0  # atno 17370 bound_to 10713
  157.2924  130.6803  149.6121 LP  0  0  0  0  0  0  0  0  0  0  0  0  # atno 17371 bound_to 10713
  140.6006  134.5558  157.5517 LP  0  0  0  0  0  0  0  0  0  0  0  0  # atno 17394 bound_to 11000
  139.9372  134.7854  156.0773 LP  0  0  0  0  0  0  0  0  0  0  0  0  # atno 17395 bound_to 11000

$$$$
