AV-unprocessed.smi:1135|AV-procd|sdf|4860|dock4
  -GOLD-   22720 3433D 1   1.00000     0.00000
 Structure written by MMmdl.
 46 47  0  0  0  0  0  0  0  0  2 V2000
  150.2811  142.1860  157.5897 C   0  0  0  0  0  0  0  0  0  0  0  0
  149.3512  141.4550  156.6110 C   0  0  2  0  0  0  0  0  0  0  0  0
  149.6014  141.8939  155.1590 C   0  0  0  0  0  0  0  0  0  0  0  0
  148.6714  141.1613  154.1755 C   0  0  0  0  0  0  0  0  0  0  0  0
  147.1651  141.3025  154.5124 C   0  0  1  0  0  0  0  0  0  0  0  0
  146.6746  142.7362  154.1989 C   0  0  0  0  0  0  0  0  0  0  0  0
  146.4672  140.3407  153.6486 N   0  0  0  0  0  0  0  0  0  0  0  0
  146.8105  139.0718  153.3732 C   0  0  0  0  0  0  0  0  0  0  0  0
  147.7695  138.4822  153.8717 O   0  0  0  0  0  0  0  0  0  0  0  0
  146.0063  138.5324  152.4454 N   0  0  0  0  0  0  0  0  0  0  0  0
  146.1827  137.2121  151.8432 C   0  0  0  0  0  0  0  0  0  0  0  0
  144.9877  136.2741  152.1154 C   0  0  0  0  0  0  0  0  0  0  0  0
  145.2590  134.8181  151.7752 C   0  0  0  0  0  0  0  0  0  0  0  0
  144.2170  133.8920  151.5481 C   0  0  0  0  0  0  0  0  0  0  0  0
  144.5385  132.5658  151.1916 C   0  0  0  0  0  0  0  0  0  0  0  0
  145.8932  132.1916  151.0759 C   0  0  0  0  0  0  0  0  0  0  0  0
  146.8934  133.1547  151.3205 C   0  0  0  0  0  0  0  0  0  0  0  0
  146.5453  134.4162  151.6570 N   0  3  0  0  0  0  0  0  0  0  0  0
  146.9360  140.9279  156.0040 C   0  0  0  0  0  0  0  0  0  0  0  0
  147.8730  141.6658  156.9753 C   0  0  0  0  0  0  0  0  0  0  0  0
  150.1130  143.2632  157.5672 H   0  0  0  0  0  0  0  0  0  0  0  0
  151.3284  142.0068  157.3448 H   0  0  0  0  0  0  0  0  0  0  0  0
  150.1193  141.8452  158.6126 H   0  0  0  0  0  0  0  0  0  0  0  0
  149.5692  140.3884  156.6848 H   0  0  0  0  0  0  0  0  0  0  0  0
  149.4669  142.9719  155.0669 H   0  0  0  0  0  0  0  0  0  0  0  0
  150.6389  141.6961  154.8878 H   0  0  0  0  0  0  0  0  0  0  0  0
  148.8648  141.5125  153.1608 H   0  0  0  0  0  0  0  0  0  0  0  0
  148.9455  140.1048  154.1806 H   0  0  0  0  0  0  0  0  0  0  0  0
  147.2246  143.4886  154.7626 H   0  0  0  0  0  0  0  0  0  0  0  0
  145.6216  142.8705  154.4453 H   0  0  0  0  0  0  0  0  0  0  0  0
  146.7961  142.9726  153.1412 H   0  0  0  0  0  0  0  0  0  0  0  0
  145.6526  140.7017  153.1738 H   0  0  0  0  0  0  0  0  0  0  0  0
  145.2397  139.0910  152.0992 H   0  0  0  0  0  0  0  0  0  0  0  0
  146.3505  137.3050  150.7689 H   0  0  0  0  0  0  0  0  0  0  0  0
  147.0919  136.7714  152.2525 H   0  0  0  0  0  0  0  0  0  0  0  0
  144.7018  136.3417  153.1659 H   0  0  0  0  0  0  0  0  0  0  0  0
  144.1215  136.6126  151.5457 H   0  0  0  0  0  0  0  0  0  0  0  0
  143.1838  134.1964  151.6296 H   0  0  0  0  0  0  0  0  0  0  0  0
  143.7551  131.8460  151.0043 H   0  0  0  0  0  0  0  0  0  0  0  0
  146.1609  131.1818  150.8012 H   0  0  0  0  0  0  0  0  0  0  0  0
  147.9533  132.9578  151.2512 H   0  0  0  0  0  0  0  0  0  0  0  0
  145.9042  141.1218  156.2979 H   0  0  0  0  0  0  0  0  0  0  0  0
  147.0877  139.8551  156.1340 H   0  0  0  0  0  0  0  0  0  0  0  0
  147.6883  141.3137  157.9908 H   0  0  0  0  0  0  0  0  0  0  0  0
  147.6390  142.7310  156.9776 H   0  0  0  0  0  0  0  0  0  0  0  0
  147.2859  135.0995  151.8160 H   0  0  0  0  0  0  0  0  0  0  0  0
  1  2  1  0  0  0  0
  1 21  1  0  0  0  0
  1 22  1  0  0  0  0
  1 23  1  0  0  0  0
  2 20  1  0  0  0  0
  2  3  1  0  0  0  0
  2 24  1  0  0  0  0
  3  4  1  0  0  0  0
  3 25  1  0  0  0  0
  3 26  1  0  0  0  0
  4  5  1  0  0  0  0
  4 27  1  0  0  0  0
  4 28  1  0  0  0  0
  5  6  1  0  0  0  0
  5  7  1  0  0  0  0
  5 19  1  0  0  0  0
  6 29  1  0  0  0  0
  6 30  1  0  0  0  0
  6 31  1  0  0  0  0
  7  8  1  0  0  0  0
  7 32  1  0  0  0  0
  8  9  2  0  0  0  0
  8 10  1  0  0  0  0
 10 11  1  0  0  0  0
 10 33  1  0  0  0  0
 11 12  1  0  0  0  0
 11 34  1  0  0  0  0
 11 35  1  0  0  0  0
 12 13  1  0  0  0  0
 12 36  1  0  0  0  0
 12 37  1  0  0  0  0
 13 18  1  0  0  0  0
 13 14  2  0  0  0  0
 14 15  1  0  0  0  0
 14 38  1  0  0  0  0
 15 16  2  0  0  0  0
 15 39  1  0  0  0  0
 16 17  1  0  0  0  0
 16 40  1  0  0  0  0
 17 18  2  0  0  0  0
 17 41  1  0  0  0  0
 18 46  1  0  0  0  0
 19 20  1  0  0  0  0
 19 42  1  0  0  0  0
 19 43  1  0  0  0  0
 20 44  1  0  0  0  0
 20 45  1  0  0  0  0
M  CHG  1  18   1
M  END
> <s_m_source_file>
AV-unprocessed.smi

> <i_m_source_file_index>
1135

> <i_lp_mmshare_version>
43012

> <i_f3d_flags>
0

> <s_epik_input>
W0NIMl0xW0NIMl1bQ0BIXShbQ0gzXSlbQ0gyXVtDSDJdW0NAQF0xKFtDSDNdKVtOSF1DKD1PKVtOSF1bQ0gyXVtDSDJdYzJbY0hdW2NIXVtjSF1bY0hdbjI=

> <s_epik_cmdline>
J2VwaWtfcHl0aG9uJywgJy1waCcsICc3LjAnLCAnLXRuJywgJzgnLCAnLW1hJywgJzIwMCcsICctbWV0YWxfYmluZGluZycsICctaW1hZScsICc8aW5maWxlLm1hZT4nLCAnLW9tYWUnLCAnPG91dGZpbGUubWFlPic=

> <r_epik_Ionization_Penalty>
1.55217

> <r_epik_Ionization_Penalty_Charging>
1.55211

> <r_epik_Ionization_Penalty_Neutral>
5.91929e-05

> <r_epik_State_Penalty>
1.64641

> <r_epik_Charging_Adjusted_Penalty>
3.19851

> <i_epik_Tot_Q>
1

> <i_epik_Tot_abs_Q>
1

> <r_epik_Metal_State_Penalty>
1.68848

> <b_epik_Metal_Only>
0

> <s_lp_Force_Field>
OPLS_2005

> <r_lp_Energy>
15.0823

> <b_lp_Chiralities_Consistent>
1

> <s_lp_Variant>
AV-unprocessed.smi:1135-3

> <Gold.Version>
5.8.1

> <Gold.Id.Protein>
6NUR|6NUR_protein|mol2

> <Gold.PLP.Fitness>
47.1461

> <Gold.PLP.PLP>
-36.3918

> <Gold.PLP.part.hbond>
-3.4134

> <Gold.PLP.part.metal>
0.0000

> <Gold.PLP.part.buried>
-2.2279

> <Gold.PLP.part.nonpolar>
-32.0435

> <Gold.PLP.part.repulsive>
0.3077

> <Gold.PLP.ligand.clash>
0.0000

> <Gold.PLP.ligand.torsion>
0.6195

> <Gold.PLP.Chemscore.Hbond>
3.9920

> <Gold.PLP.Chemscore.CHOScore>
0.0000

> <Gold.PLP.Chemscore.Metal>
0.0000

> <Gold.Chemscore.Hbonds>
donor molecule, donor type, donor heavy atom, donor atom, acceptor molecule, acceptor atom, score
      L1  H     7    32       P1 10175  0.84
      L1  H    10    33       P1 10175  0.83
      L1  H    18    46       P1  7948  2.00

> <Gold.PLP.Chemscore.Internal.Correction>
0.0173

> <Gold.Rescore>
     Score         DG    S(hbond)    S(metal)    S(lipo)     H(rot)  DE(clash)    DE(int)     intcor
     18.44     -20.80       2.72        0.00      86.24       1.51       0.51       1.85       ----

> <Gold.Chemscore.Fitness>
18.4398

> <Gold.Chemscore.DG>
-20.7972

> <Gold.Chemscore.ZeroCoef>
-5.4800

> <Gold.Chemscore.Hbond>
2.7212

> <Gold.Chemscore.Metal>
0.0000

> <Gold.Chemscore.Lipo>
86.2411

> <Gold.Chemscore.Internal_Hbond>
0.0000

> <Gold.Chemscore.DEClash>
0.5082

> <Gold.Chemscore.DEInternal>
1.8492

> <Gold.Chemscore.Rot>
1.5085

> <Gold.Chemscore.Internal.Correction>
   9.000000E+99

> <Gold.Chemscore.Hbonds>
donor molecule, donor type, donor heavy atom, donor atom, acceptor molecule, acceptor atom, score
      L1  H     7    32       P1 10175  0.59
      L1  H    10    33       P1 10175  0.76
      L1  H    18    46       P1  7948  0.92

> <Gold.Chemscore.Hbond.Weighted>
-9.0887

> <Gold.Chemscore.Metal.Weighted>
-0.0000

> <Gold.Chemscore.Lipo.Weighted>
-10.0902

> <Gold.Chemscore.Internal_Hbond.Weighted>
0.0000

> <Gold.Chemscore.DEClash.Weighted>
0.5082

> <Gold.Chemscore.DEInternal.Weighted>
1.8492

> <Gold.Chemscore.Rot.Weighted>
3.8617

> <Gold.Chemscore.Internal.Correction.Weighted>
   9.000000E+99

> <Gold.Protein.RotatedTorsions>
[ 6907 6896 6895 6894 ] final  105.30 input  -60.11 | X-H torsion
[ 7974 7965 7964 7962 ] final  120.16 input  175.53 | X-H torsion
[ 8008 7997 7996 7995 ] final  123.05 input   59.86 | X-H torsion
[ 10167 10162 10161 10158 ] final   39.92 input  -65.29 | X-H torsion
[ 10718 10713 10712 10709 ] final  175.15 input   66.30 | X-H torsion
[ 10763 10752 10751 10750 ] final -103.41 input  -60.55 | X-H torsion
[ 11005 11000 10999 10996 ] final -177.08 input  -57.11 | X-H torsion

> <Gold.Protein.ActiveResidues>
 VAL166  LYS551  ARG553  GLY616  TRP617  ASP618  TYR619  PRO620  LYS621  CYS622 
 ASP623  PHE694  ASN695  SER759  ASP760  ASP761  ALA762  ILE779  LEU786  VAL792 
 PHE793  MET794  SER795  GLU796  ALA797  LYS798  CYS799  TRP800  GLU811  SER814 

> <Gold.Protein.RotatedAtoms>
  152.5235  133.9549  159.7689 H   0  0  0  0  0  0  0  0  0  0  0  0  # atno 6907 bound_to 6896
  150.9851  133.6197  159.2723 H   0  0  0  0  0  0  0  0  0  0  0  0  # atno 6908 bound_to 6896
  151.3361  135.0859  159.9408 H   0  0  0  0  0  0  0  0  0  0  0  0  # atno 6909 bound_to 6896
  145.1345  139.3306  143.4648 H   0  0  0  0  0  0  0  0  0  0  0  0  # atno 7974 bound_to 7965
  156.2751  140.2771  156.1566 H   0  0  0  0  0  0  0  0  0  0  0  0  # atno 8008 bound_to 7997
  155.0797  140.0387  157.2653 H   0  0  0  0  0  0  0  0  0  0  0  0  # atno 8009 bound_to 7997
  154.6974  140.2642  155.6759 H   0  0  0  0  0  0  0  0  0  0  0  0  # atno 8010 bound_to 7997
  140.3792  144.2002  150.6131 H   0  0  0  0  0  0  0  0  0  0  0  0  # atno 10167 bound_to 10162
  156.9391  130.9995  151.2972 H   0  0  0  0  0  0  0  0  0  0  0  0  # atno 10718 bound_to 10713
  154.7805  135.4824  153.9835 H   0  0  0  0  0  0  0  0  0  0  0  0  # atno 10763 bound_to 10752
  153.1487  135.6787  153.8922 H   0  0  0  0  0  0  0  0  0  0  0  0  # atno 10764 bound_to 10752
  153.8573  135.3160  155.3414 H   0  0  0  0  0  0  0  0  0  0  0  0  # atno 10765 bound_to 10752
  140.4449  134.6397  157.4775 H   0  0  0  0  0  0  0  0  0  0  0  0  # atno 11005 bound_to 11000
  146.3511  140.1357  142.8596 LP  0  0  0  0  0  0  0  0  0  0  0  0  # atno 17320 bound_to 7965
  145.0599  140.9080  143.4945 LP  0  0  0  0  0  0  0  0  0  0  0  0  # atno 17321 bound_to 7965
  140.4955  143.2334  151.8756 LP  0  0  0  0  0  0  0  0  0  0  0  0  # atno 17342 bound_to 10162
  139.4797  144.5119  151.8921 LP  0  0  0  0  0  0  0  0  0  0  0  0  # atno 17343 bound_to 10162
  157.5797  130.8367  149.8505 LP  0  0  0  0  0  0  0  0  0  0  0  0  # atno 17370 bound_to 10713
  156.0412  130.3738  150.1430 LP  0  0  0  0  0  0  0  0  0  0  0  0  # atno 17371 bound_to 10713
  140.0045  134.6785  155.9477 LP  0  0  0  0  0  0  0  0  0  0  0  0  # atno 17394 bound_to 11000
  141.1689  133.6537  156.4580 LP  0  0  0  0  0  0  0  0  0  0  0  0  # atno 17395 bound_to 11000

$$$$
