AV-unprocessed.smi:228|AV-procd|sdf|1743|dock10
  -GOLD-   2262020253D 1   1.00000     0.00000
 Structure written by MMmdl.
 60 63  0  0  0  0  0  0  0  0  2 V2000
  147.6418  127.6972  155.9075 C   0  0  0  0  0  0  0  0  0  0  0  0
  148.5364  127.4386  154.7849 N   0  0  0  0  0  0  0  0  0  0  0  0
  149.4879  126.3330  154.9197 C   0  0  0  0  0  0  0  0  0  0  0  0
  150.8828  126.7385  155.4531 C   0  0  2  0  0  0  0  0  0  0  0  0
  151.2986  127.8531  154.6931 O   0  0  0  0  0  0  0  0  0  0  0  0
  151.9644  125.6446  155.3005 C   0  0  0  0  0  0  0  0  0  0  0  0
  152.1497  125.1875  153.8981 N   0  3  0  0  0  0  0  0  0  0  0  0
  153.4971  124.6133  153.6701 C   0  0  0  0  0  0  0  0  0  0  0  0
  153.6640  124.1773  152.2049 C   0  0  0  0  0  0  0  0  0  0  0  0
  152.6474  123.2429  151.8675 O   0  0  0  0  0  0  0  0  0  0  0  0
  151.3493  123.8096  151.9823 C   0  0  0  0  0  0  0  0  0  0  0  0
  151.0969  124.2466  153.4358 C   0  0  0  0  0  0  0  0  0  0  0  0
  147.9986  127.7293  153.5724 C   0  0  0  0  0  0  0  0  0  0  0  0
  148.1378  126.8607  152.5367 N   0  0  0  0  0  0  0  0  0  0  0  0
  147.6300  127.1546  151.3361 C   0  0  0  0  0  0  0  0  0  0  0  0
  146.9658  128.2477  150.9572 N   0  0  0  0  0  0  0  0  0  0  0  0
  146.8175  129.1217  151.9929 C   0  0  0  0  0  0  0  0  0  0  0  0
  147.2878  128.9367  153.3233 C   0  0  0  0  0  0  0  0  0  0  0  0
  146.9508  130.0374  154.1014 N   0  0  0  0  0  0  0  0  0  0  0  0
  146.3080  130.8231  153.2813 C   0  0  0  0  0  0  0  0  0  0  0  0
  146.2183  130.3692  151.9848 N   0  0  0  0  0  0  0  0  0  0  0  0
  145.5622  131.0190  150.8884 C   0  0  0  0  0  0  0  0  0  0  0  0
  146.0273  132.3949  150.4032 C   0  0  0  0  0  0  0  0  0  0  0  0
  144.5660  132.8018  150.1130 C   0  0  0  0  0  0  0  0  0  0  0  0
  144.1615  134.1931  150.6252 C   0  0  0  0  0  0  0  0  0  0  0  0
  145.0655  135.1877  150.1890 O   0  0  0  0  0  0  0  0  0  0  0  0
  144.0847  132.6991  148.6481 C   0  0  0  0  0  0  0  0  0  0  0  0
  142.7585  132.2264  148.5264 O   0  0  0  0  0  0  0  0  0  0  0  0
  144.1693  131.6377  151.0487 C   0  0  0  0  0  0  0  0  0  0  0  0
  147.7745  128.7170  156.2690 H   0  0  0  0  0  0  0  0  0  0  0  0
  147.8435  127.0217  156.7393 H   0  0  0  0  0  0  0  0  0  0  0  0
  146.5963  127.5662  155.6242 H   0  0  0  0  0  0  0  0  0  0  0  0
  149.0580  125.5900  155.5928 H   0  0  0  0  0  0  0  0  0  0  0  0
  149.5879  125.8393  153.9518 H   0  0  0  0  0  0  0  0  0  0  0  0
  150.8260  127.0879  156.4816 H   0  0  0  0  0  0  0  0  0  0  0  0
  151.5557  127.5542  153.8337 H   0  0  0  0  0  0  0  0  0  0  0  0
  152.9066  126.0304  155.6935 H   0  0  0  0  0  0  0  0  0  0  0  0
  151.7173  124.7752  155.9125 H   0  0  0  0  0  0  0  0  0  0  0  0
  154.2598  125.3517  153.9201 H   0  0  0  0  0  0  0  0  0  0  0  0
  153.6468  123.7589  154.3322 H   0  0  0  0  0  0  0  0  0  0  0  0
  153.6265  125.0355  151.5332 H   0  0  0  0  0  0  0  0  0  0  0  0
  154.6365  123.7062  152.0630 H   0  0  0  0  0  0  0  0  0  0  0  0
  151.2468  124.6487  151.2952 H   0  0  0  0  0  0  0  0  0  0  0  0
  150.6113  123.0659  151.6816 H   0  0  0  0  0  0  0  0  0  0  0  0
  151.0804  123.3697  154.0847 H   0  0  0  0  0  0  0  0  0  0  0  0
  150.1130  124.7096  153.4998 H   0  0  0  0  0  0  0  0  0  0  0  0
  147.7834  126.4109  150.5678 H   0  0  0  0  0  0  0  0  0  0  0  0
  145.8948  131.7690  153.6005 H   0  0  0  0  0  0  0  0  0  0  0  0
  145.5726  130.2990  150.0693 H   0  0  0  0  0  0  0  0  0  0  0  0
  146.4798  132.9843  151.2027 H   0  0  0  0  0  0  0  0  0  0  0  0
  146.6766  132.3657  149.5275 H   0  0  0  0  0  0  0  0  0  0  0  0
  143.1565  134.4581  150.2953 H   0  0  0  0  0  0  0  0  0  0  0  0
  144.1443  134.2172  151.7154 H   0  0  0  0  0  0  0  0  0  0  0  0
  145.2444  135.0504  149.2713 H   0  0  0  0  0  0  0  0  0  0  0  0
  144.1347  133.6708  148.1559 H   0  0  0  0  0  0  0  0  0  0  0  0
  144.7222  132.0261  148.0741 H   0  0  0  0  0  0  0  0  0  0  0  0
  142.1753  132.8671  148.9042 H   0  0  0  0  0  0  0  0  0  0  0  0
  143.3553  131.0110  150.6829 H   0  0  0  0  0  0  0  0  0  0  0  0
  143.9749  131.9655  152.0712 H   0  0  0  0  0  0  0  0  0  0  0  0
  152.0920  126.0105  153.3149 H   0  0  0  0  0  0  0  0  0  0  0  0
  1  2  1  0  0  0  0
  1 30  1  0  0  0  0
  1 31  1  0  0  0  0
  1 32  1  0  0  0  0
  2  3  1  0  0  0  0
  2 13  1  0  0  0  0
  3  4  1  0  0  0  0
  3 33  1  0  0  0  0
  3 34  1  0  0  0  0
  4  5  1  0  0  0  0
  4  6  1  0  0  0  0
  4 35  1  0  0  0  0
  5 36  1  0  0  0  0
  6  7  1  0  0  0  0
  6 37  1  0  0  0  0
  6 38  1  0  0  0  0
  7 12  1  0  0  0  0
  7  8  1  0  0  0  0
  7 60  1  0  0  0  0
  8  9  1  0  0  0  0
  8 39  1  0  0  0  0
  8 40  1  0  0  0  0
  9 10  1  0  0  0  0
  9 41  1  0  0  0  0
  9 42  1  0  0  0  0
 10 11  1  0  0  0  0
 11 12  1  0  0  0  0
 11 43  1  0  0  0  0
 11 44  1  0  0  0  0
 12 45  1  0  0  0  0
 12 46  1  0  0  0  0
 13 18  1  0  0  0  0
 13 14  2  0  0  0  0
 14 15  1  0  0  0  0
 15 16  2  0  0  0  0
 15 47  1  0  0  0  0
 16 17  1  0  0  0  0
 17 21  1  0  0  0  0
 17 18  2  0  0  0  0
 18 19  1  0  0  0  0
 19 20  2  0  0  0  0
 20 21  1  0  0  0  0
 20 48  1  0  0  0  0
 21 22  1  0  0  0  0
 22 29  1  0  0  0  0
 22 23  1  0  0  0  0
 22 49  1  0  0  0  0
 23 24  1  0  0  0  0
 23 50  1  0  0  0  0
 23 51  1  0  0  0  0
 24 25  1  0  0  0  0
 24 27  1  0  0  0  0
 24 29  1  0  0  0  0
 25 26  1  0  0  0  0
 25 52  1  0  0  0  0
 25 53  1  0  0  0  0
 26 54  1  0  0  0  0
 27 28  1  0  0  0  0
 27 55  1  0  0  0  0
 27 56  1  0  0  0  0
 28 57  1  0  0  0  0
 29 58  1  0  0  0  0
 29 59  1  0  0  0  0
M  CHG  1   7   1
M  END
> <s_m_source_file>
AV-unprocessed.smi

> <i_m_source_file_index>
228

> <i_lp_mmshare_version>
43012

> <i_f3d_flags>
0

> <s_epik_input>
W0NIMl0xW0NIMl1PW0NIMl1bQ0gyXU4xW0NIMl1bQ0BASF0oW09IXSlbQ0gyXU4oW0NIM10pYyhuW2NIXW4yKWMoYzIzKW5bY0hdbjNbQ0hdKFtDSDJdNClbQ0gyXUM0KFtDSDJdW09IXSlbQ0gyXVtPSF0=

> <s_epik_cmdline>
J2VwaWtfcHl0aG9uJywgJy1waCcsICc3LjAnLCAnLXRuJywgJzgnLCAnLW1hJywgJzIwMCcsICctbWV0YWxfYmluZGluZycsICctaW1hZScsICc8aW5maWxlLm1hZT4nLCAnLW9tYWUnLCAnPG91dGZpbGUubWFlPic=

> <r_lp_tautomer_probability>
1

> <r_epik_Ionization_Penalty>
0.403032

> <r_epik_Ionization_Penalty_Charging>
0.40072

> <r_epik_Ionization_Penalty_Neutral>
0.00231206

> <r_epik_State_Penalty>
0.387266

> <r_epik_Charging_Adjusted_Penalty>
0.787986

> <i_epik_Tot_Q>
1

> <i_epik_Tot_abs_Q>
1

> <r_epik_Metal_State_Penalty>
0.385845

> <b_epik_Metal_Only>
0

> <s_lp_Force_Field>
OPLS_2005

> <r_lp_Energy>
45.878

> <b_lp_Chiralities_Consistent>
1

> <s_lp_Variant>
AV-unprocessed.smi:228-1

> <Gold.Version>
5.8.1

> <Gold.Id.Protein>
6NUR|6NUR_protein|mol2

> <Gold.PLP.Fitness>
55.6923

> <Gold.PLP.PLP>
-44.0286

> <Gold.PLP.part.hbond>
-6.0000

> <Gold.PLP.part.metal>
0.0000

> <Gold.PLP.part.buried>
-5.4219

> <Gold.PLP.part.nonpolar>
-33.9702

> <Gold.PLP.part.repulsive>
0.6482

> <Gold.PLP.ligand.clash>
0.0000

> <Gold.PLP.ligand.torsion>
1.8562

> <Gold.PLP.Chemscore.Hbond>
4.7800

> <Gold.PLP.Chemscore.CHOScore>
0.0000

> <Gold.PLP.Chemscore.Metal>
0.0000

> <Gold.Chemscore.Hbonds>
donor molecule, donor type, donor heavy atom, donor atom, acceptor molecule, acceptor atom, score
      L1  H     5    36       P1 10737  0.67
      L1  H     7    60       P1 10737  0.32
      L1  H    26    54       P1  7921  1.00
      L1  H    28    57       P1 10186  0.99
      P1  H 10785 10796       L1    28  0.62

> <Gold.PLP.Chemscore.Internal.Correction>
1.0362

> <Gold.Rescore>
     Score         DG    S(hbond)    S(metal)    S(lipo)     H(rot)  DE(clash)    DE(int)     intcor
     13.14     -16.00       3.97        0.00      80.87       4.77       0.35       2.51       ----

> <Gold.Chemscore.Fitness>
13.1435

> <Gold.Chemscore.DG>
-15.9951

> <Gold.Chemscore.ZeroCoef>
-5.4800

> <Gold.Chemscore.Hbond>
3.9744

> <Gold.Chemscore.Metal>
0.0000

> <Gold.Chemscore.Lipo>
80.8671

> <Gold.Chemscore.Internal_Hbond>
0.0000

> <Gold.Chemscore.DEClash>
0.3450

> <Gold.Chemscore.DEInternal>
2.5065

> <Gold.Chemscore.Rot>
4.7738

> <Gold.Chemscore.Internal.Correction>
   9.000000E+99

> <Gold.Chemscore.Hbonds>
donor molecule, donor type, donor heavy atom, donor atom, acceptor molecule, acceptor atom, score
      L1  H     5    36       P1 10737  0.66
      L1  H     7    60       P1 10737  0.33
      L1  H    26    54       P1  7921  1.00
      L1  H    28    57       P1 10186  0.92
      P1  H 10785 10796       L1    28  0.12

> <Gold.Chemscore.Hbond.Weighted>
-13.2745

> <Gold.Chemscore.Metal.Weighted>
-0.0000

> <Gold.Chemscore.Lipo.Weighted>
-9.4615

> <Gold.Chemscore.Internal_Hbond.Weighted>
0.0000

> <Gold.Chemscore.DEClash.Weighted>
0.3450

> <Gold.Chemscore.DEInternal.Weighted>
2.5065

> <Gold.Chemscore.Rot.Weighted>
12.2208

> <Gold.Chemscore.Internal.Correction.Weighted>
   9.000000E+99

> <Gold.Protein.RotatedTorsions>
[ 6907 6896 6895 6894 ] final  155.86 input  -60.11 | X-H torsion
[ 7974 7965 7964 7962 ] final  -67.10 input  175.53 | X-H torsion
[ 8008 7997 7996 7995 ] final   64.07 input   59.86 | X-H torsion
[ 10167 10162 10161 10158 ] final -173.12 input  -65.29 | X-H torsion
[ 10718 10713 10712 10709 ] final -148.73 input   66.30 | X-H torsion
[ 10763 10752 10751 10750 ] final   50.68 input  -60.55 | X-H torsion
[ 11005 11000 10999 10996 ] final  163.99 input  -57.11 | X-H torsion

> <Gold.Protein.ActiveResidues>
 VAL166  LYS551  ARG553  GLY616  TRP617  ASP618  TYR619  PRO620  LYS621  CYS622 
 ASP623  PHE694  ASN695  SER759  ASP760  ASP761  ALA762  ILE779  LEU786  VAL792 
 PHE793  MET794  SER795  GLU796  ALA797  LYS798  CYS799  TRP800  GLU811  SER814 

> <Gold.Protein.RotatedAtoms>
  152.0380  133.3965  159.4324 H   0  0  0  0  0  0  0  0  0  0  0  0  # atno 6907 bound_to 6896
  150.6877  134.3446  159.4892 H   0  0  0  0  0  0  0  0  0  0  0  0  # atno 6908 bound_to 6896
  152.1241  134.9183  160.0612 H   0  0  0  0  0  0  0  0  0  0  0  0  # atno 6909 bound_to 6896
  145.7335  140.8986  143.0567 H   0  0  0  0  0  0  0  0  0  0  0  0  # atno 7974 bound_to 7965
  155.6402  140.3497  155.4712 H   0  0  0  0  0  0  0  0  0  0  0  0  # atno 8008 bound_to 7997
  155.9932  140.1198  157.0642 H   0  0  0  0  0  0  0  0  0  0  0  0  # atno 8009 bound_to 7997
  154.4225  140.1115  156.5580 H   0  0  0  0  0  0  0  0  0  0  0  0  # atno 8010 bound_to 7997
  139.5706  144.1651  152.1378 H   0  0  0  0  0  0  0  0  0  0  0  0  # atno 10167 bound_to 10162
  156.4240  130.8043  151.2267 H   0  0  0  0  0  0  0  0  0  0  0  0  # atno 10718 bound_to 10713
  152.9784  135.5871  154.4291 H   0  0  0  0  0  0  0  0  0  0  0  0  # atno 10763 bound_to 10752
  154.3907  135.2768  155.2158 H   0  0  0  0  0  0  0  0  0  0  0  0  # atno 10764 bound_to 10752
  154.4032  135.6098  153.5963 H   0  0  0  0  0  0  0  0  0  0  0  0  # atno 10765 bound_to 10752
  140.2414  134.8048  157.3414 H   0  0  0  0  0  0  0  0  0  0  0  0  # atno 11005 bound_to 11000
  144.6887  139.9363  143.7473 LP  0  0  0  0  0  0  0  0  0  0  0  0  # atno 17320 bound_to 7965
  146.0515  139.3516  143.0636 LP  0  0  0  0  0  0  0  0  0  0  0  0  # atno 17321 bound_to 7965
  140.1183  144.5396  150.6879 LP  0  0  0  0  0  0  0  0  0  0  0  0  # atno 17342 bound_to 10162
  140.6990  143.2422  151.4918 LP  0  0  0  0  0  0  0  0  0  0  0  0  # atno 17343 bound_to 10162
  157.7508  131.0219  150.3769 LP  0  0  0  0  0  0  0  0  0  0  0  0  # atno 17370 bound_to 10713
  156.4093  130.3931  149.6903 LP  0  0  0  0  0  0  0  0  0  0  0  0  # atno 17371 bound_to 10713
  140.1649  134.4681  155.7869 LP  0  0  0  0  0  0  0  0  0  0  0  0  # atno 17394 bound_to 11000
  141.2210  133.6917  156.7608 LP  0  0  0  0  0  0  0  0  0  0  0  0  # atno 17395 bound_to 11000

$$$$
