AV-unprocessed.smi:213|AV-procd|sdf|1636|dock1
  -GOLD-   2262019593D 1   1.00000     0.00000
 Structure written by MMmdl.
 59 62  0  0  0  0  0  0  0  0  2 V2000
  144.4873  136.4660  152.7887 C   0  0  0  0  0  0  0  0  0  0  0  0
  145.8983  136.7254  152.2278 C   0  0  1  0  0  0  0  0  0  0  0  0
  145.9700  136.5080  150.6977 C   0  0  0  0  0  0  0  0  0  0  0  0
  145.8226  135.0818  150.3128 N   0  3  0  0  0  0  0  0  0  0  0  0
  146.7463  134.1952  151.0599 C   0  0  0  0  0  0  0  0  0  0  0  0
  146.5930  132.7384  150.5915 C   0  0  0  0  0  0  0  0  0  0  0  0
  145.2416  132.3259  150.7511 O   0  0  0  0  0  0  0  0  0  0  0  0
  144.3500  133.1120  149.9702 C   0  0  0  0  0  0  0  0  0  0  0  0
  144.4286  134.5820  150.4159 C   0  0  0  0  0  0  0  0  0  0  0  0
  146.3751  138.0632  152.6036 N   0  0  0  0  0  0  0  0  0  0  0  0
  146.8249  138.9964  151.5727 C   0  0  0  0  0  0  0  0  0  0  0  0
  146.8144  138.2961  153.8729 C   0  0  0  0  0  0  0  0  0  0  0  0
  146.7305  137.3052  154.8020 N   0  0  0  0  0  0  0  0  0  0  0  0
  147.1627  137.5017  156.0508 C   0  0  0  0  0  0  0  0  0  0  0  0
  147.7030  138.5982  156.5828 N   0  0  0  0  0  0  0  0  0  0  0  0
  147.7842  139.6018  155.6642 C   0  0  0  0  0  0  0  0  0  0  0  0
  147.3694  139.5389  154.3025 C   0  0  0  0  0  0  0  0  0  0  0  0
  147.6020  140.7654  153.6882 N   0  0  0  0  0  0  0  0  0  0  0  0
  148.1301  141.5032  154.6261 C   0  0  0  0  0  0  0  0  0  0  0  0
  148.2756  140.8819  155.8448 N   0  0  0  0  0  0  0  0  0  0  0  0
  148.8256  141.4596  157.0585 C   0  0  0  0  0  0  0  0  0  0  0  0
  150.3397  141.7291  156.9510 C   0  0  1  0  0  0  0  0  0  0  0  0
  150.5722  142.6847  155.9332 O   0  0  0  0  0  0  0  0  0  0  0  0
  150.9312  142.2542  158.2724 C   0  0  2  0  0  0  0  0  0  0  0  0
  150.6757  143.7365  158.5389 C   0  0  0  0  0  0  0  0  0  0  0  0
  151.7441  144.0634  159.5617 C   0  0  0  0  0  0  0  0  0  0  0  0
  152.8845  143.1105  159.1960 C   0  0  0  0  0  0  0  0  0  0  0  0
  152.3508  142.1945  158.2438 O   0  0  0  0  0  0  0  0  0  0  0  0
  144.1789  135.4344  152.6186 H   0  0  0  0  0  0  0  0  0  0  0  0
  143.7378  137.1108  152.3292 H   0  0  0  0  0  0  0  0  0  0  0  0
  144.4588  136.6378  153.8652 H   0  0  0  0  0  0  0  0  0  0  0  0
  146.5427  135.9992  152.7218 H   0  0  0  0  0  0  0  0  0  0  0  0
  145.1795  137.0911  150.2238 H   0  0  0  0  0  0  0  0  0  0  0  0
  146.9081  136.8889  150.2914 H   0  0  0  0  0  0  0  0  0  0  0  0
  147.7764  134.5204  150.9094 H   0  0  0  0  0  0  0  0  0  0  0  0
  146.5390  134.2680  152.1289 H   0  0  0  0  0  0  0  0  0  0  0  0
  146.8999  132.6287  149.5499 H   0  0  0  0  0  0  0  0  0  0  0  0
  147.2339  132.0840  151.1826 H   0  0  0  0  0  0  0  0  0  0  0  0
  144.5900  133.0123  148.9103 H   0  0  0  0  0  0  0  0  0  0  0  0
  143.3365  132.7331  150.1038 H   0  0  0  0  0  0  0  0  0  0  0  0
  144.0805  134.6765  151.4458 H   0  0  0  0  0  0  0  0  0  0  0  0
  143.7585  135.1794  149.7986 H   0  0  0  0  0  0  0  0  0  0  0  0
  147.8042  139.4132  151.8119 H   0  0  0  0  0  0  0  0  0  0  0  0
  146.1144  139.8172  151.4741 H   0  0  0  0  0  0  0  0  0  0  0  0
  146.9099  138.5131  150.6001 H   0  0  0  0  0  0  0  0  0  0  0  0
  147.0609  136.6602  156.7202 H   0  0  0  0  0  0  0  0  0  0  0  0
  148.4306  142.5264  154.4533 H   0  0  0  0  0  0  0  0  0  0  0  0
  148.2870  142.3817  157.2814 H   0  0  0  0  0  0  0  0  0  0  0  0
  148.6209  140.7737  157.8813 H   0  0  0  0  0  0  0  0  0  0  0  0
  150.8509  140.8077  156.6683 H   0  0  0  0  0  0  0  0  0  0  0  0
  149.7938  143.2105  155.8322 H   0  0  0  0  0  0  0  0  0  0  0  0
  150.5746  141.6601  159.1161 H   0  0  0  0  0  0  0  0  0  0  0  0
  150.8375  144.3202  157.6316 H   0  0  0  0  0  0  0  0  0  0  0  0
  149.6670  143.9382  158.9002 H   0  0  0  0  0  0  0  0  0  0  0  0
  152.0430  145.1118  159.5368 H   0  0  0  0  0  0  0  0  0  0  0  0
  151.3798  143.8396  160.5652 H   0  0  0  0  0  0  0  0  0  0  0  0
  153.7269  143.6416  158.7523 H   0  0  0  0  0  0  0  0  0  0  0  0
  153.2460  142.5758  160.0751 H   0  0  0  0  0  0  0  0  0  0  0  0
  146.0915  135.0162  149.3413 H   0  0  0  0  0  0  0  0  0  0  0  0
  1  2  1  0  0  0  0
  1 29  1  0  0  0  0
  1 30  1  0  0  0  0
  1 31  1  0  0  0  0
  2  3  1  0  0  0  0
  2 10  1  0  0  0  0
  2 32  1  0  0  0  0
  3  4  1  0  0  0  0
  3 33  1  0  0  0  0
  3 34  1  0  0  0  0
  4  9  1  0  0  0  0
  4  5  1  0  0  0  0
  4 59  1  0  0  0  0
  5  6  1  0  0  0  0
  5 35  1  0  0  0  0
  5 36  1  0  0  0  0
  6  7  1  0  0  0  0
  6 37  1  0  0  0  0
  6 38  1  0  0  0  0
  7  8  1  0  0  0  0
  8  9  1  0  0  0  0
  8 39  1  0  0  0  0
  8 40  1  0  0  0  0
  9 41  1  0  0  0  0
  9 42  1  0  0  0  0
 10 11  1  0  0  0  0
 10 12  1  0  0  0  0
 11 43  1  0  0  0  0
 11 44  1  0  0  0  0
 11 45  1  0  0  0  0
 12 17  1  0  0  0  0
 12 13  2  0  0  0  0
 13 14  1  0  0  0  0
 14 15  2  0  0  0  0
 14 46  1  0  0  0  0
 15 16  1  0  0  0  0
 16 20  1  0  0  0  0
 16 17  2  0  0  0  0
 17 18  1  0  0  0  0
 18 19  2  0  0  0  0
 19 20  1  0  0  0  0
 19 47  1  0  0  0  0
 20 21  1  0  0  0  0
 21 22  1  0  0  0  0
 21 48  1  0  0  0  0
 21 49  1  0  0  0  0
 22 23  1  0  0  0  0
 22 24  1  0  0  0  0
 22 50  1  0  0  0  0
 23 51  1  0  0  0  0
 24 28  1  0  0  0  0
 24 25  1  0  0  0  0
 24 52  1  0  0  0  0
 25 26  1  0  0  0  0
 25 53  1  0  0  0  0
 25 54  1  0  0  0  0
 26 27  1  0  0  0  0
 26 55  1  0  0  0  0
 26 56  1  0  0  0  0
 27 28  1  0  0  0  0
 27 57  1  0  0  0  0
 27 58  1  0  0  0  0
M  CHG  1   4   1
M  END
> <s_m_source_file>
AV-unprocessed.smi

> <i_m_source_file_index>
213

> <i_lp_mmshare_version>
43012

> <i_f3d_flags>
0

> <s_epik_input>
W0NIMl0xW0NIMl1PW0NIMl1bQ0gyXU4xW0NIMl1bQ0BASF0oW0NIM10pTihbQ0gzXSljKG5bY0hdbjIpYyhjMjMpbltjSF1uM1tDSDJdW0NASF0oW09IXSlbQ0BASF00W0NIMl1bQ0gyXVtDSDJdTzQ=

> <s_epik_cmdline>
J2VwaWtfcHl0aG9uJywgJy1waCcsICc3LjAnLCAnLXRuJywgJzgnLCAnLW1hJywgJzIwMCcsICctbWV0YWxfYmluZGluZycsICctaW1hZScsICc8aW5maWxlLm1hZT4nLCAnLW9tYWUnLCAnPG91dGZpbGUubWFlPic=

> <r_lp_tautomer_probability>
1

> <r_epik_Ionization_Penalty>
0.399679

> <r_epik_Ionization_Penalty_Charging>
0.399433

> <r_epik_Ionization_Penalty_Neutral>
0.000246213

> <r_epik_State_Penalty>
0.286032

> <r_epik_Charging_Adjusted_Penalty>
0.685465

> <i_epik_Tot_Q>
1

> <i_epik_Tot_abs_Q>
1

> <r_epik_Metal_State_Penalty>
0.286072

> <b_epik_Metal_Only>
0

> <s_lp_Force_Field>
OPLS_2005

> <r_lp_Energy>
43.5533

> <b_lp_Chiralities_Consistent>
1

> <s_lp_Variant>
AV-unprocessed.smi:213-4

> <Gold.Version>
5.8.1

> <Gold.Id.Protein>
6NUR|6NUR_protein|mol2

> <Gold.PLP.Fitness>
51.4102

> <Gold.PLP.PLP>
-42.9618

> <Gold.PLP.part.hbond>
-2.0000

> <Gold.PLP.part.metal>
0.0000

> <Gold.PLP.part.buried>
-2.0496

> <Gold.PLP.part.nonpolar>
-39.5110

> <Gold.PLP.part.repulsive>
0.4288

> <Gold.PLP.ligand.clash>
0.0000

> <Gold.PLP.ligand.torsion>
0.8150

> <Gold.PLP.Chemscore.Hbond>
2.0000

> <Gold.PLP.Chemscore.CHOScore>
1.0000

> <Gold.PLP.Chemscore.Metal>
0.0000

> <Gold.Chemscore.Hbonds>
donor molecule, donor type, donor heavy atom, donor atom, acceptor molecule, acceptor atom, score
      L1  H     4    59       P1  7921  1.00
      L1  H    23    51       P1  8028  1.00
      L1  C    19    47       P1  8028  1.00

> <Gold.PLP.Chemscore.Internal.Correction>
1.0783

> <Gold.Rescore>
     Score         DG    S(hbond)    S(metal)    S(lipo)     H(rot)  DE(clash)    DE(int)     intcor
     14.20     -17.39       1.88        0.00     110.11       2.83       0.58       2.62       ----

> <Gold.Chemscore.Fitness>
14.1980

> <Gold.Chemscore.DG>
-17.3937

> <Gold.Chemscore.ZeroCoef>
-5.4800

> <Gold.Chemscore.Hbond>
1.8755

> <Gold.Chemscore.Metal>
0.0000

> <Gold.Chemscore.Lipo>
110.1056

> <Gold.Chemscore.Internal_Hbond>
0.0000

> <Gold.Chemscore.DEClash>
0.5764

> <Gold.Chemscore.DEInternal>
2.6193

> <Gold.Chemscore.Rot>
2.8254

> <Gold.Chemscore.Internal.Correction>
   9.000000E+99

> <Gold.Chemscore.Hbonds>
donor molecule, donor type, donor heavy atom, donor atom, acceptor molecule, acceptor atom, score
      L1  H     4    59       P1  7921  0.74
      L1  H    23    51       P1  8028  0.98

> <Gold.Chemscore.Hbond.Weighted>
-6.2643

> <Gold.Chemscore.Metal.Weighted>
-0.0000

> <Gold.Chemscore.Lipo.Weighted>
-12.8824

> <Gold.Chemscore.Internal_Hbond.Weighted>
0.0000

> <Gold.Chemscore.DEClash.Weighted>
0.5764

> <Gold.Chemscore.DEInternal.Weighted>
2.6193

> <Gold.Chemscore.Rot.Weighted>
7.2330

> <Gold.Chemscore.Internal.Correction.Weighted>
   9.000000E+99

> <Gold.Protein.RotatedTorsions>
[ 6907 6896 6895 6894 ] final  -52.68 input  -60.11 | X-H torsion
[ 7974 7965 7964 7962 ] final  130.96 input  175.53 | X-H torsion
[ 8008 7997 7996 7995 ] final  125.09 input   59.86 | X-H torsion
[ 10167 10162 10161 10158 ] final  129.87 input  -65.29 | X-H torsion
[ 10718 10713 10712 10709 ] final -100.35 input   66.30 | X-H torsion
[ 10763 10752 10751 10750 ] final -160.32 input  -60.55 | X-H torsion
[ 11005 11000 10999 10996 ] final  -83.18 input  -57.11 | X-H torsion

> <Gold.Protein.ActiveResidues>
 VAL166  LYS551  ARG553  GLY616  TRP617  ASP618  TYR619  PRO620  LYS621  CYS622 
 ASP623  PHE694  ASN695  SER759  ASP760  ASP761  ALA762  ILE779  LEU786  VAL792 
 PHE793  MET794  SER795  GLU796  ALA797  LYS798  CYS799  TRP800  GLU811  SER814 

> <Gold.Protein.RotatedAtoms>
  150.8496  134.7816  159.6997 H   0  0  0  0  0  0  0  0  0  0  0  0  # atno 6907 bound_to 6896
  152.4564  134.5278  159.9812 H   0  0  0  0  0  0  0  0  0  0  0  0  # atno 6908 bound_to 6896
  151.5402  133.3396  159.2970 H   0  0  0  0  0  0  0  0  0  0  0  0  # atno 6909 bound_to 6896
  145.0123  139.4208  143.5238 H   0  0  0  0  0  0  0  0  0  0  0  0  # atno 7974 bound_to 7965
  156.2823  140.2724  156.1894 H   0  0  0  0  0  0  0  0  0  0  0  0  # atno 8008 bound_to 7997
  155.0474  140.0386  157.2549 H   0  0  0  0  0  0  0  0  0  0  0  0  # atno 8009 bound_to 7997
  154.7223  140.2690  155.6535 H   0  0  0  0  0  0  0  0  0  0  0  0  # atno 8010 bound_to 7997
  139.5457  144.6771  151.4481 H   0  0  0  0  0  0  0  0  0  0  0  0  # atno 10167 bound_to 10162
  156.0160  130.5323  150.6803 H   0  0  0  0  0  0  0  0  0  0  0  0  # atno 10718 bound_to 10713
  154.7401  135.3066  154.8744 H   0  0  0  0  0  0  0  0  0  0  0  0  # atno 10763 bound_to 10752
  153.9561  135.6758  153.4748 H   0  0  0  0  0  0  0  0  0  0  0  0  # atno 10764 bound_to 10752
  153.1000  135.4916  154.8774 H   0  0  0  0  0  0  0  0  0  0  0  0  # atno 10765 bound_to 10752
  141.1659  133.7281  156.8682 H   0  0  0  0  0  0  0  0  0  0  0  0  # atno 11005 bound_to 11000
  146.3472  139.9575  142.8721 LP  0  0  0  0  0  0  0  0  0  0  0  0  # atno 17320 bound_to 7965
  145.2006  140.9852  143.4158 LP  0  0  0  0  0  0  0  0  0  0  0  0  # atno 17321 bound_to 7965
  140.6704  143.8306  150.6992 LP  0  0  0  0  0  0  0  0  0  0  0  0  # atno 17342 bound_to 10162
  140.1729  143.4179  152.1988 LP  0  0  0  0  0  0  0  0  0  0  0  0  # atno 17343 bound_to 10162
  157.4507  131.0872  151.0849 LP  0  0  0  0  0  0  0  0  0  0  0  0  # atno 17370 bound_to 10713
  157.1365  130.6125  149.5543 LP  0  0  0  0  0  0  0  0  0  0  0  0  # atno 17371 bound_to 10713
  140.1800  134.9040  157.2937 LP  0  0  0  0  0  0  0  0  0  0  0  0  # atno 17394 bound_to 11000
  140.2406  134.3800  155.7482 LP  0  0  0  0  0  0  0  0  0  0  0  0  # atno 17395 bound_to 11000

$$$$
