AV-unprocessed.smi:1225|AV-procd|sdf|5140|dock2
  -GOLD-   22720 4203D 1   1.00000     0.00000
 Structure written by MMmdl.
 49 51  0  0  0  0  0  0  0  0  2 V2000
  147.7383  130.1867  152.2732 C   0  0  0  0  0  0  0  0  0  0  0  0
  148.1380  131.5039  152.8443 C   0  0  0  0  0  0  0  0  0  0  0  0
  147.2976  132.5315  152.9832 N   0  0  0  0  0  0  0  0  0  0  0  0
  147.9119  133.6513  153.5472 C   0  0  0  0  0  0  0  0  0  0  0  0
  149.2431  133.4700  153.8319 C   0  0  0  0  0  0  0  0  0  0  0  0
  150.1885  134.4580  154.4370 C   0  0  0  0  0  0  0  0  0  0  0  0
  149.6174  135.8263  154.5156 N   0  3  1  0  0  0  0  0  0  0  0  0
  148.4851  135.8869  155.4700 C   0  0  0  0  0  0  0  0  0  0  0  0
  150.6426  136.8767  154.7628 C   0  0  0  0  0  0  0  0  0  0  0  0
  150.0492  138.2989  154.7770 C   0  0  2  0  0  0  0  0  0  0  0  0
  149.4964  138.5763  153.5044 O   0  0  0  0  0  0  0  0  0  0  0  0
  151.1197  139.3574  155.1031 C   0  0  0  0  0  0  0  0  0  0  0  0
  151.5785  139.2723  156.4775 N   0  0  0  0  0  0  0  0  0  0  0  0
  152.0785  138.1917  157.1078 C   0  0  0  0  0  0  0  0  0  0  0  0
  152.4402  138.3428  158.3788 N   0  0  0  0  0  0  0  0  0  0  0  0
  152.1322  139.6742  158.6013 C   0  0  0  0  0  0  0  0  0  0  0  0
  152.2716  140.4676  159.7609 C   0  0  0  0  0  0  0  0  0  0  0  0
  151.8834  141.8266  159.7600 C   0  0  0  0  0  0  0  0  0  0  0  0
  152.0470  142.6425  161.0302 C   0  0  0  0  0  0  0  0  0  0  0  0
  151.3486  142.4125  158.5844 C   0  0  0  0  0  0  0  0  0  0  0  0
  150.9237  143.8701  158.5604 C   0  0  0  0  0  0  0  0  0  0  0  0
  151.2043  141.6346  157.4168 C   0  0  0  0  0  0  0  0  0  0  0  0
  151.5916  140.2833  157.4315 C   0  0  0  0  0  0  0  0  0  0  0  0
  149.7653  131.8585  153.4103 S   0  0  0  0  0  0  0  0  0  0  0  0
  147.0325  130.3270  151.4541 H   0  0  0  0  0  0  0  0  0  0  0  0
  147.2673  129.5743  153.0422 H   0  0  0  0  0  0  0  0  0  0  0  0
  148.6131  129.6594  151.8921 H   0  0  0  0  0  0  0  0  0  0  0  0
  147.3245  134.5434  153.7079 H   0  0  0  0  0  0  0  0  0  0  0  0
  150.4426  134.1130  155.4403 H   0  0  0  0  0  0  0  0  0  0  0  0
  151.1246  134.4858  153.8773 H   0  0  0  0  0  0  0  0  0  0  0  0
  148.8239  135.7014  156.4900 H   0  0  0  0  0  0  0  0  0  0  0  0
  147.7319  135.1383  155.2221 H   0  0  0  0  0  0  0  0  0  0  0  0
  147.9880  136.8557  155.4457 H   0  0  0  0  0  0  0  0  0  0  0  0
  151.1513  136.6658  155.7048 H   0  0  0  0  0  0  0  0  0  0  0  0
  151.4142  136.8439  153.9937 H   0  0  0  0  0  0  0  0  0  0  0  0
  149.2539  138.3712  155.5181 H   0  0  0  0  0  0  0  0  0  0  0  0
  149.4933  137.7778  152.9978 H   0  0  0  0  0  0  0  0  0  0  0  0
  151.9851  139.2312  154.4513 H   0  0  0  0  0  0  0  0  0  0  0  0
  150.7366  140.3627  154.9207 H   0  0  0  0  0  0  0  0  0  0  0  0
  152.1870  137.2420  156.6047 H   0  0  0  0  0  0  0  0  0  0  0  0
  152.6792  140.0215  160.6561 H   0  0  0  0  0  0  0  0  0  0  0  0
  152.7351  143.4718  160.8647 H   0  0  0  0  0  0  0  0  0  0  0  0
  152.4426  142.0363  161.8457 H   0  0  0  0  0  0  0  0  0  0  0  0
  151.0870  143.0474  161.3507 H   0  0  0  0  0  0  0  0  0  0  0  0
  150.5524  144.1605  157.5773 H   0  0  0  0  0  0  0  0  0  0  0  0
  151.7658  144.5181  158.8046 H   0  0  0  0  0  0  0  0  0  0  0  0
  150.1281  144.0477  159.2843 H   0  0  0  0  0  0  0  0  0  0  0  0
  150.7977  142.0677  156.5151 H   0  0  0  0  0  0  0  0  0  0  0  0
  149.2332  136.0176  153.6009 H   0  0  0  0  0  0  0  0  0  0  0  0
  1  2  1  0  0  0  0
  1 25  1  0  0  0  0
  1 26  1  0  0  0  0
  1 27  1  0  0  0  0
  2 24  1  0  0  0  0
  2  3  2  0  0  0  0
  3  4  1  0  0  0  0
  4  5  2  0  0  0  0
  4 28  1  0  0  0  0
  5  6  1  0  0  0  0
  5 24  1  0  0  0  0
  6  7  1  0  0  0  0
  6 29  1  0  0  0  0
  6 30  1  0  0  0  0
  7  8  1  0  0  0  0
  7  9  1  0  0  0  0
  7 49  1  0  0  0  0
  8 31  1  0  0  0  0
  8 32  1  0  0  0  0
  8 33  1  0  0  0  0
  9 10  1  0  0  0  0
  9 34  1  0  0  0  0
  9 35  1  0  0  0  0
 10 11  1  0  0  0  0
 10 12  1  0  0  0  0
 10 36  1  0  0  0  0
 11 37  1  0  0  0  0
 12 13  1  0  0  0  0
 12 38  1  0  0  0  0
 12 39  1  0  0  0  0
 13 23  1  0  0  0  0
 13 14  1  0  0  0  0
 14 15  2  0  0  0  0
 14 40  1  0  0  0  0
 15 16  1  0  0  0  0
 16 23  2  0  0  0  0
 16 17  1  0  0  0  0
 17 18  2  0  0  0  0
 17 41  1  0  0  0  0
 18 19  1  0  0  0  0
 18 20  1  0  0  0  0
 19 42  1  0  0  0  0
 19 43  1  0  0  0  0
 19 44  1  0  0  0  0
 20 21  1  0  0  0  0
 20 22  2  0  0  0  0
 21 45  1  0  0  0  0
 21 46  1  0  0  0  0
 21 47  1  0  0  0  0
 22 23  1  0  0  0  0
 22 48  1  0  0  0  0
M  CHG  1   7   1
M  END
> <s_m_source_file>
AV-unprocessed.smi

> <i_m_source_file_index>
1225

> <i_lp_mmshare_version>
43012

> <i_f3d_flags>
0

> <s_epik_input>
W0NIM11jMW5bY0hdYyhzMSlbQ0gyXU4oW0NIM10pW0NIMl1bQ0BIXShbT0hdKVtDSDJdbihbY0hdbjIpYyhjMjMpW2NIXWMoW0NIM10pYyhbY0hdMylbQ0gzXQ==

> <s_epik_cmdline>
J2VwaWtfcHl0aG9uJywgJy1waCcsICc3LjAnLCAnLXRuJywgJzgnLCAnLW1hJywgJzIwMCcsICctbWV0YWxfYmluZGluZycsICctaW1hZScsICc8aW5maWxlLm1hZT4nLCAnLW9tYWUnLCAnPG91dGZpbGUubWFlPic=

> <r_epik_Ionization_Penalty>
1.62543

> <r_epik_Ionization_Penalty_Charging>
1.53932

> <r_epik_Ionization_Penalty_Neutral>
0.0861152

> <r_epik_State_Penalty>
1.73127

> <r_epik_Charging_Adjusted_Penalty>
3.27059

> <i_epik_Tot_Q>
1

> <i_epik_Tot_abs_Q>
1

> <r_epik_Metal_State_Penalty>
1.71387

> <b_epik_Metal_Only>
0

> <s_lp_Force_Field>
OPLS_2005

> <r_lp_Energy>
11.3728

> <b_lp_Chiralities_Consistent>
1

> <s_lp_Variant>
AV-unprocessed.smi:1225-5

> <Gold.Version>
5.8.1

> <Gold.Id.Protein>
6NUR|6NUR_protein|mol2

> <Gold.PLP.Fitness>
54.0099

> <Gold.PLP.PLP>
-45.2232

> <Gold.PLP.part.hbond>
-3.0000

> <Gold.PLP.part.metal>
0.0000

> <Gold.PLP.part.buried>
-4.2345

> <Gold.PLP.part.nonpolar>
-38.0551

> <Gold.PLP.part.repulsive>
0.1295

> <Gold.PLP.ligand.clash>
0.0000

> <Gold.PLP.ligand.torsion>
0.2427

> <Gold.PLP.Chemscore.Hbond>
3.0000

> <Gold.PLP.Chemscore.CHOScore>
0.0000

> <Gold.PLP.Chemscore.Metal>
0.0000

> <Gold.Chemscore.Hbonds>
donor molecule, donor type, donor heavy atom, donor atom, acceptor molecule, acceptor atom, score
      L1  H     7    49       P1  7948  2.00
      L1  H    11    37       P1  7948  1.00

> <Gold.PLP.Chemscore.Internal.Correction>
0.2721

> <Gold.Rescore>
     Score         DG    S(hbond)    S(metal)    S(lipo)     H(rot)  DE(clash)    DE(int)     intcor
     19.00     -19.89       1.94        0.00     119.71       2.37       0.19       0.70       ----

> <Gold.Chemscore.Fitness>
19.0014

> <Gold.Chemscore.DG>
-19.8907

> <Gold.Chemscore.ZeroCoef>
-5.4800

> <Gold.Chemscore.Hbond>
1.9415

> <Gold.Chemscore.Metal>
0.0000

> <Gold.Chemscore.Lipo>
119.7090

> <Gold.Chemscore.Internal_Hbond>
0.0000

> <Gold.Chemscore.DEClash>
0.1914

> <Gold.Chemscore.DEInternal>
0.6979

> <Gold.Chemscore.Rot>
2.3750

> <Gold.Chemscore.Internal.Correction>
   9.000000E+99

> <Gold.Chemscore.Hbonds>
donor molecule, donor type, donor heavy atom, donor atom, acceptor molecule, acceptor atom, score
      L1  H     7    49       P1  7948  0.82
      L1  H    11    37       P1  7948  0.84

> <Gold.Chemscore.Hbond.Weighted>
-6.4847

> <Gold.Chemscore.Metal.Weighted>
-0.0000

> <Gold.Chemscore.Lipo.Weighted>
-14.0059

> <Gold.Chemscore.Internal_Hbond.Weighted>
0.0000

> <Gold.Chemscore.DEClash.Weighted>
0.1914

> <Gold.Chemscore.DEInternal.Weighted>
0.6979

> <Gold.Chemscore.Rot.Weighted>
6.0800

> <Gold.Chemscore.Internal.Correction.Weighted>
   9.000000E+99

> <Gold.Protein.RotatedTorsions>
[ 6907 6896 6895 6894 ] final  -60.40 input  -60.11 | X-H torsion
[ 7974 7965 7964 7962 ] final -112.31 input  175.53 | X-H torsion
[ 8008 7997 7996 7995 ] final -131.48 input   59.86 | X-H torsion
[ 10167 10162 10161 10158 ] final -120.21 input  -65.29 | X-H torsion
[ 10718 10713 10712 10709 ] final   93.76 input   66.30 | X-H torsion
[ 10763 10752 10751 10750 ] final   35.29 input  -60.55 | X-H torsion
[ 11005 11000 10999 10996 ] final -151.06 input  -57.11 | X-H torsion

> <Gold.Protein.ActiveResidues>
 VAL166  LYS551  ARG553  GLY616  TRP617  ASP618  TYR619  PRO620  LYS621  CYS622 
 ASP623  PHE694  ASN695  SER759  ASP760  ASP761  ALA762  ILE779  LEU786  VAL792 
 PHE793  MET794  SER795  GLU796  ALA797  LYS798  CYS799  TRP800  GLU811  SER814 

> <Gold.Protein.RotatedAtoms>
  150.7859  134.6842  159.6460 H   0  0  0  0  0  0  0  0  0  0  0  0  # atno 6907 bound_to 6896
  152.3955  134.6369  160.0100 H   0  0  0  0  0  0  0  0  0  0  0  0  # atno 6908 bound_to 6896
  151.6656  133.3279  159.3220 H   0  0  0  0  0  0  0  0  0  0  0  0  # atno 6909 bound_to 6896
  145.1456  140.8801  143.3676 H   0  0  0  0  0  0  0  0  0  0  0  0  # atno 7974 bound_to 7965
  155.3130  140.0458  157.3036 H   0  0  0  0  0  0  0  0  0  0  0  0  # atno 8008 bound_to 7997
  154.5422  140.2291  155.8588 H   0  0  0  0  0  0  0  0  0  0  0  0  # atno 8009 bound_to 7997
  156.1891  140.3055  155.9304 H   0  0  0  0  0  0  0  0  0  0  0  0  # atno 8010 bound_to 7997
  140.0383  143.5179  152.2142 H   0  0  0  0  0  0  0  0  0  0  0  0  # atno 10167 bound_to 10162
  157.6952  131.0489  150.4084 H   0  0  0  0  0  0  0  0  0  0  0  0  # atno 10718 bound_to 10713
  153.0126  135.6337  154.1803 H   0  0  0  0  0  0  0  0  0  0  0  0  # atno 10763 bound_to 10752
  154.1544  135.2827  155.3128 H   0  0  0  0  0  0  0  0  0  0  0  0  # atno 10764 bound_to 10752
  154.6029  135.5581  153.7453 H   0  0  0  0  0  0  0  0  0  0  0  0  # atno 10765 bound_to 10752
  140.7336  134.3593  157.5162 H   0  0  0  0  0  0  0  0  0  0  0  0  # atno 11005 bound_to 11000
  145.0485  139.3201  143.5940 LP  0  0  0  0  0  0  0  0  0  0  0  0  # atno 17320 bound_to 7965
  146.3500  139.9885  142.8688 LP  0  0  0  0  0  0  0  0  0  0  0  0  # atno 17321 bound_to 7965
  139.6030  144.7588  151.3126 LP  0  0  0  0  0  0  0  0  0  0  0  0  # atno 17342 bound_to 10162
  140.7271  143.6971  150.7875 LP  0  0  0  0  0  0  0  0  0  0  0  0  # atno 17343 bound_to 10162
  156.4470  130.4003  149.6660 LP  0  0  0  0  0  0  0  0  0  0  0  0  # atno 17370 bound_to 10713
  156.3823  130.7585  151.2579 LP  0  0  0  0  0  0  0  0  0  0  0  0  # atno 17371 bound_to 10713
  139.8821  134.9035  156.2855 LP  0  0  0  0  0  0  0  0  0  0  0  0  # atno 17394 bound_to 11000
  140.9899  133.7215  156.0798 LP  0  0  0  0  0  0  0  0  0  0  0  0  # atno 17395 bound_to 11000

$$$$
