AV-unprocessed.smi:3214|AV-procd|sdf|12283|dock10
  -GOLD-   2272018123D 1   1.00000     0.00000
 Structure written by MMmdl.
 37 37  0  0  0  0  0  0  0  0  2 V2000
  150.9268  139.8979  155.3504 C   0  0  0  0  0  0  0  0  0  0  0  0
  150.4596  138.8345  154.3480 C   0  0  0  0  0  0  0  0  0  0  0  0
  149.2556  139.2580  153.6421 N   0  0  0  0  0  0  0  0  0  0  0  0
  148.0185  138.7948  153.8789 C   0  0  0  0  0  0  0  0  0  0  0  0
  147.7669  137.9490  154.7374 O   0  0  0  0  0  0  0  0  0  0  0  0
  146.9016  139.3752  153.0050 C   0  0  0  0  0  0  0  0  0  0  0  0
  146.4043  138.3956  151.9275 C   0  0  0  0  0  0  0  0  0  0  0  0
  146.4732  137.0012  152.4137 N   0  3  0  0  0  0  0  0  0  0  0  0
  145.6954  136.0140  151.6314 C   0  0  2  0  0  0  0  0  0  0  0  0
  144.2151  136.0986  152.0408 C   0  0  0  0  0  0  0  0  0  0  0  0
  146.2746  134.5887  151.7959 C   0  0  0  0  0  0  0  0  0  0  0  0
  145.6119  133.6030  150.9606 N   0  0  0  0  0  0  0  0  0  0  0  0
  146.1797  132.6301  150.1646 C   0  0  0  0  0  0  0  0  0  0  0  0
  145.1592  131.9533  149.5606 C   0  0  0  0  0  0  0  0  0  0  0  0
  143.9890  132.5985  150.0497 C   0  0  0  0  0  0  0  0  0  0  0  0
  144.2638  133.5882  150.8842 N   0  0  0  0  0  0  0  0  0  0  0  0
  151.8108  139.5580  155.8902 H   0  0  0  0  0  0  0  0  0  0  0  0
  150.1517  140.1134  156.0867 H   0  0  0  0  0  0  0  0  0  0  0  0
  151.1838  140.8322  154.8496 H   0  0  0  0  0  0  0  0  0  0  0  0
  151.2567  138.6048  153.6390 H   0  0  0  0  0  0  0  0  0  0  0  0
  150.2369  137.9061  154.8745 H   0  0  0  0  0  0  0  0  0  0  0  0
  149.3748  139.9497  152.9160 H   0  0  0  0  0  0  0  0  0  0  0  0
  146.0678  139.6663  153.6458 H   0  0  0  0  0  0  0  0  0  0  0  0
  147.2724  140.2880  152.5373 H   0  0  0  0  0  0  0  0  0  0  0  0
  145.3726  138.6258  151.6570 H   0  0  0  0  0  0  0  0  0  0  0  0
  147.0077  138.5017  151.0257 H   0  0  0  0  0  0  0  0  0  0  0  0
  147.4386  136.7060  152.4458 H   0  0  0  0  0  0  0  0  0  0  0  0
  145.7561  136.3012  150.5805 H   0  0  0  0  0  0  0  0  0  0  0  0
  143.5876  135.4591  151.4194 H   0  0  0  0  0  0  0  0  0  0  0  0
  143.8369  137.1160  151.9355 H   0  0  0  0  0  0  0  0  0  0  0  0
  144.0727  135.7965  153.0789 H   0  0  0  0  0  0  0  0  0  0  0  0
  147.3365  134.5674  151.5505 H   0  0  0  0  0  0  0  0  0  0  0  0
  146.1890  134.2677  152.8352 H   0  0  0  0  0  0  0  0  0  0  0  0
  147.2497  132.4998  150.0953 H   0  0  0  0  0  0  0  0  0  0  0  0
  145.2366  131.1249  148.8720 H   0  0  0  0  0  0  0  0  0  0  0  0
  142.9559  132.3796  149.8236 H   0  0  0  0  0  0  0  0  0  0  0  0
  146.1067  136.9967  153.3549 H   0  0  0  0  0  0  0  0  0  0  0  0
  1  2  1  0  0  0  0
  1 17  1  0  0  0  0
  1 18  1  0  0  0  0
  1 19  1  0  0  0  0
  2  3  1  0  0  0  0
  2 20  1  0  0  0  0
  2 21  1  0  0  0  0
  3  4  1  0  0  0  0
  3 22  1  0  0  0  0
  4  5  2  0  0  0  0
  4  6  1  0  0  0  0
  6  7  1  0  0  0  0
  6 23  1  0  0  0  0
  6 24  1  0  0  0  0
  7  8  1  0  0  0  0
  7 25  1  0  0  0  0
  7 26  1  0  0  0  0
  8  9  1  0  0  0  0
  8 27  1  0  0  0  0
  8 37  1  0  0  0  0
  9 10  1  0  0  0  0
  9 11  1  0  0  0  0
  9 28  1  0  0  0  0
 10 29  1  0  0  0  0
 10 30  1  0  0  0  0
 10 31  1  0  0  0  0
 11 12  1  0  0  0  0
 11 32  1  0  0  0  0
 11 33  1  0  0  0  0
 12 16  1  0  0  0  0
 12 13  1  0  0  0  0
 13 14  2  0  0  0  0
 13 34  1  0  0  0  0
 14 15  1  0  0  0  0
 14 35  1  0  0  0  0
 15 16  2  0  0  0  0
 15 36  1  0  0  0  0
M  CHG  1   8   1
M  END
> <s_m_source_file>
AV-unprocessed.smi

> <i_m_source_file_index>
3214

> <i_lp_mmshare_version>
43012

> <i_f3d_flags>
0

> <s_epik_input>
W0NIM11bQ0gyXVtOSF1DKD1PKVtDSDJdW0NIMl1bTkhdW0NASF0oW0NIM10pW0NIMl1uMVtjSF1bY0hdW2NIXW4x

> <s_epik_cmdline>
J2VwaWtfcHl0aG9uJywgJy1waCcsICc3LjAnLCAnLXRuJywgJzgnLCAnLW1hJywgJzIwMCcsICctbWV0YWxfYmluZGluZycsICctaW1hZScsICc8aW5maWxlLm1hZT4nLCAnLW9tYWUnLCAnPG91dGZpbGUubWFlPic=

> <r_lp_tautomer_probability>
1

> <r_epik_Ionization_Penalty>
0.00598156

> <r_epik_Ionization_Penalty_Charging>
0.00597743

> <r_epik_Ionization_Penalty_Neutral>
4.12922e-06

> <r_epik_State_Penalty>
0.00439883

> <r_epik_Charging_Adjusted_Penalty>
0.0103763

> <i_epik_Tot_Q>
1

> <i_epik_Tot_abs_Q>
1

> <r_epik_Metal_State_Penalty>
-0

> <b_epik_Metal_Only>
0

> <s_lp_Force_Field>
OPLS_2005

> <r_lp_Energy>
5.54296

> <b_lp_Chiralities_Consistent>
1

> <s_lp_Variant>
AV-unprocessed.smi:3214-1

> <Gold.Version>
5.8.1

> <Gold.Id.Protein>
6NUR|6NUR_protein|mol2

> <Gold.PLP.Fitness>
46.7057

> <Gold.PLP.PLP>
-32.9858

> <Gold.PLP.part.hbond>
-2.0599

> <Gold.PLP.part.metal>
0.0000

> <Gold.PLP.part.buried>
-2.1912

> <Gold.PLP.part.nonpolar>
-29.6454

> <Gold.PLP.part.repulsive>
0.4098

> <Gold.PLP.ligand.clash>
0.0000

> <Gold.PLP.ligand.torsion>
0.8951

> <Gold.PLP.Chemscore.Hbond>
3.0000

> <Gold.PLP.Chemscore.CHOScore>
2.1199

> <Gold.PLP.Chemscore.Metal>
0.0000

> <Gold.Chemscore.Hbonds>
donor molecule, donor type, donor heavy atom, donor atom, acceptor molecule, acceptor atom, score
      L1  H     3    22       P1  7957  0.78
      L1  H     8    27       P1  7948  2.00
      L1  C    13    34       P1 10747  1.00
      L1  C    15    36       P1 10186  0.21

> <Gold.PLP.Chemscore.Internal.Correction>
0.1505

> <Gold.Rescore>
     Score         DG    S(hbond)    S(metal)    S(lipo)     H(rot)  DE(clash)    DE(int)     intcor
     13.20     -14.23       1.73        0.00      77.73       2.39       0.07       0.96       ----

> <Gold.Chemscore.Fitness>
13.1982

> <Gold.Chemscore.DG>
-14.2340

> <Gold.Chemscore.ZeroCoef>
-5.4800

> <Gold.Chemscore.Hbond>
1.7335

> <Gold.Chemscore.Metal>
0.0000

> <Gold.Chemscore.Lipo>
77.7338

> <Gold.Chemscore.Internal_Hbond>
0.0000

> <Gold.Chemscore.DEClash>
0.0742

> <Gold.Chemscore.DEInternal>
0.9617

> <Gold.Chemscore.Rot>
2.3948

> <Gold.Chemscore.Internal.Correction>
   9.000000E+99

> <Gold.Chemscore.Hbonds>
donor molecule, donor type, donor heavy atom, donor atom, acceptor molecule, acceptor atom, score
      L1  H     3    22       P1  7957  0.80
      L1  H     8    27       P1  7948  0.99

> <Gold.Chemscore.Hbond.Weighted>
-5.7897

> <Gold.Chemscore.Metal.Weighted>
-0.0000

> <Gold.Chemscore.Lipo.Weighted>
-9.0949

> <Gold.Chemscore.Internal_Hbond.Weighted>
0.0000

> <Gold.Chemscore.DEClash.Weighted>
0.0742

> <Gold.Chemscore.DEInternal.Weighted>
0.9617

> <Gold.Chemscore.Rot.Weighted>
6.1306

> <Gold.Chemscore.Internal.Correction.Weighted>
   9.000000E+99

> <Gold.Protein.RotatedTorsions>
[ 6907 6896 6895 6894 ] final    1.38 input  -60.11 | X-H torsion
[ 7974 7965 7964 7962 ] final -133.23 input  175.53 | X-H torsion
[ 8008 7997 7996 7995 ] final   56.53 input   59.86 | X-H torsion
[ 10167 10162 10161 10158 ] final   33.25 input  -65.29 | X-H torsion
[ 10718 10713 10712 10709 ] final -117.82 input   66.30 | X-H torsion
[ 10763 10752 10751 10750 ] final  -43.23 input  -60.55 | X-H torsion
[ 11005 11000 10999 10996 ] final  -55.34 input  -57.11 | X-H torsion

> <Gold.Protein.ActiveResidues>
 VAL166  LYS551  ARG553  GLY616  TRP617  ASP618  TYR619  PRO620  LYS621  CYS622 
 ASP623  PHE694  ASN695  SER759  ASP760  ASP761  ALA762  ILE779  LEU786  VAL792 
 PHE793  MET794  SER795  GLU796  ALA797  LYS798  CYS799  TRP800  GLU811  SER814 

> <Gold.Protein.RotatedAtoms>
  151.5917  135.1053  160.0040 H   0  0  0  0  0  0  0  0  0  0  0  0  # atno 6907 bound_to 6896
  152.4303  133.7262  159.6572 H   0  0  0  0  0  0  0  0  0  0  0  0  # atno 6908 bound_to 6896
  150.8195  133.8207  159.3168 H   0  0  0  0  0  0  0  0  0  0  0  0  # atno 6909 bound_to 6896
  144.9212  140.7016  143.4964 H   0  0  0  0  0  0  0  0  0  0  0  0  # atno 7974 bound_to 7965
  155.5190  140.3479  155.4403 H   0  0  0  0  0  0  0  0  0  0  0  0  # atno 8008 bound_to 7997
  156.0797  140.1383  156.9754 H   0  0  0  0  0  0  0  0  0  0  0  0  # atno 8009 bound_to 7997
  154.4573  140.0948  156.6769 H   0  0  0  0  0  0  0  0  0  0  0  0  # atno 8010 bound_to 7997
  140.4425  144.1167  150.6176 H   0  0  0  0  0  0  0  0  0  0  0  0  # atno 10167 bound_to 10162
  156.1061  130.6212  150.9213 H   0  0  0  0  0  0  0  0  0  0  0  0  # atno 10718 bound_to 10713
  153.9921  135.6704  153.4754 H   0  0  0  0  0  0  0  0  0  0  0  0  # atno 10763 bound_to 10752
  153.0700  135.4979  154.8281 H   0  0  0  0  0  0  0  0  0  0  0  0  # atno 10764 bound_to 10752
  154.7103  135.3096  154.9170 H   0  0  0  0  0  0  0  0  0  0  0  0  # atno 10765 bound_to 10752
  141.1069  133.6613  156.4455 H   0  0  0  0  0  0  0  0  0  0  0  0  # atno 11005 bound_to 11000
  145.3293  139.1764  143.4545 LP  0  0  0  0  0  0  0  0  0  0  0  0  # atno 17320 bound_to 7965
  146.3205  140.3321  142.8641 LP  0  0  0  0  0  0  0  0  0  0  0  0  # atno 17321 bound_to 7965
  140.4302  143.2571  151.9605 LP  0  0  0  0  0  0  0  0  0  0  0  0  # atno 17342 bound_to 10162
  139.4790  144.5751  151.8025 LP  0  0  0  0  0  0  0  0  0  0  0  0  # atno 17343 bound_to 10162
  157.6238  131.0927  150.8572 LP  0  0  0  0  0  0  0  0  0  0  0  0  # atno 17370 bound_to 10713
  156.8691  130.5140  149.5298 LP  0  0  0  0  0  0  0  0  0  0  0  0  # atno 17371 bound_to 10713
  140.4878  134.6604  157.5198 LP  0  0  0  0  0  0  0  0  0  0  0  0  # atno 17394 bound_to 11000
  139.9943  134.6935  155.9635 LP  0  0  0  0  0  0  0  0  0  0  0  0  # atno 17395 bound_to 11000

$$$$
