AV-unprocessed.smi:2986|AV-procd|sdf|11383|dock4
  -GOLD-   2272016303D 1   1.00000     0.00000
 Structure written by MMmdl.
 41 43  0  0  0  0  0  0  0  0  2 V2000
  148.4095  141.7189  154.4047 C   0  0  0  0  0  0  0  0  0  0  0  0
  148.9407  140.5896  155.0743 O   0  0  0  0  0  0  0  0  0  0  0  0
  149.3804  140.8930  156.3886 C   0  0  0  0  0  0  0  0  0  0  0  0
  150.6555  141.7446  156.3255 C   0  0  0  0  0  0  0  0  0  0  0  0
  151.3036  141.8531  157.6241 N   0  0  0  0  0  0  0  0  0  0  0  0
  151.8258  140.8602  158.3862 C   0  0  0  0  0  0  0  0  0  0  0  0
  151.7608  139.1596  157.9156 S   0  0  0  0  0  0  0  0  0  0  0  0
  150.0776  138.7518  158.4884 C   0  0  0  0  0  0  0  0  0  0  0  0
  149.9146  137.3009  158.9540 C   0  0  0  0  0  0  0  0  0  0  0  0
  150.9198  136.6325  159.1984 O   0  0  0  0  0  0  0  0  0  0  0  0
  148.6096  136.9482  159.0559 N   0  5  0  0  0  0  0  0  0  0  0  0
  148.1513  136.4107  160.1952 C   0  0  0  0  0  0  0  0  0  0  0  0
  147.8635  135.0367  160.4185 C   0  0  0  0  0  0  0  0  0  0  0  0
  147.4219  135.0172  161.7110 C   0  0  0  0  0  0  0  0  0  0  0  0
  146.9542  133.9210  162.6052 C   0  0  0  0  0  0  0  0  0  0  0  0
  147.4275  136.2741  162.2311 O   0  0  0  0  0  0  0  0  0  0  0  0
  147.8908  137.1612  161.2522 N   0  0  0  0  0  0  0  0  0  0  0  0
  152.4052  141.2475  159.5228 N   0  0  0  0  0  0  0  0  0  0  0  0
  152.2054  142.6130  159.5172 C   0  0  0  0  0  0  0  0  0  0  0  0
  152.5710  143.5976  160.4627 C   0  0  0  0  0  0  0  0  0  0  0  0
  152.2618  144.9546  160.2356 C   0  0  0  0  0  0  0  0  0  0  0  0
  151.5875  145.3460  159.0607 C   0  0  0  0  0  0  0  0  0  0  0  0
  151.2155  144.3806  158.1054 C   0  0  0  0  0  0  0  0  0  0  0  0
  151.5214  143.0263  158.3396 C   0  0  0  0  0  0  0  0  0  0  0  0
  148.0900  141.4334  153.4026 H   0  0  0  0  0  0  0  0  0  0  0  0
  149.1565  142.5075  154.3078 H   0  0  0  0  0  0  0  0  0  0  0  0
  147.5435  142.1196  154.9328 H   0  0  0  0  0  0  0  0  0  0  0  0
  148.6012  141.4354  156.9260 H   0  0  0  0  0  0  0  0  0  0  0  0
  149.5747  139.9715  156.9399 H   0  0  0  0  0  0  0  0  0  0  0  0
  151.3611  141.3086  155.6180 H   0  0  0  0  0  0  0  0  0  0  0  0
  150.4261  142.7392  155.9480 H   0  0  0  0  0  0  0  0  0  0  0  0
  149.7813  139.4531  159.2690 H   0  0  0  0  0  0  0  0  0  0  0  0
  149.3915  138.9236  157.6591 H   0  0  0  0  0  0  0  0  0  0  0  0
  147.9693  134.2022  159.7419 H   0  0  0  0  0  0  0  0  0  0  0  0
  145.8724  133.8057  162.5396 H   0  0  0  0  0  0  0  0  0  0  0  0
  147.2114  134.1287  163.6441 H   0  0  0  0  0  0  0  0  0  0  0  0
  147.4136  132.9721  162.3277 H   0  0  0  0  0  0  0  0  0  0  0  0
  153.0869  143.3057  161.3653 H   0  0  0  0  0  0  0  0  0  0  0  0
  152.5438  145.6980  160.9665 H   0  0  0  0  0  0  0  0  0  0  0  0
  151.3553  146.3873  158.8935 H   0  0  0  0  0  0  0  0  0  0  0  0
  150.6999  144.6767  157.2041 H   0  0  0  0  0  0  0  0  0  0  0  0
  1  2  1  0  0  0  0
  1 25  1  0  0  0  0
  1 26  1  0  0  0  0
  1 27  1  0  0  0  0
  2  3  1  0  0  0  0
  3  4  1  0  0  0  0
  3 28  1  0  0  0  0
  3 29  1  0  0  0  0
  4  5  1  0  0  0  0
  4 30  1  0  0  0  0
  4 31  1  0  0  0  0
  5 24  1  0  0  0  0
  5  6  1  0  0  0  0
  6  7  1  0  0  0  0
  6 18  2  0  0  0  0
  7  8  1  0  0  0  0
  8  9  1  0  0  0  0
  8 32  1  0  0  0  0
  8 33  1  0  0  0  0
  9 10  2  0  0  0  0
  9 11  1  0  0  0  0
 11 12  1  0  0  0  0
 12 17  2  0  0  0  0
 12 13  1  0  0  0  0
 13 14  2  0  0  0  0
 13 34  1  0  0  0  0
 14 15  1  0  0  0  0
 14 16  1  0  0  0  0
 15 35  1  0  0  0  0
 15 36  1  0  0  0  0
 15 37  1  0  0  0  0
 16 17  1  0  0  0  0
 18 19  1  0  0  0  0
 19 24  2  0  0  0  0
 19 20  1  0  0  0  0
 20 21  2  0  0  0  0
 20 38  1  0  0  0  0
 21 22  1  0  0  0  0
 21 39  1  0  0  0  0
 22 23  2  0  0  0  0
 22 40  1  0  0  0  0
 23 24  1  0  0  0  0
 23 41  1  0  0  0  0
M  CHG  1  11  -1
M  END
> <s_m_source_file>
AV-unprocessed.smi

> <i_m_source_file_index>
2986

> <i_lp_mmshare_version>
43012

> <i_f3d_flags>
0

> <s_epik_input>
W2NIXTFbY0hdW2NIXVtjSF1jKGMxMiluKFtDSDJdW0NIMl1PW0NIM10pYyhuMilTW0NIMl1DKD1PKVtOSF1jM1tjSF1jKFtDSDNdKW9uMw==

> <s_epik_cmdline>
J2VwaWtfcHl0aG9uJywgJy1waCcsICc3LjAnLCAnLXRuJywgJzgnLCAnLW1hJywgJzIwMCcsICctbWV0YWxfYmluZGluZycsICctaW1hZScsICc8aW5maWxlLm1hZT4nLCAnLW9tYWUnLCAnPG91dGZpbGUubWFlPic=

> <r_epik_Ionization_Penalty>
4.21562

> <r_epik_Ionization_Penalty_Charging>
4.18608

> <r_epik_Ionization_Penalty_Neutral>
0.0295463

> <r_epik_State_Penalty>
4.20602

> <r_epik_Charging_Adjusted_Penalty>
8.3921

> <i_epik_Tot_Q>
-1

> <i_epik_Tot_abs_Q>
1

> <r_epik_Metal_State_Penalty>
0.721027

> <b_epik_Metal_Only>
1

> <s_lp_Force_Field>
OPLS_2005

> <r_lp_Energy>
2.9865

> <b_lp_Chiralities_Consistent>
1

> <s_lp_Variant>
AV-unprocessed.smi:2986-3

> <Gold.Version>
5.8.1

> <Gold.Id.Protein>
6NUR|6NUR_protein|mol2

> <Gold.PLP.Fitness>
56.4269

> <Gold.PLP.PLP>
-51.5917

> <Gold.PLP.part.hbond>
-3.0000

> <Gold.PLP.part.metal>
0.0000

> <Gold.PLP.part.buried>
-7.3425

> <Gold.PLP.part.nonpolar>
-41.3826

> <Gold.PLP.part.repulsive>
0.0954

> <Gold.PLP.ligand.clash>
0.0000

> <Gold.PLP.ligand.torsion>
1.9724

> <Gold.PLP.Chemscore.Hbond>
2.8240

> <Gold.PLP.Chemscore.CHOScore>
0.0000

> <Gold.PLP.Chemscore.Metal>
0.0000

> <Gold.Chemscore.Hbonds>
donor molecule, donor type, donor heavy atom, donor atom, acceptor molecule, acceptor atom, score
      P1  H  6896  6907       L1    10  1.00
      P1  H  6931  6943       L1    17  1.00
      P1  H  6934  6947       L1    17  0.75

> <Gold.PLP.Chemscore.Internal.Correction>
0.3079

> <Gold.Rescore>
     Score         DG    S(hbond)    S(metal)    S(lipo)     H(rot)  DE(clash)    DE(int)     intcor
     20.11     -22.16       2.60        0.00     116.70       2.21       0.05       2.00       ----

> <Gold.Chemscore.Fitness>
20.1119

> <Gold.Chemscore.DG>
-22.1585

> <Gold.Chemscore.ZeroCoef>
-5.4800

> <Gold.Chemscore.Hbond>
2.5974

> <Gold.Chemscore.Metal>
0.0000

> <Gold.Chemscore.Lipo>
116.7001

> <Gold.Chemscore.Internal_Hbond>
0.0000

> <Gold.Chemscore.DEClash>
0.0494

> <Gold.Chemscore.DEInternal>
1.9971

> <Gold.Chemscore.Rot>
2.2073

> <Gold.Chemscore.Internal.Correction>
   9.000000E+99

> <Gold.Chemscore.Hbonds>
donor molecule, donor type, donor heavy atom, donor atom, acceptor molecule, acceptor atom, score
      P1  H  6896  6907       L1    10  0.98
      P1  H  6931  6943       L1    17  0.74
      P1  H  6934  6947       L1    17  0.69

> <Gold.Chemscore.Hbond.Weighted>
-8.6754

> <Gold.Chemscore.Metal.Weighted>
-0.0000

> <Gold.Chemscore.Lipo.Weighted>
-13.6539

> <Gold.Chemscore.Internal_Hbond.Weighted>
0.0000

> <Gold.Chemscore.DEClash.Weighted>
0.0494

> <Gold.Chemscore.DEInternal.Weighted>
1.9971

> <Gold.Chemscore.Rot.Weighted>
5.6508

> <Gold.Chemscore.Internal.Correction.Weighted>
   9.000000E+99

> <Gold.Protein.RotatedTorsions>
[ 6907 6896 6895 6894 ] final  -13.44 input  -60.11 | X-H torsion
[ 7974 7965 7964 7962 ] final  -56.22 input  175.53 | X-H torsion
[ 8008 7997 7996 7995 ] final  143.45 input   59.86 | X-H torsion
[ 10167 10162 10161 10158 ] final -153.63 input  -65.29 | X-H torsion
[ 10718 10713 10712 10709 ] final    6.56 input   66.30 | X-H torsion
[ 10763 10752 10751 10750 ] final -173.35 input  -60.55 | X-H torsion
[ 11005 11000 10999 10996 ] final -146.79 input  -57.11 | X-H torsion

> <Gold.Protein.ActiveResidues>
 VAL166  LYS551  ARG553  GLY616  TRP617  ASP618  TYR619  PRO620  LYS621  CYS622 
 ASP623  PHE694  ASN695  SER759  ASP760  ASP761  ALA762  ILE779  LEU786  VAL792 
 PHE793  MET794  SER795  GLU796  ALA797  LYS798  CYS799  TRP800  GLU811  SER814 

> <Gold.Protein.RotatedAtoms>
  151.3549  135.0892  159.9414 H   0  0  0  0  0  0  0  0  0  0  0  0  # atno 6907 bound_to 6896
  152.5177  133.9316  159.7593 H   0  0  0  0  0  0  0  0  0  0  0  0  # atno 6908 bound_to 6896
  150.9698  133.6301  159.2769 H   0  0  0  0  0  0  0  0  0  0  0  0  # atno 6909 bound_to 6896
  145.8652  140.8256  142.9916 H   0  0  0  0  0  0  0  0  0  0  0  0  # atno 7974 bound_to 7965
  156.2930  140.2262  156.4892 H   0  0  0  0  0  0  0  0  0  0  0  0  # atno 8008 bound_to 7997
  154.7785  140.0462  157.1130 H   0  0  0  0  0  0  0  0  0  0  0  0  # atno 8009 bound_to 7997
  154.9787  140.3075  155.4959 H   0  0  0  0  0  0  0  0  0  0  0  0  # atno 8010 bound_to 7997
  139.7081  143.9154  152.2457 H   0  0  0  0  0  0  0  0  0  0  0  0  # atno 10167 bound_to 10162
  156.9240  130.5801  149.5648 H   0  0  0  0  0  0  0  0  0  0  0  0  # atno 10718 bound_to 10713
  154.6088  135.2862  155.0454 H   0  0  0  0  0  0  0  0  0  0  0  0  # atno 10763 bound_to 10752
  154.1692  135.6475  153.5009 H   0  0  0  0  0  0  0  0  0  0  0  0  # atno 10764 bound_to 10752
  153.0186  135.5397  154.6835 H   0  0  0  0  0  0  0  0  0  0  0  0  # atno 10765 bound_to 10752
  140.7784  134.3108  157.5053 H   0  0  0  0  0  0  0  0  0  0  0  0  # atno 11005 bound_to 11000
  144.6726  140.1155  143.7453 LP  0  0  0  0  0  0  0  0  0  0  0  0  # atno 17320 bound_to 7965
  145.9202  139.2541  143.1386 LP  0  0  0  0  0  0  0  0  0  0  0  0  # atno 17321 bound_to 7965
  139.9015  144.6909  150.8660 LP  0  0  0  0  0  0  0  0  0  0  0  0  # atno 17342 bound_to 10162
  140.7726  143.3510  151.2014 LP  0  0  0  0  0  0  0  0  0  0  0  0  # atno 17343 bound_to 10162
  156.0477  130.5551  150.8920 LP  0  0  0  0  0  0  0  0  0  0  0  0  # atno 17370 bound_to 10713
  157.5889  131.0945  150.9151 LP  0  0  0  0  0  0  0  0  0  0  0  0  # atno 17371 bound_to 10713
  139.8746  134.9303  156.3499 LP  0  0  0  0  0  0  0  0  0  0  0  0  # atno 17394 bound_to 11000
  140.9507  133.7453  156.0268 LP  0  0  0  0  0  0  0  0  0  0  0  0  # atno 17395 bound_to 11000

$$$$
