AV-unprocessed.smi:473|AV-procd|sdf|2664|dock8
  -GOLD-   2262023 83D 1   1.00000     0.00000
 Structure written by MMmdl.
 43 45  0  0  0  0  0  0  0  0  2 V2000
  151.8771  144.8587  160.5516 C   0  0  0  0  0  0  0  0  0  0  0  0
  151.7830  143.6482  159.6385 C   0  0  0  0  0  0  0  0  0  0  0  0
  151.1017  143.7828  158.4074 C   0  0  0  0  0  0  0  0  0  0  0  0
  151.0354  142.6587  157.5926 C   0  0  0  0  0  0  0  0  0  0  0  0
  150.4501  142.4700  156.3384 N   0  3  0  0  0  0  0  0  0  0  0  0
  150.6461  141.1842  155.9339 C   0  0  0  0  0  0  0  0  0  0  0  0
  151.3480  140.5496  156.9113 N   0  0  0  0  0  0  0  0  0  0  0  0
  151.8137  139.1578  156.9858 C   0  0  0  0  0  0  0  0  0  0  0  0
  150.6605  138.1415  157.1252 C   0  0  1  0  0  0  0  0  0  0  0  0
  151.1235  136.8054  157.1256 O   0  0  0  0  0  0  0  0  0  0  0  0
  149.7951  138.3678  158.3756 C   0  0  0  0  0  0  0  0  0  0  0  0
  149.1172  137.1669  158.7059 O   0  0  0  0  0  0  0  0  0  0  0  0
  147.7259  137.3470  158.9115 C   0  0  0  0  0  0  0  0  0  0  0  0
  147.3533  136.6231  160.1670 C   0  0  0  0  0  0  0  0  0  0  0  0
  147.3127  135.2965  160.4976 C   0  0  0  0  0  0  0  0  0  0  0  0
  146.8841  135.2303  161.8524 C   0  0  0  0  0  0  0  0  0  0  0  0
  146.6953  136.5225  162.2512 C   0  0  0  0  0  0  0  0  0  0  0  0
  146.9772  137.3842  161.2369 O   0  0  0  0  0  0  0  0  0  0  0  0
  151.6147  141.4307  157.9658 C   0  0  0  0  0  0  0  0  0  0  0  0
  152.2911  141.2816  159.1746 C   0  0  0  0  0  0  0  0  0  0  0  0
  152.3712  142.4134  160.0163 C   0  0  0  0  0  0  0  0  0  0  0  0
  153.1054  142.2800  161.3400 C   0  0  0  0  0  0  0  0  0  0  0  0
  151.3374  145.7121  160.1402 H   0  0  0  0  0  0  0  0  0  0  0  0
  152.9177  145.1544  160.6864 H   0  0  0  0  0  0  0  0  0  0  0  0
  151.4499  144.6363  161.5298 H   0  0  0  0  0  0  0  0  0  0  0  0
  150.6535  144.7201  158.1122 H   0  0  0  0  0  0  0  0  0  0  0  0
  150.3044  140.7468  155.0067 H   0  0  0  0  0  0  0  0  0  0  0  0
  152.4309  138.9493  156.1118 H   0  0  0  0  0  0  0  0  0  0  0  0
  152.4780  139.0829  157.8475 H   0  0  0  0  0  0  0  0  0  0  0  0
  150.0160  138.2325  156.2500 H   0  0  0  0  0  0  0  0  0  0  0  0
  151.4612  136.6059  157.9850 H   0  0  0  0  0  0  0  0  0  0  0  0
  150.4346  138.6554  159.2117 H   0  0  0  0  0  0  0  0  0  0  0  0
  149.0872  139.1827  158.2144 H   0  0  0  0  0  0  0  0  0  0  0  0
  147.4888  138.4076  159.0049 H   0  0  0  0  0  0  0  0  0  0  0  0
  147.1608  136.9478  158.0682 H   0  0  0  0  0  0  0  0  0  0  0  0
  147.5619  134.4740  159.8435 H   0  0  0  0  0  0  0  0  0  0  0  0
  146.7340  134.3492  162.4587 H   0  0  0  0  0  0  0  0  0  0  0  0
  146.3805  136.9848  163.1752 H   0  0  0  0  0  0  0  0  0  0  0  0
  152.7443  140.3436  159.4609 H   0  0  0  0  0  0  0  0  0  0  0  0
  153.5176  141.2785  161.4684 H   0  0  0  0  0  0  0  0  0  0  0  0
  152.4295  142.4709  162.1739 H   0  0  0  0  0  0  0  0  0  0  0  0
  153.9321  142.9886  161.3935 H   0  0  0  0  0  0  0  0  0  0  0  0
  149.9521  143.1651  155.7970 H   0  0  0  0  0  0  0  0  0  0  0  0
  1  2  1  0  0  0  0
  1 23  1  0  0  0  0
  1 24  1  0  0  0  0
  1 25  1  0  0  0  0
  2 21  1  0  0  0  0
  2  3  2  0  0  0  0
  3  4  1  0  0  0  0
  3 26  1  0  0  0  0
  4 19  2  0  0  0  0
  4  5  1  0  0  0  0
  5  6  2  0  0  0  0
  5 43  1  0  0  0  0
  6  7  1  0  0  0  0
  6 27  1  0  0  0  0
  7  8  1  0  0  0  0
  7 19  1  0  0  0  0
  8  9  1  0  0  0  0
  8 28  1  0  0  0  0
  8 29  1  0  0  0  0
  9 10  1  0  0  0  0
  9 11  1  0  0  0  0
  9 30  1  0  0  0  0
 10 31  1  0  0  0  0
 11 12  1  0  0  0  0
 11 32  1  0  0  0  0
 11 33  1  0  0  0  0
 12 13  1  0  0  0  0
 13 14  1  0  0  0  0
 13 34  1  0  0  0  0
 13 35  1  0  0  0  0
 14 18  1  0  0  0  0
 14 15  2  0  0  0  0
 15 16  1  0  0  0  0
 15 36  1  0  0  0  0
 16 17  2  0  0  0  0
 16 37  1  0  0  0  0
 17 18  1  0  0  0  0
 17 38  1  0  0  0  0
 19 20  1  0  0  0  0
 20 21  2  0  0  0  0
 20 39  1  0  0  0  0
 21 22  1  0  0  0  0
 22 40  1  0  0  0  0
 22 41  1  0  0  0  0
 22 42  1  0  0  0  0
M  CHG  1   5   1
M  END
> <s_m_source_file>
AV-unprocessed.smi

> <i_m_source_file_index>
473

> <i_lp_mmshare_version>
43012

> <i_f3d_flags>
0

> <s_epik_input>
W0NIM11jKFtjSF0xKWMoW0NIM10pW2NIXWMoYzEyKW4oW2NIXW4yKVtDSDJdW0NASF0oW09IXSlbQ0gyXU9bQ0gyXWMzW2NIXVtjSF1bY0hdbzM=

> <s_epik_cmdline>
J2VwaWtfcHl0aG9uJywgJy1waCcsICc3LjAnLCAnLXRuJywgJzgnLCAnLW1hJywgJzIwMCcsICctbWV0YWxfYmluZGluZycsICctaW1hZScsICc8aW5maWxlLm1hZT4nLCAnLW9tYWUnLCAnPG91dGZpbGUubWFlPic=

> <r_epik_Ionization_Penalty>
1.03981

> <r_epik_Ionization_Penalty_Charging>
1.03981

> <r_epik_Ionization_Penalty_Neutral>
9.34185e-07

> <r_epik_State_Penalty>
1.09172

> <r_epik_Charging_Adjusted_Penalty>
2.13153

> <i_epik_Tot_Q>
1

> <i_epik_Tot_abs_Q>
1

> <r_epik_Metal_State_Penalty>
5.0824

> <b_epik_Metal_Only>
0

> <s_lp_Force_Field>
OPLS_2005

> <r_lp_Energy>
14.3304

> <b_lp_Chiralities_Consistent>
1

> <s_lp_Variant>
AV-unprocessed.smi:473-4

> <Gold.Version>
5.8.1

> <Gold.Id.Protein>
6NUR|6NUR_protein|mol2

> <Gold.PLP.Fitness>
58.7608

> <Gold.PLP.PLP>
-49.4871

> <Gold.PLP.part.hbond>
-3.0000

> <Gold.PLP.part.metal>
0.0000

> <Gold.PLP.part.buried>
-7.0553

> <Gold.PLP.part.nonpolar>
-39.6027

> <Gold.PLP.part.repulsive>
0.0904

> <Gold.PLP.ligand.clash>
0.0000

> <Gold.PLP.ligand.torsion>
1.0774

> <Gold.PLP.Chemscore.Hbond>
3.7920

> <Gold.PLP.Chemscore.CHOScore>
0.0000

> <Gold.PLP.Chemscore.Metal>
0.0000

> <Gold.Chemscore.Hbonds>
donor molecule, donor type, donor heavy atom, donor atom, acceptor molecule, acceptor atom, score
      L1  H     5    43       P1  8028  2.00
      P1  H  6931  6943       L1    18  0.19
      P1  H  6934  6947       L1    18  1.00

> <Gold.PLP.Chemscore.Internal.Correction>
0.0525

> <Gold.Rescore>
     Score         DG    S(hbond)    S(metal)    S(lipo)     H(rot)  DE(clash)    DE(int)     intcor
     20.02     -21.22       2.40        0.00     120.44       2.49       0.02       1.18       ----

> <Gold.Chemscore.Fitness>
20.0189

> <Gold.Chemscore.DG>
-21.2226

> <Gold.Chemscore.ZeroCoef>
-5.4800

> <Gold.Chemscore.Hbond>
2.4040

> <Gold.Chemscore.Metal>
0.0000

> <Gold.Chemscore.Lipo>
120.4378

> <Gold.Chemscore.Internal_Hbond>
0.0000

> <Gold.Chemscore.DEClash>
0.0237

> <Gold.Chemscore.DEInternal>
1.1800

> <Gold.Chemscore.Rot>
2.4913

> <Gold.Chemscore.Internal.Correction>
   9.000000E+99

> <Gold.Chemscore.Hbonds>
donor molecule, donor type, donor heavy atom, donor atom, acceptor molecule, acceptor atom, score
      L1  H     5    43       P1  8028  0.96
      P1  H  6931  6943       L1    18  0.02
      P1  H  6934  6947       L1    18  0.81

> <Gold.Chemscore.Hbond.Weighted>
-8.0292

> <Gold.Chemscore.Metal.Weighted>
-0.0000

> <Gold.Chemscore.Lipo.Weighted>
-14.0912

> <Gold.Chemscore.Internal_Hbond.Weighted>
0.0000

> <Gold.Chemscore.DEClash.Weighted>
0.0237

> <Gold.Chemscore.DEInternal.Weighted>
1.1800

> <Gold.Chemscore.Rot.Weighted>
6.3778

> <Gold.Chemscore.Internal.Correction.Weighted>
   9.000000E+99

> <Gold.Protein.RotatedTorsions>
[ 6907 6896 6895 6894 ] final  -30.23 input  -60.11 | X-H torsion
[ 7974 7965 7964 7962 ] final  142.08 input  175.53 | X-H torsion
[ 8008 7997 7996 7995 ] final -178.63 input   59.86 | X-H torsion
[ 10167 10162 10161 10158 ] final  127.47 input  -65.29 | X-H torsion
[ 10718 10713 10712 10709 ] final -135.69 input   66.30 | X-H torsion
[ 10763 10752 10751 10750 ] final -168.02 input  -60.55 | X-H torsion
[ 11005 11000 10999 10996 ] final -129.18 input  -57.11 | X-H torsion

> <Gold.Protein.ActiveResidues>
 VAL166  LYS551  ARG553  GLY616  TRP617  ASP618  TYR619  PRO620  LYS621  CYS622 
 ASP623  PHE694  ASN695  SER759  ASP760  ASP761  ALA762  ILE779  LEU786  VAL792 
 PHE793  MET794  SER795  GLU796  ALA797  LYS798  CYS799  TRP800  GLU811  SER814 

> <Gold.Protein.RotatedAtoms>
  151.1083  135.0012  159.8481 H   0  0  0  0  0  0  0  0  0  0  0  0  # atno 6907 bound_to 6896
  152.5441  134.1866  159.8667 H   0  0  0  0  0  0  0  0  0  0  0  0  # atno 6908 bound_to 6896
  151.1915  133.4620  159.2628 H   0  0  0  0  0  0  0  0  0  0  0  0  # atno 6909 bound_to 6896
  144.9039  139.5384  143.5740 H   0  0  0  0  0  0  0  0  0  0  0  0  # atno 7974 bound_to 7965
  156.0211  140.1261  157.0356 H   0  0  0  0  0  0  0  0  0  0  0  0  # atno 8008 bound_to 7997
  154.4312  140.1068  156.6035 H   0  0  0  0  0  0  0  0  0  0  0  0  # atno 8009 bound_to 7997
  155.5943  140.3470  155.4577 H   0  0  0  0  0  0  0  0  0  0  0  0  # atno 8010 bound_to 7997
  139.5576  144.6860  151.4135 H   0  0  0  0  0  0  0  0  0  0  0  0  # atno 10167 bound_to 10162
  156.2689  130.7253  151.1214 H   0  0  0  0  0  0  0  0  0  0  0  0  # atno 10718 bound_to 10713
  154.6672  135.2934  154.9790 H   0  0  0  0  0  0  0  0  0  0  0  0  # atno 10763 bound_to 10752
  154.0829  135.6602  153.4844 H   0  0  0  0  0  0  0  0  0  0  0  0  # atno 10764 bound_to 10752
  153.0464  135.5201  154.7651 H   0  0  0  0  0  0  0  0  0  0  0  0  # atno 10765 bound_to 10752
  140.9453  134.1138  157.4113 H   0  0  0  0  0  0  0  0  0  0  0  0  # atno 11005 bound_to 11000
  146.3123  139.7792  142.9010 LP  0  0  0  0  0  0  0  0  0  0  0  0  # atno 17320 bound_to 7965
  145.3568  141.0318  143.3307 LP  0  0  0  0  0  0  0  0  0  0  0  0  # atno 17321 bound_to 7965
  140.6852  143.7991  150.7176 LP  0  0  0  0  0  0  0  0  0  0  0  0  # atno 17342 bound_to 10162
  140.1456  143.4402  152.2165 LP  0  0  0  0  0  0  0  0  0  0  0  0  # atno 17343 bound_to 10162
  157.7277  131.0637  150.5854 LP  0  0  0  0  0  0  0  0  0  0  0  0  # atno 17370 bound_to 10713
  156.5949  130.4339  149.5921 LP  0  0  0  0  0  0  0  0  0  0  0  0  # atno 17371 bound_to 10713
  139.8831  135.0049  156.6281 LP  0  0  0  0  0  0  0  0  0  0  0  0  # atno 17394 bound_to 11000
  140.7678  133.8764  155.8468 LP  0  0  0  0  0  0  0  0  0  0  0  0  # atno 17395 bound_to 11000

$$$$
