AV-unprocessed.smi:2912|AV-procd|sdf|11181|dock2
  -GOLD-   2272016 73D 1   1.00000     0.00000
 Structure written by MMmdl.
 31 32  0  0  0  0  0  0  0  0  1 V2000
  146.7462  142.0831  154.2704 C   0  0  0  0  0  0  0  0  0  0  0  0
  147.7270  141.1394  154.7612 N   0  0  0  0  0  0  0  0  0  0  0  0
  148.9071  140.7406  154.1728 C   0  0  0  0  0  0  0  0  0  0  0  0
  149.5045  139.8458  155.0156 C   0  0  0  0  0  0  0  0  0  0  0  0
  150.8298  139.1457  154.8580 C   0  0  0  0  0  0  0  0  0  0  0  0
  151.5733  138.9532  156.1950 C   0  0  0  0  0  0  0  0  0  0  0  0
  151.4025  140.1013  157.0829 N   0  0  0  0  0  0  0  0  0  0  0  0
  152.1473  140.3645  158.1702 C   0  0  0  0  0  0  0  0  0  0  0  0
  153.1529  139.7152  158.4619 O   0  0  0  0  0  0  0  0  0  0  0  0
  151.6672  141.5178  159.0667 C   0  0  0  0  0  0  0  0  0  0  0  0
  150.3189  142.4688  158.3224 S   0  0  0  0  0  0  0  0  0  0  0  0
  151.4724  143.6054  157.5172 C   0  0  0  0  0  0  0  0  0  0  0  0
  152.5305  144.0290  158.5441 C   0  0  0  0  0  0  0  0  0  0  0  0
  153.0425  142.6014  159.5480 S   0  0  0  0  0  0  0  0  0  0  0  0
  148.5885  139.7551  156.1025 C   0  0  0  0  0  0  0  0  0  0  0  0
  147.5286  140.5320  155.9487 N   0  0  0  0  0  0  0  0  0  0  0  0
  147.0303  142.4358  153.2787 H   0  0  0  0  0  0  0  0  0  0  0  0
  146.6855  142.9363  154.9465 H   0  0  0  0  0  0  0  0  0  0  0  0
  145.7690  141.6032  154.2099 H   0  0  0  0  0  0  0  0  0  0  0  0
  149.2295  141.1333  153.2196 H   0  0  0  0  0  0  0  0  0  0  0  0
  150.6930  138.1717  154.3873 H   0  0  0  0  0  0  0  0  0  0  0  0
  151.4728  139.7075  154.1797 H   0  0  0  0  0  0  0  0  0  0  0  0
  151.2324  138.0365  156.6789 H   0  0  0  0  0  0  0  0  0  0  0  0
  152.6384  138.8162  156.0073 H   0  0  0  0  0  0  0  0  0  0  0  0
  150.6009  140.6911  156.9110 H   0  0  0  0  0  0  0  0  0  0  0  0
  151.2739  141.0608  159.9749 H   0  0  0  0  0  0  0  0  0  0  0  0
  151.9466  143.0846  156.6847 H   0  0  0  0  0  0  0  0  0  0  0  0
  150.9421  144.4646  157.1070 H   0  0  0  0  0  0  0  0  0  0  0  0
  153.3964  144.4847  158.0642 H   0  0  0  0  0  0  0  0  0  0  0  0
  152.1052  144.7734  159.2175 H   0  0  0  0  0  0  0  0  0  0  0  0
  148.6706  139.1617  157.0012 H   0  0  0  0  0  0  0  0  0  0  0  0
  1  2  1  0  0  0  0
  1 17  1  0  0  0  0
  1 18  1  0  0  0  0
  1 19  1  0  0  0  0
  2 16  1  0  0  0  0
  2  3  1  0  0  0  0
  3  4  2  0  0  0  0
  3 20  1  0  0  0  0
  4  5  1  0  0  0  0
  4 15  1  0  0  0  0
  5  6  1  0  0  0  0
  5 21  1  0  0  0  0
  5 22  1  0  0  0  0
  6  7  1  0  0  0  0
  6 23  1  0  0  0  0
  6 24  1  0  0  0  0
  7  8  1  0  0  0  0
  7 25  1  0  0  0  0
  8  9  2  0  0  0  0
  8 10  1  0  0  0  0
 10 14  1  0  0  0  0
 10 11  1  0  0  0  0
 10 26  1  0  0  0  0
 11 12  1  0  0  0  0
 12 13  1  0  0  0  0
 12 27  1  0  0  0  0
 12 28  1  0  0  0  0
 13 14  1  0  0  0  0
 13 29  1  0  0  0  0
 13 30  1  0  0  0  0
 15 16  2  0  0  0  0
 15 31  1  0  0  0  0
M  END
> <s_m_source_file>
AV-unprocessed.smi

> <i_m_source_file_index>
2912

> <i_lp_mmshare_version>
43012

> <i_f3d_flags>
0

> <s_epik_input>
W0NIM11uMVtjSF1jKFtjSF1uMSlbQ0gyXVtDSDJdW05IXUMoPU8pW0NIXTJTW0NIMl1bQ0gyXVMy

> <s_epik_cmdline>
J2VwaWtfcHl0aG9uJywgJy1waCcsICc3LjAnLCAnLXRuJywgJzgnLCAnLW1hJywgJzIwMCcsICctbWV0YWxfYmluZGluZycsICctaW1hZScsICc8aW5maWxlLm1hZT4nLCAnLW9tYWUnLCAnPG91dGZpbGUubWFlPic=

> <r_lp_tautomer_probability>
1

> <r_epik_Ionization_Penalty>
0.000416309

> <r_epik_Ionization_Penalty_Charging>
0

> <r_epik_Ionization_Penalty_Neutral>
0.000416309

> <r_epik_State_Penalty>
-0

> <r_epik_Charging_Adjusted_Penalty>
0

> <i_epik_Tot_Q>
0

> <i_epik_Tot_abs_Q>
0

> <r_epik_Metal_State_Penalty>
-0

> <b_epik_Metal_Only>
0

> <s_epik_Chemistry_Notes>
This compound contains an acetal/aminal-like group ( X-CH(R)-Y where X, Y are N, S, or O) that may be acid/base labile, releasing an aldehyde.

> <s_lp_Force_Field>
OPLS_2005

> <r_lp_Energy>
6.65343

> <b_lp_Chiralities_Consistent>
1

> <s_lp_Variant>
AV-unprocessed.smi:2912-1

> <Gold.Version>
5.8.1

> <Gold.Id.Protein>
6NUR|6NUR_protein|mol2

> <Gold.PLP.Fitness>
38.5161

> <Gold.PLP.PLP>
-34.5686

> <Gold.PLP.part.hbond>
-1.0000

> <Gold.PLP.part.metal>
0.0000

> <Gold.PLP.part.buried>
-0.3796

> <Gold.PLP.part.nonpolar>
-32.8805

> <Gold.PLP.part.repulsive>
0.1415

> <Gold.PLP.ligand.clash>
0.0028

> <Gold.PLP.ligand.torsion>
0.8112

> <Gold.PLP.Chemscore.Hbond>
1.0000

> <Gold.PLP.Chemscore.CHOScore>
0.8430

> <Gold.PLP.Chemscore.Metal>
0.0000

> <Gold.Chemscore.Hbonds>
donor molecule, donor type, donor heavy atom, donor atom, acceptor molecule, acceptor atom, score
      P1  H  7997  8009       L1     9  0.93
      L1  C     3    20       P1  7957  1.00

> <Gold.PLP.Chemscore.Internal.Correction>
0.0436

> <Gold.Rescore>
     Score         DG    S(hbond)    S(metal)    S(lipo)     H(rot)  DE(clash)    DE(int)     intcor
     14.47     -14.84       0.90        0.00      88.11       1.54       0.01       0.36       ----

> <Gold.Chemscore.Fitness>
14.4723

> <Gold.Chemscore.DG>
-14.8378

> <Gold.Chemscore.ZeroCoef>
-5.4800

> <Gold.Chemscore.Hbond>
0.8982

> <Gold.Chemscore.Metal>
0.0000

> <Gold.Chemscore.Lipo>
88.1107

> <Gold.Chemscore.Internal_Hbond>
0.0000

> <Gold.Chemscore.DEClash>
0.0059

> <Gold.Chemscore.DEInternal>
0.3595

> <Gold.Chemscore.Rot>
1.5434

> <Gold.Chemscore.Internal.Correction>
   9.000000E+99

> <Gold.Chemscore.Hbonds>
donor molecule, donor type, donor heavy atom, donor atom, acceptor molecule, acceptor atom, score
      P1  H  7997  8009       L1     9  0.72

> <Gold.Chemscore.Hbond.Weighted>
-2.9999

> <Gold.Chemscore.Metal.Weighted>
-0.0000

> <Gold.Chemscore.Lipo.Weighted>
-10.3089

> <Gold.Chemscore.Internal_Hbond.Weighted>
0.0000

> <Gold.Chemscore.DEClash.Weighted>
0.0059

> <Gold.Chemscore.DEInternal.Weighted>
0.3595

> <Gold.Chemscore.Rot.Weighted>
3.9511

> <Gold.Chemscore.Internal.Correction.Weighted>
   9.000000E+99

> <Gold.Protein.RotatedTorsions>
[ 6907 6896 6895 6894 ] final   43.95 input  -60.11 | X-H torsion
[ 7974 7965 7964 7962 ] final   87.64 input  175.53 | X-H torsion
[ 8008 7997 7996 7995 ] final  147.03 input   59.86 | X-H torsion
[ 10167 10162 10161 10158 ] final  -90.81 input  -65.29 | X-H torsion
[ 10718 10713 10712 10709 ] final -177.85 input   66.30 | X-H torsion
[ 10763 10752 10751 10750 ] final  -18.87 input  -60.55 | X-H torsion
[ 11005 11000 10999 10996 ] final -147.67 input  -57.11 | X-H torsion

> <Gold.Protein.ActiveResidues>
 VAL166  LYS551  ARG553  GLY616  TRP617  ASP618  TYR619  PRO620  LYS621  CYS622 
 ASP623  PHE694  ASN695  SER759  ASP760  ASP761  ALA762  ILE779  LEU786  VAL792 
 PHE793  MET794  SER795  GLU796  ALA797  LYS798  CYS799  TRP800  GLU811  SER814 

> <Gold.Protein.RotatedAtoms>
  152.2266  134.8362  160.0478 H   0  0  0  0  0  0  0  0  0  0  0  0  # atno 6907 bound_to 6896
  151.9126  133.3560  159.3877 H   0  0  0  0  0  0  0  0  0  0  0  0  # atno 6908 bound_to 6896
  150.7014  134.4642  159.5439 H   0  0  0  0  0  0  0  0  0  0  0  0  # atno 6909 bound_to 6896
  145.5563  139.2300  143.2484 H   0  0  0  0  0  0  0  0  0  0  0  0  # atno 7974 bound_to 7965
  156.2837  140.2166  156.5473 H   0  0  0  0  0  0  0  0  0  0  0  0  # atno 8008 bound_to 7997
  154.7320  140.0494  157.0757 H   0  0  0  0  0  0  0  0  0  0  0  0  # atno 8009 bound_to 7997
  155.0341  140.3138  155.4751 H   0  0  0  0  0  0  0  0  0  0  0  0  # atno 8010 bound_to 7997
  140.3512  143.2890  151.9724 H   0  0  0  0  0  0  0  0  0  0  0  0  # atno 10167 bound_to 10162
  156.8356  130.9668  151.3103 H   0  0  0  0  0  0  0  0  0  0  0  0  # atno 10718 bound_to 10713
  153.5960  135.7001  153.5404 H   0  0  0  0  0  0  0  0  0  0  0  0  # atno 10763 bound_to 10752
  153.3138  135.4093  155.1358 H   0  0  0  0  0  0  0  0  0  0  0  0  # atno 10764 bound_to 10752
  154.8591  135.3678  154.5493 H   0  0  0  0  0  0  0  0  0  0  0  0  # atno 10765 bound_to 10752
  140.7692  134.3208  157.5080 H   0  0  0  0  0  0  0  0  0  0  0  0  # atno 11005 bound_to 11000
  146.1882  140.6387  142.9158 LP  0  0  0  0  0  0  0  0  0  0  0  0  # atno 17320 bound_to 7965
  144.7505  140.5178  143.6805 LP  0  0  0  0  0  0  0  0  0  0  0  0  # atno 17321 bound_to 7965
  139.4826  144.6074  151.7496 LP  0  0  0  0  0  0  0  0  0  0  0  0  # atno 17342 bound_to 10162
  140.5217  144.0868  150.6025 LP  0  0  0  0  0  0  0  0  0  0  0  0  # atno 17343 bound_to 10162
  157.6383  130.8785  149.9401 LP  0  0  0  0  0  0  0  0  0  0  0  0  # atno 17370 bound_to 10713
  156.0909  130.3663  150.0396 LP  0  0  0  0  0  0  0  0  0  0  0  0  # atno 17371 bound_to 10713
  139.8758  134.9250  156.3365 LP  0  0  0  0  0  0  0  0  0  0  0  0  # atno 17394 bound_to 11000
  140.9590  133.7401  156.0375 LP  0  0  0  0  0  0  0  0  0  0  0  0  # atno 17395 bound_to 11000

$$$$
