AV-unprocessed.smi:3335|AV-procd|sdf|12849|dock8
  -GOLD-   2272019243D 1   1.00000     0.00000
 Structure written by MMmdl.
 46 47  0  0  0  0  0  0  0  0  1 V2000
  151.9676  144.1488  158.3880 C   0  0  0  0  0  0  0  0  0  0  0  0
  151.4673  142.7925  157.9821 C   0  0  0  0  0  0  0  0  0  0  0  0
  151.6357  141.5586  158.6717 C   0  0  0  0  0  0  0  0  0  0  0  0
  151.0710  140.5389  158.0467 N   0  0  0  0  0  0  0  0  0  0  0  0
  150.5234  141.0818  156.9360 N   0  0  0  0  0  0  0  0  0  0  0  0
  149.8077  140.2431  155.9822 C   0  0  2  0  0  0  0  0  0  0  0  0
  149.3368  141.0919  154.7853 C   0  0  0  0  0  0  0  0  0  0  0  0
  148.6516  139.4538  156.6559 C   0  0  2  0  0  0  0  0  0  0  0  0
  147.6383  140.3552  157.3870 C   0  0  0  0  0  0  0  0  0  0  0  0
  149.2110  138.5397  157.6524 N   0  0  0  0  0  0  0  0  0  0  0  0
  148.3305  137.4149  158.0196 C   0  0  1  0  0  0  0  0  0  0  0  0
  148.2315  136.4323  156.8432 C   0  0  0  0  0  0  0  0  0  0  0  0
  148.8006  136.6690  159.2889 C   0  0  0  0  0  0  0  0  0  0  0  0
  149.9630  136.2632  159.3400 O   0  0  0  0  0  0  0  0  0  0  0  0
  147.9362  136.4787  160.3094 N   0  0  0  0  0  0  0  0  0  0  0  0
  146.5439  136.9237  160.2695 C   0  0  0  0  0  0  0  0  0  0  0  0
  145.8737  136.3087  161.4981 C   0  0  0  0  0  0  0  0  0  0  0  0
  147.0176  136.1058  162.4806 C   0  0  0  0  0  0  0  0  0  0  0  0
  148.2305  135.8362  161.5903 C   0  0  0  0  0  0  0  0  0  0  0  0
  150.7472  142.4416  156.8755 C   0  0  0  0  0  0  0  0  0  0  0  0
  151.5503  144.4602  159.3458 H   0  0  0  0  0  0  0  0  0  0  0  0
  151.7035  144.9150  157.6587 H   0  0  0  0  0  0  0  0  0  0  0  0
  153.0529  144.1627  158.4896 H   0  0  0  0  0  0  0  0  0  0  0  0
  152.1494  141.3751  159.6039 H   0  0  0  0  0  0  0  0  0  0  0  0
  150.5338  139.5209  155.6048 H   0  0  0  0  0  0  0  0  0  0  0  0
  148.9456  140.4662  153.9833 H   0  0  0  0  0  0  0  0  0  0  0  0
  150.1608  141.6706  154.3670 H   0  0  0  0  0  0  0  0  0  0  0  0
  148.5517  141.7917  155.0743 H   0  0  0  0  0  0  0  0  0  0  0  0
  148.1093  138.9096  155.8809 H   0  0  0  0  0  0  0  0  0  0  0  0
  147.1136  141.0141  156.6952 H   0  0  0  0  0  0  0  0  0  0  0  0
  148.1279  140.9806  158.1345 H   0  0  0  0  0  0  0  0  0  0  0  0
  146.8769  139.7634  157.8957 H   0  0  0  0  0  0  0  0  0  0  0  0
  149.5047  139.0585  158.4679 H   0  0  0  0  0  0  0  0  0  0  0  0
  147.3375  137.8320  158.1776 H   0  0  0  0  0  0  0  0  0  0  0  0
  147.5551  135.6076  157.0712 H   0  0  0  0  0  0  0  0  0  0  0  0
  149.2041  136.0058  156.5931 H   0  0  0  0  0  0  0  0  0  0  0  0
  147.8489  136.9294  155.9512 H   0  0  0  0  0  0  0  0  0  0  0  0
  146.5176  138.0130  160.3240 H   0  0  0  0  0  0  0  0  0  0  0  0
  146.0413  136.6178  159.3505 H   0  0  0  0  0  0  0  0  0  0  0  0
  145.0743  136.9316  161.9005 H   0  0  0  0  0  0  0  0  0  0  0  0
  145.4440  135.3414  161.2347 H   0  0  0  0  0  0  0  0  0  0  0  0
  147.1773  137.0234  163.0483 H   0  0  0  0  0  0  0  0  0  0  0  0
  146.8278  135.3013  163.1919 H   0  0  0  0  0  0  0  0  0  0  0  0
  148.3532  134.7638  161.4306 H   0  0  0  0  0  0  0  0  0  0  0  0
  149.1423  136.2229  162.0475 H   0  0  0  0  0  0  0  0  0  0  0  0
  150.3806  143.0419  156.0557 H   0  0  0  0  0  0  0  0  0  0  0  0
  1  2  1  0  0  0  0
  1 21  1  0  0  0  0
  1 22  1  0  0  0  0
  1 23  1  0  0  0  0
  2 20  2  0  0  0  0
  2  3  1  0  0  0  0
  3  4  2  0  0  0  0
  3 24  1  0  0  0  0
  4  5  1  0  0  0  0
  5  6  1  0  0  0  0
  5 20  1  0  0  0  0
  6  7  1  0  0  0  0
  6  8  1  0  0  0  0
  6 25  1  0  0  0  0
  7 26  1  0  0  0  0
  7 27  1  0  0  0  0
  7 28  1  0  0  0  0
  8  9  1  0  0  0  0
  8 10  1  0  0  0  0
  8 29  1  0  0  0  0
  9 30  1  0  0  0  0
  9 31  1  0  0  0  0
  9 32  1  0  0  0  0
 10 11  1  0  0  0  0
 10 33  1  0  0  0  0
 11 12  1  0  0  0  0
 11 13  1  0  0  0  0
 11 34  1  0  0  0  0
 12 35  1  0  0  0  0
 12 36  1  0  0  0  0
 12 37  1  0  0  0  0
 13 14  2  0  0  0  0
 13 15  1  0  0  0  0
 15 19  1  0  0  0  0
 15 16  1  0  0  0  0
 16 17  1  0  0  0  0
 16 38  1  0  0  0  0
 16 39  1  0  0  0  0
 17 18  1  0  0  0  0
 17 40  1  0  0  0  0
 17 41  1  0  0  0  0
 18 19  1  0  0  0  0
 18 42  1  0  0  0  0
 18 43  1  0  0  0  0
 19 44  1  0  0  0  0
 19 45  1  0  0  0  0
 20 46  1  0  0  0  0
M  END
> <s_m_source_file>
AV-unprocessed.smi

> <i_m_source_file_index>
3335

> <i_lp_mmshare_version>
43012

> <i_f3d_flags>
0

> <s_epik_input>
W0NIM11jMVtjSF1ubihbY0hdMSlbQ0BIXShbQ0gzXSlbQ0BIXShbQ0gzXSlbTkhdW0NASF0oW0NIM10pQyg9TylOMltDSDJdW0NIMl1bQ0gyXVtDSDJdMg==

> <s_epik_cmdline>
J2VwaWtfcHl0aG9uJywgJy1waCcsICc3LjAnLCAnLXRuJywgJzgnLCAnLW1hJywgJzIwMCcsICctbWV0YWxfYmluZGluZycsICctaW1hZScsICc8aW5maWxlLm1hZT4nLCAnLW9tYWUnLCAnPG91dGZpbGUubWFlPic=

> <r_lp_tautomer_probability>
1

> <r_epik_Ionization_Penalty>
0.918803

> <r_epik_Ionization_Penalty_Charging>
0

> <r_epik_Ionization_Penalty_Neutral>
0.918803

> <r_epik_State_Penalty>
0.958258

> <r_epik_Charging_Adjusted_Penalty>
0.958258

> <i_epik_Tot_Q>
0

> <i_epik_Tot_abs_Q>
0

> <r_epik_Metal_State_Penalty>
0.956786

> <b_epik_Metal_Only>
0

> <s_lp_Force_Field>
OPLS_2005

> <r_lp_Energy>
37.1763

> <b_lp_Chiralities_Consistent>
1

> <s_lp_Variant>
AV-unprocessed.smi:3335-13

> <Gold.Version>
5.8.1

> <Gold.Id.Protein>
6NUR|6NUR_protein|mol2

> <Gold.PLP.Fitness>
37.0319

> <Gold.PLP.PLP>
-31.8611

> <Gold.PLP.part.hbond>
-1.0000

> <Gold.PLP.part.metal>
0.0000

> <Gold.PLP.part.buried>
-3.4988

> <Gold.PLP.part.nonpolar>
-27.4713

> <Gold.PLP.part.repulsive>
0.0000

> <Gold.PLP.ligand.clash>
0.0000

> <Gold.PLP.ligand.torsion>
0.4524

> <Gold.PLP.Chemscore.Hbond>
1.0000

> <Gold.PLP.Chemscore.CHOScore>
1.0000

> <Gold.PLP.Chemscore.Metal>
0.0000

> <Gold.Chemscore.Hbonds>
donor molecule, donor type, donor heavy atom, donor atom, acceptor molecule, acceptor atom, score
      P1  H  6896  6909       L1    14  1.00
      L1  C    20    46       P1  8028  1.00

> <Gold.PLP.Chemscore.Internal.Correction>
0.0756

> <Gold.Rescore>
     Score         DG    S(hbond)    S(metal)    S(lipo)     H(rot)  DE(clash)    DE(int)     intcor
     13.77     -14.28       1.00        0.00      82.15       1.62       0.00       0.51       ----

> <Gold.Chemscore.Fitness>
13.7705

> <Gold.Chemscore.DG>
-14.2831

> <Gold.Chemscore.ZeroCoef>
-5.4800

> <Gold.Chemscore.Hbond>
1.0000

> <Gold.Chemscore.Metal>
0.0000

> <Gold.Chemscore.Lipo>
82.1478

> <Gold.Chemscore.Internal_Hbond>
0.0000

> <Gold.Chemscore.DEClash>
0.0000

> <Gold.Chemscore.DEInternal>
0.5126

> <Gold.Chemscore.Rot>
1.6204

> <Gold.Chemscore.Internal.Correction>
   9.000000E+99

> <Gold.Chemscore.Hbonds>
donor molecule, donor type, donor heavy atom, donor atom, acceptor molecule, acceptor atom, score
      P1  H  6896  6909       L1    14  1.00

> <Gold.Chemscore.Hbond.Weighted>
-3.3400

> <Gold.Chemscore.Metal.Weighted>
-0.0000

> <Gold.Chemscore.Lipo.Weighted>
-9.6113

> <Gold.Chemscore.Internal_Hbond.Weighted>
0.0000

> <Gold.Chemscore.DEClash.Weighted>
0.0000

> <Gold.Chemscore.DEInternal.Weighted>
0.5126

> <Gold.Chemscore.Rot.Weighted>
4.1482

> <Gold.Chemscore.Internal.Correction.Weighted>
   9.000000E+99

> <Gold.Protein.RotatedTorsions>
[ 6907 6896 6895 6894 ] final   76.58 input  -60.11 | X-H torsion
[ 7974 7965 7964 7962 ] final  143.02 input  175.53 | X-H torsion
[ 8008 7997 7996 7995 ] final   78.86 input   59.86 | X-H torsion
[ 10167 10162 10161 10158 ] final   72.94 input  -65.29 | X-H torsion
[ 10718 10713 10712 10709 ] final -157.43 input   66.30 | X-H torsion
[ 10763 10752 10751 10750 ] final  169.55 input  -60.55 | X-H torsion
[ 11005 11000 10999 10996 ] final  164.75 input  -57.11 | X-H torsion

> <Gold.Protein.ActiveResidues>
 VAL166  LYS551  ARG553  GLY616  TRP617  ASP618  TYR619  PRO620  LYS621  CYS622 
 ASP623  PHE694  ASN695  SER759  ASP760  ASP761  ALA762  ILE779  LEU786  VAL792 
 PHE793  MET794  SER795  GLU796  ALA797  LYS798  CYS799  TRP800  GLU811  SER814 

> <Gold.Protein.RotatedAtoms>
  152.5079  134.3947  159.9395 H   0  0  0  0  0  0  0  0  0  0  0  0  # atno 6907 bound_to 6896
  151.3909  133.3783  159.2728 H   0  0  0  0  0  0  0  0  0  0  0  0  # atno 6908 bound_to 6896
  150.9433  134.8861  159.7685 H   0  0  0  0  0  0  0  0  0  0  0  0  # atno 6909 bound_to 6896
  144.8957  139.5494  143.5777 H   0  0  0  0  0  0  0  0  0  0  0  0  # atno 7974 bound_to 7965
  155.8617  140.3453  155.5761 H   0  0  0  0  0  0  0  0  0  0  0  0  # atno 8008 bound_to 7997
  155.7926  140.0874  157.2020 H   0  0  0  0  0  0  0  0  0  0  0  0  # atno 8009 bound_to 7997
  154.4012  140.1480  156.3168 H   0  0  0  0  0  0  0  0  0  0  0  0  # atno 8010 bound_to 7997
  140.0299  144.5474  150.7515 H   0  0  0  0  0  0  0  0  0  0  0  0  # atno 10167 bound_to 10162
  156.5402  130.8560  151.2746 H   0  0  0  0  0  0  0  0  0  0  0  0  # atno 10718 bound_to 10713
  154.3848  135.2753  155.2190 H   0  0  0  0  0  0  0  0  0  0  0  0  # atno 10763 bound_to 10752
  154.4281  135.5984  153.6055 H   0  0  0  0  0  0  0  0  0  0  0  0  # atno 10764 bound_to 10752
  152.9833  135.5989  154.4095 H   0  0  0  0  0  0  0  0  0  0  0  0  # atno 10765 bound_to 10752
  140.2491  134.7991  157.3484 H   0  0  0  0  0  0  0  0  0  0  0  0  # atno 11005 bound_to 11000
  146.3080  139.7646  142.9042 LP  0  0  0  0  0  0  0  0  0  0  0  0  # atno 17320 bound_to 7965
  145.3704  141.0342  143.3234 LP  0  0  0  0  0  0  0  0  0  0  0  0  # atno 17321 bound_to 7965
  140.7306  143.2685  151.3964 LP  0  0  0  0  0  0  0  0  0  0  0  0  # atno 17342 bound_to 10162
  139.6083  144.1151  152.2272 LP  0  0  0  0  0  0  0  0  0  0  0  0  # atno 17343 bound_to 10162
  157.7406  130.9854  150.2392 LP  0  0  0  0  0  0  0  0  0  0  0  0  # atno 17370 bound_to 10713
  156.2979  130.3754  149.7779 LP  0  0  0  0  0  0  0  0  0  0  0  0  # atno 17371 bound_to 10713
  140.1576  134.4769  155.7917 LP  0  0  0  0  0  0  0  0  0  0  0  0  # atno 17394 bound_to 11000
  141.2203  133.6888  156.7489 LP  0  0  0  0  0  0  0  0  0  0  0  0  # atno 17395 bound_to 11000

$$$$
