AV-unprocessed.smi:131|AV-procd|sdf|1161|dock8
  -GOLD-   2262018303D 1   1.00000     0.00000
 Structure written by MMmdl.
 55 58  0  0  0  0  0  0  0  0  1 V2000
  148.2222  139.3799  154.2304 O   0  0  0  0  0  0  0  0  0  0  0  0
  147.9151  140.2958  154.9940 C   0  0  0  0  0  0  0  0  0  0  0  0
  148.9539  141.3624  155.3761 C   0  0  0  0  0  0  0  0  0  0  0  0
  150.1259  140.8038  156.0850 N   0  0  0  0  0  0  0  0  0  0  0  0
  150.9720  139.9068  155.3869 C   0  0  0  0  0  0  0  0  0  0  0  0
  150.7382  139.5855  154.2208 O   0  0  0  0  0  0  0  0  0  0  0  0
  152.1186  139.4084  156.1379 C   0  0  0  0  0  0  0  0  0  0  0  0
  152.9650  138.5390  155.5605 F   0  0  0  0  0  0  0  0  0  0  0  0
  152.3448  139.8060  157.4069 C   0  0  0  0  0  0  0  0  0  0  0  0
  151.5217  140.6994  158.0696 N   0  0  0  0  0  0  0  0  0  0  0  0
  151.7965  141.1469  159.4902 C   0  0  2  0  0  0  0  0  0  0  0  0
  152.0323  142.6691  159.5439 C   0  0  0  0  0  0  0  0  0  0  0  0
  153.3493  142.7798  160.2862 C   0  0  0  0  0  0  0  0  0  0  0  0
  154.0323  141.4732  159.9123 C   0  0  0  0  0  0  0  0  0  0  0  0
  152.9636  140.5372  159.9641 O   0  0  0  0  0  0  0  0  0  0  0  0
  150.3791  141.2109  157.4166 C   0  0  0  0  0  0  0  0  0  0  0  0
  149.6283  142.0009  157.9934 O   0  0  0  0  0  0  0  0  0  0  0  0
  146.6881  140.4791  155.5158 N   0  0  0  0  0  0  0  0  0  0  0  0
  145.5206  139.6782  155.3784 C   0  0  0  0  0  0  0  0  0  0  0  0
  144.3285  140.1888  155.9361 C   0  0  0  0  0  0  0  0  0  0  0  0
  143.1290  139.4546  155.8632 C   0  0  0  0  0  0  0  0  0  0  0  0
  143.1222  138.1972  155.2300 C   0  0  0  0  0  0  0  0  0  0  0  0
  141.6127  137.2416  155.1526 S   0  0  0  0  0  0  0  0  0  0  0  0
  141.9077  135.8948  154.6383 O   0  0  0  0  0  0  0  0  0  0  0  0
  140.9144  137.4095  156.4366 O   0  0  0  0  0  0  0  0  0  0  0  0
  140.6957  138.0814  153.9479 N   0  0  0  0  0  0  0  0  0  0  0  0
  140.6385  139.5480  153.9837 C   0  0  0  0  0  0  0  0  0  0  0  0
  139.1641  139.9061  153.7916 C   0  0  0  0  0  0  0  0  0  0  0  0
  138.6200  138.7388  152.9802 C   0  0  0  0  0  0  0  0  0  0  0  0
  139.3954  137.5425  153.5301 C   0  0  0  0  0  0  0  0  0  0  0  0
  144.3051  137.6674  154.6808 C   0  0  0  0  0  0  0  0  0  0  0  0
  145.5034  138.4031  154.7586 C   0  0  0  0  0  0  0  0  0  0  0  0
  149.2509  141.8871  154.4670 H   0  0  0  0  0  0  0  0  0  0  0  0
  148.4742  142.1344  155.9807 H   0  0  0  0  0  0  0  0  0  0  0  0
  153.2094  139.3970  157.9065 H   0  0  0  0  0  0  0  0  0  0  0  0
  150.9423  140.8046  160.0772 H   0  0  0  0  0  0  0  0  0  0  0  0
  152.1297  143.0732  158.5348 H   0  0  0  0  0  0  0  0  0  0  0  0
  151.2097  143.1746  160.0502 H   0  0  0  0  0  0  0  0  0  0  0  0
  153.9271  143.6604  160.0042 H   0  0  0  0  0  0  0  0  0  0  0  0
  153.1728  142.8139  161.3620 H   0  0  0  0  0  0  0  0  0  0  0  0
  154.4422  141.5237  158.9025 H   0  0  0  0  0  0  0  0  0  0  0  0
  154.8356  141.2046  160.5983 H   0  0  0  0  0  0  0  0  0  0  0  0
  146.5668  141.3237  156.0558 H   0  0  0  0  0  0  0  0  0  0  0  0
  144.3287  141.1526  156.4244 H   0  0  0  0  0  0  0  0  0  0  0  0
  142.2248  139.8582  156.2939 H   0  0  0  0  0  0  0  0  0  0  0  0
  141.0270  139.9392  154.9246 H   0  0  0  0  0  0  0  0  0  0  0  0
  141.2483  139.9438  153.1712 H   0  0  0  0  0  0  0  0  0  0  0  0
  138.6639  139.9473  154.7602 H   0  0  0  0  0  0  0  0  0  0  0  0
  139.0235  140.8681  153.2980 H   0  0  0  0  0  0  0  0  0  0  0  0
  137.5400  138.6229  153.0746 H   0  0  0  0  0  0  0  0  0  0  0  0
  138.8540  138.8805  151.9241 H   0  0  0  0  0  0  0  0  0  0  0  0
  139.5208  136.7489  152.7929 H   0  0  0  0  0  0  0  0  0  0  0  0
  138.8780  137.1276  154.3956 H   0  0  0  0  0  0  0  0  0  0  0  0
  144.2979  136.6966  154.2070 H   0  0  0  0  0  0  0  0  0  0  0  0
  146.3953  137.9579  154.3476 H   0  0  0  0  0  0  0  0  0  0  0  0
  1  2  2  0  0  0  0
  2  3  1  0  0  0  0
  2 18  1  0  0  0  0
  3  4  1  0  0  0  0
  3 33  1  0  0  0  0
  3 34  1  0  0  0  0
  4 16  1  0  0  0  0
  4  5  1  0  0  0  0
  5  6  2  0  0  0  0
  5  7  1  0  0  0  0
  7  8  1  0  0  0  0
  7  9  2  0  0  0  0
  9 10  1  0  0  0  0
  9 35  1  0  0  0  0
 10 11  1  0  0  0  0
 10 16  1  0  0  0  0
 11 15  1  0  0  0  0
 11 12  1  0  0  0  0
 11 36  1  0  0  0  0
 12 13  1  0  0  0  0
 12 37  1  0  0  0  0
 12 38  1  0  0  0  0
 13 14  1  0  0  0  0
 13 39  1  0  0  0  0
 13 40  1  0  0  0  0
 14 15  1  0  0  0  0
 14 41  1  0  0  0  0
 14 42  1  0  0  0  0
 16 17  2  0  0  0  0
 18 19  1  0  0  0  0
 18 43  1  0  0  0  0
 19 32  1  0  0  0  0
 19 20  2  0  0  0  0
 20 21  1  0  0  0  0
 20 44  1  0  0  0  0
 21 22  2  0  0  0  0
 21 45  1  0  0  0  0
 22 23  1  0  0  0  0
 22 31  1  0  0  0  0
 23 24  2  0  0  0  0
 23 25  2  0  0  0  0
 23 26  1  0  0  0  0
 26 30  1  0  0  0  0
 26 27  1  0  0  0  0
 27 28  1  0  0  0  0
 27 46  1  0  0  0  0
 27 47  1  0  0  0  0
 28 29  1  0  0  0  0
 28 48  1  0  0  0  0
 28 49  1  0  0  0  0
 29 30  1  0  0  0  0
 29 50  1  0  0  0  0
 29 51  1  0  0  0  0
 30 52  1  0  0  0  0
 30 53  1  0  0  0  0
 31 32  2  0  0  0  0
 31 54  1  0  0  0  0
 32 55  1  0  0  0  0
M  END
> <s_m_source_file>
AV-unprocessed.smi

> <i_m_source_file_index>
131

> <i_lp_mmshare_version>
43012

> <i_f3d_flags>
0

> <s_epik_input>
W0NIMl0xW0NIMl1bQ0gyXVtDSDJdTjFTKD1PKSg9TyljKFtjSF1bY0hdMilbY0hdW2NIXWMyW05IXUMoPU8pW0NIMl1uM2MoPU8pYyhGKVtjSF1uKGMzPU8pW0NAQEhdNFtDSDJdW0NIMl1bQ0gyXU80

> <s_epik_cmdline>
J2VwaWtfcHl0aG9uJywgJy1waCcsICc3LjAnLCAnLXRuJywgJzgnLCAnLW1hJywgJzIwMCcsICctbWV0YWxfYmluZGluZycsICctaW1hZScsICc8aW5maWxlLm1hZT4nLCAnLW9tYWUnLCAnPG91dGZpbGUubWFlPic=

> <r_lp_tautomer_probability>
1

> <r_epik_Ionization_Penalty>
1.92533e-06

> <r_epik_Ionization_Penalty_Charging>
3.88729e-08

> <r_epik_Ionization_Penalty_Neutral>
1.88646e-06

> <r_epik_State_Penalty>
-0

> <r_epik_Charging_Adjusted_Penalty>
3.88729e-08

> <i_epik_Tot_Q>
0

> <i_epik_Tot_abs_Q>
0

> <r_epik_Metal_State_Penalty>
-0

> <b_epik_Metal_Only>
0

> <s_epik_Chemistry_Notes>
This compound contains an acetal/aminal-like group ( X-CH(R)-Y where X, Y are N, S, or O) that may be acid/base labile, releasing an aldehyde.

> <s_lp_Force_Field>
OPLS_2005

> <r_lp_Energy>
42.8804

> <b_lp_Chiralities_Consistent>
1

> <s_lp_Variant>
AV-unprocessed.smi:131-1

> <Gold.Version>
5.8.1

> <Gold.Id.Protein>
6NUR|6NUR_protein|mol2

> <Gold.PLP.Fitness>
45.2663

> <Gold.PLP.PLP>
-42.9634

> <Gold.PLP.part.hbond>
-1.9196

> <Gold.PLP.part.metal>
0.0000

> <Gold.PLP.part.buried>
-2.3620

> <Gold.PLP.part.nonpolar>
-38.0062

> <Gold.PLP.part.repulsive>
0.5970

> <Gold.PLP.ligand.clash>
0.0000

> <Gold.PLP.ligand.torsion>
1.3774

> <Gold.PLP.Chemscore.Hbond>
0.8000

> <Gold.PLP.Chemscore.CHOScore>
0.0000

> <Gold.PLP.Chemscore.Metal>
0.0000

> <Gold.Chemscore.Hbonds>
donor molecule, donor type, donor heavy atom, donor atom, acceptor molecule, acceptor atom, score
      P1  H  7989  7998       L1     6  0.85

> <Gold.PLP.Chemscore.Internal.Correction>
2.6577

> <Gold.Rescore>
     Score         DG    S(hbond)    S(metal)    S(lipo)     H(rot)  DE(clash)    DE(int)     intcor
      6.96     -13.10       0.86        0.00      82.63       1.92       0.75       5.39       ----

> <Gold.Chemscore.Fitness>
6.9632

> <Gold.Chemscore.DG>
-13.0992

> <Gold.Chemscore.ZeroCoef>
-5.4800

> <Gold.Chemscore.Hbond>
0.8558

> <Gold.Chemscore.Metal>
0.0000

> <Gold.Chemscore.Lipo>
82.6259

> <Gold.Chemscore.Internal_Hbond>
0.0000

> <Gold.Chemscore.DEClash>
0.7500

> <Gold.Chemscore.DEInternal>
5.3860

> <Gold.Chemscore.Rot>
1.9166

> <Gold.Chemscore.Internal.Correction>
   9.000000E+99

> <Gold.Chemscore.Hbonds>
donor molecule, donor type, donor heavy atom, donor atom, acceptor molecule, acceptor atom, score
      P1  H  7989  7998       L1     6  0.15

> <Gold.Chemscore.Hbond.Weighted>
-2.8583

> <Gold.Chemscore.Metal.Weighted>
-0.0000

> <Gold.Chemscore.Lipo.Weighted>
-9.6672

> <Gold.Chemscore.Internal_Hbond.Weighted>
0.0000

> <Gold.Chemscore.DEClash.Weighted>
0.7500

> <Gold.Chemscore.DEInternal.Weighted>
5.3860

> <Gold.Chemscore.Rot.Weighted>
4.9064

> <Gold.Chemscore.Internal.Correction.Weighted>
   9.000000E+99

> <Gold.Protein.RotatedTorsions>
[ 6907 6896 6895 6894 ] final  -20.60 input  -60.11 | X-H torsion
[ 7974 7965 7964 7962 ] final   20.52 input  175.53 | X-H torsion
[ 8008 7997 7996 7995 ] final  138.72 input   59.86 | X-H torsion
[ 10167 10162 10161 10158 ] final -131.83 input  -65.29 | X-H torsion
[ 10718 10713 10712 10709 ] final  100.44 input   66.30 | X-H torsion
[ 10763 10752 10751 10750 ] final  152.26 input  -60.55 | X-H torsion
[ 11005 11000 10999 10996 ] final   91.37 input  -57.11 | X-H torsion

> <Gold.Protein.ActiveResidues>
 VAL166  LYS551  ARG553  GLY616  TRP617  ASP618  TYR619  PRO620  LYS621  CYS622 
 ASP623  PHE694  ASN695  SER759  ASP760  ASP761  ALA762  ILE779  LEU786  VAL792 
 PHE793  MET794  SER795  GLU796  ALA797  LYS798  CYS799  TRP800  GLU811  SER814 

> <Gold.Protein.RotatedAtoms>
  151.2457  135.0604  159.9042 H   0  0  0  0  0  0  0  0  0  0  0  0  # atno 6907 bound_to 6896
  152.5387  134.0386  159.8067 H   0  0  0  0  0  0  0  0  0  0  0  0  # atno 6908 bound_to 6896
  151.0586  133.5514  159.2667 H   0  0  0  0  0  0  0  0  0  0  0  0  # atno 6909 bound_to 6896
  146.2108  139.8157  142.8690 H   0  0  0  0  0  0  0  0  0  0  0  0  # atno 7974 bound_to 7965
  156.2995  140.2386  156.4120 H   0  0  0  0  0  0  0  0  0  0  0  0  # atno 8008 bound_to 7997
  154.8432  140.0427  157.1575 H   0  0  0  0  0  0  0  0  0  0  0  0  # atno 8009 bound_to 7997
  154.9079  140.2986  155.5286 H   0  0  0  0  0  0  0  0  0  0  0  0  # atno 8010 bound_to 7997
  139.9149  143.6451  152.2567 H   0  0  0  0  0  0  0  0  0  0  0  0  # atno 10167 bound_to 10162
  157.6854  131.0698  150.5101 H   0  0  0  0  0  0  0  0  0  0  0  0  # atno 10718 bound_to 10713
  154.1171  135.2835  155.3217 H   0  0  0  0  0  0  0  0  0  0  0  0  # atno 10763 bound_to 10752
  154.6449  135.5389  153.7836 H   0  0  0  0  0  0  0  0  0  0  0  0  # atno 10764 bound_to 10752
  153.0325  135.6495  154.1327 H   0  0  0  0  0  0  0  0  0  0  0  0  # atno 10765 bound_to 10752
  139.8840  134.8670  156.3418 H   0  0  0  0  0  0  0  0  0  0  0  0  # atno 11005 bound_to 11000
  145.3149  141.0229  143.3534 LP  0  0  0  0  0  0  0  0  0  0  0  0  # atno 17320 bound_to 7965
  144.8909  139.4776  143.6678 LP  0  0  0  0  0  0  0  0  0  0  0  0  # atno 17321 bound_to 7965
  139.6911  144.7646  151.1437 LP  0  0  0  0  0  0  0  0  0  0  0  0  # atno 17342 bound_to 10162
  140.7676  143.5588  150.9122 LP  0  0  0  0  0  0  0  0  0  0  0  0  # atno 17343 bound_to 10162
  156.5419  130.4210  149.6150 LP  0  0  0  0  0  0  0  0  0  0  0  0  # atno 17370 bound_to 10713
  156.2978  130.7160  151.2024 LP  0  0  0  0  0  0  0  0  0  0  0  0  # atno 17371 bound_to 10713
  140.9654  133.7362  156.0459 LP  0  0  0  0  0  0  0  0  0  0  0  0  # atno 17394 bound_to 11000
  140.7938  134.3587  157.5458 LP  0  0  0  0  0  0  0  0  0  0  0  0  # atno 17395 bound_to 11000

$$$$
