AV-unprocessed.smi:221|AV-procd|sdf|1698|dock10
  -GOLD-   2262020153D 1   1.00000     0.00000
 Structure written by MMmdl.
 50 53  0  0  0  0  0  0  0  0  1 V2000
  146.4823  137.4856  152.4855 N   0  0  0  0  0  0  0  0  0  0  0  0
  146.1187  137.3671  153.7646 C   0  0  0  0  0  0  0  0  0  0  0  0
  145.0563  137.8209  154.1867 O   0  0  0  0  0  0  0  0  0  0  0  0
  147.0847  136.6145  154.6910 C   0  0  2  0  0  0  0  0  0  0  0  0
  146.4281  135.3805  155.3242 C   0  0  0  0  0  0  0  0  0  0  0  0
  147.2565  135.1590  156.5845 C   0  0  1  0  0  0  0  0  0  0  0  0
  148.3792  134.5094  156.2731 F   0  0  0  0  0  0  0  0  0  0  0  0
  147.5971  136.5817  157.0318 C   0  0  0  0  0  0  0  0  0  0  0  0
  147.4956  137.4233  155.8414 N   0  0  0  0  0  0  0  0  0  0  0  0
  148.5291  138.2674  155.6240 C   0  0  0  0  0  0  0  0  0  0  0  0
  148.7958  138.7067  154.3657 N   0  0  0  0  0  0  0  0  0  0  0  0
  149.8136  139.5473  154.1560 C   0  0  0  0  0  0  0  0  0  0  0  0
  150.6696  140.0601  155.0429 N   0  0  0  0  0  0  0  0  0  0  0  0
  150.4012  139.6176  156.3054 C   0  0  0  0  0  0  0  0  0  0  0  0
  149.3570  138.7277  156.6802 C   0  0  0  0  0  0  0  0  0  0  0  0
  149.3880  138.5030  158.0505 N   0  0  0  0  0  0  0  0  0  0  0  0
  150.3967  139.2205  158.4645 C   0  0  0  0  0  0  0  0  0  0  0  0
  151.0665  139.9148  157.4820 N   0  0  0  0  0  0  0  0  0  0  0  0
  152.2219  140.7760  157.6645 C   0  0  0  0  0  0  0  0  0  0  0  0
  152.3993  141.2561  159.1265 C   0  0  1  0  0  0  0  0  0  0  0  0
  153.3962  140.3831  159.9278 C   0  0  0  0  0  0  0  0  0  0  0  0
  154.5382  140.0647  159.1590 O   0  0  0  0  0  0  0  0  0  0  0  0
  152.7567  142.7624  159.1949 C   0  0  1  0  0  0  0  0  0  0  0  0
  151.9755  143.6501  158.2421 C   0  0  0  0  0  0  0  0  0  0  0  0
  152.1899  145.0318  158.8487 C   0  0  0  0  0  0  0  0  0  0  0  0
  152.2510  144.8229  160.2547 O   0  0  0  0  0  0  0  0  0  0  0  0
  152.4362  143.4379  160.5333 C   0  0  0  0  0  0  0  0  0  0  0  0
  147.9626  136.2983  154.1232 H   0  0  0  0  0  0  0  0  0  0  0  0
  146.7402  134.5771  157.3484 H   0  0  0  0  0  0  0  0  0  0  0  0
  145.8809  137.9733  151.8376 H   0  0  0  0  0  0  0  0  0  0  0  0
  147.3559  137.0895  152.1703 H   0  0  0  0  0  0  0  0  0  0  0  0
  145.3930  135.5883  155.6019 H   0  0  0  0  0  0  0  0  0  0  0  0
  146.4292  134.5140  154.6622 H   0  0  0  0  0  0  0  0  0  0  0  0
  146.8517  136.9351  157.7449 H   0  0  0  0  0  0  0  0  0  0  0  0
  148.5666  136.6287  157.5314 H   0  0  0  0  0  0  0  0  0  0  0  0
  149.9630  139.8536  153.1313 H   0  0  0  0  0  0  0  0  0  0  0  0
  150.6867  139.2588  159.5046 H   0  0  0  0  0  0  0  0  0  0  0  0
  153.1125  140.2420  157.3310 H   0  0  0  0  0  0  0  0  0  0  0  0
  152.1048  141.6269  156.9932 H   0  0  0  0  0  0  0  0  0  0  0  0
  151.4306  141.1354  159.6137 H   0  0  0  0  0  0  0  0  0  0  0  0
  153.7194  140.8949  160.8341 H   0  0  0  0  0  0  0  0  0  0  0  0
  152.9285  139.4563  160.2600 H   0  0  0  0  0  0  0  0  0  0  0  0
  155.1373  139.5720  159.6987 H   0  0  0  0  0  0  0  0  0  0  0  0
  153.8197  142.8950  158.9854 H   0  0  0  0  0  0  0  0  0  0  0  0
  152.3257  143.5907  157.2114 H   0  0  0  0  0  0  0  0  0  0  0  0
  150.9152  143.3931  158.2604 H   0  0  0  0  0  0  0  0  0  0  0  0
  153.1424  145.4479  158.5181 H   0  0  0  0  0  0  0  0  0  0  0  0
  151.4010  145.7349  158.5810 H   0  0  0  0  0  0  0  0  0  0  0  0
  151.5064  143.0498  160.9514 H   0  0  0  0  0  0  0  0  0  0  0  0
  153.2242  143.2900  161.2719 H   0  0  0  0  0  0  0  0  0  0  0  0
  1  2  1  0  0  0  0
  1 30  1  0  0  0  0
  1 31  1  0  0  0  0
  2  3  2  0  0  0  0
  2  4  1  0  0  0  0
  4 28  1  0  0  0  0
  4  9  1  0  0  0  0
  4  5  1  0  0  0  0
  5  6  1  0  0  0  0
  5 32  1  0  0  0  0
  5 33  1  0  0  0  0
  6 29  1  0  0  0  0
  6  7  1  0  0  0  0
  6  8  1  0  0  0  0
  8  9  1  0  0  0  0
  8 34  1  0  0  0  0
  8 35  1  0  0  0  0
  9 10  1  0  0  0  0
 10 15  1  0  0  0  0
 10 11  2  0  0  0  0
 11 12  1  0  0  0  0
 12 13  2  0  0  0  0
 12 36  1  0  0  0  0
 13 14  1  0  0  0  0
 14 18  1  0  0  0  0
 14 15  2  0  0  0  0
 15 16  1  0  0  0  0
 16 17  2  0  0  0  0
 17 18  1  0  0  0  0
 17 37  1  0  0  0  0
 18 19  1  0  0  0  0
 19 20  1  0  0  0  0
 19 38  1  0  0  0  0
 19 39  1  0  0  0  0
 20 21  1  0  0  0  0
 20 23  1  0  0  0  0
 20 40  1  0  0  0  0
 21 22  1  0  0  0  0
 21 41  1  0  0  0  0
 21 42  1  0  0  0  0
 22 43  1  0  0  0  0
 23 27  1  0  0  0  0
 23 24  1  0  0  0  0
 23 44  1  0  0  0  0
 24 25  1  0  0  0  0
 24 45  1  0  0  0  0
 24 46  1  0  0  0  0
 25 26  1  0  0  0  0
 25 47  1  0  0  0  0
 25 48  1  0  0  0  0
 26 27  1  0  0  0  0
 27 49  1  0  0  0  0
 27 50  1  0  0  0  0
M  END
> <s_m_source_file>
AV-unprocessed.smi

> <i_m_source_file_index>
221

> <i_lp_mmshare_version>
43012

> <i_f3d_flags>
0

> <s_epik_input>
W05IMl1DKD1PKVtDQEBIXTFbQ0gyXVtDQEBIXShGKVtDSDJdTjFjKG5bY0hdbjIpYyhjMjMpbltjSF1uM1tDSDJdW0NASF0oW0NIMl1bT0hdKVtDQEBIXTRbQ0gyXVtDSDJdT1tDSDJdNA==

> <s_epik_cmdline>
J2VwaWtfcHl0aG9uJywgJy1waCcsICc3LjAnLCAnLXRuJywgJzgnLCAnLW1hJywgJzIwMCcsICctbWV0YWxfYmluZGluZycsICctaW1hZScsICc8aW5maWxlLm1hZT4nLCAnLW9tYWUnLCAnPG91dGZpbGUubWFlPic=

> <r_lp_tautomer_probability>
1

> <r_epik_Ionization_Penalty>
0.000818822

> <r_epik_Ionization_Penalty_Charging>
0

> <r_epik_Ionization_Penalty_Neutral>
0.000818822

> <r_epik_State_Penalty>
0.000440551

> <r_epik_Charging_Adjusted_Penalty>
0.000440551

> <i_epik_Tot_Q>
0

> <i_epik_Tot_abs_Q>
0

> <r_epik_Metal_State_Penalty>
-0

> <b_epik_Metal_Only>
0

> <s_lp_Force_Field>
OPLS_2005

> <r_lp_Energy>
50.4935

> <b_lp_Chiralities_Consistent>
1

> <s_lp_Variant>
AV-unprocessed.smi:221-13

> <Gold.Version>
5.8.1

> <Gold.Id.Protein>
6NUR|6NUR_protein|mol2

> <Gold.PLP.Fitness>
39.3773

> <Gold.PLP.PLP>
-33.1346

> <Gold.PLP.part.hbond>
-3.0000

> <Gold.PLP.part.metal>
0.0000

> <Gold.PLP.part.buried>
-3.3284

> <Gold.PLP.part.nonpolar>
-26.3179

> <Gold.PLP.part.repulsive>
0.5020

> <Gold.PLP.ligand.clash>
0.0000

> <Gold.PLP.ligand.torsion>
2.0064

> <Gold.PLP.Chemscore.Hbond>
2.3420

> <Gold.PLP.Chemscore.CHOScore>
1.0000

> <Gold.PLP.Chemscore.Metal>
0.0000

> <Gold.Chemscore.Hbonds>
donor molecule, donor type, donor heavy atom, donor atom, acceptor molecule, acceptor atom, score
      L1  H     1    31       P1  7948  1.00
      P1  H  7989  7998       L1    13  0.35
      P1  H  7997  8008       L1    22  1.00
      L1  C    12    36       P1  7957  0.94

> <Gold.PLP.Chemscore.Internal.Correction>
0.2294

> <Gold.Rescore>
     Score         DG    S(hbond)    S(metal)    S(lipo)     H(rot)  DE(clash)    DE(int)     intcor
      7.46     -11.47       1.95        0.00      77.00       3.72       0.05       3.96       ----

> <Gold.Chemscore.Fitness>
7.4585

> <Gold.Chemscore.DG>
-11.4660

> <Gold.Chemscore.ZeroCoef>
-5.4800

> <Gold.Chemscore.Hbond>
1.9462

> <Gold.Chemscore.Metal>
0.0000

> <Gold.Chemscore.Lipo>
77.0030

> <Gold.Chemscore.Internal_Hbond>
0.0000

> <Gold.Chemscore.DEClash>
0.0481

> <Gold.Chemscore.DEInternal>
3.9594

> <Gold.Chemscore.Rot>
3.7202

> <Gold.Chemscore.Internal.Correction>
   9.000000E+99

> <Gold.Chemscore.Hbonds>
donor molecule, donor type, donor heavy atom, donor atom, acceptor molecule, acceptor atom, score
      L1  H     1    31       P1  7948  1.00
      P1  H  7989  7998       L1    13  0.01
      P1  H  7997  8008       L1    22  0.80

> <Gold.Chemscore.Hbond.Weighted>
-6.5004

> <Gold.Chemscore.Metal.Weighted>
-0.0000

> <Gold.Chemscore.Lipo.Weighted>
-9.0093

> <Gold.Chemscore.Internal_Hbond.Weighted>
0.0000

> <Gold.Chemscore.DEClash.Weighted>
0.0481

> <Gold.Chemscore.DEInternal.Weighted>
3.9594

> <Gold.Chemscore.Rot.Weighted>
9.5237

> <Gold.Chemscore.Internal.Correction.Weighted>
   9.000000E+99

> <Gold.Protein.RotatedTorsions>
[ 6907 6896 6895 6894 ] final  157.06 input  -60.11 | X-H torsion
[ 7974 7965 7964 7962 ] final -123.32 input  175.53 | X-H torsion
[ 8008 7997 7996 7995 ] final -114.35 input   59.86 | X-H torsion
[ 10167 10162 10161 10158 ] final  172.20 input  -65.29 | X-H torsion
[ 10718 10713 10712 10709 ] final  166.93 input   66.30 | X-H torsion
[ 10763 10752 10751 10750 ] final  -10.05 input  -60.55 | X-H torsion
[ 11005 11000 10999 10996 ] final   35.11 input  -57.11 | X-H torsion

> <Gold.Protein.ActiveResidues>
 VAL166  LYS551  ARG553  GLY616  TRP617  ASP618  TYR619  PRO620  LYS621  CYS622 
 ASP623  PHE694  ASN695  SER759  ASP760  ASP761  ALA762  ILE779  LEU786  VAL792 
 PHE793  MET794  SER795  GLU796  ALA797  LYS798  CYS799  TRP800  GLU811  SER814 

> <Gold.Protein.RotatedAtoms>
  152.0207  133.3897  159.4256 H   0  0  0  0  0  0  0  0  0  0  0  0  # atno 6907 bound_to 6896
  150.6890  134.3629  159.4967 H   0  0  0  0  0  0  0  0  0  0  0  0  # atno 6908 bound_to 6896
  152.1402  134.9068  160.0605 H   0  0  0  0  0  0  0  0  0  0  0  0  # atno 6909 bound_to 6896
  145.0199  140.7979  143.4387 H   0  0  0  0  0  0  0  0  0  0  0  0  # atno 7974 bound_to 7965
  155.0349  140.0392  157.2488 H   0  0  0  0  0  0  0  0  0  0  0  0  # atno 8008 bound_to 7997
  154.7265  140.2722  155.6470 H   0  0  0  0  0  0  0  0  0  0  0  0  # atno 8009 bound_to 7997
  156.2830  140.2692  156.1953 H   0  0  0  0  0  0  0  0  0  0  0  0  # atno 8010 bound_to 7997
  139.5069  144.3400  152.0027 H   0  0  0  0  0  0  0  0  0  0  0  0  # atno 10167 bound_to 10162
  157.0588  131.0334  151.2654 H   0  0  0  0  0  0  0  0  0  0  0  0  # atno 10718 bound_to 10713
  153.4635  135.7016  153.6036 H   0  0  0  0  0  0  0  0  0  0  0  0  # atno 10763 bound_to 10752
  153.4320  135.3800  155.2176 H   0  0  0  0  0  0  0  0  0  0  0  0  # atno 10764 bound_to 10752
  154.8727  135.3953  154.4064 H   0  0  0  0  0  0  0  0  0  0  0  0  # atno 10765 bound_to 10752
  140.2459  134.3359  155.7908 H   0  0  0  0  0  0  0  0  0  0  0  0  # atno 11005 bound_to 11000
  145.1909  139.2301  143.5243 LP  0  0  0  0  0  0  0  0  0  0  0  0  # atno 17320 bound_to 7965
  146.3484  140.1705  142.8589 LP  0  0  0  0  0  0  0  0  0  0  0  0  # atno 17321 bound_to 7965
  140.2838  144.3830  150.6110 LP  0  0  0  0  0  0  0  0  0  0  0  0  # atno 17342 bound_to 10162
  140.5998  143.2167  151.7094 LP  0  0  0  0  0  0  0  0  0  0  0  0  # atno 17343 bound_to 10162
  157.4971  130.7857  149.7566 LP  0  0  0  0  0  0  0  0  0  0  0  0  # atno 17370 bound_to 10713
  155.9985  130.3894  150.2701 LP  0  0  0  0  0  0  0  0  0  0  0  0  # atno 17371 bound_to 10713
  141.2206  133.7326  156.8960 LP  0  0  0  0  0  0  0  0  0  0  0  0  # atno 17394 bound_to 11000
  140.1606  134.9168  157.2710 LP  0  0  0  0  0  0  0  0  0  0  0  0  # atno 17395 bound_to 11000

$$$$
