AV-unprocessed.smi:394|AV-procd|sdf|2485|dock1
  -GOLD-   2262022423D 1   1.00000     0.00000
 Structure written by MMmdl.
 30 31  0  0  0  0  0  0  0  0  1 V2000
  155.3298  139.8804  161.5735 C   0  0  0  0  0  0  0  0  0  0  0  0
  154.0178  139.6473  160.9907 N   0  0  0  0  0  0  0  0  0  0  0  0
  153.7889  139.4855  159.6774 C   0  0  0  0  0  0  0  0  0  0  0  0
  154.6890  139.5187  158.8391 O   0  0  0  0  0  0  0  0  0  0  0  0
  152.3416  139.2504  159.2078 C   0  0  0  0  0  0  0  0  0  0  0  0
  151.7024  140.4054  158.5346 N   0  0  0  0  0  0  0  0  0  0  0  0
  151.1829  140.2292  157.2263 C   0  0  0  0  0  0  0  0  0  0  0  0
  151.2380  139.1347  156.6635 O   0  0  0  0  0  0  0  0  0  0  0  0
  150.5911  141.4190  156.6185 C   0  0  0  0  0  0  0  0  0  0  0  0
  150.1020  141.2950  155.2853 C   0  0  0  0  0  0  0  0  0  0  0  0
  149.7281  141.2003  154.1941 N   0  0  0  0  0  0  0  0  0  0  0  0
  150.5192  142.5828  157.2967 C   0  0  0  0  0  0  0  0  0  0  0  0
  150.9773  142.7170  158.5891 N   0  0  0  0  0  0  0  0  0  0  0  0
  151.0207  143.9967  159.2388 C   0  0  0  0  0  0  0  0  0  0  0  0
  151.7467  145.1607  158.5926 C   0  0  0  0  0  0  0  0  0  0  0  0
  152.3346  144.4862  159.8079 C   0  0  0  0  0  0  0  0  0  0  0  0
  151.6281  141.6387  159.2272 C   0  0  0  0  0  0  0  0  0  0  0  0
  152.1166  141.7640  160.3528 O   0  0  0  0  0  0  0  0  0  0  0  0
  155.2456  139.9608  162.6572 H   0  0  0  0  0  0  0  0  0  0  0  0
  155.7627  140.8075  161.1955 H   0  0  0  0  0  0  0  0  0  0  0  0
  156.0090  139.0584  161.3438 H   0  0  0  0  0  0  0  0  0  0  0  0
  153.2316  139.6092  161.6230 H   0  0  0  0  0  0  0  0  0  0  0  0
  152.3368  138.3736  158.5584 H   0  0  0  0  0  0  0  0  0  0  0  0
  151.7568  138.9313  160.0718 H   0  0  0  0  0  0  0  0  0  0  0  0
  150.0790  143.4433  156.8133 H   0  0  0  0  0  0  0  0  0  0  0  0
  150.1321  144.2544  159.8125 H   0  0  0  0  0  0  0  0  0  0  0  0
  152.2480  144.9931  157.6411 H   0  0  0  0  0  0  0  0  0  0  0  0
  151.3186  146.1522  158.7245 H   0  0  0  0  0  0  0  0  0  0  0  0
  152.3012  145.0302  160.7496 H   0  0  0  0  0  0  0  0  0  0  0  0
  153.2209  143.8733  159.6557 H   0  0  0  0  0  0  0  0  0  0  0  0
  1  2  1  0  0  0  0
  1 19  1  0  0  0  0
  1 20  1  0  0  0  0
  1 21  1  0  0  0  0
  2  3  1  0  0  0  0
  2 22  1  0  0  0  0
  3  4  2  0  0  0  0
  3  5  1  0  0  0  0
  5  6  1  0  0  0  0
  5 23  1  0  0  0  0
  5 24  1  0  0  0  0
  6 17  1  0  0  0  0
  6  7  1  0  0  0  0
  7  8  2  0  0  0  0
  7  9  1  0  0  0  0
  9 10  1  0  0  0  0
  9 12  2  0  0  0  0
 10 11  3  0  0  0  0
 12 13  1  0  0  0  0
 12 25  1  0  0  0  0
 13 14  1  0  0  0  0
 13 17  1  0  0  0  0
 14 16  1  0  0  0  0
 14 15  1  0  0  0  0
 14 26  1  0  0  0  0
 15 16  1  0  0  0  0
 15 27  1  0  0  0  0
 15 28  1  0  0  0  0
 16 29  1  0  0  0  0
 16 30  1  0  0  0  0
 17 18  2  0  0  0  0
M  END
> <s_m_source_file>
AV-unprocessed.smi

> <i_m_source_file_index>
394

> <i_lp_mmshare_version>
43012

> <i_f3d_flags>
0

> <s_epik_input>
W0NIM11bTkhdQyg9TylbQ0gyXW4xYyg9TyljKEMjTilbY0hdbihjMT1PKVtDSF0yW0NIMl1bQ0gyXTI=

> <s_epik_cmdline>
J2VwaWtfcHl0aG9uJywgJy1waCcsICc3LjAnLCAnLXRuJywgJzgnLCAnLW1hJywgJzIwMCcsICctbWV0YWxfYmluZGluZycsICctaW1hZScsICc8aW5maWxlLm1hZT4nLCAnLW9tYWUnLCAnPG91dGZpbGUubWFlPic=

> <r_lp_tautomer_probability>
1

> <r_epik_Ionization_Penalty>
1.93483e-08

> <r_epik_Ionization_Penalty_Charging>
8.13451e-11

> <r_epik_Ionization_Penalty_Neutral>
1.9267e-08

> <r_epik_State_Penalty>
-0

> <r_epik_Charging_Adjusted_Penalty>
8.13451e-11

> <i_epik_Tot_Q>
0

> <i_epik_Tot_abs_Q>
0

> <r_epik_Metal_State_Penalty>
-0

> <b_epik_Metal_Only>
0

> <s_lp_Force_Field>
OPLS_2005

> <r_lp_Energy>
29.0516

> <b_lp_Chiralities_Consistent>
1

> <s_lp_Variant>
AV-unprocessed.smi:394-1

> <Gold.Version>
5.8.1

> <Gold.Id.Protein>
6NUR|6NUR_protein|mol2

> <Gold.PLP.Fitness>
40.0519

> <Gold.PLP.PLP>
-32.4900

> <Gold.PLP.part.hbond>
-3.2349

> <Gold.PLP.part.metal>
0.0000

> <Gold.PLP.part.buried>
-2.3491

> <Gold.PLP.part.nonpolar>
-25.8540

> <Gold.PLP.part.repulsive>
0.2152

> <Gold.PLP.ligand.clash>
0.0000

> <Gold.PLP.ligand.torsion>
0.3070

> <Gold.PLP.Chemscore.Hbond>
1.6565

> <Gold.PLP.Chemscore.CHOScore>
1.0000

> <Gold.PLP.Chemscore.Metal>
0.0000

> <Gold.Chemscore.Hbonds>
donor molecule, donor type, donor heavy atom, donor atom, acceptor molecule, acceptor atom, score
      P1  H  7989  7998       L1    11  0.27
      P1  H  7997  8008       L1     4  1.00
      P1  H  8011  8017       L1    11  0.37
      L1  C    12    25       P1  8028  1.00

> <Gold.PLP.Chemscore.Internal.Correction>
0.2065

> <Gold.Rescore>
     Score         DG    S(hbond)    S(metal)    S(lipo)     H(rot)  DE(clash)    DE(int)     intcor
     11.38     -13.35       1.50        0.00      62.34       1.73       0.41       1.55       ----

> <Gold.Chemscore.Fitness>
11.3777

> <Gold.Chemscore.DG>
-13.3462

> <Gold.Chemscore.ZeroCoef>
-5.4800

> <Gold.Chemscore.Hbond>
1.4983

> <Gold.Chemscore.Metal>
0.0000

> <Gold.Chemscore.Lipo>
62.3426

> <Gold.Chemscore.Internal_Hbond>
0.0000

> <Gold.Chemscore.DEClash>
0.4143

> <Gold.Chemscore.DEInternal>
1.5542

> <Gold.Chemscore.Rot>
1.7313

> <Gold.Chemscore.Internal.Correction>
   9.000000E+99

> <Gold.Chemscore.Hbonds>
donor molecule, donor type, donor heavy atom, donor atom, acceptor molecule, acceptor atom, score
      P1  H  7989  7998       L1    11  0.02
      P1  H  7997  8008       L1     4  1.00
      P1  H  8011  8017       L1    11  0.37

> <Gold.Chemscore.Hbond.Weighted>
-5.0042

> <Gold.Chemscore.Metal.Weighted>
-0.0000

> <Gold.Chemscore.Lipo.Weighted>
-7.2941

> <Gold.Chemscore.Internal_Hbond.Weighted>
0.0000

> <Gold.Chemscore.DEClash.Weighted>
0.4143

> <Gold.Chemscore.DEInternal.Weighted>
1.5542

> <Gold.Chemscore.Rot.Weighted>
4.4320

> <Gold.Chemscore.Internal.Correction.Weighted>
   9.000000E+99

> <Gold.Protein.RotatedTorsions>
[ 6907 6896 6895 6894 ] final   38.66 input  -60.11 | X-H torsion
[ 7974 7965 7964 7962 ] final   67.61 input  175.53 | X-H torsion
[ 8008 7997 7996 7995 ] final -118.21 input   59.86 | X-H torsion
[ 10167 10162 10161 10158 ] final  -51.99 input  -65.29 | X-H torsion
[ 10718 10713 10712 10709 ] final  -16.28 input   66.30 | X-H torsion
[ 10763 10752 10751 10750 ] final   47.32 input  -60.55 | X-H torsion
[ 11005 11000 10999 10996 ] final  -27.60 input  -57.11 | X-H torsion

> <Gold.Protein.ActiveResidues>
 VAL166  LYS551  ARG553  GLY616  TRP617  ASP618  TYR619  PRO620  LYS621  CYS622 
 ASP623  PHE694  ASN695  SER759  ASP760  ASP761  ALA762  ILE779  LEU786  VAL792 
 PHE793  MET794  SER795  GLU796  ALA797  LYS798  CYS799  TRP800  GLU811  SER814 

> <Gold.Protein.RotatedAtoms>
  152.1594  134.8924  160.0542 H   0  0  0  0  0  0  0  0  0  0  0  0  # atno 6907 bound_to 6896
  151.9926  133.3791  159.4158 H   0  0  0  0  0  0  0  0  0  0  0  0  # atno 6908 bound_to 6896
  150.6886  134.3843  159.5091 H   0  0  0  0  0  0  0  0  0  0  0  0  # atno 6909 bound_to 6896
  145.8126  139.3040  143.1090 H   0  0  0  0  0  0  0  0  0  0  0  0  # atno 7974 bound_to 7965
  155.0961  140.0395  157.2683 H   0  0  0  0  0  0  0  0  0  0  0  0  # atno 8008 bound_to 7997
  154.6794  140.2629  155.6899 H   0  0  0  0  0  0  0  0  0  0  0  0  # atno 8009 bound_to 7997
  156.2689  140.2781  156.1333 H   0  0  0  0  0  0  0  0  0  0  0  0  # atno 8010 bound_to 7997
  140.6560  143.2599  151.4584 H   0  0  0  0  0  0  0  0  0  0  0  0  # atno 10167 bound_to 10162
  156.5899  130.4796  149.6284 H   0  0  0  0  0  0  0  0  0  0  0  0  # atno 10718 bound_to 10713
  152.9801  135.5980  154.3744 H   0  0  0  0  0  0  0  0  0  0  0  0  # atno 10763 bound_to 10752
  154.3415  135.2767  155.2422 H   0  0  0  0  0  0  0  0  0  0  0  0  # atno 10764 bound_to 10752
  154.4502  135.5991  153.6241 H   0  0  0  0  0  0  0  0  0  0  0  0  # atno 10765 bound_to 10752
  140.9134  133.7446  156.0701 H   0  0  0  0  0  0  0  0  0  0  0  0  # atno 11005 bound_to 11000
  145.9761  140.8721  143.0138 LP  0  0  0  0  0  0  0  0  0  0  0  0  # atno 17320 bound_to 7965
  144.6756  140.2014  143.7386 LP  0  0  0  0  0  0  0  0  0  0  0  0  # atno 17321 bound_to 7965
  139.5783  144.1768  152.1933 LP  0  0  0  0  0  0  0  0  0  0  0  0  # atno 17342 bound_to 10162
  140.1085  144.5477  150.6940 LP  0  0  0  0  0  0  0  0  0  0  0  0  # atno 17343 bound_to 10162
  156.2559  130.6934  151.1687 LP  0  0  0  0  0  0  0  0  0  0  0  0  # atno 17370 bound_to 10713
  157.7306  131.0615  150.5717 LP  0  0  0  0  0  0  0  0  0  0  0  0  # atno 17371 bound_to 10713
  140.8081  134.3431  157.5420 LP  0  0  0  0  0  0  0  0  0  0  0  0  # atno 17394 bound_to 11000
  139.8761  134.9238  156.3333 LP  0  0  0  0  0  0  0  0  0  0  0  0  # atno 17395 bound_to 11000

$$$$
