AV-unprocessed.smi:1978|AV-procd|sdf|8002|dock9
  -GOLD-   2272010183D 1   1.00000     0.00000
 Structure written by MMmdl.
 44 45  0  0  0  0  0  0  0  0  3 V2000
  150.8673  141.1487  155.9312 C   0  0  0  0  0  0  0  0  0  0  0  0
  151.2996  139.8036  155.4570 C   0  0  0  0  0  0  0  0  0  0  0  0
  150.6292  138.6297  155.2607 C   0  0  0  0  0  0  0  0  0  0  0  0
  151.6460  137.7475  154.8036 C   0  0  0  0  0  0  0  0  0  0  0  0
  151.4790  136.4606  154.4614 N   0  5  0  0  0  0  0  0  0  0  0  0
  150.6092  135.6828  155.1444 C   0  0  0  0  0  0  0  0  0  0  0  0
  150.6098  135.4761  156.3602 O   0  0  0  0  0  0  0  0  0  0  0  0
  149.6817  135.1023  154.3698 N   0  0  0  0  0  0  0  0  0  0  0  0
  148.6360  134.1968  154.8334 C   0  0  0  0  0  0  0  0  0  0  0  0
  147.2438  134.8772  154.8652 C   0  0  2  0  0  0  0  0  0  0  0  0
  146.1701  133.9944  155.5343 C   0  0  0  0  0  0  0  0  0  0  0  0
  146.7986  135.3619  153.5191 N   0  3  2  0  0  0  0  0  0  0  0  0
  145.9287  136.5736  153.5721 C   0  0  0  0  0  0  0  0  0  0  0  0
  145.7325  137.1847  152.1772 C   0  0  0  0  0  0  0  0  0  0  0  0
  145.1357  136.1542  151.2160 C   0  0  0  0  0  0  0  0  0  0  0  0
  146.0167  134.9011  151.1923 C   0  0  0  0  0  0  0  0  0  0  0  0
  146.2240  134.3167  152.6068 C   0  0  1  0  0  0  0  0  0  0  0  0
  147.0844  133.0410  152.5024 C   0  0  0  0  0  0  0  0  0  0  0  0
  152.8256  138.3385  154.7138 N   0  0  0  0  0  0  0  0  0  0  0  0
  152.6133  139.6559  155.1370 O   0  0  0  0  0  0  0  0  0  0  0  0
  150.3246  141.6770  155.1474 H   0  0  0  0  0  0  0  0  0  0  0  0
  151.7241  141.7579  156.2198 H   0  0  0  0  0  0  0  0  0  0  0  0
  150.2107  141.0597  156.7967 H   0  0  0  0  0  0  0  0  0  0  0  0
  149.5800  138.4316  155.4212 H   0  0  0  0  0  0  0  0  0  0  0  0
  149.7144  135.2994  153.3801 H   0  0  0  0  0  0  0  0  0  0  0  0
  148.6304  133.3092  154.1998 H   0  0  0  0  0  0  0  0  0  0  0  0
  148.9212  133.8615  155.8303 H   0  0  0  0  0  0  0  0  0  0  0  0
  147.3043  135.7443  155.5193 H   0  0  0  0  0  0  0  0  0  0  0  0
  146.3838  133.8573  156.5949 H   0  0  0  0  0  0  0  0  0  0  0  0
  146.1164  132.9999  155.0923 H   0  0  0  0  0  0  0  0  0  0  0  0
  145.1828  134.4516  155.4639 H   0  0  0  0  0  0  0  0  0  0  0  0
  144.9578  136.3163  153.9971 H   0  0  0  0  0  0  0  0  0  0  0  0
  146.3603  137.3384  154.2151 H   0  0  0  0  0  0  0  0  0  0  0  0
  145.0799  138.0561  152.2401 H   0  0  0  0  0  0  0  0  0  0  0  0
  146.6893  137.5402  151.7923 H   0  0  0  0  0  0  0  0  0  0  0  0
  144.1256  135.8914  151.5329 H   0  0  0  0  0  0  0  0  0  0  0  0
  145.0511  136.5760  150.2141 H   0  0  0  0  0  0  0  0  0  0  0  0
  145.5602  134.1548  150.5410 H   0  0  0  0  0  0  0  0  0  0  0  0
  146.9833  135.1449  150.7487 H   0  0  0  0  0  0  0  0  0  0  0  0
  145.2457  134.0267  152.9919 H   0  0  0  0  0  0  0  0  0  0  0  0
  146.7035  132.3767  151.7261 H   0  0  0  0  0  0  0  0  0  0  0  0
  147.0749  132.4627  153.4261 H   0  0  0  0  0  0  0  0  0  0  0  0
  148.1201  133.2759  152.2545 H   0  0  0  0  0  0  0  0  0  0  0  0
  147.6503  135.6610  153.0663 H   0  0  0  0  0  0  0  0  0  0  0  0
  1  2  1  0  0  0  0
  1 21  1  0  0  0  0
  1 22  1  0  0  0  0
  1 23  1  0  0  0  0
  2 20  1  0  0  0  0
  2  3  2  0  0  0  0
  3  4  1  0  0  0  0
  3 24  1  0  0  0  0
  4  5  1  0  0  0  0
  4 19  2  0  0  0  0
  5  6  1  0  0  0  0
  6  7  2  0  0  0  0
  6  8  1  0  0  0  0
  8  9  1  0  0  0  0
  8 25  1  0  0  0  0
  9 10  1  0  0  0  0
  9 26  1  0  0  0  0
  9 27  1  0  0  0  0
 10 11  1  0  0  0  0
 10 12  1  0  0  0  0
 10 28  1  0  0  0  0
 11 29  1  0  0  0  0
 11 30  1  0  0  0  0
 11 31  1  0  0  0  0
 12 17  1  0  0  0  0
 12 13  1  0  0  0  0
 12 44  1  0  0  0  0
 13 14  1  0  0  0  0
 13 32  1  0  0  0  0
 13 33  1  0  0  0  0
 14 15  1  0  0  0  0
 14 34  1  0  0  0  0
 14 35  1  0  0  0  0
 15 16  1  0  0  0  0
 15 36  1  0  0  0  0
 15 37  1  0  0  0  0
 16 17  1  0  0  0  0
 16 38  1  0  0  0  0
 16 39  1  0  0  0  0
 17 18  1  0  0  0  0
 17 40  1  0  0  0  0
 18 41  1  0  0  0  0
 18 42  1  0  0  0  0
 18 43  1  0  0  0  0
 19 20  1  0  0  0  0
M  CHG  1   5  -1
M  CHG  1  12   1
M  END
> <s_m_source_file>
AV-unprocessed.smi

> <i_m_source_file_index>
1978

> <i_lp_mmshare_version>
43012

> <i_f3d_flags>
0

> <s_epik_input>
W0NIM11jMVtjSF1jKG5vMSlbTkhdQyg9TylbTkhdW0NIMl1bQ0BIXShbQ0gzXSlOMltDSDJdW0NIMl1bQ0gyXVtDSDJdW0NASF0yW0NIM10=

> <s_epik_cmdline>
J2VwaWtfcHl0aG9uJywgJy1waCcsICc3LjAnLCAnLXRuJywgJzgnLCAnLW1hJywgJzIwMCcsICctbWV0YWxfYmluZGluZycsICctaW1hZScsICc8aW5maWxlLm1hZT4nLCAnLW9tYWUnLCAnPG91dGZpbGUubWFlPic=

> <r_epik_Ionization_Penalty>
6.22372

> <r_epik_Ionization_Penalty_Charging>
6.22362

> <r_epik_Ionization_Penalty_Neutral>
9.65074e-05

> <r_epik_State_Penalty>
6.22363

> <r_epik_Charging_Adjusted_Penalty>
12.4472

> <i_epik_Tot_Q>
0

> <i_epik_Tot_abs_Q>
2

> <r_epik_Metal_State_Penalty>
2.16675

> <b_epik_Metal_Only>
1

> <s_lp_Force_Field>
OPLS_2005

> <r_lp_Energy>
9.77909

> <b_lp_Chiralities_Consistent>
1

> <s_lp_Variant>
AV-unprocessed.smi:1978-11

> <Gold.Version>
5.8.1

> <Gold.Id.Protein>
6NUR|6NUR_protein|mol2

> <Gold.PLP.Fitness>
44.1280

> <Gold.PLP.PLP>
-30.4402

> <Gold.PLP.part.hbond>
-5.3218

> <Gold.PLP.part.metal>
0.0000

> <Gold.PLP.part.buried>
-3.4121

> <Gold.PLP.part.nonpolar>
-23.3384

> <Gold.PLP.part.repulsive>
1.0885

> <Gold.PLP.ligand.clash>
0.0000

> <Gold.PLP.ligand.torsion>
1.3188

> <Gold.PLP.Chemscore.Hbond>
5.3881

> <Gold.PLP.Chemscore.CHOScore>
0.0000

> <Gold.PLP.Chemscore.Metal>
0.0000

> <Gold.Chemscore.Hbonds>
donor molecule, donor type, donor heavy atom, donor atom, acceptor molecule, acceptor atom, score
      L1  H     8    25       P1  7948  0.40
      L1  H    12    44       P1  7948  2.00
      P1  H  7997  8010       L1    20  0.94
      P1  H 10752 10763       L1     5  2.00

> <Gold.PLP.Chemscore.Internal.Correction>
0.1612

> <Gold.Rescore>
     Score         DG    S(hbond)    S(metal)    S(lipo)     H(rot)  DE(clash)    DE(int)     intcor
     15.11     -16.69       2.54        0.00      56.65       1.52       0.11       1.47       ----

> <Gold.Chemscore.Fitness>
15.1117

> <Gold.Chemscore.DG>
-16.6942

> <Gold.Chemscore.ZeroCoef>
-5.4800

> <Gold.Chemscore.Hbond>
2.5375

> <Gold.Chemscore.Metal>
0.0000

> <Gold.Chemscore.Lipo>
56.6466

> <Gold.Chemscore.Internal_Hbond>
0.0000

> <Gold.Chemscore.DEClash>
0.1080

> <Gold.Chemscore.DEInternal>
1.4746

> <Gold.Chemscore.Rot>
1.5190

> <Gold.Chemscore.Internal.Correction>
   9.000000E+99

> <Gold.Chemscore.Hbonds>
donor molecule, donor type, donor heavy atom, donor atom, acceptor molecule, acceptor atom, score
      L1  H     8    25       P1  7948  0.01
      L1  H    12    44       P1  7948  1.00
      P1  H  7997  8010       L1    20  0.36
      P1  H 10752 10763       L1     5  0.45

> <Gold.Chemscore.Hbond.Weighted>
-8.4752

> <Gold.Chemscore.Metal.Weighted>
-0.0000

> <Gold.Chemscore.Lipo.Weighted>
-6.6276

> <Gold.Chemscore.Internal_Hbond.Weighted>
0.0000

> <Gold.Chemscore.DEClash.Weighted>
0.1080

> <Gold.Chemscore.DEInternal.Weighted>
1.4746

> <Gold.Chemscore.Rot.Weighted>
3.8886

> <Gold.Chemscore.Internal.Correction.Weighted>
   9.000000E+99

> <Gold.Protein.RotatedTorsions>
[ 6907 6896 6895 6894 ] final  -24.25 input  -60.11 | X-H torsion
[ 7974 7965 7964 7962 ] final  -62.85 input  175.53 | X-H torsion
[ 8008 7997 7996 7995 ] final   97.89 input   59.86 | X-H torsion
[ 10167 10162 10161 10158 ] final -179.14 input  -65.29 | X-H torsion
[ 10718 10713 10712 10709 ] final  162.80 input   66.30 | X-H torsion
[ 10763 10752 10751 10750 ] final   49.53 input  -60.55 | X-H torsion
[ 11005 11000 10999 10996 ] final  -41.27 input  -57.11 | X-H torsion

> <Gold.Protein.ActiveResidues>
 VAL166  LYS551  ARG553  GLY616  TRP617  ASP618  TYR619  PRO620  LYS621  CYS622 
 ASP623  PHE694  ASN695  SER759  ASP760  ASP761  ALA762  ILE779  LEU786  VAL792 
 PHE793  MET794  SER795  GLU796  ALA797  LYS798  CYS799  TRP800  GLU811  SER814 

> <Gold.Protein.RotatedAtoms>
  151.1922  135.0407  159.8837 H   0  0  0  0  0  0  0  0  0  0  0  0  # atno 6907 bound_to 6896
  152.5438  134.0943  159.8300 H   0  0  0  0  0  0  0  0  0  0  0  0  # atno 6908 bound_to 6896
  151.1073  133.5152  159.2639 H   0  0  0  0  0  0  0  0  0  0  0  0  # atno 6909 bound_to 6896
  145.7862  140.8735  143.0304 H   0  0  0  0  0  0  0  0  0  0  0  0  # atno 7974 bound_to 7965
  156.0948  140.3252  155.7863 H   0  0  0  0  0  0  0  0  0  0  0  0  # atno 8008 bound_to 7997
  155.4936  140.0563  157.2967 H   0  0  0  0  0  0  0  0  0  0  0  0  # atno 8009 bound_to 7997
  154.4660  140.1989  156.0134 H   0  0  0  0  0  0  0  0  0  0  0  0  # atno 8010 bound_to 7997
  139.5400  144.2390  152.0874 H   0  0  0  0  0  0  0  0  0  0  0  0  # atno 10167 bound_to 10162
  157.1174  131.0483  151.2430 H   0  0  0  0  0  0  0  0  0  0  0  0  # atno 10718 bound_to 10713
  152.9786  135.5908  154.4104 H   0  0  0  0  0  0  0  0  0  0  0  0  # atno 10763 bound_to 10752
  154.3740  135.2767  155.2252 H   0  0  0  0  0  0  0  0  0  0  0  0  # atno 10764 bound_to 10752
  154.4195  135.6062  153.6056 H   0  0  0  0  0  0  0  0  0  0  0  0  # atno 10765 bound_to 10752
  141.0234  133.6852  156.2435 H   0  0  0  0  0  0  0  0  0  0  0  0  # atno 11005 bound_to 11000
  144.6788  140.0059  143.7484 LP  0  0  0  0  0  0  0  0  0  0  0  0  # atno 17320 bound_to 7965
  146.0023  139.3101  143.0920 LP  0  0  0  0  0  0  0  0  0  0  0  0  # atno 17321 bound_to 7965
  140.1867  144.4791  150.6500 LP  0  0  0  0  0  0  0  0  0  0  0  0  # atno 17342 bound_to 10162
  140.6625  143.2257  151.5822 LP  0  0  0  0  0  0  0  0  0  0  0  0  # atno 17343 bound_to 10162
  157.4506  130.7596  149.7148 LP  0  0  0  0  0  0  0  0  0  0  0  0  # atno 17370 bound_to 10713
  155.9836  130.3999  150.3354 LP  0  0  0  0  0  0  0  0  0  0  0  0  # atno 17371 bound_to 10713
  140.6533  134.5044  157.5579 LP  0  0  0  0  0  0  0  0  0  0  0  0  # atno 17394 bound_to 11000
  139.9160  134.8244  156.1364 LP  0  0  0  0  0  0  0  0  0  0  0  0  # atno 17395 bound_to 11000

$$$$
