AV-unprocessed.smi:558|AV-procd|sdf|2922|dock8
  -GOLD-   2262023413D 1   1.00000     0.00000
 Structure written by MMmdl.
 36 37  0  0  0  0  0  0  0  0  1 V2000
  151.1139  144.7466  159.1855 C   0  0  0  0  0  0  0  0  0  0  0  0
  151.8816  143.4603  159.2682 C   0  0  0  0  0  0  0  0  0  0  0  0
  153.2207  143.2590  159.7045 C   0  0  0  0  0  0  0  0  0  0  0  0
  153.4197  141.9134  159.5753 C   0  0  0  0  0  0  0  0  0  0  0  0
  154.6300  141.0895  159.8707 C   0  0  0  0  0  0  0  0  0  0  0  0
  152.2407  141.3781  159.0854 N   0  0  0  0  0  0  0  0  0  0  0  0
  151.9232  139.9962  158.7502 C   0  0  0  0  0  0  0  0  0  0  0  0
  151.5516  139.8429  157.2722 C   0  0  0  0  0  0  0  0  0  0  0  0
  152.4027  140.0231  156.4021 O   0  0  0  0  0  0  0  0  0  0  0  0
  150.2802  139.5096  157.0043 N   0  0  0  0  0  0  0  0  0  0  0  0
  149.7427  139.2196  155.6822 C   0  0  0  0  0  0  0  0  0  0  0  0
  150.2875  137.8770  155.1679 C   0  0  2  0  0  0  0  0  0  0  0  0
  150.3073  136.7652  156.1999 C   0  0  0  0  0  0  0  0  0  0  0  0
  151.2979  135.7819  155.5839 C   0  0  0  0  0  0  0  0  0  0  0  0
  152.2152  136.5703  154.8293 O   0  0  0  0  0  0  0  0  0  0  0  0
  151.7569  137.9170  154.7519 C   0  0  0  0  0  0  0  0  0  0  0  0
  151.3004  142.3307  158.9008 N   0  0  0  0  0  0  0  0  0  0  0  0
  151.6568  145.5606  159.6662 H   0  0  0  0  0  0  0  0  0  0  0  0
  150.1440  144.6597  159.6762 H   0  0  0  0  0  0  0  0  0  0  0  0
  150.9395  145.0317  158.1477 H   0  0  0  0  0  0  0  0  0  0  0  0
  153.9294  143.9932  160.0580 H   0  0  0  0  0  0  0  0  0  0  0  0
  155.4544  141.7169  160.2097 H   0  0  0  0  0  0  0  0  0  0  0  0
  154.9634  140.5526  158.9828 H   0  0  0  0  0  0  0  0  0  0  0  0
  154.4219  140.3593  160.6530 H   0  0  0  0  0  0  0  0  0  0  0  0
  152.7763  139.3583  158.9813 H   0  0  0  0  0  0  0  0  0  0  0  0
  151.0972  139.6610  159.3797 H   0  0  0  0  0  0  0  0  0  0  0  0
  149.6506  139.3924  157.7847 H   0  0  0  0  0  0  0  0  0  0  0  0
  148.6544  139.1862  155.7437 H   0  0  0  0  0  0  0  0  0  0  0  0
  149.9986  140.0159  154.9809 H   0  0  0  0  0  0  0  0  0  0  0  0
  149.6942  137.5476  154.3130 H   0  0  0  0  0  0  0  0  0  0  0  0
  150.6908  137.1359  157.1517 H   0  0  0  0  0  0  0  0  0  0  0  0
  149.3262  136.3230  156.3778 H   0  0  0  0  0  0  0  0  0  0  0  0
  151.8116  135.1832  156.3365 H   0  0  0  0  0  0  0  0  0  0  0  0
  150.7848  135.1019  154.9030 H   0  0  0  0  0  0  0  0  0  0  0  0
  151.8975  138.3287  153.7522 H   0  0  0  0  0  0  0  0  0  0  0  0
  152.3411  138.5184  155.4496 H   0  0  0  0  0  0  0  0  0  0  0  0
  1  2  1  0  0  0  0
  1 18  1  0  0  0  0
  1 19  1  0  0  0  0
  1 20  1  0  0  0  0
  2 17  2  0  0  0  0
  2  3  1  0  0  0  0
  3  4  2  0  0  0  0
  3 21  1  0  0  0  0
  4  5  1  0  0  0  0
  4  6  1  0  0  0  0
  5 22  1  0  0  0  0
  5 23  1  0  0  0  0
  5 24  1  0  0  0  0
  6  7  1  0  0  0  0
  6 17  1  0  0  0  0
  7  8  1  0  0  0  0
  7 25  1  0  0  0  0
  7 26  1  0  0  0  0
  8  9  2  0  0  0  0
  8 10  1  0  0  0  0
 10 11  1  0  0  0  0
 10 27  1  0  0  0  0
 11 12  1  0  0  0  0
 11 28  1  0  0  0  0
 11 29  1  0  0  0  0
 12 16  1  0  0  0  0
 12 13  1  0  0  0  0
 12 30  1  0  0  0  0
 13 14  1  0  0  0  0
 13 31  1  0  0  0  0
 13 32  1  0  0  0  0
 14 15  1  0  0  0  0
 14 33  1  0  0  0  0
 14 34  1  0  0  0  0
 15 16  1  0  0  0  0
 16 35  1  0  0  0  0
 16 36  1  0  0  0  0
M  END
> <s_m_source_file>
AV-unprocessed.smi

> <i_m_source_file_index>
558

> <i_lp_mmshare_version>
43012

> <i_f3d_flags>
0

> <s_epik_input>
W0NIM11jMVtjSF1jKFtDSDNdKW4objEpW0NIMl1DKD1PKVtOSF1bQ0gyXVtDQEBIXTJbQ0gyXVtDSDJdT1tDSDJdMg==

> <s_epik_cmdline>
J2VwaWtfcHl0aG9uJywgJy1waCcsICc3LjAnLCAnLXRuJywgJzgnLCAnLW1hJywgJzIwMCcsICctbWV0YWxfYmluZGluZycsICctaW1hZScsICc8aW5maWxlLm1hZT4nLCAnLW9tYWUnLCAnPG91dGZpbGUubWFlPic=

> <r_lp_tautomer_probability>
1

> <r_epik_Ionization_Penalty>
0.000376629

> <r_epik_Ionization_Penalty_Charging>
0

> <r_epik_Ionization_Penalty_Neutral>
0.000376629

> <r_epik_State_Penalty>
-0

> <r_epik_Charging_Adjusted_Penalty>
0

> <i_epik_Tot_Q>
0

> <i_epik_Tot_abs_Q>
0

> <r_epik_Metal_State_Penalty>
-0

> <b_epik_Metal_Only>
0

> <s_lp_Force_Field>
OPLS_2005

> <r_lp_Energy>
17.1643

> <b_lp_Chiralities_Consistent>
1

> <s_lp_Variant>
AV-unprocessed.smi:558-1

> <Gold.Version>
5.8.1

> <Gold.Id.Protein>
6NUR|6NUR_protein|mol2

> <Gold.PLP.Fitness>
43.8590

> <Gold.PLP.PLP>
-38.2707

> <Gold.PLP.part.hbond>
-2.0000

> <Gold.PLP.part.metal>
0.0000

> <Gold.PLP.part.buried>
-4.1221

> <Gold.PLP.part.nonpolar>
-32.4451

> <Gold.PLP.part.repulsive>
0.2401

> <Gold.PLP.ligand.clash>
0.0000

> <Gold.PLP.ligand.torsion>
0.2110

> <Gold.PLP.Chemscore.Hbond>
2.0000

> <Gold.PLP.Chemscore.CHOScore>
0.0000

> <Gold.PLP.Chemscore.Metal>
0.0000

> <Gold.Chemscore.Hbonds>
donor molecule, donor type, donor heavy atom, donor atom, acceptor molecule, acceptor atom, score
      P1  H  7997  8008       L1     9  1.00
      P1  H 10752 10764       L1    15  0.18

> <Gold.PLP.Chemscore.Internal.Correction>
0.0104

> <Gold.Rescore>
     Score         DG    S(hbond)    S(metal)    S(lipo)     H(rot)  DE(clash)    DE(int)     intcor
     17.07     -18.95       1.99        0.00      92.04       1.54       0.01       1.87       ----

> <Gold.Chemscore.Fitness>
17.0740

> <Gold.Chemscore.DG>
-18.9537

> <Gold.Chemscore.ZeroCoef>
-5.4800

> <Gold.Chemscore.Hbond>
1.9892

> <Gold.Chemscore.Metal>
0.0000

> <Gold.Chemscore.Lipo>
92.0422

> <Gold.Chemscore.Internal_Hbond>
0.0000

> <Gold.Chemscore.DEClash>
0.0127

> <Gold.Chemscore.DEInternal>
1.8670

> <Gold.Chemscore.Rot>
1.5387

> <Gold.Chemscore.Internal.Correction>
   9.000000E+99

> <Gold.Chemscore.Hbonds>
donor molecule, donor type, donor heavy atom, donor atom, acceptor molecule, acceptor atom, score
      P1  H  7997  8008       L1     9  0.99
      P1  H 10752 10764       L1    15  0.02

> <Gold.Chemscore.Hbond.Weighted>
-6.6439

> <Gold.Chemscore.Metal.Weighted>
-0.0000

> <Gold.Chemscore.Lipo.Weighted>
-10.7689

> <Gold.Chemscore.Internal_Hbond.Weighted>
0.0000

> <Gold.Chemscore.DEClash.Weighted>
0.0127

> <Gold.Chemscore.DEInternal.Weighted>
1.8670

> <Gold.Chemscore.Rot.Weighted>
3.9392

> <Gold.Chemscore.Internal.Correction.Weighted>
   9.000000E+99

> <Gold.Protein.RotatedTorsions>
[ 6907 6896 6895 6894 ] final  -58.23 input  -60.11 | X-H torsion
[ 7974 7965 7964 7962 ] final -160.78 input  175.53 | X-H torsion
[ 8008 7997 7996 7995 ] final  -42.16 input   59.86 | X-H torsion
[ 10167 10162 10161 10158 ] final  -44.10 input  -65.29 | X-H torsion
[ 10718 10713 10712 10709 ] final   99.15 input   66.30 | X-H torsion
[ 10763 10752 10751 10750 ] final  -63.92 input  -60.55 | X-H torsion
[ 11005 11000 10999 10996 ] final  -24.59 input  -57.11 | X-H torsion

> <Gold.Protein.ActiveResidues>
 VAL166  LYS551  ARG553  GLY616  TRP617  ASP618  TYR619  PRO620  LYS621  CYS622 
 ASP623  PHE694  ASN695  SER759  ASP760  ASP761  ALA762  ILE779  LEU786  VAL792 
 PHE793  MET794  SER795  GLU796  ALA797  LYS798  CYS799  TRP800  GLU811  SER814 

> <Gold.Protein.RotatedAtoms>
  150.8023  134.7125  159.6611 H   0  0  0  0  0  0  0  0  0  0  0  0  # atno 6907 bound_to 6896
  152.4141  134.6069  160.0025 H   0  0  0  0  0  0  0  0  0  0  0  0  # atno 6908 bound_to 6896
  151.6304  133.3295  159.3143 H   0  0  0  0  0  0  0  0  0  0  0  0  # atno 6909 bound_to 6896
  144.7414  140.3492  143.6119 H   0  0  0  0  0  0  0  0  0  0  0  0  # atno 7974 bound_to 7965
  154.4000  140.1481  156.3309 H   0  0  0  0  0  0  0  0  0  0  0  0  # atno 8008 bound_to 7997
  155.8444  140.3460  155.5631 H   0  0  0  0  0  0  0  0  0  0  0  0  # atno 8009 bound_to 7997
  155.8052  140.0876  157.1925 H   0  0  0  0  0  0  0  0  0  0  0  0  # atno 8010 bound_to 7997
  140.6909  143.2948  151.3447 H   0  0  0  0  0  0  0  0  0  0  0  0  # atno 10167 bound_to 10162
  157.6882  131.0661  150.4905 H   0  0  0  0  0  0  0  0  0  0  0  0  # atno 10718 bound_to 10713
  154.3223  135.6193  153.5513 H   0  0  0  0  0  0  0  0  0  0  0  0  # atno 10763 bound_to 10752
  152.9819  135.5727  154.5056 H   0  0  0  0  0  0  0  0  0  0  0  0  # atno 10764 bound_to 10752
  154.4726  135.2860  155.1608 H   0  0  0  0  0  0  0  0  0  0  0  0  # atno 10765 bound_to 10752
  140.8859  133.7621  156.0360 H   0  0  0  0  0  0  0  0  0  0  0  0  # atno 11005 bound_to 11000
  145.7294  139.1732  143.2439 LP  0  0  0  0  0  0  0  0  0  0  0  0  # atno 17320 bound_to 7965
  146.1218  140.7299  142.9454 LP  0  0  0  0  0  0  0  0  0  0  0  0  # atno 17321 bound_to 7965
  139.6312  144.0718  152.2477 LP  0  0  0  0  0  0  0  0  0  0  0  0  # atno 17342 bound_to 10162
  140.0193  144.6165  150.7580 LP  0  0  0  0  0  0  0  0  0  0  0  0  # atno 17343 bound_to 10162
  156.5232  130.4167  149.6240 LP  0  0  0  0  0  0  0  0  0  0  0  0  # atno 17370 bound_to 10713
  156.3135  130.7242  151.2140 LP  0  0  0  0  0  0  0  0  0  0  0  0  # atno 17371 bound_to 10713
  140.8405  134.3072  157.5315 LP  0  0  0  0  0  0  0  0  0  0  0  0  # atno 17394 bound_to 11000
  139.8724  134.9413  156.3794 LP  0  0  0  0  0  0  0  0  0  0  0  0  # atno 17395 bound_to 11000

$$$$
