AV-unprocessed.smi:1290|AV-procd|sdf|5390|dock2
  -GOLD-   22720 4543D 1   1.00000     0.00000
 Structure written by MMmdl.
 38 40  0  0  0  0  0  0  0  0  1 V2000
  154.7818  139.7759  161.0397 C   0  0  0  0  0  0  0  0  0  0  0  0
  153.8043  140.7214  160.4682 N   0  0  0  0  0  0  0  0  0  0  0  0
  153.3131  140.4688  159.2143 C   0  0  0  0  0  0  0  0  0  0  0  0
  153.6262  139.5017  158.5189 O   0  0  0  0  0  0  0  0  0  0  0  0
  152.3535  141.4722  158.7384 C   0  0  0  0  0  0  0  0  0  0  0  0
  151.9881  142.5512  159.4738 C   0  0  0  0  0  0  0  0  0  0  0  0
  151.0745  143.3436  158.7870 N   0  0  0  0  0  0  0  0  0  0  0  0
  150.9350  142.6795  157.6395 C   0  0  0  0  0  0  0  0  0  0  0  0
  151.6642  141.5510  157.5279 N   0  0  0  0  0  0  0  0  0  0  0  0
  151.6885  140.6593  156.3775 C   0  0  0  0  0  0  0  0  0  0  0  0
  150.2781  140.2218  155.9312 C   0  0  1  0  0  0  0  0  0  0  0  0
  150.3089  139.7306  154.6051 O   0  0  0  0  0  0  0  0  0  0  0  0
  149.6825  139.2106  156.8979 C   0  0  0  0  0  0  0  0  0  0  0  0
  148.3698  138.7256  156.7068 C   0  0  0  0  0  0  0  0  0  0  0  0
  147.8225  137.7860  157.6018 C   0  0  0  0  0  0  0  0  0  0  0  0
  148.5847  137.3246  158.6926 C   0  0  0  0  0  0  0  0  0  0  0  0
  147.9146  136.1739  159.7900 Cl  0  0  0  0  0  0  0  0  0  0  0  0
  149.8954  137.8026  158.8859 C   0  0  0  0  0  0  0  0  0  0  0  0
  150.4432  138.7420  157.9906 C   0  0  0  0  0  0  0  0  0  0  0  0
  152.5576  142.7149  160.7631 N   0  0  0  0  0  0  0  0  0  0  0  0
  152.1727  143.8754  161.5711 C   0  0  0  0  0  0  0  0  0  0  0  0
  153.4645  141.8093  161.2539 C   0  0  0  0  0  0  0  0  0  0  0  0
  153.9624  141.9697  162.3721 O   0  0  0  0  0  0  0  0  0  0  0  0
  154.9852  138.8983  160.4253 H   0  0  0  0  0  0  0  0  0  0  0  0
  154.4341  139.3995  162.0032 H   0  0  0  0  0  0  0  0  0  0  0  0
  155.7388  140.2747  161.1999 H   0  0  0  0  0  0  0  0  0  0  0  0
  150.2818  143.0264  156.8521 H   0  0  0  0  0  0  0  0  0  0  0  0
  152.2307  141.1349  155.5614 H   0  0  0  0  0  0  0  0  0  0  0  0
  152.2743  139.7796  156.6481 H   0  0  0  0  0  0  0  0  0  0  0  0
  149.6331  141.1014  155.9166 H   0  0  0  0  0  0  0  0  0  0  0  0
  149.7161  138.9973  154.5434 H   0  0  0  0  0  0  0  0  0  0  0  0
  147.7795  139.0724  155.8711 H   0  0  0  0  0  0  0  0  0  0  0  0
  146.8177  137.4201  157.4495 H   0  0  0  0  0  0  0  0  0  0  0  0
  150.4824  137.4494  159.7210 H   0  0  0  0  0  0  0  0  0  0  0  0
  151.4499  139.1004  158.1474 H   0  0  0  0  0  0  0  0  0  0  0  0
  151.7665  143.5570  162.5323 H   0  0  0  0  0  0  0  0  0  0  0  0
  151.4135  144.4924  161.0907 H   0  0  0  0  0  0  0  0  0  0  0  0
  153.0384  144.5113  161.7605 H   0  0  0  0  0  0  0  0  0  0  0  0
  1  2  1  0  0  0  0
  1 24  1  0  0  0  0
  1 25  1  0  0  0  0
  1 26  1  0  0  0  0
  2 22  1  0  0  0  0
  2  3  1  0  0  0  0
  3  4  2  0  0  0  0
  3  5  1  0  0  0  0
  5  9  1  0  0  0  0
  5  6  2  0  0  0  0
  6  7  1  0  0  0  0
  6 20  1  0  0  0  0
  7  8  2  0  0  0  0
  8  9  1  0  0  0  0
  8 27  1  0  0  0  0
  9 10  1  0  0  0  0
 10 11  1  0  0  0  0
 10 28  1  0  0  0  0
 10 29  1  0  0  0  0
 11 12  1  0  0  0  0
 11 13  1  0  0  0  0
 11 30  1  0  0  0  0
 12 31  1  0  0  0  0
 13 19  1  0  0  0  0
 13 14  2  0  0  0  0
 14 15  1  0  0  0  0
 14 32  1  0  0  0  0
 15 16  2  0  0  0  0
 15 33  1  0  0  0  0
 16 17  1  0  0  0  0
 16 18  1  0  0  0  0
 18 19  2  0  0  0  0
 18 34  1  0  0  0  0
 19 35  1  0  0  0  0
 20 21  1  0  0  0  0
 20 22  1  0  0  0  0
 21 36  1  0  0  0  0
 21 37  1  0  0  0  0
 21 38  1  0  0  0  0
 22 23  2  0  0  0  0
M  END
> <s_m_source_file>
AV-unprocessed.smi

> <i_m_source_file_index>
1290

> <i_lp_mmshare_version>
43012

> <i_f3d_flags>
0

> <s_epik_input>
Tz1jMW4oW0NIM10pYyg9TyluKFtDSDNdKWMoYzEyKW5bY0hdbjJbQ0gyXVtDQEhdKFtPSF0pYzNbY0hdW2NIXWMoQ2wpW2NIXVtjSF0z

> <s_epik_cmdline>
J2VwaWtfcHl0aG9uJywgJy1waCcsICc3LjAnLCAnLXRuJywgJzgnLCAnLW1hJywgJzIwMCcsICctbWV0YWxfYmluZGluZycsICctaW1hZScsICc8aW5maWxlLm1hZT4nLCAnLW9tYWUnLCAnPG91dGZpbGUubWFlPic=

> <r_lp_tautomer_probability>
1

> <r_epik_Ionization_Penalty>
1.48293e-06

> <r_epik_Ionization_Penalty_Charging>
3.74189e-09

> <r_epik_Ionization_Penalty_Neutral>
1.47919e-06

> <r_epik_State_Penalty>
-0

> <r_epik_Charging_Adjusted_Penalty>
3.74189e-09

> <i_epik_Tot_Q>
0

> <i_epik_Tot_abs_Q>
0

> <r_epik_Metal_State_Penalty>
-0

> <b_epik_Metal_Only>
0

> <s_lp_Force_Field>
OPLS_2005

> <r_lp_Energy>
35.8921

> <b_lp_Chiralities_Consistent>
1

> <s_lp_Variant>
AV-unprocessed.smi:1290-2

> <Gold.Version>
5.8.1

> <Gold.Id.Protein>
6NUR|6NUR_protein|mol2

> <Gold.PLP.Fitness>
50.8349

> <Gold.PLP.PLP>
-42.2124

> <Gold.PLP.part.hbond>
-3.0000

> <Gold.PLP.part.metal>
0.0000

> <Gold.PLP.part.buried>
-6.5849

> <Gold.PLP.part.nonpolar>
-32.5552

> <Gold.PLP.part.repulsive>
0.0936

> <Gold.PLP.ligand.clash>
0.0000

> <Gold.PLP.ligand.torsion>
0.2048

> <Gold.PLP.Chemscore.Hbond>
2.0000

> <Gold.PLP.Chemscore.CHOScore>
0.9999

> <Gold.PLP.Chemscore.Metal>
0.0000

> <Gold.Chemscore.Hbonds>
donor molecule, donor type, donor heavy atom, donor atom, acceptor molecule, acceptor atom, score
      P1  H  7989  7998       L1    12  0.91
      P1  H  7997  8009       L1     4  1.00
      L1  C     8    27       P1  8028  1.00

> <Gold.PLP.Chemscore.Internal.Correction>
0.0326

> <Gold.Rescore>
     Score         DG    S(hbond)    S(metal)    S(lipo)     H(rot)  DE(clash)    DE(int)     intcor
     12.86     -13.16       1.87        0.00      59.12       2.15       0.05       0.24       ----

> <Gold.Chemscore.Fitness>
12.8608

> <Gold.Chemscore.DG>
-13.1565

> <Gold.Chemscore.ZeroCoef>
-5.4800

> <Gold.Chemscore.Hbond>
1.8733

> <Gold.Chemscore.Metal>
0.0000

> <Gold.Chemscore.Lipo>
59.1210

> <Gold.Chemscore.Internal_Hbond>
0.0000

> <Gold.Chemscore.DEClash>
0.0515

> <Gold.Chemscore.DEInternal>
0.2442

> <Gold.Chemscore.Rot>
2.1474

> <Gold.Chemscore.Internal.Correction>
   9.000000E+99

> <Gold.Chemscore.Hbonds>
donor molecule, donor type, donor heavy atom, donor atom, acceptor molecule, acceptor atom, score
      P1  H  7989  7998       L1    12  0.62
      P1  H  7997  8009       L1     4  0.73

> <Gold.Chemscore.Hbond.Weighted>
-6.2567

> <Gold.Chemscore.Metal.Weighted>
-0.0000

> <Gold.Chemscore.Lipo.Weighted>
-6.9172

> <Gold.Chemscore.Internal_Hbond.Weighted>
0.0000

> <Gold.Chemscore.DEClash.Weighted>
0.0515

> <Gold.Chemscore.DEInternal.Weighted>
0.2442

> <Gold.Chemscore.Rot.Weighted>
5.4974

> <Gold.Chemscore.Internal.Correction.Weighted>
   9.000000E+99

> <Gold.Protein.RotatedTorsions>
[ 6907 6896 6895 6894 ] final  163.30 input  -60.11 | X-H torsion
[ 7974 7965 7964 7962 ] final  158.09 input  175.53 | X-H torsion
[ 8008 7997 7996 7995 ] final  129.74 input   59.86 | X-H torsion
[ 10167 10162 10161 10158 ] final   27.58 input  -65.29 | X-H torsion
[ 10718 10713 10712 10709 ] final  129.35 input   66.30 | X-H torsion
[ 10763 10752 10751 10750 ] final -136.82 input  -60.55 | X-H torsion
[ 11005 11000 10999 10996 ] final   10.09 input  -57.11 | X-H torsion

> <Gold.Protein.ActiveResidues>
 VAL166  LYS551  ARG553  GLY616  TRP617  ASP618  TYR619  PRO620  LYS621  CYS622 
 ASP623  PHE694  ASN695  SER759  ASP760  ASP761  ALA762  ILE779  LEU786  VAL792 
 PHE793  MET794  SER795  GLU796  ALA797  LYS798  CYS799  TRP800  GLU811  SER814 

> <Gold.Protein.RotatedAtoms>
  151.9274  133.3601  159.3918 H   0  0  0  0  0  0  0  0  0  0  0  0  # atno 6907 bound_to 6896
  150.7024  134.4573  159.5373 H   0  0  0  0  0  0  0  0  0  0  0  0  # atno 6908 bound_to 6896
  152.2207  134.8415  160.0537 H   0  0  0  0  0  0  0  0  0  0  0  0  # atno 6909 bound_to 6896
  144.7866  139.7430  143.6238 H   0  0  0  0  0  0  0  0  0  0  0  0  # atno 7974 bound_to 7965
  156.2942  140.2613  156.2647 H   0  0  0  0  0  0  0  0  0  0  0  0  # atno 8008 bound_to 7997
  154.9753  140.0390  157.2272 H   0  0  0  0  0  0  0  0  0  0  0  0  # atno 8009 bound_to 7997
  154.7821  140.2797  155.6060 H   0  0  0  0  0  0  0  0  0  0  0  0  # atno 8010 bound_to 7997
  140.4926  144.0443  150.6302 H   0  0  0  0  0  0  0  0  0  0  0  0  # atno 10167 bound_to 10162
  157.5162  131.1097  150.9220 H   0  0  0  0  0  0  0  0  0  0  0  0  # atno 10718 bound_to 10713
  154.8675  135.3661  154.5124 H   0  0  0  0  0  0  0  0  0  0  0  0  # atno 10763 bound_to 10752
  153.5758  135.7019  153.5489 H   0  0  0  0  0  0  0  0  0  0  0  0  # atno 10764 bound_to 10752
  153.3501  135.4074  155.1602 H   0  0  0  0  0  0  0  0  0  0  0  0  # atno 10765 bound_to 10752
  140.5184  134.0583  155.7838 H   0  0  0  0  0  0  0  0  0  0  0  0  # atno 11005 bound_to 11000
  146.2100  139.5450  142.9687 LP  0  0  0  0  0  0  0  0  0  0  0  0  # atno 17320 bound_to 7965
  145.5906  141.0370  143.2072 LP  0  0  0  0  0  0  0  0  0  0  0  0  # atno 17321 bound_to 7965
  140.3716  143.2851  152.0271 LP  0  0  0  0  0  0  0  0  0  0  0  0  # atno 17342 bound_to 10162
  139.4854  144.6225  151.7227 LP  0  0  0  0  0  0  0  0  0  0  0  0  # atno 17343 bound_to 10162
  156.9845  130.5539  149.5298 LP  0  0  0  0  0  0  0  0  0  0  0  0  # atno 17370 bound_to 10713
  156.0322  130.5413  150.8563 LP  0  0  0  0  0  0  0  0  0  0  0  0  # atno 17371 bound_to 10713
  141.1347  133.9241  157.2459 LP  0  0  0  0  0  0  0  0  0  0  0  0  # atno 17394 bound_to 11000
  139.9619  135.0152  156.9284 LP  0  0  0  0  0  0  0  0  0  0  0  0  # atno 17395 bound_to 11000

$$$$
