AV-unprocessed.smi:1550|AV-procd|sdf|6229|dock6
  -GOLD-   22720 6403D 1   1.00000     0.00000
 Structure written by MMmdl.
 42 43  0  0  0  0  0  0  0  0  2 V2000
  148.0784  139.8444  155.4576 C   0  0  0  0  0  0  0  0  0  0  0  0
  149.1068  139.4632  156.5327 C   0  0  1  0  0  0  0  0  0  0  0  0
  149.3984  140.6404  157.2818 O   0  0  0  0  0  0  0  0  0  0  0  0
  150.3707  140.4871  158.3101 C   0  0  0  0  0  0  0  0  0  0  0  0
  151.0050  141.8545  158.5934 C   0  0  2  0  0  0  0  0  0  0  0  0
  151.7855  141.8619  159.9224 C   0  0  0  0  0  0  0  0  0  0  0  0
  152.3270  143.2645  160.2222 C   0  0  0  0  0  0  0  0  0  0  0  0
  151.1831  144.2822  160.1642 C   0  0  0  0  0  0  0  0  0  0  0  0
  150.4211  144.1533  158.8359 C   0  0  0  0  0  0  0  0  0  0  0  0
  149.9555  142.8174  158.6726 O   0  0  0  0  0  0  0  0  0  0  0  0
  148.5644  138.3632  157.4595 C   0  0  0  0  0  0  0  0  0  0  0  0
  147.5341  138.5665  158.1019 O   0  0  0  0  0  0  0  0  0  0  0  0
  149.2880  137.2272  157.4936 N   0  0  0  0  0  0  0  0  0  0  0  0
  149.1056  136.0822  158.2864 C   0  0  0  0  0  0  0  0  0  0  0  0
  148.3902  136.0515  159.4448 C   0  0  0  0  0  0  0  0  0  0  0  0
  148.2542  134.8395  160.2434 C   0  0  0  0  0  0  0  0  0  0  0  0
  147.4693  134.7510  161.5393 C   0  0  0  0  0  0  0  0  0  0  0  0
  148.0222  135.5319  162.4668 F   0  0  0  0  0  0  0  0  0  0  0  0
  146.2162  135.1623  161.3481 F   0  0  0  0  0  0  0  0  0  0  0  0
  147.4362  133.5024  162.0053 F   0  0  0  0  0  0  0  0  0  0  0  0
  148.9346  133.7702  159.6958 C   0  0  0  0  0  0  0  0  0  0  0  0
  149.6704  133.7191  158.5638 N   0  5  0  0  0  0  0  0  0  0  0  0
  149.7892  134.8569  157.8227 C   0  0  0  0  0  0  0  0  0  0  0  0
  150.4498  134.8834  156.7836 O   0  0  0  0  0  0  0  0  0  0  0  0
  147.7992  138.9810  154.8528 H   0  0  0  0  0  0  0  0  0  0  0  0
  148.4854  140.5992  154.7847 H   0  0  0  0  0  0  0  0  0  0  0  0
  147.1688  140.2542  155.8986 H   0  0  0  0  0  0  0  0  0  0  0  0
  150.0146  139.1183  156.0334 H   0  0  0  0  0  0  0  0  0  0  0  0
  149.9397  140.0815  159.2262 H   0  0  0  0  0  0  0  0  0  0  0  0
  151.1347  139.7863  157.9702 H   0  0  0  0  0  0  0  0  0  0  0  0
  151.6799  142.1105  157.7746 H   0  0  0  0  0  0  0  0  0  0  0  0
  151.1304  141.5437  160.7346 H   0  0  0  0  0  0  0  0  0  0  0  0
  152.6069  141.1457  159.8847 H   0  0  0  0  0  0  0  0  0  0  0  0
  152.8080  143.2870  161.2003 H   0  0  0  0  0  0  0  0  0  0  0  0
  153.0913  143.5275  159.4899 H   0  0  0  0  0  0  0  0  0  0  0  0
  150.4969  144.1099  160.9944 H   0  0  0  0  0  0  0  0  0  0  0  0
  151.5708  145.2943  160.2821 H   0  0  0  0  0  0  0  0  0  0  0  0
  149.5645  144.8276  158.8285 H   0  0  0  0  0  0  0  0  0  0  0  0
  151.0548  144.4347  157.9933 H   0  0  0  0  0  0  0  0  0  0  0  0
  150.0576  137.1650  156.8429 H   0  0  0  0  0  0  0  0  0  0  0  0
  147.9180  136.9442  159.8213 H   0  0  0  0  0  0  0  0  0  0  0  0
  148.8800  132.8122  160.2557 H   0  0  0  0  0  0  0  0  0  0  0  0
  1  2  1  0  0  0  0
  1 25  1  0  0  0  0
  1 26  1  0  0  0  0
  1 27  1  0  0  0  0
  2  3  1  0  0  0  0
  2 11  1  0  0  0  0
  2 28  1  0  0  0  0
  3  4  1  0  0  0  0
  4  5  1  0  0  0  0
  4 29  1  0  0  0  0
  4 30  1  0  0  0  0
  5 10  1  0  0  0  0
  5  6  1  0  0  0  0
  5 31  1  0  0  0  0
  6  7  1  0  0  0  0
  6 32  1  0  0  0  0
  6 33  1  0  0  0  0
  7  8  1  0  0  0  0
  7 34  1  0  0  0  0
  7 35  1  0  0  0  0
  8  9  1  0  0  0  0
  8 36  1  0  0  0  0
  8 37  1  0  0  0  0
  9 10  1  0  0  0  0
  9 38  1  0  0  0  0
  9 39  1  0  0  0  0
 11 12  2  0  0  0  0
 11 13  1  0  0  0  0
 13 14  1  0  0  0  0
 13 40  1  0  0  0  0
 14 23  1  0  0  0  0
 14 15  2  0  0  0  0
 15 16  1  0  0  0  0
 15 41  1  0  0  0  0
 16 17  1  0  0  0  0
 16 21  2  0  0  0  0
 17 18  1  0  0  0  0
 17 19  1  0  0  0  0
 17 20  1  0  0  0  0
 21 22  1  0  0  0  0
 21 42  1  0  0  0  0
 22 23  1  0  0  0  0
 23 24  2  0  0  0  0
M  CHG  1  22  -1
M  END
> <s_m_source_file>
AV-unprocessed.smi

> <i_m_source_file_index>
1550

> <i_lp_mmshare_version>
43012

> <i_f3d_flags>
0

> <s_epik_input>
TzFbQ0gyXVtDSDJdW0NIMl1bQ0gyXVtDQEhdMVtDSDJdT1tDQEBIXShbQ0gzXSlDKD1PKVtOSF1jMltjSF1jKEMoRikoRilGKVtjSF1bbkhdYzI9Tw==

> <s_epik_cmdline>
J2VwaWtfcHl0aG9uJywgJy1waCcsICc3LjAnLCAnLXRuJywgJzgnLCAnLW1hJywgJzIwMCcsICctbWV0YWxfYmluZGluZycsICctaW1hZScsICc8aW5maWxlLm1hZT4nLCAnLW9tYWUnLCAnPG91dGZpbGUubWFlPic=

> <r_epik_Ionization_Penalty>
2.54933

> <r_epik_Ionization_Penalty_Charging>
0.0583423

> <r_epik_Ionization_Penalty_Neutral>
2.49099

> <r_epik_State_Penalty>
2.65532

> <r_epik_Charging_Adjusted_Penalty>
2.71366

> <i_epik_Tot_Q>
-1

> <i_epik_Tot_abs_Q>
1

> <r_epik_Metal_State_Penalty>
0.516364

> <b_epik_Metal_Only>
0

> <s_lp_Force_Field>
OPLS_2005

> <r_lp_Energy>
27.7266

> <b_lp_Chiralities_Consistent>
1

> <s_lp_Variant>
AV-unprocessed.smi:1550-6

> <Gold.Version>
5.8.1

> <Gold.Id.Protein>
6NUR|6NUR_protein|mol2

> <Gold.PLP.Fitness>
46.6937

> <Gold.PLP.PLP>
-41.4323

> <Gold.PLP.part.hbond>
-2.0000

> <Gold.PLP.part.metal>
0.0000

> <Gold.PLP.part.buried>
-4.8442

> <Gold.PLP.part.nonpolar>
-34.7988

> <Gold.PLP.part.repulsive>
0.2560

> <Gold.PLP.ligand.clash>
0.0000

> <Gold.PLP.ligand.torsion>
0.3904

> <Gold.PLP.Chemscore.Hbond>
2.0000

> <Gold.PLP.Chemscore.CHOScore>
0.0000

> <Gold.PLP.Chemscore.Metal>
0.0000

> <Gold.Chemscore.Hbonds>
donor molecule, donor type, donor heavy atom, donor atom, acceptor molecule, acceptor atom, score
      P1  H  6896  6908       L1    22  0.15

> <Gold.PLP.Chemscore.Internal.Correction>
0.0423

> <Gold.Rescore>
     Score         DG    S(hbond)    S(metal)    S(lipo)     H(rot)  DE(clash)    DE(int)     intcor
     12.19     -13.71       0.73        0.00      89.53       1.82       0.00       1.51       ----

> <Gold.Chemscore.Fitness>
12.1914

> <Gold.Chemscore.DG>
-13.7080

> <Gold.Chemscore.ZeroCoef>
-5.4800

> <Gold.Chemscore.Hbond>
0.7251

> <Gold.Chemscore.Metal>
0.0000

> <Gold.Chemscore.Lipo>
89.5252

> <Gold.Chemscore.Internal_Hbond>
0.0000

> <Gold.Chemscore.DEClash>
0.0029

> <Gold.Chemscore.DEInternal>
1.5136

> <Gold.Chemscore.Rot>
1.8236

> <Gold.Chemscore.Internal.Correction>
   9.000000E+99

> <Gold.Chemscore.Hbond.Weighted>
-2.4219

> <Gold.Chemscore.Metal.Weighted>
-0.0000

> <Gold.Chemscore.Lipo.Weighted>
-10.4744

> <Gold.Chemscore.Internal_Hbond.Weighted>
0.0000

> <Gold.Chemscore.DEClash.Weighted>
0.0029

> <Gold.Chemscore.DEInternal.Weighted>
1.5136

> <Gold.Chemscore.Rot.Weighted>
4.6684

> <Gold.Chemscore.Internal.Correction.Weighted>
   9.000000E+99

> <Gold.Protein.RotatedTorsions>
[ 6907 6896 6895 6894 ] final  135.49 input  -60.11 | X-H torsion
[ 7974 7965 7964 7962 ] final  -61.30 input  175.53 | X-H torsion
[ 8008 7997 7996 7995 ] final  121.90 input   59.86 | X-H torsion
[ 10167 10162 10161 10158 ] final -113.51 input  -65.29 | X-H torsion
[ 10718 10713 10712 10709 ] final -104.52 input   66.30 | X-H torsion
[ 10763 10752 10751 10750 ] final  116.26 input  -60.55 | X-H torsion
[ 11005 11000 10999 10996 ] final   39.60 input  -57.11 | X-H torsion

> <Gold.Protein.ActiveResidues>
 VAL166  LYS551  ARG553  GLY616  TRP617  ASP618  TYR619  PRO620  LYS621  CYS622 
 ASP623  PHE694  ASN695  SER759  ASP760  ASP761  ALA762  ILE779  LEU786  VAL792 
 PHE793  MET794  SER795  GLU796  ALA797  LYS798  CYS799  TRP800  GLU811  SER814 

> <Gold.Protein.RotatedAtoms>
  152.2999  133.5645  159.5611 H   0  0  0  0  0  0  0  0  0  0  0  0  # atno 6907 bound_to 6896
  150.7273  134.0307  159.3741 H   0  0  0  0  0  0  0  0  0  0  0  0  # atno 6908 bound_to 6896
  151.8207  135.0653  160.0475 H   0  0  0  0  0  0  0  0  0  0  0  0  # atno 6909 bound_to 6896
  145.8051  140.8632  143.0211 H   0  0  0  0  0  0  0  0  0  0  0  0  # atno 7974 bound_to 7965
  156.2706  140.2798  156.1382 H   0  0  0  0  0  0  0  0  0  0  0  0  # atno 8008 bound_to 7997
  155.0982  140.0389  157.2706 H   0  0  0  0  0  0  0  0  0  0  0  0  # atno 8009 bound_to 7997
  154.6836  140.2614  155.6889 H   0  0  0  0  0  0  0  0  0  0  0  0  # atno 8010 bound_to 7997
  140.1110  143.4527  152.1752 H   0  0  0  0  0  0  0  0  0  0  0  0  # atno 10167 bound_to 10162
  156.0308  130.5519  150.7408 H   0  0  0  0  0  0  0  0  0  0  0  0  # atno 10718 bound_to 10713
  153.5346  135.3571  155.2691 H   0  0  0  0  0  0  0  0  0  0  0  0  # atno 10763 bound_to 10752
  154.8723  135.4076  154.3113 H   0  0  0  0  0  0  0  0  0  0  0  0  # atno 10764 bound_to 10752
  153.3808  135.7068  153.6635 H   0  0  0  0  0  0  0  0  0  0  0  0  # atno 10765 bound_to 10752
  140.2012  134.3868  155.8095 H   0  0  0  0  0  0  0  0  0  0  0  0  # atno 11005 bound_to 11000
  144.6764  140.0315  143.7482 LP  0  0  0  0  0  0  0  0  0  0  0  0  # atno 17320 bound_to 7965
  145.9836  139.2960  143.1027 LP  0  0  0  0  0  0  0  0  0  0  0  0  # atno 17321 bound_to 7965
  139.5619  144.7411  151.4131 LP  0  0  0  0  0  0  0  0  0  0  0  0  # atno 17342 bound_to 10162
  140.6925  143.7827  150.7277 LP  0  0  0  0  0  0  0  0  0  0  0  0  # atno 17343 bound_to 10162
  157.4977  131.0916  151.0351 LP  0  0  0  0  0  0  0  0  0  0  0  0  # atno 17370 bound_to 10713
  157.0740  130.5876  149.5408 LP  0  0  0  0  0  0  0  0  0  0  0  0  # atno 17371 bound_to 10713
  141.2227  133.7095  156.8260 LP  0  0  0  0  0  0  0  0  0  0  0  0  # atno 17394 bound_to 11000
  140.2052  134.8868  157.3214 LP  0  0  0  0  0  0  0  0  0  0  0  0  # atno 17395 bound_to 11000

$$$$
