AV-unprocessed.smi:3266|AV-procd|sdf|12500|dock10
  -GOLD-   2272018403D 1   1.00000     0.00000
 Structure written by MMmdl.
 38 39  0  0  0  0  0  0  0  0  1 V2000
  151.1065  140.4069  155.3543 O   0  0  0  0  0  0  0  0  0  0  0  0
  150.5938  141.3808  155.9061 C   0  0  0  0  0  0  0  0  0  0  0  0
  151.1896  141.9318  157.2029 C   0  0  0  0  0  0  0  0  0  0  0  0
  151.3728  143.4593  157.1543 C   0  0  0  0  0  0  0  0  0  0  0  0
  152.1100  144.0066  158.3850 C   0  0  2  0  0  0  0  0  0  0  0  0
  151.8649  143.2010  159.6593 C   0  0  0  0  0  0  0  0  0  0  0  0
  152.1578  144.2293  160.7276 C   0  0  0  0  0  0  0  0  0  0  0  0
  151.5751  145.4971  160.1088 C   0  0  0  0  0  0  0  0  0  0  0  0
  151.6689  145.3260  158.6965 O   0  0  0  0  0  0  0  0  0  0  0  0
  149.5196  142.0245  155.4217 N   0  0  0  0  0  0  0  0  0  0  0  0
  148.8440  141.7203  154.1623 C   0  0  0  0  0  0  0  0  0  0  0  0
  147.4344  141.1369  154.3829 C   0  0  0  0  0  0  0  0  0  0  0  0
  146.3825  142.1853  154.7048 C   0  0  0  0  0  0  0  0  0  0  0  0
  146.0212  143.1620  153.7515 C   0  0  0  0  0  0  0  0  0  0  0  0
  145.0151  144.0878  154.0880 C   0  0  0  0  0  0  0  0  0  0  0  0
  144.4156  144.0052  155.3593 C   0  0  0  0  0  0  0  0  0  0  0  0
  144.8513  142.9963  156.2416 C   0  0  0  0  0  0  0  0  0  0  0  0
  145.8145  142.1031  155.9289 N   0  0  0  0  0  0  0  0  0  0  0  0
  150.5471  141.6657  158.0436 H   0  0  0  0  0  0  0  0  0  0  0  0
  152.1491  141.4434  157.3759 H   0  0  0  0  0  0  0  0  0  0  0  0
  151.9161  143.7429  156.2516 H   0  0  0  0  0  0  0  0  0  0  0  0
  150.3943  143.9375  157.0869 H   0  0  0  0  0  0  0  0  0  0  0  0
  153.1837  144.0476  158.1936 H   0  0  0  0  0  0  0  0  0  0  0  0
  150.8224  142.8849  159.7229 H   0  0  0  0  0  0  0  0  0  0  0  0
  152.4964  142.3151  159.7311 H   0  0  0  0  0  0  0  0  0  0  0  0
  151.7171  143.9843  161.6943 H   0  0  0  0  0  0  0  0  0  0  0  0
  153.2358  144.3352  160.8588 H   0  0  0  0  0  0  0  0  0  0  0  0
  150.5223  145.6021  160.3739 H   0  0  0  0  0  0  0  0  0  0  0  0
  152.0976  146.3959  160.4367 H   0  0  0  0  0  0  0  0  0  0  0  0
  149.1646  142.8095  155.9484 H   0  0  0  0  0  0  0  0  0  0  0  0
  148.7883  142.6071  153.5285 H   0  0  0  0  0  0  0  0  0  0  0  0
  149.4538  140.9987  153.6186 H   0  0  0  0  0  0  0  0  0  0  0  0
  147.1230  140.5901  153.4920 H   0  0  0  0  0  0  0  0  0  0  0  0
  147.4642  140.4036  155.1897 H   0  0  0  0  0  0  0  0  0  0  0  0
  146.4930  143.1932  152.7805 H   0  0  0  0  0  0  0  0  0  0  0  0
  144.7064  144.8451  153.3828 H   0  0  0  0  0  0  0  0  0  0  0  0
  143.6402  144.6977  155.6514 H   0  0  0  0  0  0  0  0  0  0  0  0
  144.4136  142.9038  157.2247 H   0  0  0  0  0  0  0  0  0  0  0  0
  1  2  2  0  0  0  0
  2  3  1  0  0  0  0
  2 10  1  0  0  0  0
  3  4  1  0  0  0  0
  3 19  1  0  0  0  0
  3 20  1  0  0  0  0
  4  5  1  0  0  0  0
  4 21  1  0  0  0  0
  4 22  1  0  0  0  0
  5  9  1  0  0  0  0
  5  6  1  0  0  0  0
  5 23  1  0  0  0  0
  6  7  1  0  0  0  0
  6 24  1  0  0  0  0
  6 25  1  0  0  0  0
  7  8  1  0  0  0  0
  7 26  1  0  0  0  0
  7 27  1  0  0  0  0
  8  9  1  0  0  0  0
  8 28  1  0  0  0  0
  8 29  1  0  0  0  0
 10 11  1  0  0  0  0
 10 30  1  0  0  0  0
 11 12  1  0  0  0  0
 11 31  1  0  0  0  0
 11 32  1  0  0  0  0
 12 13  1  0  0  0  0
 12 33  1  0  0  0  0
 12 34  1  0  0  0  0
 13 18  1  0  0  0  0
 13 14  2  0  0  0  0
 14 15  1  0  0  0  0
 14 35  1  0  0  0  0
 15 16  2  0  0  0  0
 15 36  1  0  0  0  0
 16 17  1  0  0  0  0
 16 37  1  0  0  0  0
 17 18  2  0  0  0  0
 17 38  1  0  0  0  0
M  END
> <s_m_source_file>
AV-unprocessed.smi

> <i_m_source_file_index>
3266

> <i_lp_mmshare_version>
43012

> <i_f3d_flags>
0

> <s_epik_input>
TzFbQ0gyXVtDSDJdW0NIMl1bQ0BIXTFbQ0gyXVtDSDJdQyg9TylbTkhdW0NIMl1bQ0gyXWMyW2NIXVtjSF1bY0hdW2NIXW4y

> <s_epik_cmdline>
J2VwaWtfcHl0aG9uJywgJy1waCcsICc3LjAnLCAnLXRuJywgJzgnLCAnLW1hJywgJzIwMCcsICctbWV0YWxfYmluZGluZycsICctaW1hZScsICc8aW5maWxlLm1hZT4nLCAnLW9tYWUnLCAnPG91dGZpbGUubWFlPic=

> <r_epik_Ionization_Penalty>
0.0267142

> <r_epik_Ionization_Penalty_Charging>
0

> <r_epik_Ionization_Penalty_Neutral>
0.0267142

> <r_epik_State_Penalty>
0.0218233

> <r_epik_Charging_Adjusted_Penalty>
0.0218233

> <i_epik_Tot_Q>
0

> <i_epik_Tot_abs_Q>
0

> <r_epik_Metal_State_Penalty>
0.0208786

> <b_epik_Metal_Only>
0

> <s_lp_Force_Field>
OPLS_2005

> <r_lp_Energy>
16.3587

> <b_lp_Chiralities_Consistent>
1

> <s_lp_Variant>
AV-unprocessed.smi:3266-1

> <Gold.Version>
5.8.1

> <Gold.Id.Protein>
6NUR|6NUR_protein|mol2

> <Gold.PLP.Fitness>
47.7330

> <Gold.PLP.PLP>
-43.7490

> <Gold.PLP.part.hbond>
-2.3891

> <Gold.PLP.part.metal>
0.0000

> <Gold.PLP.part.buried>
-4.0824

> <Gold.PLP.part.nonpolar>
-37.1185

> <Gold.PLP.part.repulsive>
0.4150

> <Gold.PLP.ligand.clash>
0.0000

> <Gold.PLP.ligand.torsion>
0.6582

> <Gold.PLP.Chemscore.Hbond>
1.7600

> <Gold.PLP.Chemscore.CHOScore>
0.0000

> <Gold.PLP.Chemscore.Metal>
0.0000

> <Gold.Chemscore.Hbonds>
donor molecule, donor type, donor heavy atom, donor atom, acceptor molecule, acceptor atom, score
      L1  H    10    30       P1  8028  0.74
      P1  H  7989  7998       L1     1  0.99

> <Gold.PLP.Chemscore.Internal.Correction>
0.0204

> <Gold.Rescore>
     Score         DG    S(hbond)    S(metal)    S(lipo)     H(rot)  DE(clash)    DE(int)     intcor
     16.92     -18.47       1.37        0.00     109.43       1.71       0.69       0.86       ----

> <Gold.Chemscore.Fitness>
16.9222

> <Gold.Chemscore.DG>
-18.4694

> <Gold.Chemscore.ZeroCoef>
-5.4800

> <Gold.Chemscore.Hbond>
1.3686

> <Gold.Chemscore.Metal>
0.0000

> <Gold.Chemscore.Lipo>
109.4250

> <Gold.Chemscore.Internal_Hbond>
0.0000

> <Gold.Chemscore.DEClash>
0.6871

> <Gold.Chemscore.DEInternal>
0.8602

> <Gold.Chemscore.Rot>
1.7127

> <Gold.Chemscore.Internal.Correction>
   9.000000E+99

> <Gold.Chemscore.Hbonds>
donor molecule, donor type, donor heavy atom, donor atom, acceptor molecule, acceptor atom, score
      L1  H    10    30       P1  8028  0.73
      P1  H  7989  7998       L1     1  0.68

> <Gold.Chemscore.Hbond.Weighted>
-4.5712

> <Gold.Chemscore.Metal.Weighted>
-0.0000

> <Gold.Chemscore.Lipo.Weighted>
-12.8027

> <Gold.Chemscore.Internal_Hbond.Weighted>
0.0000

> <Gold.Chemscore.DEClash.Weighted>
0.6871

> <Gold.Chemscore.DEInternal.Weighted>
0.8602

> <Gold.Chemscore.Rot.Weighted>
4.3846

> <Gold.Chemscore.Internal.Correction.Weighted>
   9.000000E+99

> <Gold.Protein.RotatedTorsions>
[ 6907 6896 6895 6894 ] final  135.14 input  -60.11 | X-H torsion
[ 7974 7965 7964 7962 ] final   14.91 input  175.53 | X-H torsion
[ 8008 7997 7996 7995 ] final   21.16 input   59.86 | X-H torsion
[ 10167 10162 10161 10158 ] final -141.89 input  -65.29 | X-H torsion
[ 10718 10713 10712 10709 ] final  114.03 input   66.30 | X-H torsion
[ 10763 10752 10751 10750 ] final -172.66 input  -60.55 | X-H torsion
[ 11005 11000 10999 10996 ] final  107.85 input  -57.11 | X-H torsion

> <Gold.Protein.ActiveResidues>
 VAL166  LYS551  ARG553  GLY616  TRP617  ASP618  TYR619  PRO620  LYS621  CYS622 
 ASP623  PHE694  ASN695  SER759  ASP760  ASP761  ALA762  ILE779  LEU786  VAL792 
 PHE793  MET794  SER795  GLU796  ALA797  LYS798  CYS799  TRP800  GLU811  SER814 

> <Gold.Protein.RotatedAtoms>
  152.3037  133.5681  159.5634 H   0  0  0  0  0  0  0  0  0  0  0  0  # atno 6907 bound_to 6896
  150.7289  134.0254  159.3724 H   0  0  0  0  0  0  0  0  0  0  0  0  # atno 6908 bound_to 6896
  151.8152  135.0669  160.0469 H   0  0  0  0  0  0  0  0  0  0  0  0  # atno 6909 bound_to 6896
  146.2292  139.8971  142.8545 H   0  0  0  0  0  0  0  0  0  0  0  0  # atno 7974 bound_to 7965
  154.9464  140.3060  155.5096 H   0  0  0  0  0  0  0  0  0  0  0  0  # atno 8008 bound_to 7997
  156.2991  140.2327  156.4475 H   0  0  0  0  0  0  0  0  0  0  0  0  # atno 8009 bound_to 7997
  154.8096  140.0429  157.1322 H   0  0  0  0  0  0  0  0  0  0  0  0  # atno 8010 bound_to 7997
  139.8141  143.7663  152.2664 H   0  0  0  0  0  0  0  0  0  0  0  0  # atno 10167 bound_to 10162
  157.6304  131.0992  150.7127 H   0  0  0  0  0  0  0  0  0  0  0  0  # atno 10718 bound_to 10713
  154.6168  135.2870  155.0371 H   0  0  0  0  0  0  0  0  0  0  0  0  # atno 10763 bound_to 10752
  154.1581  135.6492  153.4983 H   0  0  0  0  0  0  0  0  0  0  0  0  # atno 10764 bound_to 10752
  153.0218  135.5371  154.6942 H   0  0  0  0  0  0  0  0  0  0  0  0  # atno 10765 bound_to 10752
  139.8834  134.9413  156.5882 H   0  0  0  0  0  0  0  0  0  0  0  0  # atno 11005 bound_to 11000
  145.2360  140.9991  143.3963 LP  0  0  0  0  0  0  0  0  0  0  0  0  # atno 17320 bound_to 7965
  144.9491  139.4103  143.6411 LP  0  0  0  0  0  0  0  0  0  0  0  0  # atno 17321 bound_to 7965
  139.7821  144.7441  151.0074 LP  0  0  0  0  0  0  0  0  0  0  0  0  # atno 17342 bound_to 10162
  140.7816  143.4531  151.0384 LP  0  0  0  0  0  0  0  0  0  0  0  0  # atno 17343 bound_to 10162
  156.7467  130.4756  149.5465 LP  0  0  0  0  0  0  0  0  0  0  0  0  # atno 17370 bound_to 10713
  156.1504  130.6306  151.0588 LP  0  0  0  0  0  0  0  0  0  0  0  0  # atno 17371 bound_to 10713
  140.7975  133.8532  155.8698 LP  0  0  0  0  0  0  0  0  0  0  0  0  # atno 17394 bound_to 11000
  140.9622  134.1641  157.4645 LP  0  0  0  0  0  0  0  0  0  0  0  0  # atno 17395 bound_to 11000

$$$$
