AV-unprocessed.smi:946|AV-procd|sdf|4237|dock3
  -GOLD-   22720 2143D 1   1.00000     0.00000
 Structure written by MMmdl.
 42 43  0  0  0  0  0  0  0  0  1 V2000
  151.0571  138.7027  154.7187 C   0  0  0  0  0  0  0  0  0  0  0  0
  151.0865  140.1432  155.2510 C   0  0  1  0  0  0  0  0  0  0  0  0
  149.7539  140.4944  155.6157 O   0  0  0  0  0  0  0  0  0  0  0  0
  148.8818  140.8002  154.5332 C   0  0  0  0  0  0  0  0  0  0  0  0
  147.8847  141.8738  154.9876 C   0  0  1  0  0  0  0  0  0  0  0  0
  146.7550  142.0789  153.9593 C   0  0  0  0  0  0  0  0  0  0  0  0
  145.7256  143.0873  154.4819 C   0  0  0  0  0  0  0  0  0  0  0  0
  145.2380  142.6544  155.8684 C   0  0  0  0  0  0  0  0  0  0  0  0
  146.4337  142.4085  156.8018 C   0  0  0  0  0  0  0  0  0  0  0  0
  147.3104  141.4473  156.2217 O   0  0  0  0  0  0  0  0  0  0  0  0
  152.0300  140.2782  156.4575 C   0  0  0  0  0  0  0  0  0  0  0  0
  153.0280  139.5609  156.5358 O   0  0  0  0  0  0  0  0  0  0  0  0
  151.6715  141.1938  157.3772 N   0  0  0  0  0  0  0  0  0  0  0  0
  152.3303  141.5297  158.5890 C   0  0  0  0  0  0  0  0  0  0  0  0
  151.9480  142.7653  159.1558 C   0  0  0  0  0  0  0  0  0  0  0  0
  152.5427  143.1876  160.3597 C   0  0  0  0  0  0  0  0  0  0  0  0
  153.5064  142.3635  160.9673 C   0  0  0  0  0  0  0  0  0  0  0  0
  153.8362  141.1439  160.3385 C   0  0  0  0  0  0  0  0  0  0  0  0
  154.8718  140.1964  160.9280 C   0  0  0  0  0  0  0  0  0  0  0  0
  155.9637  140.1913  160.1630 F   0  0  0  0  0  0  0  0  0  0  0  0
  155.2245  140.5574  162.1622 F   0  0  0  0  0  0  0  0  0  0  0  0
  154.3747  138.9603  160.9763 F   0  0  0  0  0  0  0  0  0  0  0  0
  153.2611  140.7425  159.1823 N   0  0  0  0  0  0  0  0  0  0  0  0
  152.0545  138.3646  154.4352 H   0  0  0  0  0  0  0  0  0  0  0  0
  150.4227  138.6316  153.8349 H   0  0  0  0  0  0  0  0  0  0  0  0
  150.6645  138.0065  155.4610 H   0  0  0  0  0  0  0  0  0  0  0  0
  151.4227  140.7970  154.4438 H   0  0  0  0  0  0  0  0  0  0  0  0
  149.4600  141.1770  153.6887 H   0  0  0  0  0  0  0  0  0  0  0  0
  148.3502  139.9091  154.1955 H   0  0  0  0  0  0  0  0  0  0  0  0
  148.4173  142.8154  155.1332 H   0  0  0  0  0  0  0  0  0  0  0  0
  147.1647  142.4250  153.0099 H   0  0  0  0  0  0  0  0  0  0  0  0
  146.2623  141.1265  153.7587 H   0  0  0  0  0  0  0  0  0  0  0  0
  146.1795  144.0770  154.5437 H   0  0  0  0  0  0  0  0  0  0  0  0
  144.8859  143.1681  153.7912 H   0  0  0  0  0  0  0  0  0  0  0  0
  144.5773  143.4122  156.2901 H   0  0  0  0  0  0  0  0  0  0  0  0
  144.6509  141.7393  155.7819 H   0  0  0  0  0  0  0  0  0  0  0  0
  146.9725  143.3365  157.0000 H   0  0  0  0  0  0  0  0  0  0  0  0
  146.0860  142.0314  157.7637 H   0  0  0  0  0  0  0  0  0  0  0  0
  150.8244  141.7082  157.1861 H   0  0  0  0  0  0  0  0  0  0  0  0
  151.2062  143.3874  158.6762 H   0  0  0  0  0  0  0  0  0  0  0  0
  152.2640  144.1292  160.8092 H   0  0  0  0  0  0  0  0  0  0  0  0
  153.9756  142.6676  161.8912 H   0  0  0  0  0  0  0  0  0  0  0  0
  1  2  1  0  0  0  0
  1 24  1  0  0  0  0
  1 25  1  0  0  0  0
  1 26  1  0  0  0  0
  2  3  1  0  0  0  0
  2 11  1  0  0  0  0
  2 27  1  0  0  0  0
  3  4  1  0  0  0  0
  4  5  1  0  0  0  0
  4 28  1  0  0  0  0
  4 29  1  0  0  0  0
  5 10  1  0  0  0  0
  5  6  1  0  0  0  0
  5 30  1  0  0  0  0
  6  7  1  0  0  0  0
  6 31  1  0  0  0  0
  6 32  1  0  0  0  0
  7  8  1  0  0  0  0
  7 33  1  0  0  0  0
  7 34  1  0  0  0  0
  8  9  1  0  0  0  0
  8 35  1  0  0  0  0
  8 36  1  0  0  0  0
  9 10  1  0  0  0  0
  9 37  1  0  0  0  0
  9 38  1  0  0  0  0
 11 12  2  0  0  0  0
 11 13  1  0  0  0  0
 13 14  1  0  0  0  0
 13 39  1  0  0  0  0
 14 23  1  0  0  0  0
 14 15  2  0  0  0  0
 15 16  1  0  0  0  0
 15 40  1  0  0  0  0
 16 17  2  0  0  0  0
 16 41  1  0  0  0  0
 17 18  1  0  0  0  0
 17 42  1  0  0  0  0
 18 19  1  0  0  0  0
 18 23  2  0  0  0  0
 19 20  1  0  0  0  0
 19 21  1  0  0  0  0
 19 22  1  0  0  0  0
M  END
> <s_m_source_file>
AV-unprocessed.smi

> <i_m_source_file_index>
946

> <i_lp_mmshare_version>
43012

> <i_f3d_flags>
0

> <s_epik_input>
TzFbQ0gyXVtDSDJdW0NIMl1bQ0gyXVtDQEhdMVtDSDJdT1tDQEBIXShbQ0gzXSlDKD1PKVtOSF1jMltjSF1bY0hdW2NIXWMobjIpQyhGKShGKUY=

> <s_epik_cmdline>
J2VwaWtfcHl0aG9uJywgJy1waCcsICc3LjAnLCAnLXRuJywgJzgnLCAnLW1hJywgJzIwMCcsICctbWV0YWxfYmluZGluZycsICctaW1hZScsICc8aW5maWxlLm1hZT4nLCAnLW9tYWUnLCAnPG91dGZpbGUubWFlPic=

> <r_lp_tautomer_probability>
1

> <r_epik_Ionization_Penalty>
1.32683e-06

> <r_epik_Ionization_Penalty_Charging>
0

> <r_epik_Ionization_Penalty_Neutral>
1.32683e-06

> <r_epik_State_Penalty>
-0

> <r_epik_Charging_Adjusted_Penalty>
0

> <i_epik_Tot_Q>
0

> <i_epik_Tot_abs_Q>
0

> <r_epik_Metal_State_Penalty>
-0

> <b_epik_Metal_Only>
0

> <s_lp_Force_Field>
OPLS_2005

> <r_lp_Energy>
14.7702

> <b_lp_Chiralities_Consistent>
1

> <s_lp_Variant>
AV-unprocessed.smi:946-4

> <Gold.Version>
5.8.1

> <Gold.Id.Protein>
6NUR|6NUR_protein|mol2

> <Gold.PLP.Fitness>
47.5589

> <Gold.PLP.PLP>
-47.3865

> <Gold.PLP.part.hbond>
-1.0000

> <Gold.PLP.part.metal>
0.0000

> <Gold.PLP.part.buried>
-4.3917

> <Gold.PLP.part.nonpolar>
-41.9508

> <Gold.PLP.part.repulsive>
0.2222

> <Gold.PLP.ligand.clash>
0.0000

> <Gold.PLP.ligand.torsion>
1.5091

> <Gold.PLP.Chemscore.Hbond>
1.0000

> <Gold.PLP.Chemscore.CHOScore>
0.0000

> <Gold.PLP.Chemscore.Metal>
0.0000

> <Gold.Chemscore.Hbonds>
donor molecule, donor type, donor heavy atom, donor atom, acceptor molecule, acceptor atom, score
      P1  H  7997  8010       L1    12  0.80

> <Gold.PLP.Chemscore.Internal.Correction>
0.1905

> <Gold.Rescore>
     Score         DG    S(hbond)    S(metal)    S(lipo)     H(rot)  DE(clash)    DE(int)     intcor
     11.83     -14.47       0.90        0.00      89.43       1.76       0.03       2.60       ----

> <Gold.Chemscore.Fitness>
11.8291

> <Gold.Chemscore.DG>
-14.4676

> <Gold.Chemscore.ZeroCoef>
-5.4800

> <Gold.Chemscore.Hbond>
0.9038

> <Gold.Chemscore.Metal>
0.0000

> <Gold.Chemscore.Lipo>
89.4322

> <Gold.Chemscore.Internal_Hbond>
0.0000

> <Gold.Chemscore.DEClash>
0.0349

> <Gold.Chemscore.DEInternal>
2.6036

> <Gold.Chemscore.Rot>
1.7557

> <Gold.Chemscore.Internal.Correction>
   9.000000E+99

> <Gold.Chemscore.Hbonds>
donor molecule, donor type, donor heavy atom, donor atom, acceptor molecule, acceptor atom, score
      P1  H  7997  8010       L1    12  0.77

> <Gold.Chemscore.Hbond.Weighted>
-3.0187

> <Gold.Chemscore.Metal.Weighted>
-0.0000

> <Gold.Chemscore.Lipo.Weighted>
-10.4636

> <Gold.Chemscore.Internal_Hbond.Weighted>
0.0000

> <Gold.Chemscore.DEClash.Weighted>
0.0349

> <Gold.Chemscore.DEInternal.Weighted>
2.6036

> <Gold.Chemscore.Rot.Weighted>
4.4946

> <Gold.Chemscore.Internal.Correction.Weighted>
   9.000000E+99

> <Gold.Protein.RotatedTorsions>
[ 6907 6896 6895 6894 ] final  -88.38 input  -60.11 | X-H torsion
[ 7974 7965 7964 7962 ] final  161.15 input  175.53 | X-H torsion
[ 8008 7997 7996 7995 ] final   80.82 input   59.86 | X-H torsion
[ 10167 10162 10161 10158 ] final -170.72 input  -65.29 | X-H torsion
[ 10718 10713 10712 10709 ] final -178.54 input   66.30 | X-H torsion
[ 10763 10752 10751 10750 ] final -165.97 input  -60.55 | X-H torsion
[ 11005 11000 10999 10996 ] final   45.20 input  -57.11 | X-H torsion

> <Gold.Protein.ActiveResidues>
 VAL166  LYS551  ARG553  GLY616  TRP617  ASP618  TYR619  PRO620  LYS621  CYS622 
 ASP623  PHE694  ASN695  SER759  ASP760  ASP761  ALA762  ILE779  LEU786  VAL792 
 PHE793  MET794  SER795  GLU796  ALA797  LYS798  CYS799  TRP800  GLU811  SER814 

> <Gold.Protein.RotatedAtoms>
  150.6868  134.2750  159.4603 H   0  0  0  0  0  0  0  0  0  0  0  0  # atno 6907 bound_to 6896
  152.0669  134.9556  160.0584 H   0  0  0  0  0  0  0  0  0  0  0  0  # atno 6908 bound_to 6896
  152.0961  133.4191  159.4603 H   0  0  0  0  0  0  0  0  0  0  0  0  # atno 6909 bound_to 6896
  144.7700  139.7858  143.6300 H   0  0  0  0  0  0  0  0  0  0  0  0  # atno 7974 bound_to 7965
  155.8888  140.3440  155.5941 H   0  0  0  0  0  0  0  0  0  0  0  0  # atno 8008 bound_to 7997
  155.7635  140.0836  157.2162 H   0  0  0  0  0  0  0  0  0  0  0  0  # atno 8009 bound_to 7997
  154.4031  140.1531  156.2847 H   0  0  0  0  0  0  0  0  0  0  0  0  # atno 8010 bound_to 7997
  139.5845  144.1350  152.1557 H   0  0  0  0  0  0  0  0  0  0  0  0  # atno 10167 bound_to 10162
  156.8458  130.9702  151.3096 H   0  0  0  0  0  0  0  0  0  0  0  0  # atno 10718 bound_to 10713
  154.6880  135.2966  154.9520 H   0  0  0  0  0  0  0  0  0  0  0  0  # atno 10763 bound_to 10752
  154.0493  135.6646  153.4802 H   0  0  0  0  0  0  0  0  0  0  0  0  # atno 10764 bound_to 10752
  153.0592  135.5126  154.7957 H   0  0  0  0  0  0  0  0  0  0  0  0  # atno 10765 bound_to 10752
  140.1482  134.4496  155.8400 H   0  0  0  0  0  0  0  0  0  0  0  0  # atno 11005 bound_to 11000
  146.1839  139.5045  142.9848 LP  0  0  0  0  0  0  0  0  0  0  0  0  # atno 17320 bound_to 7965
  145.6352  141.0296  143.1841 LP  0  0  0  0  0  0  0  0  0  0  0  0  # atno 17321 bound_to 7965
  140.0910  144.5620  150.7054 LP  0  0  0  0  0  0  0  0  0  0  0  0  # atno 17342 bound_to 10162
  140.7118  143.2511  151.4556 LP  0  0  0  0  0  0  0  0  0  0  0  0  # atno 17343 bound_to 10162
  157.6330  130.8744  149.9308 LP  0  0  0  0  0  0  0  0  0  0  0  0  # atno 17370 bound_to 10713
  156.0855  130.3668  150.0496 LP  0  0  0  0  0  0  0  0  0  0  0  0  # atno 17371 bound_to 10713
  141.2195  133.6861  156.7372 LP  0  0  0  0  0  0  0  0  0  0  0  0  # atno 17394 bound_to 11000
  140.2637  134.8446  157.3783 LP  0  0  0  0  0  0  0  0  0  0  0  0  # atno 17395 bound_to 11000

$$$$
