AV-unprocessed.smi:3158|AV-procd|sdf|12047|dock6
  -GOLD-   2272017473D 1   1.00000     0.00000
 Structure written by MMmdl.
 39 39  0  0  0  0  0  0  0  0  1 V2000
  152.2234  144.7285  159.1540 C   0  0  0  0  0  0  0  0  0  0  0  0
  150.8161  145.2703  159.4454 C   0  0  0  0  0  0  0  0  0  0  0  0
  149.7435  144.1719  159.5709 C   0  0  2  0  0  0  0  0  0  0  0  0
  149.9410  143.0645  158.5236 C   0  0  0  0  0  0  0  0  0  0  0  0
  148.4120  144.7574  159.4404 N   0  0  0  0  0  0  0  0  0  0  0  0
  147.4289  144.6875  160.3523 C   0  0  0  0  0  0  0  0  0  0  0  0
  147.5387  144.0763  161.4159 O   0  0  0  0  0  0  0  0  0  0  0  0
  146.1383  145.4400  159.9978 C   0  0  1  0  0  0  0  0  0  0  0  0
  146.3456  146.9682  159.9556 C   0  0  0  0  0  0  0  0  0  0  0  0
  145.6119  144.9312  158.7228 N   0  0  0  0  0  0  0  0  0  0  0  0
  144.2859  145.4423  158.3995 C   0  0  0  0  0  0  0  0  0  0  0  0
  144.4027  146.6133  157.4087 C   0  0  0  0  0  0  0  0  0  0  0  0
  143.7349  146.3413  156.1473 N   0  0  0  0  0  0  0  0  0  0  0  0
  142.8540  147.1441  155.4534 C   0  0  0  0  0  0  0  0  0  0  0  0
  142.4954  146.4701  154.3211 C   0  0  0  0  0  0  0  0  0  0  0  0
  143.2168  145.2472  154.4135 C   0  0  0  0  0  0  0  0  0  0  0  0
  143.9555  145.1717  155.5089 N   0  0  0  0  0  0  0  0  0  0  0  0
  152.9369  145.5446  159.0394 H   0  0  0  0  0  0  0  0  0  0  0  0
  152.2364  144.1431  158.2344 H   0  0  0  0  0  0  0  0  0  0  0  0
  152.5819  144.0905  159.9617 H   0  0  0  0  0  0  0  0  0  0  0  0
  150.8435  145.8658  160.3590 H   0  0  0  0  0  0  0  0  0  0  0  0
  150.5349  145.9561  158.6452 H   0  0  0  0  0  0  0  0  0  0  0  0
  149.8389  143.7254  160.5626 H   0  0  0  0  0  0  0  0  0  0  0  0
  150.9279  142.6105  158.6158 H   0  0  0  0  0  0  0  0  0  0  0  0
  149.8477  143.4549  157.5097 H   0  0  0  0  0  0  0  0  0  0  0  0
  149.2036  142.2702  158.6441 H   0  0  0  0  0  0  0  0  0  0  0  0
  148.2302  145.2855  158.5989 H   0  0  0  0  0  0  0  0  0  0  0  0
  145.4279  145.2111  160.7942 H   0  0  0  0  0  0  0  0  0  0  0  0
  146.8006  147.3311  160.8784 H   0  0  0  0  0  0  0  0  0  0  0  0
  145.4000  147.4979  159.8429 H   0  0  0  0  0  0  0  0  0  0  0  0
  146.9913  147.2634  159.1275 H   0  0  0  0  0  0  0  0  0  0  0  0
  146.2485  145.1049  157.9582 H   0  0  0  0  0  0  0  0  0  0  0  0
  143.6665  144.6530  157.9709 H   0  0  0  0  0  0  0  0  0  0  0  0
  143.7909  145.7850  159.3080 H   0  0  0  0  0  0  0  0  0  0  0  0
  143.9609  147.5116  157.8419 H   0  0  0  0  0  0  0  0  0  0  0  0
  145.4499  146.8467  157.2107 H   0  0  0  0  0  0  0  0  0  0  0  0
  142.5633  148.1190  155.8159 H   0  0  0  0  0  0  0  0  0  0  0  0
  141.8226  146.8013  153.5441 H   0  0  0  0  0  0  0  0  0  0  0  0
  143.2249  144.4175  153.7222 H   0  0  0  0  0  0  0  0  0  0  0  0
  1  2  1  0  0  0  0
  1 18  1  0  0  0  0
  1 19  1  0  0  0  0
  1 20  1  0  0  0  0
  2  3  1  0  0  0  0
  2 21  1  0  0  0  0
  2 22  1  0  0  0  0
  3  4  1  0  0  0  0
  3  5  1  0  0  0  0
  3 23  1  0  0  0  0
  4 24  1  0  0  0  0
  4 25  1  0  0  0  0
  4 26  1  0  0  0  0
  5  6  1  0  0  0  0
  5 27  1  0  0  0  0
  6  7  2  0  0  0  0
  6  8  1  0  0  0  0
  8  9  1  0  0  0  0
  8 10  1  0  0  0  0
  8 28  1  0  0  0  0
  9 29  1  0  0  0  0
  9 30  1  0  0  0  0
  9 31  1  0  0  0  0
 10 11  1  0  0  0  0
 10 32  1  0  0  0  0
 11 12  1  0  0  0  0
 11 33  1  0  0  0  0
 11 34  1  0  0  0  0
 12 13  1  0  0  0  0
 12 35  1  0  0  0  0
 12 36  1  0  0  0  0
 13 17  1  0  0  0  0
 13 14  1  0  0  0  0
 14 15  2  0  0  0  0
 14 37  1  0  0  0  0
 15 16  1  0  0  0  0
 15 38  1  0  0  0  0
 16 17  2  0  0  0  0
 16 39  1  0  0  0  0
M  END
> <s_m_source_file>
AV-unprocessed.smi

> <i_m_source_file_index>
3158

> <i_lp_mmshare_version>
43012

> <i_f3d_flags>
0

> <s_epik_input>
W0NIM11bQ0gyXVtDQEhdKFtDSDNdKVtOSF1DKD1PKVtDQEhdKFtDSDNdKVtOSF1bQ0gyXVtDSDJdbjFbY0hdW2NIXVtjSF1uMQ==

> <s_epik_cmdline>
J2VwaWtfcHl0aG9uJywgJy1waCcsICc3LjAnLCAnLXRuJywgJzgnLCAnLW1hJywgJzIwMCcsICctbWV0YWxfYmluZGluZycsICctaW1hZScsICc8aW5maWxlLm1hZT4nLCAnLW9tYWUnLCAnPG91dGZpbGUubWFlPic=

> <r_lp_tautomer_probability>
1

> <r_epik_Ionization_Penalty>
0.724013

> <r_epik_Ionization_Penalty_Charging>
0

> <r_epik_Ionization_Penalty_Neutral>
0.724013

> <r_epik_State_Penalty>
0.74758

> <r_epik_Charging_Adjusted_Penalty>
0.74758

> <i_epik_Tot_Q>
0

> <i_epik_Tot_abs_Q>
0

> <r_epik_Metal_State_Penalty>
0.746846

> <b_epik_Metal_Only>
0

> <s_lp_Force_Field>
OPLS_2005

> <r_lp_Energy>
5.95419

> <b_lp_Chiralities_Consistent>
1

> <s_lp_Variant>
AV-unprocessed.smi:3158-7

> <Gold.Version>
5.8.1

> <Gold.Id.Protein>
6NUR|6NUR_protein|mol2

> <Gold.PLP.Fitness>
43.8435

> <Gold.PLP.PLP>
-33.7773

> <Gold.PLP.part.hbond>
-3.0000

> <Gold.PLP.part.metal>
0.0000

> <Gold.PLP.part.buried>
-5.9940

> <Gold.PLP.part.nonpolar>
-26.7543

> <Gold.PLP.part.repulsive>
0.3602

> <Gold.PLP.ligand.clash>
0.0000

> <Gold.PLP.ligand.torsion>
1.0194

> <Gold.PLP.Chemscore.Hbond>
3.0000

> <Gold.PLP.Chemscore.CHOScore>
0.9853

> <Gold.PLP.Chemscore.Metal>
0.0000

> <Gold.Chemscore.Hbonds>
donor molecule, donor type, donor heavy atom, donor atom, acceptor molecule, acceptor atom, score
      L1  H     5    27       P1  8029  0.96
      L1  H    10    32       P1  8029  1.00
      P1  H  6933  6944       L1     7  1.00
      L1  C    16    39       P1 10174  0.95

> <Gold.PLP.Chemscore.Internal.Correction>
0.1493

> <Gold.Rescore>
     Score         DG    S(hbond)    S(metal)    S(lipo)     H(rot)  DE(clash)    DE(int)     intcor
     17.94     -18.88       2.90        0.00      78.19       2.12       0.05       0.89       ----

> <Gold.Chemscore.Fitness>
17.9379

> <Gold.Chemscore.DG>
-18.8821

> <Gold.Chemscore.ZeroCoef>
-5.4800

> <Gold.Chemscore.Hbond>
2.9011

> <Gold.Chemscore.Metal>
0.0000

> <Gold.Chemscore.Lipo>
78.1888

> <Gold.Chemscore.Internal_Hbond>
0.0000

> <Gold.Chemscore.DEClash>
0.0496

> <Gold.Chemscore.DEInternal>
0.8945

> <Gold.Chemscore.Rot>
2.1234

> <Gold.Chemscore.Internal.Correction>
   9.000000E+99

> <Gold.Chemscore.Hbonds>
donor molecule, donor type, donor heavy atom, donor atom, acceptor molecule, acceptor atom, score
      L1  H     5    27       P1  8029  0.91
      L1  H    10    32       P1  8029  0.75
      P1  H  6933  6944       L1     7  0.96

> <Gold.Chemscore.Hbond.Weighted>
-9.6898

> <Gold.Chemscore.Metal.Weighted>
-0.0000

> <Gold.Chemscore.Lipo.Weighted>
-9.1481

> <Gold.Chemscore.Internal_Hbond.Weighted>
0.0000

> <Gold.Chemscore.DEClash.Weighted>
0.0496

> <Gold.Chemscore.DEInternal.Weighted>
0.8945

> <Gold.Chemscore.Rot.Weighted>
5.4359

> <Gold.Chemscore.Internal.Correction.Weighted>
   9.000000E+99

> <Gold.Protein.RotatedTorsions>
[ 6907 6896 6895 6894 ] final   32.59 input  -60.11 | X-H torsion
[ 7974 7965 7964 7962 ] final -111.74 input  175.53 | X-H torsion
[ 8008 7997 7996 7995 ] final  168.80 input   59.86 | X-H torsion
[ 10167 10162 10161 10158 ] final  -18.14 input  -65.29 | X-H torsion
[ 10718 10713 10712 10709 ] final  164.90 input   66.30 | X-H torsion
[ 10763 10752 10751 10750 ] final  -72.05 input  -60.55 | X-H torsion
[ 11005 11000 10999 10996 ] final  124.24 input  -57.11 | X-H torsion

> <Gold.Protein.ActiveResidues>
 VAL166  LYS551  ARG553  GLY616  TRP617  ASP618  TYR619  PRO620  LYS621  CYS622 
 ASP623  PHE694  ASN695  SER759  ASP760  ASP761  ALA762  ILE779  LEU786  VAL792 
 PHE793  MET794  SER795  GLU796  ALA797  LYS798  CYS799  TRP800  GLU811  SER814 

> <Gold.Protein.RotatedAtoms>
  152.0766  134.9499  160.0573 H   0  0  0  0  0  0  0  0  0  0  0  0  # atno 6907 bound_to 6896
  152.0804  133.4145  159.4507 H   0  0  0  0  0  0  0  0  0  0  0  0  # atno 6908 bound_to 6896
  150.6836  134.2908  159.4709 H   0  0  0  0  0  0  0  0  0  0  0  0  # atno 6909 bound_to 6896
  145.1524  140.8836  143.3639 H   0  0  0  0  0  0  0  0  0  0  0  0  # atno 7974 bound_to 7965
  156.1514  140.1581  156.8763 H   0  0  0  0  0  0  0  0  0  0  0  0  # atno 8008 bound_to 7997
  154.5075  140.0809  156.7960 H   0  0  0  0  0  0  0  0  0  0  0  0  # atno 8009 bound_to 7997
  155.3887  140.3409  155.4252 H   0  0  0  0  0  0  0  0  0  0  0  0  # atno 8010 bound_to 7997
  140.7255  143.4946  150.9948 H   0  0  0  0  0  0  0  0  0  0  0  0  # atno 10167 bound_to 10162
  157.0877  131.0409  151.2550 H   0  0  0  0  0  0  0  0  0  0  0  0  # atno 10718 bound_to 10713
  154.4403  135.5942  153.6125 H   0  0  0  0  0  0  0  0  0  0  0  0  # atno 10763 bound_to 10752
  152.9805  135.5996  154.3730 H   0  0  0  0  0  0  0  0  0  0  0  0  # atno 10764 bound_to 10752
  154.3579  135.2841  155.2315 H   0  0  0  0  0  0  0  0  0  0  0  0  # atno 10765 bound_to 10752
  139.9349  134.9640  156.8379 H   0  0  0  0  0  0  0  0  0  0  0  0  # atno 11005 bound_to 11000
  145.0417  139.3255  143.5973 LP  0  0  0  0  0  0  0  0  0  0  0  0  # atno 17320 bound_to 7965
  146.3493  139.9793  142.8697 LP  0  0  0  0  0  0  0  0  0  0  0  0  # atno 17321 bound_to 7965
  139.8652  143.7263  152.3170 LP  0  0  0  0  0  0  0  0  0  0  0  0  # atno 17342 bound_to 10162
  139.7493  144.7538  151.0531 LP  0  0  0  0  0  0  0  0  0  0  0  0  # atno 17343 bound_to 10162
  157.4747  130.7729  149.7357 LP  0  0  0  0  0  0  0  0  0  0  0  0  # atno 17370 bound_to 10713
  155.9906  130.3943  150.3020 LP  0  0  0  0  0  0  0  0  0  0  0  0  # atno 17371 bound_to 10713
  140.6102  134.0090  155.7573 LP  0  0  0  0  0  0  0  0  0  0  0  0  # atno 17394 bound_to 11000
  141.0958  133.9846  157.3162 LP  0  0  0  0  0  0  0  0  0  0  0  0  # atno 17395 bound_to 11000

$$$$
