AV-unprocessed.smi:264|AV-procd|sdf|2010|dock9
  -GOLD-   2262021213D 1   1.00000     0.00000
 Structure written by MMmdl.
 52 56  0  0  0  0  0  0  0  0  1 V2000
  152.2642  141.0921  159.1480 C   0  0  0  0  0  0  0  0  0  0  0  0
  151.4940  142.4212  159.1762 C   0  0  1  0  0  0  0  0  0  0  0  0
  152.3022  143.3789  159.8550 O   0  0  0  0  0  0  0  0  0  0  0  0
  152.0043  144.6678  159.3489 C   0  0  0  0  0  0  0  0  0  0  0  0
  151.8693  144.4071  157.8567 C   0  0  0  0  0  0  0  0  0  0  0  0
  151.1467  143.0628  157.8028 C   0  0  2  0  0  0  0  0  0  0  0  0
  149.7528  143.3221  157.7893 O   0  0  0  0  0  0  0  0  0  0  0  0
  151.4938  142.2256  156.5432 C   0  0  0  0  0  0  0  0  0  0  0  0
  150.3809  141.4228  156.0595 N   0  0  0  0  0  0  0  0  0  0  0  0
  149.4860  141.7624  155.0700 C   0  0  0  0  0  0  0  0  0  0  0  0
  148.5654  140.8713  154.8227 N   0  0  0  0  0  0  0  0  0  0  0  0
  148.8492  139.8354  155.7052 C   0  0  0  0  0  0  0  0  0  0  0  0
  148.2556  138.5691  155.9708 C   0  0  0  0  0  0  0  0  0  0  0  0
  147.1458  138.1325  155.3237 N   0  0  0  0  0  0  0  0  0  0  0  0
  147.1306  138.1850  153.8661 C   0  0  0  0  0  0  0  0  0  0  0  0
  145.6992  137.9760  153.3516 C   0  0  0  0  0  0  0  0  0  0  0  0
  145.1513  136.7696  153.8823 O   0  0  0  0  0  0  0  0  0  0  0  0
  145.1479  136.6781  155.3129 C   0  0  1  0  0  0  0  0  0  0  0  0
  144.0998  137.5865  155.9491 C   0  0  0  0  0  0  0  0  0  0  0  0
  142.8224  136.7844  155.7553 C   0  0  0  0  0  0  0  0  0  0  0  0
  143.2233  135.4480  156.0134 O   0  0  0  0  0  0  0  0  0  0  0  0
  144.5971  135.2863  155.6665 C   0  0  0  0  0  0  0  0  0  0  0  0
  146.5788  136.8955  155.8482 C   0  0  0  0  0  0  0  0  0  0  0  0
  148.8437  137.7891  156.9174 N   0  0  0  0  0  0  0  0  0  0  0  0
  149.9283  138.2196  157.5685 C   0  0  0  0  0  0  0  0  0  0  0  0
  150.5790  139.3763  157.4319 N   0  0  0  0  0  0  0  0  0  0  0  0
  149.9987  140.1607  156.4793 C   0  0  0  0  0  0  0  0  0  0  0  0
  151.6917  140.3097  158.6498 H   0  0  0  0  0  0  0  0  0  0  0  0
  152.4707  140.7478  160.1615 H   0  0  0  0  0  0  0  0  0  0  0  0
  153.2222  141.1941  158.6379 H   0  0  0  0  0  0  0  0  0  0  0  0
  150.5881  142.2796  159.7690 H   0  0  0  0  0  0  0  0  0  0  0  0
  151.0658  145.0265  159.7746 H   0  0  0  0  0  0  0  0  0  0  0  0
  152.7908  145.3853  159.5837 H   0  0  0  0  0  0  0  0  0  0  0  0
  151.3543  145.2086  157.3247 H   0  0  0  0  0  0  0  0  0  0  0  0
  152.8681  144.3135  157.4286 H   0  0  0  0  0  0  0  0  0  0  0  0
  149.5741  143.9694  157.1249 H   0  0  0  0  0  0  0  0  0  0  0  0
  151.8087  142.8760  155.7267 H   0  0  0  0  0  0  0  0  0  0  0  0
  152.3315  141.5578  156.7477 H   0  0  0  0  0  0  0  0  0  0  0  0
  149.5342  142.7006  154.5366 H   0  0  0  0  0  0  0  0  0  0  0  0
  147.5092  139.1462  153.5159 H   0  0  0  0  0  0  0  0  0  0  0  0
  147.7868  137.4097  153.4677 H   0  0  0  0  0  0  0  0  0  0  0  0
  145.0718  138.8305  153.6019 H   0  0  0  0  0  0  0  0  0  0  0  0
  145.7026  137.9075  152.2638 H   0  0  0  0  0  0  0  0  0  0  0  0
  144.2973  137.6955  157.0167 H   0  0  0  0  0  0  0  0  0  0  0  0
  144.0419  138.5881  155.5265 H   0  0  0  0  0  0  0  0  0  0  0  0
  142.0194  137.0987  156.4219 H   0  0  0  0  0  0  0  0  0  0  0  0
  142.4682  136.8638  154.7264 H   0  0  0  0  0  0  0  0  0  0  0  0
  144.7101  134.5786  154.8446 H   0  0  0  0  0  0  0  0  0  0  0  0
  145.1090  134.8654  156.5326 H   0  0  0  0  0  0  0  0  0  0  0  0
  147.2176  136.0692  155.5333 H   0  0  0  0  0  0  0  0  0  0  0  0
  146.5731  136.8816  156.9377 H   0  0  0  0  0  0  0  0  0  0  0  0
  150.3317  137.5409  158.3053 H   0  0  0  0  0  0  0  0  0  0  0  0
  1  2  1  0  0  0  0
  1 28  1  0  0  0  0
  1 29  1  0  0  0  0
  1 30  1  0  0  0  0
  2  6  1  0  0  0  0
  2  3  1  0  0  0  0
  2 31  1  0  0  0  0
  3  4  1  0  0  0  0
  4  5  1  0  0  0  0
  4 32  1  0  0  0  0
  4 33  1  0  0  0  0
  5  6  1  0  0  0  0
  5 34  1  0  0  0  0
  5 35  1  0  0  0  0
  6  7  1  0  0  0  0
  6  8  1  0  0  0  0
  7 36  1  0  0  0  0
  8  9  1  0  0  0  0
  8 37  1  0  0  0  0
  8 38  1  0  0  0  0
  9 27  1  0  0  0  0
  9 10  1  0  0  0  0
 10 11  2  0  0  0  0
 10 39  1  0  0  0  0
 11 12  1  0  0  0  0
 12 27  2  0  0  0  0
 12 13  1  0  0  0  0
 13 14  1  0  0  0  0
 13 24  2  0  0  0  0
 14 23  1  0  0  0  0
 14 15  1  0  0  0  0
 15 16  1  0  0  0  0
 15 40  1  0  0  0  0
 15 41  1  0  0  0  0
 16 17  1  0  0  0  0
 16 42  1  0  0  0  0
 16 43  1  0  0  0  0
 17 18  1  0  0  0  0
 18 22  1  0  0  0  0
 18 19  1  0  0  0  0
 18 23  1  0  0  0  0
 19 20  1  0  0  0  0
 19 44  1  0  0  0  0
 19 45  1  0  0  0  0
 20 21  1  0  0  0  0
 20 46  1  0  0  0  0
 20 47  1  0  0  0  0
 21 22  1  0  0  0  0
 22 48  1  0  0  0  0
 22 49  1  0  0  0  0
 23 50  1  0  0  0  0
 23 51  1  0  0  0  0
 24 25  1  0  0  0  0
 25 26  2  0  0  0  0
 25 52  1  0  0  0  0
 26 27  1  0  0  0  0
M  END
> <s_m_source_file>
AV-unprocessed.smi

> <i_m_source_file_index>
264

> <i_lp_mmshare_version>
43012

> <i_f3d_flags>
0

> <s_epik_input>
W0NIMl0xW0NIMl1PW0NAQEhdKFtDSDNdKVtDQEBdMShbT0hdKVtDSDJdbihbY0hdbjIpYyhjMjMpbltjSF1uYzNOKFtDSDJdNClbQ0gyXVtDSDJdT1tDQF00NVtDSDJdW0NIMl1PW0NIMl01

> <s_epik_cmdline>
J2VwaWtfcHl0aG9uJywgJy1waCcsICc3LjAnLCAnLXRuJywgJzgnLCAnLW1hJywgJzIwMCcsICctbWV0YWxfYmluZGluZycsICctaW1hZScsICc8aW5maWxlLm1hZT4nLCAnLW9tYWUnLCAnPG91dGZpbGUubWFlPic=

> <r_lp_tautomer_probability>
1

> <r_epik_Ionization_Penalty>
0.00539389

> <r_epik_Ionization_Penalty_Charging>
0

> <r_epik_Ionization_Penalty_Neutral>
0.00539389

> <r_epik_State_Penalty>
0.00375441

> <r_epik_Charging_Adjusted_Penalty>
0.00375441

> <i_epik_Tot_Q>
0

> <i_epik_Tot_abs_Q>
0

> <r_epik_Metal_State_Penalty>
-0

> <b_epik_Metal_Only>
0

> <s_lp_Force_Field>
OPLS_2005

> <r_lp_Energy>
53.4902

> <b_lp_Chiralities_Consistent>
1

> <s_lp_Variant>
AV-unprocessed.smi:264-4

> <Gold.Version>
5.8.1

> <Gold.Id.Protein>
6NUR|6NUR_protein|mol2

> <Gold.PLP.Fitness>
32.3558

> <Gold.PLP.PLP>
-29.0807

> <Gold.PLP.part.hbond>
-1.8945

> <Gold.PLP.part.metal>
0.0000

> <Gold.PLP.part.buried>
-5.3633

> <Gold.PLP.part.nonpolar>
-21.5754

> <Gold.PLP.part.repulsive>
0.2856

> <Gold.PLP.ligand.clash>
0.0000

> <Gold.PLP.ligand.torsion>
1.1578

> <Gold.PLP.Chemscore.Hbond>
1.0000

> <Gold.PLP.Chemscore.CHOScore>
0.7707

> <Gold.PLP.Chemscore.Metal>
0.0000

> <Gold.Chemscore.Hbonds>
donor molecule, donor type, donor heavy atom, donor atom, acceptor molecule, acceptor atom, score
      L1  H     7    36       P1  8028  1.00
      L1  C    10    39       P1  8028  0.80

> <Gold.PLP.Chemscore.Internal.Correction>
0.2787

> <Gold.Rescore>
     Score         DG    S(hbond)    S(metal)    S(lipo)     H(rot)  DE(clash)    DE(int)     intcor
      9.33     -11.82       0.97        0.00      72.45       2.11       0.14       2.36       ----

> <Gold.Chemscore.Fitness>
9.3257

> <Gold.Chemscore.DG>
-11.8208

> <Gold.Chemscore.ZeroCoef>
-5.4800

> <Gold.Chemscore.Hbond>
0.9748

> <Gold.Chemscore.Metal>
0.0000

> <Gold.Chemscore.Lipo>
72.4540

> <Gold.Chemscore.Internal_Hbond>
0.0000

> <Gold.Chemscore.DEClash>
0.1363

> <Gold.Chemscore.DEInternal>
2.3589

> <Gold.Chemscore.Rot>
2.1063

> <Gold.Chemscore.Internal.Correction>
   9.000000E+99

> <Gold.Chemscore.Hbonds>
donor molecule, donor type, donor heavy atom, donor atom, acceptor molecule, acceptor atom, score
      L1  H     7    36       P1  8028  0.65

> <Gold.Chemscore.Hbond.Weighted>
-3.2558

> <Gold.Chemscore.Metal.Weighted>
-0.0000

> <Gold.Chemscore.Lipo.Weighted>
-8.4771

> <Gold.Chemscore.Internal_Hbond.Weighted>
0.0000

> <Gold.Chemscore.DEClash.Weighted>
0.1363

> <Gold.Chemscore.DEInternal.Weighted>
2.3589

> <Gold.Chemscore.Rot.Weighted>
5.3921

> <Gold.Chemscore.Internal.Correction.Weighted>
   9.000000E+99

> <Gold.Protein.RotatedTorsions>
[ 6907 6896 6895 6894 ] final -137.40 input  -60.11 | X-H torsion
[ 7974 7965 7964 7962 ] final  -53.73 input  175.53 | X-H torsion
[ 8008 7997 7996 7995 ] final   89.28 input   59.86 | X-H torsion
[ 10167 10162 10161 10158 ] final  -77.59 input  -65.29 | X-H torsion
[ 10718 10713 10712 10709 ] final  -29.18 input   66.30 | X-H torsion
[ 10763 10752 10751 10750 ] final -121.57 input  -60.55 | X-H torsion
[ 11005 11000 10999 10996 ] final   54.06 input  -57.11 | X-H torsion

> <Gold.Protein.ActiveResidues>
 VAL166  LYS551  ARG553  GLY616  TRP617  ASP618  TYR619  PRO620  LYS621  CYS622 
 ASP623  PHE694  ASN695  SER759  ASP760  ASP761  ALA762  ILE779  LEU786  VAL792 
 PHE793  MET794  SER795  GLU796  ALA797  LYS798  CYS799  TRP800  GLU811  SER814 

> <Gold.Protein.RotatedAtoms>
  151.0220  133.5868  159.2669 H   0  0  0  0  0  0  0  0  0  0  0  0  # atno 6907 bound_to 6896
  151.2981  135.0760  159.9238 H   0  0  0  0  0  0  0  0  0  0  0  0  # atno 6908 bound_to 6896
  152.5325  133.9907  159.7903 H   0  0  0  0  0  0  0  0  0  0  0  0  # atno 6909 bound_to 6896
  145.8935  140.8051  142.9779 H   0  0  0  0  0  0  0  0  0  0  0  0  # atno 7974 bound_to 7965
  155.9980  140.3362  155.6818 H   0  0  0  0  0  0  0  0  0  0  0  0  # atno 8008 bound_to 7997
  155.6329  140.0687  157.2661 H   0  0  0  0  0  0  0  0  0  0  0  0  # atno 8009 bound_to 7997
  154.4240  140.1756  156.1479 H   0  0  0  0  0  0  0  0  0  0  0  0  # atno 8010 bound_to 7997
  140.4757  143.2415  151.8137 H   0  0  0  0  0  0  0  0  0  0  0  0  # atno 10167 bound_to 10162
  156.4158  130.4417  149.7219 H   0  0  0  0  0  0  0  0  0  0  0  0  # atno 10718 bound_to 10713
  154.8671  135.4163  154.2641 H   0  0  0  0  0  0  0  0  0  0  0  0  # atno 10763 bound_to 10752
  153.3564  135.7001  153.6753 H   0  0  0  0  0  0  0  0  0  0  0  0  # atno 10764 bound_to 10752
  153.5672  135.3598  155.2795 H   0  0  0  0  0  0  0  0  0  0  0  0  # atno 10765 bound_to 10752
  140.0716  134.5461  155.9040 H   0  0  0  0  0  0  0  0  0  0  0  0  # atno 11005 bound_to 11000
  144.6731  140.1566  143.7426 LP  0  0  0  0  0  0  0  0  0  0  0  0  # atno 17320 bound_to 7965
  145.8879  139.2359  143.1567 LP  0  0  0  0  0  0  0  0  0  0  0  0  # atno 17321 bound_to 7965
  139.4825  144.4837  151.9274 LP  0  0  0  0  0  0  0  0  0  0  0  0  # atno 17342 bound_to 10162
  140.3922  144.2601  150.5899 LP  0  0  0  0  0  0  0  0  0  0  0  0  # atno 17343 bound_to 10162
  156.4180  130.7755  151.2771 LP  0  0  0  0  0  0  0  0  0  0  0  0  # atno 17370 bound_to 10713
  157.7508  131.0191  150.3655 LP  0  0  0  0  0  0  0  0  0  0  0  0  # atno 17371 bound_to 10713
  141.2014  133.6618  156.5949 LP  0  0  0  0  0  0  0  0  0  0  0  0  # atno 17394 bound_to 11000
  140.3618  134.7681  157.4539 LP  0  0  0  0  0  0  0  0  0  0  0  0  # atno 17395 bound_to 11000

$$$$
