AV-unprocessed.smi:100|AV-procd|sdf|907|dock8
  -GOLD-   2262017403D 1   1.00000     0.00000
 Structure written by MMmdl.
 31 33  0  0  0  0  0  0  0  0  1 V2000
  151.3672  137.9440  153.5516 N   0  0  0  0  0  0  0  0  0  0  0  0
  151.4917  138.1734  154.8663 C   0  0  0  0  0  0  0  0  0  0  0  0
  151.9669  137.1778  155.6506 N   0  0  0  0  0  0  0  0  0  0  0  0
  152.1022  137.3835  156.9646 C   0  0  0  0  0  0  0  0  0  0  0  0
  151.8263  138.4829  157.6707 N   0  0  0  0  0  0  0  0  0  0  0  0
  151.3436  139.4855  156.8794 C   0  0  0  0  0  0  0  0  0  0  0  0
  151.1498  139.4091  155.4719 C   0  0  0  0  0  0  0  0  0  0  0  0
  150.6496  140.6134  154.9960 N   0  0  0  0  0  0  0  0  0  0  0  0
  150.5540  141.3568  156.0653 C   0  0  0  0  0  0  0  0  0  0  0  0
  150.9451  140.7570  157.2429 N   0  0  0  0  0  0  0  0  0  0  0  0
  150.9373  141.3577  158.6157 C   0  0  2  0  0  0  0  0  0  0  0  0
  150.3328  142.6131  158.5529 O   0  0  0  0  0  0  0  0  0  0  0  0
  151.0034  143.4883  159.4531 C   0  0  2  0  0  0  0  0  0  0  0  0
  150.7184  144.9584  159.1073 C   0  0  0  0  0  0  0  0  0  0  0  0
  149.4054  145.3013  159.4974 O   0  0  0  0  0  0  0  0  0  0  0  0
  152.4676  143.0713  159.2908 C   0  0  2  0  0  0  0  0  0  0  0  0
  152.9542  143.5859  158.1590 F   0  0  0  0  0  0  0  0  0  0  0  0
  152.3514  141.5559  159.2026 C   0  0  2  0  0  0  0  0  0  0  0  0
  153.4162  140.9691  158.4749 O   0  0  0  0  0  0  0  0  0  0  0  0
  151.0153  138.6716  152.9461 H   0  0  0  0  0  0  0  0  0  0  0  0
  151.6277  137.0466  153.1696 H   0  0  0  0  0  0  0  0  0  0  0  0
  152.4861  136.5490  157.5325 H   0  0  0  0  0  0  0  0  0  0  0  0
  150.1875  142.3722  156.0245 H   0  0  0  0  0  0  0  0  0  0  0  0
  150.3273  140.6766  159.2111 H   0  0  0  0  0  0  0  0  0  0  0  0
  150.6871  143.2656  160.4742 H   0  0  0  0  0  0  0  0  0  0  0  0
  151.4014  145.6112  159.6515 H   0  0  0  0  0  0  0  0  0  0  0  0
  150.8624  145.1516  158.0436 H   0  0  0  0  0  0  0  0  0  0  0  0
  148.9179  145.5498  158.7268 H   0  0  0  0  0  0  0  0  0  0  0  0
  153.1068  143.4081  160.1072 H   0  0  0  0  0  0  0  0  0  0  0  0
  152.3463  141.1368  160.2096 H   0  0  0  0  0  0  0  0  0  0  0  0
  153.7733  140.2582  158.9845 H   0  0  0  0  0  0  0  0  0  0  0  0
  1  2  1  0  0  0  0
  1 20  1  0  0  0  0
  1 21  1  0  0  0  0
  2  7  1  0  0  0  0
  2  3  2  0  0  0  0
  3  4  1  0  0  0  0
  4  5  2  0  0  0  0
  4 22  1  0  0  0  0
  5  6  1  0  0  0  0
  6 10  1  0  0  0  0
  6  7  2  0  0  0  0
  7  8  1  0  0  0  0
  8  9  2  0  0  0  0
  9 10  1  0  0  0  0
  9 23  1  0  0  0  0
 10 11  1  0  0  0  0
 11 18  1  0  0  0  0
 11 12  1  0  0  0  0
 11 24  1  0  0  0  0
 12 13  1  0  0  0  0
 13 14  1  0  0  0  0
 13 16  1  0  0  0  0
 13 25  1  0  0  0  0
 14 15  1  0  0  0  0
 14 26  1  0  0  0  0
 14 27  1  0  0  0  0
 15 28  1  0  0  0  0
 16 17  1  0  0  0  0
 16 18  1  0  0  0  0
 16 29  1  0  0  0  0
 18 19  1  0  0  0  0
 18 30  1  0  0  0  0
 19 31  1  0  0  0  0
M  END
> <s_m_source_file>
AV-unprocessed.smi

> <i_m_source_file_index>
100

> <i_lp_mmshare_version>
43012

> <i_f3d_flags>
0

> <s_epik_input>
bjFbY0hdbmMoW05IMl0pYyhjMTIpbltjSF1uMltDQEBIXTNPW0NAQEhdKFtDSDJdW09IXSlbQ0BIXShGKVtDQEhdM1tPSF0=

> <s_epik_cmdline>
J2VwaWtfcHl0aG9uJywgJy1waCcsICc3LjAnLCAnLXRuJywgJzgnLCAnLW1hJywgJzIwMCcsICctbWV0YWxfYmluZGluZycsICctaW1hZScsICc8aW5maWxlLm1hZT4nLCAnLW9tYWUnLCAnPG91dGZpbGUubWFlPic=

> <r_lp_tautomer_probability>
1

> <r_epik_Ionization_Penalty>
0.000750324

> <r_epik_Ionization_Penalty_Charging>
0

> <r_epik_Ionization_Penalty_Neutral>
0.000750324

> <r_epik_State_Penalty>
-0

> <r_epik_Charging_Adjusted_Penalty>
0

> <i_epik_Tot_Q>
0

> <i_epik_Tot_abs_Q>
0

> <r_epik_Metal_State_Penalty>
-0

> <b_epik_Metal_Only>
0

> <s_epik_Chemistry_Notes>
This compound contains an acetal/aminal-like group ( X-CH(R)-Y where X, Y are N, S, or O) that may be acid/base labile, releasing an aldehyde.

> <s_lp_Force_Field>
OPLS_2005

> <r_lp_Energy>
39.5

> <b_lp_Chiralities_Consistent>
1

> <s_lp_Variant>
AV-unprocessed.smi:100-11

> <Gold.Version>
5.8.1

> <Gold.Id.Protein>
6NUR|6NUR_protein|mol2

> <Gold.PLP.Fitness>
39.3331

> <Gold.PLP.PLP>
-27.2484

> <Gold.PLP.part.hbond>
-5.7082

> <Gold.PLP.part.metal>
0.0000

> <Gold.PLP.part.buried>
0.8293

> <Gold.PLP.part.nonpolar>
-21.6032

> <Gold.PLP.part.repulsive>
0.3357

> <Gold.PLP.ligand.clash>
0.0000

> <Gold.PLP.ligand.torsion>
0.1558

> <Gold.PLP.Chemscore.Hbond>
3.5762

> <Gold.PLP.Chemscore.CHOScore>
0.5538

> <Gold.PLP.Chemscore.Metal>
0.0000

> <Gold.Chemscore.Hbonds>
donor molecule, donor type, donor heavy atom, donor atom, acceptor molecule, acceptor atom, score
      L1  H     1    21       P1  7949  0.71
      L1  H    15    28       P1  8029  1.00
      P1  H  7989  7998       L1     8  0.96
      P1  H  7997  8009       L1    19  0.08
      P1  H 10752 10765       L1     3  0.81
      L1  C     9    23       P1  8028  0.56

> <Gold.PLP.Chemscore.Internal.Correction>
0.0062

> <Gold.Rescore>
     Score         DG    S(hbond)    S(metal)    S(lipo)     H(rot)  DE(clash)    DE(int)     intcor
     10.81     -13.01       3.16        0.00      44.01       3.19       1.84       0.37       ----

> <Gold.Chemscore.Fitness>
10.8122

> <Gold.Chemscore.DG>
-13.0142

> <Gold.Chemscore.ZeroCoef>
-5.4800

> <Gold.Chemscore.Hbond>
3.1593

> <Gold.Chemscore.Metal>
0.0000

> <Gold.Chemscore.Lipo>
44.0081

> <Gold.Chemscore.Internal_Hbond>
0.0000

> <Gold.Chemscore.DEClash>
1.8367

> <Gold.Chemscore.DEInternal>
0.3652

> <Gold.Chemscore.Rot>
3.1901

> <Gold.Chemscore.Internal.Correction>
   9.000000E+99

> <Gold.Chemscore.Hbonds>
donor molecule, donor type, donor heavy atom, donor atom, acceptor molecule, acceptor atom, score
      L1  H     1    21       P1  7949  0.64
      L1  H    15    28       P1  8029  1.00
      P1  H  7989  7998       L1     8  0.37
      P1  H 10752 10765       L1     3  0.70

> <Gold.Chemscore.Hbond.Weighted>
-10.5519

> <Gold.Chemscore.Metal.Weighted>
-0.0000

> <Gold.Chemscore.Lipo.Weighted>
-5.1490

> <Gold.Chemscore.Internal_Hbond.Weighted>
0.0000

> <Gold.Chemscore.DEClash.Weighted>
1.8367

> <Gold.Chemscore.DEInternal.Weighted>
0.3652

> <Gold.Chemscore.Rot.Weighted>
8.1667

> <Gold.Chemscore.Internal.Correction.Weighted>
   9.000000E+99

> <Gold.Protein.RotatedTorsions>
[ 6907 6896 6895 6894 ] final  -66.96 input  -60.11 | X-H torsion
[ 7974 7965 7964 7962 ] final  -61.60 input  175.53 | X-H torsion
[ 8008 7997 7996 7995 ] final  178.62 input   59.86 | X-H torsion
[ 10167 10162 10161 10158 ] final  141.65 input  -65.29 | X-H torsion
[ 10718 10713 10712 10709 ] final  -15.19 input   66.30 | X-H torsion
[ 10763 10752 10751 10750 ] final -164.10 input  -60.55 | X-H torsion
[ 11005 11000 10999 10996 ] final   22.59 input  -57.11 | X-H torsion

> <Gold.Protein.ActiveResidues>
 VAL166  LYS551  ARG553  GLY616  TRP617  ASP618  TYR619  PRO620  LYS621  CYS622 
 ASP623  PHE694  ASN695  SER759  ASP760  ASP761  ALA762  ILE779  LEU786  VAL792 
 PHE793  MET794  SER795  GLU796  ALA797  LYS798  CYS799  TRP800  GLU811  SER814 

> <Gold.Protein.RotatedAtoms>
  150.7436  134.5947  159.6005 H   0  0  0  0  0  0  0  0  0  0  0  0  # atno 6907 bound_to 6896
  152.3325  134.7237  160.0294 H   0  0  0  0  0  0  0  0  0  0  0  0  # atno 6908 bound_to 6896
  151.7716  133.3306  159.3483 H   0  0  0  0  0  0  0  0  0  0  0  0  # atno 6909 bound_to 6896
  145.8015  140.8652  143.0229 H   0  0  0  0  0  0  0  0  0  0  0  0  # atno 7974 bound_to 7965
  156.0526  140.1329  157.0033 H   0  0  0  0  0  0  0  0  0  0  0  0  # atno 8008 bound_to 7997
  154.4442  140.1008  156.6469 H   0  0  0  0  0  0  0  0  0  0  0  0  # atno 8009 bound_to 7997
  155.5501  140.3462  155.4468 H   0  0  0  0  0  0  0  0  0  0  0  0  # atno 8010 bound_to 7997
  139.5015  144.6158  151.6167 H   0  0  0  0  0  0  0  0  0  0  0  0  # atno 10167 bound_to 10162
  156.6052  130.4835  149.6223 H   0  0  0  0  0  0  0  0  0  0  0  0  # atno 10718 bound_to 10713
  154.7060  135.2997  154.9270 H   0  0  0  0  0  0  0  0  0  0  0  0  # atno 10763 bound_to 10752
  154.0186  135.6685  153.4775 H   0  0  0  0  0  0  0  0  0  0  0  0  # atno 10764 bound_to 10752
  153.0717  135.5057  154.8231 H   0  0  0  0  0  0  0  0  0  0  0  0  # atno 10765 bound_to 10752
  140.3789  134.1941  155.7664 H   0  0  0  0  0  0  0  0  0  0  0  0  # atno 11005 bound_to 11000
  144.6768  140.0266  143.7483 LP  0  0  0  0  0  0  0  0  0  0  0  0  # atno 17320 bound_to 7965
  145.9873  139.2987  143.1006 LP  0  0  0  0  0  0  0  0  0  0  0  0  # atno 17321 bound_to 7965
  140.5845  143.9887  150.6288 LP  0  0  0  0  0  0  0  0  0  0  0  0  # atno 17342 bound_to 10162
  140.3047  143.3237  152.0937 LP  0  0  0  0  0  0  0  0  0  0  0  0  # atno 17343 bound_to 10162
  156.2436  130.6865  151.1579 LP  0  0  0  0  0  0  0  0  0  0  0  0  # atno 17370 bound_to 10713
  157.7269  131.0643  150.5889 LP  0  0  0  0  0  0  0  0  0  0  0  0  # atno 17371 bound_to 10713
  141.1930  133.8161  157.0817 LP  0  0  0  0  0  0  0  0  0  0  0  0  # atno 17394 bound_to 11000
  140.0493  134.9814  157.1107 LP  0  0  0  0  0  0  0  0  0  0  0  0  # atno 17395 bound_to 11000

$$$$
