AV-unprocessed.smi:2706|AV-procd|sdf|10452|dock2
  -GOLD-   2272014493D 1   1.00000     0.00000
 Structure written by MMmdl.
 43 46  0  0  0  0  0  0  0  0  1 V2000
  148.8563  136.8610  156.2041 C   0  0  0  0  0  0  0  0  0  0  0  0
  147.9534  137.0408  155.0717 N   0  0  0  0  0  0  0  0  0  0  0  0
  147.2465  135.8325  154.6628 C   0  0  0  0  0  0  0  0  0  0  0  0
  147.7947  138.2482  154.3890 C   0  0  0  0  0  0  0  0  0  0  0  0
  146.9394  138.3521  153.3471 C   0  0  0  0  0  0  0  0  0  0  0  0
  146.7839  139.6160  152.6568 C   0  0  0  0  0  0  0  0  0  0  0  0
  147.4873  140.7043  153.0260 C   0  0  0  0  0  0  0  0  0  0  0  0
  148.4312  140.6407  154.1260 C   0  0  0  0  0  0  0  0  0  0  0  0
  149.0977  141.7036  154.4801 N   0  0  0  0  0  0  0  0  0  0  0  0
  150.0994  141.6914  155.4506 C   0  0  0  0  0  0  0  0  0  0  0  0
  150.9209  140.7798  155.5423 O   0  0  0  0  0  0  0  0  0  0  0  0
  150.0525  142.6837  156.3637 N   0  0  0  0  0  0  0  0  0  0  0  0
  150.9513  142.8588  157.4581 C   0  0  2  0  0  0  0  0  0  0  0  0
  150.5146  143.7874  158.5718 C   0  0  1  0  0  0  0  0  0  0  0  0
  151.1819  143.9656  159.9336 C   0  0  1  0  0  0  0  0  0  0  0  0
  152.2815  142.9072  160.1616 C   0  0  0  0  0  0  0  0  0  0  0  0
  153.3821  143.3515  159.1723 C   0  0  0  0  0  0  0  0  0  0  0  0
  152.7563  144.5999  158.5172 C   0  0  2  0  0  0  0  0  0  0  0  0
  152.0281  145.2147  159.7086 C   0  0  0  0  0  0  0  0  0  0  0  0
  151.5969  144.2221  157.5983 C   0  0  1  0  0  0  0  0  0  0  0  0
  148.5134  139.3874  154.7628 N   0  0  0  0  0  0  0  0  0  0  0  0
  148.4836  137.4026  157.0740 H   0  0  0  0  0  0  0  0  0  0  0  0
  149.8506  137.2377  155.9631 H   0  0  0  0  0  0  0  0  0  0  0  0
  148.9651  135.8123  156.4817 H   0  0  0  0  0  0  0  0  0  0  0  0
  147.7525  135.3692  153.8154 H   0  0  0  0  0  0  0  0  0  0  0  0
  146.2233  136.0623  154.3666 H   0  0  0  0  0  0  0  0  0  0  0  0
  147.1908  135.1012  155.4696 H   0  0  0  0  0  0  0  0  0  0  0  0
  146.3580  137.5092  153.0049 H   0  0  0  0  0  0  0  0  0  0  0  0
  146.0882  139.6874  151.8340 H   0  0  0  0  0  0  0  0  0  0  0  0
  147.3265  141.6194  152.4742 H   0  0  0  0  0  0  0  0  0  0  0  0
  149.3188  143.3710  156.2688 H   0  0  0  0  0  0  0  0  0  0  0  0
  151.5518  141.9929  157.7257 H   0  0  0  0  0  0  0  0  0  0  0  0
  149.5553  144.2911  158.4645 H   0  0  0  0  0  0  0  0  0  0  0  0
  150.4559  144.0411  160.7435 H   0  0  0  0  0  0  0  0  0  0  0  0
  152.6516  142.9502  161.1867 H   0  0  0  0  0  0  0  0  0  0  0  0
  151.9297  141.8907  159.9830 H   0  0  0  0  0  0  0  0  0  0  0  0
  154.2934  143.6146  159.7108 H   0  0  0  0  0  0  0  0  0  0  0  0
  153.6421  142.5816  158.4453 H   0  0  0  0  0  0  0  0  0  0  0  0
  153.4748  145.2574  158.0269 H   0  0  0  0  0  0  0  0  0  0  0  0
  151.4377  146.0940  159.4448 H   0  0  0  0  0  0  0  0  0  0  0  0
  152.6831  145.4600  160.5468 H   0  0  0  0  0  0  0  0  0  0  0  0
  151.3044  144.9984  156.8935 H   0  0  0  0  0  0  0  0  0  0  0  0
  149.1274  139.2659  155.5551 H   0  0  0  0  0  0  0  0  0  0  0  0
  1  2  1  0  0  0  0
  1 22  1  0  0  0  0
  1 23  1  0  0  0  0
  1 24  1  0  0  0  0
  2  3  1  0  0  0  0
  2  4  1  0  0  0  0
  3 25  1  0  0  0  0
  3 26  1  0  0  0  0
  3 27  1  0  0  0  0
  4 21  1  0  0  0  0
  4  5  2  0  0  0  0
  5  6  1  0  0  0  0
  5 28  1  0  0  0  0
  6  7  2  0  0  0  0
  6 29  1  0  0  0  0
  7  8  1  0  0  0  0
  7 30  1  0  0  0  0
  8  9  2  0  0  0  0
  8 21  1  0  0  0  0
  9 10  1  0  0  0  0
 10 11  2  0  0  0  0
 10 12  1  0  0  0  0
 12 13  1  0  0  0  0
 12 31  1  0  0  0  0
 13 20  1  0  0  0  0
 13 14  1  0  0  0  0
 13 32  1  0  0  0  0
 14 20  1  0  0  0  0
 14 15  1  0  0  0  0
 14 33  1  0  0  0  0
 15 19  1  0  0  0  0
 15 16  1  0  0  0  0
 15 34  1  0  0  0  0
 16 17  1  0  0  0  0
 16 35  1  0  0  0  0
 16 36  1  0  0  0  0
 17 18  1  0  0  0  0
 17 37  1  0  0  0  0
 17 38  1  0  0  0  0
 18 19  1  0  0  0  0
 18 20  1  0  0  0  0
 18 39  1  0  0  0  0
 19 40  1  0  0  0  0
 19 41  1  0  0  0  0
 20 42  1  0  0  0  0
 21 43  1  0  0  0  0
M  END
> <s_m_source_file>
AV-unprocessed.smi

> <i_m_source_file_index>
2706

> <i_lp_mmshare_version>
43012

> <i_f3d_flags>
0

> <s_epik_input>
W0NIM11OKFtDSDNdKWMxW2NIXVtjSF1bY0hdYyhuMSlbTkhdQyg9TylbTkhdW0NASF0yW0NAQEhdM1tDQEBIXShbQ0gyXTQpW0NIMl1bQ0gyXVtDQEBIXTRbQ0BIXTIz

> <s_epik_cmdline>
J2VwaWtfcHl0aG9uJywgJy1waCcsICc3LjAnLCAnLXRuJywgJzgnLCAnLW1hJywgJzIwMCcsICctbWV0YWxfYmluZGluZycsICctaW1hZScsICc8aW5maWxlLm1hZT4nLCAnLW9tYWUnLCAnPG91dGZpbGUubWFlPic=

> <r_lp_tautomer_probability>
0.999994

> <r_epik_Ionization_Penalty>
2.07242

> <r_epik_Ionization_Penalty_Charging>
2.07242

> <r_epik_Ionization_Penalty_Neutral>
9.73808e-07

> <r_epik_State_Penalty>
3.96009

> <r_epik_Charging_Adjusted_Penalty>
6.03251

> <i_epik_Tot_Q>
0

> <i_epik_Tot_abs_Q>
0

> <r_epik_Metal_State_Penalty>
3.98849

> <b_epik_Metal_Only>
1

> <s_lp_Force_Field>
OPLS_2005

> <r_lp_Energy>
91.2091

> <b_lp_Chiralities_Consistent>
1

> <s_lp_Variant>
AV-unprocessed.smi:2706-9

> <Gold.Version>
5.8.1

> <Gold.Id.Protein>
6NUR|6NUR_protein|mol2

> <Gold.PLP.Fitness>
45.5915

> <Gold.PLP.PLP>
-41.9123

> <Gold.PLP.part.hbond>
-2.8367

> <Gold.PLP.part.metal>
0.0000

> <Gold.PLP.part.buried>
-1.3229

> <Gold.PLP.part.nonpolar>
-37.9239

> <Gold.PLP.part.repulsive>
0.3366

> <Gold.PLP.ligand.clash>
0.0000

> <Gold.PLP.ligand.torsion>
0.4884

> <Gold.PLP.Chemscore.Hbond>
1.5379

> <Gold.PLP.Chemscore.CHOScore>
0.0000

> <Gold.PLP.Chemscore.Metal>
0.0000

> <Gold.Chemscore.Hbonds>
donor molecule, donor type, donor heavy atom, donor atom, acceptor molecule, acceptor atom, score
      L1  H    12    31       P1  8028  0.94
      P1  H  7989  7998       L1    11  0.44
      P1  H  8011  8017       L1     9  0.08

> <Gold.PLP.Chemscore.Internal.Correction>
0.0423

> <Gold.Rescore>
     Score         DG    S(hbond)    S(metal)    S(lipo)     H(rot)  DE(clash)    DE(int)     intcor
     19.05     -19.81       0.96        0.00     117.00       1.00       0.23       0.54       ----

> <Gold.Chemscore.Fitness>
19.0490

> <Gold.Chemscore.DG>
-19.8129

> <Gold.Chemscore.ZeroCoef>
-5.4800

> <Gold.Chemscore.Hbond>
0.9593

> <Gold.Chemscore.Metal>
0.0000

> <Gold.Chemscore.Lipo>
116.9979

> <Gold.Chemscore.Internal_Hbond>
0.0000

> <Gold.Chemscore.DEClash>
0.2254

> <Gold.Chemscore.DEInternal>
0.5385

> <Gold.Chemscore.Rot>
1.0000

> <Gold.Chemscore.Internal.Correction>
   9.000000E+99

> <Gold.Chemscore.Hbonds>
donor molecule, donor type, donor heavy atom, donor atom, acceptor molecule, acceptor atom, score
      L1  H    12    31       P1  8028  0.86
      P1  H  7989  7998       L1    11  0.06
      P1  H  8011  8017       L1     9  0.02

> <Gold.Chemscore.Hbond.Weighted>
-3.2042

> <Gold.Chemscore.Metal.Weighted>
-0.0000

> <Gold.Chemscore.Lipo.Weighted>
-13.6888

> <Gold.Chemscore.Internal_Hbond.Weighted>
0.0000

> <Gold.Chemscore.DEClash.Weighted>
0.2254

> <Gold.Chemscore.DEInternal.Weighted>
0.5385

> <Gold.Chemscore.Rot.Weighted>
2.5600

> <Gold.Chemscore.Internal.Correction.Weighted>
   9.000000E+99

> <Gold.Protein.RotatedTorsions>
[ 6907 6896 6895 6894 ] final   36.22 input  -60.11 | X-H torsion
[ 7974 7965 7964 7962 ] final -173.13 input  175.53 | X-H torsion
[ 8008 7997 7996 7995 ] final  104.00 input   59.86 | X-H torsion
[ 10167 10162 10161 10158 ] final  134.70 input  -65.29 | X-H torsion
[ 10718 10713 10712 10709 ] final   70.63 input   66.30 | X-H torsion
[ 10763 10752 10751 10750 ] final  -72.61 input  -60.55 | X-H torsion
[ 11005 11000 10999 10996 ] final  -95.44 input  -57.11 | X-H torsion

> <Gold.Protein.ActiveResidues>
 VAL166  LYS551  ARG553  GLY616  TRP617  ASP618  TYR619  PRO620  LYS621  CYS622 
 ASP623  PHE694  ASN695  SER759  ASP760  ASP761  ALA762  ILE779  LEU786  VAL792 
 PHE793  MET794  SER795  GLU796  ALA797  LYS798  CYS799  TRP800  GLU811  SER814 

> <Gold.Protein.RotatedAtoms>
  152.1268  134.9165  160.0560 H   0  0  0  0  0  0  0  0  0  0  0  0  # atno 6907 bound_to 6896
  152.0285  133.3922  159.4295 H   0  0  0  0  0  0  0  0  0  0  0  0  # atno 6908 bound_to 6896
  150.6853  134.3468  159.4935 H   0  0  0  0  0  0  0  0  0  0  0  0  # atno 6909 bound_to 6896
  144.7140  140.1668  143.6371 H   0  0  0  0  0  0  0  0  0  0  0  0  # atno 7974 bound_to 7965
  156.1534  140.3155  155.8686 H   0  0  0  0  0  0  0  0  0  0  0  0  # atno 8008 bound_to 7997
  155.3926  140.0494  157.3057 H   0  0  0  0  0  0  0  0  0  0  0  0  # atno 8009 bound_to 7997
  154.5079  140.2154  155.9226 H   0  0  0  0  0  0  0  0  0  0  0  0  # atno 8010 bound_to 7997
  139.5246  144.6554  151.5177 H   0  0  0  0  0  0  0  0  0  0  0  0  # atno 10167 bound_to 10162
  157.6410  130.9487  150.0677 H   0  0  0  0  0  0  0  0  0  0  0  0  # atno 10718 bound_to 10713
  154.4481  135.5924  153.6173 H   0  0  0  0  0  0  0  0  0  0  0  0  # atno 10763 bound_to 10752
  152.9811  135.6014  154.3639 H   0  0  0  0  0  0  0  0  0  0  0  0  # atno 10764 bound_to 10752
  154.3497  135.2841  155.2357 H   0  0  0  0  0  0  0  0  0  0  0  0  # atno 10765 bound_to 10752
  141.1442  133.8026  157.0436 H   0  0  0  0  0  0  0  0  0  0  0  0  # atno 11005 bound_to 11000
  145.8980  139.2414  143.1510 LP  0  0  0  0  0  0  0  0  0  0  0  0  # atno 17320 bound_to 7965
  145.9839  140.8660  143.0101 LP  0  0  0  0  0  0  0  0  0  0  0  0  # atno 17321 bound_to 7965
  140.6377  143.8951  150.6663 LP  0  0  0  0  0  0  0  0  0  0  0  0  # atno 17342 bound_to 10162
  140.2275  143.3761  152.1593 LP  0  0  0  0  0  0  0  0  0  0  0  0  # atno 17343 bound_to 10162
  156.1691  130.3646  149.9191 LP  0  0  0  0  0  0  0  0  0  0  0  0  # atno 17370 bound_to 10713
  156.7170  130.8992  151.3615 LP  0  0  0  0  0  0  0  0  0  0  0  0  # atno 17371 bound_to 10713
  140.0677  134.9720  157.1414 LP  0  0  0  0  0  0  0  0  0  0  0  0  # atno 17394 bound_to 11000
  140.3756  134.2343  155.7174 LP  0  0  0  0  0  0  0  0  0  0  0  0  # atno 17395 bound_to 11000

$$$$
