AV-unprocessed.smi:2622|AV-procd|sdf|10227|dock2
  -GOLD-   2272014233D 1   1.00000     0.00000
 Structure written by MMmdl.
 26 27  0  0  0  0  0  0  0  0  2 V2000
  151.8438  139.2456  158.9126 O   0  0  0  0  0  0  0  0  0  0  0  0
  152.7713  140.0827  158.8408 C   0  0  0  0  0  0  0  0  0  0  0  0
  153.9649  139.7354  158.9803 O   0  5  0  0  0  0  0  0  0  0  0  0
  152.4124  141.5324  158.5800 C   0  0  0  0  0  0  0  0  0  0  0  0
  152.9158  142.5255  159.4560 C   0  0  0  0  0  0  0  0  0  0  0  0
  152.6021  143.8796  159.2434 C   0  0  0  0  0  0  0  0  0  0  0  0
  151.7860  144.2076  158.1498 C   0  0  0  0  0  0  0  0  0  0  0  0
  151.2930  143.2870  157.2998 N   0  0  0  0  0  0  0  0  0  0  0  0
  151.5903  141.9777  157.4972 C   0  0  0  0  0  0  0  0  0  0  0  0
  151.0297  141.0899  156.5630 N   0  0  0  0  0  0  0  0  0  0  0  0
  150.1252  141.7156  155.6081 C   0  0  0  0  0  0  0  0  0  0  0  0
  149.4269  140.6331  154.7674 C   0  0  0  0  0  0  0  0  0  0  0  0
  150.4055  139.8088  154.1389 O   0  0  0  0  0  0  0  0  0  0  0  0
  151.2351  139.1443  155.0889 C   0  0  0  0  0  0  0  0  0  0  0  0
  151.9849  140.1856  155.9373 C   0  0  0  0  0  0  0  0  0  0  0  0
  153.5435  142.2658  160.2959 H   0  0  0  0  0  0  0  0  0  0  0  0
  152.9790  144.6463  159.9036 H   0  0  0  0  0  0  0  0  0  0  0  0
  151.5212  145.2355  157.9513 H   0  0  0  0  0  0  0  0  0  0  0  0
  149.3847  142.3156  156.1384 H   0  0  0  0  0  0  0  0  0  0  0  0
  150.6845  142.3886  154.9568 H   0  0  0  0  0  0  0  0  0  0  0  0
  148.7682  140.0243  155.3891 H   0  0  0  0  0  0  0  0  0  0  0  0
  148.8049  141.0952  154.0008 H   0  0  0  0  0  0  0  0  0  0  0  0
  150.6311  138.4911  155.7211 H   0  0  0  0  0  0  0  0  0  0  0  0
  151.9446  138.5088  154.5594 H   0  0  0  0  0  0  0  0  0  0  0  0
  152.6722  140.7519  155.3075 H   0  0  0  0  0  0  0  0  0  0  0  0
  152.5798  139.6881  156.7042 H   0  0  0  0  0  0  0  0  0  0  0  0
  1  2  2  0  0  0  0
  2  3  1  0  0  0  0
  2  4  1  0  0  0  0
  4  9  1  0  0  0  0
  4  5  2  0  0  0  0
  5  6  1  0  0  0  0
  5 16  1  0  0  0  0
  6  7  2  0  0  0  0
  6 17  1  0  0  0  0
  7  8  1  0  0  0  0
  7 18  1  0  0  0  0
  8  9  2  0  0  0  0
  9 10  1  0  0  0  0
 10 15  1  0  0  0  0
 10 11  1  0  0  0  0
 11 12  1  0  0  0  0
 11 19  1  0  0  0  0
 11 20  1  0  0  0  0
 12 13  1  0  0  0  0
 12 21  1  0  0  0  0
 12 22  1  0  0  0  0
 13 14  1  0  0  0  0
 14 15  1  0  0  0  0
 14 23  1  0  0  0  0
 14 24  1  0  0  0  0
 15 25  1  0  0  0  0
 15 26  1  0  0  0  0
M  CHG  1   3  -1
M  END
> <s_m_source_file>
AV-unprocessed.smi

> <i_m_source_file_index>
2622

> <i_lp_mmshare_version>
43012

> <i_f3d_flags>
0

> <s_epik_input>
Tz1DKFtPSF0pYzFbY0hdW2NIXVtjSF1uYzFOMltDSDJdW0NIMl1PW0NIMl1bQ0gyXTI=

> <s_epik_cmdline>
J2VwaWtfcHl0aG9uJywgJy1waCcsICc3LjAnLCAnLXRuJywgJzgnLCAnLW1hJywgJzIwMCcsICctbWV0YWxfYmluZGluZycsICctaW1hZScsICc8aW5maWxlLm1hZT4nLCAnLW9tYWUnLCAnPG91dGZpbGUubWFlPic=

> <r_epik_Ionization_Penalty>
0.0087984

> <r_epik_Ionization_Penalty_Charging>
0.000175699

> <r_epik_Ionization_Penalty_Neutral>
0.0086227

> <r_epik_State_Penalty>
0.00645777

> <r_epik_Charging_Adjusted_Penalty>
0.00663347

> <i_epik_Tot_Q>
-1

> <i_epik_Tot_abs_Q>
1

> <r_epik_Metal_State_Penalty>
6.49305e-06

> <b_epik_Metal_Only>
0

> <s_lp_Force_Field>
OPLS_2005

> <r_lp_Energy>
24.8518

> <b_lp_Chiralities_Consistent>
1

> <s_lp_Variant>
AV-unprocessed.smi:2622-1

> <Gold.Version>
5.8.1

> <Gold.Id.Protein>
6NUR|6NUR_protein|mol2

> <Gold.PLP.Fitness>
38.6549

> <Gold.PLP.PLP>
-31.8488

> <Gold.PLP.part.hbond>
-2.0000

> <Gold.PLP.part.metal>
0.0000

> <Gold.PLP.part.buried>
-4.3291

> <Gold.PLP.part.nonpolar>
-24.9815

> <Gold.PLP.part.repulsive>
0.5281

> <Gold.PLP.ligand.clash>
0.0000

> <Gold.PLP.ligand.torsion>
1.0303

> <Gold.PLP.Chemscore.Hbond>
2.9000

> <Gold.PLP.Chemscore.CHOScore>
0.0000

> <Gold.PLP.Chemscore.Metal>
0.0000

> <Gold.Chemscore.Hbonds>
donor molecule, donor type, donor heavy atom, donor atom, acceptor molecule, acceptor atom, score
      P1  H  7989  7998       L1    13  0.90
      P1  H  7997  8008       L1     3  2.00

> <Gold.PLP.Chemscore.Internal.Correction>
0.1667

> <Gold.Rescore>
     Score         DG    S(hbond)    S(metal)    S(lipo)     H(rot)  DE(clash)    DE(int)     intcor
     13.65     -15.96       1.16        0.00      78.24       1.00       0.05       2.25       ----

> <Gold.Chemscore.Fitness>
13.6513

> <Gold.Chemscore.DG>
-15.9564

> <Gold.Chemscore.ZeroCoef>
-5.4800

> <Gold.Chemscore.Hbond>
1.1625

> <Gold.Chemscore.Metal>
0.0000

> <Gold.Chemscore.Lipo>
78.2358

> <Gold.Chemscore.Internal_Hbond>
0.0000

> <Gold.Chemscore.DEClash>
0.0513

> <Gold.Chemscore.DEInternal>
2.2538

> <Gold.Chemscore.Rot>
1.0000

> <Gold.Chemscore.Internal.Correction>
   9.000000E+99

> <Gold.Chemscore.Hbonds>
donor molecule, donor type, donor heavy atom, donor atom, acceptor molecule, acceptor atom, score
      P1  H  7989  7998       L1    13  0.11
      P1  H  7997  8008       L1     3  0.75

> <Gold.Chemscore.Hbond.Weighted>
-3.8828

> <Gold.Chemscore.Metal.Weighted>
-0.0000

> <Gold.Chemscore.Lipo.Weighted>
-9.1536

> <Gold.Chemscore.Internal_Hbond.Weighted>
0.0000

> <Gold.Chemscore.DEClash.Weighted>
0.0513

> <Gold.Chemscore.DEInternal.Weighted>
2.2538

> <Gold.Chemscore.Rot.Weighted>
2.5600

> <Gold.Chemscore.Internal.Correction.Weighted>
   9.000000E+99

> <Gold.Protein.RotatedTorsions>
[ 6907 6896 6895 6894 ] final  -90.44 input  -60.11 | X-H torsion
[ 7974 7965 7964 7962 ] final  -66.74 input  175.53 | X-H torsion
[ 8008 7997 7996 7995 ] final -113.33 input   59.86 | X-H torsion
[ 10167 10162 10161 10158 ] final -121.73 input  -65.29 | X-H torsion
[ 10718 10713 10712 10709 ] final  -16.23 input   66.30 | X-H torsion
[ 10763 10752 10751 10750 ] final   60.39 input  -60.55 | X-H torsion
[ 11005 11000 10999 10996 ] final   19.76 input  -57.11 | X-H torsion

> <Gold.Protein.ActiveResidues>
 VAL166  LYS551  ARG553  GLY616  TRP617  ASP618  TYR619  PRO620  LYS621  CYS622 
 ASP623  PHE694  ASN695  SER759  ASP760  ASP761  ALA762  ILE779  LEU786  VAL792 
 PHE793  MET794  SER795  GLU796  ALA797  LYS798  CYS799  TRP800  GLU811  SER814 

> <Gold.Protein.RotatedAtoms>
  150.6882  134.2432  159.4480 H   0  0  0  0  0  0  0  0  0  0  0  0  # atno 6907 bound_to 6896
  152.0375  134.9729  160.0582 H   0  0  0  0  0  0  0  0  0  0  0  0  # atno 6908 bound_to 6896
  152.1243  133.4336  159.4727 H   0  0  0  0  0  0  0  0  0  0  0  0  # atno 6909 bound_to 6896
  145.7380  140.8966  143.0545 H   0  0  0  0  0  0  0  0  0  0  0  0  # atno 7974 bound_to 7965
  155.0190  140.0393  157.2430 H   0  0  0  0  0  0  0  0  0  0  0  0  # atno 8008 bound_to 7997
  154.7394  140.2746  155.6363 H   0  0  0  0  0  0  0  0  0  0  0  0  # atno 8009 bound_to 7997
  156.2861  140.2668  156.2117 H   0  0  0  0  0  0  0  0  0  0  0  0  # atno 8010 bound_to 7997
  140.0219  143.5336  152.2217 H   0  0  0  0  0  0  0  0  0  0  0  0  # atno 10167 bound_to 10162
  156.5905  130.4797  149.6281 H   0  0  0  0  0  0  0  0  0  0  0  0  # atno 10718 bound_to 10713
  152.9920  135.5538  154.5867 H   0  0  0  0  0  0  0  0  0  0  0  0  # atno 10763 bound_to 10752
  154.5237  135.2809  155.1243 H   0  0  0  0  0  0  0  0  0  0  0  0  # atno 10764 bound_to 10752
  154.2586  135.6385  153.5319 H   0  0  0  0  0  0  0  0  0  0  0  0  # atno 10765 bound_to 10752
  140.4102  134.1626  155.7667 H   0  0  0  0  0  0  0  0  0  0  0  0  # atno 11005 bound_to 11000
  144.6877  139.9422  143.7475 LP  0  0  0  0  0  0  0  0  0  0  0  0  # atno 17320 bound_to 7965
  146.0475  139.3479  143.0660 LP  0  0  0  0  0  0  0  0  0  0  0  0  # atno 17321 bound_to 7965
  139.6134  144.7614  151.2901 LP  0  0  0  0  0  0  0  0  0  0  0  0  # atno 17342 bound_to 10162
  140.7339  143.6782  150.8023 LP  0  0  0  0  0  0  0  0  0  0  0  0  # atno 17343 bound_to 10162
  156.2554  130.6931  151.1683 LP  0  0  0  0  0  0  0  0  0  0  0  0  # atno 17370 bound_to 10713
  157.7305  131.0616  150.5724 LP  0  0  0  0  0  0  0  0  0  0  0  0  # atno 17371 bound_to 10713
  141.1824  133.8386  157.1210 LP  0  0  0  0  0  0  0  0  0  0  0  0  # atno 17394 bound_to 11000
  140.0273  134.9918  157.0711 LP  0  0  0  0  0  0  0  0  0  0  0  0  # atno 17395 bound_to 11000

$$$$
