AV-unprocessed.smi:1399|AV-procd|sdf|5684|dock4
  -GOLD-   22720 5313D 1   1.00000     0.00000
 Structure written by MMmdl.
 37 38  0  0  0  0  0  0  0  0  3 V2000
  147.9875  142.9079  154.1074 N   0  5  0  0  0  0  0  0  0  0  0  0
  146.6988  142.5177  154.0908 C   0  0  0  0  0  0  0  0  0  0  0  0
  145.7374  143.1055  153.5992 O   0  0  0  0  0  0  0  0  0  0  0  0
  146.4897  141.1575  154.7646 C   0  0  0  0  0  0  0  0  0  0  0  0
  146.1838  140.1233  153.7451 N   0  3  2  0  0  0  0  0  0  0  0  0
  145.8811  138.8030  154.3538 C   0  0  0  0  0  0  0  0  0  0  0  0
  145.4282  137.7897  153.2888 C   0  0  0  0  0  0  0  0  0  0  0  0
  146.4818  137.6416  152.1797 C   0  0  1  0  0  0  0  0  0  0  0  0
  145.9907  136.7393  151.1421 N   0  0  0  0  0  0  0  0  0  0  0  0
  145.4119  135.5505  151.3660 C   0  0  0  0  0  0  0  0  0  0  0  0
  145.2226  135.0879  152.4909 O   0  0  0  0  0  0  0  0  0  0  0  0
  145.0802  134.9434  150.2152 N   0  0  0  0  0  0  0  0  0  0  0  0
  144.4513  133.6822  150.0626 C   0  0  0  0  0  0  0  0  0  0  0  0
  144.1573  132.9583  148.8697 C   0  0  0  0  0  0  0  0  0  0  0  0
  143.5611  131.8062  149.1425 N   0  0  0  0  0  0  0  0  0  0  0  0
  143.4726  131.7870  150.4915 N   0  0  0  0  0  0  0  0  0  0  0  0
  144.0034  132.9078  151.0910 C   0  0  0  0  0  0  0  0  0  0  0  0
  146.8057  139.0263  151.5907 C   0  0  0  0  0  0  0  0  0  0  0  0
  147.2282  140.0135  152.6910 C   0  0  0  0  0  0  0  0  0  0  0  0
  143.0515  131.0108  150.9821 H   0  0  0  0  0  0  0  0  0  0  0  0
  148.7106  142.2330  153.8302 H   0  0  0  0  0  0  0  0  0  0  0  0
  147.3412  140.8522  155.3769 H   0  0  0  0  0  0  0  0  0  0  0  0
  145.6451  141.2714  155.4456 H   0  0  0  0  0  0  0  0  0  0  0  0
  146.7638  138.4323  154.8774 H   0  0  0  0  0  0  0  0  0  0  0  0
  145.0923  138.9133  155.0989 H   0  0  0  0  0  0  0  0  0  0  0  0
  145.2400  136.8232  153.7578 H   0  0  0  0  0  0  0  0  0  0  0  0
  144.4791  138.1163  152.8604 H   0  0  0  0  0  0  0  0  0  0  0  0
  147.3872  137.2215  152.6226 H   0  0  0  0  0  0  0  0  0  0  0  0
  146.1053  137.0393  150.1849 H   0  0  0  0  0  0  0  0  0  0  0  0
  145.3055  135.4292  149.3596 H   0  0  0  0  0  0  0  0  0  0  0  0
  144.3482  133.2135  147.8381 H   0  0  0  0  0  0  0  0  0  0  0  0
  144.0131  133.0505  152.1614 H   0  0  0  0  0  0  0  0  0  0  0  0
  147.6011  138.9446  150.8490 H   0  0  0  0  0  0  0  0  0  0  0  0
  145.9339  139.4209  151.0664 H   0  0  0  0  0  0  0  0  0  0  0  0
  147.4134  140.9885  152.2396 H   0  0  0  0  0  0  0  0  0  0  0  0
  148.1687  139.6922  153.1413 H   0  0  0  0  0  0  0  0  0  0  0  0
  145.3359  140.4303  153.2900 H   0  0  0  0  0  0  0  0  0  0  0  0
  1  2  1  0  0  0  0
  1 21  1  0  0  0  0
  2  3  2  0  0  0  0
  2  4  1  0  0  0  0
  4  5  1  0  0  0  0
  4 22  1  0  0  0  0
  4 23  1  0  0  0  0
  5 19  1  0  0  0  0
  5  6  1  0  0  0  0
  5 37  1  0  0  0  0
  6  7  1  0  0  0  0
  6 24  1  0  0  0  0
  6 25  1  0  0  0  0
  7  8  1  0  0  0  0
  7 26  1  0  0  0  0
  7 27  1  0  0  0  0
  8  9  1  0  0  0  0
  8 18  1  0  0  0  0
  8 28  1  0  0  0  0
  9 10  1  0  0  0  0
  9 29  1  0  0  0  0
 10 11  2  0  0  0  0
 10 12  1  0  0  0  0
 12 13  1  0  0  0  0
 12 30  1  0  0  0  0
 13 17  2  0  0  0  0
 13 14  1  0  0  0  0
 14 15  2  0  0  0  0
 14 31  1  0  0  0  0
 15 16  1  0  0  0  0
 16 20  1  0  0  0  0
 16 17  1  0  0  0  0
 17 32  1  0  0  0  0
 18 19  1  0  0  0  0
 18 33  1  0  0  0  0
 18 34  1  0  0  0  0
 19 35  1  0  0  0  0
 19 36  1  0  0  0  0
M  CHG  1   1  -1
M  CHG  1   5   1
M  END
> <s_m_source_file>
AV-unprocessed.smi

> <i_m_source_file_index>
1399

> <i_lp_mmshare_version>
43012

> <i_f3d_flags>
0

> <s_epik_input>
W05IMl1DKD1PKVtDSDJdTjFbQ0gyXVtDSDJdW0NIXShbQ0gyXVtDSDJdMSlbTkhdQyg9TylbTkhdYzJbY0hdbltuSF1bY0hdMg==

> <s_epik_cmdline>
J2VwaWtfcHl0aG9uJywgJy1waCcsICc3LjAnLCAnLXRuJywgJzgnLCAnLW1hJywgJzIwMCcsICctbWV0YWxfYmluZGluZycsICctaW1hZScsICc8aW5maWxlLm1hZT4nLCAnLW9tYWUnLCAnPG91dGZpbGUubWFlPic=

> <r_lp_tautomer_probability>
0.5

> <r_epik_Ionization_Penalty>
5.72885

> <r_epik_Ionization_Penalty_Charging>
5.7288

> <r_epik_Ionization_Penalty_Neutral>
4.21226e-05

> <r_epik_State_Penalty>
6.54882

> <r_epik_Charging_Adjusted_Penalty>
12.2776

> <i_epik_Tot_Q>
0

> <i_epik_Tot_abs_Q>
2

> <r_epik_Metal_State_Penalty>
2.51297

> <b_epik_Metal_Only>
1

> <s_lp_Force_Field>
OPLS_2005

> <r_lp_Energy>
11.0753

> <b_lp_Chiralities_Consistent>
1

> <s_lp_Variant>
AV-unprocessed.smi:1399-4

> <Gold.Version>
5.8.1

> <Gold.Id.Protein>
6NUR|6NUR_protein|mol2

> <Gold.PLP.Fitness>
48.6586

> <Gold.PLP.PLP>
-33.6506

> <Gold.PLP.part.hbond>
-8.2999

> <Gold.PLP.part.metal>
0.0000

> <Gold.PLP.part.buried>
2.3110

> <Gold.PLP.part.nonpolar>
-27.8944

> <Gold.PLP.part.repulsive>
1.0709

> <Gold.PLP.ligand.clash>
0.0000

> <Gold.PLP.ligand.torsion>
0.2632

> <Gold.PLP.Chemscore.Hbond>
4.5120

> <Gold.PLP.Chemscore.CHOScore>
0.6551

> <Gold.PLP.Chemscore.Metal>
0.0000

> <Gold.Chemscore.Hbonds>
donor molecule, donor type, donor heavy atom, donor atom, acceptor molecule, acceptor atom, score
      L1  H     5    37       P1 10175  2.00
      L1  H    12    30       P1  7921  0.66
      P1  H  8022  8030       L1     1  0.90
      P1  H 10785 10796       L1    15  0.90
      L1  C    14    31       P1  7921  0.66

> <Gold.PLP.Chemscore.Internal.Correction>
0.0330

> <Gold.Rescore>
     Score         DG    S(hbond)    S(metal)    S(lipo)     H(rot)  DE(clash)    DE(int)     intcor
     13.46     -17.29       2.92        0.00      62.75       2.06       0.99       2.84       ----

> <Gold.Chemscore.Fitness>
13.4609

> <Gold.Chemscore.DG>
-17.2897

> <Gold.Chemscore.ZeroCoef>
-5.4800

> <Gold.Chemscore.Hbond>
2.9155

> <Gold.Chemscore.Metal>
0.0000

> <Gold.Chemscore.Lipo>
62.7479

> <Gold.Chemscore.Internal_Hbond>
0.0000

> <Gold.Chemscore.DEClash>
0.9882

> <Gold.Chemscore.DEInternal>
2.8406

> <Gold.Chemscore.Rot>
2.0584

> <Gold.Chemscore.Internal.Correction>
   9.000000E+99

> <Gold.Chemscore.Hbonds>
donor molecule, donor type, donor heavy atom, donor atom, acceptor molecule, acceptor atom, score
      L1  H     5    37       P1 10175  0.98
      L1  H    12    30       P1  7921  0.63
      P1  H  8022  8030       L1     1  0.59
      P1  H 10785 10796       L1    15  0.31

> <Gold.Chemscore.Hbond.Weighted>
-9.7377

> <Gold.Chemscore.Metal.Weighted>
-0.0000

> <Gold.Chemscore.Lipo.Weighted>
-7.3415

> <Gold.Chemscore.Internal_Hbond.Weighted>
0.0000

> <Gold.Chemscore.DEClash.Weighted>
0.9882

> <Gold.Chemscore.DEInternal.Weighted>
2.8406

> <Gold.Chemscore.Rot.Weighted>
5.2695

> <Gold.Chemscore.Internal.Correction.Weighted>
   9.000000E+99

> <Gold.Protein.RotatedTorsions>
[ 6907 6896 6895 6894 ] final -114.19 input  -60.11 | X-H torsion
[ 7974 7965 7964 7962 ] final  -15.76 input  175.53 | X-H torsion
[ 8008 7997 7996 7995 ] final   91.28 input   59.86 | X-H torsion
[ 10167 10162 10161 10158 ] final  -17.17 input  -65.29 | X-H torsion
[ 10718 10713 10712 10709 ] final   89.51 input   66.30 | X-H torsion
[ 10763 10752 10751 10750 ] final   78.35 input  -60.55 | X-H torsion
[ 11005 11000 10999 10996 ] final -156.28 input  -57.11 | X-H torsion

> <Gold.Protein.ActiveResidues>
 VAL166  LYS551  ARG553  GLY616  TRP617  ASP618  TYR619  PRO620  LYS621  CYS622 
 ASP623  PHE694  ASN695  SER759  ASP760  ASP761  ALA762  ILE779  LEU786  VAL792 
 PHE793  MET794  SER795  GLU796  ALA797  LYS798  CYS799  TRP800  GLU811  SER814 

> <Gold.Protein.RotatedAtoms>
  150.7884  133.8837  159.3292 H   0  0  0  0  0  0  0  0  0  0  0  0  # atno 6907 bound_to 6896
  151.6681  135.0978  160.0202 H   0  0  0  0  0  0  0  0  0  0  0  0  # atno 6908 bound_to 6896
  152.3953  133.6699  159.6306 H   0  0  0  0  0  0  0  0  0  0  0  0  # atno 6909 bound_to 6896
  146.2018  140.3539  142.8421 H   0  0  0  0  0  0  0  0  0  0  0  0  # atno 7974 bound_to 7965
  156.0219  140.3339  155.7048 H   0  0  0  0  0  0  0  0  0  0  0  0  # atno 8008 bound_to 7997
  155.6010  140.0655  157.2751 H   0  0  0  0  0  0  0  0  0  0  0  0  # atno 8009 bound_to 7997
  154.4319  140.1810  156.1161 H   0  0  0  0  0  0  0  0  0  0  0  0  # atno 8010 bound_to 7997
  140.7243  143.5042  150.9830 H   0  0  0  0  0  0  0  0  0  0  0  0  # atno 10167 bound_to 10162
  157.6955  131.0336  150.3436 H   0  0  0  0  0  0  0  0  0  0  0  0  # atno 10718 bound_to 10713
  153.0867  135.4880  154.8611 H   0  0  0  0  0  0  0  0  0  0  0  0  # atno 10763 bound_to 10752
  154.7219  135.3041  154.9035 H   0  0  0  0  0  0  0  0  0  0  0  0  # atno 10764 bound_to 10752
  153.9697  135.6802  153.4800 H   0  0  0  0  0  0  0  0  0  0  0  0  # atno 10765 bound_to 10752
  140.6773  134.4183  157.5228 H   0  0  0  0  0  0  0  0  0  0  0  0  # atno 11005 bound_to 11000
  144.8700  140.7259  143.6053 LP  0  0  0  0  0  0  0  0  0  0  0  0  # atno 17320 bound_to 7965
  145.3458  139.1719  143.4461 LP  0  0  0  0  0  0  0  0  0  0  0  0  # atno 17321 bound_to 7965
  139.8753  143.7140  152.3162 LP  0  0  0  0  0  0  0  0  0  0  0  0  # atno 17342 bound_to 10162
  139.7403  144.7561  151.0662 LP  0  0  0  0  0  0  0  0  0  0  0  0  # atno 17343 bound_to 10162
  156.3894  130.3895  149.7041 LP  0  0  0  0  0  0  0  0  0  0  0  0  # atno 17370 bound_to 10713
  156.4396  130.7855  151.2876 LP  0  0  0  0  0  0  0  0  0  0  0  0  # atno 17371 bound_to 10713
  139.8963  134.8664  156.2095 LP  0  0  0  0  0  0  0  0  0  0  0  0  # atno 17394 bound_to 11000
  141.0345  133.6970  156.1489 LP  0  0  0  0  0  0  0  0  0  0  0  0  # atno 17395 bound_to 11000

$$$$
