AV-unprocessed.smi:276|AV-procd|sdf|2074|dock6
  -GOLD-   2262021333D 1   1.00000     0.00000
 Structure written by MMmdl.
 57 61  0  0  0  0  0  0  0  0  1 V2000
  144.7203  132.6973  160.8476 C   0  0  0  0  0  0  0  0  0  0  0  0
  145.4085  133.8386  161.3275 O   0  0  0  0  0  0  0  0  0  0  0  0
  146.2719  134.4045  160.3543 C   0  0  2  0  0  0  0  0  0  0  0  0
  147.4423  133.5039  159.9388 C   0  0  0  0  0  0  0  0  0  0  0  0
  148.3483  134.7515  159.9518 C   0  0  1  0  0  0  0  0  0  0  0  0
  148.4210  135.3775  158.6233 N   0  0  0  0  0  0  0  0  0  0  0  0
  148.9928  134.5566  157.5607 C   0  0  0  0  0  0  0  0  0  0  0  0
  148.9784  136.6076  158.5911 C   0  0  0  0  0  0  0  0  0  0  0  0
  150.2636  136.7139  159.0106 N   0  0  0  0  0  0  0  0  0  0  0  0
  150.8744  137.9023  158.9945 C   0  0  0  0  0  0  0  0  0  0  0  0
  150.3888  139.0861  158.6142 N   0  0  0  0  0  0  0  0  0  0  0  0
  149.0903  138.9836  158.2100 C   0  0  0  0  0  0  0  0  0  0  0  0
  148.3125  137.7929  158.1671 C   0  0  0  0  0  0  0  0  0  0  0  0
  147.0335  138.0789  157.7042 N   0  0  0  0  0  0  0  0  0  0  0  0
  147.0538  139.3654  157.4870 C   0  0  0  0  0  0  0  0  0  0  0  0
  148.2466  139.9894  157.7740 N   0  0  0  0  0  0  0  0  0  0  0  0
  148.5424  141.4042  157.6392 C   0  0  0  0  0  0  0  0  0  0  0  0
  150.0469  141.7000  157.4529 C   0  0  1  0  0  0  0  0  0  0  0  0
  150.2227  142.1248  156.1162 O   0  0  0  0  0  0  0  0  0  0  0  0
  150.6194  142.7775  158.4026 C   0  0  2  0  0  0  0  0  0  0  0  0
  151.8574  143.4967  157.8562 C   0  0  0  0  0  0  0  0  0  0  0  0
  152.5544  143.9390  159.1213 C   0  0  0  0  0  0  0  0  0  0  0  0
  152.3195  142.7380  160.0273 C   0  0  0  0  0  0  0  0  0  0  0  0
  151.0599  142.2037  159.6345 O   0  0  0  0  0  0  0  0  0  0  0  0
  147.3184  135.3725  160.9352 C   0  0  0  0  0  0  0  0  0  0  0  0
  147.6142  135.3617  162.4468 C   0  0  0  0  0  0  0  0  0  0  0  0
  146.7354  136.6092  162.5733 C   0  0  0  0  0  0  0  0  0  0  0  0
  147.0164  136.8749  161.0927 C   0  0  0  0  0  0  0  0  0  0  0  0
  144.0655  132.3109  161.6285 H   0  0  0  0  0  0  0  0  0  0  0  0
  145.4140  131.9036  160.5679 H   0  0  0  0  0  0  0  0  0  0  0  0
  144.1035  132.9441  159.9828 H   0  0  0  0  0  0  0  0  0  0  0  0
  145.7447  134.8397  159.5024 H   0  0  0  0  0  0  0  0  0  0  0  0
  147.7130  132.7865  160.7154 H   0  0  0  0  0  0  0  0  0  0  0  0
  147.3042  133.0064  158.9792 H   0  0  0  0  0  0  0  0  0  0  0  0
  149.3200  134.5519  160.4041 H   0  0  0  0  0  0  0  0  0  0  0  0
  149.2243  135.1449  156.6709 H   0  0  0  0  0  0  0  0  0  0  0  0
  148.2938  133.7783  157.2568 H   0  0  0  0  0  0  0  0  0  0  0  0
  149.9123  134.0767  157.8982 H   0  0  0  0  0  0  0  0  0  0  0  0
  151.8992  137.9055  159.3352 H   0  0  0  0  0  0  0  0  0  0  0  0
  146.1893  139.8988  157.1196 H   0  0  0  0  0  0  0  0  0  0  0  0
  147.9757  141.7853  156.7885 H   0  0  0  0  0  0  0  0  0  0  0  0
  148.1641  141.9205  158.5227 H   0  0  0  0  0  0  0  0  0  0  0  0
  150.6159  140.7783  157.5774 H   0  0  0  0  0  0  0  0  0  0  0  0
  149.6708  142.8769  155.9656 H   0  0  0  0  0  0  0  0  0  0  0  0
  149.8530  143.5180  158.6381 H   0  0  0  0  0  0  0  0  0  0  0  0
  152.4952  142.8019  157.3076 H   0  0  0  0  0  0  0  0  0  0  0  0
  151.6098  144.3268  157.1940 H   0  0  0  0  0  0  0  0  0  0  0  0
  153.6113  144.1638  158.9750 H   0  0  0  0  0  0  0  0  0  0  0  0
  152.0660  144.8243  159.5308 H   0  0  0  0  0  0  0  0  0  0  0  0
  153.0837  141.9781  159.8596 H   0  0  0  0  0  0  0  0  0  0  0  0
  152.3289  143.0030  161.0848 H   0  0  0  0  0  0  0  0  0  0  0  0
  147.2544  134.4894  162.9932 H   0  0  0  0  0  0  0  0  0  0  0  0
  148.6628  135.5652  162.6706 H   0  0  0  0  0  0  0  0  0  0  0  0
  145.6883  136.3724  162.7691 H   0  0  0  0  0  0  0  0  0  0  0  0
  147.1153  137.3701  163.2553 H   0  0  0  0  0  0  0  0  0  0  0  0
  147.8872  137.5186  160.9667 H   0  0  0  0  0  0  0  0  0  0  0  0
  146.1610  137.2356  160.5209 H   0  0  0  0  0  0  0  0  0  0  0  0
  1  2  1  0  0  0  0
  1 29  1  0  0  0  0
  1 30  1  0  0  0  0
  1 31  1  0  0  0  0
  2  3  1  0  0  0  0
  3 25  1  0  0  0  0
  3  4  1  0  0  0  0
  3 32  1  0  0  0  0
  4  5  1  0  0  0  0
  4 33  1  0  0  0  0
  4 34  1  0  0  0  0
  5  6  1  0  0  0  0
  5 25  1  0  0  0  0
  5 35  1  0  0  0  0
  6  7  1  0  0  0  0
  6  8  1  0  0  0  0
  7 36  1  0  0  0  0
  7 37  1  0  0  0  0
  7 38  1  0  0  0  0
  8 13  1  0  0  0  0
  8  9  2  0  0  0  0
  9 10  1  0  0  0  0
 10 11  2  0  0  0  0
 10 39  1  0  0  0  0
 11 12  1  0  0  0  0
 12 16  1  0  0  0  0
 12 13  2  0  0  0  0
 13 14  1  0  0  0  0
 14 15  2  0  0  0  0
 15 16  1  0  0  0  0
 15 40  1  0  0  0  0
 16 17  1  0  0  0  0
 17 18  1  0  0  0  0
 17 41  1  0  0  0  0
 17 42  1  0  0  0  0
 18 19  1  0  0  0  0
 18 20  1  0  0  0  0
 18 43  1  0  0  0  0
 19 44  1  0  0  0  0
 20 24  1  0  0  0  0
 20 21  1  0  0  0  0
 20 45  1  0  0  0  0
 21 22  1  0  0  0  0
 21 46  1  0  0  0  0
 21 47  1  0  0  0  0
 22 23  1  0  0  0  0
 22 48  1  0  0  0  0
 22 49  1  0  0  0  0
 23 24  1  0  0  0  0
 23 50  1  0  0  0  0
 23 51  1  0  0  0  0
 25 28  1  0  0  0  0
 25 26  1  0  0  0  0
 26 27  1  0  0  0  0
 26 52  1  0  0  0  0
 26 53  1  0  0  0  0
 27 28  1  0  0  0  0
 27 54  1  0  0  0  0
 27 55  1  0  0  0  0
 28 56  1  0  0  0  0
 28 57  1  0  0  0  0
M  END
> <s_m_source_file>
AV-unprocessed.smi

> <i_m_source_file_index>
276

> <i_lp_mmshare_version>
43012

> <i_f3d_flags>
0

> <s_epik_input>
W0NIMl0xW0NIMl1bQ0gyXUMxMltDQEhdKE9bQ0gzXSlbQ0gyXVtDQEhdMk4oW0NIM10pYyhuW2NIXW4zKWMoYzM0KW5bY0hdbjRbQ0gyXVtDQEhdKFtPSF0pW0NAQEhdNVtDSDJdW0NIMl1bQ0gyXU81

> <s_epik_cmdline>
J2VwaWtfcHl0aG9uJywgJy1waCcsICc3LjAnLCAnLXRuJywgJzgnLCAnLW1hJywgJzIwMCcsICctbWV0YWxfYmluZGluZycsICctaW1hZScsICc8aW5maWxlLm1hZT4nLCAnLW9tYWUnLCAnPG91dGZpbGUubWFlPic=

> <r_lp_tautomer_probability>
1

> <r_epik_Ionization_Penalty>
0.00204117

> <r_epik_Ionization_Penalty_Charging>
0

> <r_epik_Ionization_Penalty_Neutral>
0.00204117

> <r_epik_State_Penalty>
0.00127401

> <r_epik_Charging_Adjusted_Penalty>
0.00127401

> <i_epik_Tot_Q>
0

> <i_epik_Tot_abs_Q>
0

> <r_epik_Metal_State_Penalty>
-0

> <b_epik_Metal_Only>
0

> <s_lp_Force_Field>
OPLS_2005

> <r_lp_Energy>
56.3497

> <b_lp_Chiralities_Consistent>
1

> <s_lp_Variant>
AV-unprocessed.smi:276-5

> <Gold.Version>
5.8.1

> <Gold.Id.Protein>
6NUR|6NUR_protein|mol2

> <Gold.PLP.Fitness>
40.8542

> <Gold.PLP.PLP>
-38.3042

> <Gold.PLP.part.hbond>
-2.9308

> <Gold.PLP.part.metal>
0.0000

> <Gold.PLP.part.buried>
-5.3169

> <Gold.PLP.part.nonpolar>
-30.3167

> <Gold.PLP.part.repulsive>
0.0148

> <Gold.PLP.ligand.clash>
0.0000

> <Gold.PLP.ligand.torsion>
2.0332

> <Gold.PLP.Chemscore.Hbond>
1.9750

> <Gold.PLP.Chemscore.CHOScore>
0.0000

> <Gold.PLP.Chemscore.Metal>
0.0000

> <Gold.Chemscore.Hbonds>
donor molecule, donor type, donor heavy atom, donor atom, acceptor molecule, acceptor atom, score
      L1  H    19    44       P1  8028  1.00
      P1  H  6896  6907       L1     9  1.00

> <Gold.PLP.Chemscore.Internal.Correction>
0.6914

> <Gold.Rescore>
     Score         DG    S(hbond)    S(metal)    S(lipo)     H(rot)  DE(clash)    DE(int)     intcor
     13.80     -17.05       1.85        0.00     105.68       2.72       0.08       3.17       ----

> <Gold.Chemscore.Fitness>
13.8000

> <Gold.Chemscore.DG>
-17.0512

> <Gold.Chemscore.ZeroCoef>
-5.4800

> <Gold.Chemscore.Hbond>
1.8452

> <Gold.Chemscore.Metal>
0.0000

> <Gold.Chemscore.Lipo>
105.6787

> <Gold.Chemscore.Internal_Hbond>
0.0000

> <Gold.Chemscore.DEClash>
0.0779

> <Gold.Chemscore.DEInternal>
3.1733

> <Gold.Chemscore.Rot>
2.7172

> <Gold.Chemscore.Internal.Correction>
   9.000000E+99

> <Gold.Chemscore.Hbonds>
donor molecule, donor type, donor heavy atom, donor atom, acceptor molecule, acceptor atom, score
      L1  H    19    44       P1  8028  0.93
      P1  H  6896  6907       L1     9  0.81

> <Gold.Chemscore.Hbond.Weighted>
-6.1628

> <Gold.Chemscore.Metal.Weighted>
-0.0000

> <Gold.Chemscore.Lipo.Weighted>
-12.3644

> <Gold.Chemscore.Internal_Hbond.Weighted>
0.0000

> <Gold.Chemscore.DEClash.Weighted>
0.0779

> <Gold.Chemscore.DEInternal.Weighted>
3.1733

> <Gold.Chemscore.Rot.Weighted>
6.9560

> <Gold.Chemscore.Internal.Correction.Weighted>
   9.000000E+99

> <Gold.Protein.RotatedTorsions>
[ 6907 6896 6895 6894 ] final  -38.65 input  -60.11 | X-H torsion
[ 7974 7965 7964 7962 ] final  -13.49 input  175.53 | X-H torsion
[ 8008 7997 7996 7995 ] final -146.67 input   59.86 | X-H torsion
[ 10167 10162 10161 10158 ] final  106.05 input  -65.29 | X-H torsion
[ 10718 10713 10712 10709 ] final -132.35 input   66.30 | X-H torsion
[ 10763 10752 10751 10750 ] final -136.06 input  -60.55 | X-H torsion
[ 11005 11000 10999 10996 ] final  150.07 input  -57.11 | X-H torsion

> <Gold.Protein.ActiveResidues>
 VAL166  LYS551  ARG553  GLY616  TRP617  ASP618  TYR619  PRO620  LYS621  CYS622 
 ASP623  PHE694  ASN695  SER759  ASP760  ASP761  ALA762  ILE779  LEU786  VAL792 
 PHE793  MET794  SER795  GLU796  ALA797  LYS798  CYS799  TRP800  GLU811  SER814 

> <Gold.Protein.RotatedAtoms>
  150.9998  134.9313  159.7947 H   0  0  0  0  0  0  0  0  0  0  0  0  # atno 6907 bound_to 6896
  152.5274  134.3169  159.9144 H   0  0  0  0  0  0  0  0  0  0  0  0  # atno 6908 bound_to 6896
  151.3175  133.4012  159.2686 H   0  0  0  0  0  0  0  0  0  0  0  0  # atno 6909 bound_to 6896
  146.2112  140.3211  142.8390 H   0  0  0  0  0  0  0  0  0  0  0  0  # atno 7974 bound_to 7965
  155.5632  140.0627  157.2824 H   0  0  0  0  0  0  0  0  0  0  0  0  # atno 8008 bound_to 7997
  154.4384  140.1882  156.0849 H   0  0  0  0  0  0  0  0  0  0  0  0  # atno 8009 bound_to 7997
  156.0431  140.3293  155.7270 H   0  0  0  0  0  0  0  0  0  0  0  0  # atno 8010 bound_to 7997
  139.7041  144.7089  151.1136 H   0  0  0  0  0  0  0  0  0  0  0  0  # atno 10167 bound_to 10162
  156.2337  130.7053  151.0885 H   0  0  0  0  0  0  0  0  0  0  0  0  # atno 10718 bound_to 10713
  154.8691  135.3684  154.4999 H   0  0  0  0  0  0  0  0  0  0  0  0  # atno 10763 bound_to 10752
  153.5641  135.7022  153.5539 H   0  0  0  0  0  0  0  0  0  0  0  0  # atno 10764 bound_to 10752
  153.3601  135.4049  155.1675 H   0  0  0  0  0  0  0  0  0  0  0  0  # atno 10765 bound_to 10752
  140.1099  134.8931  157.1921 H   0  0  0  0  0  0  0  0  0  0  0  0  # atno 11005 bound_to 11000
  144.8920  140.7535  143.5921 LP  0  0  0  0  0  0  0  0  0  0  0  0  # atno 17320 bound_to 7965
  145.3133  139.1811  143.4627 LP  0  0  0  0  0  0  0  0  0  0  0  0  # atno 17321 bound_to 7965
  140.7717  143.5383  150.9342 LP  0  0  0  0  0  0  0  0  0  0  0  0  # atno 17342 bound_to 10162
  139.9066  143.6771  152.3122 LP  0  0  0  0  0  0  0  0  0  0  0  0  # atno 17343 bound_to 10162
  157.7145  131.0717  150.6380 LP  0  0  0  0  0  0  0  0  0  0  0  0  # atno 17370 bound_to 10713
  156.6449  130.4469  149.5739 LP  0  0  0  0  0  0  0  0  0  0  0  0  # atno 17371 bound_to 10713
  140.3105  134.3029  155.7268 LP  0  0  0  0  0  0  0  0  0  0  0  0  # atno 17394 bound_to 11000
  141.2127  133.7647  156.9770 LP  0  0  0  0  0  0  0  0  0  0  0  0  # atno 17395 bound_to 11000

$$$$
