AV-unprocessed.smi:1577|AV-procd|sdf|6349|dock4
  -GOLD-   22720 6563D 1   1.00000     0.00000
 Structure written by MMmdl.
 39 40  0  0  0  0  0  0  0  0  1 V2000
  152.3019  145.5154  159.1589 C   0  0  0  0  0  0  0  0  0  0  0  0
  150.8067  145.2637  159.3934 C   0  0  0  0  0  0  0  0  0  0  0  0
  150.2121  144.4973  158.3050 N   0  0  0  0  0  0  0  0  0  0  0  0
  150.6228  143.2866  157.9028 C   0  0  0  0  0  0  0  0  0  0  0  0
  151.5529  142.6655  158.4175 O   0  0  0  0  0  0  0  0  0  0  0  0
  149.9025  142.8389  156.8658 N   0  0  0  0  0  0  0  0  0  0  0  0
  150.1248  141.5745  156.1720 C   0  0  0  0  0  0  0  0  0  0  0  0
  148.9991  141.1801  155.2202 C   0  0  0  0  0  0  0  0  0  0  0  0
  147.9764  142.1105  154.9373 C   0  0  0  0  0  0  0  0  0  0  0  0
  146.9420  141.7492  154.0554 C   0  0  0  0  0  0  0  0  0  0  0  0
  146.9706  140.4635  153.4854 C   0  0  0  0  0  0  0  0  0  0  0  0
  147.9404  139.5622  153.7440 N   0  0  0  0  0  0  0  0  0  0  0  0
  148.9382  139.9075  154.5937 C   0  0  0  0  0  0  0  0  0  0  0  0
  149.9282  138.9446  154.8457 N   0  0  0  0  0  0  0  0  0  0  0  0
  149.5726  137.6119  154.3753 C   0  0  0  0  0  0  0  0  0  0  0  0
  150.6249  136.5954  154.8488 C   0  0  0  0  0  0  0  0  0  0  0  0
  151.9155  137.0015  154.4007 O   0  0  0  0  0  0  0  0  0  0  0  0
  152.2859  138.2791  154.9126 C   0  0  0  0  0  0  0  0  0  0  0  0
  151.2726  139.3385  154.4452 C   0  0  0  0  0  0  0  0  0  0  0  0
  152.7389  146.0558  159.9988 H   0  0  0  0  0  0  0  0  0  0  0  0
  152.4682  146.1116  158.2611 H   0  0  0  0  0  0  0  0  0  0  0  0
  152.8471  144.5779  159.0458 H   0  0  0  0  0  0  0  0  0  0  0  0
  150.6690  144.7032  160.3183 H   0  0  0  0  0  0  0  0  0  0  0  0
  150.2776  146.2093  159.5222 H   0  0  0  0  0  0  0  0  0  0  0  0
  149.4386  144.9240  157.8166 H   0  0  0  0  0  0  0  0  0  0  0  0
  149.1574  143.4229  156.5159 H   0  0  0  0  0  0  0  0  0  0  0  0
  151.0751  141.6193  155.6371 H   0  0  0  0  0  0  0  0  0  0  0  0
  150.2346  140.7893  156.9202 H   0  0  0  0  0  0  0  0  0  0  0  0
  147.9802  143.0904  155.3915 H   0  0  0  0  0  0  0  0  0  0  0  0
  146.1460  142.4408  153.8223 H   0  0  0  0  0  0  0  0  0  0  0  0
  146.1937  140.1501  152.8037 H   0  0  0  0  0  0  0  0  0  0  0  0
  148.5863  137.3343  154.7488 H   0  0  0  0  0  0  0  0  0  0  0  0
  149.5174  137.6089  153.2858 H   0  0  0  0  0  0  0  0  0  0  0  0
  150.6163  136.5067  155.9365 H   0  0  0  0  0  0  0  0  0  0  0  0
  150.4020  135.6073  154.4465 H   0  0  0  0  0  0  0  0  0  0  0  0
  152.3371  138.2441  156.0021 H   0  0  0  0  0  0  0  0  0  0  0  0
  153.2845  138.5298  154.5545 H   0  0  0  0  0  0  0  0  0  0  0  0
  151.3205  139.4430  153.3602 H   0  0  0  0  0  0  0  0  0  0  0  0
  151.5173  140.3100  154.8761 H   0  0  0  0  0  0  0  0  0  0  0  0
  1  2  1  0  0  0  0
  1 20  1  0  0  0  0
  1 21  1  0  0  0  0
  1 22  1  0  0  0  0
  2  3  1  0  0  0  0
  2 23  1  0  0  0  0
  2 24  1  0  0  0  0
  3  4  1  0  0  0  0
  3 25  1  0  0  0  0
  4  5  2  0  0  0  0
  4  6  1  0  0  0  0
  6  7  1  0  0  0  0
  6 26  1  0  0  0  0
  7  8  1  0  0  0  0
  7 27  1  0  0  0  0
  7 28  1  0  0  0  0
  8 13  1  0  0  0  0
  8  9  2  0  0  0  0
  9 10  1  0  0  0  0
  9 29  1  0  0  0  0
 10 11  2  0  0  0  0
 10 30  1  0  0  0  0
 11 12  1  0  0  0  0
 11 31  1  0  0  0  0
 12 13  2  0  0  0  0
 13 14  1  0  0  0  0
 14 19  1  0  0  0  0
 14 15  1  0  0  0  0
 15 16  1  0  0  0  0
 15 32  1  0  0  0  0
 15 33  1  0  0  0  0
 16 17  1  0  0  0  0
 16 34  1  0  0  0  0
 16 35  1  0  0  0  0
 17 18  1  0  0  0  0
 18 19  1  0  0  0  0
 18 36  1  0  0  0  0
 18 37  1  0  0  0  0
 19 38  1  0  0  0  0
 19 39  1  0  0  0  0
M  END
> <s_m_source_file>
AV-unprocessed.smi

> <i_m_source_file_index>
1577

> <i_lp_mmshare_version>
43012

> <i_f3d_flags>
0

> <s_epik_input>
W0NIM11bQ0gyXVtOSF1DKD1PKVtOSF1bQ0gyXWMxW2NIXVtjSF1bY0hdbmMxTjJbQ0gyXVtDSDJdT1tDSDJdW0NIMl0y

> <s_epik_cmdline>
J2VwaWtfcHl0aG9uJywgJy1waCcsICc3LjAnLCAnLXRuJywgJzgnLCAnLW1hJywgJzIwMCcsICctbWV0YWxfYmluZGluZycsICctaW1hZScsICc8aW5maWxlLm1hZT4nLCAnLW9tYWUnLCAnPG91dGZpbGUubWFlPic=

> <r_lp_tautomer_probability>
1

> <r_epik_Ionization_Penalty>
0.00610239

> <r_epik_Ionization_Penalty_Charging>
0

> <r_epik_Ionization_Penalty_Neutral>
0.00610239

> <r_epik_State_Penalty>
0.00445678

> <r_epik_Charging_Adjusted_Penalty>
0.00445678

> <i_epik_Tot_Q>
0

> <i_epik_Tot_abs_Q>
0

> <r_epik_Metal_State_Penalty>
-0

> <b_epik_Metal_Only>
0

> <s_lp_Force_Field>
OPLS_2005

> <r_lp_Energy>
16.2097

> <b_lp_Chiralities_Consistent>
1

> <s_lp_Variant>
AV-unprocessed.smi:1577-1

> <Gold.Version>
5.8.1

> <Gold.Id.Protein>
6NUR|6NUR_protein|mol2

> <Gold.PLP.Fitness>
42.1735

> <Gold.PLP.PLP>
-31.9133

> <Gold.PLP.part.hbond>
-3.9782

> <Gold.PLP.part.metal>
0.0000

> <Gold.PLP.part.buried>
-1.8265

> <Gold.PLP.part.nonpolar>
-28.5799

> <Gold.PLP.part.repulsive>
0.5776

> <Gold.PLP.ligand.clash>
0.0000

> <Gold.PLP.ligand.torsion>
0.2911

> <Gold.PLP.Chemscore.Hbond>
2.6300

> <Gold.PLP.Chemscore.CHOScore>
0.9406

> <Gold.PLP.Chemscore.Metal>
0.0000

> <Gold.Chemscore.Hbonds>
donor molecule, donor type, donor heavy atom, donor atom, acceptor molecule, acceptor atom, score
      L1  H     3    25       P1  8029  0.60
      L1  H     6    26       P1  8028  0.85
      P1  H 10752 10764       L1    17  0.91
      L1  C    11    31       P1 10175  0.96

> <Gold.PLP.Chemscore.Internal.Correction>
0.1307

> <Gold.Rescore>
     Score         DG    S(hbond)    S(metal)    S(lipo)     H(rot)  DE(clash)    DE(int)     intcor
     15.31     -16.82       1.90        0.00      80.38       1.73       1.20       0.30       ----

> <Gold.Chemscore.Fitness>
15.3141

> <Gold.Chemscore.DG>
-16.8182

> <Gold.Chemscore.ZeroCoef>
-5.4800

> <Gold.Chemscore.Hbond>
1.9031

> <Gold.Chemscore.Metal>
0.0000

> <Gold.Chemscore.Lipo>
80.3767

> <Gold.Chemscore.Internal_Hbond>
0.0000

> <Gold.Chemscore.DEClash>
1.2025

> <Gold.Chemscore.DEInternal>
0.3016

> <Gold.Chemscore.Rot>
1.7274

> <Gold.Chemscore.Internal.Correction>
   9.000000E+99

> <Gold.Chemscore.Hbonds>
donor molecule, donor type, donor heavy atom, donor atom, acceptor molecule, acceptor atom, score
      L1  H     3    25       P1  8029  0.04
      L1  H     6    26       P1  8028  0.82
      P1  H 10752 10764       L1    17  0.49

> <Gold.Chemscore.Hbond.Weighted>
-6.3562

> <Gold.Chemscore.Metal.Weighted>
-0.0000

> <Gold.Chemscore.Lipo.Weighted>
-9.4041

> <Gold.Chemscore.Internal_Hbond.Weighted>
0.0000

> <Gold.Chemscore.DEClash.Weighted>
1.2025

> <Gold.Chemscore.DEInternal.Weighted>
0.3016

> <Gold.Chemscore.Rot.Weighted>
4.4221

> <Gold.Chemscore.Internal.Correction.Weighted>
   9.000000E+99

> <Gold.Protein.RotatedTorsions>
[ 6907 6896 6895 6894 ] final -123.52 input  -60.11 | X-H torsion
[ 7974 7965 7964 7962 ] final   17.75 input  175.53 | X-H torsion
[ 8008 7997 7996 7995 ] final -143.30 input   59.86 | X-H torsion
[ 10167 10162 10161 10158 ] final   89.99 input  -65.29 | X-H torsion
[ 10718 10713 10712 10709 ] final   47.14 input   66.30 | X-H torsion
[ 10763 10752 10751 10750 ] final  -60.30 input  -60.55 | X-H torsion
[ 11005 11000 10999 10996 ] final   54.81 input  -57.11 | X-H torsion

> <Gold.Protein.ActiveResidues>
 VAL166  LYS551  ARG553  GLY616  TRP617  ASP618  TYR619  PRO620  LYS621  CYS622 
 ASP623  PHE694  ASN695  SER759  ASP760  ASP761  ALA762  ILE779  LEU786  VAL792 
 PHE793  MET794  SER795  GLU796  ALA797  LYS798  CYS799  TRP800  GLU811  SER814 

> <Gold.Protein.RotatedAtoms>
  150.8679  133.7548  159.2970 H   0  0  0  0  0  0  0  0  0  0  0  0  # atno 6907 bound_to 6896
  151.5169  135.1065  159.9878 H   0  0  0  0  0  0  0  0  0  0  0  0  # atno 6908 bound_to 6896
  152.4674  133.7909  159.6957 H   0  0  0  0  0  0  0  0  0  0  0  0  # atno 6909 bound_to 6896
  146.2208  139.8557  142.8614 H   0  0  0  0  0  0  0  0  0  0  0  0  # atno 7974 bound_to 7965
  155.5084  140.0581  157.2927 H   0  0  0  0  0  0  0  0  0  0  0  0  # atno 8008 bound_to 7997
  154.4561  140.1973  156.0325 H   0  0  0  0  0  0  0  0  0  0  0  0  # atno 8009 bound_to 7997
  156.0801  140.3248  155.7687 H   0  0  0  0  0  0  0  0  0  0  0  0  # atno 8010 bound_to 7997
  139.8518  144.6589  150.9161 H   0  0  0  0  0  0  0  0  0  0  0  0  # atno 10167 bound_to 10162
  157.4554  130.8164  149.7831 H   0  0  0  0  0  0  0  0  0  0  0  0  # atno 10718 bound_to 10713
  154.2671  135.6297  153.5296 H   0  0  0  0  0  0  0  0  0  0  0  0  # atno 10763 bound_to 10752
  152.9886  135.5601  154.5641 H   0  0  0  0  0  0  0  0  0  0  0  0  # atno 10764 bound_to 10752
  154.5203  135.2882  155.1243 H   0  0  0  0  0  0  0  0  0  0  0  0  # atno 10765 bound_to 10752
  140.0657  134.5540  155.9102 H   0  0  0  0  0  0  0  0  0  0  0  0  # atno 11005 bound_to 11000
  145.2756  141.0122  143.3747 LP  0  0  0  0  0  0  0  0  0  0  0  0  # atno 17320 bound_to 7965
  144.9189  139.4435  143.6550 LP  0  0  0  0  0  0  0  0  0  0  0  0  # atno 17321 bound_to 7965
  140.7786  143.3821  151.1459 LP  0  0  0  0  0  0  0  0  0  0  0  0  # atno 17342 bound_to 10162
  139.7458  143.8854  152.3063 LP  0  0  0  0  0  0  0  0  0  0  0  0  # atno 17343 bound_to 10162
  156.0005  130.3883  150.2624 LP  0  0  0  0  0  0  0  0  0  0  0  0  # atno 17370 bound_to 10713
  157.0799  131.0140  151.3160 LP  0  0  0  0  0  0  0  0  0  0  0  0  # atno 17371 bound_to 10713
  141.1991  133.6605  156.5829 LP  0  0  0  0  0  0  0  0  0  0  0  0  # atno 17394 bound_to 11000
  140.3703  134.7612  157.4594 LP  0  0  0  0  0  0  0  0  0  0  0  0  # atno 17395 bound_to 11000

$$$$
