AV-unprocessed.smi:1417|AV-procd|sdf|5771|dock6
  -GOLD-   22720 5413D 1   1.00000     0.00000
 Structure written by MMmdl.
 39 40  0  0  0  0  0  0  0  0  3 V2000
  144.2304  143.9306  162.9010 C   0  0  0  0  0  0  0  0  0  0  0  0
  145.0787  143.5131  161.7491 C   0  0  0  0  0  0  0  0  0  0  0  0
  145.8215  144.2126  160.8404 C   0  0  0  0  0  0  0  0  0  0  0  0
  146.3736  143.1853  160.0208 C   0  0  0  0  0  0  0  0  0  0  0  0
  147.2327  143.3685  158.9064 N   0  0  0  0  0  0  0  0  0  0  0  0
  147.9100  142.4379  158.2132 C   0  0  0  0  0  0  0  0  0  0  0  0
  147.8767  141.2259  158.4248 O   0  0  0  0  0  0  0  0  0  0  0  0
  148.6481  142.9964  157.2425 N   0  0  0  0  0  0  0  0  0  0  0  0
  149.5189  142.2662  156.3255 C   0  0  2  0  0  0  0  0  0  0  0  0
  148.7593  141.1061  155.6559 C   0  0  0  0  0  0  0  0  0  0  0  0
  149.6929  140.2658  154.7699 C   0  0  0  0  0  0  0  0  0  0  0  0
  150.8539  139.7539  155.5466 N   0  3  1  0  0  0  0  0  0  0  0  0
  151.7163  138.8316  154.7670 C   0  0  0  0  0  0  0  0  0  0  0  0
  151.0344  137.4670  154.6211 C   0  0  0  0  0  0  0  0  0  0  0  0
  151.7961  136.5798  153.9536 N   0  5  0  0  0  0  0  0  0  0  0  0
  149.9070  137.2992  155.0818 O   0  0  0  0  0  0  0  0  0  0  0  0
  151.6255  140.8600  156.1673 C   0  0  0  0  0  0  0  0  0  0  0  0
  150.7337  141.7119  157.0868 C   0  0  0  0  0  0  0  0  0  0  0  0
  145.9998  141.9770  160.3992 N   0  0  0  0  0  0  0  0  0  0  0  0
  145.1696  142.1775  161.5081 O   0  0  0  0  0  0  0  0  0  0  0  0
  143.9937  144.9934  162.8444 H   0  0  0  0  0  0  0  0  0  0  0  0
  144.7445  143.7484  163.8446 H   0  0  0  0  0  0  0  0  0  0  0  0
  143.2918  143.3764  162.9137 H   0  0  0  0  0  0  0  0  0  0  0  0
  145.9379  145.2844  160.7866 H   0  0  0  0  0  0  0  0  0  0  0  0
  147.3551  144.3261  158.6121 H   0  0  0  0  0  0  0  0  0  0  0  0
  148.6132  143.9997  157.1362 H   0  0  0  0  0  0  0  0  0  0  0  0
  149.8798  142.9499  155.5545 H   0  0  0  0  0  0  0  0  0  0  0  0
  148.3117  140.4664  156.4181 H   0  0  0  0  0  0  0  0  0  0  0  0
  147.9357  141.4908  155.0535 H   0  0  0  0  0  0  0  0  0  0  0  0
  149.1261  139.4363  154.3460 H   0  0  0  0  0  0  0  0  0  0  0  0
  150.0504  140.8633  153.9298 H   0  0  0  0  0  0  0  0  0  0  0  0
  151.9826  139.2782  153.8063 H   0  0  0  0  0  0  0  0  0  0  0  0
  152.6538  138.6590  155.2974 H   0  0  0  0  0  0  0  0  0  0  0  0
  151.6745  136.4919  152.9374 H   0  0  0  0  0  0  0  0  0  0  0  0
  152.4511  140.4508  156.7511 H   0  0  0  0  0  0  0  0  0  0  0  0
  152.0657  141.4810  155.3856 H   0  0  0  0  0  0  0  0  0  0  0  0
  151.3172  142.5311  157.5087 H   0  0  0  0  0  0  0  0  0  0  0  0
  150.3994  141.1039  157.9290 H   0  0  0  0  0  0  0  0  0  0  0  0
  150.4808  139.2030  156.3067 H   0  0  0  0  0  0  0  0  0  0  0  0
  1  2  1  0  0  0  0
  1 21  1  0  0  0  0
  1 22  1  0  0  0  0
  1 23  1  0  0  0  0
  2 20  1  0  0  0  0
  2  3  2  0  0  0  0
  3  4  1  0  0  0  0
  3 24  1  0  0  0  0
  4  5  1  0  0  0  0
  4 19  2  0  0  0  0
  5  6  1  0  0  0  0
  5 25  1  0  0  0  0
  6  7  2  0  0  0  0
  6  8  1  0  0  0  0
  8  9  1  0  0  0  0
  8 26  1  0  0  0  0
  9 18  1  0  0  0  0
  9 10  1  0  0  0  0
  9 27  1  0  0  0  0
 10 11  1  0  0  0  0
 10 28  1  0  0  0  0
 10 29  1  0  0  0  0
 11 12  1  0  0  0  0
 11 30  1  0  0  0  0
 11 31  1  0  0  0  0
 12 13  1  0  0  0  0
 12 17  1  0  0  0  0
 12 39  1  0  0  0  0
 13 14  1  0  0  0  0
 13 32  1  0  0  0  0
 13 33  1  0  0  0  0
 14 15  1  0  0  0  0
 14 16  2  0  0  0  0
 15 34  1  0  0  0  0
 17 18  1  0  0  0  0
 17 35  1  0  0  0  0
 17 36  1  0  0  0  0
 18 37  1  0  0  0  0
 18 38  1  0  0  0  0
 19 20  1  0  0  0  0
M  CHG  1  12   1
M  CHG  1  15  -1
M  END
> <s_m_source_file>
AV-unprocessed.smi

> <i_m_source_file_index>
1417

> <i_lp_mmshare_version>
43012

> <i_f3d_flags>
0

> <s_epik_input>
W0NIM11jMVtjSF1jKG5vMSlbTkhdQyg9TylbTkhdW0NIXTJbQ0gyXVtDSDJdTihbQ0gyXVtDSDJdMilbQ0gyXUMoPU8pW05IMl0=

> <s_epik_cmdline>
J2VwaWtfcHl0aG9uJywgJy1waCcsICc3LjAnLCAnLXRuJywgJzgnLCAnLW1hJywgJzIwMCcsICctbWV0YWxfYmluZGluZycsICctaW1hZScsICc8aW5maWxlLm1hZT4nLCAnLW9tYWUnLCAnPG91dGZpbGUubWFlPic=

> <r_epik_Ionization_Penalty>
5.73218

> <r_epik_Ionization_Penalty_Charging>
5.73215

> <r_epik_Ionization_Penalty_Neutral>
3.37968e-05

> <r_epik_State_Penalty>
6.58009

> <r_epik_Charging_Adjusted_Penalty>
12.3122

> <i_epik_Tot_Q>
0

> <i_epik_Tot_abs_Q>
2

> <r_epik_Metal_State_Penalty>
2.55295

> <b_epik_Metal_Only>
1

> <s_lp_Force_Field>
OPLS_2005

> <r_lp_Energy>
6.84109

> <b_lp_Chiralities_Consistent>
1

> <s_lp_Variant>
AV-unprocessed.smi:1417-7

> <Gold.Version>
5.8.1

> <Gold.Id.Protein>
6NUR|6NUR_protein|mol2

> <Gold.PLP.Fitness>
45.6776

> <Gold.PLP.PLP>
-31.6906

> <Gold.PLP.part.hbond>
-6.5739

> <Gold.PLP.part.metal>
0.0000

> <Gold.PLP.part.buried>
1.0186

> <Gold.PLP.part.nonpolar>
-25.5876

> <Gold.PLP.part.repulsive>
0.4222

> <Gold.PLP.ligand.clash>
0.0000

> <Gold.PLP.ligand.torsion>
0.2692

> <Gold.PLP.Chemscore.Hbond>
4.8338

> <Gold.PLP.Chemscore.CHOScore>
0.0000

> <Gold.PLP.Chemscore.Metal>
0.0000

> <Gold.Chemscore.Hbonds>
donor molecule, donor type, donor heavy atom, donor atom, acceptor molecule, acceptor atom, score
      L1  H     5    25       P1  8029  0.68
      L1  H     8    26       P1  8028  0.19
      L1  H    15    34       P1  7949  1.00
      P1  H  6934  6946       L1    19  0.84
      P1  H 10752 10763       L1    15  1.85

> <Gold.PLP.Chemscore.Internal.Correction>
0.0242

> <Gold.Rescore>
     Score         DG    S(hbond)    S(metal)    S(lipo)     H(rot)  DE(clash)    DE(int)     intcor
     11.71     -16.34       2.74        0.00      58.64       2.02       1.70       2.93       ----

> <Gold.Chemscore.Fitness>
11.7054

> <Gold.Chemscore.DG>
-16.3361

> <Gold.Chemscore.ZeroCoef>
-5.4800

> <Gold.Chemscore.Hbond>
2.7426

> <Gold.Chemscore.Metal>
0.0000

> <Gold.Chemscore.Lipo>
58.6394

> <Gold.Chemscore.Internal_Hbond>
0.0000

> <Gold.Chemscore.DEClash>
1.7038

> <Gold.Chemscore.DEInternal>
2.9268

> <Gold.Chemscore.Rot>
2.0176

> <Gold.Chemscore.Internal.Correction>
   9.000000E+99

> <Gold.Chemscore.Hbonds>
donor molecule, donor type, donor heavy atom, donor atom, acceptor molecule, acceptor atom, score
      L1  H     5    25       P1  8029  0.63
      L1  H    15    34       P1  7949  0.98
      P1  H  6934  6946       L1    19  0.51
      P1  H 10752 10763       L1    15  0.40

> <Gold.Chemscore.Hbond.Weighted>
-9.1604

> <Gold.Chemscore.Metal.Weighted>
-0.0000

> <Gold.Chemscore.Lipo.Weighted>
-6.8608

> <Gold.Chemscore.Internal_Hbond.Weighted>
0.0000

> <Gold.Chemscore.DEClash.Weighted>
1.7038

> <Gold.Chemscore.DEInternal.Weighted>
2.9268

> <Gold.Chemscore.Rot.Weighted>
5.1651

> <Gold.Chemscore.Internal.Correction.Weighted>
   9.000000E+99

> <Gold.Protein.RotatedTorsions>
[ 6907 6896 6895 6894 ] final   39.02 input  -60.11 | X-H torsion
[ 7974 7965 7964 7962 ] final  -60.95 input  175.53 | X-H torsion
[ 8008 7997 7996 7995 ] final  117.14 input   59.86 | X-H torsion
[ 10167 10162 10161 10158 ] final   55.80 input  -65.29 | X-H torsion
[ 10718 10713 10712 10709 ] final   94.59 input   66.30 | X-H torsion
[ 10763 10752 10751 10750 ] final   42.05 input  -60.55 | X-H torsion
[ 11005 11000 10999 10996 ] final  -10.34 input  -57.11 | X-H torsion

> <Gold.Protein.ActiveResidues>
 VAL166  LYS551  ARG553  GLY616  TRP617  ASP618  TYR619  PRO620  LYS621  CYS622 
 ASP623  PHE694  ASN695  SER759  ASP760  ASP761  ALA762  ILE779  LEU786  VAL792 
 PHE793  MET794  SER795  GLU796  ALA797  LYS798  CYS799  TRP800  GLU811  SER814 

> <Gold.Protein.RotatedAtoms>
  152.1640  134.8888  160.0539 H   0  0  0  0  0  0  0  0  0  0  0  0  # atno 6907 bound_to 6896
  151.9873  133.3773  159.4139 H   0  0  0  0  0  0  0  0  0  0  0  0  # atno 6908 bound_to 6896
  150.6892  134.3897  159.5114 H   0  0  0  0  0  0  0  0  0  0  0  0  # atno 6909 bound_to 6896
  145.8093  140.8608  143.0190 H   0  0  0  0  0  0  0  0  0  0  0  0  # atno 7974 bound_to 7965
  156.2478  140.2902  156.0631 H   0  0  0  0  0  0  0  0  0  0  0  0  # atno 8008 bound_to 7997
  155.1753  140.0403  157.2888 H   0  0  0  0  0  0  0  0  0  0  0  0  # atno 8009 bound_to 7997
  154.6297  140.2496  155.7455 H   0  0  0  0  0  0  0  0  0  0  0  0  # atno 8010 bound_to 7997
  140.2156  144.3843  150.6471 H   0  0  0  0  0  0  0  0  0  0  0  0  # atno 10167 bound_to 10162
  157.6946  131.0517  150.4210 H   0  0  0  0  0  0  0  0  0  0  0  0  # atno 10718 bound_to 10713
  152.9892  135.6143  154.2887 H   0  0  0  0  0  0  0  0  0  0  0  0  # atno 10763 bound_to 10752
  154.2613  135.2782  155.2778 H   0  0  0  0  0  0  0  0  0  0  0  0  # atno 10764 bound_to 10752
  154.5203  135.5816  153.6732 H   0  0  0  0  0  0  0  0  0  0  0  0  # atno 10765 bound_to 10752
  140.7437  133.8649  155.8988 H   0  0  0  0  0  0  0  0  0  0  0  0  # atno 11005 bound_to 11000
  144.6759  140.0373  143.7481 LP  0  0  0  0  0  0  0  0  0  0  0  0  # atno 17320 bound_to 7965
  145.9794  139.2929  143.1051 LP  0  0  0  0  0  0  0  0  0  0  0  0  # atno 17321 bound_to 7965
  140.6292  143.2185  151.6531 LP  0  0  0  0  0  0  0  0  0  0  0  0  # atno 17342 bound_to 10162
  139.5163  144.3350  152.0792 LP  0  0  0  0  0  0  0  0  0  0  0  0  # atno 17343 bound_to 10162
  156.4585  130.4027  149.6591 LP  0  0  0  0  0  0  0  0  0  0  0  0  # atno 17370 bound_to 10713
  156.3715  130.7533  151.2516 LP  0  0  0  0  0  0  0  0  0  0  0  0  # atno 17371 bound_to 10713
  140.9813  134.1401  157.4491 LP  0  0  0  0  0  0  0  0  0  0  0  0  # atno 17394 bound_to 11000
  139.8801  135.0011  156.6050 LP  0  0  0  0  0  0  0  0  0  0  0  0  # atno 17395 bound_to 11000

$$$$
