AV-unprocessed.smi:2351|AV-procd|sdf|9374|dock8
  -GOLD-   2272013 03D 1   1.00000     0.00000
 Structure written by MMmdl.
 47 49  0  0  0  0  0  0  0  0  2 V2000
  150.2537  136.6094  156.1883 O   0  0  0  0  0  0  0  0  0  0  0  0
  150.0590  136.4810  154.9794 C   0  0  0  0  0  0  0  0  0  0  0  0
  149.7534  135.3253  154.3674 N   0  0  0  0  0  0  0  0  0  0  0  0
  149.6179  134.0506  154.9752 C   0  0  0  0  0  0  0  0  0  0  0  0
  150.1695  133.8609  156.2589 C   0  0  0  0  0  0  0  0  0  0  0  0
  150.0208  132.6048  156.8804 C   0  0  0  0  0  0  0  0  0  0  0  0
  149.3615  131.5710  156.3161 N   0  0  0  0  0  0  0  0  0  0  0  0
  148.8119  131.7636  155.0978 C   0  0  0  0  0  0  0  0  0  0  0  0
  148.8996  132.9791  154.3891 C   0  0  0  0  0  0  0  0  0  0  0  0
  148.2773  133.1060  153.1923 F   0  0  0  0  0  0  0  0  0  0  0  0
  150.1090  137.4998  154.1088 N   0  0  0  0  0  0  0  0  0  0  0  0
  150.4138  138.8845  154.4571 C   0  0  2  0  0  0  0  0  0  0  0  0
  151.5568  138.9268  155.4832 C   0  0  0  0  0  0  0  0  0  0  0  0
  151.8438  140.3680  155.9367 C   0  0  0  0  0  0  0  0  0  0  0  0
  150.6246  141.0106  156.4923 N   0  3  1  0  0  0  0  0  0  0  0  0
  150.9062  142.3519  157.0652 C   0  0  0  0  0  0  0  0  0  0  0  0
  151.3968  142.2821  158.5249 C   0  0  2  0  0  0  0  0  0  0  0  0
  151.8846  143.6106  159.0670 C   0  0  0  0  0  0  0  0  0  0  0  0
  152.7215  143.1751  160.2663 C   0  0  0  0  0  0  0  0  0  0  0  0
  153.2561  141.9000  159.9223 O   0  0  0  0  0  0  0  0  0  0  0  0
  152.6400  141.4155  158.7334 C   0  0  0  0  0  0  0  0  0  0  0  0
  149.5146  141.0163  155.5026 C   0  0  0  0  0  0  0  0  0  0  0  0
  149.1754  139.5901  155.0398 C   0  0  0  0  0  0  0  0  0  0  0  0
  149.4904  135.3812  153.3945 H   0  0  0  0  0  0  0  0  0  0  0  0
  150.7060  134.6554  156.7570 H   0  0  0  0  0  0  0  0  0  0  0  0
  150.4416  132.4268  157.8591 H   0  0  0  0  0  0  0  0  0  0  0  0
  148.2725  130.9264  154.6801 H   0  0  0  0  0  0  0  0  0  0  0  0
  149.9271  137.3027  153.1353 H   0  0  0  0  0  0  0  0  0  0  0  0
  150.7385  139.4152  153.5598 H   0  0  0  0  0  0  0  0  0  0  0  0
  151.2999  138.3187  156.3521 H   0  0  0  0  0  0  0  0  0  0  0  0
  152.4598  138.4890  155.0558 H   0  0  0  0  0  0  0  0  0  0  0  0
  152.6296  140.3519  156.6928 H   0  0  0  0  0  0  0  0  0  0  0  0
  152.2202  140.9594  155.1004 H   0  0  0  0  0  0  0  0  0  0  0  0
  151.6726  142.8504  156.4695 H   0  0  0  0  0  0  0  0  0  0  0  0
  150.0132  142.9743  156.9906 H   0  0  0  0  0  0  0  0  0  0  0  0
  150.6029  141.9273  159.1825 H   0  0  0  0  0  0  0  0  0  0  0  0
  152.5181  144.1141  158.3350 H   0  0  0  0  0  0  0  0  0  0  0  0
  151.0742  144.2875  159.3395 H   0  0  0  0  0  0  0  0  0  0  0  0
  153.5107  143.8884  160.5047 H   0  0  0  0  0  0  0  0  0  0  0  0
  152.0911  143.0595  161.1489 H   0  0  0  0  0  0  0  0  0  0  0  0
  152.4004  140.3549  158.8154 H   0  0  0  0  0  0  0  0  0  0  0  0
  153.3433  141.5394  157.9086 H   0  0  0  0  0  0  0  0  0  0  0  0
  148.6212  141.4659  155.9339 H   0  0  0  0  0  0  0  0  0  0  0  0
  149.7926  141.6306  154.6448 H   0  0  0  0  0  0  0  0  0  0  0  0
  148.3775  139.6288  154.2971 H   0  0  0  0  0  0  0  0  0  0  0  0
  148.7842  139.0188  155.8831 H   0  0  0  0  0  0  0  0  0  0  0  0
  150.3293  140.4284  157.2631 H   0  0  0  0  0  0  0  0  0  0  0  0
  1  2  2  0  0  0  0
  2  3  1  0  0  0  0
  2 11  1  0  0  0  0
  3  4  1  0  0  0  0
  3 24  1  0  0  0  0
  4  9  1  0  0  0  0
  4  5  2  0  0  0  0
  5  6  1  0  0  0  0
  5 25  1  0  0  0  0
  6  7  2  0  0  0  0
  6 26  1  0  0  0  0
  7  8  1  0  0  0  0
  8  9  2  0  0  0  0
  8 27  1  0  0  0  0
  9 10  1  0  0  0  0
 11 12  1  0  0  0  0
 11 28  1  0  0  0  0
 12 23  1  0  0  0  0
 12 13  1  0  0  0  0
 12 29  1  0  0  0  0
 13 14  1  0  0  0  0
 13 30  1  0  0  0  0
 13 31  1  0  0  0  0
 14 15  1  0  0  0  0
 14 32  1  0  0  0  0
 14 33  1  0  0  0  0
 15 16  1  0  0  0  0
 15 22  1  0  0  0  0
 15 47  1  0  0  0  0
 16 17  1  0  0  0  0
 16 34  1  0  0  0  0
 16 35  1  0  0  0  0
 17 21  1  0  0  0  0
 17 18  1  0  0  0  0
 17 36  1  0  0  0  0
 18 19  1  0  0  0  0
 18 37  1  0  0  0  0
 18 38  1  0  0  0  0
 19 20  1  0  0  0  0
 19 39  1  0  0  0  0
 19 40  1  0  0  0  0
 20 21  1  0  0  0  0
 21 41  1  0  0  0  0
 21 42  1  0  0  0  0
 22 23  1  0  0  0  0
 22 43  1  0  0  0  0
 22 44  1  0  0  0  0
 23 45  1  0  0  0  0
 23 46  1  0  0  0  0
M  CHG  1  15   1
M  END
> <s_m_source_file>
AV-unprocessed.smi

> <i_m_source_file_index>
2351

> <i_lp_mmshare_version>
43012

> <i_f3d_flags>
0

> <s_epik_input>
RmMxW2NIXW5bY0hdW2NIXWMxW05IXUMoPU8pW05IXVtDSF0yW0NIMl1bQ0gyXU4oW0NIMl1bQ0gyXTIpW0NIMl1bQ0BASF0zW0NIMl1bQ0gyXU9bQ0gyXTM=

> <s_epik_cmdline>
J2VwaWtfcHl0aG9uJywgJy1waCcsICc3LjAnLCAnLXRuJywgJzgnLCAnLW1hJywgJzIwMCcsICctbWV0YWxfYmluZGluZycsICctaW1hZScsICc8aW5maWxlLm1hZT4nLCAnLW9tYWUnLCAnPG91dGZpbGUubWFlPic=

> <r_epik_Ionization_Penalty>
0.0102464

> <r_epik_Ionization_Penalty_Charging>
0.00747775

> <r_epik_Ionization_Penalty_Neutral>
0.00276864

> <r_epik_State_Penalty>
0.00558817

> <r_epik_Charging_Adjusted_Penalty>
0.0130659

> <i_epik_Tot_Q>
1

> <i_epik_Tot_abs_Q>
1

> <r_epik_Metal_State_Penalty>
-0

> <b_epik_Metal_Only>
0

> <s_lp_Force_Field>
OPLS_2005

> <r_lp_Energy>
40.2239

> <b_lp_Chiralities_Consistent>
1

> <s_lp_Variant>
AV-unprocessed.smi:2351-1

> <Gold.Version>
5.8.1

> <Gold.Id.Protein>
6NUR|6NUR_protein|mol2

> <Gold.PLP.Fitness>
45.3316

> <Gold.PLP.PLP>
-41.5920

> <Gold.PLP.part.hbond>
-2.8091

> <Gold.PLP.part.metal>
0.0000

> <Gold.PLP.part.buried>
-5.8579

> <Gold.PLP.part.nonpolar>
-34.4450

> <Gold.PLP.part.repulsive>
0.2020

> <Gold.PLP.ligand.clash>
0.0000

> <Gold.PLP.ligand.torsion>
0.7263

> <Gold.PLP.Chemscore.Hbond>
1.6760

> <Gold.PLP.Chemscore.CHOScore>
0.0000

> <Gold.PLP.Chemscore.Metal>
0.0000

> <Gold.Chemscore.Hbonds>
donor molecule, donor type, donor heavy atom, donor atom, acceptor molecule, acceptor atom, score
      L1  H     3    24       P1  7948  0.70
      L1  H    11    28       P1  7948  0.96

> <Gold.PLP.Chemscore.Internal.Correction>
0.1642

> <Gold.Rescore>
     Score         DG    S(hbond)    S(metal)    S(lipo)     H(rot)  DE(clash)    DE(int)     intcor
     15.41     -19.12       1.63        0.00     101.78       1.45       0.01       3.70       ----

> <Gold.Chemscore.Fitness>
15.4099

> <Gold.Chemscore.DG>
-19.1183

> <Gold.Chemscore.ZeroCoef>
-5.4800

> <Gold.Chemscore.Hbond>
1.6279

> <Gold.Chemscore.Metal>
0.0000

> <Gold.Chemscore.Lipo>
101.7842

> <Gold.Chemscore.Internal_Hbond>
0.0000

> <Gold.Chemscore.DEClash>
0.0076

> <Gold.Chemscore.DEInternal>
3.7009

> <Gold.Chemscore.Rot>
1.4483

> <Gold.Chemscore.Internal.Correction>
   9.000000E+99

> <Gold.Chemscore.Hbonds>
donor molecule, donor type, donor heavy atom, donor atom, acceptor molecule, acceptor atom, score
      L1  H     3    24       P1  7948  0.07
      L1  H    11    28       P1  7948  0.28

> <Gold.Chemscore.Hbond.Weighted>
-5.4373

> <Gold.Chemscore.Metal.Weighted>
-0.0000

> <Gold.Chemscore.Lipo.Weighted>
-11.9088

> <Gold.Chemscore.Internal_Hbond.Weighted>
0.0000

> <Gold.Chemscore.DEClash.Weighted>
0.0076

> <Gold.Chemscore.DEInternal.Weighted>
3.7009

> <Gold.Chemscore.Rot.Weighted>
3.7077

> <Gold.Chemscore.Internal.Correction.Weighted>
   9.000000E+99

> <Gold.Protein.RotatedTorsions>
[ 6907 6896 6895 6894 ] final  -51.30 input  -60.11 | X-H torsion
[ 7974 7965 7964 7962 ] final   93.69 input  175.53 | X-H torsion
[ 8008 7997 7996 7995 ] final  -31.13 input   59.86 | X-H torsion
[ 10167 10162 10161 10158 ] final   55.04 input  -65.29 | X-H torsion
[ 10718 10713 10712 10709 ] final  108.25 input   66.30 | X-H torsion
[ 10763 10752 10751 10750 ] final  113.69 input  -60.55 | X-H torsion
[ 11005 11000 10999 10996 ] final  -21.85 input  -57.11 | X-H torsion

> <Gold.Protein.ActiveResidues>
 VAL166  LYS551  ARG553  GLY616  TRP617  ASP618  TYR619  PRO620  LYS621  CYS622 
 ASP623  PHE694  ASN695  SER759  ASP760  ASP761  ALA762  ILE779  LEU786  VAL792 
 PHE793  MET794  SER795  GLU796  ALA797  LYS798  CYS799  TRP800  GLU811  SER814 

> <Gold.Protein.RotatedAtoms>
  150.8625  134.7980  159.7093 H   0  0  0  0  0  0  0  0  0  0  0  0  # atno 6907 bound_to 6896
  152.4657  134.5077  159.9754 H   0  0  0  0  0  0  0  0  0  0  0  0  # atno 6908 bound_to 6896
  151.5179  133.3434  159.2932 H   0  0  0  0  0  0  0  0  0  0  0  0  # atno 6909 bound_to 6896
  145.4756  139.2280  143.2911 H   0  0  0  0  0  0  0  0  0  0  0  0  # atno 7974 bound_to 7965
  154.4225  140.1772  156.1518 H   0  0  0  0  0  0  0  0  0  0  0  0  # atno 8008 bound_to 7997
  155.9909  140.3369  155.6727 H   0  0  0  0  0  0  0  0  0  0  0  0  # atno 8009 bound_to 7997
  155.6374  140.0676  157.2620 H   0  0  0  0  0  0  0  0  0  0  0  0  # atno 8010 bound_to 7997
  140.2237  144.3761  150.6441 H   0  0  0  0  0  0  0  0  0  0  0  0  # atno 10167 bound_to 10162
  157.6594  131.0890  150.6277 H   0  0  0  0  0  0  0  0  0  0  0  0  # atno 10718 bound_to 10713
  153.4962  135.3648  155.2517 H   0  0  0  0  0  0  0  0  0  0  0  0  # atno 10763 bound_to 10752
  154.8750  135.3989  154.3532 H   0  0  0  0  0  0  0  0  0  0  0  0  # atno 10764 bound_to 10752
  153.4160  135.7079  153.6393 H   0  0  0  0  0  0  0  0  0  0  0  0  # atno 10765 bound_to 10752
  140.8601  133.7794  156.0064 H   0  0  0  0  0  0  0  0  0  0  0  0  # atno 11005 bound_to 11000
  146.2371  140.5538  142.8950 LP  0  0  0  0  0  0  0  0  0  0  0  0  # atno 17320 bound_to 7965
  144.7919  140.6049  143.6536 LP  0  0  0  0  0  0  0  0  0  0  0  0  # atno 17321 bound_to 7965
  140.6236  143.2179  151.6643 LP  0  0  0  0  0  0  0  0  0  0  0  0  # atno 17342 bound_to 10162
  139.5135  144.3442  152.0712 LP  0  0  0  0  0  0  0  0  0  0  0  0  # atno 17343 bound_to 10162
  156.6581  130.4504  149.5696 LP  0  0  0  0  0  0  0  0  0  0  0  0  # atno 17370 bound_to 10713
  156.2087  130.6665  151.1246 LP  0  0  0  0  0  0  0  0  0  0  0  0  # atno 17371 bound_to 10713
  140.8693  134.2746  157.5198 LP  0  0  0  0  0  0  0  0  0  0  0  0  # atno 17394 bound_to 11000
  139.8706  134.9559  156.4220 LP  0  0  0  0  0  0  0  0  0  0  0  0  # atno 17395 bound_to 11000

$$$$
