AV-unprocessed.smi:798|AV-procd|sdf|3780|dock1
  -GOLD-   22720 1213D 1   1.00000     0.00000
 Structure written by MMmdl.
 33 35  0  0  0  0  0  0  0  0  2 V2000
  148.1424  138.3036  158.9343 O   0  0  0  0  0  0  0  0  0  0  0  0
  148.9248  137.3978  158.6378 C   0  0  0  0  0  0  0  0  0  0  0  0
  149.2379  136.3272  159.4023 N   0  5  0  0  0  0  0  0  0  0  0  0
  148.4810  136.0184  160.4681 C   0  0  0  0  0  0  0  0  0  0  0  0
  148.1091  136.9363  161.3749 N   0  0  0  0  0  0  0  0  0  0  0  0
  147.3360  136.4086  162.4003 N   0  0  0  0  0  0  0  0  0  0  0  0
  147.1506  135.0979  162.2438 C   0  0  0  0  0  0  0  0  0  0  0  0
  147.9049  134.3889  160.8315 S   0  0  0  0  0  0  0  0  0  0  0  0
  149.5493  137.4126  157.4517 N   0  0  0  0  0  0  0  0  0  0  0  0
  149.4123  138.4358  156.4124 C   0  0  1  0  0  0  0  0  0  0  0  0
  149.8991  139.8271  156.8879 C   0  0  1  0  0  0  0  0  0  0  0  0
  151.3092  139.7481  157.5112 C   0  0  0  0  0  0  0  0  0  0  0  0
  152.2003  139.4639  156.2890 C   0  0  0  0  0  0  0  0  0  0  0  0
  151.1913  139.4489  155.1214 C   0  0  2  0  0  0  0  0  0  0  0  0
  150.2076  140.5246  155.5668 C   0  0  0  0  0  0  0  0  0  0  0  0
  150.2873  138.1918  155.1478 C   0  0  1  0  0  0  0  0  0  0  0  0
  151.0160  136.8333  155.0356 C   0  0  0  0  0  0  0  0  0  0  0  0
  151.8316  136.8055  153.8829 O   0  0  0  0  0  0  0  0  0  0  0  0
  146.5692  134.5446  162.9661 H   0  0  0  0  0  0  0  0  0  0  0  0
  150.1770  136.6477  157.2530 H   0  0  0  0  0  0  0  0  0  0  0  0
  148.3652  138.5202  156.1149 H   0  0  0  0  0  0  0  0  0  0  0  0
  149.1769  140.3458  157.5191 H   0  0  0  0  0  0  0  0  0  0  0  0
  151.5799  140.7046  157.9600 H   0  0  0  0  0  0  0  0  0  0  0  0
  151.4064  138.9902  158.2884 H   0  0  0  0  0  0  0  0  0  0  0  0
  152.9245  140.2688  156.1567 H   0  0  0  0  0  0  0  0  0  0  0  0
  152.7635  138.5368  156.3856 H   0  0  0  0  0  0  0  0  0  0  0  0
  151.6498  139.6326  154.1493 H   0  0  0  0  0  0  0  0  0  0  0  0
  149.3386  140.6183  154.9131 H   0  0  0  0  0  0  0  0  0  0  0  0
  150.6661  141.5075  155.6911 H   0  0  0  0  0  0  0  0  0  0  0  0
  149.6216  138.2551  154.2849 H   0  0  0  0  0  0  0  0  0  0  0  0
  151.6244  136.6170  155.9130 H   0  0  0  0  0  0  0  0  0  0  0  0
  150.2892  136.0250  154.9503 H   0  0  0  0  0  0  0  0  0  0  0  0
  151.2834  136.6267  153.1342 H   0  0  0  0  0  0  0  0  0  0  0  0
  1  2  2  0  0  0  0
  2  3  1  0  0  0  0
  2  9  1  0  0  0  0
  3  4  1  0  0  0  0
  4  8  1  0  0  0  0
  4  5  2  0  0  0  0
  5  6  1  0  0  0  0
  6  7  2  0  0  0  0
  7  8  1  0  0  0  0
  7 19  1  0  0  0  0
  9 10  1  0  0  0  0
  9 20  1  0  0  0  0
 10 16  1  0  0  0  0
 10 11  1  0  0  0  0
 10 21  1  0  0  0  0
 11 15  1  0  0  0  0
 11 12  1  0  0  0  0
 11 22  1  0  0  0  0
 12 13  1  0  0  0  0
 12 23  1  0  0  0  0
 12 24  1  0  0  0  0
 13 14  1  0  0  0  0
 13 25  1  0  0  0  0
 13 26  1  0  0  0  0
 14 15  1  0  0  0  0
 14 16  1  0  0  0  0
 14 27  1  0  0  0  0
 15 28  1  0  0  0  0
 15 29  1  0  0  0  0
 16 17  1  0  0  0  0
 16 30  1  0  0  0  0
 17 18  1  0  0  0  0
 17 31  1  0  0  0  0
 17 32  1  0  0  0  0
 18 33  1  0  0  0  0
M  CHG  1   3  -1
M  END
> <s_m_source_file>
AV-unprocessed.smi

> <i_m_source_file_index>
798

> <i_lp_mmshare_version>
43012

> <i_f3d_flags>
0

> <s_epik_input>
W0NIMl0xW0NIMl1bQ0BASF0oW0NIMl0yKVtDQEBIXShbQ0gyXVtPSF0pW0NAQEhdKFtDQEhdMTIpW05IXUMoPU8pW05IXWMzbm5bY0hdczM=

> <s_epik_cmdline>
J2VwaWtfcHl0aG9uJywgJy1waCcsICc3LjAnLCAnLXRuJywgJzgnLCAnLW1hJywgJzIwMCcsICctbWV0YWxfYmluZGluZycsICctaW1hZScsICc8aW5maWxlLm1hZT4nLCAnLW9tYWUnLCAnPG91dGZpbGUubWFlPic=

> <r_lp_tautomer_probability>
1

> <r_epik_Ionization_Penalty>
4.53732

> <r_epik_Ionization_Penalty_Charging>
4.48632

> <r_epik_Ionization_Penalty_Neutral>
0.0510007

> <r_epik_State_Penalty>
4.48602

> <r_epik_Charging_Adjusted_Penalty>
8.97234

> <i_epik_Tot_Q>
-1

> <i_epik_Tot_abs_Q>
1

> <r_epik_Metal_State_Penalty>
0.812492

> <b_epik_Metal_Only>
1

> <s_lp_Force_Field>
OPLS_2005

> <r_lp_Energy>
48.4262

> <b_lp_Chiralities_Consistent>
1

> <s_lp_Variant>
AV-unprocessed.smi:798-12

> <Gold.Version>
5.8.1

> <Gold.Id.Protein>
6NUR|6NUR_protein|mol2

> <Gold.PLP.Fitness>
40.1543

> <Gold.PLP.PLP>
-27.7765

> <Gold.PLP.part.hbond>
-5.3783

> <Gold.PLP.part.metal>
0.0000

> <Gold.PLP.part.buried>
-4.0810

> <Gold.PLP.part.nonpolar>
-19.4942

> <Gold.PLP.part.repulsive>
0.0342

> <Gold.PLP.ligand.clash>
0.0000

> <Gold.PLP.ligand.torsion>
0.4685

> <Gold.PLP.Chemscore.Hbond>
4.4154

> <Gold.PLP.Chemscore.CHOScore>
0.0000

> <Gold.PLP.Chemscore.Metal>
0.0000

> <Gold.Chemscore.Hbonds>
donor molecule, donor type, donor heavy atom, donor atom, acceptor molecule, acceptor atom, score
      L1  H    18    33       P1  7949  0.94
      P1  H  6896  6907       L1     3  1.11
      P1  H  6931  6943       L1     5  1.00
      P1  H  6934  6947       L1     5  0.19
      P1  H 10752 10763       L1    18  1.00

> <Gold.PLP.Chemscore.Internal.Correction>
0.0688

> <Gold.Rescore>
     Score         DG    S(hbond)    S(metal)    S(lipo)     H(rot)  DE(clash)    DE(int)     intcor
     14.44     -16.32       2.82        0.00      54.09       1.92       0.01       1.87       ----

> <Gold.Chemscore.Fitness>
14.4426

> <Gold.Chemscore.DG>
-16.3201

> <Gold.Chemscore.ZeroCoef>
-5.4800

> <Gold.Chemscore.Hbond>
2.8229

> <Gold.Chemscore.Metal>
0.0000

> <Gold.Chemscore.Lipo>
54.0899

> <Gold.Chemscore.Internal_Hbond>
0.0000

> <Gold.Chemscore.DEClash>
0.0060

> <Gold.Chemscore.DEInternal>
1.8715

> <Gold.Chemscore.Rot>
1.9207

> <Gold.Chemscore.Internal.Correction>
   9.000000E+99

> <Gold.Chemscore.Hbonds>
donor molecule, donor type, donor heavy atom, donor atom, acceptor molecule, acceptor atom, score
      L1  H    18    33       P1  7949  0.59
      P1  H  6896  6907       L1     3  0.11
      P1  H  6931  6943       L1     5  0.82
      P1  H  6934  6947       L1     5  0.10
      P1  H 10752 10763       L1    18  0.61

> <Gold.Chemscore.Hbond.Weighted>
-9.4284

> <Gold.Chemscore.Metal.Weighted>
-0.0000

> <Gold.Chemscore.Lipo.Weighted>
-6.3285

> <Gold.Chemscore.Internal_Hbond.Weighted>
0.0000

> <Gold.Chemscore.DEClash.Weighted>
0.0060

> <Gold.Chemscore.DEInternal.Weighted>
1.8715

> <Gold.Chemscore.Rot.Weighted>
4.9169

> <Gold.Chemscore.Internal.Correction.Weighted>
   9.000000E+99

> <Gold.Protein.RotatedTorsions>
[ 6907 6896 6895 6894 ] final  -52.25 input  -60.11 | X-H torsion
[ 7974 7965 7964 7962 ] final   -0.66 input  175.53 | X-H torsion
[ 8008 7997 7996 7995 ] final  -83.92 input   59.86 | X-H torsion
[ 10167 10162 10161 10158 ] final   80.47 input  -65.29 | X-H torsion
[ 10718 10713 10712 10709 ] final  -24.52 input   66.30 | X-H torsion
[ 10763 10752 10751 10750 ] final   28.12 input  -60.55 | X-H torsion
[ 11005 11000 10999 10996 ] final   89.08 input  -57.11 | X-H torsion

> <Gold.Protein.ActiveResidues>
 VAL166  LYS551  ARG553  GLY616  TRP617  ASP618  TYR619  PRO620  LYS621  CYS622 
 ASP623  PHE694  ASN695  SER759  ASP760  ASP761  ALA762  ILE779  LEU786  VAL792 
 PHE793  MET794  SER795  GLU796  ALA797  LYS798  CYS799  TRP800  GLU811  SER814 

> <Gold.Protein.RotatedAtoms>
  150.8536  134.7868  159.7027 H   0  0  0  0  0  0  0  0  0  0  0  0  # atno 6907 bound_to 6896
  152.4593  134.5216  159.9794 H   0  0  0  0  0  0  0  0  0  0  0  0  # atno 6908 bound_to 6896
  151.5333  133.3407  159.2958 H   0  0  0  0  0  0  0  0  0  0  0  0  # atno 6909 bound_to 6896
  146.2425  140.1303  142.8338 H   0  0  0  0  0  0  0  0  0  0  0  0  # atno 7974 bound_to 7965
  154.6242  140.0612  156.9653 H   0  0  0  0  0  0  0  0  0  0  0  0  # atno 8008 bound_to 7997
  155.1769  140.3296  155.4364 H   0  0  0  0  0  0  0  0  0  0  0  0  # atno 8009 bound_to 7997
  156.2448  140.1904  156.6867 H   0  0  0  0  0  0  0  0  0  0  0  0  # atno 8010 bound_to 7997
  139.9494  144.6036  150.8175 H   0  0  0  0  0  0  0  0  0  0  0  0  # atno 10167 bound_to 10162
  156.4765  130.4536  149.6837 H   0  0  0  0  0  0  0  0  0  0  0  0  # atno 10718 bound_to 10713
  153.0512  135.6521  154.0690 H   0  0  0  0  0  0  0  0  0  0  0  0  # atno 10763 bound_to 10752
  154.0377  135.2906  155.3361 H   0  0  0  0  0  0  0  0  0  0  0  0  # atno 10764 bound_to 10752
  154.6801  135.5323  153.8318 H   0  0  0  0  0  0  0  0  0  0  0  0  # atno 10765 bound_to 10752
  139.8883  134.8528  156.3091 H   0  0  0  0  0  0  0  0  0  0  0  0  # atno 11005 bound_to 11000
  145.0332  140.8887  143.5097 LP  0  0  0  0  0  0  0  0  0  0  0  0  # atno 17320 bound_to 7965
  145.1370  139.2596  143.5510 LP  0  0  0  0  0  0  0  0  0  0  0  0  # atno 17321 bound_to 7965
  140.7587  143.3113  151.2837 LP  0  0  0  0  0  0  0  0  0  0  0  0  # atno 17342 bound_to 10162
  139.6640  144.0138  152.2711 LP  0  0  0  0  0  0  0  0  0  0  0  0  # atno 17343 bound_to 10162
  156.3565  130.7459  151.2426 LP  0  0  0  0  0  0  0  0  0  0  0  0  # atno 17370 bound_to 10713
  157.7487  131.0362  150.4400 LP  0  0  0  0  0  0  0  0  0  0  0  0  # atno 17371 bound_to 10713
  140.9862  133.7236  156.0746 LP  0  0  0  0  0  0  0  0  0  0  0  0  # atno 17394 bound_to 11000
  140.7685  134.3860  157.5512 LP  0  0  0  0  0  0  0  0  0  0  0  0  # atno 17395 bound_to 11000

$$$$
