AV-unprocessed.smi:1230|AV-procd|sdf|5159|dock5
  -GOLD-   22720 4233D 1   1.00000     0.00000
 Structure written by MMmdl.
 39 40  0  0  0  0  0  0  0  0  1 V2000
  153.2182  141.1223  160.3180 C   0  0  0  0  0  0  0  0  0  0  0  0
  152.3585  142.3970  160.3040 C   0  0  1  0  0  0  0  0  0  0  0  0
  152.7547  143.3318  161.4644 C   0  0  0  0  0  0  0  0  0  0  0  0
  151.9172  144.6194  161.4719 C   0  0  0  0  0  0  0  0  0  0  0  0
  152.0237  145.3531  160.1281 C   0  0  0  0  0  0  0  0  0  0  0  0
  151.6195  144.4348  158.9653 C   0  0  0  0  0  0  0  0  0  0  0  0
  152.4536  143.1359  158.9497 C   0  0  2  0  0  0  0  0  0  0  0  0
  151.9566  142.2645  157.9410 O   0  0  0  0  0  0  0  0  0  0  0  0
  150.5443  142.1258  157.9284 C   0  0  0  0  0  0  0  0  0  0  0  0
  150.1471  141.3111  156.6883 C   0  0  0  0  0  0  0  0  0  0  0  0
  150.7915  140.0228  156.6348 N   0  0  0  0  0  0  0  0  0  0  0  0
  151.2385  139.3676  157.7722 C   0  0  0  0  0  0  0  0  0  0  0  0
  151.8614  138.1661  157.7287 C   0  0  0  0  0  0  0  0  0  0  0  0
  152.3174  137.5055  158.9069 C   0  0  0  0  0  0  0  0  0  0  0  0
  152.6785  136.9889  159.8775 N   0  0  0  0  0  0  0  0  0  0  0  0
  152.0977  137.4926  156.4528 C   0  0  0  0  0  0  0  0  0  0  0  0
  152.6497  136.4035  156.3081 O   0  0  0  0  0  0  0  0  0  0  0  0
  151.6366  138.1967  155.3356 N   0  0  0  0  0  0  0  0  0  0  0  0
  150.9957  139.4371  155.3631 C   0  0  0  0  0  0  0  0  0  0  0  0
  150.6419  139.9681  154.3101 O   0  0  0  0  0  0  0  0  0  0  0  0
  151.7827  137.7732  154.4305 H   0  0  0  0  0  0  0  0  0  0  0  0
  154.2712  141.3526  160.1529 H   0  0  0  0  0  0  0  0  0  0  0  0
  152.9057  140.4230  159.5422 H   0  0  0  0  0  0  0  0  0  0  0  0
  153.1369  140.6047  161.2742 H   0  0  0  0  0  0  0  0  0  0  0  0
  151.3199  142.0986  160.4552 H   0  0  0  0  0  0  0  0  0  0  0  0
  152.6339  142.8152  162.4172 H   0  0  0  0  0  0  0  0  0  0  0  0
  153.8121  143.5889  161.3859 H   0  0  0  0  0  0  0  0  0  0  0  0
  150.8737  144.3769  161.6763 H   0  0  0  0  0  0  0  0  0  0  0  0
  152.2475  145.2730  162.2796 H   0  0  0  0  0  0  0  0  0  0  0  0
  151.3910  146.2410  160.1381 H   0  0  0  0  0  0  0  0  0  0  0  0
  153.0463  145.7027  159.9806 H   0  0  0  0  0  0  0  0  0  0  0  0
  150.5606  144.1874  159.0510 H   0  0  0  0  0  0  0  0  0  0  0  0
  151.7332  144.9762  158.0267 H   0  0  0  0  0  0  0  0  0  0  0  0
  153.5020  143.3753  158.7609 H   0  0  0  0  0  0  0  0  0  0  0  0
  150.1990  141.6311  158.8360 H   0  0  0  0  0  0  0  0  0  0  0  0
  150.0760  143.1106  157.8915 H   0  0  0  0  0  0  0  0  0  0  0  0
  149.0738  141.1158  156.6838 H   0  0  0  0  0  0  0  0  0  0  0  0
  150.3673  141.8334  155.7546 H   0  0  0  0  0  0  0  0  0  0  0  0
  151.0889  139.8320  158.7369 H   0  0  0  0  0  0  0  0  0  0  0  0
  1  2  1  0  0  0  0
  1 22  1  0  0  0  0
  1 23  1  0  0  0  0
  1 24  1  0  0  0  0
  2  7  1  0  0  0  0
  2  3  1  0  0  0  0
  2 25  1  0  0  0  0
  3  4  1  0  0  0  0
  3 26  1  0  0  0  0
  3 27  1  0  0  0  0
  4  5  1  0  0  0  0
  4 28  1  0  0  0  0
  4 29  1  0  0  0  0
  5  6  1  0  0  0  0
  5 30  1  0  0  0  0
  5 31  1  0  0  0  0
  6  7  1  0  0  0  0
  6 32  1  0  0  0  0
  6 33  1  0  0  0  0
  7  8  1  0  0  0  0
  7 34  1  0  0  0  0
  8  9  1  0  0  0  0
  9 10  1  0  0  0  0
  9 35  1  0  0  0  0
  9 36  1  0  0  0  0
 10 11  1  0  0  0  0
 10 37  1  0  0  0  0
 10 38  1  0  0  0  0
 11 19  1  0  0  0  0
 11 12  1  0  0  0  0
 12 13  2  0  0  0  0
 12 39  1  0  0  0  0
 13 14  1  0  0  0  0
 13 16  1  0  0  0  0
 14 15  3  0  0  0  0
 16 17  2  0  0  0  0
 16 18  1  0  0  0  0
 18 21  1  0  0  0  0
 18 19  1  0  0  0  0
 19 20  2  0  0  0  0
M  END
> <s_m_source_file>
AV-unprocessed.smi

> <i_m_source_file_index>
1230

> <i_lp_mmshare_version>
43012

> <i_f3d_flags>
0

> <s_epik_input>
W0NIM11bQ0BASF0xW0NIMl1bQ0gyXVtDSDJdW0NIMl1bQ0BIXTFPW0NIMl1bQ0gyXW4yW2NIXWMoQyNOKWMoPU8pW25IXWMyPU8=

> <s_epik_cmdline>
J2VwaWtfcHl0aG9uJywgJy1waCcsICc3LjAnLCAnLXRuJywgJzgnLCAnLW1hJywgJzIwMCcsICctbWV0YWxfYmluZGluZycsICctaW1hZScsICc8aW5maWxlLm1hZT4nLCAnLW9tYWUnLCAnPG91dGZpbGUubWFlPic=

> <r_epik_Ionization_Penalty>
0.421541

> <r_epik_Ionization_Penalty_Charging>
0.421541

> <r_epik_Ionization_Penalty_Neutral>
2.29267e-11

> <r_epik_State_Penalty>
0.422277

> <r_epik_Charging_Adjusted_Penalty>
0.843818

> <i_epik_Tot_Q>
0

> <i_epik_Tot_abs_Q>
0

> <r_epik_Metal_State_Penalty>
4.11629

> <b_epik_Metal_Only>
0

> <s_lp_Force_Field>
OPLS_2005

> <r_lp_Energy>
13.3669

> <b_lp_Chiralities_Consistent>
1

> <s_lp_Variant>
AV-unprocessed.smi:1230-8

> <Gold.Version>
5.8.1

> <Gold.Id.Protein>
6NUR|6NUR_protein|mol2

> <Gold.PLP.Fitness>
47.4915

> <Gold.PLP.PLP>
-39.4629

> <Gold.PLP.part.hbond>
-3.0000

> <Gold.PLP.part.metal>
0.0000

> <Gold.PLP.part.buried>
-3.8419

> <Gold.PLP.part.nonpolar>
-33.7360

> <Gold.PLP.part.repulsive>
0.2723

> <Gold.PLP.ligand.clash>
0.0000

> <Gold.PLP.ligand.torsion>
0.4759

> <Gold.PLP.Chemscore.Hbond>
2.9913

> <Gold.PLP.Chemscore.CHOScore>
0.0000

> <Gold.PLP.Chemscore.Metal>
0.0000

> <Gold.Chemscore.Hbonds>
donor molecule, donor type, donor heavy atom, donor atom, acceptor molecule, acceptor atom, score
      P1  H  6896  6907       L1    15  0.93
      P1  H  7989  7998       L1    20  1.00
      P1  H 10752 10763       L1    17  1.00

> <Gold.PLP.Chemscore.Internal.Correction>
0.0067

> <Gold.Rescore>
     Score         DG    S(hbond)    S(metal)    S(lipo)     H(rot)  DE(clash)    DE(int)     intcor
     20.33     -21.59       2.89        0.00      97.65       1.94       0.14       1.12       ----

> <Gold.Chemscore.Fitness>
20.3283

> <Gold.Chemscore.DG>
-21.5850

> <Gold.Chemscore.ZeroCoef>
-5.4800

> <Gold.Chemscore.Hbond>
2.8870

> <Gold.Chemscore.Metal>
0.0000

> <Gold.Chemscore.Lipo>
97.6497

> <Gold.Chemscore.Internal_Hbond>
0.0000

> <Gold.Chemscore.DEClash>
0.1352

> <Gold.Chemscore.DEInternal>
1.1215

> <Gold.Chemscore.Rot>
1.9385

> <Gold.Chemscore.Internal.Correction>
   9.000000E+99

> <Gold.Chemscore.Hbonds>
donor molecule, donor type, donor heavy atom, donor atom, acceptor molecule, acceptor atom, score
      P1  H  6896  6907       L1    15  0.62
      P1  H  7989  7998       L1    20  0.94
      P1  H 10752 10763       L1    17  0.95

> <Gold.Chemscore.Hbond.Weighted>
-9.6426

> <Gold.Chemscore.Metal.Weighted>
-0.0000

> <Gold.Chemscore.Lipo.Weighted>
-11.4250

> <Gold.Chemscore.Internal_Hbond.Weighted>
0.0000

> <Gold.Chemscore.DEClash.Weighted>
0.1352

> <Gold.Chemscore.DEInternal.Weighted>
1.1215

> <Gold.Chemscore.Rot.Weighted>
4.9625

> <Gold.Chemscore.Internal.Correction.Weighted>
   9.000000E+99

> <Gold.Protein.RotatedTorsions>
[ 6907 6896 6895 6894 ] final   10.41 input  -60.11 | X-H torsion
[ 7974 7965 7964 7962 ] final   14.25 input  175.53 | X-H torsion
[ 8008 7997 7996 7995 ] final -112.63 input   59.86 | X-H torsion
[ 10167 10162 10161 10158 ] final  -79.89 input  -65.29 | X-H torsion
[ 10718 10713 10712 10709 ] final   78.62 input   66.30 | X-H torsion
[ 10763 10752 10751 10750 ] final   88.89 input  -60.55 | X-H torsion
[ 11005 11000 10999 10996 ] final   47.79 input  -57.11 | X-H torsion

> <Gold.Protein.ActiveResidues>
 VAL166  LYS551  ARG553  GLY616  TRP617  ASP618  TYR619  PRO620  LYS621  CYS622 
 ASP623  PHE694  ASN695  SER759  ASP760  ASP761  ALA762  ILE779  LEU786  VAL792 
 PHE793  MET794  SER795  GLU796  ALA797  LYS798  CYS799  TRP800  GLU811  SER814 

> <Gold.Protein.RotatedAtoms>
  151.7379  135.0861  160.0310 H   0  0  0  0  0  0  0  0  0  0  0  0  # atno 6907 bound_to 6896
  152.3499  133.6162  159.5945 H   0  0  0  0  0  0  0  0  0  0  0  0  # atno 6908 bound_to 6896
  150.7533  133.9507  159.3526 H   0  0  0  0  0  0  0  0  0  0  0  0  # atno 6909 bound_to 6896
  146.2310  139.9069  142.8530 H   0  0  0  0  0  0  0  0  0  0  0  0  # atno 7974 bound_to 7965
  155.0082  140.0394  157.2388 H   0  0  0  0  0  0  0  0  0  0  0  0  # atno 8008 bound_to 7997
  154.7483  140.2762  155.6291 H   0  0  0  0  0  0  0  0  0  0  0  0  # atno 8009 bound_to 7997
  156.2879  140.2652  156.2230 H   0  0  0  0  0  0  0  0  0  0  0  0  # atno 8010 bound_to 7997
  140.4552  143.2470  151.8430 H   0  0  0  0  0  0  0  0  0  0  0  0  # atno 10167 bound_to 10162
  157.6750  130.9876  150.1813 H   0  0  0  0  0  0  0  0  0  0  0  0  # atno 10718 bound_to 10713
  153.1814  135.4490  155.0033 H   0  0  0  0  0  0  0  0  0  0  0  0  # atno 10763 bound_to 10752
  154.8033  135.3264  154.7499 H   0  0  0  0  0  0  0  0  0  0  0  0  # atno 10764 bound_to 10752
  153.7962  135.6966  153.4918 H   0  0  0  0  0  0  0  0  0  0  0  0  # atno 10765 bound_to 10752
  140.1248  134.4782  155.8568 H   0  0  0  0  0  0  0  0  0  0  0  0  # atno 11005 bound_to 11000
  145.2268  140.9957  143.4014 LP  0  0  0  0  0  0  0  0  0  0  0  0  # atno 17320 bound_to 7965
  144.9564  139.4027  143.6377 LP  0  0  0  0  0  0  0  0  0  0  0  0  # atno 17321 bound_to 7965
  139.4800  144.5073  151.8981 LP  0  0  0  0  0  0  0  0  0  0  0  0  # atno 17342 bound_to 10162
  140.4159  144.2307  150.5888 LP  0  0  0  0  0  0  0  0  0  0  0  0  # atno 17343 bound_to 10162
  156.2544  130.3704  149.8197 LP  0  0  0  0  0  0  0  0  0  0  0  0  # atno 17370 bound_to 10713
  156.5960  130.8526  151.3420 LP  0  0  0  0  0  0  0  0  0  0  0  0  # atno 17371 bound_to 10713
  141.2159  133.6774  156.6957 LP  0  0  0  0  0  0  0  0  0  0  0  0  # atno 17394 bound_to 11000
  140.2918  134.8234  157.4023 LP  0  0  0  0  0  0  0  0  0  0  0  0  # atno 17395 bound_to 11000

$$$$
