AV-unprocessed.smi:3187|AV-procd|sdf|12178|dock10
  -GOLD-   2272018 13D 1   1.00000     0.00000
 Structure written by MMmdl.
 41 42  0  0  0  0  0  0  0  0  2 V2000
  153.0227  140.4296  159.7313 C   0  0  0  0  0  0  0  0  0  0  0  0
  152.6604  141.8621  160.0906 C   0  0  0  0  0  0  0  0  0  0  0  0
  152.8110  142.3154  161.3507 C   0  0  0  0  0  0  0  0  0  0  0  0
  152.5420  143.7417  161.7974 C   0  0  0  0  0  0  0  0  0  0  0  0
  151.9017  144.6097  160.7013 C   0  0  0  0  0  0  0  0  0  0  0  0
  152.4560  144.2617  159.3084 C   0  0  2  0  0  0  0  0  0  0  0  0
  151.9976  145.2659  158.2369 C   0  0  0  0  0  0  0  0  0  0  0  0
  152.1781  142.7736  158.9536 C   0  0  2  0  0  0  0  0  0  0  0  0
  150.6972  142.5130  158.5710 C   0  0  0  0  0  0  0  0  0  0  0  0
  150.4497  142.6229  157.1209 N   0  3  0  0  0  0  0  0  0  0  0  0
  149.6806  141.5006  156.5469 C   0  0  0  0  0  0  0  0  0  0  0  0
  149.7668  141.4859  155.0128 C   0  0  0  0  0  0  0  0  0  0  0  0
  148.4614  141.3654  154.3917 N   0  0  0  0  0  0  0  0  0  0  0  0
  148.0254  140.3521  153.5481 C   0  0  0  0  0  0  0  0  0  0  0  0
  146.7250  140.6536  153.2113 C   0  0  0  0  0  0  0  0  0  0  0  0
  146.3440  141.8409  153.8320 N   0  0  0  0  0  0  0  0  0  0  0  0
  147.4245  142.2065  154.5086 C   0  0  0  0  0  0  0  0  0  0  0  0
  153.6498  140.4048  158.8398 H   0  0  0  0  0  0  0  0  0  0  0  0
  152.1370  139.8228  159.5521 H   0  0  0  0  0  0  0  0  0  0  0  0
  153.5799  139.9541  160.5395 H   0  0  0  0  0  0  0  0  0  0  0  0
  153.1800  141.6493  162.1172 H   0  0  0  0  0  0  0  0  0  0  0  0
  151.9116  143.7322  162.6868 H   0  0  0  0  0  0  0  0  0  0  0  0
  153.4975  144.1746  162.0948 H   0  0  0  0  0  0  0  0  0  0  0  0
  150.8201  144.4751  160.7127 H   0  0  0  0  0  0  0  0  0  0  0  0
  152.0743  145.6621  160.9295 H   0  0  0  0  0  0  0  0  0  0  0  0
  153.5407  144.3698  159.3668 H   0  0  0  0  0  0  0  0  0  0  0  0
  150.9119  145.3523  158.1951 H   0  0  0  0  0  0  0  0  0  0  0  0
  152.3545  144.9783  157.2476 H   0  0  0  0  0  0  0  0  0  0  0  0
  152.3900  146.2609  158.4487 H   0  0  0  0  0  0  0  0  0  0  0  0
  152.7906  142.5442  158.0804 H   0  0  0  0  0  0  0  0  0  0  0  0
  150.3856  141.5234  158.9059 H   0  0  0  0  0  0  0  0  0  0  0  0
  150.0444  143.2357  159.0593 H   0  0  0  0  0  0  0  0  0  0  0  0
  149.9434  143.4793  156.9454 H   0  0  0  0  0  0  0  0  0  0  0  0
  150.0728  140.5622  156.9405 H   0  0  0  0  0  0  0  0  0  0  0  0
  148.6401  141.5716  156.8670 H   0  0  0  0  0  0  0  0  0  0  0  0
  150.2522  142.3921  154.6476 H   0  0  0  0  0  0  0  0  0  0  0  0
  150.3795  140.6466  154.6816 H   0  0  0  0  0  0  0  0  0  0  0  0
  148.6574  139.5229  153.2649 H   0  0  0  0  0  0  0  0  0  0  0  0
  146.0402  140.1119  152.5754 H   0  0  0  0  0  0  0  0  0  0  0  0
  147.4597  143.1039  155.1092 H   0  0  0  0  0  0  0  0  0  0  0  0
  151.3426  142.6741  156.6516 H   0  0  0  0  0  0  0  0  0  0  0  0
  1  2  1  0  0  0  0
  1 18  1  0  0  0  0
  1 19  1  0  0  0  0
  1 20  1  0  0  0  0
  2  8  1  0  0  0  0
  2  3  2  0  0  0  0
  3  4  1  0  0  0  0
  3 21  1  0  0  0  0
  4  5  1  0  0  0  0
  4 22  1  0  0  0  0
  4 23  1  0  0  0  0
  5  6  1  0  0  0  0
  5 24  1  0  0  0  0
  5 25  1  0  0  0  0
  6  7  1  0  0  0  0
  6  8  1  0  0  0  0
  6 26  1  0  0  0  0
  7 27  1  0  0  0  0
  7 28  1  0  0  0  0
  7 29  1  0  0  0  0
  8  9  1  0  0  0  0
  8 30  1  0  0  0  0
  9 10  1  0  0  0  0
  9 31  1  0  0  0  0
  9 32  1  0  0  0  0
 10 11  1  0  0  0  0
 10 33  1  0  0  0  0
 10 41  1  0  0  0  0
 11 12  1  0  0  0  0
 11 34  1  0  0  0  0
 11 35  1  0  0  0  0
 12 13  1  0  0  0  0
 12 36  1  0  0  0  0
 12 37  1  0  0  0  0
 13 17  1  0  0  0  0
 13 14  1  0  0  0  0
 14 15  2  0  0  0  0
 14 38  1  0  0  0  0
 15 16  1  0  0  0  0
 15 39  1  0  0  0  0
 16 17  2  0  0  0  0
 17 40  1  0  0  0  0
M  CHG  1  10   1
M  END
> <s_m_source_file>
AV-unprocessed.smi

> <i_m_source_file_index>
3187

> <i_lp_mmshare_version>
43012

> <i_f3d_flags>
0

> <s_epik_input>
W0NIM11DMT1bQ0hdW0NIMl1bQ0gyXVtDQEBIXShbQ0gzXSlbQ0BIXTFbQ0gyXVtOSF1bQ0gyXVtDSDJdbjJbY0hdW2NIXW5bY0hdMg==

> <s_epik_cmdline>
J2VwaWtfcHl0aG9uJywgJy1waCcsICc3LjAnLCAnLXRuJywgJzgnLCAnLW1hJywgJzIwMCcsICctbWV0YWxfYmluZGluZycsICctaW1hZScsICc8aW5maWxlLm1hZT4nLCAnLW9tYWUnLCAnPG91dGZpbGUubWFlPic=

> <r_lp_tautomer_probability>
1

> <r_epik_Ionization_Penalty>
0.0501625

> <r_epik_Ionization_Penalty_Charging>
0.0501625

> <r_epik_Ionization_Penalty_Neutral>
0

> <r_epik_State_Penalty>
0.0972392

> <r_epik_Charging_Adjusted_Penalty>
0.147402

> <i_epik_Tot_Q>
1

> <i_epik_Tot_abs_Q>
1

> <r_epik_Metal_State_Penalty>
0.000104376

> <b_epik_Metal_Only>
0

> <s_lp_Force_Field>
OPLS_2005

> <r_lp_Energy>
17.7506

> <b_lp_Chiralities_Consistent>
1

> <s_lp_Variant>
AV-unprocessed.smi:3187-4

> <Gold.Version>
5.8.1

> <Gold.Id.Protein>
6NUR|6NUR_protein|mol2

> <Gold.PLP.Fitness>
54.1630

> <Gold.PLP.PLP>
-42.8631

> <Gold.PLP.part.hbond>
-1.0000

> <Gold.PLP.part.metal>
0.0000

> <Gold.PLP.part.buried>
-0.4082

> <Gold.PLP.part.nonpolar>
-40.9366

> <Gold.PLP.part.repulsive>
0.2174

> <Gold.PLP.ligand.clash>
0.0000

> <Gold.PLP.ligand.torsion>
1.2060

> <Gold.PLP.Chemscore.Hbond>
2.0000

> <Gold.PLP.Chemscore.CHOScore>
2.5483

> <Gold.PLP.Chemscore.Metal>
0.0000

> <Gold.Chemscore.Hbonds>
donor molecule, donor type, donor heavy atom, donor atom, acceptor molecule, acceptor atom, score
      L1  H    10    33       P1  8028  1.82
      L1  C    14    38       P1  7957  0.55
      L1  C    15    39       P1 10175  0.91
      L1  C    17    40       P1  8028  1.00

> <Gold.PLP.Chemscore.Internal.Correction>
0.0671

> <Gold.Rescore>
     Score         DG    S(hbond)    S(metal)    S(lipo)     H(rot)  DE(clash)    DE(int)     intcor
     15.96     -18.74       0.97        0.00     126.75       1.89       1.57       1.21       ----

> <Gold.Chemscore.Fitness>
15.9556

> <Gold.Chemscore.DG>
-18.7354

> <Gold.Chemscore.ZeroCoef>
-5.4800

> <Gold.Chemscore.Hbond>
0.9736

> <Gold.Chemscore.Metal>
0.0000

> <Gold.Chemscore.Lipo>
126.7510

> <Gold.Chemscore.Internal_Hbond>
0.0000

> <Gold.Chemscore.DEClash>
1.5668

> <Gold.Chemscore.DEInternal>
1.2130

> <Gold.Chemscore.Rot>
1.8853

> <Gold.Chemscore.Internal.Correction>
   9.000000E+99

> <Gold.Chemscore.Hbonds>
donor molecule, donor type, donor heavy atom, donor atom, acceptor molecule, acceptor atom, score
      L1  H    10    33       P1  8028  0.83

> <Gold.Chemscore.Hbond.Weighted>
-3.2518

> <Gold.Chemscore.Metal.Weighted>
-0.0000

> <Gold.Chemscore.Lipo.Weighted>
-14.8299

> <Gold.Chemscore.Internal_Hbond.Weighted>
0.0000

> <Gold.Chemscore.DEClash.Weighted>
1.5668

> <Gold.Chemscore.DEInternal.Weighted>
1.2130

> <Gold.Chemscore.Rot.Weighted>
4.8263

> <Gold.Chemscore.Internal.Correction.Weighted>
   9.000000E+99

> <Gold.Protein.RotatedTorsions>
[ 6907 6896 6895 6894 ] final  -88.49 input  -60.11 | X-H torsion
[ 7974 7965 7964 7962 ] final  119.72 input  175.53 | X-H torsion
[ 8008 7997 7996 7995 ] final   85.31 input   59.86 | X-H torsion
[ 10167 10162 10161 10158 ] final -143.05 input  -65.29 | X-H torsion
[ 10718 10713 10712 10709 ] final  -10.51 input   66.30 | X-H torsion
[ 10763 10752 10751 10750 ] final  120.47 input  -60.55 | X-H torsion
[ 11005 11000 10999 10996 ] final   62.05 input  -57.11 | X-H torsion

> <Gold.Protein.ActiveResidues>
 VAL166  LYS551  ARG553  GLY616  TRP617  ASP618  TYR619  PRO620  LYS621  CYS622 
 ASP623  PHE694  ASN695  SER759  ASP760  ASP761  ALA762  ILE779  LEU786  VAL792 
 PHE793  MET794  SER795  GLU796  ALA797  LYS798  CYS799  TRP800  GLU811  SER814 

> <Gold.Protein.RotatedAtoms>
  150.6869  134.2733  159.4596 H   0  0  0  0  0  0  0  0  0  0  0  0  # atno 6907 bound_to 6896
  152.0654  134.9565  160.0584 H   0  0  0  0  0  0  0  0  0  0  0  0  # atno 6908 bound_to 6896
  152.0976  133.4198  159.4609 H   0  0  0  0  0  0  0  0  0  0  0  0  # atno 6909 bound_to 6896
  145.1398  139.3275  143.4622 H   0  0  0  0  0  0  0  0  0  0  0  0  # atno 7974 bound_to 7965
  155.9484  140.3403  155.6386 H   0  0  0  0  0  0  0  0  0  0  0  0  # atno 8008 bound_to 7997
  155.6951  140.0753  157.2451 H   0  0  0  0  0  0  0  0  0  0  0  0  # atno 8009 bound_to 7997
  154.4117  140.1650  156.2117 H   0  0  0  0  0  0  0  0  0  0  0  0  # atno 8010 bound_to 7997
  139.8030  143.7807  152.2659 H   0  0  0  0  0  0  0  0  0  0  0  0  # atno 10167 bound_to 10162
  156.6724  130.5013  149.5996 H   0  0  0  0  0  0  0  0  0  0  0  0  # atno 10718 bound_to 10713
  153.5991  135.3451  155.2938 H   0  0  0  0  0  0  0  0  0  0  0  0  # atno 10763 bound_to 10752
  154.8639  135.4223  154.2433 H   0  0  0  0  0  0  0  0  0  0  0  0  # atno 10764 bound_to 10752
  153.3257  135.7041  153.7063 H   0  0  0  0  0  0  0  0  0  0  0  0  # atno 10765 bound_to 10752
  140.0119  134.6283  155.9768 H   0  0  0  0  0  0  0  0  0  0  0  0  # atno 11005 bound_to 11000
  146.3506  140.1430  142.8594 LP  0  0  0  0  0  0  0  0  0  0  0  0  # atno 17320 bound_to 7965
  145.0545  140.9042  143.4976 LP  0  0  0  0  0  0  0  0  0  0  0  0  # atno 17321 bound_to 7965
  139.7933  144.7402  150.9925 LP  0  0  0  0  0  0  0  0  0  0  0  0  # atno 17342 bound_to 10162
  140.7820  143.4419  151.0539 LP  0  0  0  0  0  0  0  0  0  0  0  0  # atno 17343 bound_to 10162
  156.1928  130.6571  151.1081 LP  0  0  0  0  0  0  0  0  0  0  0  0  # atno 17370 bound_to 10713
  157.7072  131.0751  150.6625 LP  0  0  0  0  0  0  0  0  0  0  0  0  # atno 17371 bound_to 10713
  141.1717  133.6538  156.4675 LP  0  0  0  0  0  0  0  0  0  0  0  0  # atno 17394 bound_to 11000
  140.4539  134.6903  157.5053 LP  0  0  0  0  0  0  0  0  0  0  0  0  # atno 17395 bound_to 11000

$$$$
