AV-unprocessed.smi:45|AV-procd|sdf|418|dock4
  -GOLD-   2262016293D 1   1.00000     0.00000
 Structure written by MMmdl.
 60 63  0  0  0  0  0  0  0  0  3 V2000
  154.1490  133.0250  165.9131 C   0  0  0  0  0  0  0  0  0  0  0  0
  155.2167  133.7470  165.3172 O   0  0  0  0  0  0  0  0  0  0  0  0
  154.9081  134.8175  164.5032 C   0  0  0  0  0  0  0  0  0  0  0  0
  153.6815  135.5270  164.5632 C   0  0  0  0  0  0  0  0  0  0  0  0
  153.4392  136.6120  163.6985 C   0  0  0  0  0  0  0  0  0  0  0  0
  154.4156  137.0069  162.7629 C   0  0  0  0  0  0  0  0  0  0  0  0
  154.1542  138.1748  161.8335 C   0  0  0  0  0  0  0  0  0  0  0  0
  153.7153  137.7615  160.5093 N   0  0  0  0  0  0  0  0  0  0  0  0
  153.2174  138.6899  159.5801 C   0  0  0  0  0  0  0  0  0  0  0  0
  153.1723  140.0003  159.9436 N   0  3  0  0  0  0  0  0  0  0  0  0
  152.7200  140.9375  159.0944 C   0  0  0  0  0  0  0  0  0  0  0  0
  152.7063  142.2664  159.5157 N   0  0  0  0  0  0  0  0  0  0  0  0
  152.5976  143.3654  158.5625 C   0  0  0  0  0  0  0  0  0  0  0  0
  151.8313  144.4730  159.2836 C   0  0  0  0  0  0  0  0  0  0  0  0
  152.1964  144.2435  160.7442 C   0  0  0  0  0  0  0  0  0  0  0  0
  152.3057  142.7152  160.8505 C   0  0  2  0  0  0  0  0  0  0  0  0
  153.2784  142.2674  161.9619 C   0  0  0  0  0  0  0  0  0  0  0  0
  152.9452  142.9010  163.1785 O   0  0  0  0  0  0  0  0  0  0  0  0
  152.2981  140.6339  157.8611 N   0  0  0  0  0  0  0  0  0  0  0  0
  152.3220  139.3514  157.4523 C   0  0  0  0  0  0  0  0  0  0  0  0
  152.7836  138.3112  158.2834 C   0  0  0  0  0  0  0  0  0  0  0  0
  152.7641  136.8818  157.8065 C   0  0  0  0  0  0  0  0  0  0  0  0
  151.7997  136.1720  158.1126 O   0  0  0  0  0  0  0  0  0  0  0  0
  153.8804  136.5755  157.0889 N   0  5  0  0  0  0  0  0  0  0  0  0
  155.2059  137.1351  157.3567 C   0  0  0  0  0  0  0  0  0  0  0  0
  156.0319  137.2781  156.0838 C   0  0  0  0  0  0  0  0  0  0  0  0
  157.1363  136.5275  155.9889 N   0  0  0  0  0  0  0  0  0  0  0  0
  157.8543  136.6335  154.8499 C   0  0  0  0  0  0  0  0  0  0  0  0
  157.4652  137.4951  153.8045 C   0  0  0  0  0  0  0  0  0  0  0  0
  156.2858  138.2373  154.0160 C   0  0  0  0  0  0  0  0  0  0  0  0
  155.5705  138.1266  155.1563 N   0  0  0  0  0  0  0  0  0  0  0  0
  155.6353  136.3058  162.6959 C   0  0  0  0  0  0  0  0  0  0  0  0
  155.8791  135.2196  163.5590 C   0  0  0  0  0  0  0  0  0  0  0  0
  157.3861  134.3819  163.4514 Cl  0  0  0  0  0  0  0  0  0  0  0  0
  151.3142  142.3039  161.0466 H   0  0  0  0  0  0  0  0  0  0  0  0
  154.5580  132.2229  166.5274 H   0  0  0  0  0  0  0  0  0  0  0  0
  153.5065  132.5676  165.1597 H   0  0  0  0  0  0  0  0  0  0  0  0
  153.5488  133.6638  166.5625 H   0  0  0  0  0  0  0  0  0  0  0  0
  152.9072  135.2581  165.2654 H   0  0  0  0  0  0  0  0  0  0  0  0
  152.4992  137.1414  163.7553 H   0  0  0  0  0  0  0  0  0  0  0  0
  153.3906  138.8115  162.2824 H   0  0  0  0  0  0  0  0  0  0  0  0
  155.0599  138.7758  161.7424 H   0  0  0  0  0  0  0  0  0  0  0  0
  153.8292  136.7949  160.2361 H   0  0  0  0  0  0  0  0  0  0  0  0
  153.6021  143.6993  158.2999 H   0  0  0  0  0  0  0  0  0  0  0  0
  152.0866  143.0714  157.6448 H   0  0  0  0  0  0  0  0  0  0  0  0
  152.0900  145.4709  158.9285 H   0  0  0  0  0  0  0  0  0  0  0  0
  150.7583  144.3319  159.1460 H   0  0  0  0  0  0  0  0  0  0  0  0
  153.1600  144.7115  160.9522 H   0  0  0  0  0  0  0  0  0  0  0  0
  151.4650  144.6636  161.4355 H   0  0  0  0  0  0  0  0  0  0  0  0
  153.2370  141.1916  162.1265 H   0  0  0  0  0  0  0  0  0  0  0  0
  154.3090  142.5097  161.6994 H   0  0  0  0  0  0  0  0  0  0  0  0
  152.4136  143.6590  162.9878 H   0  0  0  0  0  0  0  0  0  0  0  0
  151.9572  139.1605  156.4533 H   0  0  0  0  0  0  0  0  0  0  0  0
  155.1243  138.1201  157.8181 H   0  0  0  0  0  0  0  0  0  0  0  0
  155.7674  136.5390  158.0785 H   0  0  0  0  0  0  0  0  0  0  0  0
  158.7443  136.0269  154.7718 H   0  0  0  0  0  0  0  0  0  0  0  0
  158.0376  137.5815  152.8932 H   0  0  0  0  0  0  0  0  0  0  0  0
  155.9151  138.9222  153.2678 H   0  0  0  0  0  0  0  0  0  0  0  0
  156.3889  136.5984  161.9794 H   0  0  0  0  0  0  0  0  0  0  0  0
  153.4910  140.2631  160.8752 H   0  0  0  0  0  0  0  0  0  0  0  0
  1  2  1  0  0  0  0
  1 36  1  0  0  0  0
  1 37  1  0  0  0  0
  1 38  1  0  0  0  0
  2  3  1  0  0  0  0
  3 33  1  0  0  0  0
  3  4  2  0  0  0  0
  4  5  1  0  0  0  0
  4 39  1  0  0  0  0
  5  6  2  0  0  0  0
  5 40  1  0  0  0  0
  6  7  1  0  0  0  0
  6 32  1  0  0  0  0
  7  8  1  0  0  0  0
  7 41  1  0  0  0  0
  7 42  1  0  0  0  0
  8  9  1  0  0  0  0
  8 43  1  0  0  0  0
  9 21  1  0  0  0  0
  9 10  2  0  0  0  0
 10 11  1  0  0  0  0
 10 60  1  0  0  0  0
 11 12  1  0  0  0  0
 11 19  2  0  0  0  0
 12 16  1  0  0  0  0
 12 13  1  0  0  0  0
 13 14  1  0  0  0  0
 13 44  1  0  0  0  0
 13 45  1  0  0  0  0
 14 15  1  0  0  0  0
 14 46  1  0  0  0  0
 14 47  1  0  0  0  0
 15 16  1  0  0  0  0
 15 48  1  0  0  0  0
 15 49  1  0  0  0  0
 16 35  1  0  0  0  0
 16 17  1  0  0  0  0
 17 18  1  0  0  0  0
 17 50  1  0  0  0  0
 17 51  1  0  0  0  0
 18 52  1  0  0  0  0
 19 20  1  0  0  0  0
 20 21  2  0  0  0  0
 20 53  1  0  0  0  0
 21 22  1  0  0  0  0
 22 23  2  0  0  0  0
 22 24  1  0  0  0  0
 24 25  1  0  0  0  0
 25 26  1  0  0  0  0
 25 54  1  0  0  0  0
 25 55  1  0  0  0  0
 26 31  1  0  0  0  0
 26 27  2  0  0  0  0
 27 28  1  0  0  0  0
 28 29  2  0  0  0  0
 28 56  1  0  0  0  0
 29 30  1  0  0  0  0
 29 57  1  0  0  0  0
 30 31  2  0  0  0  0
 30 58  1  0  0  0  0
 32 33  2  0  0  0  0
 32 59  1  0  0  0  0
 33 34  1  0  0  0  0
M  CHG  1  10   1
M  CHG  1  24  -1
M  END
> <s_m_source_file>
AV-unprocessed.smi

> <i_m_source_file_index>
45

> <i_lp_mmshare_version>
43012

> <i_f3d_flags>
0

> <s_epik_input>
W0NIM11PYzFbY0hdW2NIXWMoW2NIXWMxQ2wpW0NIMl1bTkhdYzJuYyhOM1tDSDJdW0NIMl1bQ0gyXVtDQEhdM1tDSDJdW09IXSluW2NIXWMyQyg9TylbTkhdW0NIMl1jNG5bY0hdW2NIXVtjSF1uNA==

> <s_epik_cmdline>
J2VwaWtfcHl0aG9uJywgJy1waCcsICc3LjAnLCAnLXRuJywgJzgnLCAnLW1hJywgJzIwMCcsICctbWV0YWxfYmluZGluZycsICctaW1hZScsICc8aW5maWxlLm1hZT4nLCAnLW9tYWUnLCAnPG91dGZpbGUubWFlPic=

> <r_lp_tautomer_probability>
0.424989

> <r_epik_Ionization_Penalty>
7.51351

> <r_epik_Ionization_Penalty_Charging>
7.51312

> <r_epik_Ionization_Penalty_Neutral>
0.00038389

> <r_epik_State_Penalty>
8.64696

> <r_epik_Charging_Adjusted_Penalty>
16.1601

> <i_epik_Tot_Q>
0

> <i_epik_Tot_abs_Q>
2

> <r_epik_Metal_State_Penalty>
4.61083

> <b_epik_Metal_Only>
1

> <s_epik_Chemistry_Notes>
This compound contains an electron-poor aromatic ring that is susceptible to covalent hydrolysis at low pH, typically resulting in measured values for nitrogen ring protonation that are around two units higher than predicted values.

> <s_lp_Force_Field>
OPLS_2005

> <r_lp_Energy>
41.8384

> <b_lp_Chiralities_Consistent>
1

> <s_lp_Variant>
AV-unprocessed.smi:45-12

> <Gold.Version>
5.8.1

> <Gold.Id.Protein>
6NUR|6NUR_protein|mol2

> <Gold.PLP.Fitness>
63.5705

> <Gold.PLP.PLP>
-60.1848

> <Gold.PLP.part.hbond>
-3.2013

> <Gold.PLP.part.metal>
0.0000

> <Gold.PLP.part.buried>
-8.3698

> <Gold.PLP.part.nonpolar>
-49.6467

> <Gold.PLP.part.repulsive>
0.2670

> <Gold.PLP.ligand.clash>
0.0000

> <Gold.PLP.ligand.torsion>
3.0205

> <Gold.PLP.Chemscore.Hbond>
2.3839

> <Gold.PLP.Chemscore.CHOScore>
0.0000

> <Gold.PLP.Chemscore.Metal>
0.0000

> <Gold.Chemscore.Hbonds>
donor molecule, donor type, donor heavy atom, donor atom, acceptor molecule, acceptor atom, score
      P1  H  6896  6907       L1    23  0.30
      P1  H  7997  8010       L1    31  0.07
      P1  H 10752 10763       L1    24  1.72

> <Gold.PLP.Chemscore.Internal.Correction>
2.2748

> <Gold.Rescore>
     Score         DG    S(hbond)    S(metal)    S(lipo)     H(rot)  DE(clash)    DE(int)     intcor
     16.27     -20.03       1.02        0.00     158.63       2.90       0.14       3.62       ----

> <Gold.Chemscore.Fitness>
16.2665

> <Gold.Chemscore.DG>
-20.0251

> <Gold.Chemscore.ZeroCoef>
-5.4800

> <Gold.Chemscore.Hbond>
1.0200

> <Gold.Chemscore.Metal>
0.0000

> <Gold.Chemscore.Lipo>
158.6255

> <Gold.Chemscore.Internal_Hbond>
0.0000

> <Gold.Chemscore.DEClash>
0.1414

> <Gold.Chemscore.DEInternal>
3.6172

> <Gold.Chemscore.Rot>
2.8988

> <Gold.Chemscore.Internal.Correction>
   9.000000E+99

> <Gold.Chemscore.Hbonds>
donor molecule, donor type, donor heavy atom, donor atom, acceptor molecule, acceptor atom, score
      P1  H  6896  6907       L1    23  0.29
      P1  H  7997  8010       L1    31  0.01
      P1  H 10752 10763       L1    24  0.70

> <Gold.Chemscore.Hbond.Weighted>
-3.4068

> <Gold.Chemscore.Metal.Weighted>
-0.0000

> <Gold.Chemscore.Lipo.Weighted>
-18.5592

> <Gold.Chemscore.Internal_Hbond.Weighted>
0.0000

> <Gold.Chemscore.DEClash.Weighted>
0.1414

> <Gold.Chemscore.DEInternal.Weighted>
3.6172

> <Gold.Chemscore.Rot.Weighted>
7.4209

> <Gold.Chemscore.Internal.Correction.Weighted>
   9.000000E+99

> <Gold.Protein.RotatedTorsions>
[ 6907 6896 6895 6894 ] final   -7.11 input  -60.11 | X-H torsion
[ 7974 7965 7964 7962 ] final -114.14 input  175.53 | X-H torsion
[ 8008 7997 7996 7995 ] final  161.26 input   59.86 | X-H torsion
[ 10167 10162 10161 10158 ] final  -64.33 input  -65.29 | X-H torsion
[ 10718 10713 10712 10709 ] final   90.91 input   66.30 | X-H torsion
[ 10763 10752 10751 10750 ] final  133.68 input  -60.55 | X-H torsion
[ 11005 11000 10999 10996 ] final  -18.14 input  -57.11 | X-H torsion

> <Gold.Protein.ActiveResidues>
 VAL166  LYS551  ARG553  GLY616  TRP617  ASP618  TYR619  PRO620  LYS621  CYS622 
 ASP623  PHE694  ASN695  SER759  ASP760  ASP761  ALA762  ILE779  LEU786  VAL792 
 PHE793  MET794  SER795  GLU796  ALA797  LYS798  CYS799  TRP800  GLU811  SER814 

> <Gold.Protein.RotatedAtoms>
  151.4548  135.1033  159.9707 H   0  0  0  0  0  0  0  0  0  0  0  0  # atno 6907 bound_to 6896
  152.4875  133.8407  159.7161 H   0  0  0  0  0  0  0  0  0  0  0  0  # atno 6908 bound_to 6896
  150.8997  133.7074  159.2909 H   0  0  0  0  0  0  0  0  0  0  0  0  # atno 6909 bound_to 6896
  145.1237  140.8684  143.3799 H   0  0  0  0  0  0  0  0  0  0  0  0  # atno 7974 bound_to 7965
  156.2115  140.1782  156.7684 H   0  0  0  0  0  0  0  0  0  0  0  0  # atno 8008 bound_to 7997
  154.5729  140.0679  156.9021 H   0  0  0  0  0  0  0  0  0  0  0  0  # atno 8009 bound_to 7997
  155.2639  140.3338  155.4273 H   0  0  0  0  0  0  0  0  0  0  0  0  # atno 8010 bound_to 7997
  140.5808  143.2327  151.6345 H   0  0  0  0  0  0  0  0  0  0  0  0  # atno 10167 bound_to 10162
  157.6960  131.0388  150.3649 H   0  0  0  0  0  0  0  0  0  0  0  0  # atno 10718 bound_to 10713
  153.8111  135.3129  155.3401 H   0  0  0  0  0  0  0  0  0  0  0  0  # atno 10763 bound_to 10752
  154.8051  135.4703  154.0375 H   0  0  0  0  0  0  0  0  0  0  0  0  # atno 10764 bound_to 10752
  153.1753  135.6884  153.8640 H   0  0  0  0  0  0  0  0  0  0  0  0  # atno 10765 bound_to 10752
  140.8238  133.8048  155.9687 H   0  0  0  0  0  0  0  0  0  0  0  0  # atno 11005 bound_to 11000
  145.0712  139.3030  143.5831 LP  0  0  0  0  0  0  0  0  0  0  0  0  # atno 17320 bound_to 7965
  146.3519  140.0188  142.8660 LP  0  0  0  0  0  0  0  0  0  0  0  0  # atno 17321 bound_to 7965
  139.5169  144.3333  152.0807 LP  0  0  0  0  0  0  0  0  0  0  0  0  # atno 17342 bound_to 10162
  140.2483  144.4197  150.6232 LP  0  0  0  0  0  0  0  0  0  0  0  0  # atno 17343 bound_to 10162
  156.4081  130.3929  149.6911 LP  0  0  0  0  0  0  0  0  0  0  0  0  # atno 17370 bound_to 10713
  156.4205  130.7766  151.2783 LP  0  0  0  0  0  0  0  0  0  0  0  0  # atno 17371 bound_to 10713
  140.9071  134.2307  157.5008 LP  0  0  0  0  0  0  0  0  0  0  0  0  # atno 17394 bound_to 11000
  139.8707  134.9733  156.4804 LP  0  0  0  0  0  0  0  0  0  0  0  0  # atno 17395 bound_to 11000

$$$$
