AV-unprocessed.smi:113|AV-procd|sdf|1095|dock8
  -GOLD-   2262018203D 1   1.00000     0.00000
 Structure written by MMmdl.
 52 55  0  0  0  0  0  0  0  0  1 V2000
  152.5467  138.2687  158.6725 C   0  0  0  0  0  0  0  0  0  0  0  0
  152.0778  139.7062  158.7588 C   0  0  0  0  0  0  0  0  0  0  0  0
  150.9541  140.1397  158.0334 C   0  0  0  0  0  0  0  0  0  0  0  0
  150.5514  141.4910  158.1347 C   0  0  0  0  0  0  0  0  0  0  0  0
  149.3336  142.0151  157.3651 C   0  0  0  0  0  0  0  0  0  0  0  0
  148.3588  141.0268  156.9251 N   0  0  0  0  0  0  0  0  0  0  0  0
  147.1354  140.9431  157.6337 C   0  0  0  0  0  0  0  0  0  0  0  0
  146.8998  141.6681  158.6027 O   0  0  0  0  0  0  0  0  0  0  0  0
  146.1822  139.9591  157.1150 C   0  0  0  0  0  0  0  0  0  0  0  0
  144.8407  139.8212  157.8177 C   0  0  0  0  0  0  0  0  0  0  0  0
  146.5081  139.2127  156.0322 C   0  0  0  0  0  0  0  0  0  0  0  0
  147.7161  139.3067  155.3635 N   0  0  0  0  0  0  0  0  0  0  0  0
  147.9524  138.4673  154.1264 C   0  0  2  0  0  0  0  0  0  0  0  0
  148.1227  139.2984  152.8433 C   0  0  0  0  0  0  0  0  0  0  0  0
  146.9841  138.8094  151.9602 C   0  0  1  0  0  0  0  0  0  0  0  0
  147.4014  138.7130  150.6137 O   0  0  0  0  0  0  0  0  0  0  0  0
  146.6367  137.4414  152.5584 C   0  0  2  0  0  0  0  0  0  0  0  0
  145.1851  136.9915  152.3324 C   0  0  0  0  0  0  0  0  0  0  0  0
  144.9487  136.7506  150.9613 O   0  0  0  0  0  0  0  0  0  0  0  0
  146.8574  137.6240  153.9498 O   0  0  0  0  0  0  0  0  0  0  0  0
  148.6733  140.2563  155.7832 C   0  0  0  0  0  0  0  0  0  0  0  0
  149.7285  140.4161  155.1663 O   0  0  0  0  0  0  0  0  0  0  0  0
  151.3114  142.3504  158.9739 C   0  0  0  0  0  0  0  0  0  0  0  0
  150.9751  143.7166  159.1323 C   0  0  0  0  0  0  0  0  0  0  0  0
  151.7397  144.5500  159.9683 C   0  0  0  0  0  0  0  0  0  0  0  0
  152.8485  144.0272  160.6540 C   0  0  0  0  0  0  0  0  0  0  0  0
  153.1900  142.6715  160.5015 C   0  0  0  0  0  0  0  0  0  0  0  0
  152.4368  141.8163  159.6686 C   0  0  0  0  0  0  0  0  0  0  0  0
  152.8005  140.5201  159.5528 N   0  0  0  0  0  0  0  0  0  0  0  0
  151.7347  137.6114  158.3603 H   0  0  0  0  0  0  0  0  0  0  0  0
  152.9105  137.9191  159.6394 H   0  0  0  0  0  0  0  0  0  0  0  0
  153.3566  138.1813  157.9478 H   0  0  0  0  0  0  0  0  0  0  0  0
  150.4211  139.4349  157.4129 H   0  0  0  0  0  0  0  0  0  0  0  0
  148.7985  142.7527  157.9652 H   0  0  0  0  0  0  0  0  0  0  0  0
  149.6562  142.5694  156.4825 H   0  0  0  0  0  0  0  0  0  0  0  0
  144.2156  139.0575  157.3545 H   0  0  0  0  0  0  0  0  0  0  0  0
  144.2946  140.7648  157.7838 H   0  0  0  0  0  0  0  0  0  0  0  0
  144.9839  139.5454  158.8631 H   0  0  0  0  0  0  0  0  0  0  0  0
  145.7778  138.5022  155.6722 H   0  0  0  0  0  0  0  0  0  0  0  0
  148.8362  137.8622  154.3313 H   0  0  0  0  0  0  0  0  0  0  0  0
  148.0864  140.3720  153.0317 H   0  0  0  0  0  0  0  0  0  0  0  0
  149.0975  139.0598  152.4153 H   0  0  0  0  0  0  0  0  0  0  0  0
  146.1348  139.4892  152.0333 H   0  0  0  0  0  0  0  0  0  0  0  0
  146.6331  138.6266  150.0694 H   0  0  0  0  0  0  0  0  0  0  0  0
  147.3378  136.6802  152.2099 H   0  0  0  0  0  0  0  0  0  0  0  0
  144.9907  136.0688  152.8798 H   0  0  0  0  0  0  0  0  0  0  0  0
  144.4820  137.7391  152.7013 H   0  0  0  0  0  0  0  0  0  0  0  0
  144.8249  137.5810  150.5275 H   0  0  0  0  0  0  0  0  0  0  0  0
  150.1298  144.1501  158.6197 H   0  0  0  0  0  0  0  0  0  0  0  0
  151.4748  145.5908  160.0831 H   0  0  0  0  0  0  0  0  0  0  0  0
  153.4375  144.6645  161.2971 H   0  0  0  0  0  0  0  0  0  0  0  0
  154.0450  142.2811  161.0340 H   0  0  0  0  0  0  0  0  0  0  0  0
  1  2  1  0  0  0  0
  1 30  1  0  0  0  0
  1 31  1  0  0  0  0
  1 32  1  0  0  0  0
  2 29  1  0  0  0  0
  2  3  2  0  0  0  0
  3  4  1  0  0  0  0
  3 33  1  0  0  0  0
  4  5  1  0  0  0  0
  4 23  2  0  0  0  0
  5  6  1  0  0  0  0
  5 34  1  0  0  0  0
  5 35  1  0  0  0  0
  6 21  1  0  0  0  0
  6  7  1  0  0  0  0
  7  8  2  0  0  0  0
  7  9  1  0  0  0  0
  9 10  1  0  0  0  0
  9 11  2  0  0  0  0
 10 36  1  0  0  0  0
 10 37  1  0  0  0  0
 10 38  1  0  0  0  0
 11 12  1  0  0  0  0
 11 39  1  0  0  0  0
 12 13  1  0  0  0  0
 12 21  1  0  0  0  0
 13 20  1  0  0  0  0
 13 14  1  0  0  0  0
 13 40  1  0  0  0  0
 14 15  1  0  0  0  0
 14 41  1  0  0  0  0
 14 42  1  0  0  0  0
 15 16  1  0  0  0  0
 15 17  1  0  0  0  0
 15 43  1  0  0  0  0
 16 44  1  0  0  0  0
 17 18  1  0  0  0  0
 17 20  1  0  0  0  0
 17 45  1  0  0  0  0
 18 19  1  0  0  0  0
 18 46  1  0  0  0  0
 18 47  1  0  0  0  0
 19 48  1  0  0  0  0
 21 22  2  0  0  0  0
 23 28  1  0  0  0  0
 23 24  1  0  0  0  0
 24 25  2  0  0  0  0
 24 49  1  0  0  0  0
 25 26  1  0  0  0  0
 25 50  1  0  0  0  0
 26 27  2  0  0  0  0
 26 51  1  0  0  0  0
 27 28  1  0  0  0  0
 27 52  1  0  0  0  0
 28 29  2  0  0  0  0
M  END
> <s_m_source_file>
AV-unprocessed.smi

> <i_m_source_file_index>
113

> <i_lp_mmshare_version>
43012

> <i_f3d_flags>
0

> <s_epik_input>
W2NIXTFbY0hdW2NIXVtjSF1jKGMxMiluYyhbQ0gzXSlbY0hdYzJbQ0gyXW4zYyg9TyljKFtDSDNdKVtjSF1uKGMzPU8pW0NAQEhdNFtDSDJdW0NAQEhdKFtPSF0pW0NASF0oTzQpW0NIMl1bT0hd

> <s_epik_cmdline>
J2VwaWtfcHl0aG9uJywgJy1waCcsICc3LjAnLCAnLXRuJywgJzgnLCAnLW1hJywgJzIwMCcsICctbWV0YWxfYmluZGluZycsICctaW1hZScsICc8aW5maWxlLm1hZT4nLCAnLW9tYWUnLCAnPG91dGZpbGUubWFlPic=

> <r_lp_tautomer_probability>
1

> <r_epik_Ionization_Penalty>
0.214728

> <r_epik_Ionization_Penalty_Charging>
3.04883e-08

> <r_epik_Ionization_Penalty_Neutral>
0.214728

> <r_epik_State_Penalty>
0.204913

> <r_epik_Charging_Adjusted_Penalty>
0.204913

> <i_epik_Tot_Q>
0

> <i_epik_Tot_abs_Q>
0

> <r_epik_Metal_State_Penalty>
0.000244761

> <b_epik_Metal_Only>
0

> <s_epik_Chemistry_Notes>
This compound contains an acetal/aminal-like group ( X-CH(R)-Y where X, Y are N, S, or O) that may be acid/base labile, releasing an aldehyde.

> <s_lp_Force_Field>
OPLS_2005

> <r_lp_Energy>
32.9041

> <b_lp_Chiralities_Consistent>
1

> <s_lp_Variant>
AV-unprocessed.smi:113-5

> <Gold.Version>
5.8.1

> <Gold.Id.Protein>
6NUR|6NUR_protein|mol2

> <Gold.PLP.Fitness>
48.1456

> <Gold.PLP.PLP>
-39.1097

> <Gold.PLP.part.hbond>
-4.2277

> <Gold.PLP.part.metal>
0.0000

> <Gold.PLP.part.buried>
-6.5962

> <Gold.PLP.part.nonpolar>
-29.6740

> <Gold.PLP.part.repulsive>
0.1804

> <Gold.PLP.ligand.clash>
0.0000

> <Gold.PLP.ligand.torsion>
0.5492

> <Gold.PLP.Chemscore.Hbond>
3.3650

> <Gold.PLP.Chemscore.CHOScore>
0.0000

> <Gold.PLP.Chemscore.Metal>
0.0000

> <Gold.Chemscore.Hbonds>
donor molecule, donor type, donor heavy atom, donor atom, acceptor molecule, acceptor atom, score
      L1  H    19    48       P1 10171  0.98
      P1  H  6934  6946       L1     8  0.25
      P1  H  7954  7966       L1    16  0.30

> <Gold.PLP.Chemscore.Internal.Correction>
0.0391

> <Gold.Rescore>
     Score         DG    S(hbond)    S(metal)    S(lipo)     H(rot)  DE(clash)    DE(int)     intcor
     20.59     -21.78       3.36        0.00     107.95       2.95       0.60       0.60       ----

> <Gold.Chemscore.Fitness>
20.5852

> <Gold.Chemscore.DG>
-21.7843

> <Gold.Chemscore.ZeroCoef>
-5.4800

> <Gold.Chemscore.Hbond>
3.3587

> <Gold.Chemscore.Metal>
0.0000

> <Gold.Chemscore.Lipo>
107.9513

> <Gold.Chemscore.Internal_Hbond>
0.0000

> <Gold.Chemscore.DEClash>
0.6031

> <Gold.Chemscore.DEInternal>
0.5960

> <Gold.Chemscore.Rot>
2.9469

> <Gold.Chemscore.Internal.Correction>
   9.000000E+99

> <Gold.Chemscore.Hbonds>
donor molecule, donor type, donor heavy atom, donor atom, acceptor molecule, acceptor atom, score
      L1  H    19    48       P1 10171  0.90
      P1  H  6934  6946       L1     8  0.24
      P1  H  7954  7966       L1    16  0.04

> <Gold.Chemscore.Hbond.Weighted>
-11.2180

> <Gold.Chemscore.Metal.Weighted>
-0.0000

> <Gold.Chemscore.Lipo.Weighted>
-12.6303

> <Gold.Chemscore.Internal_Hbond.Weighted>
0.0000

> <Gold.Chemscore.DEClash.Weighted>
0.6031

> <Gold.Chemscore.DEInternal.Weighted>
0.5960

> <Gold.Chemscore.Rot.Weighted>
7.5439

> <Gold.Chemscore.Internal.Correction.Weighted>
   9.000000E+99

> <Gold.Protein.RotatedTorsions>
[ 6907 6896 6895 6894 ] final  -88.93 input  -60.11 | X-H torsion
[ 7974 7965 7964 7962 ] final  154.45 input  175.53 | X-H torsion
[ 8008 7997 7996 7995 ] final  -31.16 input   59.86 | X-H torsion
[ 10167 10162 10161 10158 ] final  -68.99 input  -65.29 | X-H torsion
[ 10718 10713 10712 10709 ] final  -89.34 input   66.30 | X-H torsion
[ 10763 10752 10751 10750 ] final   59.49 input  -60.55 | X-H torsion
[ 11005 11000 10999 10996 ] final   91.41 input  -57.11 | X-H torsion

> <Gold.Protein.ActiveResidues>
 VAL166  LYS551  ARG553  GLY616  TRP617  ASP618  TYR619  PRO620  LYS621  CYS622 
 ASP623  PHE694  ASN695  SER759  ASP760  ASP761  ALA762  ILE779  LEU786  VAL792 
 PHE793  MET794  SER795  GLU796  ALA797  LYS798  CYS799  TRP800  GLU811  SER814 

> <Gold.Protein.RotatedAtoms>
  150.6871  134.2666  159.4570 H   0  0  0  0  0  0  0  0  0  0  0  0  # atno 6907 bound_to 6896
  152.0592  134.9603  160.0584 H   0  0  0  0  0  0  0  0  0  0  0  0  # atno 6908 bound_to 6896
  152.1036  133.4228  159.4635 H   0  0  0  0  0  0  0  0  0  0  0  0  # atno 6909 bound_to 6896
  144.8088  139.6935  143.6150 H   0  0  0  0  0  0  0  0  0  0  0  0  # atno 7974 bound_to 7965
  154.4223  140.1772  156.1523 H   0  0  0  0  0  0  0  0  0  0  0  0  # atno 8008 bound_to 7997
  155.9905  140.3369  155.6724 H   0  0  0  0  0  0  0  0  0  0  0  0  # atno 8009 bound_to 7997
  155.6379  140.0677  157.2619 H   0  0  0  0  0  0  0  0  0  0  0  0  # atno 8010 bound_to 7997
  140.5465  143.2313  151.6992 H   0  0  0  0  0  0  0  0  0  0  0  0  # atno 10167 bound_to 10162
  155.9984  130.4869  150.5156 H   0  0  0  0  0  0  0  0  0  0  0  0  # atno 10718 bound_to 10713
  152.9896  135.5569  154.5722 H   0  0  0  0  0  0  0  0  0  0  0  0  # atno 10763 bound_to 10752
  154.5120  135.2803  155.1336 H   0  0  0  0  0  0  0  0  0  0  0  0  # atno 10764 bound_to 10752
  154.2724  135.6360  153.5368 H   0  0  0  0  0  0  0  0  0  0  0  0  # atno 10765 bound_to 10752
  139.8839  134.8672  156.3424 H   0  0  0  0  0  0  0  0  0  0  0  0  # atno 11005 bound_to 11000
  146.2384  139.5951  142.9508 LP  0  0  0  0  0  0  0  0  0  0  0  0  # atno 17320 bound_to 7965
  145.5373  141.0423  143.2350 LP  0  0  0  0  0  0  0  0  0  0  0  0  # atno 17321 bound_to 7965
  139.5009  144.3887  152.0302 LP  0  0  0  0  0  0  0  0  0  0  0  0  # atno 17342 bound_to 10162
  140.3000  144.3657  150.6063 LP  0  0  0  0  0  0  0  0  0  0  0  0  # atno 17343 bound_to 10162
  157.3124  131.0666  151.1991 LP  0  0  0  0  0  0  0  0  0  0  0  0  # atno 17370 bound_to 10713
  157.2933  130.6807  149.6125 LP  0  0  0  0  0  0  0  0  0  0  0  0  # atno 17371 bound_to 10713
  140.9649  133.7364  156.0453 LP  0  0  0  0  0  0  0  0  0  0  0  0  # atno 17394 bound_to 11000
  140.7943  134.3582  157.5456 LP  0  0  0  0  0  0  0  0  0  0  0  0  # atno 17395 bound_to 11000

$$$$
