AV-unprocessed.smi:3209|AV-procd|sdf|12268|dock1
  -GOLD-   2272018103D 1   1.00000     0.00000
 Structure written by MMmdl.
 37 39  0  0  0  0  0  0  0  0  2 V2000
  151.9413  145.2483  160.0505 C   0  0  0  0  0  0  0  0  0  0  0  0
  152.0712  143.7882  159.7829 C   0  0  0  0  0  0  0  0  0  0  0  0
  151.6376  143.2023  158.6637 N   0  0  0  0  0  0  0  0  0  0  0  0
  151.8731  141.8240  158.6514 C   0  0  0  0  0  0  0  0  0  0  0  0
  151.4490  141.0059  157.4699 C   0  0  0  0  0  0  0  0  0  0  0  0
  150.7571  141.8555  156.3954 C   0  0  0  0  0  0  0  0  0  0  0  0
  149.2881  141.7940  156.5350 N   0  3  0  0  0  0  0  0  0  0  0  0
  148.6177  140.8728  155.5916 C   0  0  2  0  0  0  0  0  0  0  0  0
  148.8678  141.1986  154.1026 C   0  0  0  0  0  0  0  0  0  0  0  0
  147.4401  141.2541  153.5246 C   0  0  2  0  0  0  0  0  0  0  0  0
  146.7754  142.5700  153.9652 C   0  0  0  0  0  0  0  0  0  0  0  0
  146.5248  142.3327  155.4656 C   0  0  0  0  0  0  0  0  0  0  0  0
  147.0771  140.9076  155.6896 C   0  0  1  0  0  0  0  0  0  0  0  0
  146.6961  140.2301  154.3770 C   0  0  0  0  0  0  0  0  0  0  0  0
  152.4953  141.3711  159.7881 C   0  0  0  0  0  0  0  0  0  0  0  0
  152.8076  142.6616  160.9160 S   0  0  0  0  0  0  0  0  0  0  0  0
  151.9477  145.8092  159.1154 H   0  0  0  0  0  0  0  0  0  0  0  0
  152.7711  145.5922  160.6680 H   0  0  0  0  0  0  0  0  0  0  0  0
  151.0068  145.4489  160.5748 H   0  0  0  0  0  0  0  0  0  0  0  0
  152.3166  140.5059  157.0370 H   0  0  0  0  0  0  0  0  0  0  0  0
  150.7757  140.2107  157.7927 H   0  0  0  0  0  0  0  0  0  0  0  0
  151.0897  142.8914  156.4724 H   0  0  0  0  0  0  0  0  0  0  0  0
  151.0363  141.5003  155.4026 H   0  0  0  0  0  0  0  0  0  0  0  0
  149.0807  141.4839  157.4738 H   0  0  0  0  0  0  0  0  0  0  0  0
  148.9546  139.8566  155.8047 H   0  0  0  0  0  0  0  0  0  0  0  0
  149.4019  142.1372  153.9479 H   0  0  0  0  0  0  0  0  0  0  0  0
  149.4497  140.4048  153.6325 H   0  0  0  0  0  0  0  0  0  0  0  0
  147.3948  141.0813  152.4489 H   0  0  0  0  0  0  0  0  0  0  0  0
  147.4074  143.4392  153.7789 H   0  0  0  0  0  0  0  0  0  0  0  0
  145.8323  142.7244  153.4392 H   0  0  0  0  0  0  0  0  0  0  0  0
  147.0054  143.0832  156.0931 H   0  0  0  0  0  0  0  0  0  0  0  0
  145.4557  142.3663  155.6790 H   0  0  0  0  0  0  0  0  0  0  0  0
  146.6848  140.4218  156.5838 H   0  0  0  0  0  0  0  0  0  0  0  0
  145.6202  140.2140  154.1930 H   0  0  0  0  0  0  0  0  0  0  0  0
  147.0900  139.2168  154.2780 H   0  0  0  0  0  0  0  0  0  0  0  0
  152.7890  140.3606  160.0312 H   0  0  0  0  0  0  0  0  0  0  0  0
  148.9045  142.7199  156.4099 H   0  0  0  0  0  0  0  0  0  0  0  0
  1  2  1  0  0  0  0
  1 17  1  0  0  0  0
  1 18  1  0  0  0  0
  1 19  1  0  0  0  0
  2 16  1  0  0  0  0
  2  3  2  0  0  0  0
  3  4  1  0  0  0  0
  4  5  1  0  0  0  0
  4 15  2  0  0  0  0
  5  6  1  0  0  0  0
  5 20  1  0  0  0  0
  5 21  1  0  0  0  0
  6  7  1  0  0  0  0
  6 22  1  0  0  0  0
  6 23  1  0  0  0  0
  7  8  1  0  0  0  0
  7 24  1  0  0  0  0
  7 37  1  0  0  0  0
  8 13  1  0  0  0  0
  8  9  1  0  0  0  0
  8 25  1  0  0  0  0
  9 10  1  0  0  0  0
  9 26  1  0  0  0  0
  9 27  1  0  0  0  0
 10 14  1  0  0  0  0
 10 11  1  0  0  0  0
 10 28  1  0  0  0  0
 11 12  1  0  0  0  0
 11 29  1  0  0  0  0
 11 30  1  0  0  0  0
 12 13  1  0  0  0  0
 12 31  1  0  0  0  0
 12 32  1  0  0  0  0
 13 14  1  0  0  0  0
 13 33  1  0  0  0  0
 14 34  1  0  0  0  0
 14 35  1  0  0  0  0
 15 16  1  0  0  0  0
 15 36  1  0  0  0  0
M  CHG  1   7   1
M  END
> <s_m_source_file>
AV-unprocessed.smi

> <i_m_source_file_index>
3209

> <i_lp_mmshare_version>
43012

> <i_f3d_flags>
0

> <s_epik_input>
W0NIM11jMW5jKFtjSF1zMSlbQ0gyXVtDSDJdW05IXVtDQEhdKFtDSDJdW0NASF0yMylbQ0BIXShbQ0gyXTMpW0NIMl1bQ0gyXTI=

> <s_epik_cmdline>
J2VwaWtfcHl0aG9uJywgJy1waCcsICc3LjAnLCAnLXRuJywgJzgnLCAnLW1hJywgJzIwMCcsICctbWV0YWxfYmluZGluZycsICctaW1hZScsICc8aW5maWxlLm1hZT4nLCAnLW9tYWUnLCAnPG91dGZpbGUubWFlPic=

> <r_lp_tautomer_probability>
1

> <r_epik_Ionization_Penalty>
0.000342479

> <r_epik_Ionization_Penalty_Charging>
0.000317129

> <r_epik_Ionization_Penalty_Neutral>
2.535e-05

> <r_epik_State_Penalty>
-0

> <r_epik_Charging_Adjusted_Penalty>
0.000317129

> <i_epik_Tot_Q>
1

> <i_epik_Tot_abs_Q>
1

> <r_epik_Metal_State_Penalty>
-0

> <b_epik_Metal_Only>
0

> <s_lp_Force_Field>
OPLS_2005

> <r_lp_Energy>
49.3093

> <b_lp_Chiralities_Consistent>
1

> <s_lp_Variant>
AV-unprocessed.smi:3209-1

> <Gold.Version>
5.8.1

> <Gold.Id.Protein>
6NUR|6NUR_protein|mol2

> <Gold.PLP.Fitness>
43.0330

> <Gold.PLP.PLP>
-38.0794

> <Gold.PLP.part.hbond>
-1.0000

> <Gold.PLP.part.metal>
0.0000

> <Gold.PLP.part.buried>
-5.1173

> <Gold.PLP.part.nonpolar>
-32.1494

> <Gold.PLP.part.repulsive>
0.0927

> <Gold.PLP.ligand.clash>
0.0000

> <Gold.PLP.ligand.torsion>
0.5396

> <Gold.PLP.Chemscore.Hbond>
2.0000

> <Gold.PLP.Chemscore.CHOScore>
0.0000

> <Gold.PLP.Chemscore.Metal>
0.0000

> <Gold.Chemscore.Hbonds>
donor molecule, donor type, donor heavy atom, donor atom, acceptor molecule, acceptor atom, score
      L1  H     7    37       P1  8028  1.50

> <Gold.PLP.Chemscore.Internal.Correction>
0.0327

> <Gold.Rescore>
     Score         DG    S(hbond)    S(metal)    S(lipo)     H(rot)  DE(clash)    DE(int)     intcor
     17.67     -18.23       0.98        0.00     109.55       1.31       0.01       0.54       ----

> <Gold.Chemscore.Fitness>
17.6749

> <Gold.Chemscore.DG>
-18.2277

> <Gold.Chemscore.ZeroCoef>
-5.4800

> <Gold.Chemscore.Hbond>
0.9840

> <Gold.Chemscore.Metal>
0.0000

> <Gold.Chemscore.Lipo>
109.5460

> <Gold.Chemscore.Internal_Hbond>
0.0000

> <Gold.Chemscore.DEClash>
0.0110

> <Gold.Chemscore.DEInternal>
0.5418

> <Gold.Chemscore.Rot>
1.3108

> <Gold.Chemscore.Internal.Correction>
   9.000000E+99

> <Gold.Chemscore.Hbonds>
donor molecule, donor type, donor heavy atom, donor atom, acceptor molecule, acceptor atom, score
      L1  H     7    37       P1  8028  0.73

> <Gold.Chemscore.Hbond.Weighted>
-3.2866

> <Gold.Chemscore.Metal.Weighted>
-0.0000

> <Gold.Chemscore.Lipo.Weighted>
-12.8169

> <Gold.Chemscore.Internal_Hbond.Weighted>
0.0000

> <Gold.Chemscore.DEClash.Weighted>
0.0110

> <Gold.Chemscore.DEInternal.Weighted>
0.5418

> <Gold.Chemscore.Rot.Weighted>
3.3558

> <Gold.Chemscore.Internal.Correction.Weighted>
   9.000000E+99

> <Gold.Protein.RotatedTorsions>
[ 6907 6896 6895 6894 ] final  -50.13 input  -60.11 | X-H torsion
[ 7974 7965 7964 7962 ] final  106.90 input  175.53 | X-H torsion
[ 8008 7997 7996 7995 ] final  -24.34 input   59.86 | X-H torsion
[ 10167 10162 10161 10158 ] final   -1.31 input  -65.29 | X-H torsion
[ 10718 10713 10712 10709 ] final  -41.10 input   66.30 | X-H torsion
[ 10763 10752 10751 10750 ] final   75.48 input  -60.55 | X-H torsion
[ 11005 11000 10999 10996 ] final  113.96 input  -57.11 | X-H torsion

> <Gold.Protein.ActiveResidues>
 VAL166  LYS551  ARG553  GLY616  TRP617  ASP618  TYR619  PRO620  LYS621  CYS622 
 ASP623  PHE694  ASN695  SER759  ASP760  ASP761  ALA762  ILE779  LEU786  VAL792 
 PHE793  MET794  SER795  GLU796  ALA797  LYS798  CYS799  TRP800  GLU811  SER814 

> <Gold.Protein.RotatedAtoms>
  150.8737  134.8116  159.7173 H   0  0  0  0  0  0  0  0  0  0  0  0  # atno 6907 bound_to 6896
  152.4732  134.4906  159.9704 H   0  0  0  0  0  0  0  0  0  0  0  0  # atno 6908 bound_to 6896
  151.4991  133.3470  159.2901 H   0  0  0  0  0  0  0  0  0  0  0  0  # atno 6909 bound_to 6896
  145.3006  139.2571  143.3816 H   0  0  0  0  0  0  0  0  0  0  0  0  # atno 7974 bound_to 7965
  154.4535  140.1956  156.0449 H   0  0  0  0  0  0  0  0  0  0  0  0  # atno 8008 bound_to 7997
  156.0697  140.3286  155.7533 H   0  0  0  0  0  0  0  0  0  0  0  0  # atno 8009 bound_to 7997
  155.5282  140.0575  157.2884 H   0  0  0  0  0  0  0  0  0  0  0  0  # atno 8010 bound_to 7997
  140.6805  143.6790  150.8121 H   0  0  0  0  0  0  0  0  0  0  0  0  # atno 10167 bound_to 10162
  156.2740  130.4210  149.8407 H   0  0  0  0  0  0  0  0  0  0  0  0  # atno 10718 bound_to 10713
  153.0657  135.4987  154.8195 H   0  0  0  0  0  0  0  0  0  0  0  0  # atno 10763 bound_to 10752
  154.6950  135.2991  154.9427 H   0  0  0  0  0  0  0  0  0  0  0  0  # atno 10764 bound_to 10752
  154.0169  135.6747  153.4822 H   0  0  0  0  0  0  0  0  0  0  0  0  # atno 10765 bound_to 10752
  139.8967  134.9559  156.6819 H   0  0  0  0  0  0  0  0  0  0  0  0  # atno 11005 bound_to 11000
  146.3153  140.3519  142.8657 LP  0  0  0  0  0  0  0  0  0  0  0  0  # atno 17320 bound_to 7965
  144.9097  140.7742  143.5815 LP  0  0  0  0  0  0  0  0  0  0  0  0  # atno 17321 bound_to 7965
  140.0490  143.5269  152.2683 LP  0  0  0  0  0  0  0  0  0  0  0  0  # atno 17342 bound_to 10162
  139.6124  144.7612  151.2922 LP  0  0  0  0  0  0  0  0  0  0  0  0  # atno 17343 bound_to 10162
  156.5878  130.8493  151.3400 LP  0  0  0  0  0  0  0  0  0  0  0  0  # atno 17370 bound_to 10713
  157.7293  130.9669  150.1782 LP  0  0  0  0  0  0  0  0  0  0  0  0  # atno 17371 bound_to 10713
  140.7292  133.9073  155.8200 LP  0  0  0  0  0  0  0  0  0  0  0  0  # atno 17394 bound_to 11000
  141.0166  134.0946  157.4165 LP  0  0  0  0  0  0  0  0  0  0  0  0  # atno 17395 bound_to 11000

$$$$
