AV-unprocessed.smi:261|AV-procd|sdf|1988|dock7
  -GOLD-   2262021173D 1   1.00000     0.00000
 Structure written by MMmdl.
 51 54  0  0  0  0  0  0  0  0  1 V2000
  145.1129  131.9944  151.5502 C   0  0  0  0  0  0  0  0  0  0  0  0
  144.9293  133.2768  150.9731 O   0  0  0  0  0  0  0  0  0  0  0  0
  144.4085  134.2374  151.8803 C   0  0  2  0  0  0  0  0  0  0  0  0
  143.9931  135.5497  151.2084 C   0  0  0  0  0  0  0  0  0  0  0  0
  144.0840  136.5978  152.3303 C   0  0  1  0  0  0  0  0  0  0  0  0
  142.7480  136.7517  153.0790 C   0  0  0  0  0  0  0  0  0  0  0  0
  142.2140  137.9749  153.1076 N   0  0  0  0  0  0  0  0  0  0  0  0
  142.1984  135.7876  153.6101 O   0  0  0  0  0  0  0  0  0  0  0  0
  145.1415  136.0718  153.1976 N   0  0  0  0  0  0  0  0  0  0  0  0
  145.8787  136.8467  154.0405 C   0  0  0  0  0  0  0  0  0  0  0  0
  146.0399  136.4302  155.3251 N   0  0  0  0  0  0  0  0  0  0  0  0
  146.7555  137.1491  156.1935 C   0  0  0  0  0  0  0  0  0  0  0  0
  147.3903  138.3039  155.9944 N   0  0  0  0  0  0  0  0  0  0  0  0
  147.2359  138.7345  154.7106 C   0  0  0  0  0  0  0  0  0  0  0  0
  146.5059  138.0774  153.6770 C   0  0  0  0  0  0  0  0  0  0  0  0
  146.5853  138.8296  152.5087 N   0  0  0  0  0  0  0  0  0  0  0  0
  147.3124  139.8629  152.8319 C   0  0  0  0  0  0  0  0  0  0  0  0
  147.7402  139.8883  154.1383 N   0  0  0  0  0  0  0  0  0  0  0  0
  148.5514  140.9135  154.7696 C   0  0  0  0  0  0  0  0  0  0  0  0
  149.8071  140.3501  155.4688 C   0  0  1  0  0  0  0  0  0  0  0  0
  150.6907  139.9143  154.4551 O   0  0  0  0  0  0  0  0  0  0  0  0
  150.5400  141.3619  156.3778 C   0  0  2  0  0  0  0  0  0  0  0  0
  151.6685  140.7595  157.2170 C   0  0  0  0  0  0  0  0  0  0  0  0
  151.8111  141.7342  158.3741 C   0  0  0  0  0  0  0  0  0  0  0  0
  150.4862  142.5004  158.3752 C   0  0  0  0  0  0  0  0  0  0  0  0
  149.6830  141.8578  157.3956 O   0  0  0  0  0  0  0  0  0  0  0  0
  145.4864  134.6964  152.8634 C   0  0  0  0  0  0  0  0  0  0  0  0
  143.5691  133.8231  152.4422 H   0  0  0  0  0  0  0  0  0  0  0  0
  144.3736  137.5582  151.9000 H   0  0  0  0  0  0  0  0  0  0  0  0
  145.5538  131.3235  150.8130 H   0  0  0  0  0  0  0  0  0  0  0  0
  144.1658  131.5597  151.8705 H   0  0  0  0  0  0  0  0  0  0  0  0
  145.7860  132.0391  152.4072 H   0  0  0  0  0  0  0  0  0  0  0  0
  144.7062  135.8011  150.4218 H   0  0  0  0  0  0  0  0  0  0  0  0
  143.0067  135.4925  150.7462 H   0  0  0  0  0  0  0  0  0  0  0  0
  141.3356  138.1304  153.5802 H   0  0  0  0  0  0  0  0  0  0  0  0
  142.6896  138.7391  152.6504 H   0  0  0  0  0  0  0  0  0  0  0  0
  146.8295  136.7403  157.1903 H   0  0  0  0  0  0  0  0  0  0  0  0
  147.5507  140.6428  152.1236 H   0  0  0  0  0  0  0  0  0  0  0  0
  148.8381  141.6351  154.0035 H   0  0  0  0  0  0  0  0  0  0  0  0
  147.9291  141.4511  155.4865 H   0  0  0  0  0  0  0  0  0  0  0  0
  149.5318  139.4746  156.0580 H   0  0  0  0  0  0  0  0  0  0  0  0
  150.6485  138.9717  154.4051 H   0  0  0  0  0  0  0  0  0  0  0  0
  150.9205  142.1992  155.7895 H   0  0  0  0  0  0  0  0  0  0  0  0
  151.3709  139.7815  157.5981 H   0  0  0  0  0  0  0  0  0  0  0  0
  152.5940  140.6337  156.6546 H   0  0  0  0  0  0  0  0  0  0  0  0
  151.9824  141.2092  159.3146 H   0  0  0  0  0  0  0  0  0  0  0  0
  152.6453  142.4180  158.2133 H   0  0  0  0  0  0  0  0  0  0  0  0
  149.9947  142.4858  159.3482 H   0  0  0  0  0  0  0  0  0  0  0  0
  150.6427  143.5407  158.0872 H   0  0  0  0  0  0  0  0  0  0  0  0
  145.5081  134.0528  153.7431 H   0  0  0  0  0  0  0  0  0  0  0  0
  146.4710  134.6812  152.3934 H   0  0  0  0  0  0  0  0  0  0  0  0
  1  2  1  0  0  0  0
  1 30  1  0  0  0  0
  1 31  1  0  0  0  0
  1 32  1  0  0  0  0
  2  3  1  0  0  0  0
  3 28  1  0  0  0  0
  3 27  1  0  0  0  0
  3  4  1  0  0  0  0
  4  5  1  0  0  0  0
  4 33  1  0  0  0  0
  4 34  1  0  0  0  0
  5 29  1  0  0  0  0
  5  6  1  0  0  0  0
  5  9  1  0  0  0  0
  6  7  1  0  0  0  0
  6  8  2  0  0  0  0
  7 35  1  0  0  0  0
  7 36  1  0  0  0  0
  9 10  1  0  0  0  0
  9 27  1  0  0  0  0
 10 15  1  0  0  0  0
 10 11  2  0  0  0  0
 11 12  1  0  0  0  0
 12 13  2  0  0  0  0
 12 37  1  0  0  0  0
 13 14  1  0  0  0  0
 14 18  1  0  0  0  0
 14 15  2  0  0  0  0
 15 16  1  0  0  0  0
 16 17  2  0  0  0  0
 17 18  1  0  0  0  0
 17 38  1  0  0  0  0
 18 19  1  0  0  0  0
 19 20  1  0  0  0  0
 19 39  1  0  0  0  0
 19 40  1  0  0  0  0
 20 21  1  0  0  0  0
 20 22  1  0  0  0  0
 20 41  1  0  0  0  0
 21 42  1  0  0  0  0
 22 26  1  0  0  0  0
 22 23  1  0  0  0  0
 22 43  1  0  0  0  0
 23 24  1  0  0  0  0
 23 44  1  0  0  0  0
 23 45  1  0  0  0  0
 24 25  1  0  0  0  0
 24 46  1  0  0  0  0
 24 47  1  0  0  0  0
 25 26  1  0  0  0  0
 25 48  1  0  0  0  0
 25 49  1  0  0  0  0
 27 50  1  0  0  0  0
 27 51  1  0  0  0  0
M  END
> <s_m_source_file>
AV-unprocessed.smi

> <i_m_source_file_index>
261

> <i_lp_mmshare_version>
43012

> <i_f3d_flags>
0

> <s_epik_input>
W0NIM11PW0NASF0xW0NIMl1bQ0BASF0oQyg9TylbTkgyXSlOKFtDSDJdMSljKG5bY0hdbjIpYyhjMjMpbltjSF1uM1tDSDJdW0NASF0oW09IXSlbQ0BASF00W0NIMl1bQ0gyXVtDSDJdTzQ=

> <s_epik_cmdline>
J2VwaWtfcHl0aG9uJywgJy1waCcsICc3LjAnLCAnLXRuJywgJzgnLCAnLW1hJywgJzIwMCcsICctbWV0YWxfYmluZGluZycsICctaW1hZScsICc8aW5maWxlLm1hZT4nLCAnLW9tYWUnLCAnPG91dGZpbGUubWFlPic=

> <r_lp_tautomer_probability>
1

> <r_epik_Ionization_Penalty>
0.000713824

> <r_epik_Ionization_Penalty_Charging>
0

> <r_epik_Ionization_Penalty_Neutral>
0.000713824

> <r_epik_State_Penalty>
0.000402132

> <r_epik_Charging_Adjusted_Penalty>
0.000402132

> <i_epik_Tot_Q>
0

> <i_epik_Tot_abs_Q>
0

> <r_epik_Metal_State_Penalty>
-0

> <b_epik_Metal_Only>
0

> <s_lp_Force_Field>
OPLS_2005

> <r_lp_Energy>
43.323

> <b_lp_Chiralities_Consistent>
1

> <s_lp_Variant>
AV-unprocessed.smi:261-6

> <Gold.Version>
5.8.1

> <Gold.Id.Protein>
6NUR|6NUR_protein|mol2

> <Gold.PLP.Fitness>
37.3742

> <Gold.PLP.PLP>
-31.8765

> <Gold.PLP.part.hbond>
-2.0000

> <Gold.PLP.part.metal>
0.0000

> <Gold.PLP.part.buried>
-4.5748

> <Gold.PLP.part.nonpolar>
-26.4055

> <Gold.PLP.part.repulsive>
0.7314

> <Gold.PLP.ligand.clash>
0.0000

> <Gold.PLP.ligand.torsion>
1.2120

> <Gold.PLP.Chemscore.Hbond>
2.0000

> <Gold.PLP.Chemscore.CHOScore>
0.5956

> <Gold.PLP.Chemscore.Metal>
0.0000

> <Gold.Chemscore.Hbonds>
donor molecule, donor type, donor heavy atom, donor atom, acceptor molecule, acceptor atom, score
      L1  H     7    36       P1 10175  1.00
      P1  H  7989  7998       L1    21  1.00
      L1  C    17    38       P1  7957  0.54

> <Gold.PLP.Chemscore.Internal.Correction>
0.1348

> <Gold.Rescore>
     Score         DG    S(hbond)    S(metal)    S(lipo)     H(rot)  DE(clash)    DE(int)     intcor
      9.25     -11.95       1.98        0.00      68.47       3.18       1.44       1.26       ----

> <Gold.Chemscore.Fitness>
9.2542

> <Gold.Chemscore.DG>
-11.9500

> <Gold.Chemscore.ZeroCoef>
-5.4800

> <Gold.Chemscore.Hbond>
1.9784

> <Gold.Chemscore.Metal>
0.0000

> <Gold.Chemscore.Lipo>
68.4674

> <Gold.Chemscore.Internal_Hbond>
0.0000

> <Gold.Chemscore.DEClash>
1.4383

> <Gold.Chemscore.DEInternal>
1.2575

> <Gold.Chemscore.Rot>
3.1831

> <Gold.Chemscore.Internal.Correction>
   9.000000E+99

> <Gold.Chemscore.Hbonds>
donor molecule, donor type, donor heavy atom, donor atom, acceptor molecule, acceptor atom, score
      L1  H     7    36       P1 10175  0.99
      P1  H  7989  7998       L1    21  0.99

> <Gold.Chemscore.Hbond.Weighted>
-6.6080

> <Gold.Chemscore.Metal.Weighted>
-0.0000

> <Gold.Chemscore.Lipo.Weighted>
-8.0107

> <Gold.Chemscore.Internal_Hbond.Weighted>
0.0000

> <Gold.Chemscore.DEClash.Weighted>
1.4383

> <Gold.Chemscore.DEInternal.Weighted>
1.2575

> <Gold.Chemscore.Rot.Weighted>
8.1486

> <Gold.Chemscore.Internal.Correction.Weighted>
   9.000000E+99

> <Gold.Protein.RotatedTorsions>
[ 6907 6896 6895 6894 ] final -140.70 input  -60.11 | X-H torsion
[ 7974 7965 7964 7962 ] final   24.93 input  175.53 | X-H torsion
[ 8008 7997 7996 7995 ] final  170.60 input   59.86 | X-H torsion
[ 10167 10162 10161 10158 ] final   30.66 input  -65.29 | X-H torsion
[ 10718 10713 10712 10709 ] final -154.17 input   66.30 | X-H torsion
[ 10763 10752 10751 10750 ] final -123.69 input  -60.55 | X-H torsion
[ 11005 11000 10999 10996 ] final  -52.45 input  -57.11 | X-H torsion

> <Gold.Protein.ActiveResidues>
 VAL166  LYS551  ARG553  GLY616  TRP617  ASP618  TYR619  PRO620  LYS621  CYS622 
 ASP623  PHE694  ASN695  SER759  ASP760  ASP761  ALA762  ILE779  LEU786  VAL792 
 PHE793  MET794  SER795  GLU796  ALA797  LYS798  CYS799  TRP800  GLU811  SER814 

> <Gold.Protein.RotatedAtoms>
  151.0642  133.5519  159.2631 H   0  0  0  0  0  0  0  0  0  0  0  0  # atno 6907 bound_to 6896
  151.2483  135.0612  159.9062 H   0  0  0  0  0  0  0  0  0  0  0  0  # atno 6908 bound_to 6896
  152.5402  134.0406  159.8119 H   0  0  0  0  0  0  0  0  0  0  0  0  # atno 6909 bound_to 6896
  146.1914  139.7537  142.8829 H   0  0  0  0  0  0  0  0  0  0  0  0  # atno 7974 bound_to 7965
  156.1351  140.1534  156.9007 H   0  0  0  0  0  0  0  0  0  0  0  0  # atno 8008 bound_to 7997
  154.4940  140.0843  156.7696 H   0  0  0  0  0  0  0  0  0  0  0  0  # atno 8009 bound_to 7997
  155.4185  140.3422  155.4271 H   0  0  0  0  0  0  0  0  0  0  0  0  # atno 8010 bound_to 7997
  140.4658  144.0837  150.6224 H   0  0  0  0  0  0  0  0  0  0  0  0  # atno 10167 bound_to 10162
  156.4957  130.8368  151.2589 H   0  0  0  0  0  0  0  0  0  0  0  0  # atno 10718 bound_to 10713
  154.8712  135.4089  154.2984 H   0  0  0  0  0  0  0  0  0  0  0  0  # atno 10763 bound_to 10752
  153.3848  135.7013  153.6544 H   0  0  0  0  0  0  0  0  0  0  0  0  # atno 10764 bound_to 10752
  153.5351  135.3659  155.2665 H   0  0  0  0  0  0  0  0  0  0  0  0  # atno 10765 bound_to 10752
  141.0925  133.6630  156.4027 H   0  0  0  0  0  0  0  0  0  0  0  0  # atno 11005 bound_to 11000
  145.3781  141.0354  143.3193 LP  0  0  0  0  0  0  0  0  0  0  0  0  # atno 17320 bound_to 7965
  144.8494  139.5346  143.6863 LP  0  0  0  0  0  0  0  0  0  0  0  0  # atno 17321 bound_to 7965
  140.4038  143.2691  151.9916 LP  0  0  0  0  0  0  0  0  0  0  0  0  # atno 17342 bound_to 10162
  139.4812  144.5975  151.7664 LP  0  0  0  0  0  0  0  0  0  0  0  0  # atno 17343 bound_to 10162
  157.7469  130.9998  150.2904 LP  0  0  0  0  0  0  0  0  0  0  0  0  # atno 17370 bound_to 10713
  156.3382  130.3811  149.7432 LP  0  0  0  0  0  0  0  0  0  0  0  0  # atno 17371 bound_to 10713
  140.5218  134.6297  157.5321 LP  0  0  0  0  0  0  0  0  0  0  0  0  # atno 17394 bound_to 11000
  139.9754  134.7224  155.9960 LP  0  0  0  0  0  0  0  0  0  0  0  0  # atno 17395 bound_to 11000

$$$$
