AV-unprocessed.smi:1522|AV-procd|sdf|6135|dock7
  -GOLD-   22720 6273D 1   1.00000     0.00000
 Structure written by MMmdl.
 35 36  0  0  0  0  0  0  0  0  2 V2000
  147.9753  131.6318  154.0281 C   0  0  0  0  0  0  0  0  0  0  0  0
  148.0951  133.1690  154.1343 C   0  0  1  0  0  0  0  0  0  0  0  0
  149.5786  133.6028  154.2141 C   0  0  0  0  0  0  0  0  0  0  0  0
  149.7333  135.0509  154.1135 N   0  0  0  0  0  0  0  0  0  0  0  0
  150.5456  135.7882  154.8838 C   0  0  0  0  0  0  0  0  0  0  0  0
  151.2661  135.3094  155.7596 O   0  0  0  0  0  0  0  0  0  0  0  0
  150.4623  137.0936  154.5719 N   0  0  0  0  0  0  0  0  0  0  0  0
  151.1396  138.1866  155.1751 C   0  0  0  0  0  0  0  0  0  0  0  0
  152.3709  138.0995  155.7026 N   0  0  0  0  0  0  0  0  0  0  0  0
  152.7972  139.3115  156.2298 N   0  0  0  0  0  0  0  0  0  0  0  0
  151.8719  140.2635  156.0801 C   0  0  0  0  0  0  0  0  0  0  0  0
  150.3887  139.7725  155.2803 S   0  0  0  0  0  0  0  0  0  0  0  0
  147.4022  133.8377  152.9935 N   0  3  0  0  0  0  0  0  0  0  0  0
  147.4055  133.0824  151.7216 C   0  0  0  0  0  0  0  0  0  0  0  0
  146.2854  133.6812  150.8680 C   0  0  0  0  0  0  0  0  0  0  0  0
  145.3560  134.3941  151.8531 C   0  0  0  0  0  0  0  0  0  0  0  0
  145.9854  134.1893  153.2332 C   0  0  0  0  0  0  0  0  0  0  0  0
  148.4813  131.1267  154.8508 H   0  0  0  0  0  0  0  0  0  0  0  0
  148.4136  131.2652  153.0992 H   0  0  0  0  0  0  0  0  0  0  0  0
  146.9380  131.2991  154.0627 H   0  0  0  0  0  0  0  0  0  0  0  0
  147.5998  133.4815  155.0551 H   0  0  0  0  0  0  0  0  0  0  0  0
  150.0127  133.2333  155.1451 H   0  0  0  0  0  0  0  0  0  0  0  0
  150.1597  133.1688  153.4004 H   0  0  0  0  0  0  0  0  0  0  0  0
  149.1815  135.5238  153.4126 H   0  0  0  0  0  0  0  0  0  0  0  0
  149.8337  137.3372  153.8207 H   0  0  0  0  0  0  0  0  0  0  0  0
  152.0647  141.2621  156.4433 H   0  0  0  0  0  0  0  0  0  0  0  0
  148.3697  133.1393  151.2157 H   0  0  0  0  0  0  0  0  0  0  0  0
  147.1897  132.0314  151.9214 H   0  0  0  0  0  0  0  0  0  0  0  0
  146.6941  134.4017  150.1583 H   0  0  0  0  0  0  0  0  0  0  0  0
  145.7659  132.9135  150.2936 H   0  0  0  0  0  0  0  0  0  0  0  0
  145.3062  135.4568  151.6122 H   0  0  0  0  0  0  0  0  0  0  0  0
  144.3393  134.0013  151.8165 H   0  0  0  0  0  0  0  0  0  0  0  0
  145.4864  133.3633  153.7428 H   0  0  0  0  0  0  0  0  0  0  0  0
  145.8859  135.0795  153.8551 H   0  0  0  0  0  0  0  0  0  0  0  0
  147.8849  134.7061  152.8111 H   0  0  0  0  0  0  0  0  0  0  0  0
  1  2  1  0  0  0  0
  1 18  1  0  0  0  0
  1 19  1  0  0  0  0
  1 20  1  0  0  0  0
  2  3  1  0  0  0  0
  2 13  1  0  0  0  0
  2 21  1  0  0  0  0
  3  4  1  0  0  0  0
  3 22  1  0  0  0  0
  3 23  1  0  0  0  0
  4  5  1  0  0  0  0
  4 24  1  0  0  0  0
  5  6  2  0  0  0  0
  5  7  1  0  0  0  0
  7  8  1  0  0  0  0
  7 25  1  0  0  0  0
  8 12  1  0  0  0  0
  8  9  2  0  0  0  0
  9 10  1  0  0  0  0
 10 11  2  0  0  0  0
 11 12  1  0  0  0  0
 11 26  1  0  0  0  0
 13 17  1  0  0  0  0
 13 14  1  0  0  0  0
 13 35  1  0  0  0  0
 14 15  1  0  0  0  0
 14 27  1  0  0  0  0
 14 28  1  0  0  0  0
 15 16  1  0  0  0  0
 15 29  1  0  0  0  0
 15 30  1  0  0  0  0
 16 17  1  0  0  0  0
 16 31  1  0  0  0  0
 16 32  1  0  0  0  0
 17 33  1  0  0  0  0
 17 34  1  0  0  0  0
M  CHG  1  13   1
M  END
> <s_m_source_file>
AV-unprocessed.smi

> <i_m_source_file_index>
1522

> <i_lp_mmshare_version>
43012

> <i_f3d_flags>
0

> <s_epik_input>
W0NIMl0xW0NIMl1bQ0gyXVtDSDJdTjFbQ0BIXShbQ0gzXSlbQ0gyXVtOSF1DKD1PKVtOSF1jMm5uW2NIXXMy

> <s_epik_cmdline>
J2VwaWtfcHl0aG9uJywgJy1waCcsICc3LjAnLCAnLXRuJywgJzgnLCAnLW1hJywgJzIwMCcsICctbWV0YWxfYmluZGluZycsICctaW1hZScsICc8aW5maWxlLm1hZT4nLCAnLW9tYWUnLCAnPG91dGZpbGUubWFlPic=

> <r_lp_tautomer_probability>
1

> <r_epik_Ionization_Penalty>
0.00457064

> <r_epik_Ionization_Penalty_Charging>
0.000848324

> <r_epik_Ionization_Penalty_Neutral>
0.00372231

> <r_epik_State_Penalty>
-0

> <r_epik_Charging_Adjusted_Penalty>
0.000848324

> <i_epik_Tot_Q>
1

> <i_epik_Tot_abs_Q>
1

> <r_epik_Metal_State_Penalty>
0.370178

> <b_epik_Metal_Only>
0

> <s_lp_Force_Field>
OPLS_2005

> <r_lp_Energy>
30.6198

> <b_lp_Chiralities_Consistent>
1

> <s_lp_Variant>
AV-unprocessed.smi:1522-2

> <Gold.Version>
5.8.1

> <Gold.Id.Protein>
6NUR|6NUR_protein|mol2

> <Gold.PLP.Fitness>
40.2168

> <Gold.PLP.PLP>
-26.5097

> <Gold.PLP.part.hbond>
-6.3662

> <Gold.PLP.part.metal>
0.0000

> <Gold.PLP.part.buried>
1.6391

> <Gold.PLP.part.nonpolar>
-20.9529

> <Gold.PLP.part.repulsive>
0.1917

> <Gold.PLP.ligand.clash>
0.0000

> <Gold.PLP.ligand.torsion>
1.1936

> <Gold.PLP.Chemscore.Hbond>
5.3546

> <Gold.PLP.Chemscore.CHOScore>
0.0000

> <Gold.PLP.Chemscore.Metal>
0.0000

> <Gold.Chemscore.Hbonds>
donor molecule, donor type, donor heavy atom, donor atom, acceptor molecule, acceptor atom, score
      L1  H     4    24       P1  7948  1.00
      L1  H     7    25       P1  7948  0.09
      L1  H    13    35       P1  7948  1.89
      P1  H  7997  8010       L1    10  1.00
      P1  H 10752 10764       L1     6  0.80

> <Gold.PLP.Chemscore.Internal.Correction>
0.0304

> <Gold.Rescore>
     Score         DG    S(hbond)    S(metal)    S(lipo)     H(rot)  DE(clash)    DE(int)     intcor
     14.76     -17.56       3.33        0.00      45.30       1.70       0.68       2.12       ----

> <Gold.Chemscore.Fitness>
14.7560

> <Gold.Chemscore.DG>
-17.5560

> <Gold.Chemscore.ZeroCoef>
-5.4800

> <Gold.Chemscore.Hbond>
3.3338

> <Gold.Chemscore.Metal>
0.0000

> <Gold.Chemscore.Lipo>
45.3013

> <Gold.Chemscore.Internal_Hbond>
0.0000

> <Gold.Chemscore.DEClash>
0.6759

> <Gold.Chemscore.DEInternal>
2.1241

> <Gold.Chemscore.Rot>
1.7028

> <Gold.Chemscore.Internal.Correction>
   9.000000E+99

> <Gold.Chemscore.Hbonds>
donor molecule, donor type, donor heavy atom, donor atom, acceptor molecule, acceptor atom, score
      L1  H     4    24       P1  7948  0.43
      L1  H     7    25       P1  7948  0.07
      L1  H    13    35       P1  7948  0.77
      P1  H  7997  8010       L1    10  0.65
      P1  H 10752 10764       L1     6  0.11

> <Gold.Chemscore.Hbond.Weighted>
-11.1349

> <Gold.Chemscore.Metal.Weighted>
-0.0000

> <Gold.Chemscore.Lipo.Weighted>
-5.3002

> <Gold.Chemscore.Internal_Hbond.Weighted>
0.0000

> <Gold.Chemscore.DEClash.Weighted>
0.6759

> <Gold.Chemscore.DEInternal.Weighted>
2.1241

> <Gold.Chemscore.Rot.Weighted>
4.3592

> <Gold.Chemscore.Internal.Correction.Weighted>
   9.000000E+99

> <Gold.Protein.RotatedTorsions>
[ 6907 6896 6895 6894 ] final -106.33 input  -60.11 | X-H torsion
[ 7974 7965 7964 7962 ] final  -48.43 input  175.53 | X-H torsion
[ 8008 7997 7996 7995 ] final   67.99 input   59.86 | X-H torsion
[ 10167 10162 10161 10158 ] final  112.68 input  -65.29 | X-H torsion
[ 10718 10713 10712 10709 ] final  121.28 input   66.30 | X-H torsion
[ 10763 10752 10751 10750 ] final  -49.07 input  -60.55 | X-H torsion
[ 11005 11000 10999 10996 ] final  -22.75 input  -57.11 | X-H torsion

> <Gold.Protein.ActiveResidues>
 VAL166  LYS551  ARG553  GLY616  TRP617  ASP618  TYR619  PRO620  LYS621  CYS622 
 ASP623  PHE694  ASN695  SER759  ASP760  ASP761  ALA762  ILE779  LEU786  VAL792 
 PHE793  MET794  SER795  GLU796  ALA797  LYS798  CYS799  TRP800  GLU811  SER814 

> <Gold.Protein.RotatedAtoms>
  150.7383  133.9993  159.3632 H   0  0  0  0  0  0  0  0  0  0  0  0  # atno 6907 bound_to 6896
  151.7946  135.0724  160.0401 H   0  0  0  0  0  0  0  0  0  0  0  0  # atno 6908 bound_to 6896
  152.3184  133.5790  159.5764 H   0  0  0  0  0  0  0  0  0  0  0  0  # atno 6909 bound_to 6896
  145.9513  140.7570  142.9503 H   0  0  0  0  0  0  0  0  0  0  0  0  # atno 7974 bound_to 7965
  155.7014  140.3495  155.4935 H   0  0  0  0  0  0  0  0  0  0  0  0  # atno 8008 bound_to 7997
  155.9437  140.1106  157.1057 H   0  0  0  0  0  0  0  0  0  0  0  0  # atno 8009 bound_to 7997
  154.4107  140.1208  156.4947 H   0  0  0  0  0  0  0  0  0  0  0  0  # atno 8010 bound_to 7997
  139.6517  144.7128  151.2035 H   0  0  0  0  0  0  0  0  0  0  0  0  # atno 10167 bound_to 10162
  157.5829  131.1073  150.8151 H   0  0  0  0  0  0  0  0  0  0  0  0  # atno 10718 bound_to 10713
  154.0881  135.6581  153.4848 H   0  0  0  0  0  0  0  0  0  0  0  0  # atno 10763 bound_to 10752
  153.0331  135.5196  154.7407 H   0  0  0  0  0  0  0  0  0  0  0  0  # atno 10764 bound_to 10752
  154.6523  135.3003  154.9940 H   0  0  0  0  0  0  0  0  0  0  0  0  # atno 10765 bound_to 10752
  140.8686  133.7736  156.0159 H   0  0  0  0  0  0  0  0  0  0  0  0  # atno 11005 bound_to 11000
  144.6796  140.2439  143.7340 LP  0  0  0  0  0  0  0  0  0  0  0  0  # atno 17320 bound_to 7965
  145.8168  139.2026  143.1961 LP  0  0  0  0  0  0  0  0  0  0  0  0  # atno 17321 bound_to 7965
  140.7541  143.6139  150.8579 LP  0  0  0  0  0  0  0  0  0  0  0  0  # atno 17342 bound_to 10162
  139.9787  143.5975  152.2950 LP  0  0  0  0  0  0  0  0  0  0  0  0  # atno 17343 bound_to 10162
  156.8592  130.5107  149.5305 LP  0  0  0  0  0  0  0  0  0  0  0  0  # atno 17370 bound_to 10713
  156.0876  130.5871  150.9676 LP  0  0  0  0  0  0  0  0  0  0  0  0  # atno 17371 bound_to 10713
  140.8599  134.2853  157.5239 LP  0  0  0  0  0  0  0  0  0  0  0  0  # atno 17394 bound_to 11000
  139.8711  134.9513  156.4080 LP  0  0  0  0  0  0  0  0  0  0  0  0  # atno 17395 bound_to 11000

$$$$
