AV-unprocessed.smi:2976|AV-procd|sdf|11366|dock8
  -GOLD-   2272016283D 1   1.00000     0.00000
 Structure written by MMmdl.
 40 41  0  0  0  0  0  0  0  0  1 V2000
  151.9707  141.0549  158.0045 C   0  0  0  0  0  0  0  0  0  0  0  0
  151.0170  140.3379  157.0323 C   0  0  1  0  0  0  0  0  0  0  0  0
  150.0182  141.3540  156.4399 C   0  0  0  0  0  0  0  0  0  0  0  0
  149.0313  140.6969  155.4662 C   0  0  0  0  0  0  0  0  0  0  0  0
  149.7769  139.9638  154.3420 C   0  0  0  0  0  0  0  0  0  0  0  0
  150.7724  138.9279  154.8997 C   0  0  2  0  0  0  0  0  0  0  0  0
  150.0606  137.8181  155.5286 N   0  0  0  0  0  0  0  0  0  0  0  0
  150.2055  136.5121  155.2514 C   0  0  0  0  0  0  0  0  0  0  0  0
  150.9827  136.0916  154.3956 O   0  0  0  0  0  0  0  0  0  0  0  0
  149.3489  135.5124  156.0491 C   0  0  0  0  0  0  0  0  0  0  0  0
  149.4240  134.1224  155.5667 N   0  0  0  0  0  0  0  0  0  0  0  0
  148.8083  133.9170  154.3440 N   0  0  0  0  0  0  0  0  0  0  0  0
  148.7681  132.7296  153.8456 C   0  0  0  0  0  0  0  0  0  0  0  0
  149.3518  131.5912  154.5198 C   0  0  0  0  0  0  0  0  0  0  0  0
  149.2645  130.0210  153.8032 Cl  0  0  0  0  0  0  0  0  0  0  0  0
  149.9592  131.8044  155.7140 C   0  0  0  0  0  0  0  0  0  0  0  0
  150.6774  130.4913  156.5821 Cl  0  0  0  0  0  0  0  0  0  0  0  0
  150.0226  133.1441  156.3140 C   0  0  0  0  0  0  0  0  0  0  0  0
  150.5505  133.3757  157.4022 O   0  0  0  0  0  0  0  0  0  0  0  0
  151.7643  139.5756  155.9010 C   0  0  2  0  0  0  0  0  0  0  0  0
  152.7702  138.5366  156.4388 C   0  0  0  0  0  0  0  0  0  0  0  0
  152.6223  141.7528  157.4781 H   0  0  0  0  0  0  0  0  0  0  0  0
  152.6000  140.3510  158.5483 H   0  0  0  0  0  0  0  0  0  0  0  0
  151.4136  141.6216  158.7510 H   0  0  0  0  0  0  0  0  0  0  0  0
  150.4462  139.6136  157.6155 H   0  0  0  0  0  0  0  0  0  0  0  0
  149.4615  141.8404  157.2417 H   0  0  0  0  0  0  0  0  0  0  0  0
  150.5624  142.1452  155.9220 H   0  0  0  0  0  0  0  0  0  0  0  0
  148.3903  139.9989  156.0063 H   0  0  0  0  0  0  0  0  0  0  0  0
  148.3712  141.4530  155.0406 H   0  0  0  0  0  0  0  0  0  0  0  0
  149.0632  139.4849  153.6708 H   0  0  0  0  0  0  0  0  0  0  0  0
  150.3183  140.6917  153.7365 H   0  0  0  0  0  0  0  0  0  0  0  0
  151.3521  138.5312  154.0639 H   0  0  0  0  0  0  0  0  0  0  0  0
  149.3955  138.0670  156.2462 H   0  0  0  0  0  0  0  0  0  0  0  0
  149.6667  135.5581  157.0922 H   0  0  0  0  0  0  0  0  0  0  0  0
  148.3143  135.8600  156.0498 H   0  0  0  0  0  0  0  0  0  0  0  0
  148.2913  132.5195  152.8882 H   0  0  0  0  0  0  0  0  0  0  0  0
  152.3429  140.3108  155.3393 H   0  0  0  0  0  0  0  0  0  0  0  0
  152.2975  137.8337  157.1259 H   0  0  0  0  0  0  0  0  0  0  0  0
  153.5960  139.0123  156.9671 H   0  0  0  0  0  0  0  0  0  0  0  0
  153.2084  137.9592  155.6243 H   0  0  0  0  0  0  0  0  0  0  0  0
  1  2  1  0  0  0  0
  1 22  1  0  0  0  0
  1 23  1  0  0  0  0
  1 24  1  0  0  0  0
  2 20  1  0  0  0  0
  2  3  1  0  0  0  0
  2 25  1  0  0  0  0
  3  4  1  0  0  0  0
  3 26  1  0  0  0  0
  3 27  1  0  0  0  0
  4  5  1  0  0  0  0
  4 28  1  0  0  0  0
  4 29  1  0  0  0  0
  5  6  1  0  0  0  0
  5 30  1  0  0  0  0
  5 31  1  0  0  0  0
  6  7  1  0  0  0  0
  6 20  1  0  0  0  0
  6 32  1  0  0  0  0
  7  8  1  0  0  0  0
  7 33  1  0  0  0  0
  8  9  2  0  0  0  0
  8 10  1  0  0  0  0
 10 11  1  0  0  0  0
 10 34  1  0  0  0  0
 10 35  1  0  0  0  0
 11 18  1  0  0  0  0
 11 12  1  0  0  0  0
 12 13  2  0  0  0  0
 13 14  1  0  0  0  0
 13 36  1  0  0  0  0
 14 15  1  0  0  0  0
 14 16  2  0  0  0  0
 16 17  1  0  0  0  0
 16 18  1  0  0  0  0
 18 19  2  0  0  0  0
 20 21  1  0  0  0  0
 20 37  1  0  0  0  0
 21 38  1  0  0  0  0
 21 39  1  0  0  0  0
 21 40  1  0  0  0  0
M  END
> <s_m_source_file>
AV-unprocessed.smi

> <i_m_source_file_index>
2976

> <i_lp_mmshare_version>
43012

> <i_f3d_flags>
0

> <s_epik_input>
W0NIM11bQ0BASF0xW0NIMl1bQ0gyXVtDSDJdW0NASF0oW0NASF0xW0NIM10pW05IXUMoPU8pW0NIMl1uMm5bY0hdYyhDbCljKENsKWMyPU8=

> <s_epik_cmdline>
J2VwaWtfcHl0aG9uJywgJy1waCcsICc3LjAnLCAnLXRuJywgJzgnLCAnLW1hJywgJzIwMCcsICctbWV0YWxfYmluZGluZycsICctaW1hZScsICc8aW5maWxlLm1hZT4nLCAnLW9tYWUnLCAnPG91dGZpbGUubWFlPic=

> <r_lp_tautomer_probability>
1

> <r_epik_Ionization_Penalty>
1.90777e-08

> <r_epik_Ionization_Penalty_Charging>
3.07942e-11

> <r_epik_Ionization_Penalty_Neutral>
1.90469e-08

> <r_epik_State_Penalty>
-0

> <r_epik_Charging_Adjusted_Penalty>
3.07942e-11

> <i_epik_Tot_Q>
0

> <i_epik_Tot_abs_Q>
0

> <r_epik_Metal_State_Penalty>
-0

> <b_epik_Metal_Only>
0

> <s_lp_Force_Field>
OPLS_2005

> <r_lp_Energy>
24.1651

> <b_lp_Chiralities_Consistent>
1

> <s_lp_Variant>
AV-unprocessed.smi:2976-8

> <Gold.Version>
5.8.1

> <Gold.Id.Protein>
6NUR|6NUR_protein|mol2

> <Gold.PLP.Fitness>
37.3063

> <Gold.PLP.PLP>
-32.0113

> <Gold.PLP.part.hbond>
-2.0000

> <Gold.PLP.part.metal>
0.0000

> <Gold.PLP.part.buried>
-3.1543

> <Gold.PLP.part.nonpolar>
-28.3111

> <Gold.PLP.part.repulsive>
1.7020

> <Gold.PLP.ligand.clash>
0.0000

> <Gold.PLP.ligand.torsion>
0.2018

> <Gold.PLP.Chemscore.Hbond>
1.8960

> <Gold.PLP.Chemscore.CHOScore>
0.0000

> <Gold.PLP.Chemscore.Metal>
0.0000

> <Gold.Chemscore.Hbonds>
donor molecule, donor type, donor heavy atom, donor atom, acceptor molecule, acceptor atom, score
      P1  H  6896  6907       L1    19  0.96
      P1  H 10752 10763       L1     9  1.00

> <Gold.PLP.Chemscore.Internal.Correction>
0.0105

> <Gold.Rescore>
     Score         DG    S(hbond)    S(metal)    S(lipo)     H(rot)  DE(clash)    DE(int)     intcor
     15.91     -17.33       1.98        0.00      77.13       1.49       0.11       1.31       ----

> <Gold.Chemscore.Fitness>
15.9070

> <Gold.Chemscore.DG>
-17.3286

> <Gold.Chemscore.ZeroCoef>
-5.4800

> <Gold.Chemscore.Hbond>
1.9850

> <Gold.Chemscore.Metal>
0.0000

> <Gold.Chemscore.Lipo>
77.1317

> <Gold.Chemscore.Internal_Hbond>
0.0000

> <Gold.Chemscore.DEClash>
0.1096

> <Gold.Chemscore.DEInternal>
1.3120

> <Gold.Chemscore.Rot>
1.4866

> <Gold.Chemscore.Internal.Correction>
   9.000000E+99

> <Gold.Chemscore.Hbonds>
donor molecule, donor type, donor heavy atom, donor atom, acceptor molecule, acceptor atom, score
      P1  H  6896  6907       L1    19  0.92
      P1  H 10752 10763       L1     9  0.97

> <Gold.Chemscore.Hbond.Weighted>
-6.6298

> <Gold.Chemscore.Metal.Weighted>
-0.0000

> <Gold.Chemscore.Lipo.Weighted>
-9.0244

> <Gold.Chemscore.Internal_Hbond.Weighted>
0.0000

> <Gold.Chemscore.DEClash.Weighted>
0.1096

> <Gold.Chemscore.DEInternal.Weighted>
1.3120

> <Gold.Chemscore.Rot.Weighted>
3.8057

> <Gold.Chemscore.Internal.Correction.Weighted>
   9.000000E+99

> <Gold.Protein.RotatedTorsions>
[ 6907 6896 6895 6894 ] final -139.45 input  -60.11 | X-H torsion
[ 7974 7965 7964 7962 ] final  164.61 input  175.53 | X-H torsion
[ 8008 7997 7996 7995 ] final  -13.46 input   59.86 | X-H torsion
[ 10167 10162 10161 10158 ] final  118.29 input  -65.29 | X-H torsion
[ 10718 10713 10712 10709 ] final   48.07 input   66.30 | X-H torsion
[ 10763 10752 10751 10750 ] final   42.80 input  -60.55 | X-H torsion
[ 11005 11000 10999 10996 ] final  -92.25 input  -57.11 | X-H torsion

> <Gold.Protein.ActiveResidues>
 VAL166  LYS551  ARG553  GLY616  TRP617  ASP618  TYR619  PRO620  LYS621  CYS622 
 ASP623  PHE694  ASN695  SER759  ASP760  ASP761  ALA762  ILE779  LEU786  VAL792 
 PHE793  MET794  SER795  GLU796  ALA797  LYS798  CYS799  TRP800  GLU811  SER814 

> <Gold.Protein.RotatedAtoms>
  151.0480  133.5649  159.2644 H   0  0  0  0  0  0  0  0  0  0  0  0  # atno 6907 bound_to 6896
  151.2671  135.0672  159.9130 H   0  0  0  0  0  0  0  0  0  0  0  0  # atno 6908 bound_to 6896
  152.5376  134.0216  159.8038 H   0  0  0  0  0  0  0  0  0  0  0  0  # atno 6909 bound_to 6896
  144.7538  139.8351  143.6357 H   0  0  0  0  0  0  0  0  0  0  0  0  # atno 7974 bound_to 7965
  154.5290  140.2249  155.8837 H   0  0  0  0  0  0  0  0  0  0  0  0  # atno 8008 bound_to 7997
  156.1744  140.3114  155.8996 H   0  0  0  0  0  0  0  0  0  0  0  0  # atno 8009 bound_to 7997
  155.3490  140.0454  157.3036 H   0  0  0  0  0  0  0  0  0  0  0  0  # atno 8010 bound_to 7997
  139.6121  144.7084  151.2820 H   0  0  0  0  0  0  0  0  0  0  0  0  # atno 10167 bound_to 10162
  157.4649  130.8219  149.7925 H   0  0  0  0  0  0  0  0  0  0  0  0  # atno 10718 bound_to 10713
  152.9875  135.6121  154.3007 H   0  0  0  0  0  0  0  0  0  0  0  0  # atno 10763 bound_to 10752
  154.2728  135.2779  155.2733 H   0  0  0  0  0  0  0  0  0  0  0  0  # atno 10764 bound_to 10752
  154.5107  135.5842  153.6659 H   0  0  0  0  0  0  0  0  0  0  0  0  # atno 10765 bound_to 10752
  141.1526  133.7809  156.9994 H   0  0  0  0  0  0  0  0  0  0  0  0  # atno 11005 bound_to 11000
  146.1522  139.4609  143.0041 LP  0  0  0  0  0  0  0  0  0  0  0  0  # atno 17320 bound_to 7965
  145.6851  141.0180  143.1585 LP  0  0  0  0  0  0  0  0  0  0  0  0  # atno 17321 bound_to 7965
  140.7326  143.6818  150.7995 LP  0  0  0  0  0  0  0  0  0  0  0  0  # atno 17342 bound_to 10162
  140.0414  143.5342  152.2716 LP  0  0  0  0  0  0  0  0  0  0  0  0  # atno 17343 bound_to 10162
  156.0046  130.3862  150.2480 LP  0  0  0  0  0  0  0  0  0  0  0  0  # atno 17370 bound_to 10713
  157.0659  131.0103  151.3207 LP  0  0  0  0  0  0  0  0  0  0  0  0  # atno 17371 bound_to 10713
  140.0950  134.9570  157.1835 LP  0  0  0  0  0  0  0  0  0  0  0  0  # atno 17394 bound_to 11000
  140.3394  134.2720  155.7214 LP  0  0  0  0  0  0  0  0  0  0  0  0  # atno 17395 bound_to 11000

$$$$
