AV-unprocessed.smi:166|AV-procd|sdf|1391|dock6
  -GOLD-   2262019133D 1   1.00000     0.00000
 Structure written by MMmdl.
 54 58  0  0  0  0  0  0  0  0  1 V2000
  146.0892  134.5388  162.8965 O   0  0  0  0  0  0  0  0  0  0  0  0
  146.0709  133.8846  161.6392 C   0  0  2  0  0  0  0  0  0  0  0  0
  147.4697  133.9860  160.9860 C   0  0  0  0  0  0  0  0  0  0  0  0
  147.7030  135.2435  160.2925 N   0  0  0  0  0  0  0  0  0  0  0  0
  147.2758  136.4947  160.6776 C   0  0  0  0  0  0  0  0  0  0  0  0
  147.6190  137.4701  159.8813 N   0  0  0  0  0  0  0  0  0  0  0  0
  148.3448  136.8454  158.8744 C   0  0  0  0  0  0  0  0  0  0  0  0
  149.0099  137.2954  157.6992 C   0  0  0  0  0  0  0  0  0  0  0  0
  149.0619  138.5795  157.2886 N   0  0  0  0  0  0  0  0  0  0  0  0
  149.6995  138.7381  155.9852 C   0  0  0  0  0  0  0  0  0  0  0  0
  149.5153  140.1725  155.4643 C   0  0  0  0  0  0  0  0  0  0  0  0
  150.0122  141.1954  156.4979 C   0  0  0  0  0  0  0  0  0  0  0  0
  149.3197  140.9744  157.8543 C   0  0  2  0  0  0  0  0  0  0  0  0
  149.8947  141.8862  158.7811 O   0  0  0  0  0  0  0  0  0  0  0  0
  151.3120  141.8436  158.8460 C   0  0  0  0  0  0  0  0  0  0  0  0
  151.7954  143.0076  159.6839 C   0  0  0  0  0  0  0  0  0  0  0  0
  152.1299  144.3293  159.0306 C   0  0  0  0  0  0  0  0  0  0  0  0
  153.2310  143.4754  159.6050 C   0  0  0  0  0  0  0  0  0  0  0  0
  149.5122  139.5148  158.3168 C   0  0  0  0  0  0  0  0  0  0  0  0
  149.6503  136.3763  156.9367 N   0  0  0  0  0  0  0  0  0  0  0  0
  149.6379  135.0883  157.2937 C   0  0  0  0  0  0  0  0  0  0  0  0
  149.0574  134.5206  158.3536 N   0  0  0  0  0  0  0  0  0  0  0  0
  148.4150  135.4463  159.1232 C   0  0  0  0  0  0  0  0  0  0  0  0
  144.9796  134.5212  160.7854 C   0  0  0  0  0  0  0  0  0  0  0  0
  143.7553  133.6754  161.1066 C   0  0  0  0  0  0  0  0  0  0  0  0
  144.2967  132.3686  161.1848 O   0  0  0  0  0  0  0  0  0  0  0  0
  145.5564  132.4432  161.8440 C   0  0  0  0  0  0  0  0  0  0  0  0
  146.0486  135.4718  162.7511 H   0  0  0  0  0  0  0  0  0  0  0  0
  148.2474  133.8649  161.7414 H   0  0  0  0  0  0  0  0  0  0  0  0
  147.6096  133.1728  160.2725 H   0  0  0  0  0  0  0  0  0  0  0  0
  146.6975  136.6645  161.5742 H   0  0  0  0  0  0  0  0  0  0  0  0
  150.7625  138.5080  156.0698 H   0  0  0  0  0  0  0  0  0  0  0  0
  149.2739  138.0282  155.2743 H   0  0  0  0  0  0  0  0  0  0  0  0
  150.0495  140.3002  154.5226 H   0  0  0  0  0  0  0  0  0  0  0  0
  148.4605  140.3509  155.2511 H   0  0  0  0  0  0  0  0  0  0  0  0
  151.0924  141.0980  156.6154 H   0  0  0  0  0  0  0  0  0  0  0  0
  149.8268  142.2091  156.1413 H   0  0  0  0  0  0  0  0  0  0  0  0
  148.2554  141.1879  157.7376 H   0  0  0  0  0  0  0  0  0  0  0  0
  151.6509  140.9049  159.2870 H   0  0  0  0  0  0  0  0  0  0  0  0
  151.7519  141.9268  157.8524 H   0  0  0  0  0  0  0  0  0  0  0  0
  151.3169  143.0749  160.6593 H   0  0  0  0  0  0  0  0  0  0  0  0
  152.0573  144.3926  157.9465 H   0  0  0  0  0  0  0  0  0  0  0  0
  151.8640  145.2366  159.5693 H   0  0  0  0  0  0  0  0  0  0  0  0
  153.6997  143.8104  160.5281 H   0  0  0  0  0  0  0  0  0  0  0  0
  153.8919  142.9697  158.9037 H   0  0  0  0  0  0  0  0  0  0  0  0
  148.9560  139.3274  159.2355 H   0  0  0  0  0  0  0  0  0  0  0  0
  150.5656  139.3403  158.5375 H   0  0  0  0  0  0  0  0  0  0  0  0
  150.1704  134.4165  156.6366 H   0  0  0  0  0  0  0  0  0  0  0  0
  144.8300  135.5837  160.9814 H   0  0  0  0  0  0  0  0  0  0  0  0
  145.2157  134.4108  159.7259 H   0  0  0  0  0  0  0  0  0  0  0  0
  143.3242  133.9552  162.0690 H   0  0  0  0  0  0  0  0  0  0  0  0
  142.9798  133.7464  160.3438 H   0  0  0  0  0  0  0  0  0  0  0  0
  146.2175  131.6939  161.4100 H   0  0  0  0  0  0  0  0  0  0  0  0
  145.4329  132.1973  162.9001 H   0  0  0  0  0  0  0  0  0  0  0  0
  1  2  1  0  0  0  0
  1 28  1  0  0  0  0
  2 27  1  0  0  0  0
  2  3  1  0  0  0  0
  2 24  1  0  0  0  0
  3  4  1  0  0  0  0
  3 29  1  0  0  0  0
  3 30  1  0  0  0  0
  4 23  1  0  0  0  0
  4  5  1  0  0  0  0
  5  6  2  0  0  0  0
  5 31  1  0  0  0  0
  6  7  1  0  0  0  0
  7 23  2  0  0  0  0
  7  8  1  0  0  0  0
  8  9  1  0  0  0  0
  8 20  2  0  0  0  0
  9 19  1  0  0  0  0
  9 10  1  0  0  0  0
 10 11  1  0  0  0  0
 10 32  1  0  0  0  0
 10 33  1  0  0  0  0
 11 12  1  0  0  0  0
 11 34  1  0  0  0  0
 11 35  1  0  0  0  0
 12 13  1  0  0  0  0
 12 36  1  0  0  0  0
 12 37  1  0  0  0  0
 13 14  1  0  0  0  0
 13 19  1  0  0  0  0
 13 38  1  0  0  0  0
 14 15  1  0  0  0  0
 15 16  1  0  0  0  0
 15 39  1  0  0  0  0
 15 40  1  0  0  0  0
 16 18  1  0  0  0  0
 16 17  1  0  0  0  0
 16 41  1  0  0  0  0
 17 18  1  0  0  0  0
 17 42  1  0  0  0  0
 17 43  1  0  0  0  0
 18 44  1  0  0  0  0
 18 45  1  0  0  0  0
 19 46  1  0  0  0  0
 19 47  1  0  0  0  0
 20 21  1  0  0  0  0
 21 22  2  0  0  0  0
 21 48  1  0  0  0  0
 22 23  1  0  0  0  0
 24 25  1  0  0  0  0
 24 49  1  0  0  0  0
 24 50  1  0  0  0  0
 25 26  1  0  0  0  0
 25 51  1  0  0  0  0
 25 52  1  0  0  0  0
 26 27  1  0  0  0  0
 27 53  1  0  0  0  0
 27 54  1  0  0  0  0
M  END
> <s_m_source_file>
AV-unprocessed.smi

> <i_m_source_file_index>
166

> <i_lp_mmshare_version>
43012

> <i_f3d_flags>
0

> <s_epik_input>
W0NIMl0xT1tDSDJdW0NIMl1bQ0BAXTEoW09IXSlbQ0gyXW4oW2NIXW4yKWMoYzIzKW5bY0hdbmMzTjRbQ0gyXVtDSDJdW0NIMl1bQ0BIXShbQ0gyXTQpT1tDSDJdW0NIXTVbQ0gyXVtDSDJdNQ==

> <s_epik_cmdline>
J2VwaWtfcHl0aG9uJywgJy1waCcsICc3LjAnLCAnLXRuJywgJzgnLCAnLW1hJywgJzIwMCcsICctbWV0YWxfYmluZGluZycsICctaW1hZScsICc8aW5maWxlLm1hZT4nLCAnLW9tYWUnLCAnPG91dGZpbGUubWFlPic=

> <r_lp_tautomer_probability>
1

> <r_epik_Ionization_Penalty>
0.00342552

> <r_epik_Ionization_Penalty_Charging>
0

> <r_epik_Ionization_Penalty_Neutral>
0.00342552

> <r_epik_State_Penalty>
0.0022204

> <r_epik_Charging_Adjusted_Penalty>
0.0022204

> <i_epik_Tot_Q>
0

> <i_epik_Tot_abs_Q>
0

> <r_epik_Metal_State_Penalty>
-0

> <b_epik_Metal_Only>
0

> <s_lp_Force_Field>
OPLS_2005

> <r_lp_Energy>
47.9091

> <b_lp_Chiralities_Consistent>
1

> <s_lp_Variant>
AV-unprocessed.smi:166-4

> <Gold.Version>
5.8.1

> <Gold.Id.Protein>
6NUR|6NUR_protein|mol2

> <Gold.PLP.Fitness>
41.4365

> <Gold.PLP.PLP>
-37.6917

> <Gold.PLP.part.hbond>
-4.1855

> <Gold.PLP.part.metal>
0.0000

> <Gold.PLP.part.buried>
-6.2129

> <Gold.PLP.part.nonpolar>
-28.6786

> <Gold.PLP.part.repulsive>
0.1382

> <Gold.PLP.ligand.clash>
0.0000

> <Gold.PLP.ligand.torsion>
1.1220

> <Gold.PLP.Chemscore.Hbond>
1.7223

> <Gold.PLP.Chemscore.CHOScore>
0.0000

> <Gold.PLP.Chemscore.Metal>
0.0000

> <Gold.Chemscore.Hbonds>
donor molecule, donor type, donor heavy atom, donor atom, acceptor molecule, acceptor atom, score
      P1  H  6896  6909       L1    22  0.90
      P1  H  6934  6947       L1     6  0.80

> <Gold.PLP.Chemscore.Internal.Correction>
0.8218

> <Gold.Rescore>
     Score         DG    S(hbond)    S(metal)    S(lipo)     H(rot)  DE(clash)    DE(int)     intcor
     11.76     -12.67       0.58        0.00     103.43       2.68       0.03       0.88       ----

> <Gold.Chemscore.Fitness>
11.7551

> <Gold.Chemscore.DG>
-12.6691

> <Gold.Chemscore.ZeroCoef>
-5.4800

> <Gold.Chemscore.Hbond>
0.5846

> <Gold.Chemscore.Metal>
0.0000

> <Gold.Chemscore.Lipo>
103.4320

> <Gold.Chemscore.Internal_Hbond>
0.0000

> <Gold.Chemscore.DEClash>
0.0305

> <Gold.Chemscore.DEInternal>
0.8835

> <Gold.Chemscore.Rot>
2.6817

> <Gold.Chemscore.Internal.Correction>
   9.000000E+99

> <Gold.Chemscore.Hbonds>
donor molecule, donor type, donor heavy atom, donor atom, acceptor molecule, acceptor atom, score
      P1  H  6896  6909       L1    22  0.08
      P1  H  6934  6947       L1     6  0.31

> <Gold.Chemscore.Hbond.Weighted>
-1.9526

> <Gold.Chemscore.Metal.Weighted>
-0.0000

> <Gold.Chemscore.Lipo.Weighted>
-12.1015

> <Gold.Chemscore.Internal_Hbond.Weighted>
0.0000

> <Gold.Chemscore.DEClash.Weighted>
0.0305

> <Gold.Chemscore.DEInternal.Weighted>
0.8835

> <Gold.Chemscore.Rot.Weighted>
6.8651

> <Gold.Chemscore.Internal.Correction.Weighted>
   9.000000E+99

> <Gold.Protein.RotatedTorsions>
[ 6907 6896 6895 6894 ] final   19.47 input  -60.11 | X-H torsion
[ 7974 7965 7964 7962 ] final  -64.91 input  175.53 | X-H torsion
[ 8008 7997 7996 7995 ] final  -22.32 input   59.86 | X-H torsion
[ 10167 10162 10161 10158 ] final   64.56 input  -65.29 | X-H torsion
[ 10718 10713 10712 10709 ] final -107.14 input   66.30 | X-H torsion
[ 10763 10752 10751 10750 ] final   25.61 input  -60.55 | X-H torsion
[ 11005 11000 10999 10996 ] final  127.75 input  -57.11 | X-H torsion

> <Gold.Protein.ActiveResidues>
 VAL166  LYS551  ARG553  GLY616  TRP617  ASP618  TYR619  PRO620  LYS621  CYS622 
 ASP623  PHE694  ASN695  SER759  ASP760  ASP761  ALA762  ILE779  LEU786  VAL792 
 PHE793  MET794  SER795  GLU796  ALA797  LYS798  CYS799  TRP800  GLU811  SER814 

> <Gold.Protein.RotatedAtoms>
  151.8814  135.0452  160.0488 H   0  0  0  0  0  0  0  0  0  0  0  0  # atno 6907 bound_to 6896
  152.2509  133.5210  159.5333 H   0  0  0  0  0  0  0  0  0  0  0  0  # atno 6908 bound_to 6896
  150.7083  134.0877  159.3963 H   0  0  0  0  0  0  0  0  0  0  0  0  # atno 6909 bound_to 6896
  145.7609  140.8862  143.0430 H   0  0  0  0  0  0  0  0  0  0  0  0  # atno 7974 bound_to 7965
  154.4651  140.2011  156.0140 H   0  0  0  0  0  0  0  0  0  0  0  0  # atno 8008 bound_to 7997
  156.0912  140.3258  155.7789 H   0  0  0  0  0  0  0  0  0  0  0  0  # atno 8009 bound_to 7997
  155.4954  140.0549  157.2938 H   0  0  0  0  0  0  0  0  0  0  0  0  # atno 8010 bound_to 7997
  140.1208  144.4733  150.6921 H   0  0  0  0  0  0  0  0  0  0  0  0  # atno 10167 bound_to 10162
  156.0422  130.5647  150.7779 H   0  0  0  0  0  0  0  0  0  0  0  0  # atno 10718 bound_to 10713
  153.0680  135.6579  154.0311 H   0  0  0  0  0  0  0  0  0  0  0  0  # atno 10763 bound_to 10752
  153.9963  135.2941  155.3408 H   0  0  0  0  0  0  0  0  0  0  0  0  # atno 10764 bound_to 10752
  154.7045  135.5231  153.8644 H   0  0  0  0  0  0  0  0  0  0  0  0  # atno 10765 bound_to 10752
  139.9524  134.9619  156.8901 H   0  0  0  0  0  0  0  0  0  0  0  0  # atno 11005 bound_to 11000
  144.6831  139.9721  143.7482 LP  0  0  0  0  0  0  0  0  0  0  0  0  # atno 17320 bound_to 7965
  146.0265  139.3297  143.0781 LP  0  0  0  0  0  0  0  0  0  0  0  0  # atno 17321 bound_to 7965
  140.6873  143.2357  151.5226 LP  0  0  0  0  0  0  0  0  0  0  0  0  # atno 17342 bound_to 10162
  139.5570  144.2252  152.1628 LP  0  0  0  0  0  0  0  0  0  0  0  0  # atno 17343 bound_to 10162
  157.5255  131.0934  151.0023 LP  0  0  0  0  0  0  0  0  0  0  0  0  # atno 17370 bound_to 10713
  157.0343  130.5724  149.5347 LP  0  0  0  0  0  0  0  0  0  0  0  0  # atno 17371 bound_to 10713
  140.5688  134.0463  155.7423 LP  0  0  0  0  0  0  0  0  0  0  0  0  # atno 17394 bound_to 11000
  141.1189  133.9494  157.2768 LP  0  0  0  0  0  0  0  0  0  0  0  0  # atno 17395 bound_to 11000

$$$$
