AV-unprocessed.smi:102|AV-procd|sdf|963|dock7
  -GOLD-   2262017503D 1   1.00000     0.00000
 Structure written by MMmdl.
 43 44  0  0  0  0  0  0  0  0  2 V2000
  147.4762  135.2706  162.7143 C   0  0  0  0  0  0  0  0  0  0  0  0
  147.7470  135.9353  161.3713 C   0  0  0  0  0  0  0  0  0  0  0  0
  147.6773  137.1563  161.2307 O   0  0  0  0  0  0  0  0  0  0  0  0
  148.0499  135.0463  160.4153 O   0  0  0  0  0  0  0  0  0  0  0  0
  147.7756  135.3462  159.0555 C   0  0  0  0  0  0  0  0  0  0  0  0
  148.4978  134.3640  158.1182 C   0  0  2  0  0  0  0  0  0  0  0  0
  149.7987  134.8590  157.8041 O   0  0  0  0  0  0  0  0  0  0  0  0
  149.9265  135.0702  156.4278 C   0  0  2  0  0  0  0  0  0  0  0  0
  150.5933  136.4043  156.1845 N   0  0  0  0  0  0  0  0  0  0  0  0
  150.0054  137.3531  155.3652 C   0  0  0  0  0  0  0  0  0  0  0  0
  150.6108  138.5306  155.1111 C   0  0  0  0  0  0  0  0  0  0  0  0
  150.0145  139.4298  154.3094 F   0  0  0  0  0  0  0  0  0  0  0  0
  151.9131  138.8177  155.7092 C   0  0  0  0  0  0  0  0  0  0  0  0
  152.4611  139.8935  155.4740 O   0  0  0  0  0  0  0  0  0  0  0  0
  152.4693  137.8649  156.5123 N   0  5  0  0  0  0  0  0  0  0  0  0
  151.8623  136.6687  156.7680 C   0  0  0  0  0  0  0  0  0  0  0  0
  152.3650  135.7998  157.4803 O   0  0  0  0  0  0  0  0  0  0  0  0
  148.5181  135.0577  155.8319 C   0  0  1  0  0  0  0  0  0  0  0  0
  148.5290  134.6046  154.4841 O   0  0  0  0  0  0  0  0  0  0  0  0
  147.4056  134.1318  153.9233 C   0  0  0  0  0  0  0  0  0  0  0  0
  147.6872  133.2850  152.6899 C   0  0  0  0  0  0  0  0  0  0  0  0
  146.2575  134.3271  154.3228 O   0  0  0  0  0  0  0  0  0  0  0  0
  147.7797  134.1252  156.7816 C   0  0  1  0  0  0  0  0  0  0  0  0
  147.9473  132.7665  156.3840 O   0  0  0  0  0  0  0  0  0  0  0  0
  147.4960  131.7691  157.1639 C   0  0  0  0  0  0  0  0  0  0  0  0
  147.8153  130.3955  156.5892 C   0  0  0  0  0  0  0  0  0  0  0  0
  146.8956  131.8971  158.2309 O   0  0  0  0  0  0  0  0  0  0  0  0
  146.8473  134.3893  162.5831 H   0  0  0  0  0  0  0  0  0  0  0  0
  146.9646  135.9615  163.3850 H   0  0  0  0  0  0  0  0  0  0  0  0
  148.4127  134.9633  163.1802 H   0  0  0  0  0  0  0  0  0  0  0  0
  146.7017  135.3074  158.8670 H   0  0  0  0  0  0  0  0  0  0  0  0
  148.1043  136.3652  158.8479 H   0  0  0  0  0  0  0  0  0  0  0  0
  148.6200  133.4254  158.6600 H   0  0  0  0  0  0  0  0  0  0  0  0
  150.5849  134.2982  156.0257 H   0  0  0  0  0  0  0  0  0  0  0  0
  149.0447  137.1612  154.9144 H   0  0  0  0  0  0  0  0  0  0  0  0
  148.1116  136.0674  155.9105 H   0  0  0  0  0  0  0  0  0  0  0  0
  148.2569  133.8600  151.9594 H   0  0  0  0  0  0  0  0  0  0  0  0
  146.7554  132.9623  152.2247 H   0  0  0  0  0  0  0  0  0  0  0  0
  148.2638  132.4007  152.9616 H   0  0  0  0  0  0  0  0  0  0  0  0
  146.7198  134.3811  156.8250 H   0  0  0  0  0  0  0  0  0  0  0  0
  147.4453  130.3181  155.5668 H   0  0  0  0  0  0  0  0  0  0  0  0
  147.3488  129.6118  157.1865 H   0  0  0  0  0  0  0  0  0  0  0  0
  148.8927  130.2301  156.5820 H   0  0  0  0  0  0  0  0  0  0  0  0
  1  2  1  0  0  0  0
  1 28  1  0  0  0  0
  1 29  1  0  0  0  0
  1 30  1  0  0  0  0
  2  3  2  0  0  0  0
  2  4  1  0  0  0  0
  4  5  1  0  0  0  0
  5  6  1  0  0  0  0
  5 31  1  0  0  0  0
  5 32  1  0  0  0  0
  6 23  1  0  0  0  0
  6  7  1  0  0  0  0
  6 33  1  0  0  0  0
  7  8  1  0  0  0  0
  8  9  1  0  0  0  0
  8 18  1  0  0  0  0
  8 34  1  0  0  0  0
  9 16  1  0  0  0  0
  9 10  1  0  0  0  0
 10 11  2  0  0  0  0
 10 35  1  0  0  0  0
 11 12  1  0  0  0  0
 11 13  1  0  0  0  0
 13 14  2  0  0  0  0
 13 15  1  0  0  0  0
 15 16  1  0  0  0  0
 16 17  2  0  0  0  0
 18 19  1  0  0  0  0
 18 23  1  0  0  0  0
 18 36  1  0  0  0  0
 19 20  1  0  0  0  0
 20 21  1  0  0  0  0
 20 22  2  0  0  0  0
 21 37  1  0  0  0  0
 21 38  1  0  0  0  0
 21 39  1  0  0  0  0
 23 24  1  0  0  0  0
 23 40  1  0  0  0  0
 24 25  1  0  0  0  0
 25 26  1  0  0  0  0
 25 27  2  0  0  0  0
 26 41  1  0  0  0  0
 26 42  1  0  0  0  0
 26 43  1  0  0  0  0
M  CHG  1  15  -1
M  END
> <s_m_source_file>
AV-unprocessed.smi

> <i_m_source_file_index>
102

> <i_lp_mmshare_version>
43012

> <i_f3d_flags>
0

> <s_epik_input>
W0NIM11DKD1PKU9bQ0gyXVtDQEBIXTFPW0NASF0oW0NAQEhdKE9DKD1PKVtDSDNdKVtDQEhdMU9DKD1PKVtDSDNdKW4yW2NIXWMoRiljKD1PKVtuSF1jMj1P

> <s_epik_cmdline>
J2VwaWtfcHl0aG9uJywgJy1waCcsICc3LjAnLCAnLXRuJywgJzgnLCAnLW1hJywgJzIwMCcsICctbWV0YWxfYmluZGluZycsICctaW1hZScsICc8aW5maWxlLm1hZT4nLCAnLW9tYWUnLCAnPG91dGZpbGUubWFlPic=

> <r_epik_Ionization_Penalty>
1.40304

> <r_epik_Ionization_Penalty_Charging>
1.43915e-08

> <r_epik_Ionization_Penalty_Neutral>
1.40304

> <r_epik_State_Penalty>
1.48536

> <r_epik_Charging_Adjusted_Penalty>
1.48536

> <i_epik_Tot_Q>
-1

> <i_epik_Tot_abs_Q>
1

> <r_epik_Metal_State_Penalty>
0.00663881

> <b_epik_Metal_Only>
0

> <s_epik_Chemistry_Notes>
This compound has an ester and may undergo hydrolysis at high or low pH. This compound contains an acetal/aminal-like group ( X-CH(R)-Y where X, Y are N, S, or O) that may be acid/base labile, releasing an aldehyde.

> <s_lp_Force_Field>
OPLS_2005

> <r_lp_Energy>
27.0192

> <b_lp_Chiralities_Consistent>
1

> <s_lp_Variant>
AV-unprocessed.smi:102-19

> <Gold.Version>
5.8.1

> <Gold.Id.Protein>
6NUR|6NUR_protein|mol2

> <Gold.PLP.Fitness>
40.7793

> <Gold.PLP.PLP>
-31.9777

> <Gold.PLP.part.hbond>
-5.7338

> <Gold.PLP.part.metal>
0.0000

> <Gold.PLP.part.buried>
-2.6966

> <Gold.PLP.part.nonpolar>
-23.0066

> <Gold.PLP.part.repulsive>
0.5610

> <Gold.PLP.ligand.clash>
0.0000

> <Gold.PLP.ligand.torsion>
1.2765

> <Gold.PLP.Chemscore.Hbond>
3.7496

> <Gold.PLP.Chemscore.CHOScore>
0.0000

> <Gold.PLP.Chemscore.Metal>
0.0000

> <Gold.Chemscore.Hbonds>
donor molecule, donor type, donor heavy atom, donor atom, acceptor molecule, acceptor atom, score
      P1  H  6896  6909       L1     7  0.78
      P1  H  6931  6943       L1     3  0.96
      P1  H  6934  6947       L1     3  0.86
      P1  H  7989  7998       L1    14  0.16
      P1  H  7997  8008       L1    14  0.96

> <Gold.PLP.Chemscore.Internal.Correction>
0.1059

> <Gold.Rescore>
     Score         DG    S(hbond)    S(metal)    S(lipo)     H(rot)  DE(clash)    DE(int)     intcor
      6.89     -10.52       3.40        0.00      33.47       4.00       0.01       3.62       ----

> <Gold.Chemscore.Fitness>
6.8936

> <Gold.Chemscore.DG>
-10.5228

> <Gold.Chemscore.ZeroCoef>
-5.4800

> <Gold.Chemscore.Hbond>
3.3996

> <Gold.Chemscore.Metal>
0.0000

> <Gold.Chemscore.Lipo>
33.4667

> <Gold.Chemscore.Internal_Hbond>
0.0000

> <Gold.Chemscore.DEClash>
0.0052

> <Gold.Chemscore.DEInternal>
3.6239

> <Gold.Chemscore.Rot>
3.9951

> <Gold.Chemscore.Internal.Correction>
   9.000000E+99

> <Gold.Chemscore.Hbonds>
donor molecule, donor type, donor heavy atom, donor atom, acceptor molecule, acceptor atom, score
      P1  H  6896  6909       L1     7  0.20
      P1  H  6931  6943       L1     3  0.90
      P1  H  6934  6947       L1     3  0.84
      P1  H  7989  7998       L1    14  0.14
      P1  H  7997  8008       L1    14  0.88

> <Gold.Chemscore.Hbond.Weighted>
-11.3546

> <Gold.Chemscore.Metal.Weighted>
-0.0000

> <Gold.Chemscore.Lipo.Weighted>
-3.9156

> <Gold.Chemscore.Internal_Hbond.Weighted>
0.0000

> <Gold.Chemscore.DEClash.Weighted>
0.0052

> <Gold.Chemscore.DEInternal.Weighted>
3.6239

> <Gold.Chemscore.Rot.Weighted>
10.2274

> <Gold.Chemscore.Internal.Correction.Weighted>
   9.000000E+99

> <Gold.Protein.RotatedTorsions>
[ 6907 6896 6895 6894 ] final   50.89 input  -60.11 | X-H torsion
[ 7974 7965 7964 7962 ] final  157.64 input  175.53 | X-H torsion
[ 8008 7997 7996 7995 ] final  -16.57 input   59.86 | X-H torsion
[ 10167 10162 10161 10158 ] final  -94.74 input  -65.29 | X-H torsion
[ 10718 10713 10712 10709 ] final   78.65 input   66.30 | X-H torsion
[ 10763 10752 10751 10750 ] final  -38.53 input  -60.55 | X-H torsion
[ 11005 11000 10999 10996 ] final -105.17 input  -57.11 | X-H torsion

> <Gold.Protein.ActiveResidues>
 VAL166  LYS551  ARG553  GLY616  TRP617  ASP618  TYR619  PRO620  LYS621  CYS622 
 ASP623  PHE694  ASN695  SER759  ASP760  ASP761  ALA762  ILE779  LEU786  VAL792 
 PHE793  MET794  SER795  GLU796  ALA797  LYS798  CYS799  TRP800  GLU811  SER814 

> <Gold.Protein.RotatedAtoms>
  152.3067  134.7546  160.0345 H   0  0  0  0  0  0  0  0  0  0  0  0  # atno 6907 bound_to 6896
  151.8040  133.3368  159.3543 H   0  0  0  0  0  0  0  0  0  0  0  0  # atno 6908 bound_to 6896
  150.7300  134.5656  159.5909 H   0  0  0  0  0  0  0  0  0  0  0  0  # atno 6909 bound_to 6896
  144.7891  139.7369  143.6228 H   0  0  0  0  0  0  0  0  0  0  0  0  # atno 7974 bound_to 7965
  154.5043  140.2166  155.9282 H   0  0  0  0  0  0  0  0  0  0  0  0  # atno 8008 bound_to 7997
  156.1474  140.3168  155.8559 H   0  0  0  0  0  0  0  0  0  0  0  0  # atno 8009 bound_to 7997
  155.4005  140.0484  157.3027 H   0  0  0  0  0  0  0  0  0  0  0  0  # atno 8010 bound_to 7997
  140.3114  143.3103  152.0145 H   0  0  0  0  0  0  0  0  0  0  0  0  # atno 10167 bound_to 10162
  157.6751  130.9878  150.1817 H   0  0  0  0  0  0  0  0  0  0  0  0  # atno 10718 bound_to 10713
  153.9143  135.6789  153.4750 H   0  0  0  0  0  0  0  0  0  0  0  0  # atno 10763 bound_to 10752
  153.1062  135.4804  154.8952 H   0  0  0  0  0  0  0  0  0  0  0  0  # atno 10764 bound_to 10752
  154.7511  135.3185  154.8512 H   0  0  0  0  0  0  0  0  0  0  0  0  # atno 10765 bound_to 10752
  141.1066  133.8785  157.1701 H   0  0  0  0  0  0  0  0  0  0  0  0  # atno 11005 bound_to 11000
  146.2136  139.5510  142.9665 LP  0  0  0  0  0  0  0  0  0  0  0  0  # atno 17320 bound_to 7965
  145.5841  141.0378  143.2106 LP  0  0  0  0  0  0  0  0  0  0  0  0  # atno 17321 bound_to 7965
  139.4893  144.6382  151.6932 LP  0  0  0  0  0  0  0  0  0  0  0  0  # atno 17342 bound_to 10162
  140.5565  144.0339  150.6150 LP  0  0  0  0  0  0  0  0  0  0  0  0  # atno 17343 bound_to 10162
  156.2548  130.3704  149.8193 LP  0  0  0  0  0  0  0  0  0  0  0  0  # atno 17370 bound_to 10713
  156.5956  130.8524  151.3419 LP  0  0  0  0  0  0  0  0  0  0  0  0  # atno 17371 bound_to 10713
  139.9939  135.0054  157.0038 LP  0  0  0  0  0  0  0  0  0  0  0  0  # atno 17394 bound_to 11000
  140.4886  134.1216  155.7229 LP  0  0  0  0  0  0  0  0  0  0  0  0  # atno 17395 bound_to 11000

$$$$
