AV-unprocessed.smi:3248|AV-procd|sdf|12415|dock3
  -GOLD-   2272018293D 1   1.00000     0.00000
 Structure written by MMmdl.
 38 39  0  0  0  0  0  0  0  0  1 V2000
  151.0704  144.8411  158.2814 C   0  0  0  0  0  0  0  0  0  0  0  0
  151.0295  143.3122  158.4224 C   0  0  2  0  0  0  0  0  0  0  0  0
  152.3945  142.7465  158.8590 C   0  0  0  0  0  0  0  0  0  0  0  0
  152.6131  142.8791  160.2892 N   0  0  0  0  0  0  0  0  0  0  0  0
  153.2978  142.0299  161.1328 C   0  0  0  0  0  0  0  0  0  0  0  0
  153.2472  142.5733  162.3846 C   0  0  0  0  0  0  0  0  0  0  0  0
  152.5006  143.7711  162.2035 C   0  0  0  0  0  0  0  0  0  0  0  0
  152.1217  143.9513  160.9484 N   0  0  0  0  0  0  0  0  0  0  0  0
  150.6210  142.7090  157.1559 N   0  0  0  0  0  0  0  0  0  0  0  0
  150.6880  141.4028  156.8493 C   0  0  0  0  0  0  0  0  0  0  0  0
  151.1216  140.5612  157.6360 O   0  0  0  0  0  0  0  0  0  0  0  0
  150.3580  141.1402  155.5607 N   0  0  0  0  0  0  0  0  0  0  0  0
  149.2579  141.8558  154.8969 C   0  0  0  0  0  0  0  0  0  0  0  0
  147.9809  141.0008  155.0174 C   0  0  0  0  0  0  0  0  0  0  0  0
  148.1981  139.7172  154.4352 O   0  0  0  0  0  0  0  0  0  0  0  0
  149.2940  139.0102  155.0130 C   0  0  0  0  0  0  0  0  0  0  0  0
  150.5763  139.8541  154.8700 C   0  0  2  0  0  0  0  0  0  0  0  0
  151.8477  139.0829  155.2831 C   0  0  0  0  0  0  0  0  0  0  0  0
  151.3602  145.3134  159.2204 H   0  0  0  0  0  0  0  0  0  0  0  0
  150.0936  145.2380  158.0029 H   0  0  0  0  0  0  0  0  0  0  0  0
  151.7859  145.1503  157.5187 H   0  0  0  0  0  0  0  0  0  0  0  0
  150.3009  143.0624  159.1960 H   0  0  0  0  0  0  0  0  0  0  0  0
  152.4855  141.6958  158.5775 H   0  0  0  0  0  0  0  0  0  0  0  0
  153.1997  143.2755  158.3476 H   0  0  0  0  0  0  0  0  0  0  0  0
  153.7609  141.1220  160.7749 H   0  0  0  0  0  0  0  0  0  0  0  0
  153.6790  142.1766  163.2915 H   0  0  0  0  0  0  0  0  0  0  0  0
  152.2248  144.5099  162.9415 H   0  0  0  0  0  0  0  0  0  0  0  0
  150.3006  143.3420  156.4374 H   0  0  0  0  0  0  0  0  0  0  0  0
  149.0719  142.8456  155.3155 H   0  0  0  0  0  0  0  0  0  0  0  0
  149.5046  142.0216  153.8473 H   0  0  0  0  0  0  0  0  0  0  0  0
  147.6850  140.8883  156.0617 H   0  0  0  0  0  0  0  0  0  0  0  0
  147.1522  141.4858  154.5014 H   0  0  0  0  0  0  0  0  0  0  0  0
  149.0853  138.7817  156.0594 H   0  0  0  0  0  0  0  0  0  0  0  0
  149.4041  138.0582  154.4929 H   0  0  0  0  0  0  0  0  0  0  0  0
  150.7095  140.0803  153.8104 H   0  0  0  0  0  0  0  0  0  0  0  0
  152.0394  138.2666  154.5862 H   0  0  0  0  0  0  0  0  0  0  0  0
  151.7626  138.6350  156.2726 H   0  0  0  0  0  0  0  0  0  0  0  0
  152.7247  139.7309  155.2736 H   0  0  0  0  0  0  0  0  0  0  0  0
  1  2  1  0  0  0  0
  1 19  1  0  0  0  0
  1 20  1  0  0  0  0
  1 21  1  0  0  0  0
  2  3  1  0  0  0  0
  2  9  1  0  0  0  0
  2 22  1  0  0  0  0
  3  4  1  0  0  0  0
  3 23  1  0  0  0  0
  3 24  1  0  0  0  0
  4  8  1  0  0  0  0
  4  5  1  0  0  0  0
  5  6  2  0  0  0  0
  5 25  1  0  0  0  0
  6  7  1  0  0  0  0
  6 26  1  0  0  0  0
  7  8  2  0  0  0  0
  7 27  1  0  0  0  0
  9 10  1  0  0  0  0
  9 28  1  0  0  0  0
 10 11  2  0  0  0  0
 10 12  1  0  0  0  0
 12 17  1  0  0  0  0
 12 13  1  0  0  0  0
 13 14  1  0  0  0  0
 13 29  1  0  0  0  0
 13 30  1  0  0  0  0
 14 15  1  0  0  0  0
 14 31  1  0  0  0  0
 14 32  1  0  0  0  0
 15 16  1  0  0  0  0
 16 17  1  0  0  0  0
 16 33  1  0  0  0  0
 16 34  1  0  0  0  0
 17 18  1  0  0  0  0
 17 35  1  0  0  0  0
 18 36  1  0  0  0  0
 18 37  1  0  0  0  0
 18 38  1  0  0  0  0
M  END
> <s_m_source_file>
AV-unprocessed.smi

> <i_m_source_file_index>
3248

> <i_lp_mmshare_version>
43012

> <i_f3d_flags>
0

> <s_epik_input>
bjFbY0hdW2NIXVtjSF1uMVtDSDJdW0NAQEhdKFtDSDNdKVtOSF1DKD1PKU4yW0NIMl1bQ0gyXU9bQ0gyXVtDQEhdMltDSDNd

> <s_epik_cmdline>
J2VwaWtfcHl0aG9uJywgJy1waCcsICc3LjAnLCAnLXRuJywgJzgnLCAnLW1hJywgJzIwMCcsICctbWV0YWxfYmluZGluZycsICctaW1hZScsICc8aW5maWxlLm1hZT4nLCAnLW9tYWUnLCAnPG91dGZpbGUubWFlPic=

> <r_lp_tautomer_probability>
1

> <r_epik_Ionization_Penalty>
4.45233e-05

> <r_epik_Ionization_Penalty_Charging>
0

> <r_epik_Ionization_Penalty_Neutral>
4.45233e-05

> <r_epik_State_Penalty>
-0

> <r_epik_Charging_Adjusted_Penalty>
0

> <i_epik_Tot_Q>
0

> <i_epik_Tot_abs_Q>
0

> <r_epik_Metal_State_Penalty>
-0

> <b_epik_Metal_Only>
0

> <s_lp_Force_Field>
OPLS_2005

> <r_lp_Energy>
31.9687

> <b_lp_Chiralities_Consistent>
1

> <s_lp_Variant>
AV-unprocessed.smi:3248-3

> <Gold.Version>
5.8.1

> <Gold.Id.Protein>
6NUR|6NUR_protein|mol2

> <Gold.PLP.Fitness>
42.5336

> <Gold.PLP.PLP>
-41.5680

> <Gold.PLP.part.hbond>
-0.9648

> <Gold.PLP.part.metal>
0.0000

> <Gold.PLP.part.buried>
-1.8599

> <Gold.PLP.part.nonpolar>
-39.0628

> <Gold.PLP.part.repulsive>
0.2379

> <Gold.PLP.ligand.clash>
0.0000

> <Gold.PLP.ligand.torsion>
1.0024

> <Gold.PLP.Chemscore.Hbond>
0.8288

> <Gold.PLP.Chemscore.CHOScore>
0.0000

> <Gold.PLP.Chemscore.Metal>
0.0000

> <Gold.Chemscore.Hbonds>
donor molecule, donor type, donor heavy atom, donor atom, acceptor molecule, acceptor atom, score
      L1  H     9    28       P1  8028  0.78

> <Gold.PLP.Chemscore.Internal.Correction>
0.4842

> <Gold.Rescore>
     Score         DG    S(hbond)    S(metal)    S(lipo)     H(rot)  DE(clash)    DE(int)     intcor
     12.55     -16.26       0.87        0.00      98.50       1.42       0.01       3.70       ----

> <Gold.Chemscore.Fitness>
12.5504

> <Gold.Chemscore.DG>
-16.2613

> <Gold.Chemscore.ZeroCoef>
-5.4800

> <Gold.Chemscore.Hbond>
0.8653

> <Gold.Chemscore.Metal>
0.0000

> <Gold.Chemscore.Lipo>
98.4962

> <Gold.Chemscore.Internal_Hbond>
0.0000

> <Gold.Chemscore.DEClash>
0.0073

> <Gold.Chemscore.DEInternal>
3.7036

> <Gold.Chemscore.Rot>
1.4191

> <Gold.Chemscore.Internal.Correction>
   9.000000E+99

> <Gold.Chemscore.Hbonds>
donor molecule, donor type, donor heavy atom, donor atom, acceptor molecule, acceptor atom, score
      L1  H     9    28       P1  8028  0.76

> <Gold.Chemscore.Hbond.Weighted>
-2.8902

> <Gold.Chemscore.Metal.Weighted>
-0.0000

> <Gold.Chemscore.Lipo.Weighted>
-11.5241

> <Gold.Chemscore.Internal_Hbond.Weighted>
0.0000

> <Gold.Chemscore.DEClash.Weighted>
0.0073

> <Gold.Chemscore.DEInternal.Weighted>
3.7036

> <Gold.Chemscore.Rot.Weighted>
3.6330

> <Gold.Chemscore.Internal.Correction.Weighted>
   9.000000E+99

> <Gold.Protein.RotatedTorsions>
[ 6907 6896 6895 6894 ] final  -75.80 input  -60.11 | X-H torsion
[ 7974 7965 7964 7962 ] final   79.18 input  175.53 | X-H torsion
[ 8008 7997 7996 7995 ] final   54.01 input   59.86 | X-H torsion
[ 10167 10162 10161 10158 ] final  -88.53 input  -65.29 | X-H torsion
[ 10718 10713 10712 10709 ] final  107.87 input   66.30 | X-H torsion
[ 10763 10752 10751 10750 ] final  -36.08 input  -60.55 | X-H torsion
[ 11005 11000 10999 10996 ] final  -39.15 input  -57.11 | X-H torsion

> <Gold.Protein.ActiveResidues>
 VAL166  LYS551  ARG553  GLY616  TRP617  ASP618  TYR619  PRO620  LYS621  CYS622 
 ASP623  PHE694  ASN695  SER759  ASP760  ASP761  ALA762  ILE779  LEU786  VAL792 
 PHE793  MET794  SER795  GLU796  ALA797  LYS798  CYS799  TRP800  GLU811  SER814 

> <Gold.Protein.RotatedAtoms>
  150.7047  134.4667  159.5405 H   0  0  0  0  0  0  0  0  0  0  0  0  # atno 6907 bound_to 6896
  152.2331  134.8300  160.0480 H   0  0  0  0  0  0  0  0  0  0  0  0  # atno 6908 bound_to 6896
  151.9108  133.3526  159.3900 H   0  0  0  0  0  0  0  0  0  0  0  0  # atno 6909 bound_to 6896
  145.6676  139.2488  143.1887 H   0  0  0  0  0  0  0  0  0  0  0  0  # atno 7974 bound_to 7965
  155.4776  140.3467  155.4335 H   0  0  0  0  0  0  0  0  0  0  0  0  # atno 8008 bound_to 7997
  156.1060  140.1448  156.9432 H   0  0  0  0  0  0  0  0  0  0  0  0  # atno 8009 bound_to 7997
  154.4724  140.0896  156.7157 H   0  0  0  0  0  0  0  0  0  0  0  0  # atno 8010 bound_to 7997
  140.3738  143.2781  151.9468 H   0  0  0  0  0  0  0  0  0  0  0  0  # atno 10167 bound_to 10162
  157.6610  131.0882  150.6221 H   0  0  0  0  0  0  0  0  0  0  0  0  # atno 10718 bound_to 10713
  153.8738  135.6828  153.4772 H   0  0  0  0  0  0  0  0  0  0  0  0  # atno 10763 bound_to 10752
  153.1272  135.4713  154.9289 H   0  0  0  0  0  0  0  0  0  0  0  0  # atno 10764 bound_to 10752
  154.7701  135.3236  154.8157 H   0  0  0  0  0  0  0  0  0  0  0  0  # atno 10765 bound_to 10752
  141.0080  133.6922  156.2148 H   0  0  0  0  0  0  0  0  0  0  0  0  # atno 11005 bound_to 11000
  146.1073  140.7472  142.9520 LP  0  0  0  0  0  0  0  0  0  0  0  0  # atno 17320 bound_to 7965
  144.7068  140.3882  143.7112 LP  0  0  0  0  0  0  0  0  0  0  0  0  # atno 17321 bound_to 7965
  139.4801  144.5882  151.7817 LP  0  0  0  0  0  0  0  0  0  0  0  0  # atno 17342 bound_to 10162
  140.5006  144.1174  150.5970 LP  0  0  0  0  0  0  0  0  0  0  0  0  # atno 17343 bound_to 10162
  156.6524  130.4489  149.5715 LP  0  0  0  0  0  0  0  0  0  0  0  0  # atno 17370 bound_to 10713
  156.2127  130.6689  151.1287 LP  0  0  0  0  0  0  0  0  0  0  0  0  # atno 17371 bound_to 10713
  140.6780  134.4797  157.5588 LP  0  0  0  0  0  0  0  0  0  0  0  0  # atno 17394 bound_to 11000
  139.9074  134.8419  156.1654 LP  0  0  0  0  0  0  0  0  0  0  0  0  # atno 17395 bound_to 11000

$$$$
