AV-unprocessed.smi:1207|AV-procd|sdf|5050|dock10
  -GOLD-   22720 4 83D 1   1.00000     0.00000
 Structure written by MMmdl.
 51 53  0  0  0  0  0  0  0  0  1 V2000
  152.9720  142.8254  161.4622 C   0  0  0  0  0  0  0  0  0  0  0  0
  152.3742  142.4424  160.1199 C   0  0  0  0  0  0  0  0  0  0  0  0
  152.8338  141.2743  159.4708 C   0  0  0  0  0  0  0  0  0  0  0  0
  152.3026  140.8828  158.2222 C   0  0  0  0  0  0  0  0  0  0  0  0
  152.5993  139.7927  157.4219 N   0  0  0  0  0  0  0  0  0  0  0  0
  151.7743  139.9818  156.3962 C   0  0  0  0  0  0  0  0  0  0  0  0
  150.9777  141.0669  156.4366 N   0  0  0  0  0  0  0  0  0  0  0  0
  150.0057  141.4716  155.4361 C   0  0  0  0  0  0  0  0  0  0  0  0
  149.3700  140.2700  154.7092 C   0  0  1  0  0  0  0  0  0  0  0  0
  150.3106  139.7522  153.7872 O   0  0  0  0  0  0  0  0  0  0  0  0
  148.9600  139.1507  155.6916 C   0  0  0  0  0  0  0  0  0  0  0  0
  148.2704  138.0089  155.0875 N   0  0  0  0  0  0  0  0  0  0  0  0
  147.1436  138.4747  154.2833 C   0  0  0  0  0  0  0  0  0  0  0  0
  147.8358  137.0307  156.0883 C   0  0  0  0  0  0  0  0  0  0  0  0
  148.9829  136.4134  156.8471 C   0  0  0  0  0  0  0  0  0  0  0  0
  150.1156  135.7279  156.3220 C   0  0  0  0  0  0  0  0  0  0  0  0
  150.4557  135.4538  154.8851 C   0  0  0  0  0  0  0  0  0  0  0  0
  150.9310  135.3159  157.2783 N   0  0  0  0  0  0  0  0  0  0  0  0
  150.3468  135.7235  158.4816 O   0  0  0  0  0  0  0  0  0  0  0  0
  149.1898  136.3746  158.1987 C   0  0  0  0  0  0  0  0  0  0  0  0
  148.4118  136.8902  159.3619 C   0  0  0  0  0  0  0  0  0  0  0  0
  151.2924  141.6995  157.6348 C   0  0  0  0  0  0  0  0  0  0  0  0
  150.8268  142.8636  158.2712 C   0  0  0  0  0  0  0  0  0  0  0  0
  151.3671  143.2396  159.5189 C   0  0  0  0  0  0  0  0  0  0  0  0
  150.8558  144.4974  160.1986 C   0  0  0  0  0  0  0  0  0  0  0  0
  153.7368  142.1138  161.7751 H   0  0  0  0  0  0  0  0  0  0  0  0
  152.2000  142.8467  162.2317 H   0  0  0  0  0  0  0  0  0  0  0  0
  153.4348  143.8109  161.4074 H   0  0  0  0  0  0  0  0  0  0  0  0
  153.6004  140.6664  159.9285 H   0  0  0  0  0  0  0  0  0  0  0  0
  151.7455  139.2911  155.5661 H   0  0  0  0  0  0  0  0  0  0  0  0
  149.2387  142.0808  155.9166 H   0  0  0  0  0  0  0  0  0  0  0  0
  150.5123  142.1189  154.7189 H   0  0  0  0  0  0  0  0  0  0  0  0
  148.4952  140.6200  154.1587 H   0  0  0  0  0  0  0  0  0  0  0  0
  149.9087  139.7240  152.9326 H   0  0  0  0  0  0  0  0  0  0  0  0
  149.8198  138.8145  156.2738 H   0  0  0  0  0  0  0  0  0  0  0  0
  148.2805  139.5954  156.4201 H   0  0  0  0  0  0  0  0  0  0  0  0
  146.6627  137.6497  153.7576 H   0  0  0  0  0  0  0  0  0  0  0  0
  147.4750  139.1863  153.5265 H   0  0  0  0  0  0  0  0  0  0  0  0
  146.3930  138.9658  154.9042 H   0  0  0  0  0  0  0  0  0  0  0  0
  147.1746  137.5135  156.8062 H   0  0  0  0  0  0  0  0  0  0  0  0
  147.2274  136.2641  155.6067 H   0  0  0  0  0  0  0  0  0  0  0  0
  149.6182  134.9834  154.3690 H   0  0  0  0  0  0  0  0  0  0  0  0
  151.3156  134.7893  154.7914 H   0  0  0  0  0  0  0  0  0  0  0  0
  150.6920  136.3792  154.3594 H   0  0  0  0  0  0  0  0  0  0  0  0
  147.7471  137.6998  159.0601 H   0  0  0  0  0  0  0  0  0  0  0  0
  149.0773  137.2732  160.1357 H   0  0  0  0  0  0  0  0  0  0  0  0
  147.8031  136.0988  159.7990 H   0  0  0  0  0  0  0  0  0  0  0  0
  150.0573  143.4597  157.8034 H   0  0  0  0  0  0  0  0  0  0  0  0
  150.0797  144.9825  159.6058 H   0  0  0  0  0  0  0  0  0  0  0  0
  151.6665  145.2129  160.3381 H   0  0  0  0  0  0  0  0  0  0  0  0
  150.4314  144.2590  161.1741 H   0  0  0  0  0  0  0  0  0  0  0  0
  1  2  1  0  0  0  0
  1 26  1  0  0  0  0
  1 27  1  0  0  0  0
  1 28  1  0  0  0  0
  2 24  1  0  0  0  0
  2  3  2  0  0  0  0
  3  4  1  0  0  0  0
  3 29  1  0  0  0  0
  4 22  2  0  0  0  0
  4  5  1  0  0  0  0
  5  6  2  0  0  0  0
  6  7  1  0  0  0  0
  6 30  1  0  0  0  0
  7  8  1  0  0  0  0
  7 22  1  0  0  0  0
  8  9  1  0  0  0  0
  8 31  1  0  0  0  0
  8 32  1  0  0  0  0
  9 10  1  0  0  0  0
  9 11  1  0  0  0  0
  9 33  1  0  0  0  0
 10 34  1  0  0  0  0
 11 12  1  0  0  0  0
 11 35  1  0  0  0  0
 11 36  1  0  0  0  0
 12 13  1  0  0  0  0
 12 14  1  0  0  0  0
 13 37  1  0  0  0  0
 13 38  1  0  0  0  0
 13 39  1  0  0  0  0
 14 15  1  0  0  0  0
 14 40  1  0  0  0  0
 14 41  1  0  0  0  0
 15 20  2  0  0  0  0
 15 16  1  0  0  0  0
 16 17  1  0  0  0  0
 16 18  2  0  0  0  0
 17 42  1  0  0  0  0
 17 43  1  0  0  0  0
 17 44  1  0  0  0  0
 18 19  1  0  0  0  0
 19 20  1  0  0  0  0
 20 21  1  0  0  0  0
 21 45  1  0  0  0  0
 21 46  1  0  0  0  0
 21 47  1  0  0  0  0
 22 23  1  0  0  0  0
 23 24  2  0  0  0  0
 23 48  1  0  0  0  0
 24 25  1  0  0  0  0
 25 49  1  0  0  0  0
 25 50  1  0  0  0  0
 25 51  1  0  0  0  0
M  END
> <s_m_source_file>
AV-unprocessed.smi

> <i_m_source_file_index>
1207

> <i_lp_mmshare_version>
43012

> <i_f3d_flags>
0

> <s_epik_input>
W0NIM11jKFtjSF0xKWMoW0NIM10pW2NIXWMoYzEyKW4oW2NIXW4yKVtDSDJdW0NASF0oW09IXSlbQ0gyXU4oW0NIM10pW0NIMl1jM2MoW0NIM10pbm9jM1tDSDNd

> <s_epik_cmdline>
J2VwaWtfcHl0aG9uJywgJy1waCcsICc3LjAnLCAnLXRuJywgJzgnLCAnLW1hJywgJzIwMCcsICctbWV0YWxfYmluZGluZycsICctaW1hZScsICc8aW5maWxlLm1hZT4nLCAnLW9tYWUnLCAnPG91dGZpbGUubWFlPic=

> <r_epik_Ionization_Penalty>
0.374039

> <r_epik_Ionization_Penalty_Charging>
0

> <r_epik_Ionization_Penalty_Neutral>
0.374039

> <r_epik_State_Penalty>
0.350767

> <r_epik_Charging_Adjusted_Penalty>
0.350767

> <i_epik_Tot_Q>
0

> <i_epik_Tot_abs_Q>
0

> <r_epik_Metal_State_Penalty>
0.343187

> <b_epik_Metal_Only>
0

> <s_lp_Force_Field>
OPLS_2005

> <r_lp_Energy>
17.6596

> <b_lp_Chiralities_Consistent>
1

> <s_lp_Variant>
AV-unprocessed.smi:1207-2

> <Gold.Version>
5.8.1

> <Gold.Id.Protein>
6NUR|6NUR_protein|mol2

> <Gold.PLP.Fitness>
53.1333

> <Gold.PLP.PLP>
-42.2289

> <Gold.PLP.part.hbond>
-4.8945

> <Gold.PLP.part.metal>
0.0000

> <Gold.PLP.part.buried>
-5.5538

> <Gold.PLP.part.nonpolar>
-31.7469

> <Gold.PLP.part.repulsive>
0.0760

> <Gold.PLP.ligand.clash>
0.0000

> <Gold.PLP.ligand.torsion>
0.5396

> <Gold.PLP.Chemscore.Hbond>
3.9600

> <Gold.PLP.Chemscore.CHOScore>
0.0000

> <Gold.PLP.Chemscore.Metal>
0.0000

> <Gold.Chemscore.Hbonds>
donor molecule, donor type, donor heavy atom, donor atom, acceptor molecule, acceptor atom, score
      L1  H    10    34       P1  7957  1.00
      P1  H  6896  6909       L1    19  0.86
      P1  H  7989  7998       L1    10  0.94
      P1  H  7997  8010       L1     5  1.00

> <Gold.PLP.Chemscore.Internal.Correction>
0.1036

> <Gold.Rescore>
     Score         DG    S(hbond)    S(metal)    S(lipo)     H(rot)  DE(clash)    DE(int)     intcor
     20.45     -22.39       3.11        0.00     107.75       2.38       0.22       1.72       ----

> <Gold.Chemscore.Fitness>
20.4496

> <Gold.Chemscore.DG>
-22.3855

> <Gold.Chemscore.ZeroCoef>
-5.4800

> <Gold.Chemscore.Hbond>
3.1080

> <Gold.Chemscore.Metal>
0.0000

> <Gold.Chemscore.Lipo>
107.7472

> <Gold.Chemscore.Internal_Hbond>
0.0000

> <Gold.Chemscore.DEClash>
0.2197

> <Gold.Chemscore.DEInternal>
1.7162

> <Gold.Chemscore.Rot>
2.3756

> <Gold.Chemscore.Internal.Correction>
   9.000000E+99

> <Gold.Chemscore.Hbonds>
donor molecule, donor type, donor heavy atom, donor atom, acceptor molecule, acceptor atom, score
      L1  H    10    34       P1  7957  1.00
      P1  H  6896  6909       L1    19  0.60
      P1  H  7989  7998       L1    10  0.20
      P1  H  7997  8010       L1     5  0.17

> <Gold.Chemscore.Hbond.Weighted>
-10.3807

> <Gold.Chemscore.Metal.Weighted>
-0.0000

> <Gold.Chemscore.Lipo.Weighted>
-12.6064

> <Gold.Chemscore.Internal_Hbond.Weighted>
0.0000

> <Gold.Chemscore.DEClash.Weighted>
0.2197

> <Gold.Chemscore.DEInternal.Weighted>
1.7162

> <Gold.Chemscore.Rot.Weighted>
6.0816

> <Gold.Chemscore.Internal.Correction.Weighted>
   9.000000E+99

> <Gold.Protein.RotatedTorsions>
[ 6907 6896 6895 6894 ] final   64.74 input  -60.11 | X-H torsion
[ 7974 7965 7964 7962 ] final  161.54 input  175.53 | X-H torsion
[ 8008 7997 7996 7995 ] final   67.59 input   59.86 | X-H torsion
[ 10167 10162 10161 10158 ] final -137.20 input  -65.29 | X-H torsion
[ 10718 10713 10712 10709 ] final  160.60 input   66.30 | X-H torsion
[ 10763 10752 10751 10750 ] final -173.19 input  -60.55 | X-H torsion
[ 11005 11000 10999 10996 ] final   63.94 input  -57.11 | X-H torsion

> <Gold.Protein.ActiveResidues>
 VAL166  LYS551  ARG553  GLY616  TRP617  ASP618  TYR619  PRO620  LYS621  CYS622 
 ASP623  PHE694  ASN695  SER759  ASP760  ASP761  ALA762  ILE779  LEU786  VAL792 
 PHE793  MET794  SER795  GLU796  ALA797  LYS798  CYS799  TRP800  GLU811  SER814 

> <Gold.Protein.RotatedAtoms>
  152.4355  134.5696  159.9917 H   0  0  0  0  0  0  0  0  0  0  0  0  # atno 6907 bound_to 6896
  151.5807  133.3372  159.3016 H   0  0  0  0  0  0  0  0  0  0  0  0  # atno 6908 bound_to 6896
  150.8252  134.7515  159.6871 H   0  0  0  0  0  0  0  0  0  0  0  0  # atno 6909 bound_to 6896
  144.7681  139.7912  143.6307 H   0  0  0  0  0  0  0  0  0  0  0  0  # atno 7974 bound_to 7965
  155.6952  140.3496  155.4910 H   0  0  0  0  0  0  0  0  0  0  0  0  # atno 8008 bound_to 7997
  155.9489  140.1115  157.1015 H   0  0  0  0  0  0  0  0  0  0  0  0  # atno 8009 bound_to 7997
  154.4118  140.1198  156.5012 H   0  0  0  0  0  0  0  0  0  0  0  0  # atno 8010 bound_to 7997
  139.8601  143.7088  152.2651 H   0  0  0  0  0  0  0  0  0  0  0  0  # atno 10167 bound_to 10162
  157.1481  131.0557  151.2294 H   0  0  0  0  0  0  0  0  0  0  0  0  # atno 10718 bound_to 10713
  154.6107  135.2864  155.0435 H   0  0  0  0  0  0  0  0  0  0  0  0  # atno 10763 bound_to 10752
  154.1666  135.6479  153.5002 H   0  0  0  0  0  0  0  0  0  0  0  0  # atno 10764 bound_to 10752
  153.0194  135.5391  154.6860 H   0  0  0  0  0  0  0  0  0  0  0  0  # atno 10765 bound_to 10752
  139.9991  134.6470  155.9960 H   0  0  0  0  0  0  0  0  0  0  0  0  # atno 11005 bound_to 11000
  146.1805  139.4995  142.9869 LP  0  0  0  0  0  0  0  0  0  0  0  0  # atno 17320 bound_to 7965
  145.6408  141.0284  143.1812 LP  0  0  0  0  0  0  0  0  0  0  0  0  # atno 17321 bound_to 7965
  139.7382  144.7566  151.0694 LP  0  0  0  0  0  0  0  0  0  0  0  0  # atno 17342 bound_to 10162
  140.7776  143.5005  150.9778 LP  0  0  0  0  0  0  0  0  0  0  0  0  # atno 17343 bound_to 10162
  157.4246  130.7456  149.6940 LP  0  0  0  0  0  0  0  0  0  0  0  0  # atno 17370 bound_to 10713
  155.9776  130.4061  150.3704 LP  0  0  0  0  0  0  0  0  0  0  0  0  # atno 17371 bound_to 10713
  141.1628  133.6538  156.4376 LP  0  0  0  0  0  0  0  0  0  0  0  0  # atno 17394 bound_to 11000
  140.4761  134.6708  157.5151 LP  0  0  0  0  0  0  0  0  0  0  0  0  # atno 17395 bound_to 11000

$$$$
