AV-unprocessed.smi:3009|AV-procd|sdf|11453|dock9
  -GOLD-   2272016383D 1   1.00000     0.00000
 Structure written by MMmdl.
 43 44  0  0  0  0  0  0  0  0  1 V2000
  150.8383  140.6632  158.5057 C   0  0  0  0  0  0  0  0  0  0  0  0
  151.5405  141.6885  157.5996 C   0  0  0  0  0  0  0  0  0  0  0  0
  152.0227  142.9297  158.3704 C   0  0  0  0  0  0  0  0  0  0  0  0
  150.7537  142.0220  156.3079 C   0  0  0  0  0  0  0  0  0  0  0  0
  150.6399  140.9721  155.2899 N   0  0  0  0  0  0  0  0  0  0  0  0
  151.3009  139.7263  155.6695 C   0  0  0  0  0  0  0  0  0  0  0  0
  151.1184  138.6281  154.6081 C   0  0  0  0  0  0  0  0  0  0  0  0
  149.7319  138.4227  154.3629 O   0  0  0  0  0  0  0  0  0  0  0  0
  149.0691  139.6040  153.9191 C   0  0  1  0  0  0  0  0  0  0  0  0
  147.5892  139.2700  153.6652 C   0  0  0  0  0  0  0  0  0  0  0  0
  147.4380  138.0613  152.8623 N   0  0  0  0  0  0  0  0  0  0  0  0
  146.2677  137.4937  152.5391 C   0  0  0  0  0  0  0  0  0  0  0  0
  145.1756  137.9301  152.9041 O   0  0  0  0  0  0  0  0  0  0  0  0
  146.4481  136.4036  151.7755 N   0  0  0  0  0  0  0  0  0  0  0  0
  145.4485  135.5546  151.2367 C   0  0  0  0  0  0  0  0  0  0  0  0
  145.6123  134.1635  150.9951 C   0  0  0  0  0  0  0  0  0  0  0  0
  144.5121  133.6284  150.4853 N   0  0  0  0  0  0  0  0  0  0  0  0
  143.6480  134.6650  150.3982 N   0  0  0  0  0  0  0  0  0  0  0  0
  144.1749  135.8572  150.8436 C   0  0  0  0  0  0  0  0  0  0  0  0
  149.2371  140.6922  154.9973 C   0  0  0  0  0  0  0  0  0  0  0  0
  142.7126  134.5448  150.0360 H   0  0  0  0  0  0  0  0  0  0  0  0
  149.9286  141.0695  158.9481 H   0  0  0  0  0  0  0  0  0  0  0  0
  151.4902  140.3540  159.3230 H   0  0  0  0  0  0  0  0  0  0  0  0
  150.5660  139.7683  157.9457 H   0  0  0  0  0  0  0  0  0  0  0  0
  152.4564  141.2052  157.2567 H   0  0  0  0  0  0  0  0  0  0  0  0
  151.2073  143.4787  158.8367 H   0  0  0  0  0  0  0  0  0  0  0  0
  152.5532  143.6181  157.7120 H   0  0  0  0  0  0  0  0  0  0  0  0
  152.7130  142.6451  159.1652 H   0  0  0  0  0  0  0  0  0  0  0  0
  149.7635  142.4014  156.5645 H   0  0  0  0  0  0  0  0  0  0  0  0
  151.2701  142.8674  155.8506 H   0  0  0  0  0  0  0  0  0  0  0  0
  152.3680  139.8907  155.7988 H   0  0  0  0  0  0  0  0  0  0  0  0
  150.9125  139.3755  156.6268 H   0  0  0  0  0  0  0  0  0  0  0  0
  151.6223  138.9009  153.6795 H   0  0  0  0  0  0  0  0  0  0  0  0
  151.5622  137.6931  154.9502 H   0  0  0  0  0  0  0  0  0  0  0  0
  149.5290  139.9470  152.9904 H   0  0  0  0  0  0  0  0  0  0  0  0
  147.0715  139.1197  154.6130 H   0  0  0  0  0  0  0  0  0  0  0  0
  147.0912  140.1053  153.1697 H   0  0  0  0  0  0  0  0  0  0  0  0
  148.2862  137.6385  152.5147 H   0  0  0  0  0  0  0  0  0  0  0  0
  147.4014  136.1557  151.5545 H   0  0  0  0  0  0  0  0  0  0  0  0
  146.4752  133.5373  151.1692 H   0  0  0  0  0  0  0  0  0  0  0  0
  143.6097  136.7776  150.8372 H   0  0  0  0  0  0  0  0  0  0  0  0
  148.7260  140.3803  155.9097 H   0  0  0  0  0  0  0  0  0  0  0  0
  148.7435  141.6052  154.6615 H   0  0  0  0  0  0  0  0  0  0  0  0
  1  2  1  0  0  0  0
  1 22  1  0  0  0  0
  1 23  1  0  0  0  0
  1 24  1  0  0  0  0
  2  3  1  0  0  0  0
  2  4  1  0  0  0  0
  2 25  1  0  0  0  0
  3 26  1  0  0  0  0
  3 27  1  0  0  0  0
  3 28  1  0  0  0  0
  4  5  1  0  0  0  0
  4 29  1  0  0  0  0
  4 30  1  0  0  0  0
  5 20  1  0  0  0  0
  5  6  1  0  0  0  0
  6  7  1  0  0  0  0
  6 31  1  0  0  0  0
  6 32  1  0  0  0  0
  7  8  1  0  0  0  0
  7 33  1  0  0  0  0
  7 34  1  0  0  0  0
  8  9  1  0  0  0  0
  9 10  1  0  0  0  0
  9 20  1  0  0  0  0
  9 35  1  0  0  0  0
 10 11  1  0  0  0  0
 10 36  1  0  0  0  0
 10 37  1  0  0  0  0
 11 12  1  0  0  0  0
 11 38  1  0  0  0  0
 12 13  2  0  0  0  0
 12 14  1  0  0  0  0
 14 15  1  0  0  0  0
 14 39  1  0  0  0  0
 15 19  2  0  0  0  0
 15 16  1  0  0  0  0
 16 17  2  0  0  0  0
 16 40  1  0  0  0  0
 17 18  1  0  0  0  0
 18 21  1  0  0  0  0
 18 19  1  0  0  0  0
 19 41  1  0  0  0  0
 20 42  1  0  0  0  0
 20 43  1  0  0  0  0
M  END
> <s_m_source_file>
AV-unprocessed.smi

> <i_m_source_file_index>
3009

> <i_lp_mmshare_version>
43012

> <i_f3d_flags>
0

> <s_epik_input>
W0NIM11bQ0hdKFtDSDNdKVtDSDJdTjFbQ0gyXVtDSDJdT1tDQEhdKFtDSDJdMSlbQ0gyXVtOSF1DKD1PKVtOSF1jMltjSF1uW25IXVtjSF0y

> <s_epik_cmdline>
J2VwaWtfcHl0aG9uJywgJy1waCcsICc3LjAnLCAnLXRuJywgJzgnLCAnLW1hJywgJzIwMCcsICctbWV0YWxfYmluZGluZycsICctaW1hZScsICc8aW5maWxlLm1hZT4nLCAnLW9tYWUnLCAnPG91dGZpbGUubWFlPic=

> <r_lp_tautomer_probability>
0.5

> <r_epik_Ionization_Penalty>
1.11801

> <r_epik_Ionization_Penalty_Charging>
0

> <r_epik_Ionization_Penalty_Neutral>
1.11801

> <r_epik_State_Penalty>
1.17654

> <r_epik_Charging_Adjusted_Penalty>
1.17654

> <i_epik_Tot_Q>
0

> <i_epik_Tot_abs_Q>
0

> <r_epik_Metal_State_Penalty>
1.17654

> <b_epik_Metal_Only>
0

> <s_lp_Force_Field>
OPLS_2005

> <r_lp_Energy>
30.4002

> <b_lp_Chiralities_Consistent>
1

> <s_lp_Variant>
AV-unprocessed.smi:3009-5

> <Gold.Version>
5.8.1

> <Gold.Id.Protein>
6NUR|6NUR_protein|mol2

> <Gold.PLP.Fitness>
42.1293

> <Gold.PLP.PLP>
-31.6595

> <Gold.PLP.part.hbond>
-3.8590

> <Gold.PLP.part.metal>
0.0000

> <Gold.PLP.part.buried>
-2.3427

> <Gold.PLP.part.nonpolar>
-26.1558

> <Gold.PLP.part.repulsive>
0.7787

> <Gold.PLP.ligand.clash>
0.0000

> <Gold.PLP.ligand.torsion>
1.1331

> <Gold.PLP.Chemscore.Hbond>
3.2263

> <Gold.PLP.Chemscore.CHOScore>
1.0000

> <Gold.PLP.Chemscore.Metal>
0.0000

> <Gold.Chemscore.Hbonds>
donor molecule, donor type, donor heavy atom, donor atom, acceptor molecule, acceptor atom, score
      L1  H    11    38       P1  7948  0.91
      L1  H    14    39       P1  7948  1.00
      L1  H    18    21       P1 10186  1.00
      P1  H  7989  7998       L1     5  0.32
      L1  C    19    41       P1 10171  1.00

> <Gold.PLP.Chemscore.Internal.Correction>
0.0573

> <Gold.Rescore>
     Score         DG    S(hbond)    S(metal)    S(lipo)     H(rot)  DE(clash)    DE(int)     intcor
     16.93     -19.66       2.79        0.00      79.84       1.76       1.51       1.22       ----

> <Gold.Chemscore.Fitness>
16.9250

> <Gold.Chemscore.DG>
-19.6565

> <Gold.Chemscore.ZeroCoef>
-5.4800

> <Gold.Chemscore.Hbond>
2.7943

> <Gold.Chemscore.Metal>
0.0000

> <Gold.Chemscore.Lipo>
79.8374

> <Gold.Chemscore.Internal_Hbond>
0.0000

> <Gold.Chemscore.DEClash>
1.5071

> <Gold.Chemscore.DEInternal>
1.2244

> <Gold.Chemscore.Rot>
1.7568

> <Gold.Chemscore.Internal.Correction>
   9.000000E+99

> <Gold.Chemscore.Hbonds>
donor molecule, donor type, donor heavy atom, donor atom, acceptor molecule, acceptor atom, score
      L1  H    11    38       P1  7948  0.89
      L1  H    14    39       P1  7948  0.92
      L1  H    18    21       P1 10186  0.78
      P1  H  7989  7998       L1     5  0.01

> <Gold.Chemscore.Hbond.Weighted>
-9.3329

> <Gold.Chemscore.Metal.Weighted>
-0.0000

> <Gold.Chemscore.Lipo.Weighted>
-9.3410

> <Gold.Chemscore.Internal_Hbond.Weighted>
0.0000

> <Gold.Chemscore.DEClash.Weighted>
1.5071

> <Gold.Chemscore.DEInternal.Weighted>
1.2244

> <Gold.Chemscore.Rot.Weighted>
4.4974

> <Gold.Chemscore.Internal.Correction.Weighted>
   9.000000E+99

> <Gold.Protein.RotatedTorsions>
[ 6907 6896 6895 6894 ] final  -14.05 input  -60.11 | X-H torsion
[ 7974 7965 7964 7962 ] final  -16.36 input  175.53 | X-H torsion
[ 8008 7997 7996 7995 ] final  117.97 input   59.86 | X-H torsion
[ 10167 10162 10161 10158 ] final   69.94 input  -65.29 | X-H torsion
[ 10718 10713 10712 10709 ] final   -2.49 input   66.30 | X-H torsion
[ 10763 10752 10751 10750 ] final  -21.16 input  -60.55 | X-H torsion
[ 11005 11000 10999 10996 ] final   58.98 input  -57.11 | X-H torsion

> <Gold.Protein.ActiveResidues>
 VAL166  LYS551  ARG553  GLY616  TRP617  ASP618  TYR619  PRO620  LYS621  CYS622 
 ASP623  PHE694  ASN695  SER759  ASP760  ASP761  ALA762  ILE779  LEU786  VAL792 
 PHE793  MET794  SER795  GLU796  ALA797  LYS798  CYS799  TRP800  GLU811  SER814 

> <Gold.Protein.RotatedAtoms>
  151.3453  135.0873  159.9384 H   0  0  0  0  0  0  0  0  0  0  0  0  # atno 6907 bound_to 6896
  152.5201  133.9406  159.7635 H   0  0  0  0  0  0  0  0  0  0  0  0  # atno 6908 bound_to 6896
  150.9771  133.6230  159.2758 H   0  0  0  0  0  0  0  0  0  0  0  0  # atno 6909 bound_to 6896
  146.1991  140.3626  142.8430 H   0  0  0  0  0  0  0  0  0  0  0  0  # atno 7974 bound_to 7965
  156.2522  140.2885  156.0762 H   0  0  0  0  0  0  0  0  0  0  0  0  # atno 8008 bound_to 7997
  155.1616  140.0399  157.2861 H   0  0  0  0  0  0  0  0  0  0  0  0  # atno 8009 bound_to 7997
  154.6388  140.2517  155.7353 H   0  0  0  0  0  0  0  0  0  0  0  0  # atno 8010 bound_to 7997
  140.0624  144.5222  150.7285 H   0  0  0  0  0  0  0  0  0  0  0  0  # atno 10167 bound_to 10162
  156.7900  130.5358  149.5737 H   0  0  0  0  0  0  0  0  0  0  0  0  # atno 10718 bound_to 10713
  153.6317  135.6989  153.5273 H   0  0  0  0  0  0  0  0  0  0  0  0  # atno 10763 bound_to 10752
  153.2854  135.4173  155.1117 H   0  0  0  0  0  0  0  0  0  0  0  0  # atno 10764 bound_to 10752
  154.8520  135.3612  154.5860 H   0  0  0  0  0  0  0  0  0  0  0  0  # atno 10765 bound_to 10752
  140.0338  134.5974  155.9472 H   0  0  0  0  0  0  0  0  0  0  0  0  # atno 11005 bound_to 11000
  144.8643  140.7184  143.6087 LP  0  0  0  0  0  0  0  0  0  0  0  0  # atno 17320 bound_to 7965
  145.3545  139.1697  143.4416 LP  0  0  0  0  0  0  0  0  0  0  0  0  # atno 17321 bound_to 7965
  140.7165  143.2550  151.4416 LP  0  0  0  0  0  0  0  0  0  0  0  0  # atno 17342 bound_to 10162
  139.5886  144.1549  152.2060 LP  0  0  0  0  0  0  0  0  0  0  0  0  # atno 17343 bound_to 10162
  156.1165  130.6078  151.0128 LP  0  0  0  0  0  0  0  0  0  0  0  0  # atno 17370 bound_to 10713
  157.6605  131.0881  150.7849 LP  0  0  0  0  0  0  0  0  0  0  0  0  # atno 17371 bound_to 10713
  141.1846  133.6553  156.5162 LP  0  0  0  0  0  0  0  0  0  0  0  0  # atno 17394 bound_to 11000
  140.4182  134.7211  157.4875 LP  0  0  0  0  0  0  0  0  0  0  0  0  # atno 17395 bound_to 11000

$$$$
