AV-unprocessed.smi:1286|AV-procd|sdf|5375|dock2
  -GOLD-   22720 4523D 1   1.00000     0.00000
 Structure written by MMmdl.
 36 37  0  0  0  0  0  0  0  0  1 V2000
  150.9785  138.0094  155.3912 C   0  0  0  0  0  0  0  0  0  0  0  0
  149.9139  139.0895  155.6259 C   0  0  2  0  0  0  0  0  0  0  0  0
  149.8364  140.0729  154.4396 C   0  0  0  0  0  0  0  0  0  0  0  0
  148.6116  140.8541  154.4337 N   0  0  0  0  0  0  0  0  0  0  0  0
  147.6447  140.9217  153.4525 C   0  0  0  0  0  0  0  0  0  0  0  0
  146.6824  141.7861  153.8892 C   0  0  0  0  0  0  0  0  0  0  0  0
  147.1550  142.2005  155.1657 C   0  0  0  0  0  0  0  0  0  0  0  0
  148.3065  141.6362  155.4916 N   0  0  0  0  0  0  0  0  0  0  0  0
  150.2230  139.8088  156.8612 N   0  0  0  0  0  0  0  0  0  0  0  0
  151.4489  140.1589  157.2822 C   0  0  0  0  0  0  0  0  0  0  0  0
  152.4743  139.9592  156.6310 O   0  0  0  0  0  0  0  0  0  0  0  0
  151.5254  140.8256  158.6609 C   0  0  0  0  0  0  0  0  0  0  0  0
  152.3975  142.1013  158.6942 C   0  0  2  0  0  0  0  0  0  0  0  0
  152.6925  142.6009  160.0881 C   0  0  0  0  0  0  0  0  0  0  0  0
  152.3582  143.8773  160.2605 C   0  0  0  0  0  0  0  0  0  0  0  0
  151.7730  144.4910  159.0194 C   0  0  0  0  0  0  0  0  0  0  0  0
  151.7213  143.3192  158.0132 C   0  0  0  0  0  0  0  0  0  0  0  0
  150.7652  137.4399  154.4862 H   0  0  0  0  0  0  0  0  0  0  0  0
  151.0125  137.3043  156.2223 H   0  0  0  0  0  0  0  0  0  0  0  0
  151.9720  138.4462  155.2827 H   0  0  0  0  0  0  0  0  0  0  0  0
  148.9525  138.5802  155.7134 H   0  0  0  0  0  0  0  0  0  0  0  0
  150.6853  140.7580  154.4569 H   0  0  0  0  0  0  0  0  0  0  0  0
  149.8952  139.5293  153.4956 H   0  0  0  0  0  0  0  0  0  0  0  0
  147.7233  140.3588  152.5342 H   0  0  0  0  0  0  0  0  0  0  0  0
  145.7804  142.0805  153.3736 H   0  0  0  0  0  0  0  0  0  0  0  0
  146.6980  142.8884  155.8615 H   0  0  0  0  0  0  0  0  0  0  0  0
  149.4427  140.0227  157.4651 H   0  0  0  0  0  0  0  0  0  0  0  0
  150.5101  141.0681  158.9762 H   0  0  0  0  0  0  0  0  0  0  0  0
  151.9093  140.1048  159.3848 H   0  0  0  0  0  0  0  0  0  0  0  0
  153.3544  141.9046  158.2083 H   0  0  0  0  0  0  0  0  0  0  0  0
  153.1460  141.9737  160.8411 H   0  0  0  0  0  0  0  0  0  0  0  0
  152.4933  144.4389  161.1732 H   0  0  0  0  0  0  0  0  0  0  0  0
  150.7814  144.8963  159.2227 H   0  0  0  0  0  0  0  0  0  0  0  0
  152.4151  145.2985  158.6659 H   0  0  0  0  0  0  0  0  0  0  0  0
  152.2270  143.5779  157.0823 H   0  0  0  0  0  0  0  0  0  0  0  0
  150.6838  143.0998  157.7584 H   0  0  0  0  0  0  0  0  0  0  0  0
  1  2  1  0  0  0  0
  1 18  1  0  0  0  0
  1 19  1  0  0  0  0
  1 20  1  0  0  0  0
  2  3  1  0  0  0  0
  2  9  1  0  0  0  0
  2 21  1  0  0  0  0
  3  4  1  0  0  0  0
  3 22  1  0  0  0  0
  3 23  1  0  0  0  0
  4  8  1  0  0  0  0
  4  5  1  0  0  0  0
  5  6  2  0  0  0  0
  5 24  1  0  0  0  0
  6  7  1  0  0  0  0
  6 25  1  0  0  0  0
  7  8  2  0  0  0  0
  7 26  1  0  0  0  0
  9 10  1  0  0  0  0
  9 27  1  0  0  0  0
 10 11  2  0  0  0  0
 10 12  1  0  0  0  0
 12 13  1  0  0  0  0
 12 28  1  0  0  0  0
 12 29  1  0  0  0  0
 13 17  1  0  0  0  0
 13 14  1  0  0  0  0
 13 30  1  0  0  0  0
 14 15  2  0  0  0  0
 14 31  1  0  0  0  0
 15 16  1  0  0  0  0
 15 32  1  0  0  0  0
 16 17  1  0  0  0  0
 16 33  1  0  0  0  0
 16 34  1  0  0  0  0
 17 35  1  0  0  0  0
 17 36  1  0  0  0  0
M  END
> <s_m_source_file>
AV-unprocessed.smi

> <i_m_source_file_index>
1286

> <i_lp_mmshare_version>
43012

> <i_f3d_flags>
0

> <s_epik_input>
bjFbY0hdW2NIXVtjSF1uMVtDSDJdW0NAQEhdKFtDSDNdKVtOSF1DKD1PKVtDSDJdW0NAQEhdMltDSF09W0NIXVtDSDJdW0NIMl0y

> <s_epik_cmdline>
J2VwaWtfcHl0aG9uJywgJy1waCcsICc3LjAnLCAnLXRuJywgJzgnLCAnLW1hJywgJzIwMCcsICctbWV0YWxfYmluZGluZycsICctaW1hZScsICc8aW5maWxlLm1hZT4nLCAnLW9tYWUnLCAnPG91dGZpbGUubWFlPic=

> <r_lp_tautomer_probability>
1

> <r_epik_Ionization_Penalty>
0.000301761

> <r_epik_Ionization_Penalty_Charging>
0

> <r_epik_Ionization_Penalty_Neutral>
0.000301761

> <r_epik_State_Penalty>
-0

> <r_epik_Charging_Adjusted_Penalty>
0

> <i_epik_Tot_Q>
0

> <i_epik_Tot_abs_Q>
0

> <r_epik_Metal_State_Penalty>
-0

> <b_epik_Metal_Only>
0

> <s_lp_Force_Field>
OPLS_2005

> <r_lp_Energy>
16.2222

> <b_lp_Chiralities_Consistent>
1

> <s_lp_Variant>
AV-unprocessed.smi:1286-1

> <Gold.Version>
5.8.1

> <Gold.Id.Protein>
6NUR|6NUR_protein|mol2

> <Gold.PLP.Fitness>
41.2774

> <Gold.PLP.PLP>
-36.3884

> <Gold.PLP.part.hbond>
-1.0000

> <Gold.PLP.part.metal>
0.0000

> <Gold.PLP.part.buried>
-0.6939

> <Gold.PLP.part.nonpolar>
-33.7098

> <Gold.PLP.part.repulsive>
0.5338

> <Gold.PLP.ligand.clash>
0.0000

> <Gold.PLP.ligand.torsion>
0.6632

> <Gold.PLP.Chemscore.Hbond>
1.0000

> <Gold.PLP.Chemscore.CHOScore>
1.0624

> <Gold.PLP.Chemscore.Metal>
0.0000

> <Gold.Chemscore.Hbonds>
donor molecule, donor type, donor heavy atom, donor atom, acceptor molecule, acceptor atom, score
      P1  H  7997  8010       L1    11  1.00
      L1  C     5    24       P1  7957  0.99
      L1  C     7    26       P1  8028  0.03

> <Gold.PLP.Chemscore.Internal.Correction>
0.0282

> <Gold.Rescore>
     Score         DG    S(hbond)    S(metal)    S(lipo)     H(rot)  DE(clash)    DE(int)     intcor
     14.62     -16.73       0.99        0.00     103.73       1.64       0.04       2.06       ----

> <Gold.Chemscore.Fitness>
14.6244

> <Gold.Chemscore.DG>
-16.7306

> <Gold.Chemscore.ZeroCoef>
-5.4800

> <Gold.Chemscore.Hbond>
0.9913

> <Gold.Chemscore.Metal>
0.0000

> <Gold.Chemscore.Lipo>
103.7309

> <Gold.Chemscore.Internal_Hbond>
0.0000

> <Gold.Chemscore.DEClash>
0.0448

> <Gold.Chemscore.DEInternal>
2.0614

> <Gold.Chemscore.Rot>
1.6394

> <Gold.Chemscore.Internal.Correction>
   9.000000E+99

> <Gold.Chemscore.Hbonds>
donor molecule, donor type, donor heavy atom, donor atom, acceptor molecule, acceptor atom, score
      P1  H  7997  8010       L1    11  0.99

> <Gold.Chemscore.Hbond.Weighted>
-3.3110

> <Gold.Chemscore.Metal.Weighted>
-0.0000

> <Gold.Chemscore.Lipo.Weighted>
-12.1365

> <Gold.Chemscore.Internal_Hbond.Weighted>
0.0000

> <Gold.Chemscore.DEClash.Weighted>
0.0448

> <Gold.Chemscore.DEInternal.Weighted>
2.0614

> <Gold.Chemscore.Rot.Weighted>
4.1969

> <Gold.Chemscore.Internal.Correction.Weighted>
   9.000000E+99

> <Gold.Protein.RotatedTorsions>
[ 6907 6896 6895 6894 ] final   90.15 input  -60.11 | X-H torsion
[ 7974 7965 7964 7962 ] final -145.75 input  175.53 | X-H torsion
[ 8008 7997 7996 7995 ] final   63.82 input   59.86 | X-H torsion
[ 10167 10162 10161 10158 ] final  158.66 input  -65.29 | X-H torsion
[ 10718 10713 10712 10709 ] final    1.56 input   66.30 | X-H torsion
[ 10763 10752 10751 10750 ] final   89.55 input  -60.55 | X-H torsion
[ 11005 11000 10999 10996 ] final -176.36 input  -57.11 | X-H torsion

> <Gold.Protein.ActiveResidues>
 VAL166  LYS551  ARG553  GLY616  TRP617  ASP618  TYR619  PRO620  LYS621  CYS622 
 ASP623  PHE694  ASN695  SER759  ASP760  ASP761  ALA762  ILE779  LEU786  VAL792 
 PHE793  MET794  SER795  GLU796  ALA797  LYS798  CYS799  TRP800  GLU811  SER814 

> <Gold.Protein.RotatedAtoms>
  152.5442  134.1856  159.8653 H   0  0  0  0  0  0  0  0  0  0  0  0  # atno 6907 bound_to 6896
  151.1856  133.4691  159.2602 H   0  0  0  0  0  0  0  0  0  0  0  0  # atno 6908 bound_to 6896
  151.1135  135.0051  159.8560 H   0  0  0  0  0  0  0  0  0  0  0  0  # atno 6909 bound_to 6896
  144.8206  140.5544  143.5581 H   0  0  0  0  0  0  0  0  0  0  0  0  # atno 7974 bound_to 7965
  155.6363  140.3496  155.4699 H   0  0  0  0  0  0  0  0  0  0  0  0  # atno 8008 bound_to 7997
  155.9963  140.1204  157.0614 H   0  0  0  0  0  0  0  0  0  0  0  0  # atno 8009 bound_to 7997
  154.4234  140.1109  156.5620 H   0  0  0  0  0  0  0  0  0  0  0  0  # atno 8010 bound_to 7997
  139.4828  144.4803  151.8453 H   0  0  0  0  0  0  0  0  0  0  0  0  # atno 10167 bound_to 10162
  156.8500  130.5550  149.5670 H   0  0  0  0  0  0  0  0  0  0  0  0  # atno 10718 bound_to 10713
  153.1882  135.4466  155.0116 H   0  0  0  0  0  0  0  0  0  0  0  0  # atno 10763 bound_to 10752
  154.8074  135.3280  154.7398 H   0  0  0  0  0  0  0  0  0  0  0  0  # atno 10764 bound_to 10752
  153.7855  135.6974  153.4936 H   0  0  0  0  0  0  0  0  0  0  0  0  # atno 10765 bound_to 10752
  140.4530  134.6326  157.4809 H   0  0  0  0  0  0  0  0  0  0  0  0  # atno 11005 bound_to 11000
  145.5114  139.1479  143.3603 LP  0  0  0  0  0  0  0  0  0  0  0  0  # atno 17320 bound_to 7965
  146.2511  140.5254  142.8893 LP  0  0  0  0  0  0  0  0  0  0  0  0  # atno 17321 bound_to 7965
  140.4279  144.2156  150.5887 LP  0  0  0  0  0  0  0  0  0  0  0  0  # atno 17342 bound_to 10162
  140.4809  143.2379  151.8956 LP  0  0  0  0  0  0  0  0  0  0  0  0  # atno 17343 bound_to 10162
  156.0833  130.5838  150.9603 LP  0  0  0  0  0  0  0  0  0  0  0  0  # atno 17370 bound_to 10713
  157.6308  131.0921  150.8444 LP  0  0  0  0  0  0  0  0  0  0  0  0  # atno 17371 bound_to 10713
  139.9995  134.6859  155.9554 LP  0  0  0  0  0  0  0  0  0  0  0  0  # atno 17394 bound_to 11000
  141.1656  133.6537  156.4467 LP  0  0  0  0  0  0  0  0  0  0  0  0  # atno 17395 bound_to 11000

$$$$
