AV-unprocessed.smi:21|AV-procd|sdf|149|dock6
  -GOLD-   2262015363D 1   1.00000     0.00000
 Structure written by MMmdl.
 62 65  0  0  0  0  0  0  0  0  2 V2000
  152.7360  144.6847  157.9802 C   0  0  0  0  0  0  0  0  0  0  0  0
  151.7010  144.5275  158.9375 O   0  0  0  0  0  0  0  0  0  0  0  0
  151.7127  143.2636  159.5845 C   0  0  1  0  0  0  0  0  0  0  0  0
  151.6832  142.0876  158.6139 C   0  0  0  0  0  0  0  0  0  0  0  0
  152.2695  140.9348  159.4387 C   0  0  1  0  0  0  0  0  0  0  0  0
  152.8338  139.7681  158.5899 C   0  0  0  0  0  0  0  0  0  0  0  0
  151.9991  138.5646  158.6616 N   0  0  0  0  0  0  0  0  0  0  0  0
  152.6070  137.3521  159.1969 C   0  0  0  0  0  0  0  0  0  0  0  0
  150.6508  138.6197  158.4428 C   0  0  0  0  0  0  0  0  0  0  0  0
  150.1405  139.7192  157.8248 N   0  0  0  0  0  0  0  0  0  0  0  0
  148.8321  139.8345  157.5858 C   0  0  0  0  0  0  0  0  0  0  0  0
  147.8561  138.9761  157.8751 N   0  0  0  0  0  0  0  0  0  0  0  0
  148.3472  137.8644  158.4907 C   0  0  0  0  0  0  0  0  0  0  0  0
  149.7125  137.6036  158.8125 C   0  0  0  0  0  0  0  0  0  0  0  0
  149.8018  136.3653  159.4430 N   0  0  0  0  0  0  0  0  0  0  0  0
  148.5750  135.9254  159.4880 C   0  0  0  0  0  0  0  0  0  0  0  0
  147.6375  136.7617  158.9308 N   0  0  0  0  0  0  0  0  0  0  0  0
  146.2057  136.5335  158.8428 C   0  0  0  0  0  0  0  0  0  0  0  0
  145.5949  136.0122  160.1694 C   0  0  1  0  0  0  0  0  0  0  0  0
  145.6724  137.0827  161.2830 C   0  0  0  0  0  0  0  0  0  0  0  0
  147.0073  137.4737  161.5288 O   0  0  0  0  0  0  0  0  0  0  0  0
  144.1550  135.4509  160.0070 C   0  0  1  0  0  0  0  0  0  0  0  0
  143.0489  136.4601  159.7451 C   0  0  0  0  0  0  0  0  0  0  0  0
  141.9435  135.5567  159.2162 C   0  0  0  0  0  0  0  0  0  0  0  0
  142.6266  134.6227  158.3912 O   0  0  0  0  0  0  0  0  0  0  0  0
  143.9546  134.4310  158.8759 C   0  0  0  0  0  0  0  0  0  0  0  0
  153.2258  141.5726  160.3914 N   0  3  1  0  0  0  0  0  0  0  0  0
  154.6484  141.1640  160.3137 C   0  0  0  0  0  0  0  0  0  0  0  0
  153.0413  143.0406  160.3046 C   0  0  0  0  0  0  0  0  0  0  0  0
  150.8948  143.1841  160.3033 H   0  0  0  0  0  0  0  0  0  0  0  0
  151.4694  140.5413  160.0674 H   0  0  0  0  0  0  0  0  0  0  0  0
  152.6412  145.6575  157.4977 H   0  0  0  0  0  0  0  0  0  0  0  0
  152.6764  143.9198  157.2048 H   0  0  0  0  0  0  0  0  0  0  0  0
  153.7217  144.6383  158.4437 H   0  0  0  0  0  0  0  0  0  0  0  0
  150.6838  141.8690  158.2365 H   0  0  0  0  0  0  0  0  0  0  0  0
  152.3269  142.3056  157.7608 H   0  0  0  0  0  0  0  0  0  0  0  0
  153.0061  140.0825  157.5609 H   0  0  0  0  0  0  0  0  0  0  0  0
  153.8164  139.4881  158.9704 H   0  0  0  0  0  0  0  0  0  0  0  0
  152.2121  137.1271  160.1881 H   0  0  0  0  0  0  0  0  0  0  0  0
  153.6877  137.4627  159.2895 H   0  0  0  0  0  0  0  0  0  0  0  0
  152.4216  136.5031  158.5384 H   0  0  0  0  0  0  0  0  0  0  0  0
  148.5239  140.7438  157.0910 H   0  0  0  0  0  0  0  0  0  0  0  0
  148.3205  134.9717  159.9274 H   0  0  0  0  0  0  0  0  0  0  0  0
  145.7330  137.4697  158.5456 H   0  0  0  0  0  0  0  0  0  0  0  0
  146.0394  135.8330  158.0258 H   0  0  0  0  0  0  0  0  0  0  0  0
  146.2131  135.1745  160.4962 H   0  0  0  0  0  0  0  0  0  0  0  0
  145.1250  137.9819  161.0023 H   0  0  0  0  0  0  0  0  0  0  0  0
  145.2266  136.7150  162.2075 H   0  0  0  0  0  0  0  0  0  0  0  0
  147.5830  136.7904  161.2205 H   0  0  0  0  0  0  0  0  0  0  0  0
  143.8876  134.9261  160.9254 H   0  0  0  0  0  0  0  0  0  0  0  0
  142.7530  137.0134  160.6369 H   0  0  0  0  0  0  0  0  0  0  0  0
  143.3271  137.1757  158.9723 H   0  0  0  0  0  0  0  0  0  0  0  0
  141.4562  135.0244  160.0345 H   0  0  0  0  0  0  0  0  0  0  0  0
  141.1810  136.1018  158.6596 H   0  0  0  0  0  0  0  0  0  0  0  0
  144.6465  134.5735  158.0475 H   0  0  0  0  0  0  0  0  0  0  0  0
  144.0860  133.4106  159.2375 H   0  0  0  0  0  0  0  0  0  0  0  0
  155.0732  141.3821  159.3329 H   0  0  0  0  0  0  0  0  0  0  0  0
  154.7671  140.1007  160.5214 H   0  0  0  0  0  0  0  0  0  0  0  0
  155.2331  141.7042  161.0591 H   0  0  0  0  0  0  0  0  0  0  0  0
  153.8479  143.4756  159.7111 H   0  0  0  0  0  0  0  0  0  0  0  0
  153.0665  143.5080  161.2891 H   0  0  0  0  0  0  0  0  0  0  0  0
  152.9078  141.3004  161.3108 H   0  0  0  0  0  0  0  0  0  0  0  0
  1  2  1  0  0  0  0
  1 32  1  0  0  0  0
  1 33  1  0  0  0  0
  1 34  1  0  0  0  0
  2  3  1  0  0  0  0
  3 30  1  0  0  0  0
  3 29  1  0  0  0  0
  3  4  1  0  0  0  0
  4  5  1  0  0  0  0
  4 35  1  0  0  0  0
  4 36  1  0  0  0  0
  5 31  1  0  0  0  0
  5  6  1  0  0  0  0
  5 27  1  0  0  0  0
  6  7  1  0  0  0  0
  6 37  1  0  0  0  0
  6 38  1  0  0  0  0
  7  8  1  0  0  0  0
  7  9  1  0  0  0  0
  8 39  1  0  0  0  0
  8 40  1  0  0  0  0
  8 41  1  0  0  0  0
  9 14  1  0  0  0  0
  9 10  2  0  0  0  0
 10 11  1  0  0  0  0
 11 12  2  0  0  0  0
 11 42  1  0  0  0  0
 12 13  1  0  0  0  0
 13 17  1  0  0  0  0
 13 14  2  0  0  0  0
 14 15  1  0  0  0  0
 15 16  2  0  0  0  0
 16 17  1  0  0  0  0
 16 43  1  0  0  0  0
 17 18  1  0  0  0  0
 18 19  1  0  0  0  0
 18 44  1  0  0  0  0
 18 45  1  0  0  0  0
 19 20  1  0  0  0  0
 19 22  1  0  0  0  0
 19 46  1  0  0  0  0
 20 21  1  0  0  0  0
 20 47  1  0  0  0  0
 20 48  1  0  0  0  0
 21 49  1  0  0  0  0
 22 26  1  0  0  0  0
 22 23  1  0  0  0  0
 22 50  1  0  0  0  0
 23 24  1  0  0  0  0
 23 51  1  0  0  0  0
 23 52  1  0  0  0  0
 24 25  1  0  0  0  0
 24 53  1  0  0  0  0
 24 54  1  0  0  0  0
 25 26  1  0  0  0  0
 26 55  1  0  0  0  0
 26 56  1  0  0  0  0
 27 28  1  0  0  0  0
 27 29  1  0  0  0  0
 27 62  1  0  0  0  0
 28 57  1  0  0  0  0
 28 58  1  0  0  0  0
 28 59  1  0  0  0  0
 29 60  1  0  0  0  0
 29 61  1  0  0  0  0
M  CHG  1  27   1
M  END
> <s_m_source_file>
AV-unprocessed.smi

> <i_m_source_file_index>
21

> <i_lp_mmshare_version>
43012

> <i_f3d_flags>
0

> <s_epik_input>
W0NIM11PW0NASF0xW0NIMl1bQ0BIXShOKFtDSDNdKVtDSDJdMSlbQ0gyXU4oW0NIM10pYyhuW2NIXW4yKWMoYzIzKW5bY0hdbjNbQ0gyXVtDQEhdKFtDSDJdW09IXSlbQ0BASF00W0NIMl1bQ0gyXU9bQ0gyXTQ=

> <s_epik_cmdline>
J2VwaWtfcHl0aG9uJywgJy1waCcsICc3LjAnLCAnLXRuJywgJzgnLCAnLW1hJywgJzIwMCcsICctbWV0YWxfYmluZGluZycsICctaW1hZScsICc8aW5maWxlLm1hZT4nLCAnLW9tYWUnLCAnPG91dGZpbGUubWFlPic=

> <r_lp_tautomer_probability>
1

> <r_epik_Ionization_Penalty>
0.0157465

> <r_epik_Ionization_Penalty_Charging>
0.015354

> <r_epik_Ionization_Penalty_Neutral>
0.000392529

> <r_epik_State_Penalty>
0.0120612

> <r_epik_Charging_Adjusted_Penalty>
0.0274152

> <i_epik_Tot_Q>
1

> <i_epik_Tot_abs_Q>
1

> <r_epik_Metal_State_Penalty>
0.0121253

> <b_epik_Metal_Only>
0

> <s_lp_Force_Field>
OPLS_2005

> <r_lp_Energy>
61.5082

> <b_lp_Chiralities_Consistent>
1

> <s_lp_Variant>
AV-unprocessed.smi:21-29

> <Gold.Version>
5.8.1

> <Gold.Id.Protein>
6NUR|6NUR_protein|mol2

> <Gold.PLP.Fitness>
46.0133

> <Gold.PLP.PLP>
-39.1133

> <Gold.PLP.part.hbond>
-4.4815

> <Gold.PLP.part.metal>
0.0000

> <Gold.PLP.part.buried>
-7.2168

> <Gold.PLP.part.nonpolar>
-27.5320

> <Gold.PLP.part.repulsive>
0.1406

> <Gold.PLP.ligand.clash>
0.0000

> <Gold.PLP.ligand.torsion>
1.1259

> <Gold.PLP.Chemscore.Hbond>
2.9280

> <Gold.PLP.Chemscore.CHOScore>
0.0000

> <Gold.PLP.Chemscore.Metal>
0.0000

> <Gold.Chemscore.Hbonds>
donor molecule, donor type, donor heavy atom, donor atom, acceptor molecule, acceptor atom, score
      P1  H  6896  6909       L1    15  1.00
      P1  H  6934  6947       L1    21  0.99
      P1  H 11000 11005       L1    25  0.75

> <Gold.PLP.Chemscore.Internal.Correction>
0.3679

> <Gold.Rescore>
     Score         DG    S(hbond)    S(metal)    S(lipo)     H(rot)  DE(clash)    DE(int)     intcor
     11.59     -16.65       2.66        0.00      86.70       3.08       0.09       4.97       ----

> <Gold.Chemscore.Fitness>
11.5916

> <Gold.Chemscore.DG>
-16.6466

> <Gold.Chemscore.ZeroCoef>
-5.4800

> <Gold.Chemscore.Hbond>
2.6639

> <Gold.Chemscore.Metal>
0.0000

> <Gold.Chemscore.Lipo>
86.6952

> <Gold.Chemscore.Internal_Hbond>
0.0000

> <Gold.Chemscore.DEClash>
0.0853

> <Gold.Chemscore.DEInternal>
4.9696

> <Gold.Chemscore.Rot>
3.0758

> <Gold.Chemscore.Internal.Correction>
   9.000000E+99

> <Gold.Chemscore.Hbonds>
donor molecule, donor type, donor heavy atom, donor atom, acceptor molecule, acceptor atom, score
      P1  H  6896  6909       L1    15  0.50
      P1  H  6934  6947       L1    21  0.55
      P1  H 11000 11005       L1    25  0.09

> <Gold.Chemscore.Hbond.Weighted>
-8.8974

> <Gold.Chemscore.Metal.Weighted>
-0.0000

> <Gold.Chemscore.Lipo.Weighted>
-10.1433

> <Gold.Chemscore.Internal_Hbond.Weighted>
0.0000

> <Gold.Chemscore.DEClash.Weighted>
0.0853

> <Gold.Chemscore.DEInternal.Weighted>
4.9696

> <Gold.Chemscore.Rot.Weighted>
7.8741

> <Gold.Chemscore.Internal.Correction.Weighted>
   9.000000E+99

> <Gold.Protein.RotatedTorsions>
[ 6907 6896 6895 6894 ] final   72.06 input  -60.11 | X-H torsion
[ 7974 7965 7964 7962 ] final   63.02 input  175.53 | X-H torsion
[ 8008 7997 7996 7995 ] final   43.51 input   59.86 | X-H torsion
[ 10167 10162 10161 10158 ] final -143.56 input  -65.29 | X-H torsion
[ 10718 10713 10712 10709 ] final  -78.07 input   66.30 | X-H torsion
[ 10763 10752 10751 10750 ] final -168.71 input  -60.55 | X-H torsion
[ 11005 11000 10999 10996 ] final -124.61 input  -57.11 | X-H torsion

> <Gold.Protein.ActiveResidues>
 VAL166  LYS551  ARG553  GLY616  TRP617  ASP618  TYR619  PRO620  LYS621  CYS622 
 ASP623  PHE694  ASN695  SER759  ASP760  ASP761  ALA762  ILE779  LEU786  VAL792 
 PHE793  MET794  SER795  GLU796  ALA797  LYS798  CYS799  TRP800  GLU811  SER814 

> <Gold.Protein.RotatedAtoms>
  152.4846  134.4627  159.9610 H   0  0  0  0  0  0  0  0  0  0  0  0  # atno 6907 bound_to 6896
  151.4626  133.3583  159.2819 H   0  0  0  0  0  0  0  0  0  0  0  0  # atno 6908 bound_to 6896
  150.8946  134.8378  159.7378 H   0  0  0  0  0  0  0  0  0  0  0  0  # atno 6909 bound_to 6896
  145.8666  139.3350  143.0787 H   0  0  0  0  0  0  0  0  0  0  0  0  # atno 7974 bound_to 7965
  155.3039  140.3387  155.4246 H   0  0  0  0  0  0  0  0  0  0  0  0  # atno 8008 bound_to 7997
  156.1988  140.1725  156.7981 H   0  0  0  0  0  0  0  0  0  0  0  0  # atno 8009 bound_to 7997
  154.5532  140.0701  156.8686 H   0  0  0  0  0  0  0  0  0  0  0  0  # atno 8010 bound_to 7997
  139.7982  143.7870  152.2656 H   0  0  0  0  0  0  0  0  0  0  0  0  # atno 10167 bound_to 10162
  156.0127  130.4508  150.3440 H   0  0  0  0  0  0  0  0  0  0  0  0  # atno 10718 bound_to 10713
  154.6600  135.2923  154.9878 H   0  0  0  0  0  0  0  0  0  0  0  0  # atno 10763 bound_to 10752
  154.0942  135.6586  153.4861 H   0  0  0  0  0  0  0  0  0  0  0  0  # atno 10764 bound_to 10752
  153.0424  135.5227  154.7547 H   0  0  0  0  0  0  0  0  0  0  0  0  # atno 10765 bound_to 10752
  140.9827  134.0650  157.3746 H   0  0  0  0  0  0  0  0  0  0  0  0  # atno 11005 bound_to 11000
  145.9185  140.9131  143.0417 LP  0  0  0  0  0  0  0  0  0  0  0  0  # atno 17320 bound_to 7965
  144.6726  140.1257  143.7447 LP  0  0  0  0  0  0  0  0  0  0  0  0  # atno 17321 bound_to 7965
  139.7982  144.7384  150.9860 LP  0  0  0  0  0  0  0  0  0  0  0  0  # atno 17342 bound_to 10162
  140.7820  143.4372  151.0606 LP  0  0  0  0  0  0  0  0  0  0  0  0  # atno 17343 bound_to 10162
  157.1535  131.0327  151.2874 LP  0  0  0  0  0  0  0  0  0  0  0  0  # atno 17370 bound_to 10713
  157.4372  130.7523  149.7039 LP  0  0  0  0  0  0  0  0  0  0  0  0  # atno 17371 bound_to 10713
  139.8957  135.0142  156.7015 LP  0  0  0  0  0  0  0  0  0  0  0  0  # atno 17394 bound_to 11000
  140.7161  133.9181  155.8116 LP  0  0  0  0  0  0  0  0  0  0  0  0  # atno 17395 bound_to 11000

$$$$
