AV-unprocessed.smi:3085|AV-procd|sdf|11754|dock1
  -GOLD-   2272017143D 1   1.00000     0.00000
 Structure written by MMmdl.
 27 28  0  0  0  0  0  0  0  0  1 V2000
  151.4658  144.9812  158.9576 C   0  0  0  0  0  0  0  0  0  0  0  0
  152.1226  143.5967  158.9473 C   0  0  0  0  0  0  0  0  0  0  0  0
  151.5037  142.6734  157.9496 C   0  0  0  0  0  0  0  0  0  0  0  0
  151.8782  141.4171  157.7343 N   0  0  0  0  0  0  0  0  0  0  0  0
  150.9963  141.0647  156.7479 C   0  0  0  0  0  0  0  0  0  0  0  0
  150.9506  139.6995  156.1339 C   0  0  2  0  0  0  0  0  0  0  0  0
  152.2686  138.9262  156.3337 C   0  0  0  0  0  0  0  0  0  0  0  0
  152.2111  137.6413  155.6380 N   0  0  0  0  0  0  0  0  0  0  0  0
  151.8878  137.8208  154.2231 C   0  0  0  0  0  0  0  0  0  0  0  0
  150.5863  138.6287  154.0680 C   0  0  0  0  0  0  0  0  0  0  0  0
  150.7156  139.8778  154.7387 O   0  0  0  0  0  0  0  0  0  0  0  0
  150.1154  142.0008  156.3957 N   0  0  0  0  0  0  0  0  0  0  0  0
  150.4726  143.0364  157.1841 N   0  0  0  0  0  0  0  0  0  0  0  0
  150.0018  143.9297  157.1693 H   0  0  0  0  0  0  0  0  0  0  0  0
  151.9366  145.6290  159.6970 H   0  0  0  0  0  0  0  0  0  0  0  0
  150.4056  144.9115  159.2023 H   0  0  0  0  0  0  0  0  0  0  0  0
  151.5548  145.4658  157.9848 H   0  0  0  0  0  0  0  0  0  0  0  0
  153.1877  143.6918  158.7326 H   0  0  0  0  0  0  0  0  0  0  0  0
  152.0448  143.1436  159.9362 H   0  0  0  0  0  0  0  0  0  0  0  0
  150.1178  139.1461  156.5729 H   0  0  0  0  0  0  0  0  0  0  0  0
  153.1029  139.5156  155.9512 H   0  0  0  0  0  0  0  0  0  0  0  0
  152.4558  138.7682  157.3961 H   0  0  0  0  0  0  0  0  0  0  0  0
  153.1043  137.1671  155.7252 H   0  0  0  0  0  0  0  0  0  0  0  0
  152.7034  138.3412  153.7196 H   0  0  0  0  0  0  0  0  0  0  0  0
  151.7871  136.8508  153.7362 H   0  0  0  0  0  0  0  0  0  0  0  0
  150.3849  138.8150  153.0130 H   0  0  0  0  0  0  0  0  0  0  0  0
  149.7322  138.0752  154.4616 H   0  0  0  0  0  0  0  0  0  0  0  0
  1  2  1  0  0  0  0
  1 15  1  0  0  0  0
  1 16  1  0  0  0  0
  1 17  1  0  0  0  0
  2  3  1  0  0  0  0
  2 18  1  0  0  0  0
  2 19  1  0  0  0  0
  3 13  1  0  0  0  0
  3  4  2  0  0  0  0
  4  5  1  0  0  0  0
  5  6  1  0  0  0  0
  5 12  2  0  0  0  0
  6 11  1  0  0  0  0
  6  7  1  0  0  0  0
  6 20  1  0  0  0  0
  7  8  1  0  0  0  0
  7 21  1  0  0  0  0
  7 22  1  0  0  0  0
  8  9  1  0  0  0  0
  8 23  1  0  0  0  0
  9 10  1  0  0  0  0
  9 24  1  0  0  0  0
  9 25  1  0  0  0  0
 10 11  1  0  0  0  0
 10 26  1  0  0  0  0
 10 27  1  0  0  0  0
 12 13  1  0  0  0  0
 13 14  1  0  0  0  0
M  END
> <s_m_source_file>
AV-unprocessed.smi

> <i_m_source_file_index>
3085

> <i_lp_mmshare_version>
43012

> <i_f3d_flags>
0

> <s_epik_input>
W0NIM11bQ0gyXWMxbmMobltuSF0xKVtDQEBIXTJbQ0gyXVtOSF1bQ0gyXVtDSDJdTzI=

> <s_epik_cmdline>
J2VwaWtfcHl0aG9uJywgJy1waCcsICc3LjAnLCAnLXRuJywgJzgnLCAnLW1hJywgJzIwMCcsICctbWV0YWxfYmluZGluZycsICctaW1hZScsICc8aW5maWxlLm1hZT4nLCAnLW9tYWUnLCAnPG91dGZpbGUubWFlPic=

> <r_lp_tautomer_probability>
0.948284

> <r_epik_Ionization_Penalty>
1.10101

> <r_epik_Ionization_Penalty_Charging>
0

> <r_epik_Ionization_Penalty_Neutral>
1.10101

> <r_epik_State_Penalty>
1.49451

> <r_epik_Charging_Adjusted_Penalty>
1.49451

> <i_epik_Tot_Q>
0

> <i_epik_Tot_abs_Q>
0

> <r_epik_Metal_State_Penalty>
1.71443

> <b_epik_Metal_Only>
0

> <s_lp_Force_Field>
OPLS_2005

> <r_lp_Energy>
11.1302

> <b_lp_Chiralities_Consistent>
1

> <s_lp_Variant>
AV-unprocessed.smi:3085-5

> <Gold.Version>
5.8.1

> <Gold.Id.Protein>
6NUR|6NUR_protein|mol2

> <Gold.PLP.Fitness>
29.4719

> <Gold.PLP.PLP>
-25.7370

> <Gold.PLP.part.hbond>
-2.4549

> <Gold.PLP.part.metal>
0.0000

> <Gold.PLP.part.buried>
-4.1981

> <Gold.PLP.part.nonpolar>
-20.1163

> <Gold.PLP.part.repulsive>
0.5760

> <Gold.PLP.ligand.clash>
0.0000

> <Gold.PLP.ligand.torsion>
0.5268

> <Gold.PLP.Chemscore.Hbond>
1.5920

> <Gold.PLP.Chemscore.CHOScore>
0.0000

> <Gold.PLP.Chemscore.Metal>
0.0000

> <Gold.Chemscore.Hbonds>
donor molecule, donor type, donor heavy atom, donor atom, acceptor molecule, acceptor atom, score
      L1  H    13    14       P1  8028  0.58
      P1  H  7989  7998       L1    11  1.00

> <Gold.PLP.Chemscore.Internal.Correction>
0.0124

> <Gold.Rescore>
     Score         DG    S(hbond)    S(metal)    S(lipo)     H(rot)  DE(clash)    DE(int)     intcor
     13.93     -14.67       1.81        0.00      55.03       1.28       0.21       0.52       ----

> <Gold.Chemscore.Fitness>
13.9348

> <Gold.Chemscore.DG>
-14.6723

> <Gold.Chemscore.ZeroCoef>
-5.4800

> <Gold.Chemscore.Hbond>
1.8068

> <Gold.Chemscore.Metal>
0.0000

> <Gold.Chemscore.Lipo>
55.0258

> <Gold.Chemscore.Internal_Hbond>
0.0000

> <Gold.Chemscore.DEClash>
0.2127

> <Gold.Chemscore.DEInternal>
0.5247

> <Gold.Chemscore.Rot>
1.2815

> <Gold.Chemscore.Internal.Correction>
   9.000000E+99

> <Gold.Chemscore.Hbonds>
donor molecule, donor type, donor heavy atom, donor atom, acceptor molecule, acceptor atom, score
      L1  H    13    14       P1  8028  0.48
      P1  H  7989  7998       L1    11  0.30

> <Gold.Chemscore.Hbond.Weighted>
-6.0348

> <Gold.Chemscore.Metal.Weighted>
-0.0000

> <Gold.Chemscore.Lipo.Weighted>
-6.4380

> <Gold.Chemscore.Internal_Hbond.Weighted>
0.0000

> <Gold.Chemscore.DEClash.Weighted>
0.2127

> <Gold.Chemscore.DEInternal.Weighted>
0.5247

> <Gold.Chemscore.Rot.Weighted>
3.2805

> <Gold.Chemscore.Internal.Correction.Weighted>
   9.000000E+99

> <Gold.Protein.RotatedTorsions>
[ 6907 6896 6895 6894 ] final -176.77 input  -60.11 | X-H torsion
[ 7974 7965 7964 7962 ] final   90.66 input  175.53 | X-H torsion
[ 8008 7997 7996 7995 ] final   83.67 input   59.86 | X-H torsion
[ 10167 10162 10161 10158 ] final  111.47 input  -65.29 | X-H torsion
[ 10718 10713 10712 10709 ] final  107.60 input   66.30 | X-H torsion
[ 10763 10752 10751 10750 ] final   56.81 input  -60.55 | X-H torsion
[ 11005 11000 10999 10996 ] final -134.77 input  -57.11 | X-H torsion

> <Gold.Protein.ActiveResidues>
 VAL166  LYS551  ARG553  GLY616  TRP617  ASP618  TYR619  PRO620  LYS621  CYS622 
 ASP623  PHE694  ASN695  SER759  ASP760  ASP761  ALA762  ILE779  LEU786  VAL792 
 PHE793  MET794  SER795  GLU796  ALA797  LYS798  CYS799  TRP800  GLU811  SER814 

> <Gold.Protein.RotatedAtoms>
  151.6102  133.3348  159.3065 H   0  0  0  0  0  0  0  0  0  0  0  0  # atno 6907 bound_to 6896
  150.8161  134.7346  159.6742 H   0  0  0  0  0  0  0  0  0  0  0  0  # atno 6908 bound_to 6896
  152.4256  134.5879  160.0017 H   0  0  0  0  0  0  0  0  0  0  0  0  # atno 6909 bound_to 6896
  145.5160  139.2278  143.2698 H   0  0  0  0  0  0  0  0  0  0  0  0  # atno 7974 bound_to 7965
  155.9269  140.3417  155.6218 H   0  0  0  0  0  0  0  0  0  0  0  0  # atno 8008 bound_to 7997
  155.7205  140.0783  157.2351 H   0  0  0  0  0  0  0  0  0  0  0  0  # atno 8009 bound_to 7997
  154.4078  140.1606  156.2384 H   0  0  0  0  0  0  0  0  0  0  0  0  # atno 8010 bound_to 7997
  139.6609  144.7128  151.1868 H   0  0  0  0  0  0  0  0  0  0  0  0  # atno 10167 bound_to 10162
  157.6621  131.0876  150.6181 H   0  0  0  0  0  0  0  0  0  0  0  0  # atno 10718 bound_to 10713
  152.9838  135.5663  154.5289 H   0  0  0  0  0  0  0  0  0  0  0  0  # atno 10763 bound_to 10752
  154.4764  135.2787  155.1606 H   0  0  0  0  0  0  0  0  0  0  0  0  # atno 10764 bound_to 10752
  154.3133  135.6284  153.5528 H   0  0  0  0  0  0  0  0  0  0  0  0  # atno 10765 bound_to 10752
  140.8959  134.1752  157.4495 H   0  0  0  0  0  0  0  0  0  0  0  0  # atno 11005 bound_to 11000
  146.2136  140.5970  142.9048 LP  0  0  0  0  0  0  0  0  0  0  0  0  # atno 17320 bound_to 7965
  144.7701  140.5619  143.6676 LP  0  0  0  0  0  0  0  0  0  0  0  0  # atno 17321 bound_to 7965
  140.7579  143.5996  150.8713 LP  0  0  0  0  0  0  0  0  0  0  0  0  # atno 17342 bound_to 10162
  139.9654  143.6117  152.2990 LP  0  0  0  0  0  0  0  0  0  0  0  0  # atno 17343 bound_to 10162
  156.6483  130.4478  149.5728 LP  0  0  0  0  0  0  0  0  0  0  0  0  # atno 17370 bound_to 10713
  156.2157  130.6706  151.1316 LP  0  0  0  0  0  0  0  0  0  0  0  0  # atno 17371 bound_to 10713
  139.8735  134.9878  156.5384 LP  0  0  0  0  0  0  0  0  0  0  0  0  # atno 17394 bound_to 11000
  140.8290  133.8294  155.8966 LP  0  0  0  0  0  0  0  0  0  0  0  0  # atno 17395 bound_to 11000

$$$$
