AV-unprocessed.smi:248|AV-procd|sdf|1896|dock3
  -GOLD-   2262020563D 1   1.00000     0.00000
 Structure written by MMmdl.
 62 65  0  0  0  0  0  0  0  0  1 V2000
  152.0800  144.3545  160.8880 C   0  0  0  0  0  0  0  0  0  0  0  0
  152.4398  142.8726  161.0729 C   0  0  0  0  0  0  0  0  0  0  0  0
  153.2361  142.6761  162.3744 C   0  0  0  0  0  0  0  0  0  0  0  0
  153.1612  142.3312  159.8153 C   0  0  0  0  0  0  0  0  0  0  0  0
  152.2386  141.8863  158.7601 N   0  0  0  0  0  0  0  0  0  0  0  0
  151.2622  142.9000  158.3437 C   0  0  0  0  0  0  0  0  0  0  0  0
  150.0283  142.2885  157.6744 C   0  0  0  0  0  0  0  0  0  0  0  0
  150.4543  141.3669  156.6327 N   0  0  0  0  0  0  0  0  0  0  0  0
  149.4382  141.0182  155.8110 C   0  0  0  0  0  0  0  0  0  0  0  0
  149.3990  141.4936  154.5389 N   0  0  0  0  0  0  0  0  0  0  0  0
  148.3997  141.1368  153.7266 C   0  0  0  0  0  0  0  0  0  0  0  0
  147.3628  140.3350  153.9807 N   0  0  0  0  0  0  0  0  0  0  0  0
  147.3994  139.8622  155.2598 C   0  0  0  0  0  0  0  0  0  0  0  0
  148.3989  140.1483  156.2307 C   0  0  0  0  0  0  0  0  0  0  0  0
  148.1196  139.4831  157.4164 N   0  0  0  0  0  0  0  0  0  0  0  0
  147.0158  138.8356  157.1601 C   0  0  0  0  0  0  0  0  0  0  0  0
  146.5020  139.0190  155.8945 N   0  0  0  0  0  0  0  0  0  0  0  0
  145.2947  138.4119  155.3484 C   0  0  0  0  0  0  0  0  0  0  0  0
  143.9576  138.8573  156.0226 C   0  0  0  0  0  0  0  0  0  0  0  0
  144.0381  140.3776  156.3387 C   0  0  0  0  0  0  0  0  0  0  0  0
  144.1585  141.1887  155.1864 O   0  0  0  0  0  0  0  0  0  0  0  0
  142.7329  138.5743  155.1144 C   0  0  0  0  0  0  0  0  0  0  0  0
  142.4386  137.0692  154.9714 C   0  0  0  0  0  0  0  0  0  0  0  0
  142.2510  136.4865  156.2551 O   0  0  0  0  0  0  0  0  0  0  0  0
  143.4089  136.5735  157.0760 C   0  0  0  0  0  0  0  0  0  0  0  0
  143.7620  138.0502  157.3332 C   0  0  0  0  0  0  0  0  0  0  0  0
  151.3369  140.2715  157.0574 C   0  0  1  0  0  0  0  0  0  0  0  0
  152.0515  139.6549  155.8337 C   0  0  0  0  0  0  0  0  0  0  0  0
  152.3513  140.6759  158.1560 C   0  0  0  0  0  0  0  0  0  0  0  0
  153.2196  139.8627  158.4764 O   0  0  0  0  0  0  0  0  0  0  0  0
  152.9743  144.9676  160.7742 H   0  0  0  0  0  0  0  0  0  0  0  0
  151.5226  144.7351  161.7445 H   0  0  0  0  0  0  0  0  0  0  0  0
  151.4604  144.5021  160.0031 H   0  0  0  0  0  0  0  0  0  0  0  0
  151.5013  142.3279  161.1822 H   0  0  0  0  0  0  0  0  0  0  0  0
  154.2176  143.1471  162.3129 H   0  0  0  0  0  0  0  0  0  0  0  0
  153.3833  141.6200  162.5996 H   0  0  0  0  0  0  0  0  0  0  0  0
  152.7113  143.1125  163.2245 H   0  0  0  0  0  0  0  0  0  0  0  0
  153.8046  143.1116  159.4054 H   0  0  0  0  0  0  0  0  0  0  0  0
  153.8446  141.5286  160.0978 H   0  0  0  0  0  0  0  0  0  0  0  0
  150.9487  143.5020  159.1973 H   0  0  0  0  0  0  0  0  0  0  0  0
  151.7569  143.5791  157.6479 H   0  0  0  0  0  0  0  0  0  0  0  0
  149.4277  141.7558  158.4142 H   0  0  0  0  0  0  0  0  0  0  0  0
  149.4018  143.0806  157.2604 H   0  0  0  0  0  0  0  0  0  0  0  0
  148.4359  141.5519  152.7300 H   0  0  0  0  0  0  0  0  0  0  0  0
  146.5380  138.2058  157.8966 H   0  0  0  0  0  0  0  0  0  0  0  0
  145.2864  138.6078  154.2772 H   0  0  0  0  0  0  0  0  0  0  0  0
  145.4051  137.3304  155.4407 H   0  0  0  0  0  0  0  0  0  0  0  0
  143.1507  140.6990  156.8854 H   0  0  0  0  0  0  0  0  0  0  0  0
  144.8978  140.5970  156.9717 H   0  0  0  0  0  0  0  0  0  0  0  0
  143.9225  140.6741  154.4299 H   0  0  0  0  0  0  0  0  0  0  0  0
  141.8429  139.0402  155.5389 H   0  0  0  0  0  0  0  0  0  0  0  0
  142.8588  139.0301  154.1329 H   0  0  0  0  0  0  0  0  0  0  0  0
  141.5290  136.9242  154.3889 H   0  0  0  0  0  0  0  0  0  0  0  0
  143.2341  136.5489  154.4384 H   0  0  0  0  0  0  0  0  0  0  0  0
  143.1995  136.0750  158.0226 H   0  0  0  0  0  0  0  0  0  0  0  0
  144.2373  136.0314  156.6193 H   0  0  0  0  0  0  0  0  0  0  0  0
  144.6522  138.1172  157.9594 H   0  0  0  0  0  0  0  0  0  0  0  0
  142.9500  138.4760  157.9228 H   0  0  0  0  0  0  0  0  0  0  0  0
  150.7207  139.4946  157.5130 H   0  0  0  0  0  0  0  0  0  0  0  0
  152.7227  138.8450  156.1214 H   0  0  0  0  0  0  0  0  0  0  0  0
  152.6426  140.4033  155.3045 H   0  0  0  0  0  0  0  0  0  0  0  0
  151.3420  139.2307  155.1230 H   0  0  0  0  0  0  0  0  0  0  0  0
  1  2  1  0  0  0  0
  1 31  1  0  0  0  0
  1 32  1  0  0  0  0
  1 33  1  0  0  0  0
  2  3  1  0  0  0  0
  2  4  1  0  0  0  0
  2 34  1  0  0  0  0
  3 35  1  0  0  0  0
  3 36  1  0  0  0  0
  3 37  1  0  0  0  0
  4  5  1  0  0  0  0
  4 38  1  0  0  0  0
  4 39  1  0  0  0  0
  5 29  1  0  0  0  0
  5  6  1  0  0  0  0
  6  7  1  0  0  0  0
  6 40  1  0  0  0  0
  6 41  1  0  0  0  0
  7  8  1  0  0  0  0
  7 42  1  0  0  0  0
  7 43  1  0  0  0  0
  8  9  1  0  0  0  0
  8 27  1  0  0  0  0
  9 14  1  0  0  0  0
  9 10  2  0  0  0  0
 10 11  1  0  0  0  0
 11 12  2  0  0  0  0
 11 44  1  0  0  0  0
 12 13  1  0  0  0  0
 13 17  1  0  0  0  0
 13 14  2  0  0  0  0
 14 15  1  0  0  0  0
 15 16  2  0  0  0  0
 16 17  1  0  0  0  0
 16 45  1  0  0  0  0
 17 18  1  0  0  0  0
 18 19  1  0  0  0  0
 18 46  1  0  0  0  0
 18 47  1  0  0  0  0
 19 26  1  0  0  0  0
 19 20  1  0  0  0  0
 19 22  1  0  0  0  0
 20 21  1  0  0  0  0
 20 48  1  0  0  0  0
 20 49  1  0  0  0  0
 21 50  1  0  0  0  0
 22 23  1  0  0  0  0
 22 51  1  0  0  0  0
 22 52  1  0  0  0  0
 23 24  1  0  0  0  0
 23 53  1  0  0  0  0
 23 54  1  0  0  0  0
 24 25  1  0  0  0  0
 25 26  1  0  0  0  0
 25 55  1  0  0  0  0
 25 56  1  0  0  0  0
 26 57  1  0  0  0  0
 26 58  1  0  0  0  0
 27 28  1  0  0  0  0
 27 29  1  0  0  0  0
 27 59  1  0  0  0  0
 28 60  1  0  0  0  0
 28 61  1  0  0  0  0
 28 62  1  0  0  0  0
 29 30  2  0  0  0  0
M  END
> <s_m_source_file>
AV-unprocessed.smi

> <i_m_source_file_index>
248

> <i_lp_mmshare_version>
43012

> <i_f3d_flags>
0

> <s_epik_input>
W0NIM11bQ0hdKFtDSDNdKVtDSDJdTjFbQ0gyXVtDSDJdTihbQ0BASF0oW0NIM10pQzE9TyljKG5bY0hdbjIpYyhjMjMpbltjSF1uM1tDSDJdQzQoW0NIMl1bT0hdKVtDSDJdW0NIMl1PW0NIMl1bQ0gyXTQ=

> <s_epik_cmdline>
J2VwaWtfcHl0aG9uJywgJy1waCcsICc3LjAnLCAnLXRuJywgJzgnLCAnLW1hJywgJzIwMCcsICctbWV0YWxfYmluZGluZycsICctaW1hZScsICc8aW5maWxlLm1hZT4nLCAnLW9tYWUnLCAnPG91dGZpbGUubWFlPic=

> <r_lp_tautomer_probability>
1

> <r_epik_Ionization_Penalty>
0.000593973

> <r_epik_Ionization_Penalty_Charging>
0

> <r_epik_Ionization_Penalty_Neutral>
0.000593973

> <r_epik_State_Penalty>
0.000283267

> <r_epik_Charging_Adjusted_Penalty>
0.000283267

> <i_epik_Tot_Q>
0

> <i_epik_Tot_abs_Q>
0

> <r_epik_Metal_State_Penalty>
-0

> <b_epik_Metal_Only>
0

> <s_lp_Force_Field>
OPLS_2005

> <r_lp_Energy>
46.1111

> <b_lp_Chiralities_Consistent>
1

> <s_lp_Variant>
AV-unprocessed.smi:248-1

> <Gold.Version>
5.8.1

> <Gold.Id.Protein>
6NUR|6NUR_protein|mol2

> <Gold.PLP.Fitness>
46.2269

> <Gold.PLP.PLP>
-39.6863

> <Gold.PLP.part.hbond>
-4.2929

> <Gold.PLP.part.metal>
0.0000

> <Gold.PLP.part.buried>
-5.0720

> <Gold.PLP.part.nonpolar>
-31.0234

> <Gold.PLP.part.repulsive>
0.3653

> <Gold.PLP.ligand.clash>
0.0000

> <Gold.PLP.ligand.torsion>
0.8538

> <Gold.PLP.Chemscore.Hbond>
2.0000

> <Gold.PLP.Chemscore.CHOScore>
0.6041

> <Gold.PLP.Chemscore.Metal>
0.0000

> <Gold.Chemscore.Hbonds>
donor molecule, donor type, donor heavy atom, donor atom, acceptor molecule, acceptor atom, score
      L1  H    21    50       P1 10175  1.00
      P1  H  7997  8008       L1    30  0.99
      L1  C    11    44       P1  7957  0.65

> <Gold.PLP.Chemscore.Internal.Correction>
0.4359

> <Gold.Rescore>
     Score         DG    S(hbond)    S(metal)    S(lipo)     H(rot)  DE(clash)    DE(int)     intcor
     13.19     -14.06       1.85        0.00      80.90       2.75       0.00       0.86       ----

> <Gold.Chemscore.Fitness>
13.1931

> <Gold.Chemscore.DG>
-14.0619

> <Gold.Chemscore.ZeroCoef>
-5.4800

> <Gold.Chemscore.Hbond>
1.8451

> <Gold.Chemscore.Metal>
0.0000

> <Gold.Chemscore.Lipo>
80.8998

> <Gold.Chemscore.Internal_Hbond>
0.0000

> <Gold.Chemscore.DEClash>
0.0048

> <Gold.Chemscore.DEInternal>
0.8639

> <Gold.Chemscore.Rot>
2.7523

> <Gold.Chemscore.Internal.Correction>
   9.000000E+99

> <Gold.Chemscore.Hbonds>
donor molecule, donor type, donor heavy atom, donor atom, acceptor molecule, acceptor atom, score
      L1  H    21    50       P1 10175  0.94
      P1  H  7997  8008       L1    30  0.62

> <Gold.Chemscore.Hbond.Weighted>
-6.1625

> <Gold.Chemscore.Metal.Weighted>
-0.0000

> <Gold.Chemscore.Lipo.Weighted>
-9.4653

> <Gold.Chemscore.Internal_Hbond.Weighted>
0.0000

> <Gold.Chemscore.DEClash.Weighted>
0.0048

> <Gold.Chemscore.DEInternal.Weighted>
0.8639

> <Gold.Chemscore.Rot.Weighted>
7.0459

> <Gold.Chemscore.Internal.Correction.Weighted>
   9.000000E+99

> <Gold.Protein.RotatedTorsions>
[ 6907 6896 6895 6894 ] final -165.74 input  -60.11 | X-H torsion
[ 7974 7965 7964 7962 ] final -165.29 input  175.53 | X-H torsion
[ 8008 7997 7996 7995 ] final -101.38 input   59.86 | X-H torsion
[ 10167 10162 10161 10158 ] final  -74.21 input  -65.29 | X-H torsion
[ 10718 10713 10712 10709 ] final   77.65 input   66.30 | X-H torsion
[ 10763 10752 10751 10750 ] final   44.73 input  -60.55 | X-H torsion
[ 11005 11000 10999 10996 ] final  -72.72 input  -57.11 | X-H torsion

> <Gold.Protein.ActiveResidues>
 VAL166  LYS551  ARG553  GLY616  TRP617  ASP618  TYR619  PRO620  LYS621  CYS622 
 ASP623  PHE694  ASN695  SER759  ASP760  ASP761  ALA762  ILE779  LEU786  VAL792 
 PHE793  MET794  SER795  GLU796  ALA797  LYS798  CYS799  TRP800  GLU811  SER814 

> <Gold.Protein.RotatedAtoms>
  151.4325  133.3666  159.2770 H   0  0  0  0  0  0  0  0  0  0  0  0  # atno 6907 bound_to 6896
  150.9215  134.8634  159.7503 H   0  0  0  0  0  0  0  0  0  0  0  0  # atno 6908 bound_to 6896
  152.4984  134.4263  159.9549 H   0  0  0  0  0  0  0  0  0  0  0  0  # atno 6909 bound_to 6896
  144.7274  140.2836  143.6232 H   0  0  0  0  0  0  0  0  0  0  0  0  # atno 7974 bound_to 7965
  154.8417  140.0435  157.1546 H   0  0  0  0  0  0  0  0  0  0  0  0  # atno 8008 bound_to 7997
  154.9039  140.3004  155.5282 H   0  0  0  0  0  0  0  0  0  0  0  0  # atno 8009 bound_to 7997
  156.2992  140.2370  156.4071 H   0  0  0  0  0  0  0  0  0  0  0  0  # atno 8010 bound_to 7997
  140.5046  143.2355  151.7696 H   0  0  0  0  0  0  0  0  0  0  0  0  # atno 10167 bound_to 10162
  157.6718  130.9832  150.1672 H   0  0  0  0  0  0  0  0  0  0  0  0  # atno 10718 bound_to 10713
  152.9836  135.6061  154.3322 H   0  0  0  0  0  0  0  0  0  0  0  0  # atno 10763 bound_to 10752
  154.3024  135.2772  155.2606 H   0  0  0  0  0  0  0  0  0  0  0  0  # atno 10764 bound_to 10752
  154.4852  135.5906  153.6475 H   0  0  0  0  0  0  0  0  0  0  0  0  # atno 10765 bound_to 10752
  141.1612  133.6855  156.7102 H   0  0  0  0  0  0  0  0  0  0  0  0  # atno 11005 bound_to 11000
  145.7925  139.1932  143.2095 LP  0  0  0  0  0  0  0  0  0  0  0  0  # atno 17320 bound_to 7965
  146.0744  140.7833  142.9672 LP  0  0  0  0  0  0  0  0  0  0  0  0  # atno 17321 bound_to 7965
  139.4880  144.4475  151.9693 LP  0  0  0  0  0  0  0  0  0  0  0  0  # atno 17342 bound_to 10162
  140.3565  144.3025  150.5940 LP  0  0  0  0  0  0  0  0  0  0  0  0  # atno 17343 bound_to 10162
  156.2435  130.3693  149.8311 LP  0  0  0  0  0  0  0  0  0  0  0  0  # atno 17370 bound_to 10713
  156.6104  130.8584  151.3453 LP  0  0  0  0  0  0  0  0  0  0  0  0  # atno 17371 bound_to 10713
  140.2893  134.8253  157.4003 LP  0  0  0  0  0  0  0  0  0  0  0  0  # atno 17394 bound_to 11000
  140.1361  134.5032  155.8067 LP  0  0  0  0  0  0  0  0  0  0  0  0  # atno 17395 bound_to 11000

$$$$
