AV-unprocessed.smi:2091|AV-procd|sdf|8541|dock4
  -GOLD-   2272011263D 1   1.00000     0.00000
 Structure written by MMmdl.
 35 36  0  0  0  0  0  0  0  0  2 V2000
  152.7319  139.8402  157.1194 O   0  0  0  0  0  0  0  0  0  0  0  0
  152.2011  139.3565  158.1203 C   0  0  0  0  0  0  0  0  0  0  0  0
  152.1666  137.8371  158.3321 C   0  0  0  0  0  0  0  0  0  0  0  0
  153.2347  137.3575  159.2241 N   0  0  0  0  0  0  0  0  0  0  0  0
  153.2180  137.7958  160.5600 C   0  0  0  0  0  0  0  0  0  0  0  0
  154.1543  137.4078  161.4468 C   0  0  0  0  0  0  0  0  0  0  0  0
  155.2062  136.5077  160.9907 C   0  0  0  0  0  0  0  0  0  0  0  0
  156.0659  136.1382  161.7883 O   0  0  0  0  0  0  0  0  0  0  0  0
  155.1828  136.1152  159.6833 N   0  5  0  0  0  0  0  0  0  0  0  0
  154.2256  136.5204  158.7916 C   0  0  0  0  0  0  0  0  0  0  0  0
  154.2247  136.1562  157.6150 O   0  0  0  0  0  0  0  0  0  0  0  0
  151.6518  140.0998  159.0940 N   0  0  0  0  0  0  0  0  0  0  0  0
  151.5880  141.5628  159.1148 C   0  0  1  0  0  0  0  0  0  0  0  0
  153.0382  142.0906  159.2061 C   0  0  0  0  0  0  0  0  0  0  0  0
  153.1456  143.5193  159.7674 C   0  0  0  0  0  0  0  0  0  0  0  0
  152.5108  144.6102  158.8918 C   0  0  0  0  0  0  0  0  0  0  0  0
  150.9934  144.4454  158.7014 C   0  0  0  0  0  0  0  0  0  0  0  0
  150.6724  143.4144  157.7231 N   0  0  0  0  0  0  0  0  0  0  0  0
  150.9323  142.1016  157.8215 C   0  0  0  0  0  0  0  0  0  0  0  0
  150.6559  141.3427  156.8923 O   0  0  0  0  0  0  0  0  0  0  0  0
  151.1872  137.5749  158.7341 H   0  0  0  0  0  0  0  0  0  0  0  0
  152.2263  137.3263  157.3690 H   0  0  0  0  0  0  0  0  0  0  0  0
  152.4096  138.4650  160.8147 H   0  0  0  0  0  0  0  0  0  0  0  0
  154.1287  137.7558  162.4688 H   0  0  0  0  0  0  0  0  0  0  0  0
  151.2493  139.6167  159.8836 H   0  0  0  0  0  0  0  0  0  0  0  0
  151.0160  141.8818  159.9879 H   0  0  0  0  0  0  0  0  0  0  0  0
  153.6098  141.4440  159.8735 H   0  0  0  0  0  0  0  0  0  0  0  0
  153.5399  142.0259  158.2389 H   0  0  0  0  0  0  0  0  0  0  0  0
  152.7024  143.5503  160.7635 H   0  0  0  0  0  0  0  0  0  0  0  0
  154.2003  143.7586  159.9059 H   0  0  0  0  0  0  0  0  0  0  0  0
  152.6960  145.5742  159.3667 H   0  0  0  0  0  0  0  0  0  0  0  0
  153.0096  144.6545  157.9226 H   0  0  0  0  0  0  0  0  0  0  0  0
  150.4947  144.2422  159.6501 H   0  0  0  0  0  0  0  0  0  0  0  0
  150.5756  145.3811  158.3295 H   0  0  0  0  0  0  0  0  0  0  0  0
  150.2336  143.7310  156.8705 H   0  0  0  0  0  0  0  0  0  0  0  0
  1  2  2  0  0  0  0
  2  3  1  0  0  0  0
  2 12  1  0  0  0  0
  3  4  1  0  0  0  0
  3 21  1  0  0  0  0
  3 22  1  0  0  0  0
  4 10  1  0  0  0  0
  4  5  1  0  0  0  0
  5  6  2  0  0  0  0
  5 23  1  0  0  0  0
  6  7  1  0  0  0  0
  6 24  1  0  0  0  0
  7  8  2  0  0  0  0
  7  9  1  0  0  0  0
  9 10  1  0  0  0  0
 10 11  2  0  0  0  0
 12 13  1  0  0  0  0
 12 25  1  0  0  0  0
 13 19  1  0  0  0  0
 13 14  1  0  0  0  0
 13 26  1  0  0  0  0
 14 15  1  0  0  0  0
 14 27  1  0  0  0  0
 14 28  1  0  0  0  0
 15 16  1  0  0  0  0
 15 29  1  0  0  0  0
 15 30  1  0  0  0  0
 16 17  1  0  0  0  0
 16 31  1  0  0  0  0
 16 32  1  0  0  0  0
 17 18  1  0  0  0  0
 17 33  1  0  0  0  0
 17 34  1  0  0  0  0
 18 19  1  0  0  0  0
 18 35  1  0  0  0  0
 19 20  2  0  0  0  0
M  CHG  1   9  -1
M  END
> <s_m_source_file>
AV-unprocessed.smi

> <i_m_source_file_index>
2091

> <i_lp_mmshare_version>
43012

> <i_f3d_flags>
0

> <s_epik_input>
Tz1jMVtuSF1jKD1PKVtjSF1bY0hdbjFbQ0gyXUMoPU8pW05IXVtDQEBIXTJbQ0gyXVtDSDJdW0NIMl1bQ0gyXVtOSF1DMj1P

> <s_epik_cmdline>
J2VwaWtfcHl0aG9uJywgJy1waCcsICc3LjAnLCAnLXRuJywgJzgnLCAnLW1hJywgJzIwMCcsICctbWV0YWxfYmluZGluZycsICctaW1hZScsICc8aW5maWxlLm1hZT4nLCAnLW9tYWUnLCAnPG91dGZpbGUubWFlPic=

> <r_lp_tautomer_probability>
0.999537

> <r_epik_Ionization_Penalty>
3.03155

> <r_epik_Ionization_Penalty_Charging>
2.38195e-08

> <r_epik_Ionization_Penalty_Neutral>
3.03155

> <r_epik_State_Penalty>
3.03052

> <r_epik_Charging_Adjusted_Penalty>
3.03052

> <i_epik_Tot_Q>
-1

> <i_epik_Tot_abs_Q>
1

> <r_epik_Metal_State_Penalty>
0.455936

> <b_epik_Metal_Only>
1

> <s_lp_Force_Field>
OPLS_2005

> <r_lp_Energy>
21.0556

> <b_lp_Chiralities_Consistent>
1

> <s_lp_Variant>
AV-unprocessed.smi:2091-4

> <Gold.Version>
5.8.1

> <Gold.Id.Protein>
6NUR|6NUR_protein|mol2

> <Gold.PLP.Fitness>
40.9546

> <Gold.PLP.PLP>
-32.6554

> <Gold.PLP.part.hbond>
-3.0000

> <Gold.PLP.part.metal>
0.0000

> <Gold.PLP.part.buried>
-5.1070

> <Gold.PLP.part.nonpolar>
-25.0503

> <Gold.PLP.part.repulsive>
0.2225

> <Gold.PLP.ligand.clash>
0.0000

> <Gold.PLP.ligand.torsion>
0.3515

> <Gold.PLP.Chemscore.Hbond>
3.0000

> <Gold.PLP.Chemscore.CHOScore>
0.0000

> <Gold.PLP.Chemscore.Metal>
0.0000

> <Gold.Chemscore.Hbonds>
donor molecule, donor type, donor heavy atom, donor atom, acceptor molecule, acceptor atom, score
      L1  H    18    35       P1  8028  0.94
      P1  H  7997  8008       L1     1  1.00
      P1  H 10752 10765       L1    11  0.13

> <Gold.PLP.Chemscore.Internal.Correction>
0.0021

> <Gold.Rescore>
     Score         DG    S(hbond)    S(metal)    S(lipo)     H(rot)  DE(clash)    DE(int)     intcor
     14.89     -18.98       2.98        0.00      70.77       1.85       0.01       4.09       ----

> <Gold.Chemscore.Fitness>
14.8920

> <Gold.Chemscore.DG>
-18.9833

> <Gold.Chemscore.ZeroCoef>
-5.4800

> <Gold.Chemscore.Hbond>
2.9832

> <Gold.Chemscore.Metal>
0.0000

> <Gold.Chemscore.Lipo>
70.7709

> <Gold.Chemscore.Internal_Hbond>
0.0000

> <Gold.Chemscore.DEClash>
0.0060

> <Gold.Chemscore.DEInternal>
4.0853

> <Gold.Chemscore.Rot>
1.8519

> <Gold.Chemscore.Internal.Correction>
   9.000000E+99

> <Gold.Chemscore.Hbonds>
donor molecule, donor type, donor heavy atom, donor atom, acceptor molecule, acceptor atom, score
      L1  H    18    35       P1  8028  0.89
      P1  H  7997  8008       L1     1  0.98
      P1  H 10752 10765       L1    11  0.16

> <Gold.Chemscore.Hbond.Weighted>
-9.9639

> <Gold.Chemscore.Metal.Weighted>
-0.0000

> <Gold.Chemscore.Lipo.Weighted>
-8.2802

> <Gold.Chemscore.Internal_Hbond.Weighted>
0.0000

> <Gold.Chemscore.DEClash.Weighted>
0.0060

> <Gold.Chemscore.DEInternal.Weighted>
4.0853

> <Gold.Chemscore.Rot.Weighted>
4.7408

> <Gold.Chemscore.Internal.Correction.Weighted>
   9.000000E+99

> <Gold.Protein.RotatedTorsions>
[ 6907 6896 6895 6894 ] final  -38.79 input  -60.11 | X-H torsion
[ 7974 7965 7964 7962 ] final   58.40 input  175.53 | X-H torsion
[ 8008 7997 7996 7995 ] final  -72.44 input   59.86 | X-H torsion
[ 10167 10162 10161 10158 ] final -159.26 input  -65.29 | X-H torsion
[ 10718 10713 10712 10709 ] final -131.78 input   66.30 | X-H torsion
[ 10763 10752 10751 10750 ] final -101.80 input  -60.55 | X-H torsion
[ 11005 11000 10999 10996 ] final -135.54 input  -57.11 | X-H torsion

> <Gold.Protein.ActiveResidues>
 VAL166  LYS551  ARG553  GLY616  TRP617  ASP618  TYR619  PRO620  LYS621  CYS622 
 ASP623  PHE694  ASN695  SER759  ASP760  ASP761  ALA762  ILE779  LEU786  VAL792 
 PHE793  MET794  SER795  GLU796  ALA797  LYS798  CYS799  TRP800  GLU811  SER814 

> <Gold.Protein.RotatedAtoms>
  150.9982  134.9300  159.7938 H   0  0  0  0  0  0  0  0  0  0  0  0  # atno 6907 bound_to 6896
  152.5270  134.3190  159.9151 H   0  0  0  0  0  0  0  0  0  0  0  0  # atno 6908 bound_to 6896
  151.3196  133.4004  159.2688 H   0  0  0  0  0  0  0  0  0  0  0  0  # atno 6909 bound_to 6896
  145.9186  139.3711  143.0492 H   0  0  0  0  0  0  0  0  0  0  0  0  # atno 7974 bound_to 7965
  154.5166  140.0797  156.8093 H   0  0  0  0  0  0  0  0  0  0  0  0  # atno 8008 bound_to 7997
  155.3666  140.3420  155.4224 H   0  0  0  0  0  0  0  0  0  0  0  0  # atno 8009 bound_to 7997
  156.1635  140.1596  156.8559 H   0  0  0  0  0  0  0  0  0  0  0  0  # atno 8010 bound_to 7997
  139.6628  143.9882  152.2236 H   0  0  0  0  0  0  0  0  0  0  0  0  # atno 10167 bound_to 10162
  156.2279  130.7019  151.0827 H   0  0  0  0  0  0  0  0  0  0  0  0  # atno 10718 bound_to 10713
  154.7685  135.4884  153.9602 H   0  0  0  0  0  0  0  0  0  0  0  0  # atno 10763 bound_to 10752
  153.1338  135.6758  153.9143 H   0  0  0  0  0  0  0  0  0  0  0  0  # atno 10764 bound_to 10752
  153.8838  135.3129  155.3424 H   0  0  0  0  0  0  0  0  0  0  0  0  # atno 10765 bound_to 10752
  140.8888  134.1838  157.4542 H   0  0  0  0  0  0  0  0  0  0  0  0  # atno 11005 bound_to 11000
  145.8579  140.9492  143.0715 LP  0  0  0  0  0  0  0  0  0  0  0  0  # atno 17320 bound_to 7965
  144.6750  140.0493  143.7479 LP  0  0  0  0  0  0  0  0  0  0  0  0  # atno 17321 bound_to 7965
  139.9625  144.6548  150.8065 LP  0  0  0  0  0  0  0  0  0  0  0  0  # atno 17342 bound_to 10162
  140.7587  143.3113  151.2838 LP  0  0  0  0  0  0  0  0  0  0  0  0  # atno 17343 bound_to 10162
  157.7119  131.0730  150.6469 LP  0  0  0  0  0  0  0  0  0  0  0  0  # atno 17370 bound_to 10713
  156.6535  130.4492  149.5711 LP  0  0  0  0  0  0  0  0  0  0  0  0  # atno 17371 bound_to 10713
  139.8727  134.9849  156.5261 LP  0  0  0  0  0  0  0  0  0  0  0  0  # atno 17394 bound_to 11000
  140.8372  133.8233  155.9040 LP  0  0  0  0  0  0  0  0  0  0  0  0  # atno 17395 bound_to 11000

$$$$
