AV-unprocessed.smi:798|AV-procd|sdf|3771|dock4
  -GOLD-   22720 1203D 1   1.00000     0.00000
 Structure written by MMmdl.
 34 36  0  0  0  0  0  0  0  0  1 V2000
  150.9080  140.7669  156.1805 O   0  0  0  0  0  0  0  0  0  0  0  0
  150.3574  141.8605  156.0499 C   0  0  0  0  0  0  0  0  0  0  0  0
  150.6232  142.9574  156.7807 N   0  0  0  0  0  0  0  0  0  0  0  0
  151.5469  143.0990  157.8502 C   0  0  0  0  0  0  0  0  0  0  0  0
  152.2250  142.0735  158.3891 N   0  0  0  0  0  0  0  0  0  0  0  0
  153.0558  142.4858  159.4229 N   0  0  0  0  0  0  0  0  0  0  0  0
  152.9726  143.8042  159.6222 C   0  0  0  0  0  0  0  0  0  0  0  0
  151.8713  144.6716  158.5659 S   0  0  0  0  0  0  0  0  0  0  0  0
  149.4014  142.1017  155.1419 N   0  0  0  0  0  0  0  0  0  0  0  0
  148.8718  141.1162  154.2023 C   0  0  2  0  0  0  0  0  0  0  0  0
  147.4020  141.4357  153.8511 C   0  0  1  0  0  0  0  0  0  0  0  0
  147.0151  140.6502  152.5851 C   0  0  0  0  0  0  0  0  0  0  0  0
  146.9157  139.2050  153.1083 C   0  0  0  0  0  0  0  0  0  0  0  0
  147.2747  139.3510  154.6030 C   0  0  2  0  0  0  0  0  0  0  0  0
  146.6213  140.6880  154.9290 C   0  0  0  0  0  0  0  0  0  0  0  0
  148.7705  139.6949  154.8139 C   0  0  1  0  0  0  0  0  0  0  0  0
  149.7883  138.6883  154.2431 C   0  0  0  0  0  0  0  0  0  0  0  0
  151.0735  139.2697  154.1821 O   0  0  0  0  0  0  0  0  0  0  0  0
  150.0958  143.7871  156.5520 H   0  0  0  0  0  0  0  0  0  0  0  0
  153.5635  144.2686  160.3977 H   0  0  0  0  0  0  0  0  0  0  0  0
  149.0035  143.0284  155.1006 H   0  0  0  0  0  0  0  0  0  0  0  0
  149.4824  141.1254  153.2970 H   0  0  0  0  0  0  0  0  0  0  0  0
  147.1833  142.5019  153.7772 H   0  0  0  0  0  0  0  0  0  0  0  0
  146.0517  140.9848  152.1985 H   0  0  0  0  0  0  0  0  0  0  0  0
  147.7497  140.7555  151.7858 H   0  0  0  0  0  0  0  0  0  0  0  0
  145.8948  138.8362  152.9986 H   0  0  0  0  0  0  0  0  0  0  0  0
  147.5643  138.5148  152.5708 H   0  0  0  0  0  0  0  0  0  0  0  0
  146.9297  138.5187  155.2171 H   0  0  0  0  0  0  0  0  0  0  0  0
  146.8306  141.0395  155.9409 H   0  0  0  0  0  0  0  0  0  0  0  0
  145.5419  140.6953  154.7670 H   0  0  0  0  0  0  0  0  0  0  0  0
  148.9414  139.7555  155.8910 H   0  0  0  0  0  0  0  0  0  0  0  0
  149.8284  137.7699  154.8273 H   0  0  0  0  0  0  0  0  0  0  0  0
  149.4981  138.4010  153.2324 H   0  0  0  0  0  0  0  0  0  0  0  0
  151.4923  139.1596  155.0221 H   0  0  0  0  0  0  0  0  0  0  0  0
  1  2  2  0  0  0  0
  2  3  1  0  0  0  0
  2  9  1  0  0  0  0
  3  4  1  0  0  0  0
  3 19  1  0  0  0  0
  4  8  1  0  0  0  0
  4  5  2  0  0  0  0
  5  6  1  0  0  0  0
  6  7  2  0  0  0  0
  7  8  1  0  0  0  0
  7 20  1  0  0  0  0
  9 10  1  0  0  0  0
  9 21  1  0  0  0  0
 10 16  1  0  0  0  0
 10 11  1  0  0  0  0
 10 22  1  0  0  0  0
 11 15  1  0  0  0  0
 11 12  1  0  0  0  0
 11 23  1  0  0  0  0
 12 13  1  0  0  0  0
 12 24  1  0  0  0  0
 12 25  1  0  0  0  0
 13 14  1  0  0  0  0
 13 26  1  0  0  0  0
 13 27  1  0  0  0  0
 14 15  1  0  0  0  0
 14 16  1  0  0  0  0
 14 28  1  0  0  0  0
 15 29  1  0  0  0  0
 15 30  1  0  0  0  0
 16 17  1  0  0  0  0
 16 31  1  0  0  0  0
 17 18  1  0  0  0  0
 17 32  1  0  0  0  0
 17 33  1  0  0  0  0
 18 34  1  0  0  0  0
M  END
> <s_m_source_file>
AV-unprocessed.smi

> <i_m_source_file_index>
798

> <i_lp_mmshare_version>
43012

> <i_f3d_flags>
0

> <s_epik_input>
W0NIMl0xW0NIMl1bQ0BASF0oW0NIMl0yKVtDQEBIXShbQ0gyXVtPSF0pW0NAQEhdKFtDQEhdMTIpW05IXUMoPU8pW05IXWMzbm5bY0hdczM=

> <s_epik_cmdline>
J2VwaWtfcHl0aG9uJywgJy1waCcsICc3LjAnLCAnLXRuJywgJzgnLCAnLW1hJywgJzIwMCcsICctbWV0YWxfYmluZGluZycsICctaW1hZScsICc8aW5maWxlLm1hZT4nLCAnLW9tYWUnLCAnPG91dGZpbGUubWFlPic=

> <r_lp_tautomer_probability>
1

> <r_epik_Ionization_Penalty>
0.000329046

> <r_epik_Ionization_Penalty_Charging>
0

> <r_epik_Ionization_Penalty_Neutral>
0.000329046

> <r_epik_State_Penalty>
-0

> <r_epik_Charging_Adjusted_Penalty>
0

> <i_epik_Tot_Q>
0

> <i_epik_Tot_abs_Q>
0

> <r_epik_Metal_State_Penalty>
0.173433

> <b_epik_Metal_Only>
0

> <s_lp_Force_Field>
OPLS_2005

> <r_lp_Energy>
48.5099

> <b_lp_Chiralities_Consistent>
1

> <s_lp_Variant>
AV-unprocessed.smi:798-3

> <Gold.Version>
5.8.1

> <Gold.Id.Protein>
6NUR|6NUR_protein|mol2

> <Gold.PLP.Fitness>
41.4888

> <Gold.PLP.PLP>
-33.4176

> <Gold.PLP.part.hbond>
-3.0000

> <Gold.PLP.part.metal>
0.0000

> <Gold.PLP.part.buried>
-4.8553

> <Gold.PLP.part.nonpolar>
-26.3659

> <Gold.PLP.part.repulsive>
0.2570

> <Gold.PLP.ligand.clash>
0.0000

> <Gold.PLP.ligand.torsion>
0.4737

> <Gold.PLP.Chemscore.Hbond>
3.0000

> <Gold.PLP.Chemscore.CHOScore>
0.0000

> <Gold.PLP.Chemscore.Metal>
0.0000

> <Gold.Chemscore.Hbonds>
donor molecule, donor type, donor heavy atom, donor atom, acceptor molecule, acceptor atom, score
      L1  H     3    19       P1  8028  1.00
      L1  H     9    21       P1  8028  1.00
      P1  H  7989  7998       L1    18  1.00

> <Gold.PLP.Chemscore.Internal.Correction>
0.0187

> <Gold.Rescore>
     Score         DG    S(hbond)    S(metal)    S(lipo)     H(rot)  DE(clash)    DE(int)     intcor
     13.72     -19.25       2.91        0.00      77.22       1.94       1.53       4.00       ----

> <Gold.Chemscore.Fitness>
13.7233

> <Gold.Chemscore.DG>
-19.2500

> <Gold.Chemscore.ZeroCoef>
-5.4800

> <Gold.Chemscore.Hbond>
2.9080

> <Gold.Chemscore.Metal>
0.0000

> <Gold.Chemscore.Lipo>
77.2174

> <Gold.Chemscore.Internal_Hbond>
0.0000

> <Gold.Chemscore.DEClash>
1.5298

> <Gold.Chemscore.DEInternal>
3.9968

> <Gold.Chemscore.Rot>
1.9442

> <Gold.Chemscore.Internal.Correction>
   9.000000E+99

> <Gold.Chemscore.Hbonds>
donor molecule, donor type, donor heavy atom, donor atom, acceptor molecule, acceptor atom, score
      L1  H     3    19       P1  8028  0.99
      L1  H     9    21       P1  8028  0.97
      P1  H  7989  7998       L1    18  0.65

> <Gold.Chemscore.Hbond.Weighted>
-9.7126

> <Gold.Chemscore.Metal.Weighted>
-0.0000

> <Gold.Chemscore.Lipo.Weighted>
-9.0344

> <Gold.Chemscore.Internal_Hbond.Weighted>
0.0000

> <Gold.Chemscore.DEClash.Weighted>
1.5298

> <Gold.Chemscore.DEInternal.Weighted>
3.9968

> <Gold.Chemscore.Rot.Weighted>
4.9771

> <Gold.Chemscore.Internal.Correction.Weighted>
   9.000000E+99

> <Gold.Protein.RotatedTorsions>
[ 6907 6896 6895 6894 ] final  -33.48 input  -60.11 | X-H torsion
[ 7974 7965 7964 7962 ] final    1.92 input  175.53 | X-H torsion
[ 8008 7997 7996 7995 ] final  106.20 input   59.86 | X-H torsion
[ 10167 10162 10161 10158 ] final  139.61 input  -65.29 | X-H torsion
[ 10718 10713 10712 10709 ] final  -33.91 input   66.30 | X-H torsion
[ 10763 10752 10751 10750 ] final  -70.04 input  -60.55 | X-H torsion
[ 11005 11000 10999 10996 ] final   51.33 input  -57.11 | X-H torsion

> <Gold.Protein.ActiveResidues>
 VAL166  LYS551  ARG553  GLY616  TRP617  ASP618  TYR619  PRO620  LYS621  CYS622 
 ASP623  PHE694  ASN695  SER759  ASP760  ASP761  ALA762  ILE779  LEU786  VAL792 
 PHE793  MET794  SER795  GLU796  ALA797  LYS798  CYS799  TRP800  GLU811  SER814 

> <Gold.Protein.RotatedAtoms>
  151.0651  134.9762  159.8279 H   0  0  0  0  0  0  0  0  0  0  0  0  # atno 6907 bound_to 6896
  152.5401  134.2369  159.8857 H   0  0  0  0  0  0  0  0  0  0  0  0  # atno 6908 bound_to 6896
  151.2391  133.4366  159.2640 H   0  0  0  0  0  0  0  0  0  0  0  0  # atno 6909 bound_to 6896
  146.2442  140.0914  142.8352 H   0  0  0  0  0  0  0  0  0  0  0  0  # atno 7974 bound_to 7965
  156.1723  140.3117  155.8996 H   0  0  0  0  0  0  0  0  0  0  0  0  # atno 8008 bound_to 7997
  155.3561  140.0474  157.3063 H   0  0  0  0  0  0  0  0  0  0  0  0  # atno 8009 bound_to 7997
  154.5254  140.2212  155.8910 H   0  0  0  0  0  0  0  0  0  0  0  0  # atno 8010 bound_to 7997
  139.5074  144.6284  151.5878 H   0  0  0  0  0  0  0  0  0  0  0  0  # atno 10167 bound_to 10162
  156.3569  130.4317  149.7656 H   0  0  0  0  0  0  0  0  0  0  0  0  # atno 10718 bound_to 10713
  154.4120  135.6007  153.5958 H   0  0  0  0  0  0  0  0  0  0  0  0  # atno 10763 bound_to 10752
  152.9790  135.5931  154.4059 H   0  0  0  0  0  0  0  0  0  0  0  0  # atno 10764 bound_to 10752
  154.3872  135.2841  155.2154 H   0  0  0  0  0  0  0  0  0  0  0  0  # atno 10765 bound_to 10752
  140.0942  134.5168  155.8823 H   0  0  0  0  0  0  0  0  0  0  0  0  # atno 11005 bound_to 11000
  145.0647  140.9113  143.4917 LP  0  0  0  0  0  0  0  0  0  0  0  0  # atno 17320 bound_to 7965
  145.1036  139.2805  143.5673 LP  0  0  0  0  0  0  0  0  0  0  0  0  # atno 17321 bound_to 7965
  140.6009  143.9611  150.6385 LP  0  0  0  0  0  0  0  0  0  0  0  0  # atno 17342 bound_to 10162
  140.2823  143.3381  152.1140 LP  0  0  0  0  0  0  0  0  0  0  0  0  # atno 17343 bound_to 10162
  156.4835  130.8052  151.3065 LP  0  0  0  0  0  0  0  0  0  0  0  0  # atno 17370 bound_to 10713
  157.7468  130.9998  150.2903 LP  0  0  0  0  0  0  0  0  0  0  0  0  # atno 17371 bound_to 10713
  141.2087  133.6676  156.6388 LP  0  0  0  0  0  0  0  0  0  0  0  0  # atno 17394 bound_to 11000
  140.3310  134.7929  157.4326 LP  0  0  0  0  0  0  0  0  0  0  0  0  # atno 17395 bound_to 11000

$$$$
