AV-unprocessed.smi:110|AV-procd|sdf|1077|dock4
  -GOLD-   2262018163D 1   1.00000     0.00000
 Structure written by MMmdl.
 46 50  0  0  0  0  0  0  0  0  1 V2000
  148.1447  136.1954  154.3746 O   0  0  0  0  0  0  0  0  0  0  0  0
  147.0407  137.0748  154.3464 C   0  0  0  0  0  0  0  0  0  0  0  0
  147.4984  138.5116  154.6557 C   0  0  1  0  0  0  0  0  0  0  0  0
  148.9209  138.5903  154.7414 O   0  0  0  0  0  0  0  0  0  0  0  0
  149.3731  139.8546  154.3542 C   0  0  2  0  0  0  0  0  0  0  0  0
  150.0474  140.4947  155.5283 N   0  0  0  0  0  0  0  0  0  0  0  0
  149.6932  141.6753  156.1413 C   0  0  0  0  0  0  0  0  0  0  0  0
  150.4399  142.0296  157.1507 N   0  0  0  0  0  0  0  0  0  0  0  0
  151.4022  141.0307  157.2317 C   0  0  0  0  0  0  0  0  0  0  0  0
  152.5116  140.7816  158.0899 C   0  0  0  0  0  0  0  0  0  0  0  0
  152.8808  141.5749  159.1221 N   0  0  0  0  0  0  0  0  0  0  0  0
  153.4047  140.9367  160.3386 C   0  0  0  0  0  0  0  0  0  0  0  0
  153.2296  141.9302  161.5029 C   0  0  0  0  0  0  0  0  0  0  0  0
  152.6551  143.1095  160.7876 C   0  0  0  0  0  0  0  0  0  0  0  0
  152.3210  144.3598  161.3360 C   0  0  0  0  0  0  0  0  0  0  0  0
  151.8058  145.3489  160.4708 C   0  0  0  0  0  0  0  0  0  0  0  0
  151.6435  145.0787  159.0920 C   0  0  0  0  0  0  0  0  0  0  0  0
  151.9878  143.8153  158.5631 C   0  0  0  0  0  0  0  0  0  0  0  0
  152.4839  142.8258  159.4365 C   0  0  0  0  0  0  0  0  0  0  0  0
  153.2169  139.6394  157.8927 N   0  0  0  0  0  0  0  0  0  0  0  0
  152.8872  138.8121  156.8979 C   0  0  0  0  0  0  0  0  0  0  0  0
  151.8946  138.9256  156.0145 N   0  0  0  0  0  0  0  0  0  0  0  0
  151.1608  140.0569  156.2204 C   0  0  0  0  0  0  0  0  0  0  0  0
  148.1557  140.6650  153.8858 C   0  0  1  0  0  0  0  0  0  0  0  0
  148.4113  141.4572  152.7409 O   0  0  0  0  0  0  0  0  0  0  0  0
  147.1412  139.5636  153.5975 C   0  0  1  0  0  0  0  0  0  0  0  0
  147.2819  139.0264  152.2913 O   0  0  0  0  0  0  0  0  0  0  0  0
  147.0669  138.8337  155.6033 H   0  0  0  0  0  0  0  0  0  0  0  0
  150.1493  139.7479  153.5952 H   0  0  0  0  0  0  0  0  0  0  0  0
  147.7902  141.2970  154.6953 H   0  0  0  0  0  0  0  0  0  0  0  0
  146.1171  139.9202  153.7112 H   0  0  0  0  0  0  0  0  0  0  0  0
  148.5306  136.1700  153.5123 H   0  0  0  0  0  0  0  0  0  0  0  0
  146.5352  137.0163  153.3821 H   0  0  0  0  0  0  0  0  0  0  0  0
  146.3356  136.7342  155.1053 H   0  0  0  0  0  0  0  0  0  0  0  0
  148.8503  142.2692  155.8188 H   0  0  0  0  0  0  0  0  0  0  0  0
  152.8748  140.0051  160.5426 H   0  0  0  0  0  0  0  0  0  0  0  0
  154.4584  140.6952  160.1955 H   0  0  0  0  0  0  0  0  0  0  0  0
  152.5327  141.5611  162.2556 H   0  0  0  0  0  0  0  0  0  0  0  0
  154.1781  142.1817  161.9778 H   0  0  0  0  0  0  0  0  0  0  0  0
  152.4581  144.5596  162.3884 H   0  0  0  0  0  0  0  0  0  0  0  0
  151.5407  146.3198  160.8626 H   0  0  0  0  0  0  0  0  0  0  0  0
  151.2572  145.8455  158.4371 H   0  0  0  0  0  0  0  0  0  0  0  0
  151.8735  143.6186  157.5072 H   0  0  0  0  0  0  0  0  0  0  0  0
  153.5054  137.9324  156.7965 H   0  0  0  0  0  0  0  0  0  0  0  0
  148.4549  140.8877  151.9878 H   0  0  0  0  0  0  0  0  0  0  0  0
  148.1738  139.1640  152.0095 H   0  0  0  0  0  0  0  0  0  0  0  0
  1  2  1  0  0  0  0
  1 32  1  0  0  0  0
  2  3  1  0  0  0  0
  2 33  1  0  0  0  0
  2 34  1  0  0  0  0
  3 28  1  0  0  0  0
  3 26  1  0  0  0  0
  3  4  1  0  0  0  0
  4  5  1  0  0  0  0
  5 29  1  0  0  0  0
  5  6  1  0  0  0  0
  5 24  1  0  0  0  0
  6 23  1  0  0  0  0
  6  7  1  0  0  0  0
  7  8  2  0  0  0  0
  7 35  1  0  0  0  0
  8  9  1  0  0  0  0
  9 23  2  0  0  0  0
  9 10  1  0  0  0  0
 10 11  1  0  0  0  0
 10 20  2  0  0  0  0
 11 19  1  0  0  0  0
 11 12  1  0  0  0  0
 12 13  1  0  0  0  0
 12 36  1  0  0  0  0
 12 37  1  0  0  0  0
 13 14  1  0  0  0  0
 13 38  1  0  0  0  0
 13 39  1  0  0  0  0
 14 19  2  0  0  0  0
 14 15  1  0  0  0  0
 15 16  2  0  0  0  0
 15 40  1  0  0  0  0
 16 17  1  0  0  0  0
 16 41  1  0  0  0  0
 17 18  2  0  0  0  0
 17 42  1  0  0  0  0
 18 19  1  0  0  0  0
 18 43  1  0  0  0  0
 20 21  1  0  0  0  0
 21 22  2  0  0  0  0
 21 44  1  0  0  0  0
 22 23  1  0  0  0  0
 24 30  1  0  0  0  0
 24 25  1  0  0  0  0
 24 26  1  0  0  0  0
 25 45  1  0  0  0  0
 26 31  1  0  0  0  0
 26 27  1  0  0  0  0
 27 46  1  0  0  0  0
M  END
> <s_m_source_file>
AV-unprocessed.smi

> <i_m_source_file_index>
110

> <i_lp_mmshare_version>
43012

> <i_f3d_flags>
0

> <s_epik_input>
W09IXVtDSDJdW0NASF0xT1tDQEhdKFtDQEhdKFtPSF0pW0NAQEhdMVtPSF0pbihbY0hdbjIpYyhjMjMpbltjSF1uYzNOKFtDSDJdW0NIMl00KWMoYzQ1KVtjSF1bY0hdW2NIXVtjSF01

> <s_epik_cmdline>
J2VwaWtfcHl0aG9uJywgJy1waCcsICc3LjAnLCAnLXRuJywgJzgnLCAnLW1hJywgJzIwMCcsICctbWV0YWxfYmluZGluZycsICctaW1hZScsICc8aW5maWxlLm1hZT4nLCAnLW9tYWUnLCAnPG91dGZpbGUubWFlPic=

> <r_lp_tautomer_probability>
1

> <r_epik_Ionization_Penalty>
0.00068475

> <r_epik_Ionization_Penalty_Charging>
0

> <r_epik_Ionization_Penalty_Neutral>
0.00068475

> <r_epik_State_Penalty>
0.000417442

> <r_epik_Charging_Adjusted_Penalty>
0.000417442

> <i_epik_Tot_Q>
0

> <i_epik_Tot_abs_Q>
0

> <r_epik_Metal_State_Penalty>
-0

> <b_epik_Metal_Only>
0

> <s_epik_Chemistry_Notes>
This compound contains an acetal/aminal-like group ( X-CH(R)-Y where X, Y are N, S, or O) that may be acid/base labile, releasing an aldehyde.

> <s_lp_Force_Field>
OPLS_2005

> <r_lp_Energy>
64.5887

> <b_lp_Chiralities_Consistent>
1

> <s_lp_Variant>
AV-unprocessed.smi:110-15

> <Gold.Version>
5.8.1

> <Gold.Id.Protein>
6NUR|6NUR_protein|mol2

> <Gold.PLP.Fitness>
65.5565

> <Gold.PLP.PLP>
-51.8718

> <Gold.PLP.part.hbond>
-4.9475

> <Gold.PLP.part.metal>
0.0000

> <Gold.PLP.part.buried>
-2.2456

> <Gold.PLP.part.nonpolar>
-44.2403

> <Gold.PLP.part.repulsive>
0.2125

> <Gold.PLP.ligand.clash>
0.0000

> <Gold.PLP.ligand.torsion>
1.0150

> <Gold.PLP.Chemscore.Hbond>
4.2816

> <Gold.PLP.Chemscore.CHOScore>
0.9100

> <Gold.PLP.Chemscore.Metal>
0.0000

> <Gold.Chemscore.Hbonds>
donor molecule, donor type, donor heavy atom, donor atom, acceptor molecule, acceptor atom, score
      L1  H     1    32       P1  7948  1.00
      L1  H    25    45       P1  7957  0.78
      L1  H    27    46       P1  7957  1.00
      P1  H  7997  8010       L1    20  0.60
      P1  H  8011  8017       L1    25  0.64
      L1  C     7    35       P1  8028  0.89

> <Gold.PLP.Chemscore.Internal.Correction>
0.1402

> <Gold.Rescore>
     Score         DG    S(hbond)    S(metal)    S(lipo)     H(rot)  DE(clash)    DE(int)     intcor
     16.22     -20.67       3.18        0.00     113.18       3.38       1.92       2.53       ----

> <Gold.Chemscore.Fitness>
16.2185

> <Gold.Chemscore.DG>
-20.6714

> <Gold.Chemscore.ZeroCoef>
-5.4800

> <Gold.Chemscore.Hbond>
3.1773

> <Gold.Chemscore.Metal>
0.0000

> <Gold.Chemscore.Lipo>
113.1754

> <Gold.Chemscore.Internal_Hbond>
0.0000

> <Gold.Chemscore.DEClash>
1.9201

> <Gold.Chemscore.DEInternal>
2.5328

> <Gold.Chemscore.Rot>
3.3837

> <Gold.Chemscore.Internal.Correction>
   9.000000E+99

> <Gold.Chemscore.Hbonds>
donor molecule, donor type, donor heavy atom, donor atom, acceptor molecule, acceptor atom, score
      L1  H     1    32       P1  7948  1.00
      L1  H    25    45       P1  7957  0.77
      L1  H    27    46       P1  7957  0.98
      P1  H  7997  8010       L1    20  0.05
      P1  H  8011  8017       L1    25  0.09

> <Gold.Chemscore.Hbond.Weighted>
-10.6121

> <Gold.Chemscore.Metal.Weighted>
-0.0000

> <Gold.Chemscore.Lipo.Weighted>
-13.2415

> <Gold.Chemscore.Internal_Hbond.Weighted>
0.0000

> <Gold.Chemscore.DEClash.Weighted>
1.9201

> <Gold.Chemscore.DEInternal.Weighted>
2.5328

> <Gold.Chemscore.Rot.Weighted>
8.6622

> <Gold.Chemscore.Internal.Correction.Weighted>
   9.000000E+99

> <Gold.Protein.RotatedTorsions>
[ 6907 6896 6895 6894 ] final -136.46 input  -60.11 | X-H torsion
[ 7974 7965 7964 7962 ] final  102.99 input  175.53 | X-H torsion
[ 8008 7997 7996 7995 ] final   16.55 input   59.86 | X-H torsion
[ 10167 10162 10161 10158 ] final -176.53 input  -65.29 | X-H torsion
[ 10718 10713 10712 10709 ] final -127.90 input   66.30 | X-H torsion
[ 10763 10752 10751 10750 ] final  163.78 input  -60.55 | X-H torsion
[ 11005 11000 10999 10996 ] final  -90.97 input  -57.11 | X-H torsion

> <Gold.Protein.ActiveResidues>
 VAL166  LYS551  ARG553  GLY616  TRP617  ASP618  TYR619  PRO620  LYS621  CYS622 
 ASP623  PHE694  ASN695  SER759  ASP760  ASP761  ALA762  ILE779  LEU786  VAL792 
 PHE793  MET794  SER795  GLU796  ALA797  LYS798  CYS799  TRP800  GLU811  SER814 

> <Gold.Protein.RotatedAtoms>
  151.0104  133.5971  159.2683 H   0  0  0  0  0  0  0  0  0  0  0  0  # atno 6907 bound_to 6896
  151.3124  135.0797  159.9287 H   0  0  0  0  0  0  0  0  0  0  0  0  # atno 6908 bound_to 6896
  152.5298  133.9766  159.7841 H   0  0  0  0  0  0  0  0  0  0  0  0  # atno 6909 bound_to 6896
  145.3519  139.2437  143.3554 H   0  0  0  0  0  0  0  0  0  0  0  0  # atno 7974 bound_to 7965
  154.8786  140.2969  155.5439 H   0  0  0  0  0  0  0  0  0  0  0  0  # atno 8008 bound_to 7997
  156.3022  140.2446  156.3719 H   0  0  0  0  0  0  0  0  0  0  0  0  # atno 8009 bound_to 7997
  154.8741  140.0400  157.1732 H   0  0  0  0  0  0  0  0  0  0  0  0  # atno 8010 bound_to 7997
  139.5525  144.2073  152.1102 H   0  0  0  0  0  0  0  0  0  0  0  0  # atno 10167 bound_to 10162
  156.1900  130.6789  151.0412 H   0  0  0  0  0  0  0  0  0  0  0  0  # atno 10718 bound_to 10713
  154.2989  135.2759  155.2620 H   0  0  0  0  0  0  0  0  0  0  0  0  # atno 10763 bound_to 10752
  154.5066  135.5794  153.6576 H   0  0  0  0  0  0  0  0  0  0  0  0  # atno 10764 bound_to 10752
  152.9903  135.6171  154.3158 H   0  0  0  0  0  0  0  0  0  0  0  0  # atno 10765 bound_to 10752
  141.1555  133.7726  156.9813 H   0  0  0  0  0  0  0  0  0  0  0  0  # atno 11005 bound_to 11000
  146.2964  140.4136  142.8720 LP  0  0  0  0  0  0  0  0  0  0  0  0  # atno 17320 bound_to 7965
  144.8711  140.7274  143.6046 LP  0  0  0  0  0  0  0  0  0  0  0  0  # atno 17321 bound_to 7965
  140.1571  144.5060  150.6654 LP  0  0  0  0  0  0  0  0  0  0  0  0  # atno 17342 bound_to 10162
  140.6791  143.2318  151.5432 LP  0  0  0  0  0  0  0  0  0  0  0  0  # atno 17343 bound_to 10162
  157.6923  131.0806  150.7072 LP  0  0  0  0  0  0  0  0  0  0  0  0  # atno 17370 bound_to 10713
  156.7128  130.4657  149.5543 LP  0  0  0  0  0  0  0  0  0  0  0  0  # atno 17371 bound_to 10713
  140.1064  134.9504  157.2000 LP  0  0  0  0  0  0  0  0  0  0  0  0  # atno 17394 bound_to 11000
  140.3251  134.2873  155.7238 LP  0  0  0  0  0  0  0  0  0  0  0  0  # atno 17395 bound_to 11000

$$$$
