AV-unprocessed.smi:3245|AV-procd|sdf|12404|dock3
  -GOLD-   2272018283D 1   1.00000     0.00000
 Structure written by MMmdl.
 35 36  0  0  0  0  0  0  0  0  1 V2000
  151.7057  141.5338  158.1397 C   0  0  0  0  0  0  0  0  0  0  0  0
  151.2808  142.6085  157.1247 C   0  0  2  0  0  0  0  0  0  0  0  0
  151.9417  143.9815  157.3913 C   0  0  0  0  0  0  0  0  0  0  0  0
  151.9166  144.3565  158.7931 N   0  0  0  0  0  0  0  0  0  0  0  0
  152.6427  143.8232  159.8375 C   0  0  0  0  0  0  0  0  0  0  0  0
  152.2782  144.4944  160.9694 C   0  0  0  0  0  0  0  0  0  0  0  0
  151.3078  145.4286  160.5107 C   0  0  0  0  0  0  0  0  0  0  0  0
  151.0927  145.3429  159.2078 N   0  0  0  0  0  0  0  0  0  0  0  0
  149.8311  142.7338  157.2006 N   0  0  0  0  0  0  0  0  0  0  0  0
  149.1518  141.6021  156.5849 C   0  0  0  0  0  0  0  0  0  0  0  0
  149.7983  141.2708  155.2280 C   0  0  0  0  0  0  0  0  0  0  0  0
  148.9888  140.3230  154.4532 N   0  0  0  0  0  0  0  0  0  0  0  0
  147.7766  140.5953  153.9511 C   0  0  0  0  0  0  0  0  0  0  0  0
  147.1368  141.6409  154.0589 O   0  0  0  0  0  0  0  0  0  0  0  0
  147.2879  139.3807  153.1925 C   0  0  0  0  0  0  0  0  0  0  0  0
  148.4199  138.5036  153.3989 N   0  0  0  0  0  0  0  0  0  0  0  0
  149.3846  139.0783  154.1288 C   0  0  0  0  0  0  0  0  0  0  0  0
  150.4496  138.5463  154.4387 O   0  0  0  0  0  0  0  0  0  0  0  0
  152.7768  141.3369  158.0870 H   0  0  0  0  0  0  0  0  0  0  0  0
  151.1975  140.5881  157.9478 H   0  0  0  0  0  0  0  0  0  0  0  0
  151.4731  141.8364  159.1614 H   0  0  0  0  0  0  0  0  0  0  0  0
  151.5567  142.2534  156.1305 H   0  0  0  0  0  0  0  0  0  0  0  0
  152.9812  143.9906  157.0631 H   0  0  0  0  0  0  0  0  0  0  0  0
  151.4327  144.7604  156.8215 H   0  0  0  0  0  0  0  0  0  0  0  0
  153.3519  143.0222  159.6888 H   0  0  0  0  0  0  0  0  0  0  0  0
  152.6475  144.3404  161.9724 H   0  0  0  0  0  0  0  0  0  0  0  0
  150.7568  146.1614  161.0817 H   0  0  0  0  0  0  0  0  0  0  0  0
  149.5458  142.7974  158.1675 H   0  0  0  0  0  0  0  0  0  0  0  0
  149.1726  140.7263  157.2327 H   0  0  0  0  0  0  0  0  0  0  0  0
  148.1032  141.8632  156.4371 H   0  0  0  0  0  0  0  0  0  0  0  0
  149.9082  142.1904  154.6512 H   0  0  0  0  0  0  0  0  0  0  0  0
  150.8133  140.8956  155.3704 H   0  0  0  0  0  0  0  0  0  0  0  0
  146.3763  138.9716  153.6289 H   0  0  0  0  0  0  0  0  0  0  0  0
  147.1363  139.6005  152.1354 H   0  0  0  0  0  0  0  0  0  0  0  0
  148.4667  137.5673  153.0238 H   0  0  0  0  0  0  0  0  0  0  0  0
  1  2  1  0  0  0  0
  1 19  1  0  0  0  0
  1 20  1  0  0  0  0
  1 21  1  0  0  0  0
  2  3  1  0  0  0  0
  2  9  1  0  0  0  0
  2 22  1  0  0  0  0
  3  4  1  0  0  0  0
  3 23  1  0  0  0  0
  3 24  1  0  0  0  0
  4  8  1  0  0  0  0
  4  5  1  0  0  0  0
  5  6  2  0  0  0  0
  5 25  1  0  0  0  0
  6  7  1  0  0  0  0
  6 26  1  0  0  0  0
  7  8  2  0  0  0  0
  7 27  1  0  0  0  0
  9 10  1  0  0  0  0
  9 28  1  0  0  0  0
 10 11  1  0  0  0  0
 10 29  1  0  0  0  0
 10 30  1  0  0  0  0
 11 12  1  0  0  0  0
 11 31  1  0  0  0  0
 11 32  1  0  0  0  0
 12 17  1  0  0  0  0
 12 13  1  0  0  0  0
 13 14  2  0  0  0  0
 13 15  1  0  0  0  0
 15 16  1  0  0  0  0
 15 33  1  0  0  0  0
 15 34  1  0  0  0  0
 16 17  1  0  0  0  0
 16 35  1  0  0  0  0
 17 18  2  0  0  0  0
M  END
> <s_m_source_file>
AV-unprocessed.smi

> <i_m_source_file_index>
3245

> <i_lp_mmshare_version>
43012

> <i_f3d_flags>
0

> <s_epik_input>
bjFbY0hdW2NIXVtjSF1uMVtDSDJdW0NAQEhdKFtDSDNdKVtOSF1bQ0gyXVtDSDJdTjJDKD1PKVtDSDJdW05IXUMyPU8=

> <s_epik_cmdline>
J2VwaWtfcHl0aG9uJywgJy1waCcsICc3LjAnLCAnLXRuJywgJzgnLCAnLW1hJywgJzIwMCcsICctbWV0YWxfYmluZGluZycsICctaW1hZScsICc8aW5maWxlLm1hZT4nLCAnLW9tYWUnLCAnPG91dGZpbGUubWFlPic=

> <r_lp_tautomer_probability>
1

> <r_epik_Ionization_Penalty>
2.14948

> <r_epik_Ionization_Penalty_Charging>
0

> <r_epik_Ionization_Penalty_Neutral>
2.14948

> <r_epik_State_Penalty>
2.28912

> <r_epik_Charging_Adjusted_Penalty>
2.28912

> <i_epik_Tot_Q>
0

> <i_epik_Tot_abs_Q>
0

> <r_epik_Metal_State_Penalty>
2.36471

> <b_epik_Metal_Only>
0

> <s_lp_Force_Field>
OPLS_2005

> <r_lp_Energy>
24.3933

> <b_lp_Chiralities_Consistent>
1

> <s_lp_Variant>
AV-unprocessed.smi:3245-3

> <Gold.Version>
5.8.1

> <Gold.Id.Protein>
6NUR|6NUR_protein|mol2

> <Gold.PLP.Fitness>
41.8528

> <Gold.PLP.PLP>
-39.6873

> <Gold.PLP.part.hbond>
-3.3528

> <Gold.PLP.part.metal>
0.0000

> <Gold.PLP.part.buried>
-2.8342

> <Gold.PLP.part.nonpolar>
-34.1535

> <Gold.PLP.part.repulsive>
0.5657

> <Gold.PLP.ligand.clash>
0.0000

> <Gold.PLP.ligand.torsion>
0.4649

> <Gold.PLP.Chemscore.Hbond>
1.0000

> <Gold.PLP.Chemscore.CHOScore>
0.0000

> <Gold.PLP.Chemscore.Metal>
0.0000

> <Gold.Chemscore.Hbonds>
donor molecule, donor type, donor heavy atom, donor atom, acceptor molecule, acceptor atom, score
      L1  H    16    35       P1  7948  1.00

> <Gold.PLP.Chemscore.Internal.Correction>
0.0952

> <Gold.Rescore>
     Score         DG    S(hbond)    S(metal)    S(lipo)     H(rot)  DE(clash)    DE(int)     intcor
     11.13     -11.90       0.98        0.00      85.09       2.66       0.17       0.60       ----

> <Gold.Chemscore.Fitness>
11.1270

> <Gold.Chemscore.DG>
-11.8995

> <Gold.Chemscore.ZeroCoef>
-5.4800

> <Gold.Chemscore.Hbond>
0.9807

> <Gold.Chemscore.Metal>
0.0000

> <Gold.Chemscore.Lipo>
85.0930

> <Gold.Chemscore.Internal_Hbond>
0.0000

> <Gold.Chemscore.DEClash>
0.1720

> <Gold.Chemscore.DEInternal>
0.6005

> <Gold.Chemscore.Rot>
2.6609

> <Gold.Chemscore.Internal.Correction>
   9.000000E+99

> <Gold.Chemscore.Hbonds>
donor molecule, donor type, donor heavy atom, donor atom, acceptor molecule, acceptor atom, score
      L1  H    16    35       P1  7948  0.99

> <Gold.Chemscore.Hbond.Weighted>
-3.2755

> <Gold.Chemscore.Metal.Weighted>
-0.0000

> <Gold.Chemscore.Lipo.Weighted>
-9.9559

> <Gold.Chemscore.Internal_Hbond.Weighted>
0.0000

> <Gold.Chemscore.DEClash.Weighted>
0.1720

> <Gold.Chemscore.DEInternal.Weighted>
0.6005

> <Gold.Chemscore.Rot.Weighted>
6.8118

> <Gold.Chemscore.Internal.Correction.Weighted>
   9.000000E+99

> <Gold.Protein.RotatedTorsions>
[ 6907 6896 6895 6894 ] final   -3.87 input  -60.11 | X-H torsion
[ 7974 7965 7964 7962 ] final -106.60 input  175.53 | X-H torsion
[ 8008 7997 7996 7995 ] final   19.04 input   59.86 | X-H torsion
[ 10167 10162 10161 10158 ] final -124.43 input  -65.29 | X-H torsion
[ 10718 10713 10712 10709 ] final  -54.19 input   66.30 | X-H torsion
[ 10763 10752 10751 10750 ] final   74.93 input  -60.55 | X-H torsion
[ 11005 11000 10999 10996 ] final  151.70 input  -57.11 | X-H torsion

> <Gold.Protein.ActiveResidues>
 VAL166  LYS551  ARG553  GLY616  TRP617  ASP618  TYR619  PRO620  LYS621  CYS622 
 ASP623  PHE694  ASN695  SER759  ASP760  ASP761  ALA762  ILE779  LEU786  VAL792 
 PHE793  MET794  SER795  GLU796  ALA797  LYS798  CYS799  TRP800  GLU811  SER814 

> <Gold.Protein.RotatedAtoms>
  151.5068  135.1064  159.9843 H   0  0  0  0  0  0  0  0  0  0  0  0  # atno 6907 bound_to 6896
  152.4678  133.7958  159.6937 H   0  0  0  0  0  0  0  0  0  0  0  0  # atno 6908 bound_to 6896
  150.8671  133.7495  159.2999 H   0  0  0  0  0  0  0  0  0  0  0  0  # atno 6909 bound_to 6896
  145.2158  140.9115  143.3288 H   0  0  0  0  0  0  0  0  0  0  0  0  # atno 7974 bound_to 7965
  154.9148  140.3019  155.5247 H   0  0  0  0  0  0  0  0  0  0  0  0  # atno 8008 bound_to 7997
  156.3013  140.2382  156.4127 H   0  0  0  0  0  0  0  0  0  0  0  0  # atno 8009 bound_to 7997
  154.8389  140.0415  157.1517 H   0  0  0  0  0  0  0  0  0  0  0  0  # atno 8010 bound_to 7997
  139.9928  143.5622  152.2335 H   0  0  0  0  0  0  0  0  0  0  0  0  # atno 10167 bound_to 10162
  156.1472  130.4152  150.0005 H   0  0  0  0  0  0  0  0  0  0  0  0  # atno 10718 bound_to 10713
  153.0620  135.5007  154.8114 H   0  0  0  0  0  0  0  0  0  0  0  0  # atno 10763 bound_to 10752
  154.6896  135.2982  154.9500 H   0  0  0  0  0  0  0  0  0  0  0  0  # atno 10764 bound_to 10752
  154.0259  135.6736  153.4829 H   0  0  0  0  0  0  0  0  0  0  0  0  # atno 10765 bound_to 10752
  140.1242  134.8844  157.2114 H   0  0  0  0  0  0  0  0  0  0  0  0  # atno 11005 bound_to 11000
  144.9812  139.3781  143.6261 LP  0  0  0  0  0  0  0  0  0  0  0  0  # atno 17320 bound_to 7965
  146.3387  139.8954  142.8802 LP  0  0  0  0  0  0  0  0  0  0  0  0  # atno 17321 bound_to 7965
  139.6327  144.7646  151.2502 LP  0  0  0  0  0  0  0  0  0  0  0  0  # atno 17342 bound_to 10162
  140.7448  143.6451  150.8299 LP  0  0  0  0  0  0  0  0  0  0  0  0  # atno 17343 bound_to 10162
  156.7873  130.9243  151.3646 LP  0  0  0  0  0  0  0  0  0  0  0  0  # atno 17370 bound_to 10713
  157.6626  130.8979  149.9863 LP  0  0  0  0  0  0  0  0  0  0  0  0  # atno 17371 bound_to 10713
  140.2926  134.3223  155.7311 LP  0  0  0  0  0  0  0  0  0  0  0  0  # atno 17394 bound_to 11000
  141.2158  133.7543  156.9525 LP  0  0  0  0  0  0  0  0  0  0  0  0  # atno 17395 bound_to 11000

$$$$
