AV-unprocessed.smi:114|AV-procd|sdf|1117|dock2
  -GOLD-   2262018233D 1   1.00000     0.00000
 Structure written by MMmdl.
 32 34  0  0  0  0  0  0  0  0  1 V2000
  144.1374  134.0158  155.3823 N   0  0  0  0  0  0  0  0  0  0  0  0
  144.7715  134.8765  154.5732 C   0  0  0  0  0  0  0  0  0  0  0  0
  144.4321  134.8974  153.2636 N   0  0  0  0  0  0  0  0  0  0  0  0
  145.0391  135.7426  152.4221 C   0  0  0  0  0  0  0  0  0  0  0  0
  144.6397  135.6954  151.1295 F   0  0  0  0  0  0  0  0  0  0  0  0
  145.9980  136.6274  152.7143 N   0  0  0  0  0  0  0  0  0  0  0  0
  146.3455  136.6119  154.0335 C   0  0  0  0  0  0  0  0  0  0  0  0
  145.7783  135.7652  155.0242 C   0  0  0  0  0  0  0  0  0  0  0  0
  146.3659  136.0164  156.2558 N   0  0  0  0  0  0  0  0  0  0  0  0
  147.2285  136.9636  156.0030 C   0  0  0  0  0  0  0  0  0  0  0  0
  147.2895  137.3789  154.6902 N   0  0  0  0  0  0  0  0  0  0  0  0
  148.1660  138.4562  154.1285 C   0  0  2  0  0  0  0  0  0  0  0  0
  148.9912  138.9256  155.1538 O   0  0  0  0  0  0  0  0  0  0  0  0
  148.7249  140.3001  155.4296 C   0  0  1  0  0  0  0  0  0  0  0  0
  149.9814  141.0114  155.9626 C   0  0  0  0  0  0  0  0  0  0  0  0
  151.1304  140.5282  155.2997 O   0  0  0  0  0  0  0  0  0  0  0  0
  148.1736  140.8314  154.1002 C   0  0  1  0  0  0  0  0  0  0  0  0
  149.2347  141.1657  153.2185 O   0  0  0  0  0  0  0  0  0  0  0  0
  147.3514  139.6473  153.6010 C   0  0  1  0  0  0  0  0  0  0  0  0
  147.2159  139.6600  152.1921 O   0  0  0  0  0  0  0  0  0  0  0  0
  148.7743  137.9679  153.3658 H   0  0  0  0  0  0  0  0  0  0  0  0
  147.9285  140.3674  156.1705 H   0  0  0  0  0  0  0  0  0  0  0  0
  147.5560  141.7189  154.2430 H   0  0  0  0  0  0  0  0  0  0  0  0
  146.3648  139.6642  154.0642 H   0  0  0  0  0  0  0  0  0  0  0  0
  144.3722  133.9817  156.3639 H   0  0  0  0  0  0  0  0  0  0  0  0
  143.4215  133.4086  155.0102 H   0  0  0  0  0  0  0  0  0  0  0  0
  147.8500  137.3906  156.7768 H   0  0  0  0  0  0  0  0  0  0  0  0
  149.9064  142.0932  155.8478 H   0  0  0  0  0  0  0  0  0  0  0  0
  150.1085  140.8035  157.0254 H   0  0  0  0  0  0  0  0  0  0  0  0
  151.2282  139.6096  155.4987 H   0  0  0  0  0  0  0  0  0  0  0  0
  149.3241  140.4690  152.5858 H   0  0  0  0  0  0  0  0  0  0  0  0
  148.0788  139.7112  151.8096 H   0  0  0  0  0  0  0  0  0  0  0  0
  1  2  1  0  0  0  0
  1 25  1  0  0  0  0
  1 26  1  0  0  0  0
  2  8  1  0  0  0  0
  2  3  2  0  0  0  0
  3  4  1  0  0  0  0
  4  5  1  0  0  0  0
  4  6  2  0  0  0  0
  6  7  1  0  0  0  0
  7 11  1  0  0  0  0
  7  8  2  0  0  0  0
  8  9  1  0  0  0  0
  9 10  2  0  0  0  0
 10 11  1  0  0  0  0
 10 27  1  0  0  0  0
 11 12  1  0  0  0  0
 12 21  1  0  0  0  0
 12 19  1  0  0  0  0
 12 13  1  0  0  0  0
 13 14  1  0  0  0  0
 14 22  1  0  0  0  0
 14 15  1  0  0  0  0
 14 17  1  0  0  0  0
 15 16  1  0  0  0  0
 15 28  1  0  0  0  0
 15 29  1  0  0  0  0
 16 30  1  0  0  0  0
 17 23  1  0  0  0  0
 17 18  1  0  0  0  0
 17 19  1  0  0  0  0
 18 31  1  0  0  0  0
 19 24  1  0  0  0  0
 19 20  1  0  0  0  0
 20 32  1  0  0  0  0
M  END
> <s_m_source_file>
AV-unprocessed.smi

> <i_m_source_file_index>
114

> <i_lp_mmshare_version>
43012

> <i_f3d_flags>
0

> <s_epik_input>
RmMobjEpbmMoW05IMl0pYyhjMTIpbltjSF1uMltDQEBIXTNPW0NASF0oW0NIMl1bT0hdKVtDQEBIXShbT0hdKVtDQEBIXTNbT0hd

> <s_epik_cmdline>
J2VwaWtfcHl0aG9uJywgJy1waCcsICc3LjAnLCAnLXRuJywgJzgnLCAnLW1hJywgJzIwMCcsICctbWV0YWxfYmluZGluZycsICctaW1hZScsICc8aW5maWxlLm1hZT4nLCAnLW9tYWUnLCAnPG91dGZpbGUubWFlPic=

> <r_lp_tautomer_probability>
1

> <r_epik_Ionization_Penalty>
1.13199e-05

> <r_epik_Ionization_Penalty_Charging>
0

> <r_epik_Ionization_Penalty_Neutral>
1.13199e-05

> <r_epik_State_Penalty>
-0

> <r_epik_Charging_Adjusted_Penalty>
0

> <i_epik_Tot_Q>
0

> <i_epik_Tot_abs_Q>
0

> <r_epik_Metal_State_Penalty>
-0

> <b_epik_Metal_Only>
0

> <s_epik_Chemistry_Notes>
This compound contains an acetal/aminal-like group ( X-CH(R)-Y where X, Y are N, S, or O) that may be acid/base labile, releasing an aldehyde.

> <s_lp_Force_Field>
OPLS_2005

> <r_lp_Energy>
42.9568

> <b_lp_Chiralities_Consistent>
1

> <s_lp_Variant>
AV-unprocessed.smi:114-11

> <Gold.Version>
5.8.1

> <Gold.Id.Protein>
6NUR|6NUR_protein|mol2

> <Gold.PLP.Fitness>
35.0324

> <Gold.PLP.PLP>
-20.9594

> <Gold.PLP.part.hbond>
-5.4440

> <Gold.PLP.part.metal>
0.0000

> <Gold.PLP.part.buried>
-5.1876

> <Gold.PLP.part.nonpolar>
-11.7738

> <Gold.PLP.part.repulsive>
0.4900

> <Gold.PLP.ligand.clash>
0.0000

> <Gold.PLP.ligand.torsion>
0.2399

> <Gold.PLP.Chemscore.Hbond>
4.8484

> <Gold.PLP.Chemscore.CHOScore>
0.0000

> <Gold.PLP.Chemscore.Metal>
0.0000

> <Gold.Chemscore.Hbonds>
donor molecule, donor type, donor heavy atom, donor atom, acceptor molecule, acceptor atom, score
      L1  H     1    26       P1 10957  1.00
      L1  H    18    31       P1  7957  0.92
      L1  H    20    32       P1  7957  1.00
      P1  H  7989  7998       L1    16  0.93
      P1  H  8011  8017       L1    18  0.95

> <Gold.PLP.Chemscore.Internal.Correction>
0.0076

> <Gold.Rescore>
     Score         DG    S(hbond)    S(metal)    S(lipo)     H(rot)  DE(clash)    DE(int)     intcor
     11.81     -12.11       4.21        0.00      24.49       4.03       0.03       0.27       ----

> <Gold.Chemscore.Fitness>
11.8078

> <Gold.Chemscore.DG>
-12.1106

> <Gold.Chemscore.ZeroCoef>
-5.4800

> <Gold.Chemscore.Hbond>
4.2145

> <Gold.Chemscore.Metal>
0.0000

> <Gold.Chemscore.Lipo>
24.4876

> <Gold.Chemscore.Internal_Hbond>
0.0000

> <Gold.Chemscore.DEClash>
0.0310

> <Gold.Chemscore.DEInternal>
0.2719

> <Gold.Chemscore.Rot>
4.0277

> <Gold.Chemscore.Internal.Correction>
   9.000000E+99

> <Gold.Chemscore.Hbonds>
donor molecule, donor type, donor heavy atom, donor atom, acceptor molecule, acceptor atom, score
      L1  H     1    26       P1 10957  0.95
      L1  H    18    31       P1  7957  0.84
      L1  H    20    32       P1  7957  1.00
      P1  H  7989  7998       L1    16  0.70
      P1  H  8011  8017       L1    18  0.21

> <Gold.Chemscore.Hbond.Weighted>
-14.0766

> <Gold.Chemscore.Metal.Weighted>
-0.0000

> <Gold.Chemscore.Lipo.Weighted>
-2.8651

> <Gold.Chemscore.Internal_Hbond.Weighted>
0.0000

> <Gold.Chemscore.DEClash.Weighted>
0.0310

> <Gold.Chemscore.DEInternal.Weighted>
0.2719

> <Gold.Chemscore.Rot.Weighted>
10.3110

> <Gold.Chemscore.Internal.Correction.Weighted>
   9.000000E+99

> <Gold.Protein.RotatedTorsions>
[ 6907 6896 6895 6894 ] final   77.89 input  -60.11 | X-H torsion
[ 7974 7965 7964 7962 ] final  160.40 input  175.53 | X-H torsion
[ 8008 7997 7996 7995 ] final   25.99 input   59.86 | X-H torsion
[ 10167 10162 10161 10158 ] final   89.12 input  -65.29 | X-H torsion
[ 10718 10713 10712 10709 ] final  160.45 input   66.30 | X-H torsion
[ 10763 10752 10751 10750 ] final  -19.69 input  -60.55 | X-H torsion
[ 11005 11000 10999 10996 ] final   89.27 input  -57.11 | X-H torsion

> <Gold.Protein.ActiveResidues>
 VAL166  LYS551  ARG553  GLY616  TRP617  ASP618  TYR619  PRO620  LYS621  CYS622 
 ASP623  PHE694  ASN695  SER759  ASP760  ASP761  ALA762  ILE779  LEU786  VAL792 
 PHE793  MET794  SER795  GLU796  ALA797  LYS798  CYS799  TRP800  GLU811  SER814 

> <Gold.Protein.RotatedAtoms>
  152.5137  134.3747  159.9330 H   0  0  0  0  0  0  0  0  0  0  0  0  # atno 6907 bound_to 6896
  151.3702  133.3851  159.2706 H   0  0  0  0  0  0  0  0  0  0  0  0  # atno 6908 bound_to 6896
  150.9583  134.8994  159.7773 H   0  0  0  0  0  0  0  0  0  0  0  0  # atno 6909 bound_to 6896
  144.7739  139.7751  143.6286 H   0  0  0  0  0  0  0  0  0  0  0  0  # atno 7974 bound_to 7965
  155.0204  140.3147  155.4796 H   0  0  0  0  0  0  0  0  0  0  0  0  # atno 8008 bound_to 7997
  156.2893  140.2198  156.5263 H   0  0  0  0  0  0  0  0  0  0  0  0  # atno 8009 bound_to 7997
  154.7457  140.0470  157.0838 H   0  0  0  0  0  0  0  0  0  0  0  0  # atno 8010 bound_to 7997
  139.8604  144.6547  150.9065 H   0  0  0  0  0  0  0  0  0  0  0  0  # atno 10167 bound_to 10162
  157.1502  131.0562  151.2284 H   0  0  0  0  0  0  0  0  0  0  0  0  # atno 10718 bound_to 10713
  153.6087  135.6997  153.5355 H   0  0  0  0  0  0  0  0  0  0  0  0  # atno 10763 bound_to 10752
  153.3035  135.4122  155.1273 H   0  0  0  0  0  0  0  0  0  0  0  0  # atno 10764 bound_to 10752
  154.8568  135.3654  154.5625 H   0  0  0  0  0  0  0  0  0  0  0  0  # atno 10765 bound_to 10752
  139.8879  134.8540  156.3118 H   0  0  0  0  0  0  0  0  0  0  0  0  # atno 11005 bound_to 11000
  146.1905  139.5143  142.9808 LP  0  0  0  0  0  0  0  0  0  0  0  0  # atno 17320 bound_to 7965
  145.6242  141.0316  143.1898 LP  0  0  0  0  0  0  0  0  0  0  0  0  # atno 17321 bound_to 7965
  140.7776  143.3749  151.1581 LP  0  0  0  0  0  0  0  0  0  0  0  0  # atno 17342 bound_to 10162
  139.7379  143.8970  152.3041 LP  0  0  0  0  0  0  0  0  0  0  0  0  # atno 17343 bound_to 10162
  157.4228  130.7447  149.6927 LP  0  0  0  0  0  0  0  0  0  0  0  0  # atno 17370 bound_to 10713
  155.9772  130.4066  150.3728 LP  0  0  0  0  0  0  0  0  0  0  0  0  # atno 17371 bound_to 10713
  140.9845  133.7246  156.0722 LP  0  0  0  0  0  0  0  0  0  0  0  0  # atno 17394 bound_to 11000
  140.7706  134.3837  157.5508 LP  0  0  0  0  0  0  0  0  0  0  0  0  # atno 17395 bound_to 11000

$$$$
