AV-unprocessed.smi:1180|AV-procd|sdf|4964|dock5
  -GOLD-   22720 3553D 1   1.00000     0.00000
 Structure written by MMmdl.
 37 38  0  0  0  0  0  0  0  0  2 V2000
  147.6080  136.9904  163.5872 C   0  0  0  0  0  0  0  0  0  0  0  0
  147.6730  136.3353  162.2240 C   0  0  0  0  0  0  0  0  0  0  0  0
  147.5211  135.0692  162.1327 N   0  0  0  0  0  0  0  0  0  0  0  0
  147.5850  134.4538  160.8711 C   0  0  0  0  0  0  0  0  0  0  0  0
  147.3988  132.9468  160.8586 C   0  0  0  0  0  0  0  0  0  0  0  0
  147.8056  135.1840  159.7404 C   0  0  0  0  0  0  0  0  0  0  0  0
  147.8892  134.5659  158.3443 C   0  0  0  0  0  0  0  0  0  0  0  0
  149.2245  134.7162  157.6105 C   0  0  0  0  0  0  0  0  0  0  0  0
  150.0667  133.8181  157.6384 O   0  0  0  0  0  0  0  0  0  0  0  0
  149.4044  135.8719  156.9536 N   0  0  0  0  0  0  0  0  0  0  0  0
  150.5938  136.2245  156.1861 C   0  0  0  0  0  0  0  0  0  0  0  0
  151.0693  137.6607  156.4789 C   0  0  2  0  0  0  0  0  0  0  0  0
  150.2661  138.7369  155.7565 C   0  0  0  0  0  0  0  0  0  0  0  0
  151.3131  139.7648  155.3147 C   0  0  0  0  0  0  0  0  0  0  0  0
  152.5198  139.3720  155.9526 O   0  0  0  0  0  0  0  0  0  0  0  0
  152.5043  137.9581  156.0449 C   0  0  0  0  0  0  0  0  0  0  0  0
  147.9678  136.6412  159.8878 C   0  0  0  0  0  0  0  0  0  0  0  0
  148.1528  137.3478  158.8975 O   0  0  0  0  0  0  0  0  0  0  0  0
  147.9013  137.1618  161.1466 N   0  5  0  0  0  0  0  0  0  0  0  0
  147.1496  136.3251  164.3200 H   0  0  0  0  0  0  0  0  0  0  0  0
  147.0173  137.9063  163.5451 H   0  0  0  0  0  0  0  0  0  0  0  0
  148.6119  137.2413  163.9304 H   0  0  0  0  0  0  0  0  0  0  0  0
  148.3183  132.4524  160.5449 H   0  0  0  0  0  0  0  0  0  0  0  0
  146.5997  132.6628  160.1738 H   0  0  0  0  0  0  0  0  0  0  0  0
  147.1375  132.5731  161.8492 H   0  0  0  0  0  0  0  0  0  0  0  0
  147.6272  133.5077  158.3858 H   0  0  0  0  0  0  0  0  0  0  0  0
  147.1192  135.0148  157.7171 H   0  0  0  0  0  0  0  0  0  0  0  0
  148.6599  136.5532  156.9828 H   0  0  0  0  0  0  0  0  0  0  0  0
  151.3796  135.5121  156.4383 H   0  0  0  0  0  0  0  0  0  0  0  0
  150.3979  136.1013  155.1196 H   0  0  0  0  0  0  0  0  0  0  0  0
  150.9968  137.8543  157.5506 H   0  0  0  0  0  0  0  0  0  0  0  0
  149.7379  138.3417  154.8880 H   0  0  0  0  0  0  0  0  0  0  0  0
  149.5241  139.1782  156.4228 H   0  0  0  0  0  0  0  0  0  0  0  0
  151.4517  139.7283  154.2332 H   0  0  0  0  0  0  0  0  0  0  0  0
  151.0400  140.7844  155.5874 H   0  0  0  0  0  0  0  0  0  0  0  0
  153.2446  137.5947  156.7583 H   0  0  0  0  0  0  0  0  0  0  0  0
  152.7237  137.5251  155.0674 H   0  0  0  0  0  0  0  0  0  0  0  0
  1  2  1  0  0  0  0
  1 20  1  0  0  0  0
  1 21  1  0  0  0  0
  1 22  1  0  0  0  0
  2 19  1  0  0  0  0
  2  3  2  0  0  0  0
  3  4  1  0  0  0  0
  4  5  1  0  0  0  0
  4  6  2  0  0  0  0
  5 23  1  0  0  0  0
  5 24  1  0  0  0  0
  5 25  1  0  0  0  0
  6  7  1  0  0  0  0
  6 17  1  0  0  0  0
  7  8  1  0  0  0  0
  7 26  1  0  0  0  0
  7 27  1  0  0  0  0
  8  9  2  0  0  0  0
  8 10  1  0  0  0  0
 10 11  1  0  0  0  0
 10 28  1  0  0  0  0
 11 12  1  0  0  0  0
 11 29  1  0  0  0  0
 11 30  1  0  0  0  0
 12 16  1  0  0  0  0
 12 13  1  0  0  0  0
 12 31  1  0  0  0  0
 13 14  1  0  0  0  0
 13 32  1  0  0  0  0
 13 33  1  0  0  0  0
 14 15  1  0  0  0  0
 14 34  1  0  0  0  0
 14 35  1  0  0  0  0
 15 16  1  0  0  0  0
 16 36  1  0  0  0  0
 16 37  1  0  0  0  0
 17 18  2  0  0  0  0
 17 19  1  0  0  0  0
M  CHG  1  19  -1
M  END
> <s_m_source_file>
AV-unprocessed.smi

> <i_m_source_file_index>
1180

> <i_lp_mmshare_version>
43012

> <i_f3d_flags>
0

> <s_epik_input>
W0NIM11jMW5jKFtDSDNdKWMoYyg9TylbbkhdMSlbQ0gyXUMoPU8pW05IXVtDSDJdW0NAQEhdMltDSDJdW0NIMl1PW0NIMl0y

> <s_epik_cmdline>
J2VwaWtfcHl0aG9uJywgJy1waCcsICc3LjAnLCAnLXRuJywgJzgnLCAnLW1hJywgJzIwMCcsICctbWV0YWxfYmluZGluZycsICctaW1hZScsICc8aW5maWxlLm1hZT4nLCAnLW9tYWUnLCAnPG91dGZpbGUubWFlPic=

> <r_lp_tautomer_probability>
0.839158

> <r_epik_Ionization_Penalty>
6.60319

> <r_epik_Ionization_Penalty_Charging>
6.85407e-08

> <r_epik_Ionization_Penalty_Neutral>
6.60319

> <r_epik_State_Penalty>
4.42883

> <r_epik_Charging_Adjusted_Penalty>
4.42883

> <i_epik_Tot_Q>
-1

> <i_epik_Tot_abs_Q>
1

> <r_epik_Metal_State_Penalty>
0.797578

> <b_epik_Metal_Only>
1

> <s_lp_Force_Field>
OPLS_2005

> <r_lp_Energy>
24.7937

> <b_lp_Chiralities_Consistent>
1

> <s_lp_Variant>
AV-unprocessed.smi:1180-5

> <Gold.Version>
5.8.1

> <Gold.Id.Protein>
6NUR|6NUR_protein|mol2

> <Gold.PLP.Fitness>
40.6839

> <Gold.PLP.PLP>
-25.2499

> <Gold.PLP.part.hbond>
-4.0000

> <Gold.PLP.part.metal>
0.0000

> <Gold.PLP.part.buried>
-3.0785

> <Gold.PLP.part.nonpolar>
-18.9846

> <Gold.PLP.part.repulsive>
0.0494

> <Gold.PLP.ligand.clash>
0.0000

> <Gold.PLP.ligand.torsion>
0.5904

> <Gold.PLP.Chemscore.Hbond>
5.5360

> <Gold.PLP.Chemscore.CHOScore>
0.0000

> <Gold.PLP.Chemscore.Metal>
0.0000

> <Gold.Chemscore.Hbonds>
donor molecule, donor type, donor heavy atom, donor atom, acceptor molecule, acceptor atom, score
      P1  H  6896  6909       L1     9  1.00
      P1  H  6931  6943       L1    19  1.79
      P1  H  6934  6947       L1    19  1.54
      P1  H  7997  8008       L1    15  1.00

> <Gold.PLP.Chemscore.Internal.Correction>
0.0068

> <Gold.Rescore>
     Score         DG    S(hbond)    S(metal)    S(lipo)     H(rot)  DE(clash)    DE(int)     intcor
     14.53     -16.51       2.78        0.00      53.33       1.76       0.03       1.95       ----

> <Gold.Chemscore.Fitness>
14.5274

> <Gold.Chemscore.DG>
-16.5086

> <Gold.Chemscore.ZeroCoef>
-5.4800

> <Gold.Chemscore.Hbond>
2.7811

> <Gold.Chemscore.Metal>
0.0000

> <Gold.Chemscore.Lipo>
53.3299

> <Gold.Chemscore.Internal_Hbond>
0.0000

> <Gold.Chemscore.DEClash>
0.0270

> <Gold.Chemscore.DEInternal>
1.9543

> <Gold.Chemscore.Rot>
1.7577

> <Gold.Chemscore.Internal.Correction>
   9.000000E+99

> <Gold.Chemscore.Hbonds>
donor molecule, donor type, donor heavy atom, donor atom, acceptor molecule, acceptor atom, score
      P1  H  6896  6909       L1     9  0.71
      P1  H  6931  6943       L1    19  0.17
      P1  H  6934  6947       L1    19  0.40
      P1  H  7997  8008       L1    15  0.79

> <Gold.Chemscore.Hbond.Weighted>
-9.2889

> <Gold.Chemscore.Metal.Weighted>
-0.0000

> <Gold.Chemscore.Lipo.Weighted>
-6.2396

> <Gold.Chemscore.Internal_Hbond.Weighted>
0.0000

> <Gold.Chemscore.DEClash.Weighted>
0.0270

> <Gold.Chemscore.DEInternal.Weighted>
1.9543

> <Gold.Chemscore.Rot.Weighted>
4.4998

> <Gold.Chemscore.Internal.Correction.Weighted>
   9.000000E+99

> <Gold.Protein.RotatedTorsions>
[ 6907 6896 6895 6894 ] final   -3.25 input  -60.11 | X-H torsion
[ 7974 7965 7964 7962 ] final  -17.36 input  175.53 | X-H torsion
[ 8008 7997 7996 7995 ] final  -38.89 input   59.86 | X-H torsion
[ 10167 10162 10161 10158 ] final -178.40 input  -65.29 | X-H torsion
[ 10718 10713 10712 10709 ] final -117.36 input   66.30 | X-H torsion
[ 10763 10752 10751 10750 ] final -100.99 input  -60.55 | X-H torsion
[ 11005 11000 10999 10996 ] final -164.28 input  -57.11 | X-H torsion

> <Gold.Protein.ActiveResidues>
 VAL166  LYS551  ARG553  GLY616  TRP617  ASP618  TYR619  PRO620  LYS621  CYS622 
 ASP623  PHE694  ASN695  SER759  ASP760  ASP761  ALA762  ILE779  LEU786  VAL792 
 PHE793  MET794  SER795  GLU796  ALA797  LYS798  CYS799  TRP800  GLU811  SER814 

> <Gold.Protein.RotatedAtoms>
  151.5167  135.1066  159.9867 H   0  0  0  0  0  0  0  0  0  0  0  0  # atno 6907 bound_to 6896
  152.4638  133.7875  159.6894 H   0  0  0  0  0  0  0  0  0  0  0  0  # atno 6908 bound_to 6896
  150.8612  133.7577  159.3017 H   0  0  0  0  0  0  0  0  0  0  0  0  # atno 6909 bound_to 6896
  146.1944  140.3768  142.8446 H   0  0  0  0  0  0  0  0  0  0  0  0  # atno 7974 bound_to 7965
  154.4030  140.1566  156.2774 H   0  0  0  0  0  0  0  0  0  0  0  0  # atno 8008 bound_to 7997
  155.8899  140.3439  155.5927 H   0  0  0  0  0  0  0  0  0  0  0  0  # atno 8009 bound_to 7997
  155.7570  140.0812  157.2164 H   0  0  0  0  0  0  0  0  0  0  0  0  # atno 8010 bound_to 7997
  139.5434  144.2300  152.0941 H   0  0  0  0  0  0  0  0  0  0  0  0  # atno 10167 bound_to 10162
  156.1028  130.6186  150.9154 H   0  0  0  0  0  0  0  0  0  0  0  0  # atno 10718 bound_to 10713
  154.7623  135.4914  153.9488 H   0  0  0  0  0  0  0  0  0  0  0  0  # atno 10763 bound_to 10752
  153.1266  135.6743  153.9255 H   0  0  0  0  0  0  0  0  0  0  0  0  # atno 10764 bound_to 10752
  153.8971  135.3114  155.3427 H   0  0  0  0  0  0  0  0  0  0  0  0  # atno 10765 bound_to 10752
  140.5887  134.5067  157.5189 H   0  0  0  0  0  0  0  0  0  0  0  0  # atno 11005 bound_to 11000
  144.8551  140.7059  143.6143 LP  0  0  0  0  0  0  0  0  0  0  0  0  # atno 17320 bound_to 7965
  145.3689  139.1663  143.4342 LP  0  0  0  0  0  0  0  0  0  0  0  0  # atno 17321 bound_to 7965
  140.1783  144.4869  150.6542 LP  0  0  0  0  0  0  0  0  0  0  0  0  # atno 17342 bound_to 10162
  140.6673  143.2273  151.5711 LP  0  0  0  0  0  0  0  0  0  0  0  0  # atno 17343 bound_to 10162
  157.6201  131.0930  150.8638 LP  0  0  0  0  0  0  0  0  0  0  0  0  # atno 17370 bound_to 10713
  156.8763  130.5163  149.5293 LP  0  0  0  0  0  0  0  0  0  0  0  0  # atno 17371 bound_to 10713
  139.9284  134.8011  156.1001 LP  0  0  0  0  0  0  0  0  0  0  0  0  # atno 17394 bound_to 11000
  141.0949  133.6699  156.2623 LP  0  0  0  0  0  0  0  0  0  0  0  0  # atno 17395 bound_to 11000

$$$$
