AV-unprocessed.smi:1|AV-procd|sdf|16|dock7
  -GOLD-   2262015113D 1   1.00000     0.00000
 Structure written by MMmdl.
 57 62  0  0  0  0  0  0  0  0  1 V2000
  153.6353  140.1746  158.8425 O   0  0  0  0  0  0  0  0  0  0  0  0
  152.7416  140.9533  158.4988 C   0  0  0  0  0  0  0  0  0  0  0  0
  151.8826  140.8662  157.4109 N   0  0  0  0  0  0  0  0  0  0  0  0
  150.9194  139.9951  157.4088 C   0  0  0  0  0  0  0  0  0  0  0  0
  150.5029  139.0413  158.3468 N   0  0  0  0  0  0  0  0  0  0  0  0
  149.4113  138.1701  158.2063 C   0  0  0  0  0  0  0  0  0  0  0  0
  148.6228  138.1218  157.1657 N   0  0  0  0  0  0  0  0  0  0  0  0
  149.0014  139.0426  156.1989 C   0  0  0  0  0  0  0  0  0  0  0  0
  150.0428  139.9445  156.2190 C   0  0  0  0  0  0  0  0  0  0  0  0
  150.0793  140.6827  155.0412 N   0  0  0  0  0  0  0  0  0  0  0  0
  149.0518  140.1882  154.3556 C   0  0  0  0  0  0  0  0  0  0  0  0
  148.3641  139.2068  154.9730 N   0  0  0  0  0  0  0  0  0  0  0  0
  147.1677  138.4521  154.4731 C   0  0  1  0  0  0  0  0  0  0  0  0
  147.4539  137.0848  154.5081 O   0  0  0  0  0  0  0  0  0  0  0  0
  146.8414  136.5005  155.6494 C   0  0  2  0  0  0  0  0  0  0  0  0
  146.7153  134.9788  155.4963 C   0  0  0  0  0  0  0  0  0  0  0  0
  146.2421  134.6500  154.1996 O   0  0  0  0  0  0  0  0  0  0  0  0
  146.4459  133.4174  153.6976 C   0  0  0  0  0  0  0  0  0  0  0  0
  147.1519  132.5665  154.2427 O   0  0  0  0  0  0  0  0  0  0  0  0
  145.7229  133.1885  152.4135 C   0  0  0  0  0  0  0  0  0  0  0  0
  145.0049  134.2544  151.8228 C   0  0  0  0  0  0  0  0  0  0  0  0
  144.3155  134.0694  150.6086 C   0  0  0  0  0  0  0  0  0  0  0  0
  144.3348  132.8154  149.9707 C   0  0  0  0  0  0  0  0  0  0  0  0
  145.0443  131.7466  150.5487 C   0  0  0  0  0  0  0  0  0  0  0  0
  145.7350  131.9299  151.7625 C   0  0  0  0  0  0  0  0  0  0  0  0
  145.5231  137.2650  155.7845 C   0  0  1  0  0  0  0  0  0  0  0  0
  145.0521  137.2843  157.1205 O   0  0  0  0  0  0  0  0  0  0  0  0
  145.5986  138.6747  157.8676 S   0  0  0  0  0  0  0  0  0  0  0  0
  144.4297  139.4472  158.3151 O   0  0  0  0  0  0  0  0  0  0  0  0
  146.7014  138.3110  158.7703 O   0  0  0  0  0  0  0  0  0  0  0  0
  146.2504  139.4358  156.5333 O   0  0  0  0  0  0  0  0  0  0  0  0
  145.9308  138.6865  155.3697 C   0  0  1  0  0  0  0  0  0  0  0  0
  152.4772  142.1414  159.3655 C   0  0  0  0  0  0  0  0  0  0  0  0
  151.9882  143.3366  158.7961 C   0  0  0  0  0  0  0  0  0  0  0  0
  151.7453  144.4596  159.6111 C   0  0  0  0  0  0  0  0  0  0  0  0
  151.9919  144.3921  160.9961 C   0  0  0  0  0  0  0  0  0  0  0  0
  152.4835  143.2018  161.5666 C   0  0  0  0  0  0  0  0  0  0  0  0
  152.7265  142.0777  160.7531 C   0  0  0  0  0  0  0  0  0  0  0  0
  149.2588  137.5094  159.0611 H   0  0  0  0  0  0  0  0  0  0  0  0
  148.7962  140.5556  153.3729 H   0  0  0  0  0  0  0  0  0  0  0  0
  147.0399  138.7905  153.4444 H   0  0  0  0  0  0  0  0  0  0  0  0
  147.4759  136.7155  156.5102 H   0  0  0  0  0  0  0  0  0  0  0  0
  147.6817  134.5034  155.6682 H   0  0  0  0  0  0  0  0  0  0  0  0
  146.0231  134.5929  156.2460 H   0  0  0  0  0  0  0  0  0  0  0  0
  144.9759  135.2264  152.2940 H   0  0  0  0  0  0  0  0  0  0  0  0
  143.7717  134.8911  150.1665 H   0  0  0  0  0  0  0  0  0  0  0  0
  143.8062  132.6734  149.0397 H   0  0  0  0  0  0  0  0  0  0  0  0
  145.0596  130.7834  150.0602 H   0  0  0  0  0  0  0  0  0  0  0  0
  146.2693  131.0883  152.1785 H   0  0  0  0  0  0  0  0  0  0  0  0
  144.7605  136.8808  155.1066 H   0  0  0  0  0  0  0  0  0  0  0  0
  145.1454  139.1932  154.8083 H   0  0  0  0  0  0  0  0  0  0  0  0
  151.7989  143.3969  157.7341 H   0  0  0  0  0  0  0  0  0  0  0  0
  151.3710  145.3735  159.1734 H   0  0  0  0  0  0  0  0  0  0  0  0
  151.8061  145.2539  161.6200 H   0  0  0  0  0  0  0  0  0  0  0  0
  152.6751  143.1509  162.6283 H   0  0  0  0  0  0  0  0  0  0  0  0
  153.1054  141.1687  161.1980 H   0  0  0  0  0  0  0  0  0  0  0  0
  151.0337  138.9802  159.2038 H   0  0  0  0  0  0  0  0  0  0  0  0
  1  2  2  0  0  0  0
  2  3  1  0  0  0  0
  2 33  1  0  0  0  0
  3  4  2  0  0  0  0
  4  9  1  0  0  0  0
  4  5  1  0  0  0  0
  5  6  1  0  0  0  0
  5 57  1  0  0  0  0
  6  7  2  0  0  0  0
  6 39  1  0  0  0  0
  7  8  1  0  0  0  0
  8 12  1  0  0  0  0
  8  9  2  0  0  0  0
  9 10  1  0  0  0  0
 10 11  2  0  0  0  0
 11 12  1  0  0  0  0
 11 40  1  0  0  0  0
 12 13  1  0  0  0  0
 13 32  1  0  0  0  0
 13 14  1  0  0  0  0
 13 41  1  0  0  0  0
 14 15  1  0  0  0  0
 15 16  1  0  0  0  0
 15 26  1  0  0  0  0
 15 42  1  0  0  0  0
 16 17  1  0  0  0  0
 16 43  1  0  0  0  0
 16 44  1  0  0  0  0
 17 18  1  0  0  0  0
 18 19  2  0  0  0  0
 18 20  1  0  0  0  0
 20 25  1  0  0  0  0
 20 21  2  0  0  0  0
 21 22  1  0  0  0  0
 21 45  1  0  0  0  0
 22 23  2  0  0  0  0
 22 46  1  0  0  0  0
 23 24  1  0  0  0  0
 23 47  1  0  0  0  0
 24 25  2  0  0  0  0
 24 48  1  0  0  0  0
 25 49  1  0  0  0  0
 26 32  1  0  0  0  0
 26 27  1  0  0  0  0
 26 50  1  0  0  0  0
 27 28  1  0  0  0  0
 28 29  2  0  0  0  0
 28 30  2  0  0  0  0
 28 31  1  0  0  0  0
 31 32  1  0  0  0  0
 32 51  1  0  0  0  0
 33 38  1  0  0  0  0
 33 34  2  0  0  0  0
 34 35  1  0  0  0  0
 34 52  1  0  0  0  0
 35 36  2  0  0  0  0
 35 53  1  0  0  0  0
 36 37  1  0  0  0  0
 36 54  1  0  0  0  0
 37 38  2  0  0  0  0
 37 55  1  0  0  0  0
 38 56  1  0  0  0  0
M  END
> <s_m_source_file>
AV-unprocessed.smi

> <i_m_source_file_index>
1

> <i_lp_mmshare_version>
43012

> <i_f3d_flags>
0

> <s_epik_input>
W2NIXTFbY0hdW2NIXVtjSF1bY0hdYzFDKD1PKVtOSF1jKG5bY0hdbjIpYyhjMjMpbltjSF1uM1tDQEBIXShbQ0BIXShbQ0BIXTQ1KU9TKE81KSg9Tyk9TylPW0NASF00W0NIMl1PQyg9TyljNltjSF1bY0hdW2NIXVtjSF1bY0hdNg==

> <s_epik_cmdline>
J2VwaWtfcHl0aG9uJywgJy1waCcsICc3LjAnLCAnLXRuJywgJzgnLCAnLW1hJywgJzIwMCcsICctbWV0YWxfYmluZGluZycsICctaW1hZScsICc8aW5maWxlLm1hZT4nLCAnLW9tYWUnLCAnPG91dGZpbGUubWFlPic=

> <r_epik_Ionization_Penalty>
0.122545

> <r_epik_Ionization_Penalty_Charging>
0.122545

> <r_epik_Ionization_Penalty_Neutral>
7.8935e-16

> <r_epik_State_Penalty>
2.69178

> <r_epik_Charging_Adjusted_Penalty>
2.81433

> <i_epik_Tot_Q>
0

> <i_epik_Tot_abs_Q>
0

> <r_epik_Metal_State_Penalty>
3.02665

> <b_epik_Metal_Only>
0

> <s_epik_Chemistry_Notes>
This compound has an ester and may undergo hydrolysis at high or low pH. This compound contains an acetal/aminal-like group ( X-CH(R)-Y where X, Y are N, S, or O) that may be acid/base labile, releasing an aldehyde.

> <s_lp_Force_Field>
OPLS_2005

> <r_lp_Energy>
59.1261

> <b_lp_Chiralities_Consistent>
1

> <s_lp_Variant>
AV-unprocessed.smi:1-16

> <Gold.Version>
5.8.1

> <Gold.Id.Protein>
6NUR|6NUR_protein|mol2

> <Gold.PLP.Fitness>
56.0872

> <Gold.PLP.PLP>
-50.0699

> <Gold.PLP.part.hbond>
-3.0000

> <Gold.PLP.part.metal>
0.0000

> <Gold.PLP.part.buried>
-6.1245

> <Gold.PLP.part.nonpolar>
-40.0223

> <Gold.PLP.part.repulsive>
0.7754

> <Gold.PLP.ligand.clash>
0.0000

> <Gold.PLP.ligand.torsion>
1.3766

> <Gold.PLP.Chemscore.Hbond>
1.7903

> <Gold.PLP.Chemscore.CHOScore>
1.0000

> <Gold.PLP.Chemscore.Metal>
0.0000

> <Gold.Chemscore.Hbonds>
donor molecule, donor type, donor heavy atom, donor atom, acceptor molecule, acceptor atom, score
      P1  H  6934  6947       L1    30  0.15
      P1  H  7989  7998       L1    10  0.52
      P1  H  7997  8009       L1     1  0.94
      L1  C    11    40       P1  7957  1.00

> <Gold.PLP.Chemscore.Internal.Correction>
0.3996

> <Gold.Rescore>
     Score         DG    S(hbond)    S(metal)    S(lipo)     H(rot)  DE(clash)    DE(int)     intcor
     11.30     -17.02       1.24        0.00     109.81       2.13       0.11       5.61       ----

> <Gold.Chemscore.Fitness>
11.3009

> <Gold.Chemscore.DG>
-17.0172

> <Gold.Chemscore.ZeroCoef>
-5.4800

> <Gold.Chemscore.Hbond>
1.2428

> <Gold.Chemscore.Metal>
0.0000

> <Gold.Chemscore.Lipo>
109.8100

> <Gold.Chemscore.Internal_Hbond>
0.0000

> <Gold.Chemscore.DEClash>
0.1103

> <Gold.Chemscore.DEInternal>
5.6061

> <Gold.Chemscore.Rot>
2.1333

> <Gold.Chemscore.Internal.Correction>
   9.000000E+99

> <Gold.Chemscore.Hbonds>
donor molecule, donor type, donor heavy atom, donor atom, acceptor molecule, acceptor atom, score
      P1  H  6934  6947       L1    30  0.15
      P1  H  7989  7998       L1    10  0.18
      P1  H  7997  8009       L1     1  0.39

> <Gold.Chemscore.Hbond.Weighted>
-4.1508

> <Gold.Chemscore.Metal.Weighted>
-0.0000

> <Gold.Chemscore.Lipo.Weighted>
-12.8478

> <Gold.Chemscore.Internal_Hbond.Weighted>
0.0000

> <Gold.Chemscore.DEClash.Weighted>
0.1103

> <Gold.Chemscore.DEInternal.Weighted>
5.6061

> <Gold.Chemscore.Rot.Weighted>
5.4614

> <Gold.Chemscore.Internal.Correction.Weighted>
   9.000000E+99

> <Gold.Protein.RotatedTorsions>
[ 6907 6896 6895 6894 ] final   60.13 input  -60.11 | X-H torsion
[ 7974 7965 7964 7962 ] final   -8.33 input  175.53 | X-H torsion
[ 8008 7997 7996 7995 ] final  137.79 input   59.86 | X-H torsion
[ 10167 10162 10161 10158 ] final  108.03 input  -65.29 | X-H torsion
[ 10718 10713 10712 10709 ] final  -64.08 input   66.30 | X-H torsion
[ 10763 10752 10751 10750 ] final  -84.82 input  -60.55 | X-H torsion
[ 11005 11000 10999 10996 ] final  -74.26 input  -57.11 | X-H torsion

> <Gold.Protein.ActiveResidues>
 VAL166  LYS551  ARG553  GLY616  TRP617  ASP618  TYR619  PRO620  LYS621  CYS622 
 ASP623  PHE694  ASN695  SER759  ASP760  ASP761  ALA762  ILE779  LEU786  VAL792 
 PHE793  MET794  SER795  GLU796  ALA797  LYS798  CYS799  TRP800  GLU811  SER814 

> <Gold.Protein.RotatedAtoms>
  152.3976  134.6340  160.0082 H   0  0  0  0  0  0  0  0  0  0  0  0  # atno 6907 bound_to 6896
  151.6555  133.3313  159.3170 H   0  0  0  0  0  0  0  0  0  0  0  0  # atno 6908 bound_to 6896
  150.7881  134.6926  159.6550 H   0  0  0  0  0  0  0  0  0  0  0  0  # atno 6909 bound_to 6896
  146.2283  140.2453  142.8345 H   0  0  0  0  0  0  0  0  0  0  0  0  # atno 7974 bound_to 7965
  156.3000  140.2410  156.3968 H   0  0  0  0  0  0  0  0  0  0  0  0  # atno 8008 bound_to 7997
  154.8564  140.0422  157.1657 H   0  0  0  0  0  0  0  0  0  0  0  0  # atno 8009 bound_to 7997
  154.8943  140.2968  155.5356 H   0  0  0  0  0  0  0  0  0  0  0  0  # atno 8010 bound_to 7997
  139.6879  144.7111  151.1399 H   0  0  0  0  0  0  0  0  0  0  0  0  # atno 10167 bound_to 10162
  156.0751  130.4229  150.1369 H   0  0  0  0  0  0  0  0  0  0  0  0  # atno 10718 bound_to 10713
  154.6040  135.5507  153.7404 H   0  0  0  0  0  0  0  0  0  0  0  0  # atno 10763 bound_to 10752
  153.0166  135.6373  154.1674 H   0  0  0  0  0  0  0  0  0  0  0  0  # atno 10764 bound_to 10752
  154.1613  135.2897  155.3088 H   0  0  0  0  0  0  0  0  0  0  0  0  # atno 10765 bound_to 10752
  141.1633  133.6905  156.7338 H   0  0  0  0  0  0  0  0  0  0  0  0  # atno 11005 bound_to 11000
  144.9453  140.8122  143.5605 LP  0  0  0  0  0  0  0  0  0  0  0  0  # atno 17320 bound_to 7965
  145.2408  139.2073  143.4994 LP  0  0  0  0  0  0  0  0  0  0  0  0  # atno 17321 bound_to 7965
  140.7673  143.5602  150.9107 LP  0  0  0  0  0  0  0  0  0  0  0  0  # atno 17342 bound_to 10162
  139.9278  143.6529  152.3083 LP  0  0  0  0  0  0  0  0  0  0  0  0  # atno 17343 bound_to 10162
  156.9412  130.9745  151.3516 LP  0  0  0  0  0  0  0  0  0  0  0  0  # atno 17370 bound_to 10713
  157.5842  130.8398  149.8566 LP  0  0  0  0  0  0  0  0  0  0  0  0  # atno 17371 bound_to 10713
  140.2725  134.8380  157.3860 LP  0  0  0  0  0  0  0  0  0  0  0  0  # atno 17394 bound_to 11000
  140.1508  134.4853  155.7963 LP  0  0  0  0  0  0  0  0  0  0  0  0  # atno 17395 bound_to 11000

$$$$
