AV-unprocessed.smi:66|AV-procd|sdf|626|dock7
  -GOLD-   2262016523D 1   1.00000     0.00000
 Structure written by MMmdl.
 27 29  0  0  0  0  0  0  0  0  3 V2000
  151.3365  139.3227  154.6894 O   0  0  0  0  0  0  0  0  0  0  0  0
  152.1744  139.6076  155.5729 C   0  0  0  0  0  0  0  0  0  0  0  0
  153.1938  138.9354  155.8469 O   0  5  0  0  0  0  0  0  0  0  0  0
  151.9086  140.8787  156.3929 C   0  0  1  0  0  0  0  0  0  0  0  0
  150.5990  141.5679  155.9825 C   0  0  0  0  0  0  0  0  0  0  0  0
  150.2050  142.3094  157.2562 C   0  0  1  0  0  0  0  0  0  0  0  0
  148.8286  142.6227  157.3024 O   0  0  0  0  0  0  0  0  0  0  0  0
  150.6331  141.3504  158.3693 C   0  0  0  0  0  0  0  0  0  0  0  0
  151.7668  140.6105  157.8268 N   0  0  0  0  0  0  0  0  0  0  0  0
  152.8839  140.3414  158.6493 C   0  0  0  0  0  0  0  0  0  0  0  0
  153.7013  139.3118  158.3085 N   0  0  0  0  0  0  0  0  0  0  0  0
  154.7594  139.0661  159.0887 C   0  0  0  0  0  0  0  0  0  0  0  0
  155.1197  139.7320  160.1896 N   0  0  0  0  0  0  0  0  0  0  0  0
  154.3160  140.7548  160.5455 C   0  0  0  0  0  0  0  0  0  0  0  0
  154.3584  141.6064  161.5575 N   0  5  0  0  0  0  0  0  0  0  0  0
  153.2862  142.4303  161.4375 C   0  0  0  0  0  0  0  0  0  0  0  0
  152.5157  142.1586  160.3645 N   0  0  0  0  0  0  0  0  0  0  0  0
  153.1835  141.1030  159.8096 C   0  0  0  0  0  0  0  0  0  0  0  0
  152.7301  141.5819  156.2471 H   0  0  0  0  0  0  0  0  0  0  0  0
  150.7237  142.2351  155.1293 H   0  0  0  0  0  0  0  0  0  0  0  0
  149.8323  140.8335  155.7269 H   0  0  0  0  0  0  0  0  0  0  0  0
  150.7849  143.2307  157.3285 H   0  0  0  0  0  0  0  0  0  0  0  0
  148.6561  143.2998  156.6668 H   0  0  0  0  0  0  0  0  0  0  0  0
  150.8767  141.9009  159.2789 H   0  0  0  0  0  0  0  0  0  0  0  0
  149.8422  140.6364  158.6033 H   0  0  0  0  0  0  0  0  0  0  0  0
  155.3948  138.2444  158.7930 H   0  0  0  0  0  0  0  0  0  0  0  0
  153.1231  143.2113  162.1697 H   0  0  0  0  0  0  0  0  0  0  0  0
  1  2  2  0  0  0  0
  2  3  1  0  0  0  0
  2  4  1  0  0  0  0
  4  5  1  0  0  0  0
  4 19  1  0  0  0  0
  4  9  1  0  0  0  0
  5  6  1  0  0  0  0
  5 20  1  0  0  0  0
  5 21  1  0  0  0  0
  6  7  1  0  0  0  0
  6  8  1  0  0  0  0
  6 22  1  0  0  0  0
  7 23  1  0  0  0  0
  8 24  1  0  0  0  0
  8 25  1  0  0  0  0
  8  9  1  0  0  0  0
  9 10  1  0  0  0  0
 10 11  1  0  0  0  0
 10 18  2  0  0  0  0
 11 12  2  0  0  0  0
 12 26  1  0  0  0  0
 12 13  1  0  0  0  0
 13 14  2  0  0  0  0
 14 15  1  0  0  0  0
 14 18  1  0  0  0  0
 15 16  1  0  0  0  0
 16 17  2  0  0  0  0
 16 27  1  0  0  0  0
 17 18  1  0  0  0  0
M  CHG  1   3  -1
M  CHG  1  15  -1
M  END
> <s_m_source_file>
AV-unprocessed.smi

> <i_m_source_file_index>
66

> <i_lp_mmshare_version>
43012

> <i_f3d_flags>
0

> <s_epik_input>
Tz1DKFtPSF0pW0NAQEhdMVtDSDJdW0NAQEhdKFtPSF0pW0NIMl1OMWMobltjSF1uMiljKGMyMylbbkhdW2NIXW4z

> <s_epik_cmdline>
J2VwaWtfcHl0aG9uJywgJy1waCcsICc3LjAnLCAnLXRuJywgJzgnLCAnLW1hJywgJzIwMCcsICctbWV0YWxfYmluZGluZycsICctaW1hZScsICc8aW5maWxlLm1hZT4nLCAnLW9tYWUnLCAnPG91dGZpbGUubWFlPic=

> <r_lp_tautomer_probability>
0.955585

> <r_epik_Ionization_Penalty>
7.65809

> <r_epik_Ionization_Penalty_Charging>
3.4974

> <r_epik_Ionization_Penalty_Neutral>
4.16069

> <r_epik_State_Penalty>
3.51624

> <r_epik_Charging_Adjusted_Penalty>
7.01364

> <i_epik_Tot_Q>
-2

> <i_epik_Tot_abs_Q>
2

> <r_epik_Metal_State_Penalty>
0.522662

> <b_epik_Metal_Only>
1

> <s_lp_Force_Field>
OPLS_2005

> <r_lp_Energy>
45.116

> <b_lp_Chiralities_Consistent>
1

> <s_lp_Variant>
AV-unprocessed.smi:66-10

> <Gold.Version>
5.8.1

> <Gold.Id.Protein>
6NUR|6NUR_protein|mol2

> <Gold.PLP.Fitness>
42.5063

> <Gold.PLP.PLP>
-31.4919

> <Gold.PLP.part.hbond>
-4.8098

> <Gold.PLP.part.metal>
0.0000

> <Gold.PLP.part.buried>
-4.8137

> <Gold.PLP.part.nonpolar>
-21.2135

> <Gold.PLP.part.repulsive>
0.0935

> <Gold.PLP.ligand.clash>
0.0000

> <Gold.PLP.ligand.torsion>
0.6272

> <Gold.PLP.Chemscore.Hbond>
4.0000

> <Gold.PLP.Chemscore.CHOScore>
0.0000

> <Gold.PLP.Chemscore.Metal>
0.0000

> <Gold.Chemscore.Hbonds>
donor molecule, donor type, donor heavy atom, donor atom, acceptor molecule, acceptor atom, score
      L1  H     7    23       P1  8028  1.00
      P1  H  7989  7998       L1     1  0.90
      P1  H  7997  8008       L1     3  2.00

> <Gold.PLP.Chemscore.Internal.Correction>
0.2689

> <Gold.Rescore>
     Score         DG    S(hbond)    S(metal)    S(lipo)     H(rot)  DE(clash)    DE(int)     intcor
      6.65     -11.40       1.94        0.00      33.90       1.78       1.11       3.64       ----

> <Gold.Chemscore.Fitness>
6.6467

> <Gold.Chemscore.DG>
-11.3960

> <Gold.Chemscore.ZeroCoef>
-5.4800

> <Gold.Chemscore.Hbond>
1.9446

> <Gold.Chemscore.Metal>
0.0000

> <Gold.Chemscore.Lipo>
33.8986

> <Gold.Chemscore.Internal_Hbond>
0.0000

> <Gold.Chemscore.DEClash>
1.1056

> <Gold.Chemscore.DEInternal>
3.6438

> <Gold.Chemscore.Rot>
1.7754

> <Gold.Chemscore.Internal.Correction>
   9.000000E+99

> <Gold.Chemscore.Hbonds>
donor molecule, donor type, donor heavy atom, donor atom, acceptor molecule, acceptor atom, score
      L1  H     7    23       P1  8028  0.70
      P1  H  7989  7998       L1     1  0.18
      P1  H  7997  8008       L1     3  0.44

> <Gold.Chemscore.Hbond.Weighted>
-6.4949

> <Gold.Chemscore.Metal.Weighted>
-0.0000

> <Gold.Chemscore.Lipo.Weighted>
-3.9661

> <Gold.Chemscore.Internal_Hbond.Weighted>
0.0000

> <Gold.Chemscore.DEClash.Weighted>
1.1056

> <Gold.Chemscore.DEInternal.Weighted>
3.6438

> <Gold.Chemscore.Rot.Weighted>
4.5451

> <Gold.Chemscore.Internal.Correction.Weighted>
   9.000000E+99

> <Gold.Protein.RotatedTorsions>
[ 6907 6896 6895 6894 ] final  -92.99 input  -60.11 | X-H torsion
[ 7974 7965 7964 7962 ] final   81.12 input  175.53 | X-H torsion
[ 8008 7997 7996 7995 ] final  -37.21 input   59.86 | X-H torsion
[ 10167 10162 10161 10158 ] final  132.85 input  -65.29 | X-H torsion
[ 10718 10713 10712 10709 ] final  -65.29 input   66.30 | X-H torsion
[ 10763 10752 10751 10750 ] final  133.90 input  -60.55 | X-H torsion
[ 11005 11000 10999 10996 ] final   28.40 input  -57.11 | X-H torsion

> <Gold.Protein.ActiveResidues>
 VAL166  LYS551  ARG553  GLY616  TRP617  ASP618  TYR619  PRO620  LYS621  CYS622 
 ASP623  PHE694  ASN695  SER759  ASP760  ASP761  ALA762  ILE779  LEU786  VAL792 
 PHE793  MET794  SER795  GLU796  ALA797  LYS798  CYS799  TRP800  GLU811  SER814 

> <Gold.Protein.RotatedAtoms>
  150.6915  134.2037  159.4331 H   0  0  0  0  0  0  0  0  0  0  0  0  # atno 6907 bound_to 6896
  152.0002  134.9930  160.0574 H   0  0  0  0  0  0  0  0  0  0  0  0  # atno 6908 bound_to 6896
  152.1586  133.4532  159.4886 H   0  0  0  0  0  0  0  0  0  0  0  0  # atno 6909 bound_to 6896
  145.6423  139.2428  143.2024 H   0  0  0  0  0  0  0  0  0  0  0  0  # atno 7974 bound_to 7965
  154.4058  140.1610  156.2500 H   0  0  0  0  0  0  0  0  0  0  0  0  # atno 8008 bound_to 7997
  155.9127  140.3426  155.6089 H   0  0  0  0  0  0  0  0  0  0  0  0  # atno 8009 bound_to 7997
  155.7316  140.0781  157.2277 H   0  0  0  0  0  0  0  0  0  0  0  0  # atno 8010 bound_to 7997
  139.5322  144.6643  151.4912 H   0  0  0  0  0  0  0  0  0  0  0  0  # atno 10167 bound_to 10162
  156.0678  130.4245  150.1542 H   0  0  0  0  0  0  0  0  0  0  0  0  # atno 10718 bound_to 10713
  153.8147  135.3124  155.3404 H   0  0  0  0  0  0  0  0  0  0  0  0  # atno 10763 bound_to 10752
  154.8037  135.4711  154.0341 H   0  0  0  0  0  0  0  0  0  0  0  0  # atno 10764 bound_to 10752
  153.1731  135.6881  153.8669 H   0  0  0  0  0  0  0  0  0  0  0  0  # atno 10765 bound_to 10752
  140.3160  134.2596  155.7725 H   0  0  0  0  0  0  0  0  0  0  0  0  # atno 11005 bound_to 11000
  146.1271  140.7234  142.9430 LP  0  0  0  0  0  0  0  0  0  0  0  0  # atno 17320 bound_to 7965
  144.7153  140.4186  143.7049 LP  0  0  0  0  0  0  0  0  0  0  0  0  # atno 17321 bound_to 7965
  140.6507  143.8703  150.6782 LP  0  0  0  0  0  0  0  0  0  0  0  0  # atno 17342 bound_to 10162
  140.2067  143.3916  152.1750 LP  0  0  0  0  0  0  0  0  0  0  0  0  # atno 17343 bound_to 10162
  156.9599  130.9801  151.3481 LP  0  0  0  0  0  0  0  0  0  0  0  0  # atno 17370 bound_to 10713
  157.5731  130.8324  149.8419 LP  0  0  0  0  0  0  0  0  0  0  0  0  # atno 17371 bound_to 10713
  141.2097  133.7740  156.9977 LP  0  0  0  0  0  0  0  0  0  0  0  0  # atno 17394 bound_to 11000
  140.0983  134.9551  157.1884 LP  0  0  0  0  0  0  0  0  0  0  0  0  # atno 17395 bound_to 11000

$$$$
