AV-unprocessed.smi:2083|AV-procd|sdf|8509|dock1
  -GOLD-   2272011223D 1   1.00000     0.00000
 Structure written by MMmdl.
 44 45  0  0  0  0  0  0  0  0  3 V2000
  148.7666  141.4109  154.5959 C   0  0  0  0  0  0  0  0  0  0  0  0
  149.3424  140.0364  154.6150 C   0  0  0  0  0  0  0  0  0  0  0  0
  148.7981  138.7983  154.4212 C   0  0  0  0  0  0  0  0  0  0  0  0
  149.9115  137.9299  154.5758 C   0  0  0  0  0  0  0  0  0  0  0  0
  149.7572  136.5249  154.4422 N   0  0  0  0  0  0  0  0  0  0  0  0
  150.0970  135.5537  155.3092 C   0  0  0  0  0  0  0  0  0  0  0  0
  150.6061  135.8387  156.3999 O   0  0  0  0  0  0  0  0  0  0  0  0
  149.8063  134.3115  154.8323 N   0  5  0  0  0  0  0  0  0  0  0  0
  148.7112  134.0060  153.9102 C   0  0  0  0  0  0  0  0  0  0  0  0
  148.9969  132.7034  153.1125 C   0  0  1  0  0  0  0  0  0  0  0  0
  149.6020  131.5569  153.9613 C   0  0  0  0  0  0  0  0  0  0  0  0
  147.7833  132.2809  152.3457 N   0  3  2  0  0  0  0  0  0  0  0  0
  147.1253  133.3358  151.5192 C   0  0  0  0  0  0  0  0  0  0  0  0
  146.0709  132.7191  150.5881 C   0  0  0  0  0  0  0  0  0  0  0  0
  145.0292  131.9268  151.3910 C   0  0  0  0  0  0  0  0  0  0  0  0
  145.7003  130.8846  152.3055 C   0  0  1  0  0  0  0  0  0  0  0  0
  146.2364  129.6692  151.5285 C   0  0  0  0  0  0  0  0  0  0  0  0
  146.7912  131.5438  153.1754 C   0  0  0  0  0  0  0  0  0  0  0  0
  151.0343  138.5811  154.8423 N   0  0  0  0  0  0  0  0  0  0  0  0
  150.6753  139.9339  154.8678 O   0  0  0  0  0  0  0  0  0  0  0  0
  147.6928  141.3845  154.7815 H   0  0  0  0  0  0  0  0  0  0  0  0
  148.9316  141.8836  153.6278 H   0  0  0  0  0  0  0  0  0  0  0  0
  149.2260  142.0363  155.3615 H   0  0  0  0  0  0  0  0  0  0  0  0
  147.7693  138.5544  154.2014 H   0  0  0  0  0  0  0  0  0  0  0  0
  149.3451  136.2124  153.5756 H   0  0  0  0  0  0  0  0  0  0  0  0
  147.7658  133.8958  154.4415 H   0  0  0  0  0  0  0  0  0  0  0  0
  148.5445  134.8218  153.2049 H   0  0  0  0  0  0  0  0  0  0  0  0
  149.7527  132.9702  152.3723 H   0  0  0  0  0  0  0  0  0  0  0  0
  150.5688  131.8341  154.3855 H   0  0  0  0  0  0  0  0  0  0  0  0
  149.7764  130.6718  153.3492 H   0  0  0  0  0  0  0  0  0  0  0  0
  148.9586  131.2594  154.7911 H   0  0  0  0  0  0  0  0  0  0  0  0
  146.6510  134.0756  152.1652 H   0  0  0  0  0  0  0  0  0  0  0  0
  147.8607  133.8683  150.9158 H   0  0  0  0  0  0  0  0  0  0  0  0
  145.5770  133.5048  150.0157 H   0  0  0  0  0  0  0  0  0  0  0  0
  146.5569  132.0697  149.8594 H   0  0  0  0  0  0  0  0  0  0  0  0
  144.4500  132.6203  152.0022 H   0  0  0  0  0  0  0  0  0  0  0  0
  144.3178  131.4457  150.7190 H   0  0  0  0  0  0  0  0  0  0  0  0
  144.9324  130.5027  152.9794 H   0  0  0  0  0  0  0  0  0  0  0  0
  147.0365  129.9444  150.8411 H   0  0  0  0  0  0  0  0  0  0  0  0
  145.4456  129.1970  150.9452 H   0  0  0  0  0  0  0  0  0  0  0  0
  146.6342  128.9155  152.2087 H   0  0  0  0  0  0  0  0  0  0  0  0
  147.2867  130.7730  153.7670 H   0  0  0  0  0  0  0  0  0  0  0  0
  146.3357  132.2361  153.8850 H   0  0  0  0  0  0  0  0  0  0  0  0
  148.1325  131.5948  151.6916 H   0  0  0  0  0  0  0  0  0  0  0  0
  1  2  1  0  0  0  0
  1 21  1  0  0  0  0
  1 22  1  0  0  0  0
  1 23  1  0  0  0  0
  2 20  1  0  0  0  0
  2  3  2  0  0  0  0
  3  4  1  0  0  0  0
  3 24  1  0  0  0  0
  4  5  1  0  0  0  0
  4 19  2  0  0  0  0
  5  6  1  0  0  0  0
  5 25  1  0  0  0  0
  6  7  2  0  0  0  0
  6  8  1  0  0  0  0
  8  9  1  0  0  0  0
  9 10  1  0  0  0  0
  9 26  1  0  0  0  0
  9 27  1  0  0  0  0
 10 11  1  0  0  0  0
 10 12  1  0  0  0  0
 10 28  1  0  0  0  0
 11 29  1  0  0  0  0
 11 30  1  0  0  0  0
 11 31  1  0  0  0  0
 12 18  1  0  0  0  0
 12 13  1  0  0  0  0
 12 44  1  0  0  0  0
 13 14  1  0  0  0  0
 13 32  1  0  0  0  0
 13 33  1  0  0  0  0
 14 15  1  0  0  0  0
 14 34  1  0  0  0  0
 14 35  1  0  0  0  0
 15 16  1  0  0  0  0
 15 36  1  0  0  0  0
 15 37  1  0  0  0  0
 16 17  1  0  0  0  0
 16 18  1  0  0  0  0
 16 38  1  0  0  0  0
 17 39  1  0  0  0  0
 17 40  1  0  0  0  0
 17 41  1  0  0  0  0
 18 42  1  0  0  0  0
 18 43  1  0  0  0  0
 19 20  1  0  0  0  0
M  CHG  1   8  -1
M  CHG  1  12   1
M  END
> <s_m_source_file>
AV-unprocessed.smi

> <i_m_source_file_index>
2083

> <i_lp_mmshare_version>
43012

> <i_f3d_flags>
0

> <s_epik_input>
W0NIM11jMVtjSF1jKG5vMSlbTkhdQyg9TylbTkhdW0NIMl1bQ0BIXShbQ0gzXSlOMltDSDJdW0NIMl1bQ0gyXVtDQEBIXShbQ0gzXSlbQ0gyXTI=

> <s_epik_cmdline>
J2VwaWtfcHl0aG9uJywgJy1waCcsICc3LjAnLCAnLXRuJywgJzgnLCAnLW1hJywgJzIwMCcsICctbWV0YWxfYmluZGluZycsICctaW1hZScsICc8aW5maWxlLm1hZT4nLCAnLW9tYWUnLCAnPG91dGZpbGUubWFlPic=

> <r_epik_Ionization_Penalty>
6.76934

> <r_epik_Ionization_Penalty_Charging>
6.76934

> <r_epik_Ionization_Penalty_Neutral>
5.77849e-06

> <r_epik_State_Penalty>
6.79457

> <r_epik_Charging_Adjusted_Penalty>
13.5639

> <i_epik_Tot_Q>
0

> <i_epik_Tot_abs_Q>
2

> <r_epik_Metal_State_Penalty>
2.72837

> <b_epik_Metal_Only>
1

> <s_lp_Force_Field>
OPLS_2005

> <r_lp_Energy>
19.7061

> <b_lp_Chiralities_Consistent>
1

> <s_lp_Variant>
AV-unprocessed.smi:2083-20

> <Gold.Version>
5.8.1

> <Gold.Id.Protein>
6NUR|6NUR_protein|mol2

> <Gold.PLP.Fitness>
43.8528

> <Gold.PLP.PLP>
-36.8842

> <Gold.PLP.part.hbond>
-3.0654

> <Gold.PLP.part.metal>
0.0000

> <Gold.PLP.part.buried>
-5.0618

> <Gold.PLP.part.nonpolar>
-29.2284

> <Gold.PLP.part.repulsive>
0.3251

> <Gold.PLP.ligand.clash>
0.0000

> <Gold.PLP.ligand.torsion>
1.1168

> <Gold.PLP.Chemscore.Hbond>
3.0000

> <Gold.PLP.Chemscore.CHOScore>
0.0000

> <Gold.PLP.Chemscore.Metal>
0.0000

> <Gold.Chemscore.Hbonds>
donor molecule, donor type, donor heavy atom, donor atom, acceptor molecule, acceptor atom, score
      L1  H     5    25       P1  7948  1.00
      L1  H    12    44       P1 10747  1.00
      P1  H  7989  7998       L1    20  1.00

> <Gold.PLP.Chemscore.Internal.Correction>
0.2022

> <Gold.Rescore>
     Score         DG    S(hbond)    S(metal)    S(lipo)     H(rot)  DE(clash)    DE(int)     intcor
     18.26     -20.29       2.61        0.00      85.16       1.52       0.90       1.13       ----

> <Gold.Chemscore.Fitness>
18.2570

> <Gold.Chemscore.DG>
-20.2858

> <Gold.Chemscore.ZeroCoef>
-5.4800

> <Gold.Chemscore.Hbond>
2.6141

> <Gold.Chemscore.Metal>
0.0000

> <Gold.Chemscore.Lipo>
85.1565

> <Gold.Chemscore.Internal_Hbond>
0.0000

> <Gold.Chemscore.DEClash>
0.9006

> <Gold.Chemscore.DEInternal>
1.1282

> <Gold.Chemscore.Rot>
1.5190

> <Gold.Chemscore.Internal.Correction>
   9.000000E+99

> <Gold.Chemscore.Hbonds>
donor molecule, donor type, donor heavy atom, donor atom, acceptor molecule, acceptor atom, score
      L1  H     5    25       P1  7948  0.78
      L1  H    12    44       P1 10747  1.00
      P1  H  7989  7998       L1    20  0.49

> <Gold.Chemscore.Hbond.Weighted>
-8.7312

> <Gold.Chemscore.Metal.Weighted>
-0.0000

> <Gold.Chemscore.Lipo.Weighted>
-9.9633

> <Gold.Chemscore.Internal_Hbond.Weighted>
0.0000

> <Gold.Chemscore.DEClash.Weighted>
0.9006

> <Gold.Chemscore.DEInternal.Weighted>
1.1282

> <Gold.Chemscore.Rot.Weighted>
3.8886

> <Gold.Chemscore.Internal.Correction.Weighted>
   9.000000E+99

> <Gold.Protein.RotatedTorsions>
[ 6907 6896 6895 6894 ] final  170.03 input  -60.11 | X-H torsion
[ 7974 7965 7964 7962 ] final  173.84 input  175.53 | X-H torsion
[ 8008 7997 7996 7995 ] final  -40.40 input   59.86 | X-H torsion
[ 10167 10162 10161 10158 ] final -165.25 input  -65.29 | X-H torsion
[ 10718 10713 10712 10709 ] final   37.84 input   66.30 | X-H torsion
[ 10763 10752 10751 10750 ] final  -54.20 input  -60.55 | X-H torsion
[ 11005 11000 10999 10996 ] final   48.05 input  -57.11 | X-H torsion

> <Gold.Protein.ActiveResidues>
 VAL166  LYS551  ARG553  GLY616  TRP617  ASP618  TYR619  PRO620  LYS621  CYS622 
 ASP623  PHE694  ASN695  SER759  ASP760  ASP761  ALA762  ILE779  LEU786  VAL792 
 PHE793  MET794  SER795  GLU796  ALA797  LYS798  CYS799  TRP800  GLU811  SER814 

> <Gold.Protein.RotatedAtoms>
  151.8225  133.3396  159.3588 H   0  0  0  0  0  0  0  0  0  0  0  0  # atno 6907 bound_to 6896
  150.7290  134.5560  159.5828 H   0  0  0  0  0  0  0  0  0  0  0  0  # atno 6908 bound_to 6896
  152.2996  134.7628  160.0412 H   0  0  0  0  0  0  0  0  0  0  0  0  # atno 6909 bound_to 6896
  144.7235  139.9707  143.6437 H   0  0  0  0  0  0  0  0  0  0  0  0  # atno 7974 bound_to 7965
  154.4012  140.1526  156.3021 H   0  0  0  0  0  0  0  0  0  0  0  0  # atno 8008 bound_to 7997
  155.8691  140.3449  155.5787 H   0  0  0  0  0  0  0  0  0  0  0  0  # atno 8009 bound_to 7997
  155.7794  140.0841  157.2057 H   0  0  0  0  0  0  0  0  0  0  0  0  # atno 8010 bound_to 7997
  139.6195  144.0653  152.1919 H   0  0  0  0  0  0  0  0  0  0  0  0  # atno 10167 bound_to 10162
  157.3517  130.7602  149.6983 H   0  0  0  0  0  0  0  0  0  0  0  0  # atno 10718 bound_to 10713
  154.1711  135.6459  153.5010 H   0  0  0  0  0  0  0  0  0  0  0  0  # atno 10763 bound_to 10752
  153.0084  135.5383  154.6612 H   0  0  0  0  0  0  0  0  0  0  0  0  # atno 10764 bound_to 10752
  154.5951  135.2938  155.0567 H   0  0  0  0  0  0  0  0  0  0  0  0  # atno 10765 bound_to 10752
  140.1225  134.4811  155.8586 H   0  0  0  0  0  0  0  0  0  0  0  0  # atno 11005 bound_to 11000
  146.0565  139.3561  143.0607 LP  0  0  0  0  0  0  0  0  0  0  0  0  # atno 17320 bound_to 7965
  145.8148  140.9708  143.0930 LP  0  0  0  0  0  0  0  0  0  0  0  0  # atno 17321 bound_to 7965
  140.0292  144.6094  150.7502 LP  0  0  0  0  0  0  0  0  0  0  0  0  # atno 17342 bound_to 10162
  140.7372  143.2763  151.3732 LP  0  0  0  0  0  0  0  0  0  0  0  0  # atno 17343 bound_to 10162
  155.9722  130.4138  150.4103 LP  0  0  0  0  0  0  0  0  0  0  0  0  # atno 17370 bound_to 10713
  157.2167  131.0473  151.2569 LP  0  0  0  0  0  0  0  0  0  0  0  0  # atno 17371 bound_to 10713
  141.2154  133.6765  156.6915 LP  0  0  0  0  0  0  0  0  0  0  0  0  # atno 17394 bound_to 11000
  140.2947  134.8212  157.4047 LP  0  0  0  0  0  0  0  0  0  0  0  0  # atno 17395 bound_to 11000

$$$$
