AV-unprocessed.smi:2506|AV-procd|sdf|9862|dock2
  -GOLD-   2272013493D 1   1.00000     0.00000
 Structure written by MMmdl.
 39 40  0  0  0  0  0  0  0  0  2 V2000
  150.4247  138.6826  154.1179 C   0  0  0  0  0  0  0  0  0  0  0  0
  149.3542  139.7603  154.1163 C   0  0  0  0  0  0  0  0  0  0  0  0
  149.7697  140.9915  154.4979 N   0  0  0  0  0  0  0  0  0  0  0  0
  148.8663  141.9852  154.5158 N   0  3  0  0  0  0  0  0  0  0  0  0
  147.5674  141.8089  154.1790 C   0  0  0  0  0  0  0  0  0  0  0  0
  147.1003  140.5435  153.7794 C   0  0  0  0  0  0  0  0  0  0  0  0
  148.0233  139.4747  153.7311 C   0  0  0  0  0  0  0  0  0  0  0  0
  147.6731  138.1465  153.3591 N   0  0  0  0  0  0  0  0  0  0  0  0
  146.5106  137.5038  153.5609 C   0  0  0  0  0  0  0  0  0  0  0  0
  145.5309  137.9748  154.1379 O   0  0  0  0  0  0  0  0  0  0  0  0
  146.5388  136.2756  153.0249 N   0  0  0  0  0  0  0  0  0  0  0  0
  145.4359  135.3166  153.0312 C   0  0  0  0  0  0  0  0  0  0  0  0
  145.2703  134.5816  151.6775 C   0  0  0  0  0  0  0  0  0  0  0  0
  144.9421  135.5829  150.5464 C   0  0  0  0  0  0  0  0  0  0  0  0
  146.5081  133.7411  151.3169 C   0  0  0  0  0  0  0  0  0  0  0  0
  146.0073  132.6189  150.4006 C   0  0  0  0  0  0  0  0  0  0  0  0
  144.5099  132.4610  150.6969 C   0  0  0  0  0  0  0  0  0  0  0  0
  144.1705  133.5093  151.7639 C   0  0  0  0  0  0  0  0  0  0  0  0
  150.5359  138.2570  153.1201 H   0  0  0  0  0  0  0  0  0  0  0  0
  150.1569  137.8818  154.8078 H   0  0  0  0  0  0  0  0  0  0  0  0
  151.3940  139.0792  154.4231 H   0  0  0  0  0  0  0  0  0  0  0  0
  146.9409  142.6863  154.2452 H   0  0  0  0  0  0  0  0  0  0  0  0
  146.0565  140.4188  153.5346 H   0  0  0  0  0  0  0  0  0  0  0  0
  148.3575  137.6572  152.8007 H   0  0  0  0  0  0  0  0  0  0  0  0
  147.3874  135.9782  152.5656 H   0  0  0  0  0  0  0  0  0  0  0  0
  145.6471  134.5964  153.8224 H   0  0  0  0  0  0  0  0  0  0  0  0
  144.4994  135.7996  153.3152 H   0  0  0  0  0  0  0  0  0  0  0  0
  144.7358  135.0788  149.6021 H   0  0  0  0  0  0  0  0  0  0  0  0
  145.7674  136.2712  150.3650 H   0  0  0  0  0  0  0  0  0  0  0  0
  144.0639  136.1802  150.7935 H   0  0  0  0  0  0  0  0  0  0  0  0
  147.3020  134.3291  150.8548 H   0  0  0  0  0  0  0  0  0  0  0  0
  146.9258  133.2936  152.2201 H   0  0  0  0  0  0  0  0  0  0  0  0
  146.1488  132.8961  149.3552 H   0  0  0  0  0  0  0  0  0  0  0  0
  146.5569  131.6922  150.5683 H   0  0  0  0  0  0  0  0  0  0  0  0
  143.9325  132.6438  149.7896 H   0  0  0  0  0  0  0  0  0  0  0  0
  144.2665  131.4546  151.0391 H   0  0  0  0  0  0  0  0  0  0  0  0
  144.1967  133.0268  152.7421 H   0  0  0  0  0  0  0  0  0  0  0  0
  143.1673  133.9190  151.6393 H   0  0  0  0  0  0  0  0  0  0  0  0
  149.1693  142.9167  154.8021 H   0  0  0  0  0  0  0  0  0  0  0  0
  1  2  1  0  0  0  0
  1 19  1  0  0  0  0
  1 20  1  0  0  0  0
  1 21  1  0  0  0  0
  2  7  1  0  0  0  0
  2  3  2  0  0  0  0
  3  4  1  0  0  0  0
  4  5  2  0  0  0  0
  4 39  1  0  0  0  0
  5  6  1  0  0  0  0
  5 22  1  0  0  0  0
  6  7  2  0  0  0  0
  6 23  1  0  0  0  0
  7  8  1  0  0  0  0
  8  9  1  0  0  0  0
  8 24  1  0  0  0  0
  9 10  2  0  0  0  0
  9 11  1  0  0  0  0
 11 12  1  0  0  0  0
 11 25  1  0  0  0  0
 12 13  1  0  0  0  0
 12 26  1  0  0  0  0
 12 27  1  0  0  0  0
 13 18  1  0  0  0  0
 13 14  1  0  0  0  0
 13 15  1  0  0  0  0
 14 28  1  0  0  0  0
 14 29  1  0  0  0  0
 14 30  1  0  0  0  0
 15 16  1  0  0  0  0
 15 31  1  0  0  0  0
 15 32  1  0  0  0  0
 16 17  1  0  0  0  0
 16 33  1  0  0  0  0
 16 34  1  0  0  0  0
 17 18  1  0  0  0  0
 17 35  1  0  0  0  0
 17 36  1  0  0  0  0
 18 37  1  0  0  0  0
 18 38  1  0  0  0  0
M  CHG  1   4   1
M  END
> <s_m_source_file>
AV-unprocessed.smi

> <i_m_source_file_index>
2506

> <i_lp_mmshare_version>
43012

> <i_f3d_flags>
0

> <s_epik_input>
W0NIM11jMW5uW2NIXVtjSF1jMVtOSF1DKD1PKVtOSF1bQ0gyXUMyKFtDSDNdKVtDSDJdW0NIMl1bQ0gyXVtDSDJdMg==

> <s_epik_cmdline>
J2VwaWtfcHl0aG9uJywgJy1waCcsICc3LjAnLCAnLXRuJywgJzgnLCAnLW1hJywgJzIwMCcsICctbWV0YWxfYmluZGluZycsICctaW1hZScsICc8aW5maWxlLm1hZT4nLCAnLW9tYWUnLCAnPG91dGZpbGUubWFlPic=

> <r_lp_tautomer_probability>
0.5088

> <r_epik_Ionization_Penalty>
1.13414

> <r_epik_Ionization_Penalty_Charging>
1.1341

> <r_epik_Ionization_Penalty_Neutral>
4.35135e-05

> <r_epik_State_Penalty>
2.14502

> <r_epik_Charging_Adjusted_Penalty>
3.27912

> <i_epik_Tot_Q>
1

> <i_epik_Tot_abs_Q>
1

> <r_epik_Metal_State_Penalty>
2.23434

> <b_epik_Metal_Only>
0

> <s_lp_Force_Field>
OPLS_2005

> <r_lp_Energy>
34.1821

> <b_lp_Chiralities_Consistent>
1

> <s_lp_Variant>
AV-unprocessed.smi:2506-2

> <Gold.Version>
5.8.1

> <Gold.Id.Protein>
6NUR|6NUR_protein|mol2

> <Gold.PLP.Fitness>
45.1381

> <Gold.PLP.PLP>
-32.4444

> <Gold.PLP.part.hbond>
-4.0000

> <Gold.PLP.part.metal>
0.0000

> <Gold.PLP.part.buried>
-2.2674

> <Gold.PLP.part.nonpolar>
-26.2594

> <Gold.PLP.part.repulsive>
1.3816

> <Gold.PLP.ligand.clash>
0.0000

> <Gold.PLP.ligand.torsion>
0.3535

> <Gold.PLP.Chemscore.Hbond>
4.4619

> <Gold.PLP.Chemscore.CHOScore>
0.0000

> <Gold.PLP.Chemscore.Metal>
0.0000

> <Gold.Chemscore.Hbonds>
donor molecule, donor type, donor heavy atom, donor atom, acceptor molecule, acceptor atom, score
      L1  H     4    39       P1  8028  2.00
      L1  H     8    24       P1  7948  1.00
      L1  H    11    25       P1  7948  1.00
      P1  H  7989  7998       L1     3  0.37

> <Gold.PLP.Chemscore.Internal.Correction>
0.0149

> <Gold.Rescore>
     Score         DG    S(hbond)    S(metal)    S(lipo)     H(rot)  DE(clash)    DE(int)     intcor
     20.26     -21.34       2.97        0.00      77.56       1.22       0.05       1.03       ----

> <Gold.Chemscore.Fitness>
20.2640

> <Gold.Chemscore.DG>
-21.3450

> <Gold.Chemscore.ZeroCoef>
-5.4800

> <Gold.Chemscore.Hbond>
2.9686

> <Gold.Chemscore.Metal>
0.0000

> <Gold.Chemscore.Lipo>
77.5617

> <Gold.Chemscore.Internal_Hbond>
0.0000

> <Gold.Chemscore.DEClash>
0.0504

> <Gold.Chemscore.DEInternal>
1.0305

> <Gold.Chemscore.Rot>
1.2207

> <Gold.Chemscore.Internal.Correction>
   9.000000E+99

> <Gold.Chemscore.Hbonds>
donor molecule, donor type, donor heavy atom, donor atom, acceptor molecule, acceptor atom, score
      L1  H     4    39       P1  8028  0.93
      L1  H     8    24       P1  7948  0.98
      L1  H    11    25       P1  7948  0.98
      P1  H  7989  7998       L1     3  0.05

> <Gold.Chemscore.Hbond.Weighted>
-9.9152

> <Gold.Chemscore.Metal.Weighted>
-0.0000

> <Gold.Chemscore.Lipo.Weighted>
-9.0747

> <Gold.Chemscore.Internal_Hbond.Weighted>
0.0000

> <Gold.Chemscore.DEClash.Weighted>
0.0504

> <Gold.Chemscore.DEInternal.Weighted>
1.0305

> <Gold.Chemscore.Rot.Weighted>
3.1250

> <Gold.Chemscore.Internal.Correction.Weighted>
   9.000000E+99

> <Gold.Protein.RotatedTorsions>
[ 6907 6896 6895 6894 ] final  -57.20 input  -60.11 | X-H torsion
[ 7974 7965 7964 7962 ] final   56.39 input  175.53 | X-H torsion
[ 8008 7997 7996 7995 ] final  -11.77 input   59.86 | X-H torsion
[ 10167 10162 10161 10158 ] final -105.05 input  -65.29 | X-H torsion
[ 10718 10713 10712 10709 ] final  107.61 input   66.30 | X-H torsion
[ 10763 10752 10751 10750 ] final -151.72 input  -60.55 | X-H torsion
[ 11005 11000 10999 10996 ] final   75.16 input  -57.11 | X-H torsion

> <Gold.Protein.ActiveResidues>
 VAL166  LYS551  ARG553  GLY616  TRP617  ASP618  TYR619  PRO620  LYS621  CYS622 
 ASP623  PHE694  ASN695  SER759  ASP760  ASP761  ALA762  ILE779  LEU786  VAL792 
 PHE793  MET794  SER795  GLU796  ALA797  LYS798  CYS799  TRP800  GLU811  SER814 

> <Gold.Protein.RotatedAtoms>
  150.8105  134.7257  159.6683 H   0  0  0  0  0  0  0  0  0  0  0  0  # atno 6907 bound_to 6896
  152.4225  134.5925  159.9988 H   0  0  0  0  0  0  0  0  0  0  0  0  # atno 6908 bound_to 6896
  151.6136  133.3308  159.3109 H   0  0  0  0  0  0  0  0  0  0  0  0  # atno 6909 bound_to 6896
  145.9403  139.3882  143.0368 H   0  0  0  0  0  0  0  0  0  0  0  0  # atno 7974 bound_to 7965
  154.5435  140.2294  155.8601 H   0  0  0  0  0  0  0  0  0  0  0  0  # atno 8008 bound_to 7997
  156.1881  140.3084  155.9240 H   0  0  0  0  0  0  0  0  0  0  0  0  # atno 8009 bound_to 7997
  155.3210  140.0440  157.3030 H   0  0  0  0  0  0  0  0  0  0  0  0  # atno 8010 bound_to 7997
  140.2027  143.3806  152.1116 H   0  0  0  0  0  0  0  0  0  0  0  0  # atno 10167 bound_to 10162
  157.6621  131.0876  150.6182 H   0  0  0  0  0  0  0  0  0  0  0  0  # atno 10718 bound_to 10713
  154.8040  135.3253  154.7479 H   0  0  0  0  0  0  0  0  0  0  0  0  # atno 10763 bound_to 10752
  153.8141  135.6893  153.4841 H   0  0  0  0  0  0  0  0  0  0  0  0  # atno 10764 bound_to 10752
  153.1773  135.4600  154.9926 H   0  0  0  0  0  0  0  0  0  0  0  0  # atno 10765 bound_to 10752
  139.9357  134.7494  156.1237 H   0  0  0  0  0  0  0  0  0  0  0  0  # atno 11005 bound_to 11000
  145.8309  140.9631  143.0850 LP  0  0  0  0  0  0  0  0  0  0  0  0  # atno 17320 bound_to 7965
  144.6778  140.0161  143.7484 LP  0  0  0  0  0  0  0  0  0  0  0  0  # atno 17321 bound_to 7965
  139.5211  144.7041  151.5406 LP  0  0  0  0  0  0  0  0  0  0  0  0  # atno 17342 bound_to 10162
  140.6379  143.8947  150.6664 LP  0  0  0  0  0  0  0  0  0  0  0  0  # atno 17343 bound_to 10162
  156.6485  130.4478  149.5727 LP  0  0  0  0  0  0  0  0  0  0  0  0  # atno 17370 bound_to 10713
  156.2156  130.6705  151.1315 LP  0  0  0  0  0  0  0  0  0  0  0  0  # atno 17371 bound_to 10713
  141.0969  133.6692  156.2665 LP  0  0  0  0  0  0  0  0  0  0  0  0  # atno 17394 bound_to 11000
  140.6083  134.5484  157.5529 LP  0  0  0  0  0  0  0  0  0  0  0  0  # atno 17395 bound_to 11000

$$$$
