AV-unprocessed.smi:752|AV-procd|sdf|3597|dock3
  -GOLD-   22720 0593D 1   1.00000     0.00000
 Structure written by MMmdl.
 41 42  0  0  0  0  0  0  0  0  1 V2000
  151.2402  145.6444  159.1948 C   0  0  0  0  0  0  0  0  0  0  0  0
  151.7520  144.7002  158.1019 C   0  0  0  0  0  0  0  0  0  0  0  0
  151.9888  143.3159  158.6051 C   0  0  0  0  0  0  0  0  0  0  0  0
  151.3547  142.2412  158.1294 N   0  0  0  0  0  0  0  0  0  0  0  0
  151.7409  141.0584  158.7703 C   0  0  0  0  0  0  0  0  0  0  0  0
  151.1729  139.7415  158.3239 C   0  0  0  0  0  0  0  0  0  0  0  0
  151.5670  139.4948  156.8676 C   0  0  0  0  0  0  0  0  0  0  0  0
  152.7549  139.4552  156.5480 O   0  0  0  0  0  0  0  0  0  0  0  0
  150.5544  139.3805  155.9939 N   0  0  0  0  0  0  0  0  0  0  0  0
  150.6802  139.3789  154.5406 C   0  0  0  0  0  0  0  0  0  0  0  0
  149.4393  140.0090  153.8735 C   0  0  2  0  0  0  0  0  0  0  0  0
  149.0288  141.3115  154.5900 C   0  0  0  0  0  0  0  0  0  0  0  0
  147.8080  141.9687  153.9247 C   0  0  0  0  0  0  0  0  0  0  0  0
  146.6208  140.9964  153.8527 C   0  0  0  0  0  0  0  0  0  0  0  0
  147.0186  139.6986  153.1311 C   0  0  2  0  0  0  0  0  0  0  0  0
  145.9313  138.7980  153.1436 O   0  0  0  0  0  0  0  0  0  0  0  0
  148.2356  139.0407  153.8033 C   0  0  0  0  0  0  0  0  0  0  0  0
  152.6604  141.2623  159.7695 C   0  0  0  0  0  0  0  0  0  0  0  0
  153.0883  142.9434  159.9275 S   0  0  0  0  0  0  0  0  0  0  0  0
  151.0769  146.6462  158.7976 H   0  0  0  0  0  0  0  0  0  0  0  0
  151.9559  145.7228  160.0135 H   0  0  0  0  0  0  0  0  0  0  0  0
  150.2951  145.2912  159.6081 H   0  0  0  0  0  0  0  0  0  0  0  0
  151.0368  144.6588  157.2795 H   0  0  0  0  0  0  0  0  0  0  0  0
  152.6836  145.0842  157.6855 H   0  0  0  0  0  0  0  0  0  0  0  0
  151.5481  138.9274  158.9451 H   0  0  0  0  0  0  0  0  0  0  0  0
  150.0861  139.7297  158.4178 H   0  0  0  0  0  0  0  0  0  0  0  0
  149.6153  139.4150  156.3635 H   0  0  0  0  0  0  0  0  0  0  0  0
  151.5863  139.8935  154.2165 H   0  0  0  0  0  0  0  0  0  0  0  0
  150.7863  138.3424  154.2193 H   0  0  0  0  0  0  0  0  0  0  0  0
  149.7143  140.2689  152.8500 H   0  0  0  0  0  0  0  0  0  0  0  0
  148.8019  141.1005  155.6357 H   0  0  0  0  0  0  0  0  0  0  0  0
  149.8624  142.0146  154.5919 H   0  0  0  0  0  0  0  0  0  0  0  0
  147.5213  142.8639  154.4770 H   0  0  0  0  0  0  0  0  0  0  0  0
  148.0728  142.2978  152.9191 H   0  0  0  0  0  0  0  0  0  0  0  0
  146.2772  140.7691  154.8630 H   0  0  0  0  0  0  0  0  0  0  0  0
  145.7840  141.4715  153.3392 H   0  0  0  0  0  0  0  0  0  0  0  0
  147.2573  139.9206  152.0901 H   0  0  0  0  0  0  0  0  0  0  0  0
  145.1310  139.2924  153.0539 H   0  0  0  0  0  0  0  0  0  0  0  0
  148.4997  138.1420  153.2460 H   0  0  0  0  0  0  0  0  0  0  0  0
  147.9725  138.7131  154.8104 H   0  0  0  0  0  0  0  0  0  0  0  0
  153.1194  140.5250  160.4116 H   0  0  0  0  0  0  0  0  0  0  0  0
  1  2  1  0  0  0  0
  1 20  1  0  0  0  0
  1 21  1  0  0  0  0
  1 22  1  0  0  0  0
  2  3  1  0  0  0  0
  2 23  1  0  0  0  0
  2 24  1  0  0  0  0
  3 19  1  0  0  0  0
  3  4  2  0  0  0  0
  4  5  1  0  0  0  0
  5  6  1  0  0  0  0
  5 18  2  0  0  0  0
  6  7  1  0  0  0  0
  6 25  1  0  0  0  0
  6 26  1  0  0  0  0
  7  8  2  0  0  0  0
  7  9  1  0  0  0  0
  9 10  1  0  0  0  0
  9 27  1  0  0  0  0
 10 11  1  0  0  0  0
 10 28  1  0  0  0  0
 10 29  1  0  0  0  0
 11 17  1  0  0  0  0
 11 12  1  0  0  0  0
 11 30  1  0  0  0  0
 12 13  1  0  0  0  0
 12 31  1  0  0  0  0
 12 32  1  0  0  0  0
 13 14  1  0  0  0  0
 13 33  1  0  0  0  0
 13 34  1  0  0  0  0
 14 15  1  0  0  0  0
 14 35  1  0  0  0  0
 14 36  1  0  0  0  0
 15 16  1  0  0  0  0
 15 17  1  0  0  0  0
 15 37  1  0  0  0  0
 16 38  1  0  0  0  0
 17 39  1  0  0  0  0
 17 40  1  0  0  0  0
 18 19  1  0  0  0  0
 18 41  1  0  0  0  0
M  END
> <s_m_source_file>
AV-unprocessed.smi

> <i_m_source_file_index>
752

> <i_lp_mmshare_version>
43012

> <i_f3d_flags>
0

> <s_epik_input>
W0NIM11bQ0gyXWMxbmMoW2NIXXMxKVtDSDJdQyg9TylbTkhdW0NIMl1bQ0BASF0yW0NIMl1bQ0gyXVtDSDJdW0NAQEhdKFtPSF0pW0NIMl0y

> <s_epik_cmdline>
J2VwaWtfcHl0aG9uJywgJy1waCcsICc3LjAnLCAnLXRuJywgJzgnLCAnLW1hJywgJzIwMCcsICctbWV0YWxfYmluZGluZycsICctaW1hZScsICc8aW5maWxlLm1hZT4nLCAnLW9tYWUnLCAnPG91dGZpbGUubWFlPic=

> <r_lp_tautomer_probability>
1

> <r_epik_Ionization_Penalty>
5.44903e-05

> <r_epik_Ionization_Penalty_Charging>
0

> <r_epik_Ionization_Penalty_Neutral>
5.44903e-05

> <r_epik_State_Penalty>
-0

> <r_epik_Charging_Adjusted_Penalty>
0

> <i_epik_Tot_Q>
0

> <i_epik_Tot_abs_Q>
0

> <r_epik_Metal_State_Penalty>
-0

> <b_epik_Metal_Only>
0

> <s_lp_Force_Field>
OPLS_2005

> <r_lp_Energy>
2.70877

> <b_lp_Chiralities_Consistent>
1

> <s_lp_Variant>
AV-unprocessed.smi:752-3

> <Gold.Version>
5.8.1

> <Gold.Id.Protein>
6NUR|6NUR_protein|mol2

> <Gold.PLP.Fitness>
48.1158

> <Gold.PLP.PLP>
-42.7479

> <Gold.PLP.part.hbond>
-2.0000

> <Gold.PLP.part.metal>
0.0000

> <Gold.PLP.part.buried>
-1.3502

> <Gold.PLP.part.nonpolar>
-39.6001

> <Gold.PLP.part.repulsive>
0.0609

> <Gold.PLP.ligand.clash>
0.0000

> <Gold.PLP.ligand.torsion>
0.3359

> <Gold.PLP.Chemscore.Hbond>
2.0000

> <Gold.PLP.Chemscore.CHOScore>
0.0000

> <Gold.PLP.Chemscore.Metal>
0.0000

> <Gold.Chemscore.Hbonds>
donor molecule, donor type, donor heavy atom, donor atom, acceptor molecule, acceptor atom, score
      L1  H    16    38       P1 10175  1.00
      P1  H  7997  8009       L1     8  1.00

> <Gold.PLP.Chemscore.Internal.Correction>
0.0396

> <Gold.Rescore>
     Score         DG    S(hbond)    S(metal)    S(lipo)     H(rot)  DE(clash)    DE(int)     intcor
     19.84     -20.81       1.99        0.00     119.70       2.08       0.44       0.53       ----

> <Gold.Chemscore.Fitness>
19.8419

> <Gold.Chemscore.DG>
-20.8123

> <Gold.Chemscore.ZeroCoef>
-5.4800

> <Gold.Chemscore.Hbond>
1.9946

> <Gold.Chemscore.Metal>
0.0000

> <Gold.Chemscore.Lipo>
119.7021

> <Gold.Chemscore.Internal_Hbond>
0.0000

> <Gold.Chemscore.DEClash>
0.4370

> <Gold.Chemscore.DEInternal>
0.5334

> <Gold.Chemscore.Rot>
2.0840

> <Gold.Chemscore.Internal.Correction>
   9.000000E+99

> <Gold.Chemscore.Hbonds>
donor molecule, donor type, donor heavy atom, donor atom, acceptor molecule, acceptor atom, score
      L1  H    16    38       P1 10175  0.99
      P1  H  7997  8009       L1     8  0.98

> <Gold.Chemscore.Hbond.Weighted>
-6.6621

> <Gold.Chemscore.Metal.Weighted>
-0.0000

> <Gold.Chemscore.Lipo.Weighted>
-14.0052

> <Gold.Chemscore.Internal_Hbond.Weighted>
0.0000

> <Gold.Chemscore.DEClash.Weighted>
0.4370

> <Gold.Chemscore.DEInternal.Weighted>
0.5334

> <Gold.Chemscore.Rot.Weighted>
5.3350

> <Gold.Chemscore.Internal.Correction.Weighted>
   9.000000E+99

> <Gold.Protein.RotatedTorsions>
[ 6907 6896 6895 6894 ] final  102.85 input  -60.11 | X-H torsion
[ 7974 7965 7964 7962 ] final   87.65 input  175.53 | X-H torsion
[ 8008 7997 7996 7995 ] final -152.44 input   59.86 | X-H torsion
[ 10167 10162 10161 10158 ] final    8.24 input  -65.29 | X-H torsion
[ 10718 10713 10712 10709 ] final   87.87 input   66.30 | X-H torsion
[ 10763 10752 10751 10750 ] final  164.11 input  -60.55 | X-H torsion
[ 11005 11000 10999 10996 ] final -134.66 input  -57.11 | X-H torsion

> <Gold.Protein.ActiveResidues>
 VAL166  LYS551  ARG553  GLY616  TRP617  ASP618  TYR619  PRO620  LYS621  CYS622 
 ASP623  PHE694  ASN695  SER759  ASP760  ASP761  ALA762  ILE779  LEU786  VAL792 
 PHE793  MET794  SER795  GLU796  ALA797  LYS798  CYS799  TRP800  GLU811  SER814 

> <Gold.Protein.RotatedAtoms>
  152.5312  133.9914  159.7852 H   0  0  0  0  0  0  0  0  0  0  0  0  # atno 6907 bound_to 6896
  151.0149  133.5922  159.2685 H   0  0  0  0  0  0  0  0  0  0  0  0  # atno 6908 bound_to 6896
  151.2983  135.0768  159.9282 H   0  0  0  0  0  0  0  0  0  0  0  0  # atno 6909 bound_to 6896
  145.5562  139.2300  143.2485 H   0  0  0  0  0  0  0  0  0  0  0  0  # atno 7974 bound_to 7965
  155.6552  140.0716  157.2573 H   0  0  0  0  0  0  0  0  0  0  0  0  # atno 8008 bound_to 7997
  154.4154  140.1726  156.1767 H   0  0  0  0  0  0  0  0  0  0  0  0  # atno 8009 bound_to 7997
  155.9743  140.3359  155.6608 H   0  0  0  0  0  0  0  0  0  0  0  0  # atno 8010 bound_to 7997
  140.6325  143.7960  150.7315 H   0  0  0  0  0  0  0  0  0  0  0  0  # atno 10167 bound_to 10162
  157.6944  131.0272  150.3188 H   0  0  0  0  0  0  0  0  0  0  0  0  # atno 10718 bound_to 10713
  154.3040  135.2758  155.2598 H   0  0  0  0  0  0  0  0  0  0  0  0  # atno 10763 bound_to 10752
  154.5022  135.5805  153.6543 H   0  0  0  0  0  0  0  0  0  0  0  0  # atno 10764 bound_to 10752
  152.9897  135.6160  154.3212 H   0  0  0  0  0  0  0  0  0  0  0  0  # atno 10765 bound_to 10752
  140.8970  134.1739  157.4488 H   0  0  0  0  0  0  0  0  0  0  0  0  # atno 11005 bound_to 11000
  146.1882  140.6386  142.9157 LP  0  0  0  0  0  0  0  0  0  0  0  0  # atno 17320 bound_to 7965
  144.7505  140.5178  143.6805 LP  0  0  0  0  0  0  0  0  0  0  0  0  # atno 17321 bound_to 7965
  140.1574  143.4304  152.2090 LP  0  0  0  0  0  0  0  0  0  0  0  0  # atno 17342 bound_to 10162
  139.5538  144.7358  151.4354 LP  0  0  0  0  0  0  0  0  0  0  0  0  # atno 17343 bound_to 10162
  156.3678  130.3858  149.7199 LP  0  0  0  0  0  0  0  0  0  0  0  0  # atno 17370 bound_to 10713
  156.4624  130.7958  151.2978 LP  0  0  0  0  0  0  0  0  0  0  0  0  # atno 17371 bound_to 10713
  139.8737  134.9882  156.5402 LP  0  0  0  0  0  0  0  0  0  0  0  0  # atno 17394 bound_to 11000
  140.8277  133.8303  155.8955 LP  0  0  0  0  0  0  0  0  0  0  0  0  # atno 17395 bound_to 11000

$$$$
