AV-unprocessed.smi:1244|AV-procd|sdf|5222|dock4
  -GOLD-   22720 4323D 1   1.00000     0.00000
 Structure written by MMmdl.
 54 56  0  0  0  0  0  0  0  0  1 V2000
  147.4002  141.4854  155.0038 C   0  0  0  0  0  0  0  0  0  0  0  0
  148.9126  141.2520  155.0800 C   0  0  2  0  0  0  0  0  0  0  0  0
  149.3101  139.8412  154.6041 C   0  0  0  0  0  0  0  0  0  0  0  0
  150.7419  139.5944  154.7591 N   0  0  0  0  0  0  0  0  0  0  0  0
  151.1311  138.2518  154.3316 C   0  0  0  0  0  0  0  0  0  0  0  0
  150.6539  137.1153  155.2556 C   0  0  0  0  0  0  0  0  0  0  0  0
  149.7581  136.1987  154.5609 N   0  0  0  0  0  0  0  0  0  0  0  0
  149.0995  135.1828  155.1359 C   0  0  0  0  0  0  0  0  0  0  0  0
  149.1654  134.9202  156.3369 O   0  0  0  0  0  0  0  0  0  0  0  0
  148.3882  134.4896  154.2316 N   0  0  0  0  0  0  0  0  0  0  0  0
  147.5984  133.3265  154.4523 C   0  0  0  0  0  0  0  0  0  0  0  0
  147.6818  132.5819  155.6536 C   0  0  0  0  0  0  0  0  0  0  0  0
  146.8475  131.4637  155.8275 C   0  0  0  0  0  0  0  0  0  0  0  0
  145.9505  131.1347  154.7966 C   0  0  0  0  0  0  0  0  0  0  0  0
  145.8494  131.8423  153.6532 N   0  0  0  0  0  0  0  0  0  0  0  0
  146.6468  132.9243  153.4757 C   0  0  0  0  0  0  0  0  0  0  0  0
  146.5417  133.6235  152.2539 N   0  0  0  0  0  0  0  0  0  0  0  0
  146.0392  132.8035  151.1533 C   0  0  0  0  0  0  0  0  0  0  0  0
  145.1073  133.6975  150.3317 C   0  0  0  0  0  0  0  0  0  0  0  0
  144.6304  134.7282  151.3470 C   0  0  0  0  0  0  0  0  0  0  0  0
  145.8679  134.9210  152.2206 C   0  0  0  0  0  0  0  0  0  0  0  0
  151.1135  139.8276  156.1501 C   0  0  0  0  0  0  0  0  0  0  0  0
  150.7234  141.2409  156.6233 C   0  0  2  0  0  0  0  0  0  0  0  0
  151.0426  141.4666  158.1046 C   0  0  0  0  0  0  0  0  0  0  0  0
  149.3232  141.4228  156.4337 O   0  0  0  0  0  0  0  0  0  0  0  0
  147.0384  141.3817  153.9806 H   0  0  0  0  0  0  0  0  0  0  0  0
  147.1432  142.4878  155.3473 H   0  0  0  0  0  0  0  0  0  0  0  0
  146.8589  140.7718  155.6254 H   0  0  0  0  0  0  0  0  0  0  0  0
  149.4135  141.9993  154.4623 H   0  0  0  0  0  0  0  0  0  0  0  0
  148.7448  139.0956  155.1654 H   0  0  0  0  0  0  0  0  0  0  0  0
  149.0196  139.7329  153.5598 H   0  0  0  0  0  0  0  0  0  0  0  0
  150.7174  138.0714  153.3385 H   0  0  0  0  0  0  0  0  0  0  0  0
  152.2150  138.2009  154.2166 H   0  0  0  0  0  0  0  0  0  0  0  0
  151.4978  136.5285  155.6164 H   0  0  0  0  0  0  0  0  0  0  0  0
  150.1569  137.5240  156.1371 H   0  0  0  0  0  0  0  0  0  0  0  0
  149.6446  136.3384  153.5676 H   0  0  0  0  0  0  0  0  0  0  0  0
  148.5116  134.7536  153.2650 H   0  0  0  0  0  0  0  0  0  0  0  0
  148.3588  132.8605  156.4469 H   0  0  0  0  0  0  0  0  0  0  0  0
  146.8902  130.8763  156.7327 H   0  0  0  0  0  0  0  0  0  0  0  0
  145.2930  130.2836  154.8939 H   0  0  0  0  0  0  0  0  0  0  0  0
  146.8577  132.4193  150.5440 H   0  0  0  0  0  0  0  0  0  0  0  0
  145.4849  131.9475  151.5428 H   0  0  0  0  0  0  0  0  0  0  0  0
  145.6719  134.1943  149.5415 H   0  0  0  0  0  0  0  0  0  0  0  0
  144.2906  133.1447  149.8670 H   0  0  0  0  0  0  0  0  0  0  0  0
  144.2840  135.6545  150.8881 H   0  0  0  0  0  0  0  0  0  0  0  0
  143.8147  134.3158  151.9426 H   0  0  0  0  0  0  0  0  0  0  0  0
  145.6147  135.3269  153.2000 H   0  0  0  0  0  0  0  0  0  0  0  0
  146.5457  135.6340  151.7506 H   0  0  0  0  0  0  0  0  0  0  0  0
  150.6331  139.0847  156.7891 H   0  0  0  0  0  0  0  0  0  0  0  0
  152.1892  139.6928  156.2709 H   0  0  0  0  0  0  0  0  0  0  0  0
  151.2600  141.9853  156.0323 H   0  0  0  0  0  0  0  0  0  0  0  0
  152.1090  141.3491  158.2981 H   0  0  0  0  0  0  0  0  0  0  0  0
  150.5065  140.7580  158.7365 H   0  0  0  0  0  0  0  0  0  0  0  0
  150.7572  142.4720  158.4151 H   0  0  0  0  0  0  0  0  0  0  0  0
  1  2  1  0  0  0  0
  1 26  1  0  0  0  0
  1 27  1  0  0  0  0
  1 28  1  0  0  0  0
  2 25  1  0  0  0  0
  2  3  1  0  0  0  0
  2 29  1  0  0  0  0
  3  4  1  0  0  0  0
  3 30  1  0  0  0  0
  3 31  1  0  0  0  0
  4  5  1  0  0  0  0
  4 22  1  0  0  0  0
  5  6  1  0  0  0  0
  5 32  1  0  0  0  0
  5 33  1  0  0  0  0
  6  7  1  0  0  0  0
  6 34  1  0  0  0  0
  6 35  1  0  0  0  0
  7  8  1  0  0  0  0
  7 36  1  0  0  0  0
  8  9  2  0  0  0  0
  8 10  1  0  0  0  0
 10 11  1  0  0  0  0
 10 37  1  0  0  0  0
 11 16  1  0  0  0  0
 11 12  2  0  0  0  0
 12 13  1  0  0  0  0
 12 38  1  0  0  0  0
 13 14  2  0  0  0  0
 13 39  1  0  0  0  0
 14 15  1  0  0  0  0
 14 40  1  0  0  0  0
 15 16  2  0  0  0  0
 16 17  1  0  0  0  0
 17 21  1  0  0  0  0
 17 18  1  0  0  0  0
 18 19  1  0  0  0  0
 18 41  1  0  0  0  0
 18 42  1  0  0  0  0
 19 20  1  0  0  0  0
 19 43  1  0  0  0  0
 19 44  1  0  0  0  0
 20 21  1  0  0  0  0
 20 45  1  0  0  0  0
 20 46  1  0  0  0  0
 21 47  1  0  0  0  0
 21 48  1  0  0  0  0
 22 23  1  0  0  0  0
 22 49  1  0  0  0  0
 22 50  1  0  0  0  0
 23 24  1  0  0  0  0
 23 25  1  0  0  0  0
 23 51  1  0  0  0  0
 24 52  1  0  0  0  0
 24 53  1  0  0  0  0
 24 54  1  0  0  0  0
M  END
> <s_m_source_file>
AV-unprocessed.smi

> <i_m_source_file_index>
1244

> <i_lp_mmshare_version>
43012

> <i_f3d_flags>
0

> <s_epik_input>
W0NIM11bQ0BASF0xW0NIMl1OKFtDSDJdW0NASF0oTzEpW0NIM10pW0NIMl1bQ0gyXVtOSF1DKD1PKVtOSF1jMltjSF1bY0hdW2NIXW5jMk4zW0NIMl1bQ0gyXVtDSDJdW0NIMl0z

> <s_epik_cmdline>
J2VwaWtfcHl0aG9uJywgJy1waCcsICc3LjAnLCAnLXRuJywgJzgnLCAnLW1hJywgJzIwMCcsICctbWV0YWxfYmluZGluZycsICctaW1hZScsICc8aW5maWxlLm1hZT4nLCAnLW9tYWUnLCAnPG91dGZpbGUubWFlPic=

> <r_lp_tautomer_probability>
1

> <r_epik_Ionization_Penalty>
0.363951

> <r_epik_Ionization_Penalty_Charging>
0

> <r_epik_Ionization_Penalty_Neutral>
0.363951

> <r_epik_State_Penalty>
0.349372

> <r_epik_Charging_Adjusted_Penalty>
0.349372

> <i_epik_Tot_Q>
0

> <i_epik_Tot_abs_Q>
0

> <r_epik_Metal_State_Penalty>
0.333054

> <b_epik_Metal_Only>
0

> <s_lp_Force_Field>
OPLS_2005

> <r_lp_Energy>
48.0273

> <b_lp_Chiralities_Consistent>
1

> <s_lp_Variant>
AV-unprocessed.smi:1244-2

> <Gold.Version>
5.8.1

> <Gold.Id.Protein>
6NUR|6NUR_protein|mol2

> <Gold.PLP.Fitness>
46.4787

> <Gold.PLP.PLP>
-36.7825

> <Gold.PLP.part.hbond>
-3.5915

> <Gold.PLP.part.metal>
0.0000

> <Gold.PLP.part.buried>
-4.9252

> <Gold.PLP.part.nonpolar>
-28.5113

> <Gold.PLP.part.repulsive>
0.5807

> <Gold.PLP.ligand.clash>
0.0000

> <Gold.PLP.ligand.torsion>
1.0376

> <Gold.PLP.Chemscore.Hbond>
2.8760

> <Gold.PLP.Chemscore.CHOScore>
1.0000

> <Gold.PLP.Chemscore.Metal>
0.0000

> <Gold.Chemscore.Hbonds>
donor molecule, donor type, donor heavy atom, donor atom, acceptor molecule, acceptor atom, score
      L1  H     7    36       P1  7948  1.00
      L1  H    10    37       P1  7948  0.95
      P1  H  7989  7998       L1     4  1.00
      L1  C    14    40       P1 10956  1.00

> <Gold.PLP.Chemscore.Internal.Correction>
0.1432

> <Gold.Rescore>
     Score         DG    S(hbond)    S(metal)    S(lipo)     H(rot)  DE(clash)    DE(int)     intcor
     14.06     -16.59       1.76        0.00      78.63       1.55       0.03       2.50       ----

> <Gold.Chemscore.Fitness>
14.0591

> <Gold.Chemscore.DG>
-16.5903

> <Gold.Chemscore.ZeroCoef>
-5.4800

> <Gold.Chemscore.Hbond>
1.7584

> <Gold.Chemscore.Metal>
0.0000

> <Gold.Chemscore.Lipo>
78.6336

> <Gold.Chemscore.Internal_Hbond>
0.0000

> <Gold.Chemscore.DEClash>
0.0309

> <Gold.Chemscore.DEInternal>
2.5003

> <Gold.Chemscore.Rot>
1.5479

> <Gold.Chemscore.Internal.Correction>
   9.000000E+99

> <Gold.Chemscore.Hbonds>
donor molecule, donor type, donor heavy atom, donor atom, acceptor molecule, acceptor atom, score
      L1  H     7    36       P1  7948  0.45
      L1  H    10    37       P1  7948  0.47
      P1  H  7989  7998       L1     4  0.23

> <Gold.Chemscore.Hbond.Weighted>
-5.8729

> <Gold.Chemscore.Metal.Weighted>
-0.0000

> <Gold.Chemscore.Lipo.Weighted>
-9.2001

> <Gold.Chemscore.Internal_Hbond.Weighted>
0.0000

> <Gold.Chemscore.DEClash.Weighted>
0.0309

> <Gold.Chemscore.DEInternal.Weighted>
2.5003

> <Gold.Chemscore.Rot.Weighted>
3.9627

> <Gold.Chemscore.Internal.Correction.Weighted>
   9.000000E+99

> <Gold.Protein.RotatedTorsions>
[ 6907 6896 6895 6894 ] final  160.70 input  -60.11 | X-H torsion
[ 7974 7965 7964 7962 ] final -138.40 input  175.53 | X-H torsion
[ 8008 7997 7996 7995 ] final   80.64 input   59.86 | X-H torsion
[ 10167 10162 10161 10158 ] final   38.68 input  -65.29 | X-H torsion
[ 10718 10713 10712 10709 ] final   -9.03 input   66.30 | X-H torsion
[ 10763 10752 10751 10750 ] final  112.88 input  -60.55 | X-H torsion
[ 11005 11000 10999 10996 ] final -157.51 input  -57.11 | X-H torsion

> <Gold.Protein.ActiveResidues>
 VAL166  LYS551  ARG553  GLY616  TRP617  ASP618  TYR619  PRO620  LYS621  CYS622 
 ASP623  PHE694  ASN695  SER759  ASP760  ASP761  ALA762  ILE779  LEU786  VAL792 
 PHE793  MET794  SER795  GLU796  ALA797  LYS798  CYS799  TRP800  GLU811  SER814 

> <Gold.Protein.RotatedAtoms>
  151.9667  133.3712  159.4055 H   0  0  0  0  0  0  0  0  0  0  0  0  # atno 6907 bound_to 6896
  150.6955  134.4183  159.5202 H   0  0  0  0  0  0  0  0  0  0  0  0  # atno 6908 bound_to 6896
  152.1881  134.8696  160.0571 H   0  0  0  0  0  0  0  0  0  0  0  0  # atno 6909 bound_to 6896
  144.8762  140.6440  143.5235 H   0  0  0  0  0  0  0  0  0  0  0  0  # atno 7974 bound_to 7965
  155.8863  140.3441  155.5923 H   0  0  0  0  0  0  0  0  0  0  0  0  # atno 8008 bound_to 7997
  155.7662  140.0839  157.2149 H   0  0  0  0  0  0  0  0  0  0  0  0  # atno 8009 bound_to 7997
  154.4029  140.1526  156.2877 H   0  0  0  0  0  0  0  0  0  0  0  0  # atno 8010 bound_to 7997
  140.3913  144.1848  150.6131 H   0  0  0  0  0  0  0  0  0  0  0  0  # atno 10167 bound_to 10162
  156.6939  130.5073  149.5936 H   0  0  0  0  0  0  0  0  0  0  0  0  # atno 10718 bound_to 10713
  153.4843  135.3672  155.2458 H   0  0  0  0  0  0  0  0  0  0  0  0  # atno 10763 bound_to 10752
  154.8754  135.3962  154.3663 H   0  0  0  0  0  0  0  0  0  0  0  0  # atno 10764 bound_to 10752
  153.4272  135.7081  153.6320 H   0  0  0  0  0  0  0  0  0  0  0  0  # atno 10765 bound_to 10752
  140.6638  134.4321  157.5234 H   0  0  0  0  0  0  0  0  0  0  0  0  # atno 11005 bound_to 11000
  145.4039  139.1592  143.4162 LP  0  0  0  0  0  0  0  0  0  0  0  0  # atno 17320 bound_to 7965
  146.2964  140.4138  142.8720 LP  0  0  0  0  0  0  0  0  0  0  0  0  # atno 17321 bound_to 7965
  140.4836  143.2370  151.8919 LP  0  0  0  0  0  0  0  0  0  0  0  0  # atno 17342 bound_to 10162
  139.4789  144.5242  151.8758 LP  0  0  0  0  0  0  0  0  0  0  0  0  # atno 17343 bound_to 10162
  156.1777  130.6479  151.0914 LP  0  0  0  0  0  0  0  0  0  0  0  0  # atno 17370 bound_to 10713
  157.6998  131.0780  150.6855 LP  0  0  0  0  0  0  0  0  0  0  0  0  # atno 17371 bound_to 10713
  139.9004  134.8569  156.1921 LP  0  0  0  0  0  0  0  0  0  0  0  0  # atno 17394 bound_to 11000
  141.0445  133.6920  156.1658 LP  0  0  0  0  0  0  0  0  0  0  0  0  # atno 17395 bound_to 11000

$$$$
