AV-unprocessed.smi:1303|AV-procd|sdf|5428|dock8
  -GOLD-   22720 4583D 1   1.00000     0.00000
 Structure written by MMmdl.
 40 41  0  0  0  0  0  0  0  0  1 V2000
  149.1586  134.5817  154.7543 C   0  0  0  0  0  0  0  0  0  0  0  0
  147.9413  135.4780  155.0361 C   0  0  0  0  0  0  0  0  0  0  0  0
  146.8663  135.3200  153.9480 C   0  0  0  0  0  0  0  0  0  0  0  0
  148.3617  136.9475  155.1649 C   0  0  0  0  0  0  0  0  0  0  0  0
  148.2118  137.5454  156.2311 O   0  0  0  0  0  0  0  0  0  0  0  0
  148.9011  137.5144  154.0746 N   0  0  0  0  0  0  0  0  0  0  0  0
  149.4197  138.8776  154.0124 C   0  0  0  0  0  0  0  0  0  0  0  0
  150.6643  139.1193  154.8573 C   0  0  0  0  0  0  0  0  0  0  0  0
  151.8241  138.3538  154.6280 C   0  0  0  0  0  0  0  0  0  0  0  0
  152.9570  138.5963  155.4265 C   0  0  0  0  0  0  0  0  0  0  0  0
  152.9897  139.5279  156.4018 N   0  0  0  0  0  0  0  0  0  0  0  0
  151.8810  140.2733  156.6333 C   0  0  0  0  0  0  0  0  0  0  0  0
  151.9302  141.2530  157.6485 N   0  0  0  0  0  0  0  0  0  0  0  0
  150.8338  142.2168  157.7242 C   0  0  0  0  0  0  0  0  0  0  0  0
  151.1906  143.3592  158.6901 C   0  0  0  0  0  0  0  0  0  0  0  0
  151.5374  142.8214  159.9618 O   0  0  0  0  0  0  0  0  0  0  0  0
  152.6759  141.9700  159.8838 C   0  0  0  0  0  0  0  0  0  0  0  0
  152.3744  140.7795  158.9575 C   0  0  0  0  0  0  0  0  0  0  0  0
  150.6933  140.0864  155.8872 C   0  0  0  0  0  0  0  0  0  0  0  0
  149.9283  134.7059  155.5170 H   0  0  0  0  0  0  0  0  0  0  0  0
  149.6083  134.8072  153.7865 H   0  0  0  0  0  0  0  0  0  0  0  0
  148.8731  133.5296  154.7472 H   0  0  0  0  0  0  0  0  0  0  0  0
  147.5067  135.1611  155.9858 H   0  0  0  0  0  0  0  0  0  0  0  0
  146.0061  135.9620  154.1436 H   0  0  0  0  0  0  0  0  0  0  0  0
  146.5036  134.2928  153.9056 H   0  0  0  0  0  0  0  0  0  0  0  0
  147.2535  135.5742  152.9604 H   0  0  0  0  0  0  0  0  0  0  0  0
  148.9877  136.9538  153.2394 H   0  0  0  0  0  0  0  0  0  0  0  0
  149.6636  139.1013  152.9740 H   0  0  0  0  0  0  0  0  0  0  0  0
  148.6362  139.5792  154.3041 H   0  0  0  0  0  0  0  0  0  0  0  0
  151.8486  137.5975  153.8573 H   0  0  0  0  0  0  0  0  0  0  0  0
  153.8630  138.0278  155.2767 H   0  0  0  0  0  0  0  0  0  0  0  0
  150.6258  142.6302  156.7367 H   0  0  0  0  0  0  0  0  0  0  0  0
  149.9295  141.7101  158.0639 H   0  0  0  0  0  0  0  0  0  0  0  0
  152.0149  143.9570  158.2981 H   0  0  0  0  0  0  0  0  0  0  0  0
  150.3394  144.0300  158.8080 H   0  0  0  0  0  0  0  0  0  0  0  0
  153.5402  142.5319  159.5257 H   0  0  0  0  0  0  0  0  0  0  0  0
  152.9211  141.6131  160.8840 H   0  0  0  0  0  0  0  0  0  0  0  0
  151.5889  140.1598  159.3918 H   0  0  0  0  0  0  0  0  0  0  0  0
  153.2639  140.1557  158.8832 H   0  0  0  0  0  0  0  0  0  0  0  0
  149.8122  140.6707  156.1058 H   0  0  0  0  0  0  0  0  0  0  0  0
  1  2  1  0  0  0  0
  1 20  1  0  0  0  0
  1 21  1  0  0  0  0
  1 22  1  0  0  0  0
  2  3  1  0  0  0  0
  2  4  1  0  0  0  0
  2 23  1  0  0  0  0
  3 24  1  0  0  0  0
  3 25  1  0  0  0  0
  3 26  1  0  0  0  0
  4  5  2  0  0  0  0
  4  6  1  0  0  0  0
  6  7  1  0  0  0  0
  6 27  1  0  0  0  0
  7  8  1  0  0  0  0
  7 28  1  0  0  0  0
  7 29  1  0  0  0  0
  8 19  1  0  0  0  0
  8  9  2  0  0  0  0
  9 10  1  0  0  0  0
  9 30  1  0  0  0  0
 10 11  2  0  0  0  0
 10 31  1  0  0  0  0
 11 12  1  0  0  0  0
 12 13  1  0  0  0  0
 12 19  2  0  0  0  0
 13 18  1  0  0  0  0
 13 14  1  0  0  0  0
 14 15  1  0  0  0  0
 14 32  1  0  0  0  0
 14 33  1  0  0  0  0
 15 16  1  0  0  0  0
 15 34  1  0  0  0  0
 15 35  1  0  0  0  0
 16 17  1  0  0  0  0
 17 18  1  0  0  0  0
 17 36  1  0  0  0  0
 17 37  1  0  0  0  0
 18 38  1  0  0  0  0
 18 39  1  0  0  0  0
 19 40  1  0  0  0  0
M  END
> <s_m_source_file>
AV-unprocessed.smi

> <i_m_source_file_index>
1303

> <i_lp_mmshare_version>
43012

> <i_f3d_flags>
0

> <s_epik_input>
W0NIM11bQ0hdKFtDSDNdKUMoPU8pW05IXVtDSDJdYzFbY0hdW2NIXW5jKFtjSF0xKU4yW0NIMl1bQ0gyXU9bQ0gyXVtDSDJdMg==

> <s_epik_cmdline>
J2VwaWtfcHl0aG9uJywgJy1waCcsICc3LjAnLCAnLXRuJywgJzgnLCAnLW1hJywgJzIwMCcsICctbWV0YWxfYmluZGluZycsICctaW1hZScsICc8aW5maWxlLm1hZT4nLCAnLW9tYWUnLCAnPG91dGZpbGUubWFlPic=

> <r_lp_tautomer_probability>
1

> <r_epik_Ionization_Penalty>
0.00576177

> <r_epik_Ionization_Penalty_Charging>
0

> <r_epik_Ionization_Penalty_Neutral>
0.00576177

> <r_epik_State_Penalty>
0.00422935

> <r_epik_Charging_Adjusted_Penalty>
0.00422935

> <i_epik_Tot_Q>
0

> <i_epik_Tot_abs_Q>
0

> <r_epik_Metal_State_Penalty>
-0

> <b_epik_Metal_Only>
0

> <s_lp_Force_Field>
OPLS_2005

> <r_lp_Energy>
14.5519

> <b_lp_Chiralities_Consistent>
1

> <s_lp_Variant>
AV-unprocessed.smi:1303-1

> <Gold.Version>
5.8.1

> <Gold.Id.Protein>
6NUR|6NUR_protein|mol2

> <Gold.PLP.Fitness>
37.6871

> <Gold.PLP.PLP>
-31.7555

> <Gold.PLP.part.hbond>
-2.2839

> <Gold.PLP.part.metal>
0.0000

> <Gold.PLP.part.buried>
-2.5155

> <Gold.PLP.part.nonpolar>
-25.8197

> <Gold.PLP.part.repulsive>
0.0261

> <Gold.PLP.ligand.clash>
0.0000

> <Gold.PLP.ligand.torsion>
0.2057

> <Gold.PLP.Chemscore.Hbond>
2.0000

> <Gold.PLP.Chemscore.CHOScore>
0.0000

> <Gold.PLP.Chemscore.Metal>
0.0000

> <Gold.Chemscore.Hbonds>
donor molecule, donor type, donor heavy atom, donor atom, acceptor molecule, acceptor atom, score
      L1  H     6    27       P1  7948  1.00
      P1  H  7997  8009       L1    11  0.86

> <Gold.PLP.Chemscore.Internal.Correction>
0.3431

> <Gold.Rescore>
     Score         DG    S(hbond)    S(metal)    S(lipo)     H(rot)  DE(clash)    DE(int)     intcor
     16.80     -17.23       1.94        0.00      79.24       1.56       0.05       0.38       ----

> <Gold.Chemscore.Fitness>
16.7994

> <Gold.Chemscore.DG>
-17.2312

> <Gold.Chemscore.ZeroCoef>
-5.4800

> <Gold.Chemscore.Hbond>
1.9370

> <Gold.Chemscore.Metal>
0.0000

> <Gold.Chemscore.Lipo>
79.2412

> <Gold.Chemscore.Internal_Hbond>
0.0000

> <Gold.Chemscore.DEClash>
0.0536

> <Gold.Chemscore.DEInternal>
0.3782

> <Gold.Chemscore.Rot>
1.5584

> <Gold.Chemscore.Internal.Correction>
   9.000000E+99

> <Gold.Chemscore.Hbonds>
donor molecule, donor type, donor heavy atom, donor atom, acceptor molecule, acceptor atom, score
      L1  H     6    27       P1  7948  0.94
      P1  H  7997  8009       L1    11  0.37

> <Gold.Chemscore.Hbond.Weighted>
-6.4695

> <Gold.Chemscore.Metal.Weighted>
-0.0000

> <Gold.Chemscore.Lipo.Weighted>
-9.2712

> <Gold.Chemscore.Internal_Hbond.Weighted>
0.0000

> <Gold.Chemscore.DEClash.Weighted>
0.0536

> <Gold.Chemscore.DEInternal.Weighted>
0.3782

> <Gold.Chemscore.Rot.Weighted>
3.9895

> <Gold.Chemscore.Internal.Correction.Weighted>
   9.000000E+99

> <Gold.Protein.RotatedTorsions>
[ 6907 6896 6895 6894 ] final  144.64 input  -60.11 | X-H torsion
[ 7974 7965 7964 7962 ] final   14.36 input  175.53 | X-H torsion
[ 8008 7997 7996 7995 ] final -159.40 input   59.86 | X-H torsion
[ 10167 10162 10161 10158 ] final  157.03 input  -65.29 | X-H torsion
[ 10718 10713 10712 10709 ] final -171.77 input   66.30 | X-H torsion
[ 10763 10752 10751 10750 ] final -107.30 input  -60.55 | X-H torsion
[ 11005 11000 10999 10996 ] final  100.75 input  -57.11 | X-H torsion

> <Gold.Protein.ActiveResidues>
 VAL166  LYS551  ARG553  GLY616  TRP617  ASP618  TYR619  PRO620  LYS621  CYS622 
 ASP623  PHE694  ASN695  SER759  ASP760  ASP761  ALA762  ILE779  LEU786  VAL792 
 PHE793  MET794  SER795  GLU796  ALA797  LYS798  CYS799  TRP800  GLU811  SER814 

> <Gold.Protein.RotatedAtoms>
  152.1910  133.4773  159.5007 H   0  0  0  0  0  0  0  0  0  0  0  0  # atno 6907 bound_to 6896
  150.6951  134.1712  159.4222 H   0  0  0  0  0  0  0  0  0  0  0  0  # atno 6908 bound_to 6896
  151.9627  135.0115  160.0599 H   0  0  0  0  0  0  0  0  0  0  0  0  # atno 6909 bound_to 6896
  146.2307  139.9052  142.8533 H   0  0  0  0  0  0  0  0  0  0  0  0  # atno 7974 bound_to 7965
  155.7621  140.0840  157.2150 H   0  0  0  0  0  0  0  0  0  0  0  0  # atno 8008 bound_to 7997
  154.4003  140.1541  156.2900 H   0  0  0  0  0  0  0  0  0  0  0  0  # atno 8009 bound_to 7997
  155.8830  140.3419  155.5904 H   0  0  0  0  0  0  0  0  0  0  0  0  # atno 8010 bound_to 7997
  139.4822  144.4954  151.8246 H   0  0  0  0  0  0  0  0  0  0  0  0  # atno 10167 bound_to 10162
  156.7457  130.9359  151.3112 H   0  0  0  0  0  0  0  0  0  0  0  0  # atno 10718 bound_to 10713
  154.8066  135.4680  154.0409 H   0  0  0  0  0  0  0  0  0  0  0  0  # atno 10763 bound_to 10752
  153.1873  135.6850  153.8406 H   0  0  0  0  0  0  0  0  0  0  0  0  # atno 10764 bound_to 10752
  153.7936  135.3240  155.3359 H   0  0  0  0  0  0  0  0  0  0  0  0  # atno 10765 bound_to 10752
  139.8771  134.9154  156.4803 H   0  0  0  0  0  0  0  0  0  0  0  0  # atno 11005 bound_to 11000
  145.2284  140.9963  143.4005 LP  0  0  0  0  0  0  0  0  0  0  0  0  # atno 17320 bound_to 7965
  144.9551  139.4040  143.6383 LP  0  0  0  0  0  0  0  0  0  0  0  0  # atno 17321 bound_to 7965
  140.4442  144.1944  150.5893 LP  0  0  0  0  0  0  0  0  0  0  0  0  # atno 17342 bound_to 10162
  140.4651  143.2434  151.9166 LP  0  0  0  0  0  0  0  0  0  0  0  0  # atno 17343 bound_to 10162
  157.6799  130.9130  150.0241 LP  0  0  0  0  0  0  0  0  0  0  0  0  # atno 17370 bound_to 10713
  156.1435  130.3642  149.9546 LP  0  0  0  0  0  0  0  0  0  0  0  0  # atno 17371 bound_to 10713
  140.8732  133.7973  155.9386 LP  0  0  0  0  0  0  0  0  0  0  0  0  # atno 17394 bound_to 11000
  140.8931  134.2471  157.5083 LP  0  0  0  0  0  0  0  0  0  0  0  0  # atno 17395 bound_to 11000

$$$$
