AV-unprocessed.smi:249|AV-procd|sdf|1928|dock9
  -GOLD-   2262021 43D 1   1.00000     0.00000
 Structure written by MMmdl.
 64 67  0  0  0  0  0  0  0  0  2 V2000
  146.1574  129.6026  151.7282 C   0  0  0  0  0  0  0  0  0  0  0  0
  145.8589  131.0694  152.0754 C   0  0  0  0  0  0  0  0  0  0  0  0
  146.7921  132.0328  151.4198 N   0  3  2  0  0  0  0  0  0  0  0  0
  147.6040  132.8410  152.3731 C   0  0  0  0  0  0  0  0  0  0  0  0
  146.7579  133.9150  153.0825 C   0  0  0  0  0  0  0  0  0  0  0  0
  146.0595  134.8283  152.0556 C   0  0  2  0  0  0  0  0  0  0  0  0
  145.2413  135.8660  152.6930 N   0  0  0  0  0  0  0  0  0  0  0  0
  144.0915  135.4871  153.5139 C   0  0  0  0  0  0  0  0  0  0  0  0
  145.9231  136.9726  153.0856 C   0  0  0  0  0  0  0  0  0  0  0  0
  146.2388  137.9282  152.1715 N   0  0  0  0  0  0  0  0  0  0  0  0
  146.8865  139.0337  152.5492 C   0  0  0  0  0  0  0  0  0  0  0  0
  147.3109  139.3756  153.7668 N   0  0  0  0  0  0  0  0  0  0  0  0
  147.0146  138.4139  154.6872 C   0  0  0  0  0  0  0  0  0  0  0  0
  146.3190  137.1976  154.4343 C   0  0  0  0  0  0  0  0  0  0  0  0
  146.1835  136.4751  155.6133 N   0  0  0  0  0  0  0  0  0  0  0  0
  146.7594  137.2246  156.5126 C   0  0  0  0  0  0  0  0  0  0  0  0
  147.3176  138.3918  156.0397 N   0  0  0  0  0  0  0  0  0  0  0  0
  148.0062  139.4005  156.8335 C   0  0  0  0  0  0  0  0  0  0  0  0
  149.1259  140.1815  156.0853 C   0  0  1  0  0  0  0  0  0  0  0  0
  148.9440  141.6944  156.3578 C   0  0  0  0  0  0  0  0  0  0  0  0
  147.7959  142.1957  155.7042 O   0  0  0  0  0  0  0  0  0  0  0  0
  150.5805  139.7473  156.4495 C   0  0  1  0  0  0  0  0  0  0  0  0
  151.0384  138.3788  155.9634 C   0  0  0  0  0  0  0  0  0  0  0  0
  151.4021  138.6299  154.5039 C   0  0  0  0  0  0  0  0  0  0  0  0
  151.8338  139.9852  154.4571 O   0  0  0  0  0  0  0  0  0  0  0  0
  151.6427  140.5948  155.7301 C   0  0  0  0  0  0  0  0  0  0  0  0
  145.2646  133.9864  151.0377 C   0  0  0  0  0  0  0  0  0  0  0  0
  146.1686  132.9176  150.3877 C   0  0  2  0  0  0  0  0  0  0  0  0
  145.4547  132.1459  149.2634 C   0  0  0  0  0  0  0  0  0  0  0  0
  145.3618  128.9551  152.0971 H   0  0  0  0  0  0  0  0  0  0  0  0
  147.0840  129.2519  152.1817 H   0  0  0  0  0  0  0  0  0  0  0  0
  146.2270  129.4562  150.6499 H   0  0  0  0  0  0  0  0  0  0  0  0
  144.8412  131.2625  151.7419 H   0  0  0  0  0  0  0  0  0  0  0  0
  145.8552  131.2026  153.1571 H   0  0  0  0  0  0  0  0  0  0  0  0
  148.1101  132.2097  153.1014 H   0  0  0  0  0  0  0  0  0  0  0  0
  148.4032  133.3285  151.8132 H   0  0  0  0  0  0  0  0  0  0  0  0
  146.0264  133.4388  153.7351 H   0  0  0  0  0  0  0  0  0  0  0  0
  147.4006  134.5107  153.7317 H   0  0  0  0  0  0  0  0  0  0  0  0
  146.8525  135.3167  151.4894 H   0  0  0  0  0  0  0  0  0  0  0  0
  143.5008  136.3653  153.7778 H   0  0  0  0  0  0  0  0  0  0  0  0
  144.4099  135.0013  154.4366 H   0  0  0  0  0  0  0  0  0  0  0  0
  143.4306  134.8061  152.9802 H   0  0  0  0  0  0  0  0  0  0  0  0
  147.0956  139.7462  151.7648 H   0  0  0  0  0  0  0  0  0  0  0  0
  146.8104  136.9340  157.5520 H   0  0  0  0  0  0  0  0  0  0  0  0
  147.2314  140.0837  157.1816 H   0  0  0  0  0  0  0  0  0  0  0  0
  148.4131  138.9333  157.7310 H   0  0  0  0  0  0  0  0  0  0  0  0
  149.0033  140.0393  155.0125 H   0  0  0  0  0  0  0  0  0  0  0  0
  148.8620  141.8855  157.4284 H   0  0  0  0  0  0  0  0  0  0  0  0
  149.7908  142.2787  156.0031 H   0  0  0  0  0  0  0  0  0  0  0  0
  147.9841  143.0673  155.3914 H   0  0  0  0  0  0  0  0  0  0  0  0
  150.7026  139.8117  157.5316 H   0  0  0  0  0  0  0  0  0  0  0  0
  151.9407  138.0945  156.5071 H   0  0  0  0  0  0  0  0  0  0  0  0
  150.3343  137.5668  156.1098 H   0  0  0  0  0  0  0  0  0  0  0  0
  152.1781  137.9518  154.1483 H   0  0  0  0  0  0  0  0  0  0  0  0
  150.5292  138.5157  153.8604 H   0  0  0  0  0  0  0  0  0  0  0  0
  151.3881  141.6472  155.6170 H   0  0  0  0  0  0  0  0  0  0  0  0
  152.5871  140.5489  156.2746 H   0  0  0  0  0  0  0  0  0  0  0  0
  144.4104  133.5022  151.5099 H   0  0  0  0  0  0  0  0  0  0  0  0
  144.8573  134.6423  150.2670 H   0  0  0  0  0  0  0  0  0  0  0  0
  146.9950  133.4418  149.9045 H   0  0  0  0  0  0  0  0  0  0  0  0
  145.2037  132.8153  148.4399 H   0  0  0  0  0  0  0  0  0  0  0  0
  144.5206  131.6957  149.5996 H   0  0  0  0  0  0  0  0  0  0  0  0
  146.0893  131.3565  148.8594 H   0  0  0  0  0  0  0  0  0  0  0  0
  147.4523  131.4565  150.9174 H   0  0  0  0  0  0  0  0  0  0  0  0
  1  2  1  0  0  0  0
  1 30  1  0  0  0  0
  1 31  1  0  0  0  0
  1 32  1  0  0  0  0
  2  3  1  0  0  0  0
  2 33  1  0  0  0  0
  2 34  1  0  0  0  0
  3 28  1  0  0  0  0
  3  4  1  0  0  0  0
  3 64  1  0  0  0  0
  4  5  1  0  0  0  0
  4 35  1  0  0  0  0
  4 36  1  0  0  0  0
  5  6  1  0  0  0  0
  5 37  1  0  0  0  0
  5 38  1  0  0  0  0
  6  7  1  0  0  0  0
  6 27  1  0  0  0  0
  6 39  1  0  0  0  0
  7  8  1  0  0  0  0
  7  9  1  0  0  0  0
  8 40  1  0  0  0  0
  8 41  1  0  0  0  0
  8 42  1  0  0  0  0
  9 14  1  0  0  0  0
  9 10  2  0  0  0  0
 10 11  1  0  0  0  0
 11 12  2  0  0  0  0
 11 43  1  0  0  0  0
 12 13  1  0  0  0  0
 13 17  1  0  0  0  0
 13 14  2  0  0  0  0
 14 15  1  0  0  0  0
 15 16  2  0  0  0  0
 16 17  1  0  0  0  0
 16 44  1  0  0  0  0
 17 18  1  0  0  0  0
 18 19  1  0  0  0  0
 18 45  1  0  0  0  0
 18 46  1  0  0  0  0
 19 20  1  0  0  0  0
 19 22  1  0  0  0  0
 19 47  1  0  0  0  0
 20 21  1  0  0  0  0
 20 48  1  0  0  0  0
 20 49  1  0  0  0  0
 21 50  1  0  0  0  0
 22 26  1  0  0  0  0
 22 23  1  0  0  0  0
 22 51  1  0  0  0  0
 23 24  1  0  0  0  0
 23 52  1  0  0  0  0
 23 53  1  0  0  0  0
 24 25  1  0  0  0  0
 24 54  1  0  0  0  0
 24 55  1  0  0  0  0
 25 26  1  0  0  0  0
 26 56  1  0  0  0  0
 26 57  1  0  0  0  0
 27 28  1  0  0  0  0
 27 58  1  0  0  0  0
 27 59  1  0  0  0  0
 28 29  1  0  0  0  0
 28 60  1  0  0  0  0
 29 61  1  0  0  0  0
 29 62  1  0  0  0  0
 29 63  1  0  0  0  0
M  CHG  1   3   1
M  END
> <s_m_source_file>
AV-unprocessed.smi

> <i_m_source_file_index>
249

> <i_lp_mmshare_version>
43012

> <i_f3d_flags>
0

> <s_epik_input>
W0NIM11bQ0gyXU4xW0NIMl1bQ0gyXVtDQEhdKFtDSDJdW0NASF0xW0NIM10pTihbQ0gzXSljKG5bY0hdbjIpYyhjMjMpbltjSF1uM1tDSDJdW0NASF0oW0NIMl1bT0hdKVtDQEBIXTRbQ0gyXVtDSDJdT1tDSDJdNA==

> <s_epik_cmdline>
J2VwaWtfcHl0aG9uJywgJy1waCcsICc3LjAnLCAnLXRuJywgJzgnLCAnLW1hJywgJzIwMCcsICctbWV0YWxfYmluZGluZycsICctaW1hZScsICc8aW5maWxlLm1hZT4nLCAnLW9tYWUnLCAnPG91dGZpbGUubWFlPic=

> <r_lp_tautomer_probability>
1

> <r_epik_Ionization_Penalty>
0.00294688

> <r_epik_Ionization_Penalty_Charging>
0.00169971

> <r_epik_Ionization_Penalty_Neutral>
0.00124717

> <r_epik_State_Penalty>
-0

> <r_epik_Charging_Adjusted_Penalty>
0.00169971

> <i_epik_Tot_Q>
1

> <i_epik_Tot_abs_Q>
1

> <r_epik_Metal_State_Penalty>
-0

> <b_epik_Metal_Only>
0

> <s_lp_Force_Field>
OPLS_2005

> <r_lp_Energy>
58.8032

> <b_lp_Chiralities_Consistent>
1

> <s_lp_Variant>
AV-unprocessed.smi:249-31

> <Gold.Version>
5.8.1

> <Gold.Id.Protein>
6NUR|6NUR_protein|mol2

> <Gold.PLP.Fitness>
43.9428

> <Gold.PLP.PLP>
-38.2146

> <Gold.PLP.part.hbond>
-2.8391

> <Gold.PLP.part.metal>
0.0000

> <Gold.PLP.part.buried>
-5.6018

> <Gold.PLP.part.nonpolar>
-29.8663

> <Gold.PLP.part.repulsive>
0.5664

> <Gold.PLP.ligand.clash>
0.0000

> <Gold.PLP.ligand.torsion>
3.4158

> <Gold.PLP.Chemscore.Hbond>
3.0000

> <Gold.PLP.Chemscore.CHOScore>
0.8151

> <Gold.PLP.Chemscore.Metal>
0.0000

> <Gold.Chemscore.Hbonds>
donor molecule, donor type, donor heavy atom, donor atom, acceptor molecule, acceptor atom, score
      L1  H     3    64       P1 10747  1.00
      L1  H    21    50       P1  8028  0.99
      P1  H  7989  7998       L1    25  0.43
      L1  C    11    43       P1  7957  0.67

> <Gold.PLP.Chemscore.Internal.Correction>
1.1144

> <Gold.Rescore>
     Score         DG    S(hbond)    S(metal)    S(lipo)     H(rot)  DE(clash)    DE(int)     intcor
     15.85     -19.10       2.88        0.00      92.17       2.65       0.03       3.22       ----

> <Gold.Chemscore.Fitness>
15.8516

> <Gold.Chemscore.DG>
-19.1010

> <Gold.Chemscore.ZeroCoef>
-5.4800

> <Gold.Chemscore.Hbond>
2.8816

> <Gold.Chemscore.Metal>
0.0000

> <Gold.Chemscore.Lipo>
92.1742

> <Gold.Chemscore.Internal_Hbond>
0.0000

> <Gold.Chemscore.DEClash>
0.0323

> <Gold.Chemscore.DEInternal>
3.2171

> <Gold.Chemscore.Rot>
2.6515

> <Gold.Chemscore.Internal.Correction>
   9.000000E+99

> <Gold.Chemscore.Hbonds>
donor molecule, donor type, donor heavy atom, donor atom, acceptor molecule, acceptor atom, score
      L1  H     3    64       P1 10747  1.00
      L1  H    21    50       P1  8028  0.77
      P1  H  7989  7998       L1    25  0.32

> <Gold.Chemscore.Hbond.Weighted>
-9.6246

> <Gold.Chemscore.Metal.Weighted>
-0.0000

> <Gold.Chemscore.Lipo.Weighted>
-10.7844

> <Gold.Chemscore.Internal_Hbond.Weighted>
0.0000

> <Gold.Chemscore.DEClash.Weighted>
0.0323

> <Gold.Chemscore.DEInternal.Weighted>
3.2171

> <Gold.Chemscore.Rot.Weighted>
6.7880

> <Gold.Chemscore.Internal.Correction.Weighted>
   9.000000E+99

> <Gold.Protein.RotatedTorsions>
[ 6907 6896 6895 6894 ] final  -50.70 input  -60.11 | X-H torsion
[ 7974 7965 7964 7962 ] final  -34.97 input  175.53 | X-H torsion
[ 8008 7997 7996 7995 ] final  -46.91 input   59.86 | X-H torsion
[ 10167 10162 10161 10158 ] final  -34.45 input  -65.29 | X-H torsion
[ 10718 10713 10712 10709 ] final  116.20 input   66.30 | X-H torsion
[ 10763 10752 10751 10750 ] final  -44.03 input  -60.55 | X-H torsion
[ 11005 11000 10999 10996 ] final -119.49 input  -57.11 | X-H torsion

> <Gold.Protein.ActiveResidues>
 VAL166  LYS551  ARG553  GLY616  TRP617  ASP618  TYR619  PRO620  LYS621  CYS622 
 ASP623  PHE694  ASN695  SER759  ASP760  ASP761  ALA762  ILE779  LEU786  VAL792 
 PHE793  MET794  SER795  GLU796  ALA797  LYS798  CYS799  TRP800  GLU811  SER814 

> <Gold.Protein.RotatedAtoms>
  150.8682  134.8050  159.7134 H   0  0  0  0  0  0  0  0  0  0  0  0  # atno 6907 bound_to 6896
  152.4696  134.4989  159.9728 H   0  0  0  0  0  0  0  0  0  0  0  0  # atno 6908 bound_to 6896
  151.5082  133.3452  159.2916 H   0  0  0  0  0  0  0  0  0  0  0  0  # atno 6909 bound_to 6896
  146.0785  140.6103  142.8919 H   0  0  0  0  0  0  0  0  0  0  0  0  # atno 7974 bound_to 7965
  154.4011  140.1359  156.4089 H   0  0  0  0  0  0  0  0  0  0  0  0  # atno 8008 bound_to 7997
  155.7753  140.3483  155.5248 H   0  0  0  0  0  0  0  0  0  0  0  0  # atno 8009 bound_to 7997
  155.8727  140.0974  157.1530 H   0  0  0  0  0  0  0  0  0  0  0  0  # atno 8010 bound_to 7997
  140.7185  143.3547  151.2084 H   0  0  0  0  0  0  0  0  0  0  0  0  # atno 10167 bound_to 10162
  157.6175  131.1022  150.7439 H   0  0  0  0  0  0  0  0  0  0  0  0  # atno 10718 bound_to 10713
  154.0053  135.6688  153.4761 H   0  0  0  0  0  0  0  0  0  0  0  0  # atno 10763 bound_to 10752
  153.0644  135.5009  154.8164 H   0  0  0  0  0  0  0  0  0  0  0  0  # atno 10764 bound_to 10752
  154.7028  135.3082  154.9278 H   0  0  0  0  0  0  0  0  0  0  0  0  # atno 10765 bound_to 10752
  141.0212  134.0122  157.3280 H   0  0  0  0  0  0  0  0  0  0  0  0  # atno 11005 bound_to 11000
  144.7277  140.4577  143.6960 LP  0  0  0  0  0  0  0  0  0  0  0  0  # atno 17320 bound_to 7965
  145.6261  139.1530  143.2995 LP  0  0  0  0  0  0  0  0  0  0  0  0  # atno 17321 bound_to 7965
  139.7085  143.9415  152.2937 LP  0  0  0  0  0  0  0  0  0  0  0  0  # atno 17342 bound_to 10162
  139.9132  144.6844  150.8540 LP  0  0  0  0  0  0  0  0  0  0  0  0  # atno 17343 bound_to 10162
  156.7803  130.4857  149.5402 LP  0  0  0  0  0  0  0  0  0  0  0  0  # atno 17370 bound_to 10713
  156.1304  130.6174  151.0325 LP  0  0  0  0  0  0  0  0  0  0  0  0  # atno 17371 bound_to 10713
  139.9147  135.0195  156.7834 LP  0  0  0  0  0  0  0  0  0  0  0  0  # atno 17394 bound_to 11000
  140.6570  133.9679  155.7785 LP  0  0  0  0  0  0  0  0  0  0  0  0  # atno 17395 bound_to 11000

$$$$
