AV-unprocessed.smi:3303|AV-procd|sdf|12687|dock1
  -GOLD-   2272019 23D 1   1.00000     0.00000
 Structure written by MMmdl.
 44 45  0  0  0  0  0  0  0  0  2 V2000
  146.9796  139.4876  153.1289 C   0  0  0  0  0  0  0  0  0  0  0  0
  147.2920  140.0835  154.5124 C   0  0  2  0  0  0  0  0  0  0  0  0
  146.0128  140.2765  155.3506 C   0  0  0  0  0  0  0  0  0  0  0  0
  145.1655  141.3882  154.8463 N   0  3  1  0  0  0  0  0  0  0  0  0
  143.8743  141.4359  155.5741 C   0  0  0  0  0  0  0  0  0  0  0  0
  145.9013  142.6875  154.8275 C   0  0  2  0  0  0  0  0  0  0  0  0
  145.0423  143.8503  154.2930 C   0  0  0  0  0  0  0  0  0  0  0  0
  147.1908  142.5723  153.9837 C   0  0  0  0  0  0  0  0  0  0  0  0
  148.0964  141.4012  154.4053 C   0  0  1  0  0  0  0  0  0  0  0  0
  148.7490  141.7394  155.6644 N   0  0  0  0  0  0  0  0  0  0  0  0
  150.1093  141.2259  155.7582 C   0  0  0  0  0  0  0  0  0  0  0  0
  150.4622  140.9094  157.2214 C   0  0  0  0  0  0  0  0  0  0  0  0
  151.2301  142.0313  157.9029 C   0  0  0  0  0  0  0  0  0  0  0  0
  151.7841  141.8422  159.1871 C   0  0  0  0  0  0  0  0  0  0  0  0
  152.4643  142.9175  159.7908 C   0  0  0  0  0  0  0  0  0  0  0  0
  152.5624  144.1362  159.0920 C   0  0  0  0  0  0  0  0  0  0  0  0
  151.9755  144.2246  157.8141 C   0  0  0  0  0  0  0  0  0  0  0  0
  151.3209  143.2000  157.2270 N   0  0  0  0  0  0  0  0  0  0  0  0
  146.3436  140.1447  152.5356 H   0  0  0  0  0  0  0  0  0  0  0  0
  146.4671  138.5296  153.2218 H   0  0  0  0  0  0  0  0  0  0  0  0
  147.8953  139.3137  152.5631 H   0  0  0  0  0  0  0  0  0  0  0  0
  147.8954  139.3325  155.0215 H   0  0  0  0  0  0  0  0  0  0  0  0
  145.4418  139.3471  155.3551 H   0  0  0  0  0  0  0  0  0  0  0  0
  146.2787  140.4768  156.3903 H   0  0  0  0  0  0  0  0  0  0  0  0
  144.0158  141.7783  156.5999 H   0  0  0  0  0  0  0  0  0  0  0  0
  143.4127  140.4485  155.6082 H   0  0  0  0  0  0  0  0  0  0  0  0
  143.1598  142.0949  155.0816 H   0  0  0  0  0  0  0  0  0  0  0  0
  146.1821  142.9266  155.8548 H   0  0  0  0  0  0  0  0  0  0  0  0
  145.6355  144.7606  154.2007 H   0  0  0  0  0  0  0  0  0  0  0  0
  144.2135  144.0887  154.9594 H   0  0  0  0  0  0  0  0  0  0  0  0
  144.6329  143.6236  153.3081 H   0  0  0  0  0  0  0  0  0  0  0  0
  146.9177  142.4431  152.9356 H   0  0  0  0  0  0  0  0  0  0  0  0
  147.7518  143.5072  154.0249 H   0  0  0  0  0  0  0  0  0  0  0  0
  148.8784  141.2953  153.6515 H   0  0  0  0  0  0  0  0  0  0  0  0
  148.7721  142.7421  155.7864 H   0  0  0  0  0  0  0  0  0  0  0  0
  150.2389  140.3272  155.1566 H   0  0  0  0  0  0  0  0  0  0  0  0
  150.7937  141.9761  155.3610 H   0  0  0  0  0  0  0  0  0  0  0  0
  149.5451  140.7248  157.7818 H   0  0  0  0  0  0  0  0  0  0  0  0
  151.0401  139.9856  157.2790 H   0  0  0  0  0  0  0  0  0  0  0  0
  151.6870  140.8971  159.7012 H   0  0  0  0  0  0  0  0  0  0  0  0
  152.9006  142.8100  160.7730 H   0  0  0  0  0  0  0  0  0  0  0  0
  153.0758  144.9822  159.5242 H   0  0  0  0  0  0  0  0  0  0  0  0
  152.0304  145.1436  157.2496 H   0  0  0  0  0  0  0  0  0  0  0  0
  144.9442  141.1648  153.8865 H   0  0  0  0  0  0  0  0  0  0  0  0
  1  2  1  0  0  0  0
  1 19  1  0  0  0  0
  1 20  1  0  0  0  0
  1 21  1  0  0  0  0
  2  9  1  0  0  0  0
  2  3  1  0  0  0  0
  2 22  1  0  0  0  0
  3  4  1  0  0  0  0
  3 23  1  0  0  0  0
  3 24  1  0  0  0  0
  4  5  1  0  0  0  0
  4  6  1  0  0  0  0
  4 44  1  0  0  0  0
  5 25  1  0  0  0  0
  5 26  1  0  0  0  0
  5 27  1  0  0  0  0
  6  7  1  0  0  0  0
  6  8  1  0  0  0  0
  6 28  1  0  0  0  0
  7 29  1  0  0  0  0
  7 30  1  0  0  0  0
  7 31  1  0  0  0  0
  8  9  1  0  0  0  0
  8 32  1  0  0  0  0
  8 33  1  0  0  0  0
  9 10  1  0  0  0  0
  9 34  1  0  0  0  0
 10 11  1  0  0  0  0
 10 35  1  0  0  0  0
 11 12  1  0  0  0  0
 11 36  1  0  0  0  0
 11 37  1  0  0  0  0
 12 13  1  0  0  0  0
 12 38  1  0  0  0  0
 12 39  1  0  0  0  0
 13 18  1  0  0  0  0
 13 14  2  0  0  0  0
 14 15  1  0  0  0  0
 14 40  1  0  0  0  0
 15 16  2  0  0  0  0
 15 41  1  0  0  0  0
 16 17  1  0  0  0  0
 16 42  1  0  0  0  0
 17 18  2  0  0  0  0
 17 43  1  0  0  0  0
M  CHG  1   4   1
M  END
> <s_m_source_file>
AV-unprocessed.smi

> <i_m_source_file_index>
3303

> <i_lp_mmshare_version>
43012

> <i_f3d_flags>
0

> <s_epik_input>
W0NIM11bQ0BASF0xW0NIMl1OKFtDSDNdKVtDQEBIXShbQ0gzXSlbQ0gyXVtDQEhdMVtOSF1bQ0gyXVtDSDJdYzJbY0hdW2NIXVtjSF1bY0hdbjI=

> <s_epik_cmdline>
J2VwaWtfcHl0aG9uJywgJy1waCcsICc3LjAnLCAnLXRuJywgJzgnLCAnLW1hJywgJzIwMCcsICctbWV0YWxfYmluZGluZycsICctaW1hZScsICc8aW5maWxlLm1hZT4nLCAnLW9tYWUnLCAnPG91dGZpbGUubWFlPic=

> <r_epik_Ionization_Penalty>
2.31085

> <r_epik_Ionization_Penalty_Charging>
0.000313057

> <r_epik_Ionization_Penalty_Neutral>
2.31054

> <r_epik_State_Penalty>
2.4087

> <r_epik_Charging_Adjusted_Penalty>
2.40902

> <i_epik_Tot_Q>
1

> <i_epik_Tot_abs_Q>
1

> <r_epik_Metal_State_Penalty>
2.30979

> <b_epik_Metal_Only>
0

> <s_lp_Force_Field>
OPLS_2005

> <r_lp_Energy>
26.8033

> <b_lp_Chiralities_Consistent>
1

> <s_lp_Variant>
AV-unprocessed.smi:3303-31

> <Gold.Version>
5.8.1

> <Gold.Id.Protein>
6NUR|6NUR_protein|mol2

> <Gold.PLP.Fitness>
46.4638

> <Gold.PLP.PLP>
-39.3804

> <Gold.PLP.part.hbond>
-2.0000

> <Gold.PLP.part.metal>
0.0000

> <Gold.PLP.part.buried>
-4.6056

> <Gold.PLP.part.nonpolar>
-33.6614

> <Gold.PLP.part.repulsive>
0.1434

> <Gold.PLP.ligand.clash>
0.0000

> <Gold.PLP.ligand.torsion>
0.9767

> <Gold.PLP.Chemscore.Hbond>
3.0000

> <Gold.PLP.Chemscore.CHOScore>
0.0000

> <Gold.PLP.Chemscore.Metal>
0.0000

> <Gold.Chemscore.Hbonds>
donor molecule, donor type, donor heavy atom, donor atom, acceptor molecule, acceptor atom, score
      L1  H     4    44       P1 10175  2.00
      L1  H    10    35       P1  8028  1.00

> <Gold.PLP.Chemscore.Internal.Correction>
0.0368

> <Gold.Rescore>
     Score         DG    S(hbond)    S(metal)    S(lipo)     H(rot)  DE(clash)    DE(int)     intcor
     20.00     -21.23       1.90        0.00     109.27       1.33       0.35       0.88       ----

> <Gold.Chemscore.Fitness>
19.9982

> <Gold.Chemscore.DG>
-21.2258

> <Gold.Chemscore.ZeroCoef>
-5.4800

> <Gold.Chemscore.Hbond>
1.9037

> <Gold.Chemscore.Metal>
0.0000

> <Gold.Chemscore.Lipo>
109.2741

> <Gold.Chemscore.Internal_Hbond>
0.0000

> <Gold.Chemscore.DEClash>
0.3464

> <Gold.Chemscore.DEInternal>
0.8812

> <Gold.Chemscore.Rot>
1.3272

> <Gold.Chemscore.Internal.Correction>
   9.000000E+99

> <Gold.Chemscore.Hbonds>
donor molecule, donor type, donor heavy atom, donor atom, acceptor molecule, acceptor atom, score
      L1  H     4    44       P1 10175  0.60
      L1  H    10    35       P1  8028  0.98

> <Gold.Chemscore.Hbond.Weighted>
-6.3584

> <Gold.Chemscore.Metal.Weighted>
-0.0000

> <Gold.Chemscore.Lipo.Weighted>
-12.7851

> <Gold.Chemscore.Internal_Hbond.Weighted>
0.0000

> <Gold.Chemscore.DEClash.Weighted>
0.3464

> <Gold.Chemscore.DEInternal.Weighted>
0.8812

> <Gold.Chemscore.Rot.Weighted>
3.3976

> <Gold.Chemscore.Internal.Correction.Weighted>
   9.000000E+99

> <Gold.Protein.RotatedTorsions>
[ 6907 6896 6895 6894 ] final -142.85 input  -60.11 | X-H torsion
[ 7974 7965 7964 7962 ] final   39.63 input  175.53 | X-H torsion
[ 8008 7997 7996 7995 ] final  129.92 input   59.86 | X-H torsion
[ 10167 10162 10161 10158 ] final -145.94 input  -65.29 | X-H torsion
[ 10718 10713 10712 10709 ] final   37.40 input   66.30 | X-H torsion
[ 10763 10752 10751 10750 ] final  -87.63 input  -60.55 | X-H torsion
[ 11005 11000 10999 10996 ] final  174.78 input  -57.11 | X-H torsion

> <Gold.Protein.ActiveResidues>
 VAL166  LYS551  ARG553  GLY616  TRP617  ASP618  TYR619  PRO620  LYS621  CYS622 
 ASP623  PHE694  ASN695  SER759  ASP760  ASP761  ALA762  ILE779  LEU786  VAL792 
 PHE793  MET794  SER795  GLU796  ALA797  LYS798  CYS799  TRP800  GLU811  SER814 

> <Gold.Protein.RotatedAtoms>
  151.0926  133.5304  159.2613 H   0  0  0  0  0  0  0  0  0  0  0  0  # atno 6907 bound_to 6896
  151.2166  135.0501  159.8942 H   0  0  0  0  0  0  0  0  0  0  0  0  # atno 6908 bound_to 6896
  152.5435  134.0734  159.8257 H   0  0  0  0  0  0  0  0  0  0  0  0  # atno 6909 bound_to 6896
  146.0969  139.5629  142.9439 H   0  0  0  0  0  0  0  0  0  0  0  0  # atno 7974 bound_to 7965
  156.2945  140.2608  156.2678 H   0  0  0  0  0  0  0  0  0  0  0  0  # atno 8008 bound_to 7997
  154.9725  140.0391  157.2259 H   0  0  0  0  0  0  0  0  0  0  0  0  # atno 8009 bound_to 7997
  154.7846  140.2801  155.6042 H   0  0  0  0  0  0  0  0  0  0  0  0  # atno 8010 bound_to 7997
  139.7759  143.8170  152.2632 H   0  0  0  0  0  0  0  0  0  0  0  0  # atno 10167 bound_to 10162
  157.3465  130.7575  149.6948 H   0  0  0  0  0  0  0  0  0  0  0  0  # atno 10718 bound_to 10713
  154.6357  135.5406  153.7731 H   0  0  0  0  0  0  0  0  0  0  0  0  # atno 10763 bound_to 10752
  153.0307  135.6447  154.1235 H   0  0  0  0  0  0  0  0  0  0  0  0  # atno 10764 bound_to 10752
  154.1162  135.2923  155.3199 H   0  0  0  0  0  0  0  0  0  0  0  0  # atno 10765 bound_to 10752
  140.3550  134.7162  157.4293 H   0  0  0  0  0  0  0  0  0  0  0  0  # atno 11005 bound_to 11000
  145.5931  141.0366  143.2059 LP  0  0  0  0  0  0  0  0  0  0  0  0  # atno 17320 bound_to 7965
  144.7402  139.7470  143.7313 LP  0  0  0  0  0  0  0  0  0  0  0  0  # atno 17321 bound_to 7965
  139.8219  144.7292  150.9562 LP  0  0  0  0  0  0  0  0  0  0  0  0  # atno 17342 bound_to 10162
  140.7816  143.4151  151.0930 LP  0  0  0  0  0  0  0  0  0  0  0  0  # atno 17343 bound_to 10162
  155.9715  130.4153  150.4174 LP  0  0  0  0  0  0  0  0  0  0  0  0  # atno 17370 bound_to 10713
  157.2230  131.0487  151.2536 LP  0  0  0  0  0  0  0  0  0  0  0  0  # atno 17371 bound_to 10713
  140.0672  134.5912  155.8682 LP  0  0  0  0  0  0  0  0  0  0  0  0  # atno 17394 bound_to 11000
  141.2001  133.6610  156.5879 LP  0  0  0  0  0  0  0  0  0  0  0  0  # atno 17395 bound_to 11000

$$$$
