AV-unprocessed.smi:1357|AV-procd|sdf|5548|dock1
  -GOLD-   22720 5143D 1   1.00000     0.00000
 Structure written by MMmdl.
 43 44  0  0  0  0  0  0  0  0  1 V2000
  152.9597  138.3664  154.6227 C   0  0  0  0  0  0  0  0  0  0  0  0
  151.7023  138.2963  155.5142 C   0  0  0  0  0  0  0  0  0  0  0  0
  150.5703  137.5992  154.7325 C   0  0  0  0  0  0  0  0  0  0  0  0
  152.0306  137.4634  156.7759 C   0  0  0  0  0  0  0  0  0  0  0  0
  151.2553  139.7393  155.8538 C   0  0  0  0  0  0  0  0  0  0  0  0
  150.6855  140.4162  154.9965 O   0  0  0  0  0  0  0  0  0  0  0  0
  151.5103  140.2131  157.0856 N   0  0  0  0  0  0  0  0  0  0  0  0
  151.2063  141.5609  157.5499 C   0  0  0  0  0  0  0  0  0  0  0  0
  151.9327  141.8981  158.8382 C   0  0  0  0  0  0  0  0  0  0  0  0
  151.6804  143.1096  159.5128 C   0  0  0  0  0  0  0  0  0  0  0  0
  152.3993  143.3823  160.6922 C   0  0  0  0  0  0  0  0  0  0  0  0
  153.3188  142.5406  161.2106 N   0  0  0  0  0  0  0  0  0  0  0  0
  153.5621  141.3766  160.5612 C   0  0  0  0  0  0  0  0  0  0  0  0
  154.5087  140.4950  161.1025 N   0  0  0  0  0  0  0  0  0  0  0  0
  155.6165  140.2241  160.1951 C   0  0  0  0  0  0  0  0  0  0  0  0
  156.6768  139.3604  160.9001 C   0  0  0  0  0  0  0  0  0  0  0  0
  156.0729  138.1674  161.3926 O   0  0  0  0  0  0  0  0  0  0  0  0
  155.0400  138.4402  162.3355 C   0  0  0  0  0  0  0  0  0  0  0  0
  153.9371  139.2767  161.6638 C   0  0  0  0  0  0  0  0  0  0  0  0
  152.8930  141.0152  159.3728 C   0  0  0  0  0  0  0  0  0  0  0  0
  153.3100  137.3689  154.3552 H   0  0  0  0  0  0  0  0  0  0  0  0
  153.7809  138.8745  155.1302 H   0  0  0  0  0  0  0  0  0  0  0  0
  152.7687  138.8997  153.6902 H   0  0  0  0  0  0  0  0  0  0  0  0
  150.3228  138.1315  153.8130 H   0  0  0  0  0  0  0  0  0  0  0  0
  149.6590  137.5290  155.3279 H   0  0  0  0  0  0  0  0  0  0  0  0
  150.8535  136.5844  154.4503 H   0  0  0  0  0  0  0  0  0  0  0  0
  152.3462  136.4548  156.5073 H   0  0  0  0  0  0  0  0  0  0  0  0
  151.1646  137.3616  157.4317 H   0  0  0  0  0  0  0  0  0  0  0  0
  152.8412  137.9083  157.3552 H   0  0  0  0  0  0  0  0  0  0  0  0
  151.9789  139.6020  157.7386 H   0  0  0  0  0  0  0  0  0  0  0  0
  151.4448  142.2997  156.7829 H   0  0  0  0  0  0  0  0  0  0  0  0
  150.1310  141.6318  157.7160 H   0  0  0  0  0  0  0  0  0  0  0  0
  150.9584  143.8178  159.1333 H   0  0  0  0  0  0  0  0  0  0  0  0
  152.2328  144.3020  161.2329 H   0  0  0  0  0  0  0  0  0  0  0  0
  155.2469  139.7066  159.3086 H   0  0  0  0  0  0  0  0  0  0  0  0
  156.0599  141.1627  159.8602 H   0  0  0  0  0  0  0  0  0  0  0  0
  157.4700  139.0950  160.2014 H   0  0  0  0  0  0  0  0  0  0  0  0
  157.1439  139.9088  161.7197 H   0  0  0  0  0  0  0  0  0  0  0  0
  154.6297  137.4970  162.6962 H   0  0  0  0  0  0  0  0  0  0  0  0
  155.4520  138.9611  163.2014 H   0  0  0  0  0  0  0  0  0  0  0  0
  153.1651  139.5324  162.3906 H   0  0  0  0  0  0  0  0  0  0  0  0
  153.4600  138.6918  160.8761 H   0  0  0  0  0  0  0  0  0  0  0  0
  153.1143  140.0796  158.8798 H   0  0  0  0  0  0  0  0  0  0  0  0
  1  2  1  0  0  0  0
  1 21  1  0  0  0  0
  1 22  1  0  0  0  0
  1 23  1  0  0  0  0
  2  3  1  0  0  0  0
  2  4  1  0  0  0  0
  2  5  1  0  0  0  0
  3 24  1  0  0  0  0
  3 25  1  0  0  0  0
  3 26  1  0  0  0  0
  4 27  1  0  0  0  0
  4 28  1  0  0  0  0
  4 29  1  0  0  0  0
  5  6  2  0  0  0  0
  5  7  1  0  0  0  0
  7  8  1  0  0  0  0
  7 30  1  0  0  0  0
  8  9  1  0  0  0  0
  8 31  1  0  0  0  0
  8 32  1  0  0  0  0
  9 20  1  0  0  0  0
  9 10  2  0  0  0  0
 10 11  1  0  0  0  0
 10 33  1  0  0  0  0
 11 12  2  0  0  0  0
 11 34  1  0  0  0  0
 12 13  1  0  0  0  0
 13 14  1  0  0  0  0
 13 20  2  0  0  0  0
 14 19  1  0  0  0  0
 14 15  1  0  0  0  0
 15 16  1  0  0  0  0
 15 35  1  0  0  0  0
 15 36  1  0  0  0  0
 16 17  1  0  0  0  0
 16 37  1  0  0  0  0
 16 38  1  0  0  0  0
 17 18  1  0  0  0  0
 18 19  1  0  0  0  0
 18 39  1  0  0  0  0
 18 40  1  0  0  0  0
 19 41  1  0  0  0  0
 19 42  1  0  0  0  0
 20 43  1  0  0  0  0
M  END
> <s_m_source_file>
AV-unprocessed.smi

> <i_m_source_file_index>
1357

> <i_lp_mmshare_version>
43012

> <i_f3d_flags>
0

> <s_epik_input>
W0NIM11DKFtDSDNdKShbQ0gzXSlDKD1PKVtOSF1bQ0gyXWMxW2NIXVtjSF1uYyhbY0hdMSlOMltDSDJdW0NIMl1PW0NIMl1bQ0gyXTI=

> <s_epik_cmdline>
J2VwaWtfcHl0aG9uJywgJy1waCcsICc3LjAnLCAnLXRuJywgJzgnLCAnLW1hJywgJzIwMCcsICctbWV0YWxfYmluZGluZycsICctaW1hZScsICc8aW5maWxlLm1hZT4nLCAnLW9tYWUnLCAnPG91dGZpbGUubWFlPic=

> <r_lp_tautomer_probability>
1

> <r_epik_Ionization_Penalty>
0.00576178

> <r_epik_Ionization_Penalty_Charging>
0

> <r_epik_Ionization_Penalty_Neutral>
0.00576178

> <r_epik_State_Penalty>
0.00422935

> <r_epik_Charging_Adjusted_Penalty>
0.00422935

> <i_epik_Tot_Q>
0

> <i_epik_Tot_abs_Q>
0

> <r_epik_Metal_State_Penalty>
-0

> <b_epik_Metal_Only>
0

> <s_lp_Force_Field>
OPLS_2005

> <r_lp_Energy>
22.6538

> <b_lp_Chiralities_Consistent>
1

> <s_lp_Variant>
AV-unprocessed.smi:1357-1

> <Gold.Version>
5.8.1

> <Gold.Id.Protein>
6NUR|6NUR_protein|mol2

> <Gold.PLP.Fitness>
38.5113

> <Gold.PLP.PLP>
-37.1058

> <Gold.PLP.part.hbond>
-1.0851

> <Gold.PLP.part.metal>
0.0000

> <Gold.PLP.part.buried>
-4.3030

> <Gold.PLP.part.nonpolar>
-30.2678

> <Gold.PLP.part.repulsive>
0.2030

> <Gold.PLP.ligand.clash>
0.0000

> <Gold.PLP.ligand.torsion>
0.8668

> <Gold.PLP.Chemscore.Hbond>
1.0000

> <Gold.PLP.Chemscore.CHOScore>
0.0000

> <Gold.PLP.Chemscore.Metal>
0.0000

> <Gold.Chemscore.Hbonds>
donor molecule, donor type, donor heavy atom, donor atom, acceptor molecule, acceptor atom, score
      P1  H  7989  7998       L1     6  1.00

> <Gold.PLP.Chemscore.Internal.Correction>
0.1391

> <Gold.Rescore>
     Score         DG    S(hbond)    S(metal)    S(lipo)     H(rot)  DE(clash)    DE(int)     intcor
     16.13     -17.08       0.95        0.00     105.18       1.52       0.05       0.89       ----

> <Gold.Chemscore.Fitness>
16.1333

> <Gold.Chemscore.DG>
-17.0779

> <Gold.Chemscore.ZeroCoef>
-5.4800

> <Gold.Chemscore.Hbond>
0.9511

> <Gold.Chemscore.Metal>
0.0000

> <Gold.Chemscore.Lipo>
105.1766

> <Gold.Chemscore.Internal_Hbond>
0.0000

> <Gold.Chemscore.DEClash>
0.0532

> <Gold.Chemscore.DEInternal>
0.8914

> <Gold.Chemscore.Rot>
1.5173

> <Gold.Chemscore.Internal.Correction>
   9.000000E+99

> <Gold.Chemscore.Hbonds>
donor molecule, donor type, donor heavy atom, donor atom, acceptor molecule, acceptor atom, score
      P1  H  7989  7998       L1     6  0.93

> <Gold.Chemscore.Hbond.Weighted>
-3.1766

> <Gold.Chemscore.Metal.Weighted>
-0.0000

> <Gold.Chemscore.Lipo.Weighted>
-12.3057

> <Gold.Chemscore.Internal_Hbond.Weighted>
0.0000

> <Gold.Chemscore.DEClash.Weighted>
0.0532

> <Gold.Chemscore.DEInternal.Weighted>
0.8914

> <Gold.Chemscore.Rot.Weighted>
3.8843

> <Gold.Chemscore.Internal.Correction.Weighted>
   9.000000E+99

> <Gold.Protein.RotatedTorsions>
[ 6907 6896 6895 6894 ] final -154.44 input  -60.11 | X-H torsion
[ 7974 7965 7964 7962 ] final  -96.99 input  175.53 | X-H torsion
[ 8008 7997 7996 7995 ] final   12.02 input   59.86 | X-H torsion
[ 10167 10162 10161 10158 ] final  -68.33 input  -65.29 | X-H torsion
[ 10718 10713 10712 10709 ] final  129.83 input   66.30 | X-H torsion
[ 10763 10752 10751 10750 ] final  149.52 input  -60.55 | X-H torsion
[ 11005 11000 10999 10996 ] final -108.97 input  -57.11 | X-H torsion

> <Gold.Protein.ActiveResidues>
 VAL166  LYS551  ARG553  GLY616  TRP617  ASP618  TYR619  PRO620  LYS621  CYS622 
 ASP623  PHE694  ASN695  SER759  ASP760  ASP761  ALA762  ILE779  LEU786  VAL792 
 PHE793  MET794  SER795  GLU796  ALA797  LYS798  CYS799  TRP800  GLU811  SER814 

> <Gold.Protein.RotatedAtoms>
  151.2575  133.4319  159.2614 H   0  0  0  0  0  0  0  0  0  0  0  0  # atno 6907 bound_to 6896
  151.0561  134.9706  159.8247 H   0  0  0  0  0  0  0  0  0  0  0  0  # atno 6908 bound_to 6896
  152.5391  134.2527  159.8957 H   0  0  0  0  0  0  0  0  0  0  0  0  # atno 6909 bound_to 6896
  145.3397  140.9457  143.2615 H   0  0  0  0  0  0  0  0  0  0  0  0  # atno 7974 bound_to 7965
  154.8149  140.2874  155.5827 H   0  0  0  0  0  0  0  0  0  0  0  0  # atno 8008 bound_to 7997
  156.2992  140.2561  156.2974 H   0  0  0  0  0  0  0  0  0  0  0  0  # atno 8009 bound_to 7997
  154.9405  140.0381  157.2084 H   0  0  0  0  0  0  0  0  0  0  0  0  # atno 8010 bound_to 7997
  140.5515  143.2312  151.6902 H   0  0  0  0  0  0  0  0  0  0  0  0  # atno 10167 bound_to 10162
  157.5118  131.1097  150.9282 H   0  0  0  0  0  0  0  0  0  0  0  0  # atno 10718 bound_to 10713
  154.0726  135.2865  155.3305 H   0  0  0  0  0  0  0  0  0  0  0  0  # atno 10763 bound_to 10752
  154.6737  135.5290  153.8174 H   0  0  0  0  0  0  0  0  0  0  0  0  # atno 10764 bound_to 10752
  153.0479  135.6564  154.0906 H   0  0  0  0  0  0  0  0  0  0  0  0  # atno 10765 bound_to 10752
  141.0873  133.9117  157.2157 H   0  0  0  0  0  0  0  0  0  0  0  0  # atno 11005 bound_to 11000
  144.8800  139.4917  143.6727 LP  0  0  0  0  0  0  0  0  0  0  0  0  # atno 17320 bound_to 7965
  146.3012  139.7434  142.9089 LP  0  0  0  0  0  0  0  0  0  0  0  0  # atno 17321 bound_to 7965
  139.5029  144.3810  152.0376 LP  0  0  0  0  0  0  0  0  0  0  0  0  # atno 17342 bound_to 10162
  140.2927  144.3735  150.6083 LP  0  0  0  0  0  0  0  0  0  0  0  0  # atno 17343 bound_to 10162
  156.9920  130.5567  149.5304 LP  0  0  0  0  0  0  0  0  0  0  0  0  # atno 17370 bound_to 10713
  156.0294  130.5386  150.8493 LP  0  0  0  0  0  0  0  0  0  0  0  0  # atno 17371 bound_to 10713
  139.9693  135.0133  156.9469 LP  0  0  0  0  0  0  0  0  0  0  0  0  # atno 17394 bound_to 11000
  140.5334  134.0791  155.7322 LP  0  0  0  0  0  0  0  0  0  0  0  0  # atno 17395 bound_to 11000

$$$$
