AV-unprocessed.smi:428|AV-procd|sdf|2544|dock5
  -GOLD-   2262022503D 1   1.00000     0.00000
 Structure written by MMmdl.
 40 41  0  0  0  0  0  0  0  0  1 V2000
  145.7416  143.6284  161.9740 C   0  0  0  0  0  0  0  0  0  0  0  0
  146.0193  143.8675  160.4857 C   0  0  0  0  0  0  0  0  0  0  0  0
  146.9783  145.0483  160.2507 C   0  0  0  0  0  0  0  0  0  0  0  0
  148.4377  144.7196  160.5815 C   0  0  0  0  0  0  0  0  0  0  0  0
  148.7381  144.1999  161.6566 O   0  0  0  0  0  0  0  0  0  0  0  0
  149.3388  145.0218  159.6341 N   0  0  0  0  0  0  0  0  0  0  0  0
  150.7780  144.7971  159.7374 C   0  0  0  0  0  0  0  0  0  0  0  0
  151.2779  143.4750  159.1661 C   0  0  0  0  0  0  0  0  0  0  0  0
  152.2102  142.7140  159.8981 C   0  0  0  0  0  0  0  0  0  0  0  0
  152.6802  141.4999  159.3629 C   0  0  0  0  0  0  0  0  0  0  0  0
  152.2044  141.0728  158.1011 C   0  0  0  0  0  0  0  0  0  0  0  0
  152.6654  139.8605  157.5444 N   0  0  0  0  0  0  0  0  0  0  0  0
  152.7036  138.6820  158.4079 C   0  0  0  0  0  0  0  0  0  0  0  0
  153.4830  137.5447  157.7264 C   0  0  0  0  0  0  0  0  0  0  0  0
  152.9129  137.2714  156.4506 O   0  0  0  0  0  0  0  0  0  0  0  0
  152.9838  138.4008  155.5866 C   0  0  0  0  0  0  0  0  0  0  0  0
  152.1926  139.5727  156.1928 C   0  0  0  0  0  0  0  0  0  0  0  0
  151.3035  141.8030  157.3990 N   0  0  0  0  0  0  0  0  0  0  0  0
  150.8592  142.9681  157.9154 C   0  0  0  0  0  0  0  0  0  0  0  0
  145.0599  142.7888  162.1119 H   0  0  0  0  0  0  0  0  0  0  0  0
  145.2876  144.5055  162.4358 H   0  0  0  0  0  0  0  0  0  0  0  0
  146.6610  143.4023  162.5145 H   0  0  0  0  0  0  0  0  0  0  0  0
  146.4373  142.9584  160.0507 H   0  0  0  0  0  0  0  0  0  0  0  0
  145.0728  144.0489  159.9747 H   0  0  0  0  0  0  0  0  0  0  0  0
  146.9264  145.3683  159.2095 H   0  0  0  0  0  0  0  0  0  0  0  0
  146.6604  145.8992  160.8552 H   0  0  0  0  0  0  0  0  0  0  0  0
  149.0038  145.4426  158.7795 H   0  0  0  0  0  0  0  0  0  0  0  0
  151.2790  145.6056  159.2048 H   0  0  0  0  0  0  0  0  0  0  0  0
  151.0936  144.8782  160.7791 H   0  0  0  0  0  0  0  0  0  0  0  0
  152.5629  143.0550  160.8605 H   0  0  0  0  0  0  0  0  0  0  0  0
  153.3847  140.9072  159.9276 H   0  0  0  0  0  0  0  0  0  0  0  0
  153.1779  138.9274  159.3590 H   0  0  0  0  0  0  0  0  0  0  0  0
  151.6845  138.3581  158.6237 H   0  0  0  0  0  0  0  0  0  0  0  0
  154.5371  137.8053  157.6178 H   0  0  0  0  0  0  0  0  0  0  0  0
  153.4400  136.6421  158.3359 H   0  0  0  0  0  0  0  0  0  0  0  0
  154.0255  138.6802  155.4207 H   0  0  0  0  0  0  0  0  0  0  0  0
  152.5682  138.1310  154.6157 H   0  0  0  0  0  0  0  0  0  0  0  0
  151.1320  139.3218  156.2383 H   0  0  0  0  0  0  0  0  0  0  0  0
  152.2856  140.4398  155.5403 H   0  0  0  0  0  0  0  0  0  0  0  0
  150.1514  143.5026  157.2997 H   0  0  0  0  0  0  0  0  0  0  0  0
  1  2  1  0  0  0  0
  1 20  1  0  0  0  0
  1 21  1  0  0  0  0
  1 22  1  0  0  0  0
  2  3  1  0  0  0  0
  2 23  1  0  0  0  0
  2 24  1  0  0  0  0
  3  4  1  0  0  0  0
  3 25  1  0  0  0  0
  3 26  1  0  0  0  0
  4  5  2  0  0  0  0
  4  6  1  0  0  0  0
  6  7  1  0  0  0  0
  6 27  1  0  0  0  0
  7  8  1  0  0  0  0
  7 28  1  0  0  0  0
  7 29  1  0  0  0  0
  8 19  1  0  0  0  0
  8  9  2  0  0  0  0
  9 10  1  0  0  0  0
  9 30  1  0  0  0  0
 10 11  2  0  0  0  0
 10 31  1  0  0  0  0
 11 12  1  0  0  0  0
 11 18  1  0  0  0  0
 12 17  1  0  0  0  0
 12 13  1  0  0  0  0
 13 14  1  0  0  0  0
 13 32  1  0  0  0  0
 13 33  1  0  0  0  0
 14 15  1  0  0  0  0
 14 34  1  0  0  0  0
 14 35  1  0  0  0  0
 15 16  1  0  0  0  0
 16 17  1  0  0  0  0
 16 36  1  0  0  0  0
 16 37  1  0  0  0  0
 17 38  1  0  0  0  0
 17 39  1  0  0  0  0
 18 19  2  0  0  0  0
 19 40  1  0  0  0  0
M  END
> <s_m_source_file>
AV-unprocessed.smi

> <i_m_source_file_index>
428

> <i_lp_mmshare_version>
43012

> <i_f3d_flags>
0

> <s_epik_input>
W0NIM11bQ0gyXVtDSDJdQyg9TylbTkhdW0NIMl1jMVtjSF1bY0hdYyhuW2NIXTEpTjJbQ0gyXVtDSDJdT1tDSDJdW0NIMl0y

> <s_epik_cmdline>
J2VwaWtfcHl0aG9uJywgJy1waCcsICc3LjAnLCAnLXRuJywgJzgnLCAnLW1hJywgJzIwMCcsICctbWV0YWxfYmluZGluZycsICctaW1hZScsICc8aW5maWxlLm1hZT4nLCAnLW9tYWUnLCAnPG91dGZpbGUubWFlPic=

> <r_lp_tautomer_probability>
1

> <r_epik_Ionization_Penalty>
0.00505548

> <r_epik_Ionization_Penalty_Charging>
0

> <r_epik_Ionization_Penalty_Neutral>
0.00505548

> <r_epik_State_Penalty>
0.00367784

> <r_epik_Charging_Adjusted_Penalty>
0.00367784

> <i_epik_Tot_Q>
0

> <i_epik_Tot_abs_Q>
0

> <r_epik_Metal_State_Penalty>
-0

> <b_epik_Metal_Only>
0

> <s_lp_Force_Field>
OPLS_2005

> <r_lp_Energy>
16.3878

> <b_lp_Chiralities_Consistent>
1

> <s_lp_Variant>
AV-unprocessed.smi:428-1

> <Gold.Version>
5.8.1

> <Gold.Id.Protein>
6NUR|6NUR_protein|mol2

> <Gold.PLP.Fitness>
47.3903

> <Gold.PLP.PLP>
-36.3901

> <Gold.PLP.part.hbond>
-4.0000

> <Gold.PLP.part.metal>
0.0000

> <Gold.PLP.part.buried>
-6.7914

> <Gold.PLP.part.nonpolar>
-27.6143

> <Gold.PLP.part.repulsive>
0.4896

> <Gold.PLP.ligand.clash>
0.0000

> <Gold.PLP.ligand.torsion>
0.7010

> <Gold.PLP.Chemscore.Hbond>
3.0228

> <Gold.PLP.Chemscore.CHOScore>
1.0000

> <Gold.PLP.Chemscore.Metal>
0.0000

> <Gold.Chemscore.Hbonds>
donor molecule, donor type, donor heavy atom, donor atom, acceptor molecule, acceptor atom, score
      L1  H     6    27       P1  8029  1.00
      P1  H  6933  6944       L1     5  0.64
      P1  H  7997  8010       L1    12  0.40
      P1  H 10752 10765       L1    15  0.25
      L1  C    19    40       P1  8028  1.00

> <Gold.PLP.Chemscore.Internal.Correction>
0.3339

> <Gold.Rescore>
     Score         DG    S(hbond)    S(metal)    S(lipo)     H(rot)  DE(clash)    DE(int)     intcor
     17.40     -18.05       2.23        0.00      80.81       1.69       0.00       0.65       ----

> <Gold.Chemscore.Fitness>
17.3969

> <Gold.Chemscore.DG>
-18.0480

> <Gold.Chemscore.ZeroCoef>
-5.4800

> <Gold.Chemscore.Hbond>
2.2295

> <Gold.Chemscore.Metal>
0.0000

> <Gold.Chemscore.Lipo>
80.8072

> <Gold.Chemscore.Internal_Hbond>
0.0000

> <Gold.Chemscore.DEClash>
0.0004

> <Gold.Chemscore.DEInternal>
0.6507

> <Gold.Chemscore.Rot>
1.6926

> <Gold.Chemscore.Internal.Correction>
   9.000000E+99

> <Gold.Chemscore.Hbonds>
donor molecule, donor type, donor heavy atom, donor atom, acceptor molecule, acceptor atom, score
      L1  H     6    27       P1  8029  0.99
      P1  H  6933  6944       L1     5  0.42
      P1  H  7997  8010       L1    12  0.01
      P1  H 10752 10765       L1    15  0.10

> <Gold.Chemscore.Hbond.Weighted>
-7.4466

> <Gold.Chemscore.Metal.Weighted>
-0.0000

> <Gold.Chemscore.Lipo.Weighted>
-9.4544

> <Gold.Chemscore.Internal_Hbond.Weighted>
0.0000

> <Gold.Chemscore.DEClash.Weighted>
0.0004

> <Gold.Chemscore.DEInternal.Weighted>
0.6507

> <Gold.Chemscore.Rot.Weighted>
4.3330

> <Gold.Chemscore.Internal.Correction.Weighted>
   9.000000E+99

> <Gold.Protein.RotatedTorsions>
[ 6907 6896 6895 6894 ] final   42.76 input  -60.11 | X-H torsion
[ 7974 7965 7964 7962 ] final -139.53 input  175.53 | X-H torsion
[ 8008 7997 7996 7995 ] final   48.83 input   59.86 | X-H torsion
[ 10167 10162 10161 10158 ] final   84.68 input  -65.29 | X-H torsion
[ 10718 10713 10712 10709 ] final   51.27 input   66.30 | X-H torsion
[ 10763 10752 10751 10750 ] final -154.35 input  -60.55 | X-H torsion
[ 11005 11000 10999 10996 ] final  171.31 input  -57.11 | X-H torsion

> <Gold.Protein.ActiveResidues>
 VAL166  LYS551  ARG553  GLY616  TRP617  ASP618  TYR619  PRO620  LYS621  CYS622 
 ASP623  PHE694  ASN695  SER759  ASP760  ASP761  ALA762  ILE779  LEU786  VAL792 
 PHE793  MET794  SER795  GLU796  ALA797  LYS798  CYS799  TRP800  GLU811  SER814 

> <Gold.Protein.RotatedAtoms>
  152.2118  134.8494  160.0496 H   0  0  0  0  0  0  0  0  0  0  0  0  # atno 6907 bound_to 6896
  151.9309  133.3606  159.3939 H   0  0  0  0  0  0  0  0  0  0  0  0  # atno 6908 bound_to 6896
  150.6978  134.4463  159.5359 H   0  0  0  0  0  0  0  0  0  0  0  0  # atno 6909 bound_to 6896
  144.8670  140.6308  143.5291 H   0  0  0  0  0  0  0  0  0  0  0  0  # atno 7974 bound_to 7965
  155.3921  140.3434  155.4252 H   0  0  0  0  0  0  0  0  0  0  0  0  # atno 8008 bound_to 7997
  156.1551  140.1583  156.8738 H   0  0  0  0  0  0  0  0  0  0  0  0  # atno 8009 bound_to 7997
  154.5088  140.0795  156.7929 H   0  0  0  0  0  0  0  0  0  0  0  0  # atno 8010 bound_to 7997
  139.9055  144.6303  150.8592 H   0  0  0  0  0  0  0  0  0  0  0  0  # atno 10167 bound_to 10162
  157.4965  130.8410  149.8265 H   0  0  0  0  0  0  0  0  0  0  0  0  # atno 10718 bound_to 10713
  154.7865  135.3192  154.7874 H   0  0  0  0  0  0  0  0  0  0  0  0  # atno 10763 bound_to 10752
  153.8573  135.6856  153.4790 H   0  0  0  0  0  0  0  0  0  0  0  0  # atno 10764 bound_to 10752
  153.1518  135.4696  154.9587 H   0  0  0  0  0  0  0  0  0  0  0  0  # atno 10765 bound_to 10752
  140.3176  134.7464  157.4040 H   0  0  0  0  0  0  0  0  0  0  0  0  # atno 11005 bound_to 11000
  145.4203  139.1565  143.4078 LP  0  0  0  0  0  0  0  0  0  0  0  0  # atno 17320 bound_to 7965
  146.2903  140.4313  142.8742 LP  0  0  0  0  0  0  0  0  0  0  0  0  # atno 17321 bound_to 7965
  140.7697  143.3404  151.2219 LP  0  0  0  0  0  0  0  0  0  0  0  0  # atno 17342 bound_to 10162
  139.6988  143.9568  152.2895 LP  0  0  0  0  0  0  0  0  0  0  0  0  # atno 17343 bound_to 10162
  156.0204  130.3798  150.1981 LP  0  0  0  0  0  0  0  0  0  0  0  0  # atno 17370 bound_to 10713
  157.0170  130.9968  151.3350 LP  0  0  0  0  0  0  0  0  0  0  0  0  # atno 17371 bound_to 10713
  140.0969  134.5525  155.8389 LP  0  0  0  0  0  0  0  0  0  0  0  0  # atno 17394 bound_to 11000
  141.2094  133.6683  156.6436 LP  0  0  0  0  0  0  0  0  0  0  0  0  # atno 17395 bound_to 11000

$$$$
