AV-unprocessed.smi:653|AV-procd|sdf|3204|dock2
  -GOLD-   22720 0143D 1   1.00000     0.00000
 Structure written by MMmdl.
 44 45  0  0  0  0  0  0  0  0  1 V2000
  153.1078  142.2163  161.7015 C   0  0  0  0  0  0  0  0  0  0  0  0
  152.6263  142.5499  160.3051 C   0  0  0  0  0  0  0  0  0  0  0  0
  152.9845  143.7675  159.6890 C   0  0  0  0  0  0  0  0  0  0  0  0
  152.5035  144.0292  158.3918 C   0  0  0  0  0  0  0  0  0  0  0  0
  151.6850  143.0682  157.7627 C   0  0  0  0  0  0  0  0  0  0  0  0
  151.1362  143.3038  156.3649 C   0  0  0  0  0  0  0  0  0  0  0  0
  150.4464  142.0601  155.7915 C   0  0  0  0  0  0  0  0  0  0  0  0
  151.0324  140.9783  155.7251 O   0  0  0  0  0  0  0  0  0  0  0  0
  149.1831  142.2350  155.3758 N   0  0  0  0  0  0  0  0  0  0  0  0
  148.3479  141.1998  154.7767 C   0  0  0  0  0  0  0  0  0  0  0  0
  146.8554  141.5850  154.7952 C   0  0  2  0  0  0  0  0  0  0  0  0
  146.5267  142.8469  154.0209 C   0  0  0  0  0  0  0  0  0  0  0  0
  145.1687  143.2222  154.6022 C   0  0  0  0  0  0  0  0  0  0  0  0
  145.2150  142.8233  155.9681 O   0  0  0  0  0  0  0  0  0  0  0  0
  146.3174  141.9446  156.1887 C   0  0  1  0  0  0  0  0  0  0  0  0
  145.9120  140.7549  157.0896 C   0  0  0  0  0  0  0  0  0  0  0  0
  145.3197  141.1842  158.4446 C   0  0  0  0  0  0  0  0  0  0  0  0
  147.0972  139.7994  157.2986 C   0  0  0  0  0  0  0  0  0  0  0  0
  151.3873  141.8819  158.4665 C   0  0  0  0  0  0  0  0  0  0  0  0
  151.8431  141.6229  159.7109 N   0  0  0  0  0  0  0  0  0  0  0  0
  153.9454  142.8519  161.9904 H   0  0  0  0  0  0  0  0  0  0  0  0
  153.4359  141.1777  161.7579 H   0  0  0  0  0  0  0  0  0  0  0  0
  152.3027  142.3625  162.4217 H   0  0  0  0  0  0  0  0  0  0  0  0
  153.6124  144.4855  160.1959 H   0  0  0  0  0  0  0  0  0  0  0  0
  152.7598  144.9504  157.8895 H   0  0  0  0  0  0  0  0  0  0  0  0
  150.4238  144.1294  156.3835 H   0  0  0  0  0  0  0  0  0  0  0  0
  151.9525  143.6044  155.7066 H   0  0  0  0  0  0  0  0  0  0  0  0
  148.7746  143.1537  155.4702 H   0  0  0  0  0  0  0  0  0  0  0  0
  148.6772  141.0037  153.7550 H   0  0  0  0  0  0  0  0  0  0  0  0
  148.5057  140.2744  155.3316 H   0  0  0  0  0  0  0  0  0  0  0  0
  146.2675  140.7727  154.3692 H   0  0  0  0  0  0  0  0  0  0  0  0
  147.2549  143.6305  154.2357 H   0  0  0  0  0  0  0  0  0  0  0  0
  146.4958  142.6932  152.9418 H   0  0  0  0  0  0  0  0  0  0  0  0
  144.9490  144.2852  154.5023 H   0  0  0  0  0  0  0  0  0  0  0  0
  144.3755  142.6624  154.1049 H   0  0  0  0  0  0  0  0  0  0  0  0
  147.0803  142.5339  156.7009 H   0  0  0  0  0  0  0  0  0  0  0  0
  145.1426  140.1901  156.5624 H   0  0  0  0  0  0  0  0  0  0  0  0
  146.0251  141.7886  159.0154 H   0  0  0  0  0  0  0  0  0  0  0  0
  145.0685  140.3138  159.0514 H   0  0  0  0  0  0  0  0  0  0  0  0
  144.4036  141.7614  158.3272 H   0  0  0  0  0  0  0  0  0  0  0  0
  147.9168  140.2925  157.8220 H   0  0  0  0  0  0  0  0  0  0  0  0
  147.4824  139.4345  156.3463 H   0  0  0  0  0  0  0  0  0  0  0  0
  146.8031  138.9298  157.8867 H   0  0  0  0  0  0  0  0  0  0  0  0
  150.7658  141.1195  158.0204 H   0  0  0  0  0  0  0  0  0  0  0  0
  1  2  1  0  0  0  0
  1 21  1  0  0  0  0
  1 22  1  0  0  0  0
  1 23  1  0  0  0  0
  2 20  1  0  0  0  0
  2  3  2  0  0  0  0
  3  4  1  0  0  0  0
  3 24  1  0  0  0  0
  4  5  2  0  0  0  0
  4 25  1  0  0  0  0
  5  6  1  0  0  0  0
  5 19  1  0  0  0  0
  6  7  1  0  0  0  0
  6 26  1  0  0  0  0
  6 27  1  0  0  0  0
  7  8  2  0  0  0  0
  7  9  1  0  0  0  0
  9 10  1  0  0  0  0
  9 28  1  0  0  0  0
 10 11  1  0  0  0  0
 10 29  1  0  0  0  0
 10 30  1  0  0  0  0
 11 15  1  0  0  0  0
 11 12  1  0  0  0  0
 11 31  1  0  0  0  0
 12 13  1  0  0  0  0
 12 32  1  0  0  0  0
 12 33  1  0  0  0  0
 13 14  1  0  0  0  0
 13 34  1  0  0  0  0
 13 35  1  0  0  0  0
 14 15  1  0  0  0  0
 15 16  1  0  0  0  0
 15 36  1  0  0  0  0
 16 17  1  0  0  0  0
 16 18  1  0  0  0  0
 16 37  1  0  0  0  0
 17 38  1  0  0  0  0
 17 39  1  0  0  0  0
 17 40  1  0  0  0  0
 18 41  1  0  0  0  0
 18 42  1  0  0  0  0
 18 43  1  0  0  0  0
 19 20  2  0  0  0  0
 19 44  1  0  0  0  0
M  END
> <s_m_source_file>
AV-unprocessed.smi

> <i_m_source_file_index>
653

> <i_lp_mmshare_version>
43012

> <i_f3d_flags>
0

> <s_epik_input>
W0NIM11jMVtjSF1bY0hdYyhbY0hdbjEpW0NIMl1DKD1PKVtOSF1bQ0gyXVtDQEBIXTJbQ0gyXVtDSDJdT1tDQEhdMltDSF0oW0NIM10pW0NIM10=

> <s_epik_cmdline>
J2VwaWtfcHl0aG9uJywgJy1waCcsICc3LjAnLCAnLXRuJywgJzgnLCAnLW1hJywgJzIwMCcsICctbWV0YWxfYmluZGluZycsICctaW1hZScsICc8aW5maWxlLm1hZT4nLCAnLW9tYWUnLCAnPG91dGZpbGUubWFlPic=

> <r_epik_Ionization_Penalty>
0.0166429

> <r_epik_Ionization_Penalty_Charging>
0

> <r_epik_Ionization_Penalty_Neutral>
0.0166429

> <r_epik_State_Penalty>
0.0131478

> <r_epik_Charging_Adjusted_Penalty>
0.0131478

> <i_epik_Tot_Q>
0

> <i_epik_Tot_abs_Q>
0

> <r_epik_Metal_State_Penalty>
0.012786

> <b_epik_Metal_Only>
0

> <s_lp_Force_Field>
OPLS_2005

> <r_lp_Energy>
19.6488

> <b_lp_Chiralities_Consistent>
1

> <s_lp_Variant>
AV-unprocessed.smi:653-1

> <Gold.Version>
5.8.1

> <Gold.Id.Protein>
6NUR|6NUR_protein|mol2

> <Gold.PLP.Fitness>
40.7500

> <Gold.PLP.PLP>
-37.7669

> <Gold.PLP.part.hbond>
-2.1025

> <Gold.PLP.part.metal>
0.0000

> <Gold.PLP.part.buried>
-2.6764

> <Gold.PLP.part.nonpolar>
-32.4023

> <Gold.PLP.part.repulsive>
0.3642

> <Gold.PLP.ligand.clash>
0.0000

> <Gold.PLP.ligand.torsion>
0.2216

> <Gold.PLP.Chemscore.Hbond>
1.1310

> <Gold.PLP.Chemscore.CHOScore>
0.0000

> <Gold.PLP.Chemscore.Metal>
0.0000

> <Gold.Chemscore.Hbonds>
donor molecule, donor type, donor heavy atom, donor atom, acceptor molecule, acceptor atom, score
      L1  H     9    28       P1  8028  1.00
      P1  H  7989  7998       L1     8  0.23

> <Gold.PLP.Chemscore.Internal.Correction>
0.0332

> <Gold.Rescore>
     Score         DG    S(hbond)    S(metal)    S(lipo)     H(rot)  DE(clash)    DE(int)     intcor
     14.99     -18.05       1.31        0.00     102.51       1.48       1.76       1.31       ----

> <Gold.Chemscore.Fitness>
14.9873

> <Gold.Chemscore.DG>
-18.0528

> <Gold.Chemscore.ZeroCoef>
-5.4800

> <Gold.Chemscore.Hbond>
1.3114

> <Gold.Chemscore.Metal>
0.0000

> <Gold.Chemscore.Lipo>
102.5140

> <Gold.Chemscore.Internal_Hbond>
0.0000

> <Gold.Chemscore.DEClash>
1.7582

> <Gold.Chemscore.DEInternal>
1.3073

> <Gold.Chemscore.Rot>
1.4850

> <Gold.Chemscore.Internal.Correction>
   9.000000E+99

> <Gold.Chemscore.Hbonds>
donor molecule, donor type, donor heavy atom, donor atom, acceptor molecule, acceptor atom, score
      L1  H     9    28       P1  8028  0.94
      P1  H  7989  7998       L1     8  0.08

> <Gold.Chemscore.Hbond.Weighted>
-4.3802

> <Gold.Chemscore.Metal.Weighted>
-0.0000

> <Gold.Chemscore.Lipo.Weighted>
-11.9941

> <Gold.Chemscore.Internal_Hbond.Weighted>
0.0000

> <Gold.Chemscore.DEClash.Weighted>
1.7582

> <Gold.Chemscore.DEInternal.Weighted>
1.3073

> <Gold.Chemscore.Rot.Weighted>
3.8015

> <Gold.Chemscore.Internal.Correction.Weighted>
   9.000000E+99

> <Gold.Protein.RotatedTorsions>
[ 6907 6896 6895 6894 ] final  -16.22 input  -60.11 | X-H torsion
[ 7974 7965 7964 7962 ] final  113.12 input  175.53 | X-H torsion
[ 8008 7997 7996 7995 ] final  159.29 input   59.86 | X-H torsion
[ 10167 10162 10161 10158 ] final  152.98 input  -65.29 | X-H torsion
[ 10718 10713 10712 10709 ] final  -40.77 input   66.30 | X-H torsion
[ 10763 10752 10751 10750 ] final   77.38 input  -60.55 | X-H torsion
[ 11005 11000 10999 10996 ] final -172.81 input  -57.11 | X-H torsion

> <Gold.Protein.ActiveResidues>
 VAL166  LYS551  ARG553  GLY616  TRP617  ASP618  TYR619  PRO620  LYS621  CYS622 
 ASP623  PHE694  ASN695  SER759  ASP760  ASP761  ALA762  ILE779  LEU786  VAL792 
 PHE793  MET794  SER795  GLU796  ALA797  LYS798  CYS799  TRP800  GLU811  SER814 

> <Gold.Protein.RotatedAtoms>
  151.3119  135.0796  159.9275 H   0  0  0  0  0  0  0  0  0  0  0  0  # atno 6907 bound_to 6896
  152.5276  133.9727  159.7780 H   0  0  0  0  0  0  0  0  0  0  0  0  # atno 6908 bound_to 6896
  151.0032  133.5984  159.2722 H   0  0  0  0  0  0  0  0  0  0  0  0  # atno 6909 bound_to 6896
  145.2209  139.2862  143.4219 H   0  0  0  0  0  0  0  0  0  0  0  0  # atno 7974 bound_to 7965
  156.2248  140.1835  156.7389 H   0  0  0  0  0  0  0  0  0  0  0  0  # atno 8008 bound_to 7997
  154.5924  140.0648  156.9285 H   0  0  0  0  0  0  0  0  0  0  0  0  # atno 8009 bound_to 7997
  155.2314  140.3315  155.4305 H   0  0  0  0  0  0  0  0  0  0  0  0  # atno 8010 bound_to 7997
  139.4829  144.5312  151.7720 H   0  0  0  0  0  0  0  0  0  0  0  0  # atno 10167 bound_to 10162
  156.2777  130.4213  149.8370 H   0  0  0  0  0  0  0  0  0  0  0  0  # atno 10718 bound_to 10713
  153.0794  135.4916  154.8472 H   0  0  0  0  0  0  0  0  0  0  0  0  # atno 10763 bound_to 10752
  154.7131  135.3024  154.9168 H   0  0  0  0  0  0  0  0  0  0  0  0  # atno 10764 bound_to 10752
  153.9856  135.6784  153.4805 H   0  0  0  0  0  0  0  0  0  0  0  0  # atno 10765 bound_to 10752
  140.4927  134.5969  157.4960 H   0  0  0  0  0  0  0  0  0  0  0  0  # atno 11005 bound_to 11000
  146.3376  140.2514  142.8598 LP  0  0  0  0  0  0  0  0  0  0  0  0  # atno 17320 bound_to 7965
  144.9766  140.8420  143.5422 LP  0  0  0  0  0  0  0  0  0  0  0  0  # atno 17321 bound_to 7965
  140.4838  144.1411  150.5937 LP  0  0  0  0  0  0  0  0  0  0  0  0  # atno 17342 bound_to 10162
  140.4248  143.2595  151.9670 LP  0  0  0  0  0  0  0  0  0  0  0  0  # atno 17343 bound_to 10162
  156.5829  130.8473  151.3388 LP  0  0  0  0  0  0  0  0  0  0  0  0  # atno 17370 bound_to 10713
  157.7304  130.9685  150.1833 LP  0  0  0  0  0  0  0  0  0  0  0  0  # atno 17371 bound_to 10713
  139.9759  134.7216  155.9950 LP  0  0  0  0  0  0  0  0  0  0  0  0  # atno 17394 bound_to 11000
  141.1476  133.6553  156.3913 LP  0  0  0  0  0  0  0  0  0  0  0  0  # atno 17395 bound_to 11000

$$$$
