AV-unprocessed.smi:1951|AV-procd|sdf|7881|dock8
  -GOLD-   2272010 33D 1   1.00000     0.00000
 Structure written by MMmdl.
 46 47  0  0  0  0  0  0  0  0  2 V2000
  153.7050  143.6566  163.9793 C   0  0  0  0  0  0  0  0  0  0  0  0
  153.8499  142.5673  163.0744 O   0  0  0  0  0  0  0  0  0  0  0  0
  153.2748  142.6690  161.8220 C   0  0  0  0  0  0  0  0  0  0  0  0
  152.3980  143.6790  161.5941 N   0  0  0  0  0  0  0  0  0  0  0  0
  151.8343  143.7772  160.3726 C   0  0  0  0  0  0  0  0  0  0  0  0
  152.1054  142.8789  159.3242 C   0  0  0  0  0  0  0  0  0  0  0  0
  153.0153  141.8313  159.5576 C   0  0  0  0  0  0  0  0  0  0  0  0
  153.6273  141.7244  160.8300 C   0  0  0  0  0  0  0  0  0  0  0  0
  154.5440  140.6941  161.1754 N   0  0  0  0  0  0  0  0  0  0  0  0
  155.0217  139.7098  160.3959 C   0  0  0  0  0  0  0  0  0  0  0  0
  154.7302  139.5315  159.2133 O   0  0  0  0  0  0  0  0  0  0  0  0
  155.8948  138.9422  161.0633 N   0  0  0  0  0  0  0  0  0  0  0  0
  156.6173  137.8125  160.4905 C   0  0  0  0  0  0  0  0  0  0  0  0
  155.7314  136.5533  160.4292 C   0  0  0  0  0  0  0  0  0  0  0  0
  155.6393  135.8603  161.7389 N   0  3  2  0  0  0  0  0  0  0  0  0
  155.3139  134.4184  161.5873 C   0  0  0  0  0  0  0  0  0  0  0  0
  155.3514  133.6922  162.9423 C   0  0  0  0  0  0  0  0  0  0  0  0
  154.3970  134.3487  163.9533 C   0  0  1  0  0  0  0  0  0  0  0  0
  154.4459  133.6481  165.3183 C   0  0  0  0  0  0  0  0  0  0  0  0
  154.7341  135.8446  164.0667 C   0  0  0  0  0  0  0  0  0  0  0  0
  154.7113  136.5295  162.6895 C   0  0  0  0  0  0  0  0  0  0  0  0
  154.2152  143.4198  164.9127 H   0  0  0  0  0  0  0  0  0  0  0  0
  152.6563  143.8438  164.2144 H   0  0  0  0  0  0  0  0  0  0  0  0
  154.1515  144.5689  163.5810 H   0  0  0  0  0  0  0  0  0  0  0  0
  151.1412  144.5927  160.2286 H   0  0  0  0  0  0  0  0  0  0  0  0
  151.6223  142.9884  158.3646 H   0  0  0  0  0  0  0  0  0  0  0  0
  153.2143  141.1250  158.7663 H   0  0  0  0  0  0  0  0  0  0  0  0
  154.9461  140.7679  162.0986 H   0  0  0  0  0  0  0  0  0  0  0  0
  156.0761  139.1591  162.0328 H   0  0  0  0  0  0  0  0  0  0  0  0
  156.9383  138.0897  159.4861 H   0  0  0  0  0  0  0  0  0  0  0  0
  157.5252  137.6389  161.0688 H   0  0  0  0  0  0  0  0  0  0  0  0
  154.7282  136.7923  160.0725 H   0  0  0  0  0  0  0  0  0  0  0  0
  156.1646  135.8755  159.6920 H   0  0  0  0  0  0  0  0  0  0  0  0
  154.3289  134.3125  161.1294 H   0  0  0  0  0  0  0  0  0  0  0  0
  156.0298  133.9472  160.9131 H   0  0  0  0  0  0  0  0  0  0  0  0
  155.0846  132.6439  162.8033 H   0  0  0  0  0  0  0  0  0  0  0  0
  156.3699  133.7027  163.3330 H   0  0  0  0  0  0  0  0  0  0  0  0
  153.3793  134.2574  163.5704 H   0  0  0  0  0  0  0  0  0  0  0  0
  155.4411  133.7072  165.7601 H   0  0  0  0  0  0  0  0  0  0  0  0
  154.1846  132.5935  165.2270 H   0  0  0  0  0  0  0  0  0  0  0  0
  153.7433  134.1016  166.0179 H   0  0  0  0  0  0  0  0  0  0  0  0
  154.0240  136.3373  164.7321 H   0  0  0  0  0  0  0  0  0  0  0  0
  155.7190  135.9702  164.5193 H   0  0  0  0  0  0  0  0  0  0  0  0
  154.9853  137.5764  162.8143 H   0  0  0  0  0  0  0  0  0  0  0  0
  153.6989  136.5164  162.2823 H   0  0  0  0  0  0  0  0  0  0  0  0
  156.5617  135.8980  162.1486 H   0  0  0  0  0  0  0  0  0  0  0  0
  1  2  1  0  0  0  0
  1 22  1  0  0  0  0
  1 23  1  0  0  0  0
  1 24  1  0  0  0  0
  2  3  1  0  0  0  0
  3  8  1  0  0  0  0
  3  4  2  0  0  0  0
  4  5  1  0  0  0  0
  5  6  2  0  0  0  0
  5 25  1  0  0  0  0
  6  7  1  0  0  0  0
  6 26  1  0  0  0  0
  7  8  2  0  0  0  0
  7 27  1  0  0  0  0
  8  9  1  0  0  0  0
  9 10  1  0  0  0  0
  9 28  1  0  0  0  0
 10 11  2  0  0  0  0
 10 12  1  0  0  0  0
 12 13  1  0  0  0  0
 12 29  1  0  0  0  0
 13 14  1  0  0  0  0
 13 30  1  0  0  0  0
 13 31  1  0  0  0  0
 14 15  1  0  0  0  0
 14 32  1  0  0  0  0
 14 33  1  0  0  0  0
 15 21  1  0  0  0  0
 15 16  1  0  0  0  0
 15 46  1  0  0  0  0
 16 17  1  0  0  0  0
 16 34  1  0  0  0  0
 16 35  1  0  0  0  0
 17 18  1  0  0  0  0
 17 36  1  0  0  0  0
 17 37  1  0  0  0  0
 18 19  1  0  0  0  0
 18 20  1  0  0  0  0
 18 38  1  0  0  0  0
 19 39  1  0  0  0  0
 19 40  1  0  0  0  0
 19 41  1  0  0  0  0
 20 21  1  0  0  0  0
 20 42  1  0  0  0  0
 20 43  1  0  0  0  0
 21 44  1  0  0  0  0
 21 45  1  0  0  0  0
M  CHG  1  15   1
M  END
> <s_m_source_file>
AV-unprocessed.smi

> <i_m_source_file_index>
1951

> <i_lp_mmshare_version>
43012

> <i_f3d_flags>
0

> <s_epik_input>
W0NIM11PYzFuW2NIXVtjSF1bY0hdYzFbTkhdQyg9TylbTkhdW0NIMl1bQ0gyXU4yW0NIMl1bQ0gyXVtDSF0oW0NIM10pW0NIMl1bQ0gyXTI=

> <s_epik_cmdline>
J2VwaWtfcHl0aG9uJywgJy1waCcsICc3LjAnLCAnLXRuJywgJzgnLCAnLW1hJywgJzIwMCcsICctbWV0YWxfYmluZGluZycsICctaW1hZScsICc8aW5maWxlLm1hZT4nLCAnLW9tYWUnLCAnPG91dGZpbGUubWFlPic=

> <r_lp_tautomer_probability>
1

> <r_epik_Ionization_Penalty>
0.00147101

> <r_epik_Ionization_Penalty_Charging>
0.00139388

> <r_epik_Ionization_Penalty_Neutral>
7.71355e-05

> <r_epik_State_Penalty>
0.000929204

> <r_epik_Charging_Adjusted_Penalty>
0.00232308

> <i_epik_Tot_Q>
1

> <i_epik_Tot_abs_Q>
1

> <r_epik_Metal_State_Penalty>
-0

> <b_epik_Metal_Only>
0

> <s_lp_Force_Field>
OPLS_2005

> <r_lp_Energy>
18.8997

> <b_lp_Chiralities_Consistent>
1

> <s_lp_Variant>
AV-unprocessed.smi:1951-1

> <Gold.Version>
5.8.1

> <Gold.Id.Protein>
6NUR|6NUR_protein|mol2

> <Gold.PLP.Fitness>
40.9717

> <Gold.PLP.PLP>
-39.0907

> <Gold.PLP.part.hbond>
-1.6706

> <Gold.PLP.part.metal>
0.0000

> <Gold.PLP.part.buried>
-4.5212

> <Gold.PLP.part.nonpolar>
-31.4063

> <Gold.PLP.part.repulsive>
0.2127

> <Gold.PLP.ligand.clash>
0.0000

> <Gold.PLP.ligand.torsion>
0.5688

> <Gold.PLP.Chemscore.Hbond>
1.0000

> <Gold.PLP.Chemscore.CHOScore>
0.0000

> <Gold.PLP.Chemscore.Metal>
0.0000

> <Gold.Chemscore.Hbonds>
donor molecule, donor type, donor heavy atom, donor atom, acceptor molecule, acceptor atom, score
      P1  H  7997  8008       L1    11  1.00

> <Gold.PLP.Chemscore.Internal.Correction>
0.0186

> <Gold.Rescore>
     Score         DG    S(hbond)    S(metal)    S(lipo)     H(rot)  DE(clash)    DE(int)     intcor
     14.74     -16.57       0.99        0.00     103.82       1.71       0.05       1.78       ----

> <Gold.Chemscore.Fitness>
14.7417

> <Gold.Chemscore.DG>
-16.5691

> <Gold.Chemscore.ZeroCoef>
-5.4800

> <Gold.Chemscore.Hbond>
0.9943

> <Gold.Chemscore.Metal>
0.0000

> <Gold.Chemscore.Lipo>
103.8250

> <Gold.Chemscore.Internal_Hbond>
0.0000

> <Gold.Chemscore.DEClash>
0.0476

> <Gold.Chemscore.DEInternal>
1.7798

> <Gold.Chemscore.Rot>
1.7107

> <Gold.Chemscore.Internal.Correction>
   9.000000E+99

> <Gold.Chemscore.Hbonds>
donor molecule, donor type, donor heavy atom, donor atom, acceptor molecule, acceptor atom, score
      P1  H  7997  8008       L1    11  0.98

> <Gold.Chemscore.Hbond.Weighted>
-3.3210

> <Gold.Chemscore.Metal.Weighted>
-0.0000

> <Gold.Chemscore.Lipo.Weighted>
-12.1475

> <Gold.Chemscore.Internal_Hbond.Weighted>
0.0000

> <Gold.Chemscore.DEClash.Weighted>
0.0476

> <Gold.Chemscore.DEInternal.Weighted>
1.7798

> <Gold.Chemscore.Rot.Weighted>
4.3794

> <Gold.Chemscore.Internal.Correction.Weighted>
   9.000000E+99

> <Gold.Protein.RotatedTorsions>
[ 6907 6896 6895 6894 ] final -133.40 input  -60.11 | X-H torsion
[ 7974 7965 7964 7962 ] final    5.45 input  175.53 | X-H torsion
[ 8008 7997 7996 7995 ] final -126.16 input   59.86 | X-H torsion
[ 10167 10162 10161 10158 ] final   62.84 input  -65.29 | X-H torsion
[ 10718 10713 10712 10709 ] final  123.47 input   66.30 | X-H torsion
[ 10763 10752 10751 10750 ] final -163.36 input  -60.55 | X-H torsion
[ 11005 11000 10999 10996 ] final  118.57 input  -57.11 | X-H torsion

> <Gold.Protein.ActiveResidues>
 VAL166  LYS551  ARG553  GLY616  TRP617  ASP618  TYR619  PRO620  LYS621  CYS622 
 ASP623  PHE694  ASN695  SER759  ASP760  ASP761  ALA762  ILE779  LEU786  VAL792 
 PHE793  MET794  SER795  GLU796  ALA797  LYS798  CYS799  TRP800  GLU811  SER814 

> <Gold.Protein.RotatedAtoms>
  150.9735  133.6319  159.2733 H   0  0  0  0  0  0  0  0  0  0  0  0  # atno 6907 bound_to 6896
  151.3599  135.0901  159.9441 H   0  0  0  0  0  0  0  0  0  0  0  0  # atno 6908 bound_to 6896
  152.5191  133.9311  159.7635 H   0  0  0  0  0  0  0  0  0  0  0  0  # atno 6909 bound_to 6896
  146.2440  140.0382  142.8384 H   0  0  0  0  0  0  0  0  0  0  0  0  # atno 7974 bound_to 7965
  155.2251  140.0423  157.2954 H   0  0  0  0  0  0  0  0  0  0  0  0  # atno 8008 bound_to 7997
  154.5924  140.2430  155.7873 H   0  0  0  0  0  0  0  0  0  0  0  0  # atno 8009 bound_to 7997
  156.2268  140.2952  156.0096 H   0  0  0  0  0  0  0  0  0  0  0  0  # atno 8010 bound_to 7997
  140.1396  144.4566  150.6819 H   0  0  0  0  0  0  0  0  0  0  0  0  # atno 10167 bound_to 10162
  157.5662  131.1086  150.8450 H   0  0  0  0  0  0  0  0  0  0  0  0  # atno 10718 bound_to 10713
  154.7130  135.3010  154.9168 H   0  0  0  0  0  0  0  0  0  0  0  0  # atno 10763 bound_to 10752
  154.0063  135.6700  153.4766 H   0  0  0  0  0  0  0  0  0  0  0  0  # atno 10764 bound_to 10752
  153.0770  135.5029  154.8339 H   0  0  0  0  0  0  0  0  0  0  0  0  # atno 10765 bound_to 10752
  139.9114  134.9621  156.7523 H   0  0  0  0  0  0  0  0  0  0  0  0  # atno 11005 bound_to 11000
  145.1093  140.9395  143.4666 LP  0  0  0  0  0  0  0  0  0  0  0  0  # atno 17320 bound_to 7965
  145.0592  139.3119  143.5889 LP  0  0  0  0  0  0  0  0  0  0  0  0  # atno 17321 bound_to 7965
  140.6768  143.2309  151.5485 LP  0  0  0  0  0  0  0  0  0  0  0  0  # atno 17342 bound_to 10162
  139.5479  144.2473  152.1476 LP  0  0  0  0  0  0  0  0  0  0  0  0  # atno 17343 bound_to 10162
  156.8934  130.5221  149.5285 LP  0  0  0  0  0  0  0  0  0  0  0  0  # atno 17370 bound_to 10713
  156.0710  130.5743  150.9383 LP  0  0  0  0  0  0  0  0  0  0  0  0  # atno 17371 bound_to 10713
  140.6764  133.9514  155.7885 LP  0  0  0  0  0  0  0  0  0  0  0  0  # atno 17394 bound_to 11000
  141.0541  134.0441  157.3745 LP  0  0  0  0  0  0  0  0  0  0  0  0  # atno 17395 bound_to 11000

$$$$
