AV-unprocessed.smi:1762|AV-procd|sdf|7101|dock7
  -GOLD-   22720 8323D 1   1.00000     0.00000
 Structure written by MMmdl.
 52 53  0  0  0  0  0  0  0  0  1 V2000
  152.0024  138.0328  154.3683 C   0  0  0  0  0  0  0  0  0  0  0  0
  150.9077  138.9076  154.9895 C   0  0  2  0  0  0  0  0  0  0  0  0
  149.6119  138.8956  154.1583 C   0  0  0  0  0  0  0  0  0  0  0  0
  148.5837  139.8006  154.6984 N   0  0  0  0  0  0  0  0  0  0  0  0
  147.2899  139.7789  153.9596 C   0  0  1  0  0  0  0  0  0  0  0  0
  146.7349  138.3527  153.7314 C   0  0  0  0  0  0  0  0  0  0  0  0
  147.3154  137.3745  154.2039 O   0  0  0  0  0  0  0  0  0  0  0  0
  145.6167  138.2532  152.9954 N   0  0  0  0  0  0  0  0  0  0  0  0
  144.9302  137.0066  152.6795 C   0  0  0  0  0  0  0  0  0  0  0  0
  145.5817  136.2906  151.4844 C   0  0  0  0  0  0  0  0  0  0  0  0
  145.1936  134.8260  151.4122 C   0  0  0  0  0  0  0  0  0  0  0  0
  143.8494  134.4291  151.5755 C   0  0  0  0  0  0  0  0  0  0  0  0
  143.5422  133.0563  151.5086 C   0  0  0  0  0  0  0  0  0  0  0  0
  144.5857  132.1380  151.2834 C   0  0  0  0  0  0  0  0  0  0  0  0
  145.8958  132.6356  151.1355 C   0  0  0  0  0  0  0  0  0  0  0  0
  146.2013  133.9497  151.1991 N   0  0  0  0  0  0  0  0  0  0  0  0
  146.1787  140.7117  154.5501 C   0  0  0  0  0  0  0  0  0  0  0  0
  146.4074  142.2086  154.2617 C   0  0  0  0  0  0  0  0  0  0  0  0
  145.9196  140.4908  156.0549 C   0  0  0  0  0  0  0  0  0  0  0  0
  149.1609  141.1469  154.8021 C   0  0  0  0  0  0  0  0  0  0  0  0
  150.4803  141.1900  155.5990 C   0  0  1  0  0  0  0  0  0  0  0  0
  150.2811  141.0307  157.1168 C   0  0  0  0  0  0  0  0  0  0  0  0
  151.4061  140.2379  155.0801 O   0  0  0  0  0  0  0  0  0  0  0  0
  151.6776  136.9951  154.2893 H   0  0  0  0  0  0  0  0  0  0  0  0
  152.9074  138.0516  154.9759 H   0  0  0  0  0  0  0  0  0  0  0  0
  152.2653  138.3789  153.3684 H   0  0  0  0  0  0  0  0  0  0  0  0
  150.6994  138.5288  155.9905 H   0  0  0  0  0  0  0  0  0  0  0  0
  149.8339  139.1671  153.1248 H   0  0  0  0  0  0  0  0  0  0  0  0
  149.2671  137.8626  154.1403 H   0  0  0  0  0  0  0  0  0  0  0  0
  147.4991  140.1695  152.9613 H   0  0  0  0  0  0  0  0  0  0  0  0
  145.2058  139.1039  152.6389 H   0  0  0  0  0  0  0  0  0  0  0  0
  144.9680  136.3681  153.5625 H   0  0  0  0  0  0  0  0  0  0  0  0
  143.8747  137.2011  152.4812 H   0  0  0  0  0  0  0  0  0  0  0  0
  145.2986  136.7783  150.5505 H   0  0  0  0  0  0  0  0  0  0  0  0
  146.6681  136.3672  151.5504 H   0  0  0  0  0  0  0  0  0  0  0  0
  143.0717  135.1581  151.7504 H   0  0  0  0  0  0  0  0  0  0  0  0
  142.5251  132.7139  151.6297 H   0  0  0  0  0  0  0  0  0  0  0  0
  144.3875  131.0780  151.2257 H   0  0  0  0  0  0  0  0  0  0  0  0
  146.7203  131.9599  150.9630 H   0  0  0  0  0  0  0  0  0  0  0  0
  145.2344  140.4397  154.0815 H   0  0  0  0  0  0  0  0  0  0  0  0
  147.2964  142.5889  154.7641 H   0  0  0  0  0  0  0  0  0  0  0  0
  145.5611  142.8034  154.6060 H   0  0  0  0  0  0  0  0  0  0  0  0
  146.5215  142.3989  153.1944 H   0  0  0  0  0  0  0  0  0  0  0  0
  146.7489  140.8405  156.6705 H   0  0  0  0  0  0  0  0  0  0  0  0
  145.7585  139.4357  156.2766 H   0  0  0  0  0  0  0  0  0  0  0  0
  145.0297  141.0312  156.3787 H   0  0  0  0  0  0  0  0  0  0  0  0
  149.3400  141.5439  153.8014 H   0  0  0  0  0  0  0  0  0  0  0  0
  148.4719  141.8355  155.2866 H   0  0  0  0  0  0  0  0  0  0  0  0
  150.9335  142.1690  155.4418 H   0  0  0  0  0  0  0  0  0  0  0  0
  149.6735  141.8438  157.5148 H   0  0  0  0  0  0  0  0  0  0  0  0
  151.2377  141.0481  157.6390 H   0  0  0  0  0  0  0  0  0  0  0  0
  149.7777  140.0977  157.3695 H   0  0  0  0  0  0  0  0  0  0  0  0
  1  2  1  0  0  0  0
  1 24  1  0  0  0  0
  1 25  1  0  0  0  0
  1 26  1  0  0  0  0
  2 23  1  0  0  0  0
  2  3  1  0  0  0  0
  2 27  1  0  0  0  0
  3  4  1  0  0  0  0
  3 28  1  0  0  0  0
  3 29  1  0  0  0  0
  4  5  1  0  0  0  0
  4 20  1  0  0  0  0
  5  6  1  0  0  0  0
  5 17  1  0  0  0  0
  5 30  1  0  0  0  0
  6  7  2  0  0  0  0
  6  8  1  0  0  0  0
  8  9  1  0  0  0  0
  8 31  1  0  0  0  0
  9 10  1  0  0  0  0
  9 32  1  0  0  0  0
  9 33  1  0  0  0  0
 10 11  1  0  0  0  0
 10 34  1  0  0  0  0
 10 35  1  0  0  0  0
 11 16  1  0  0  0  0
 11 12  2  0  0  0  0
 12 13  1  0  0  0  0
 12 36  1  0  0  0  0
 13 14  2  0  0  0  0
 13 37  1  0  0  0  0
 14 15  1  0  0  0  0
 14 38  1  0  0  0  0
 15 16  2  0  0  0  0
 15 39  1  0  0  0  0
 17 18  1  0  0  0  0
 17 19  1  0  0  0  0
 17 40  1  0  0  0  0
 18 41  1  0  0  0  0
 18 42  1  0  0  0  0
 18 43  1  0  0  0  0
 19 44  1  0  0  0  0
 19 45  1  0  0  0  0
 19 46  1  0  0  0  0
 20 21  1  0  0  0  0
 20 47  1  0  0  0  0
 20 48  1  0  0  0  0
 21 22  1  0  0  0  0
 21 23  1  0  0  0  0
 21 49  1  0  0  0  0
 22 50  1  0  0  0  0
 22 51  1  0  0  0  0
 22 52  1  0  0  0  0
M  END
> <s_m_source_file>
AV-unprocessed.smi

> <i_m_source_file_index>
1762

> <i_lp_mmshare_version>
43012

> <i_f3d_flags>
0

> <s_epik_input>
W0NIM11bQ0BASF0xW0NIMl1OKFtDSDJdW0NASF0oTzEpW0NIM10pW0NAQEhdKFtDSF0oW0NIM10pW0NIM10pQyg9TylbTkhdW0NIMl1bQ0gyXWMyW2NIXVtjSF1bY0hdW2NIXW4y

> <s_epik_cmdline>
J2VwaWtfcHl0aG9uJywgJy1waCcsICc3LjAnLCAnLXRuJywgJzgnLCAnLW1hJywgJzIwMCcsICctbWV0YWxfYmluZGluZycsICctaW1hZScsICc8aW5maWxlLm1hZT4nLCAnLW9tYWUnLCAnPG91dGZpbGUubWFlPic=

> <r_epik_Ionization_Penalty>
0.0399736

> <r_epik_Ionization_Penalty_Charging>
0

> <r_epik_Ionization_Penalty_Neutral>
0.0399736

> <r_epik_State_Penalty>
0.0317634

> <r_epik_Charging_Adjusted_Penalty>
0.0317634

> <i_epik_Tot_Q>
0

> <i_epik_Tot_abs_Q>
0

> <r_epik_Metal_State_Penalty>
0.0307795

> <b_epik_Metal_Only>
0

> <s_lp_Force_Field>
OPLS_2005

> <r_lp_Energy>
29.8059

> <b_lp_Chiralities_Consistent>
1

> <s_lp_Variant>
AV-unprocessed.smi:1762-3

> <Gold.Version>
5.8.1

> <Gold.Id.Protein>
6NUR|6NUR_protein|mol2

> <Gold.PLP.Fitness>
48.3915

> <Gold.PLP.PLP>
-40.7320

> <Gold.PLP.part.hbond>
-2.0000

> <Gold.PLP.part.metal>
0.0000

> <Gold.PLP.part.buried>
-6.1750

> <Gold.PLP.part.nonpolar>
-33.8138

> <Gold.PLP.part.repulsive>
1.2193

> <Gold.PLP.ligand.clash>
0.0000

> <Gold.PLP.ligand.torsion>
0.7706

> <Gold.PLP.Chemscore.Hbond>
2.0000

> <Gold.PLP.Chemscore.CHOScore>
0.9841

> <Gold.PLP.Chemscore.Metal>
0.0000

> <Gold.Chemscore.Hbonds>
donor molecule, donor type, donor heavy atom, donor atom, acceptor molecule, acceptor atom, score
      L1  H     8    31       P1 10175  0.96
      P1  H  7989  7998       L1    23  1.00
      L1  C    15    39       P1 10747  0.82

> <Gold.PLP.Chemscore.Internal.Correction>
0.2483

> <Gold.Rescore>
     Score         DG    S(hbond)    S(metal)    S(lipo)     H(rot)  DE(clash)    DE(int)     intcor
     15.12     -17.68       1.45        0.00      98.02       1.60       0.06       2.50       ----

> <Gold.Chemscore.Fitness>
15.1212

> <Gold.Chemscore.DG>
-17.6816

> <Gold.Chemscore.ZeroCoef>
-5.4800

> <Gold.Chemscore.Hbond>
1.4453

> <Gold.Chemscore.Metal>
0.0000

> <Gold.Chemscore.Lipo>
98.0193

> <Gold.Chemscore.Internal_Hbond>
0.0000

> <Gold.Chemscore.DEClash>
0.0626

> <Gold.Chemscore.DEInternal>
2.4977

> <Gold.Chemscore.Rot>
1.5993

> <Gold.Chemscore.Internal.Correction>
   9.000000E+99

> <Gold.Chemscore.Hbonds>
donor molecule, donor type, donor heavy atom, donor atom, acceptor molecule, acceptor atom, score
      L1  H     8    31       P1 10175  0.87
      P1  H  7989  7998       L1    23  0.18

> <Gold.Chemscore.Hbond.Weighted>
-4.8274

> <Gold.Chemscore.Metal.Weighted>
-0.0000

> <Gold.Chemscore.Lipo.Weighted>
-11.4683

> <Gold.Chemscore.Internal_Hbond.Weighted>
0.0000

> <Gold.Chemscore.DEClash.Weighted>
0.0626

> <Gold.Chemscore.DEInternal.Weighted>
2.4977

> <Gold.Chemscore.Rot.Weighted>
4.0941

> <Gold.Chemscore.Internal.Correction.Weighted>
   9.000000E+99

> <Gold.Protein.RotatedTorsions>
[ 6907 6896 6895 6894 ] final  146.10 input  -60.11 | X-H torsion
[ 7974 7965 7964 7962 ] final   68.60 input  175.53 | X-H torsion
[ 8008 7997 7996 7995 ] final -128.93 input   59.86 | X-H torsion
[ 10167 10162 10161 10158 ] final   96.26 input  -65.29 | X-H torsion
[ 10718 10713 10712 10709 ] final  152.11 input   66.30 | X-H torsion
[ 10763 10752 10751 10750 ] final -107.65 input  -60.55 | X-H torsion
[ 11005 11000 10999 10996 ] final   24.14 input  -57.11 | X-H torsion

> <Gold.Protein.ActiveResidues>
 VAL166  LYS551  ARG553  GLY616  TRP617  ASP618  TYR619  PRO620  LYS621  CYS622 
 ASP623  PHE694  ASN695  SER759  ASP760  ASP761  ALA762  ILE779  LEU786  VAL792 
 PHE793  MET794  SER795  GLU796  ALA797  LYS798  CYS799  TRP800  GLU811  SER814 

> <Gold.Protein.RotatedAtoms>
  152.1723  133.4651  159.4914 H   0  0  0  0  0  0  0  0  0  0  0  0  # atno 6907 bound_to 6896
  150.6921  134.1938  159.4304 H   0  0  0  0  0  0  0  0  0  0  0  0  # atno 6908 bound_to 6896
  151.9845  135.0011  160.0609 H   0  0  0  0  0  0  0  0  0  0  0  0  # atno 6909 bound_to 6896
  145.8006  139.2980  143.1157 H   0  0  0  0  0  0  0  0  0  0  0  0  # atno 7974 bound_to 7965
  155.2709  140.0440  157.3007 H   0  0  0  0  0  0  0  0  0  0  0  0  # atno 8008 bound_to 7997
  154.5654  140.2358  155.8240 H   0  0  0  0  0  0  0  0  0  0  0  0  # atno 8009 bound_to 7997
  156.2081  140.3007  155.9678 H   0  0  0  0  0  0  0  0  0  0  0  0  # atno 8010 bound_to 7997
  139.7911  144.6851  150.9891 H   0  0  0  0  0  0  0  0  0  0  0  0  # atno 10167 bound_to 10162
  157.2620  131.0800  151.1659 H   0  0  0  0  0  0  0  0  0  0  0  0  # atno 10718 bound_to 10713
  154.8088  135.4667  154.0461 H   0  0  0  0  0  0  0  0  0  0  0  0  # atno 10763 bound_to 10752
  153.1909  135.6855  153.8361 H   0  0  0  0  0  0  0  0  0  0  0  0  # atno 10764 bound_to 10752
  153.7879  135.3247  155.3352 H   0  0  0  0  0  0  0  0  0  0  0  0  # atno 10765 bound_to 10752
  140.3619  134.2116  155.7671 H   0  0  0  0  0  0  0  0  0  0  0  0  # atno 11005 bound_to 11000
  145.9881  140.8626  143.0080 LP  0  0  0  0  0  0  0  0  0  0  0  0  # atno 17320 bound_to 7965
  144.6769  140.2177  143.7370 LP  0  0  0  0  0  0  0  0  0  0  0  0  # atno 17321 bound_to 7965
  140.7820  143.4379  151.0595 LP  0  0  0  0  0  0  0  0  0  0  0  0  # atno 17342 bound_to 10162
  139.8056  143.8022  152.3167 LP  0  0  0  0  0  0  0  0  0  0  0  0  # atno 17343 bound_to 10162
  157.3165  130.6915  149.6245 LP  0  0  0  0  0  0  0  0  0  0  0  0  # atno 17370 bound_to 10713
  155.9664  130.4348  150.5065 LP  0  0  0  0  0  0  0  0  0  0  0  0  # atno 17371 bound_to 10713
  141.1981  133.8043  157.0597 LP  0  0  0  0  0  0  0  0  0  0  0  0  # atno 17394 bound_to 11000
  140.0619  134.9750  157.1320 LP  0  0  0  0  0  0  0  0  0  0  0  0  # atno 17395 bound_to 11000

$$$$
