AV-unprocessed.smi:3211|AV-procd|sdf|12275|dock1
  -GOLD-   2272018113D 1   1.00000     0.00000
 Structure written by MMmdl.
 34 35  0  0  0  0  0  0  0  0  1 V2000
  152.9427  142.6627  161.9713 C   0  0  0  0  0  0  0  0  0  0  0  0
  153.4713  142.2509  160.5933 C   0  0  0  0  0  0  0  0  0  0  0  0
  152.6395  142.7857  159.4764 C   0  0  0  0  0  0  0  0  0  0  0  0
  152.0842  142.0169  158.5360 N   0  0  0  0  0  0  0  0  0  0  0  0
  151.3442  142.7541  157.6068 C   0  0  0  0  0  0  0  0  0  0  0  0
  150.7011  142.0610  156.4408 C   0  0  0  0  0  0  0  0  0  0  0  0
  149.7354  140.9313  156.8497 C   0  0  0  0  0  0  0  0  0  0  0  0
  148.5909  140.8210  155.9465 N   0  0  0  0  0  0  0  0  0  0  0  0
  148.6225  141.0152  154.6180 C   0  0  0  0  0  0  0  0  0  0  0  0
  149.6559  141.2895  154.0066 O   0  0  0  0  0  0  0  0  0  0  0  0
  147.2832  140.8924  153.9606 C   0  0  1  0  0  0  0  0  0  0  0  0
  147.1428  139.8978  152.8252 C   0  0  0  0  0  0  0  0  0  0  0  0
  146.4502  139.6301  154.1401 C   0  0  1  0  0  0  0  0  0  0  0  0
  146.8579  138.4521  155.0072 C   0  0  0  0  0  0  0  0  0  0  0  0
  151.3137  144.0984  157.8829 C   0  0  0  0  0  0  0  0  0  0  0  0
  152.2403  144.4907  159.3040 S   0  0  0  0  0  0  0  0  0  0  0  0
  153.5725  142.2608  162.7652 H   0  0  0  0  0  0  0  0  0  0  0  0
  151.9293  142.2931  162.1302 H   0  0  0  0  0  0  0  0  0  0  0  0
  152.9253  143.7479  162.0768 H   0  0  0  0  0  0  0  0  0  0  0  0
  154.4943  142.6058  160.4659 H   0  0  0  0  0  0  0  0  0  0  0  0
  153.5066  141.1634  160.5175 H   0  0  0  0  0  0  0  0  0  0  0  0
  150.1608  142.7862  155.8315 H   0  0  0  0  0  0  0  0  0  0  0  0
  151.4721  141.6486  155.7889 H   0  0  0  0  0  0  0  0  0  0  0  0
  150.2733  139.9832  156.9051 H   0  0  0  0  0  0  0  0  0  0  0  0
  149.3580  141.1215  157.8546 H   0  0  0  0  0  0  0  0  0  0  0  0
  147.7007  140.5995  156.3683 H   0  0  0  0  0  0  0  0  0  0  0  0
  146.7172  141.8185  153.8692 H   0  0  0  0  0  0  0  0  0  0  0  0
  146.5290  140.1986  151.9789 H   0  0  0  0  0  0  0  0  0  0  0  0
  147.9993  139.2767  152.5683 H   0  0  0  0  0  0  0  0  0  0  0  0
  145.3775  139.8109  154.1692 H   0  0  0  0  0  0  0  0  0  0  0  0
  147.8731  138.1236  154.7876 H   0  0  0  0  0  0  0  0  0  0  0  0
  146.1883  137.6113  154.8259 H   0  0  0  0  0  0  0  0  0  0  0  0
  146.7950  138.7227  156.0612 H   0  0  0  0  0  0  0  0  0  0  0  0
  150.8176  144.8809  157.3284 H   0  0  0  0  0  0  0  0  0  0  0  0
  1  2  1  0  0  0  0
  1 17  1  0  0  0  0
  1 18  1  0  0  0  0
  1 19  1  0  0  0  0
  2  3  1  0  0  0  0
  2 20  1  0  0  0  0
  2 21  1  0  0  0  0
  3 16  1  0  0  0  0
  3  4  2  0  0  0  0
  4  5  1  0  0  0  0
  5  6  1  0  0  0  0
  5 15  2  0  0  0  0
  6  7  1  0  0  0  0
  6 22  1  0  0  0  0
  6 23  1  0  0  0  0
  7  8  1  0  0  0  0
  7 24  1  0  0  0  0
  7 25  1  0  0  0  0
  8  9  1  0  0  0  0
  8 26  1  0  0  0  0
  9 10  2  0  0  0  0
  9 11  1  0  0  0  0
 11 13  1  0  0  0  0
 11 12  1  0  0  0  0
 11 27  1  0  0  0  0
 12 13  1  0  0  0  0
 12 28  1  0  0  0  0
 12 29  1  0  0  0  0
 13 14  1  0  0  0  0
 13 30  1  0  0  0  0
 14 31  1  0  0  0  0
 14 32  1  0  0  0  0
 14 33  1  0  0  0  0
 15 16  1  0  0  0  0
 15 34  1  0  0  0  0
M  END
> <s_m_source_file>
AV-unprocessed.smi

> <i_m_source_file_index>
3211

> <i_lp_mmshare_version>
43012

> <i_f3d_flags>
0

> <s_epik_input>
W0NIM11bQ0gyXWMxbmMoW2NIXXMxKVtDSDJdW0NIMl1bTkhdQyg9TylbQ0BASF0yW0NIMl1bQ0BIXTJbQ0gzXQ==

> <s_epik_cmdline>
J2VwaWtfcHl0aG9uJywgJy1waCcsICc3LjAnLCAnLXRuJywgJzgnLCAnLW1hJywgJzIwMCcsICctbWV0YWxfYmluZGluZycsICctaW1hZScsICc8aW5maWxlLm1hZT4nLCAnLW9tYWUnLCAnPG91dGZpbGUubWFlPic=

> <r_epik_Ionization_Penalty>
0.00109667

> <r_epik_Ionization_Penalty_Charging>
0

> <r_epik_Ionization_Penalty_Neutral>
0.00109667

> <r_epik_State_Penalty>
0.000719322

> <r_epik_Charging_Adjusted_Penalty>
0.000719322

> <i_epik_Tot_Q>
0

> <i_epik_Tot_abs_Q>
0

> <r_epik_Metal_State_Penalty>
-0

> <b_epik_Metal_Only>
0

> <s_lp_Force_Field>
OPLS_2005

> <r_lp_Energy>
1.4675

> <b_lp_Chiralities_Consistent>
1

> <s_lp_Variant>
AV-unprocessed.smi:3211-2

> <Gold.Version>
5.8.1

> <Gold.Id.Protein>
6NUR|6NUR_protein|mol2

> <Gold.PLP.Fitness>
41.7861

> <Gold.PLP.PLP>
-36.4835

> <Gold.PLP.part.hbond>
-2.0000

> <Gold.PLP.part.metal>
0.0000

> <Gold.PLP.part.buried>
-2.2198

> <Gold.PLP.part.nonpolar>
-34.0042

> <Gold.PLP.part.repulsive>
0.3977

> <Gold.PLP.ligand.clash>
0.0000

> <Gold.PLP.ligand.torsion>
0.4862

> <Gold.PLP.Chemscore.Hbond>
1.0305

> <Gold.PLP.Chemscore.CHOScore>
1.0000

> <Gold.PLP.Chemscore.Metal>
0.0000

> <Gold.Chemscore.Hbonds>
donor molecule, donor type, donor heavy atom, donor atom, acceptor molecule, acceptor atom, score
      P1  H  7989  7998       L1    10  0.30
      P1  H  8011  8017       L1    10  0.75
      L1  C    15    34       P1  8028  1.00

> <Gold.PLP.Chemscore.Internal.Correction>
0.1837

> <Gold.Rescore>
     Score         DG    S(hbond)    S(metal)    S(lipo)     H(rot)  DE(clash)    DE(int)     intcor
     14.78     -17.49       1.08        0.00     104.70       1.51       0.79       1.93       ----

> <Gold.Chemscore.Fitness>
14.7762

> <Gold.Chemscore.DG>
-17.4884

> <Gold.Chemscore.ZeroCoef>
-5.4800

> <Gold.Chemscore.Hbond>
1.0848

> <Gold.Chemscore.Metal>
0.0000

> <Gold.Chemscore.Lipo>
104.6982

> <Gold.Chemscore.Internal_Hbond>
0.0000

> <Gold.Chemscore.DEClash>
0.7861

> <Gold.Chemscore.DEInternal>
1.9261

> <Gold.Chemscore.Rot>
1.5096

> <Gold.Chemscore.Internal.Correction>
   9.000000E+99

> <Gold.Chemscore.Hbonds>
donor molecule, donor type, donor heavy atom, donor atom, acceptor molecule, acceptor atom, score
      P1  H  7989  7998       L1    10  0.29
      P1  H  8011  8017       L1    10  0.72

> <Gold.Chemscore.Hbond.Weighted>
-3.6233

> <Gold.Chemscore.Metal.Weighted>
-0.0000

> <Gold.Chemscore.Lipo.Weighted>
-12.2497

> <Gold.Chemscore.Internal_Hbond.Weighted>
0.0000

> <Gold.Chemscore.DEClash.Weighted>
0.7861

> <Gold.Chemscore.DEInternal.Weighted>
1.9261

> <Gold.Chemscore.Rot.Weighted>
3.8646

> <Gold.Chemscore.Internal.Correction.Weighted>
   9.000000E+99

> <Gold.Protein.RotatedTorsions>
[ 6907 6896 6895 6894 ] final -175.63 input  -60.11 | X-H torsion
[ 7974 7965 7964 7962 ] final  169.01 input  175.53 | X-H torsion
[ 8008 7997 7996 7995 ] final  161.19 input   59.86 | X-H torsion
[ 10167 10162 10161 10158 ] final -159.61 input  -65.29 | X-H torsion
[ 10718 10713 10712 10709 ] final    1.19 input   66.30 | X-H torsion
[ 10763 10752 10751 10750 ] final   22.70 input  -60.55 | X-H torsion
[ 11005 11000 10999 10996 ] final  -62.42 input  -57.11 | X-H torsion

> <Gold.Protein.ActiveResidues>
 VAL166  LYS551  ARG553  GLY616  TRP617  ASP618  TYR619  PRO620  LYS621  CYS622 
 ASP623  PHE694  ASN695  SER759  ASP760  ASP761  ALA762  ILE779  LEU786  VAL792 
 PHE793  MET794  SER795  GLU796  ALA797  LYS798  CYS799  TRP800  GLU811  SER814 

> <Gold.Protein.RotatedAtoms>
  151.5917  133.3366  159.3028 H   0  0  0  0  0  0  0  0  0  0  0  0  # atno 6907 bound_to 6896
  150.8256  134.7489  159.6821 H   0  0  0  0  0  0  0  0  0  0  0  0  # atno 6908 bound_to 6896
  152.4346  134.5718  159.9975 H   0  0  0  0  0  0  0  0  0  0  0  0  # atno 6909 bound_to 6896
  144.7369  139.8991  143.6408 H   0  0  0  0  0  0  0  0  0  0  0  0  # atno 7974 bound_to 7965
  156.2120  140.1784  156.7673 H   0  0  0  0  0  0  0  0  0  0  0  0  # atno 8008 bound_to 7997
  154.5737  140.0678  156.9031 H   0  0  0  0  0  0  0  0  0  0  0  0  # atno 8009 bound_to 7997
  155.2627  140.3337  155.4274 H   0  0  0  0  0  0  0  0  0  0  0  0  # atno 8010 bound_to 7997
  139.6602  143.9927  152.2220 H   0  0  0  0  0  0  0  0  0  0  0  0  # atno 10167 bound_to 10162
  156.8445  130.5532  149.5675 H   0  0  0  0  0  0  0  0  0  0  0  0  # atno 10718 bound_to 10713
  153.0895  135.6642  153.9883 H   0  0  0  0  0  0  0  0  0  0  0  0  # atno 10763 bound_to 10752
  153.9483  135.2986  155.3441 H   0  0  0  0  0  0  0  0  0  0  0  0  # atno 10764 bound_to 10752
  154.7307  135.5124  153.9033 H   0  0  0  0  0  0  0  0  0  0  0  0  # atno 10765 bound_to 10752
  141.1359  133.6640  156.5525 H   0  0  0  0  0  0  0  0  0  0  0  0  # atno 11005 bound_to 11000
  146.1085  139.4087  143.0302 LP  0  0  0  0  0  0  0  0  0  0  0  0  # atno 17320 bound_to 7965
  145.7477  140.9984  143.1267 LP  0  0  0  0  0  0  0  0  0  0  0  0  # atno 17321 bound_to 7965
  139.9664  144.6523  150.8031 LP  0  0  0  0  0  0  0  0  0  0  0  0  # atno 17342 bound_to 10162
  140.7576  143.3091  151.2890 LP  0  0  0  0  0  0  0  0  0  0  0  0  # atno 17343 bound_to 10162
  156.0862  130.5860  150.9652 LP  0  0  0  0  0  0  0  0  0  0  0  0  # atno 17370 bound_to 10713
  157.6337  131.0918  150.8390 LP  0  0  0  0  0  0  0  0  0  0  0  0  # atno 17371 bound_to 10713
  140.4052  134.7321  157.4803 LP  0  0  0  0  0  0  0  0  0  0  0  0  # atno 17394 bound_to 11000
  140.0467  134.6189  155.8912 LP  0  0  0  0  0  0  0  0  0  0  0  0  # atno 17395 bound_to 11000

$$$$
