AV-unprocessed.smi:2478|AV-procd|sdf|9766|dock3
  -GOLD-   2272013413D 1   1.00000     0.00000
 Structure written by MMmdl.
 42 43  0  0  0  0  0  0  0  0  1 V2000
  153.2920  141.9997  160.8394 C   0  0  0  0  0  0  0  0  0  0  0  0
  152.2316  142.6743  159.9539 C   0  0  1  0  0  0  0  0  0  0  0  0
  152.6272  144.1340  159.6506 C   0  0  0  0  0  0  0  0  0  0  0  0
  151.5946  144.8322  158.7525 C   0  0  0  0  0  0  0  0  0  0  0  0
  151.3779  144.0496  157.4501 C   0  0  0  0  0  0  0  0  0  0  0  0
  150.9661  142.6004  157.7445 C   0  0  0  0  0  0  0  0  0  0  0  0
  151.9989  141.8887  158.6434 C   0  0  2  0  0  0  0  0  0  0  0  0
  151.5036  140.5993  158.9798 O   0  0  0  0  0  0  0  0  0  0  0  0
  151.1256  139.8116  157.8596 C   0  0  0  0  0  0  0  0  0  0  0  0
  150.8010  138.4009  158.3426 C   0  0  0  0  0  0  0  0  0  0  0  0
  151.6512  137.5155  158.2519 O   0  0  0  0  0  0  0  0  0  0  0  0
  149.5591  138.2313  158.8320 N   0  0  0  0  0  0  0  0  0  0  0  0
  148.9604  137.0493  159.3459 C   0  0  0  0  0  0  0  0  0  0  0  0
  148.2971  137.0091  160.5285 N   0  0  0  0  0  0  0  0  0  0  0  0
  147.7537  135.8468  160.9428 C   0  0  0  0  0  0  0  0  0  0  0  0
  147.8355  134.6549  160.2029 C   0  0  0  0  0  0  0  0  0  0  0  0
  148.5209  134.6820  158.9761 C   0  0  0  0  0  0  0  0  0  0  0  0
  149.1046  135.8943  158.5366 C   0  0  0  0  0  0  0  0  0  0  0  0
  149.7770  135.9938  157.3375 O   0  0  0  0  0  0  0  0  0  0  0  0
  149.9280  134.8821  156.5696 C   0  0  0  0  0  0  0  0  0  0  0  0
  148.7645  134.5771  155.9445 F   0  0  0  0  0  0  0  0  0  0  0  0
  150.8606  135.1099  155.6137 F   0  0  0  0  0  0  0  0  0  0  0  0
  154.2538  141.9400  160.3290 H   0  0  0  0  0  0  0  0  0  0  0  0
  152.9970  140.9858  161.1111 H   0  0  0  0  0  0  0  0  0  0  0  0
  153.4414  142.5554  161.7655 H   0  0  0  0  0  0  0  0  0  0  0  0
  151.2941  142.6903  160.5120 H   0  0  0  0  0  0  0  0  0  0  0  0
  152.7346  144.6921  160.5814 H   0  0  0  0  0  0  0  0  0  0  0  0
  153.6031  144.1574  159.1638 H   0  0  0  0  0  0  0  0  0  0  0  0
  150.6478  144.9249  159.2862 H   0  0  0  0  0  0  0  0  0  0  0  0
  151.9233  145.8470  158.5266 H   0  0  0  0  0  0  0  0  0  0  0  0
  150.6136  144.5381  156.8451 H   0  0  0  0  0  0  0  0  0  0  0  0
  152.2944  144.0578  156.8589 H   0  0  0  0  0  0  0  0  0  0  0  0
  149.9910  142.5941  158.2341 H   0  0  0  0  0  0  0  0  0  0  0  0
  150.8405  142.0631  156.8048 H   0  0  0  0  0  0  0  0  0  0  0  0
  152.9519  141.8058  158.1168 H   0  0  0  0  0  0  0  0  0  0  0  0
  150.2471  140.2231  157.3621 H   0  0  0  0  0  0  0  0  0  0  0  0
  151.9373  139.7807  157.1310 H   0  0  0  0  0  0  0  0  0  0  0  0
  148.9698  139.0512  158.8387 H   0  0  0  0  0  0  0  0  0  0  0  0
  147.2359  135.8693  161.8904 H   0  0  0  0  0  0  0  0  0  0  0  0
  147.3815  133.7447  160.5657 H   0  0  0  0  0  0  0  0  0  0  0  0
  148.5881  133.7808  158.3851 H   0  0  0  0  0  0  0  0  0  0  0  0
  150.2571  134.0258  157.1590 H   0  0  0  0  0  0  0  0  0  0  0  0
  1  2  1  0  0  0  0
  1 23  1  0  0  0  0
  1 24  1  0  0  0  0
  1 25  1  0  0  0  0
  2  7  1  0  0  0  0
  2  3  1  0  0  0  0
  2 26  1  0  0  0  0
  3  4  1  0  0  0  0
  3 27  1  0  0  0  0
  3 28  1  0  0  0  0
  4  5  1  0  0  0  0
  4 29  1  0  0  0  0
  4 30  1  0  0  0  0
  5  6  1  0  0  0  0
  5 31  1  0  0  0  0
  5 32  1  0  0  0  0
  6  7  1  0  0  0  0
  6 33  1  0  0  0  0
  6 34  1  0  0  0  0
  7  8  1  0  0  0  0
  7 35  1  0  0  0  0
  8  9  1  0  0  0  0
  9 10  1  0  0  0  0
  9 36  1  0  0  0  0
  9 37  1  0  0  0  0
 10 11  2  0  0  0  0
 10 12  1  0  0  0  0
 12 13  1  0  0  0  0
 12 38  1  0  0  0  0
 13 18  1  0  0  0  0
 13 14  2  0  0  0  0
 14 15  1  0  0  0  0
 15 16  2  0  0  0  0
 15 39  1  0  0  0  0
 16 17  1  0  0  0  0
 16 40  1  0  0  0  0
 17 18  2  0  0  0  0
 17 41  1  0  0  0  0
 18 19  1  0  0  0  0
 19 20  1  0  0  0  0
 20 21  1  0  0  0  0
 20 22  1  0  0  0  0
 20 42  1  0  0  0  0
M  END
> <s_m_source_file>
AV-unprocessed.smi

> <i_m_source_file_index>
2478

> <i_lp_mmshare_version>
43012

> <i_f3d_flags>
0

> <s_epik_input>
W0NIM11bQ0BASF0xW0NIMl1bQ0gyXVtDSDJdW0NIMl1bQ0BIXTFPW0NIMl1DKD1PKVtOSF1jMm5bY0hdW2NIXVtjSF1jMk9bQ0hdKEYpRg==

> <s_epik_cmdline>
J2VwaWtfcHl0aG9uJywgJy1waCcsICc3LjAnLCAnLXRuJywgJzgnLCAnLW1hJywgJzIwMCcsICctbWV0YWxfYmluZGluZycsICctaW1hZScsICc8aW5maWxlLm1hZT4nLCAnLW9tYWUnLCAnPG91dGZpbGUubWFlPic=

> <r_lp_tautomer_probability>
1

> <r_epik_Ionization_Penalty>
6.06012e-05

> <r_epik_Ionization_Penalty_Charging>
0

> <r_epik_Ionization_Penalty_Neutral>
6.06012e-05

> <r_epik_State_Penalty>
-0

> <r_epik_Charging_Adjusted_Penalty>
0

> <i_epik_Tot_Q>
0

> <i_epik_Tot_abs_Q>
0

> <r_epik_Metal_State_Penalty>
-0

> <b_epik_Metal_Only>
0

> <s_lp_Force_Field>
OPLS_2005

> <r_lp_Energy>
13.1013

> <b_lp_Chiralities_Consistent>
1

> <s_lp_Variant>
AV-unprocessed.smi:2478-4

> <Gold.Version>
5.8.1

> <Gold.Id.Protein>
6NUR|6NUR_protein|mol2

> <Gold.PLP.Fitness>
41.6055

> <Gold.PLP.PLP>
-39.0771

> <Gold.PLP.part.hbond>
-2.0000

> <Gold.PLP.part.metal>
0.0000

> <Gold.PLP.part.buried>
-5.2637

> <Gold.PLP.part.nonpolar>
-32.7276

> <Gold.PLP.part.repulsive>
0.2194

> <Gold.PLP.ligand.clash>
0.0000

> <Gold.PLP.ligand.torsion>
0.8852

> <Gold.PLP.Chemscore.Hbond>
1.4072

> <Gold.PLP.Chemscore.CHOScore>
0.0000

> <Gold.PLP.Chemscore.Metal>
0.0000

> <Gold.Chemscore.Hbonds>
donor molecule, donor type, donor heavy atom, donor atom, acceptor molecule, acceptor atom, score
      P1  H  6931  6943       L1    14  0.83
      P1  H  6934  6947       L1    14  0.17

> <Gold.PLP.Chemscore.Internal.Correction>
0.0772

> <Gold.Rescore>
     Score         DG    S(hbond)    S(metal)    S(lipo)     H(rot)  DE(clash)    DE(int)     intcor
     12.76     -16.53       1.09        0.00     103.83       1.85       0.08       3.69       ----

> <Gold.Chemscore.Fitness>
12.7624

> <Gold.Chemscore.DG>
-16.5344

> <Gold.Chemscore.ZeroCoef>
-5.4800

> <Gold.Chemscore.Hbond>
1.0890

> <Gold.Chemscore.Metal>
0.0000

> <Gold.Chemscore.Lipo>
103.8311

> <Gold.Chemscore.Internal_Hbond>
0.0000

> <Gold.Chemscore.DEClash>
0.0838

> <Gold.Chemscore.DEInternal>
3.6882

> <Gold.Chemscore.Rot>
1.8481

> <Gold.Chemscore.Internal.Correction>
   9.000000E+99

> <Gold.Chemscore.Hbonds>
donor molecule, donor type, donor heavy atom, donor atom, acceptor molecule, acceptor atom, score
      P1  H  6931  6943       L1    14  0.67
      P1  H  6934  6947       L1    14  0.13

> <Gold.Chemscore.Hbond.Weighted>
-3.6373

> <Gold.Chemscore.Metal.Weighted>
-0.0000

> <Gold.Chemscore.Lipo.Weighted>
-12.1482

> <Gold.Chemscore.Internal_Hbond.Weighted>
0.0000

> <Gold.Chemscore.DEClash.Weighted>
0.0838

> <Gold.Chemscore.DEInternal.Weighted>
3.6882

> <Gold.Chemscore.Rot.Weighted>
4.7311

> <Gold.Chemscore.Internal.Correction.Weighted>
   9.000000E+99

> <Gold.Protein.RotatedTorsions>
[ 6907 6896 6895 6894 ] final -150.31 input  -60.11 | X-H torsion
[ 7974 7965 7964 7962 ] final   28.48 input  175.53 | X-H torsion
[ 8008 7997 7996 7995 ] final -138.06 input   59.86 | X-H torsion
[ 10167 10162 10161 10158 ] final   78.58 input  -65.29 | X-H torsion
[ 10718 10713 10712 10709 ] final   34.02 input   66.30 | X-H torsion
[ 10763 10752 10751 10750 ] final -167.26 input  -60.55 | X-H torsion
[ 11005 11000 10999 10996 ] final -166.58 input  -57.11 | X-H torsion

> <Gold.Protein.ActiveResidues>
 VAL166  LYS551  ARG553  GLY616  TRP617  ASP618  TYR619  PRO620  LYS621  CYS622 
 ASP623  PHE694  ASN695  SER759  ASP760  ASP761  ALA762  ILE779  LEU786  VAL792 
 PHE793  MET794  SER795  GLU796  ALA797  LYS798  CYS799  TRP800  GLU811  SER814 

> <Gold.Protein.RotatedAtoms>
  151.1967  133.4635  159.2595 H   0  0  0  0  0  0  0  0  0  0  0  0  # atno 6907 bound_to 6896
  151.1110  135.0026  159.8504 H   0  0  0  0  0  0  0  0  0  0  0  0  # atno 6908 bound_to 6896
  152.5450  134.1886  159.8717 H   0  0  0  0  0  0  0  0  0  0  0  0  # atno 6909 bound_to 6896
  146.1726  139.7050  142.8957 H   0  0  0  0  0  0  0  0  0  0  0  0  # atno 7974 bound_to 7965
  155.4220  140.0519  157.3025 H   0  0  0  0  0  0  0  0  0  0  0  0  # atno 8008 bound_to 7997
  154.4898  140.2115  155.9532 H   0  0  0  0  0  0  0  0  0  0  0  0  # atno 8009 bound_to 7997
  156.1326  140.3169  155.8377 H   0  0  0  0  0  0  0  0  0  0  0  0  # atno 8010 bound_to 7997
  139.9694  144.5905  150.7999 H   0  0  0  0  0  0  0  0  0  0  0  0  # atno 10167 bound_to 10162
  157.3052  130.7371  149.6691 H   0  0  0  0  0  0  0  0  0  0  0  0  # atno 10718 bound_to 10713
  154.6750  135.2945  154.9691 H   0  0  0  0  0  0  0  0  0  0  0  0  # atno 10763 bound_to 10752
  154.0705  135.6619  153.4827 H   0  0  0  0  0  0  0  0  0  0  0  0  # atno 10764 bound_to 10752
  153.0510  135.5173  154.7765 H   0  0  0  0  0  0  0  0  0  0  0  0  # atno 10765 bound_to 10752
  140.5629  134.5315  157.5147 H   0  0  0  0  0  0  0  0  0  0  0  0  # atno 11005 bound_to 11000
  145.4299  141.0414  143.2917 LP  0  0  0  0  0  0  0  0  0  0  0  0  # atno 17320 bound_to 7965
  144.8186  139.5831  143.6997 LP  0  0  0  0  0  0  0  0  0  0  0  0  # atno 17321 bound_to 7965
  140.7527  143.2995  151.3118 LP  0  0  0  0  0  0  0  0  0  0  0  0  # atno 17342 bound_to 10162
  139.6493  144.0393  152.2614 LP  0  0  0  0  0  0  0  0  0  0  0  0  # atno 17343 bound_to 10162
  155.9674  130.4268  150.4715 LP  0  0  0  0  0  0  0  0  0  0  0  0  # atno 17370 bound_to 10713
  157.2703  131.0585  151.2264 LP  0  0  0  0  0  0  0  0  0  0  0  0  # atno 17371 bound_to 10713
  139.9399  134.7807  156.0706 LP  0  0  0  0  0  0  0  0  0  0  0  0  # atno 17394 bound_to 11000
  141.1103  133.6645  156.2963 LP  0  0  0  0  0  0  0  0  0  0  0  0  # atno 17395 bound_to 11000

$$$$
