AV-unprocessed.smi:3069|AV-procd|sdf|11710|dock10
  -GOLD-   2272017113D 1   1.00000     0.00000
 Structure written by MMmdl.
 39 40  0  0  0  0  0  0  0  0  1 V2000
  146.2078  142.9884  154.2998 N   0  0  0  0  0  0  0  0  0  0  0  0
  146.9788  142.1263  154.2625 C   0  0  0  0  0  0  0  0  0  0  0  0
  147.9479  141.0388  154.2145 C   0  0  0  0  0  0  0  0  0  0  0  0
  147.5630  139.9078  153.5796 N   0  0  0  0  0  0  0  0  0  0  0  0
  148.4624  138.9035  153.5072 C   0  0  0  0  0  0  0  0  0  0  0  0
  149.7500  139.0236  154.0653 C   0  0  0  0  0  0  0  0  0  0  0  0
  150.1436  140.1481  154.7001 N   0  0  0  0  0  0  0  0  0  0  0  0
  149.2476  141.1627  154.7811 C   0  0  0  0  0  0  0  0  0  0  0  0
  149.6505  142.3401  155.4346 N   0  0  0  0  0  0  0  0  0  0  0  0
  149.9981  142.2620  156.8495 C   0  0  0  0  0  0  0  0  0  0  0  0
  151.2145  141.3559  157.0939 C   0  0  0  0  0  0  0  0  0  0  0  0
  151.6441  141.5444  158.4349 O   0  0  0  0  0  0  0  0  0  0  0  0
  152.4911  142.6664  158.6500 C   0  0  0  0  0  0  0  0  0  0  0  0
  153.3133  142.3562  159.9155 C   0  0  0  0  0  0  0  0  0  0  0  0
  152.5573  142.5234  161.2445 C   0  0  0  0  0  0  0  0  0  0  0  0
  152.6498  143.9505  161.8091 C   0  0  0  0  0  0  0  0  0  0  0  0
  151.8447  145.0025  161.0326 C   0  0  0  0  0  0  0  0  0  0  0  0
  152.2037  145.1154  159.5403 C   0  0  0  0  0  0  0  0  0  0  0  0
  151.6378  143.9570  158.7024 C   0  0  0  0  0  0  0  0  0  0  0  0
  148.1540  138.0010  153.0006 H   0  0  0  0  0  0  0  0  0  0  0  0
  150.4651  138.2168  154.0029 H   0  0  0  0  0  0  0  0  0  0  0  0
  150.2407  142.9542  154.8915 H   0  0  0  0  0  0  0  0  0  0  0  0
  150.2180  143.2706  157.1995 H   0  0  0  0  0  0  0  0  0  0  0  0
  149.1415  141.9155  157.4284 H   0  0  0  0  0  0  0  0  0  0  0  0
  150.9449  140.3105  156.9409 H   0  0  0  0  0  0  0  0  0  0  0  0
  152.0025  141.5906  156.3787 H   0  0  0  0  0  0  0  0  0  0  0  0
  153.1981  142.7372  157.8215 H   0  0  0  0  0  0  0  0  0  0  0  0
  153.6751  141.3299  159.8415 H   0  0  0  0  0  0  0  0  0  0  0  0
  154.2136  142.9716  159.9293 H   0  0  0  0  0  0  0  0  0  0  0  0
  151.5186  142.2057  161.1467 H   0  0  0  0  0  0  0  0  0  0  0  0
  153.0067  141.8500  161.9750 H   0  0  0  0  0  0  0  0  0  0  0  0
  152.2930  143.9405  162.8395 H   0  0  0  0  0  0  0  0  0  0  0  0
  153.6954  144.2562  161.8631 H   0  0  0  0  0  0  0  0  0  0  0  0
  150.7779  144.8032  161.1422 H   0  0  0  0  0  0  0  0  0  0  0  0
  152.0117  145.9712  161.5044 H   0  0  0  0  0  0  0  0  0  0  0  0
  151.7634  146.0409  159.1679 H   0  0  0  0  0  0  0  0  0  0  0  0
  153.2795  145.2204  159.3960 H   0  0  0  0  0  0  0  0  0  0  0  0
  151.4929  144.3112  157.6816 H   0  0  0  0  0  0  0  0  0  0  0  0
  150.6376  143.7203  159.0659 H   0  0  0  0  0  0  0  0  0  0  0  0
  1  2  3  0  0  0  0
  2  3  1  0  0  0  0
  3  8  1  0  0  0  0
  3  4  2  0  0  0  0
  4  5  1  0  0  0  0
  5  6  2  0  0  0  0
  5 20  1  0  0  0  0
  6  7  1  0  0  0  0
  6 21  1  0  0  0  0
  7  8  2  0  0  0  0
  8  9  1  0  0  0  0
  9 10  1  0  0  0  0
  9 22  1  0  0  0  0
 10 11  1  0  0  0  0
 10 23  1  0  0  0  0
 10 24  1  0  0  0  0
 11 12  1  0  0  0  0
 11 25  1  0  0  0  0
 11 26  1  0  0  0  0
 12 13  1  0  0  0  0
 13 19  1  0  0  0  0
 13 14  1  0  0  0  0
 13 27  1  0  0  0  0
 14 15  1  0  0  0  0
 14 28  1  0  0  0  0
 14 29  1  0  0  0  0
 15 16  1  0  0  0  0
 15 30  1  0  0  0  0
 15 31  1  0  0  0  0
 16 17  1  0  0  0  0
 16 32  1  0  0  0  0
 16 33  1  0  0  0  0
 17 18  1  0  0  0  0
 17 34  1  0  0  0  0
 17 35  1  0  0  0  0
 18 19  1  0  0  0  0
 18 36  1  0  0  0  0
 18 37  1  0  0  0  0
 19 38  1  0  0  0  0
 19 39  1  0  0  0  0
M  END
> <s_m_source_file>
AV-unprocessed.smi

> <i_m_source_file_index>
3069

> <i_lp_mmshare_version>
43012

> <i_f3d_flags>
0

> <s_epik_input>
TiNDYzFuW2NIXVtjSF1uYzFbTkhdW0NIMl1bQ0gyXU9bQ0hdMltDSDJdW0NIMl1bQ0gyXVtDSDJdW0NIMl1bQ0gyXTI=

> <s_epik_cmdline>
J2VwaWtfcHl0aG9uJywgJy1waCcsICc3LjAnLCAnLXRuJywgJzgnLCAnLW1hJywgJzIwMCcsICctbWV0YWxfYmluZGluZycsICctaW1hZScsICc8aW5maWxlLm1hZT4nLCAnLW9tYWUnLCAnPG91dGZpbGUubWFlPic=

> <r_lp_tautomer_probability>
1

> <r_epik_Ionization_Penalty>
5.57718e-05

> <r_epik_Ionization_Penalty_Charging>
0

> <r_epik_Ionization_Penalty_Neutral>
5.57718e-05

> <r_epik_State_Penalty>
-0

> <r_epik_Charging_Adjusted_Penalty>
0

> <i_epik_Tot_Q>
0

> <i_epik_Tot_abs_Q>
0

> <r_epik_Metal_State_Penalty>
-0

> <b_epik_Metal_Only>
0

> <s_lp_Force_Field>
OPLS_2005

> <r_lp_Energy>
28.0763

> <b_lp_Chiralities_Consistent>
1

> <s_lp_Variant>
AV-unprocessed.smi:3069-1

> <Gold.Version>
5.8.1

> <Gold.Id.Protein>
6NUR|6NUR_protein|mol2

> <Gold.PLP.Fitness>
46.0863

> <Gold.PLP.PLP>
-40.8458

> <Gold.PLP.part.hbond>
-2.0000

> <Gold.PLP.part.metal>
0.0000

> <Gold.PLP.part.buried>
1.4116

> <Gold.PLP.part.nonpolar>
-39.4279

> <Gold.PLP.part.repulsive>
0.9177

> <Gold.PLP.ligand.clash>
0.0289

> <Gold.PLP.ligand.torsion>
0.3778

> <Gold.PLP.Chemscore.Hbond>
1.0000

> <Gold.PLP.Chemscore.CHOScore>
1.0000

> <Gold.PLP.Chemscore.Metal>
0.0000

> <Gold.Chemscore.Hbonds>
donor molecule, donor type, donor heavy atom, donor atom, acceptor molecule, acceptor atom, score
      P1  H  7989  7998       L1     7  0.98
      L1  C     5    20       P1  7948  1.00

> <Gold.PLP.Chemscore.Internal.Correction>
0.0249

> <Gold.Rescore>
     Score         DG    S(hbond)    S(metal)    S(lipo)     H(rot)  DE(clash)    DE(int)     intcor
     10.53     -14.92       0.24        0.00     118.39       2.04       1.68       2.71       ----

> <Gold.Chemscore.Fitness>
10.5262

> <Gold.Chemscore.DG>
-14.9200

> <Gold.Chemscore.ZeroCoef>
-5.4800

> <Gold.Chemscore.Hbond>
0.2396

> <Gold.Chemscore.Metal>
0.0000

> <Gold.Chemscore.Lipo>
118.3898

> <Gold.Chemscore.Internal_Hbond>
0.0000

> <Gold.Chemscore.DEClash>
1.6809

> <Gold.Chemscore.DEInternal>
2.7129

> <Gold.Chemscore.Rot>
2.0359

> <Gold.Chemscore.Internal.Correction>
   9.000000E+99

> <Gold.Chemscore.Hbonds>
donor molecule, donor type, donor heavy atom, donor atom, acceptor molecule, acceptor atom, score
      P1  H  7989  7998       L1     7  0.16

> <Gold.Chemscore.Hbond.Weighted>
-0.8002

> <Gold.Chemscore.Metal.Weighted>
-0.0000

> <Gold.Chemscore.Lipo.Weighted>
-13.8516

> <Gold.Chemscore.Internal_Hbond.Weighted>
0.0000

> <Gold.Chemscore.DEClash.Weighted>
1.6809

> <Gold.Chemscore.DEInternal.Weighted>
2.7129

> <Gold.Chemscore.Rot.Weighted>
5.2119

> <Gold.Chemscore.Internal.Correction.Weighted>
   9.000000E+99

> <Gold.Protein.RotatedTorsions>
[ 6907 6896 6895 6894 ] final   57.53 input  -60.11 | X-H torsion
[ 7974 7965 7964 7962 ] final  128.93 input  175.53 | X-H torsion
[ 8008 7997 7996 7995 ] final  133.86 input   59.86 | X-H torsion
[ 10167 10162 10161 10158 ] final  146.27 input  -65.29 | X-H torsion
[ 10718 10713 10712 10709 ] final  100.67 input   66.30 | X-H torsion
[ 10763 10752 10751 10750 ] final -179.63 input  -60.55 | X-H torsion
[ 11005 11000 10999 10996 ] final  -58.77 input  -57.11 | X-H torsion

> <Gold.Protein.ActiveResidues>
 VAL166  LYS551  ARG553  GLY616  TRP617  ASP618  TYR619  PRO620  LYS621  CYS622 
 ASP623  PHE694  ASN695  SER759  ASP760  ASP761  ALA762  ILE779  LEU786  VAL792 
 PHE793  MET794  SER795  GLU796  ALA797  LYS798  CYS799  TRP800  GLU811  SER814 

> <Gold.Protein.RotatedAtoms>
  152.3740  134.6691  160.0166 H   0  0  0  0  0  0  0  0  0  0  0  0  # atno 6907 bound_to 6896
  151.6975  133.3305  159.3266 H   0  0  0  0  0  0  0  0  0  0  0  0  # atno 6908 bound_to 6896
  150.7695  134.6580  159.6368 H   0  0  0  0  0  0  0  0  0  0  0  0  # atno 6909 bound_to 6896
  145.0341  139.4020  143.5135 H   0  0  0  0  0  0  0  0  0  0  0  0  # atno 7974 bound_to 7965
  156.2995  140.2511  156.3322 H   0  0  0  0  0  0  0  0  0  0  0  0  # atno 8008 bound_to 7997
  154.9134  140.0402  157.1978 H   0  0  0  0  0  0  0  0  0  0  0  0  # atno 8009 bound_to 7997
  154.8383  140.2886  155.5681 H   0  0  0  0  0  0  0  0  0  0  0  0  # atno 8010 bound_to 7997
  139.4910  144.5841  151.6813 H   0  0  0  0  0  0  0  0  0  0  0  0  # atno 10167 bound_to 10162
  157.6848  131.0705  150.5136 H   0  0  0  0  0  0  0  0  0  0  0  0  # atno 10718 bound_to 10713
  154.5326  135.2801  155.1167 H   0  0  0  0  0  0  0  0  0  0  0  0  # atno 10763 bound_to 10752
  154.2681  135.6309  153.5303 H   0  0  0  0  0  0  0  0  0  0  0  0  # atno 10764 bound_to 10752
  152.9960  135.5621  154.5843 H   0  0  0  0  0  0  0  0  0  0  0  0  # atno 10765 bound_to 10752
  141.1221  133.6613  156.4971 H   0  0  0  0  0  0  0  0  0  0  0  0  # atno 11005 bound_to 11000
  146.3502  139.9907  142.8686 LP  0  0  0  0  0  0  0  0  0  0  0  0  # atno 17320 bound_to 7965
  145.1732  140.9731  143.4309 LP  0  0  0  0  0  0  0  0  0  0  0  0  # atno 17321 bound_to 7965
  140.5454  144.0512  150.6105 LP  0  0  0  0  0  0  0  0  0  0  0  0  # atno 17342 bound_to 10162
  140.3548  143.2942  152.0448 LP  0  0  0  0  0  0  0  0  0  0  0  0  # atno 17343 bound_to 10162
  156.5453  130.4218  149.6134 LP  0  0  0  0  0  0  0  0  0  0  0  0  # atno 17370 bound_to 10713
  156.2950  130.7145  151.2003 LP  0  0  0  0  0  0  0  0  0  0  0  0  # atno 17371 bound_to 10713
  140.4476  134.6958  157.5023 LP  0  0  0  0  0  0  0  0  0  0  0  0  # atno 17394 bound_to 11000
  140.0187  134.6580  155.9271 LP  0  0  0  0  0  0  0  0  0  0  0  0  # atno 17395 bound_to 11000

$$$$
