AV-unprocessed.smi:1019|AV-procd|sdf|4445|dock4
  -GOLD-   22720 2403D 1   1.00000     0.00000
 Structure written by MMmdl.
 44 46  0  0  0  0  0  0  0  0  2 V2000
  146.0800  135.9915  153.2402 C   0  0  0  0  0  0  0  0  0  0  0  0
  146.2821  136.6704  151.9389 N   0  3  1  0  0  0  0  0  0  0  0  0
  145.4035  136.1024  150.8859 C   0  0  0  0  0  0  0  0  0  0  0  0
  145.2502  134.5968  151.0184 C   0  0  0  0  0  0  0  0  0  0  0  0
  143.9775  134.0380  151.2612 C   0  0  0  0  0  0  0  0  0  0  0  0
  143.8289  132.6430  151.3869 C   0  0  0  0  0  0  0  0  0  0  0  0
  144.9516  131.8013  151.2679 C   0  0  0  0  0  0  0  0  0  0  0  0
  146.2231  132.3546  151.0226 C   0  0  0  0  0  0  0  0  0  0  0  0
  146.3726  133.7495  150.8965 C   0  0  0  0  0  0  0  0  0  0  0  0
  146.1905  138.1511  152.0421 C   0  0  0  0  0  0  0  0  0  0  0  0
  147.5299  138.8057  152.4479 C   0  0  1  0  0  0  0  0  0  0  0  0
  147.4483  140.1945  152.1987 O   0  0  0  0  0  0  0  0  0  0  0  0
  147.8774  138.6162  153.9379 C   0  0  0  0  0  0  0  0  0  0  0  0
  149.1964  139.1225  154.2699 N   0  0  0  0  0  0  0  0  0  0  0  0
  150.3689  138.7439  153.7258 C   0  0  0  0  0  0  0  0  0  0  0  0
  151.4710  139.3282  154.1860 N   0  0  0  0  0  0  0  0  0  0  0  0
  150.9541  140.1925  155.1358 C   0  0  0  0  0  0  0  0  0  0  0  0
  151.6044  141.1062  155.9958 C   0  0  0  0  0  0  0  0  0  0  0  0
  150.8587  141.8906  156.9001 C   0  0  0  0  0  0  0  0  0  0  0  0
  149.4546  141.7746  156.9587 C   0  0  0  0  0  0  0  0  0  0  0  0
  148.7842  140.8719  156.1113 C   0  0  0  0  0  0  0  0  0  0  0  0
  149.5320  140.0907  155.2107 C   0  0  0  0  0  0  0  0  0  0  0  0
  145.0704  136.1620  153.6163 H   0  0  0  0  0  0  0  0  0  0  0  0
  146.7867  136.3430  153.9907 H   0  0  0  0  0  0  0  0  0  0  0  0
  146.2273  134.9157  153.1406 H   0  0  0  0  0  0  0  0  0  0  0  0
  144.4059  136.5379  150.9593 H   0  0  0  0  0  0  0  0  0  0  0  0
  145.7848  136.3669  149.8981 H   0  0  0  0  0  0  0  0  0  0  0  0
  143.1118  134.6777  151.3539 H   0  0  0  0  0  0  0  0  0  0  0  0
  142.8535  132.2183  151.5737 H   0  0  0  0  0  0  0  0  0  0  0  0
  144.8369  130.7314  151.3642 H   0  0  0  0  0  0  0  0  0  0  0  0
  147.0839  131.7086  150.9303 H   0  0  0  0  0  0  0  0  0  0  0  0
  147.3518  134.1655  150.7092 H   0  0  0  0  0  0  0  0  0  0  0  0
  145.8818  138.5828  151.0903 H   0  0  0  0  0  0  0  0  0  0  0  0
  145.3999  138.3974  152.7514 H   0  0  0  0  0  0  0  0  0  0  0  0
  148.3476  138.4028  151.8509 H   0  0  0  0  0  0  0  0  0  0  0  0
  148.1838  140.4495  151.6617 H   0  0  0  0  0  0  0  0  0  0  0  0
  147.1476  139.1302  154.5653 H   0  0  0  0  0  0  0  0  0  0  0  0
  147.8326  137.5610  154.2110 H   0  0  0  0  0  0  0  0  0  0  0  0
  150.4163  137.9918  152.9518 H   0  0  0  0  0  0  0  0  0  0  0  0
  152.6794  141.2034  155.9607 H   0  0  0  0  0  0  0  0  0  0  0  0
  151.3674  142.5855  157.5521 H   0  0  0  0  0  0  0  0  0  0  0  0
  148.8922  142.3798  157.6546 H   0  0  0  0  0  0  0  0  0  0  0  0
  147.7091  140.7812  156.1553 H   0  0  0  0  0  0  0  0  0  0  0  0
  147.2275  136.4643  151.6481 H   0  0  0  0  0  0  0  0  0  0  0  0
  1  2  1  0  0  0  0
  1 23  1  0  0  0  0
  1 24  1  0  0  0  0
  1 25  1  0  0  0  0
  2  3  1  0  0  0  0
  2 10  1  0  0  0  0
  2 44  1  0  0  0  0
  3  4  1  0  0  0  0
  3 26  1  0  0  0  0
  3 27  1  0  0  0  0
  4  9  1  0  0  0  0
  4  5  2  0  0  0  0
  5  6  1  0  0  0  0
  5 28  1  0  0  0  0
  6  7  2  0  0  0  0
  6 29  1  0  0  0  0
  7  8  1  0  0  0  0
  7 30  1  0  0  0  0
  8  9  2  0  0  0  0
  8 31  1  0  0  0  0
  9 32  1  0  0  0  0
 10 11  1  0  0  0  0
 10 33  1  0  0  0  0
 10 34  1  0  0  0  0
 11 12  1  0  0  0  0
 11 13  1  0  0  0  0
 11 35  1  0  0  0  0
 12 36  1  0  0  0  0
 13 14  1  0  0  0  0
 13 37  1  0  0  0  0
 13 38  1  0  0  0  0
 14 22  1  0  0  0  0
 14 15  1  0  0  0  0
 15 16  2  0  0  0  0
 15 39  1  0  0  0  0
 16 17  1  0  0  0  0
 17 22  2  0  0  0  0
 17 18  1  0  0  0  0
 18 19  2  0  0  0  0
 18 40  1  0  0  0  0
 19 20  1  0  0  0  0
 19 41  1  0  0  0  0
 20 21  2  0  0  0  0
 20 42  1  0  0  0  0
 21 22  1  0  0  0  0
 21 43  1  0  0  0  0
M  CHG  1   2   1
M  END
> <s_m_source_file>
AV-unprocessed.smi

> <i_m_source_file_index>
1019

> <i_lp_mmshare_version>
43012

> <i_f3d_flags>
0

> <s_epik_input>
W2NIXTFbY0hdW2NIXVtjSF1bY0hdYzFbQ0gyXU4oW0NIM10pW0NIMl1bQ0BIXShbT0hdKVtDSDJdbihbY0hdbjIpYyhjMjMpW2NIXVtjSF1bY0hdW2NIXTM=

> <s_epik_cmdline>
J2VwaWtfcHl0aG9uJywgJy1waCcsICc3LjAnLCAnLXRuJywgJzgnLCAnLW1hJywgJzIwMCcsICctbWV0YWxfYmluZGluZycsICctaW1hZScsICc8aW5maWxlLm1hZT4nLCAnLW9tYWUnLCAnPG91dGZpbGUubWFlPic=

> <r_epik_Ionization_Penalty>
0.0996557

> <r_epik_Ionization_Penalty_Charging>
0.0475377

> <r_epik_Ionization_Penalty_Neutral>
0.0521179

> <r_epik_State_Penalty>
0.0851777

> <r_epik_Charging_Adjusted_Penalty>
0.132715

> <i_epik_Tot_Q>
1

> <i_epik_Tot_abs_Q>
1

> <r_epik_Metal_State_Penalty>
0.0423478

> <b_epik_Metal_Only>
0

> <s_lp_Force_Field>
OPLS_2005

> <r_lp_Energy>
16.033

> <b_lp_Chiralities_Consistent>
1

> <s_lp_Variant>
AV-unprocessed.smi:1019-3

> <Gold.Version>
5.8.1

> <Gold.Id.Protein>
6NUR|6NUR_protein|mol2

> <Gold.PLP.Fitness>
51.8543

> <Gold.PLP.PLP>
-40.0027

> <Gold.PLP.part.hbond>
-2.7575

> <Gold.PLP.part.metal>
0.0000

> <Gold.PLP.part.buried>
-1.4147

> <Gold.PLP.part.nonpolar>
-36.7002

> <Gold.PLP.part.repulsive>
0.1485

> <Gold.PLP.ligand.clash>
0.0000

> <Gold.PLP.ligand.torsion>
0.6538

> <Gold.PLP.Chemscore.Hbond>
3.3500

> <Gold.PLP.Chemscore.CHOScore>
0.9959

> <Gold.PLP.Chemscore.Metal>
0.0000

> <Gold.Chemscore.Hbonds>
donor molecule, donor type, donor heavy atom, donor atom, acceptor molecule, acceptor atom, score
      L1  H     2    44       P1  7948  2.00
      L1  H    12    36       P1  7957  0.93
      L1  C    15    39       P1  7948  0.66
      L1  C    15    39       P1  7949  0.36
      L1  C    15    39       P1  7957  0.03

> <Gold.PLP.Chemscore.Internal.Correction>
0.1217

> <Gold.Rescore>
     Score         DG    S(hbond)    S(metal)    S(lipo)     H(rot)  DE(clash)    DE(int)     intcor
     16.05     -18.49       1.93        0.00     107.72       2.36       1.79       0.65       ----

> <Gold.Chemscore.Fitness>
16.0502

> <Gold.Chemscore.DG>
-18.4905

> <Gold.Chemscore.ZeroCoef>
-5.4800

> <Gold.Chemscore.Hbond>
1.9320

> <Gold.Chemscore.Metal>
0.0000

> <Gold.Chemscore.Lipo>
107.7203

> <Gold.Chemscore.Internal_Hbond>
0.0000

> <Gold.Chemscore.DEClash>
1.7901

> <Gold.Chemscore.DEInternal>
0.6502

> <Gold.Chemscore.Rot>
2.3616

> <Gold.Chemscore.Internal.Correction>
   9.000000E+99

> <Gold.Chemscore.Hbonds>
donor molecule, donor type, donor heavy atom, donor atom, acceptor molecule, acceptor atom, score
      L1  H     2    44       P1  7948  0.99
      L1  H    12    36       P1  7957  0.84

> <Gold.Chemscore.Hbond.Weighted>
-6.4530

> <Gold.Chemscore.Metal.Weighted>
-0.0000

> <Gold.Chemscore.Lipo.Weighted>
-12.6033

> <Gold.Chemscore.Internal_Hbond.Weighted>
0.0000

> <Gold.Chemscore.DEClash.Weighted>
1.7901

> <Gold.Chemscore.DEInternal.Weighted>
0.6502

> <Gold.Chemscore.Rot.Weighted>
6.0457

> <Gold.Chemscore.Internal.Correction.Weighted>
   9.000000E+99

> <Gold.Protein.RotatedTorsions>
[ 6907 6896 6895 6894 ] final   44.07 input  -60.11 | X-H torsion
[ 7974 7965 7964 7962 ] final -165.36 input  175.53 | X-H torsion
[ 8008 7997 7996 7995 ] final  -72.12 input   59.86 | X-H torsion
[ 10167 10162 10161 10158 ] final  -91.49 input  -65.29 | X-H torsion
[ 10718 10713 10712 10709 ] final  -97.09 input   66.30 | X-H torsion
[ 10763 10752 10751 10750 ] final   57.48 input  -60.55 | X-H torsion
[ 11005 11000 10999 10996 ] final   74.13 input  -57.11 | X-H torsion

> <Gold.Protein.ActiveResidues>
 VAL166  LYS551  ARG553  GLY616  TRP617  ASP618  TYR619  PRO620  LYS621  CYS622 
 ASP623  PHE694  ASN695  SER759  ASP760  ASP761  ALA762  ILE779  LEU786  VAL792 
 PHE793  MET794  SER795  GLU796  ALA797  LYS798  CYS799  TRP800  GLU811  SER814 

> <Gold.Protein.RotatedAtoms>
  152.2280  134.8349  160.0477 H   0  0  0  0  0  0  0  0  0  0  0  0  # atno 6907 bound_to 6896
  151.9109  133.3556  159.3871 H   0  0  0  0  0  0  0  0  0  0  0  0  # atno 6908 bound_to 6896
  150.7018  134.4659  159.5446 H   0  0  0  0  0  0  0  0  0  0  0  0  # atno 6909 bound_to 6896
  144.7272  140.2825  143.6233 H   0  0  0  0  0  0  0  0  0  0  0  0  # atno 7974 bound_to 7965
  154.5141  140.0803  156.8047 H   0  0  0  0  0  0  0  0  0  0  0  0  # atno 8008 bound_to 7997
  155.3719  140.3423  155.4225 H   0  0  0  0  0  0  0  0  0  0  0  0  # atno 8009 bound_to 7997
  156.1608  140.1588  156.8603 H   0  0  0  0  0  0  0  0  0  0  0  0  # atno 8010 bound_to 7997
  140.3444  143.2925  151.9798 H   0  0  0  0  0  0  0  0  0  0  0  0  # atno 10167 bound_to 10162
  156.0076  130.5179  150.6323 H   0  0  0  0  0  0  0  0  0  0  0  0  # atno 10718 bound_to 10713
  152.9851  135.5640  154.5397 H   0  0  0  0  0  0  0  0  0  0  0  0  # atno 10763 bound_to 10752
  154.4854  135.2790  155.1540 H   0  0  0  0  0  0  0  0  0  0  0  0  # atno 10764 bound_to 10752
  154.3031  135.6303  153.5486 H   0  0  0  0  0  0  0  0  0  0  0  0  # atno 10765 bound_to 10752
  139.9406  134.7406  156.1110 H   0  0  0  0  0  0  0  0  0  0  0  0  # atno 11005 bound_to 11000
  145.7935  139.1936  143.2089 LP  0  0  0  0  0  0  0  0  0  0  0  0  # atno 17320 bound_to 7965
  146.0736  140.7842  142.9676 LP  0  0  0  0  0  0  0  0  0  0  0  0  # atno 17321 bound_to 7965
  139.4835  144.6129  151.7399 LP  0  0  0  0  0  0  0  0  0  0  0  0  # atno 17342 bound_to 10162
  140.5278  144.0777  150.6043 LP  0  0  0  0  0  0  0  0  0  0  0  0  # atno 17343 bound_to 10162
  157.4119  131.0825  151.1213 LP  0  0  0  0  0  0  0  0  0  0  0  0  # atno 17370 bound_to 10713
  157.1842  130.6323  149.5682 LP  0  0  0  0  0  0  0  0  0  0  0  0  # atno 17371 bound_to 10713
  141.1039  133.6667  156.2817 LP  0  0  0  0  0  0  0  0  0  0  0  0  # atno 17394 bound_to 11000
  140.5962  134.5601  157.5509 LP  0  0  0  0  0  0  0  0  0  0  0  0  # atno 17395 bound_to 11000

$$$$
