AV-unprocessed.smi:1697|AV-procd|sdf|6808|dock10
  -GOLD-   22720 7583D 1   1.00000     0.00000
 Structure written by MMmdl.
 55 57  0  0  0  0  0  0  0  0  3 V2000
  144.2315  134.3255  151.0002 C   0  0  0  0  0  0  0  0  0  0  0  0
  145.0851  135.5765  151.2480 C   0  0  0  0  0  0  0  0  0  0  0  0
  144.7962  136.1493  152.5173 O   0  0  0  0  0  0  0  0  0  0  0  0
  145.7348  137.1139  152.9765 C   0  0  2  0  0  0  0  0  0  0  0  0
  145.1182  137.8354  154.1825 C   0  0  0  0  0  0  0  0  0  0  0  0
  146.0296  138.9727  154.6715 C   0  0  0  0  0  0  0  0  0  0  0  0
  146.3097  139.9439  153.5819 N   0  3  1  0  0  0  0  0  0  0  0  0
  147.0836  141.1166  154.0655 C   0  0  0  0  0  0  0  0  0  0  0  0
  148.5141  140.7526  154.5234 C   0  0  1  0  0  0  0  0  0  0  0  0
  149.4046  140.9170  153.4388 O   0  0  0  0  0  0  0  0  0  0  0  0
  149.0285  141.6422  155.6743 C   0  0  0  0  0  0  0  0  0  0  0  0
  150.1866  141.0727  156.3754 N   0  0  0  0  0  0  0  0  0  0  0  0
  150.8635  139.9127  156.1535 C   0  0  0  0  0  0  0  0  0  0  0  0
  151.8622  139.8377  157.0766 N   0  3  0  0  0  0  0  0  0  0  0  0
  151.8138  140.9588  157.9080 C   0  0  0  0  0  0  0  0  0  0  0  0
  152.6090  141.3287  158.9860 C   0  0  0  0  0  0  0  0  0  0  0  0
  152.2902  142.5424  159.6360 C   0  0  0  0  0  0  0  0  0  0  0  0
  153.1371  142.9745  160.8210 C   0  0  0  0  0  0  0  0  0  0  0  0
  151.2014  143.3409  159.1989 C   0  0  0  0  0  0  0  0  0  0  0  0
  150.8639  144.6406  159.9097 C   0  0  0  0  0  0  0  0  0  0  0  0
  150.4067  142.9489  158.0980 C   0  0  0  0  0  0  0  0  0  0  0  0
  150.7365  141.7518  157.4679 C   0  0  0  0  0  0  0  0  0  0  0  0
  146.9277  139.2774  152.4036 C   0  0  0  0  0  0  0  0  0  0  0  0
  146.0354  138.1429  151.8728 C   0  0  0  0  0  0  0  0  0  0  0  0
  144.4093  133.9285  150.0006 H   0  0  0  0  0  0  0  0  0  0  0  0
  143.1691  134.5567  151.0810 H   0  0  0  0  0  0  0  0  0  0  0  0
  144.4558  133.5318  151.7122 H   0  0  0  0  0  0  0  0  0  0  0  0
  146.1467  135.3545  151.1369 H   0  0  0  0  0  0  0  0  0  0  0  0
  144.8446  136.3209  150.4888 H   0  0  0  0  0  0  0  0  0  0  0  0
  146.6601  136.6335  153.2974 H   0  0  0  0  0  0  0  0  0  0  0  0
  144.1418  138.2409  153.9126 H   0  0  0  0  0  0  0  0  0  0  0  0
  144.9448  137.1248  154.9917 H   0  0  0  0  0  0  0  0  0  0  0  0
  145.5447  139.4824  155.5049 H   0  0  0  0  0  0  0  0  0  0  0  0
  146.9691  138.5670  155.0507 H   0  0  0  0  0  0  0  0  0  0  0  0
  147.1590  141.8637  153.2734 H   0  0  0  0  0  0  0  0  0  0  0  0
  146.5218  141.5894  154.8719 H   0  0  0  0  0  0  0  0  0  0  0  0
  148.5642  139.7124  154.8409 H   0  0  0  0  0  0  0  0  0  0  0  0
  149.2398  140.2429  152.7973 H   0  0  0  0  0  0  0  0  0  0  0  0
  149.3043  142.6331  155.3101 H   0  0  0  0  0  0  0  0  0  0  0  0
  148.2426  141.7934  156.4160 H   0  0  0  0  0  0  0  0  0  0  0  0
  150.6509  139.1853  155.3831 H   0  0  0  0  0  0  0  0  0  0  0  0
  153.4338  140.7139  159.3162 H   0  0  0  0  0  0  0  0  0  0  0  0
  153.5622  143.9641  160.6517 H   0  0  0  0  0  0  0  0  0  0  0  0
  153.9630  142.2838  160.9945 H   0  0  0  0  0  0  0  0  0  0  0  0
  152.5331  143.0072  161.7282 H   0  0  0  0  0  0  0  0  0  0  0  0
  149.9869  145.1186  159.4724 H   0  0  0  0  0  0  0  0  0  0  0  0
  151.6956  145.3422  159.8399 H   0  0  0  0  0  0  0  0  0  0  0  0
  150.6518  144.4573  160.9634 H   0  0  0  0  0  0  0  0  0  0  0  0
  149.5760  143.5548  157.7671 H   0  0  0  0  0  0  0  0  0  0  0  0
  147.0937  139.9956  151.6017 H   0  0  0  0  0  0  0  0  0  0  0  0
  147.9070  138.8826  152.6787 H   0  0  0  0  0  0  0  0  0  0  0  0
  146.5236  137.6636  151.0244 H   0  0  0  0  0  0  0  0  0  0  0  0
  145.1010  138.5603  151.4950 H   0  0  0  0  0  0  0  0  0  0  0  0
  145.4103  140.2961  153.2868 H   0  0  0  0  0  0  0  0  0  0  0  0
  152.5222  139.0726  157.1377 H   0  0  0  0  0  0  0  0  0  0  0  0
  1  2  1  0  0  0  0
  1 25  1  0  0  0  0
  1 26  1  0  0  0  0
  1 27  1  0  0  0  0
  2  3  1  0  0  0  0
  2 28  1  0  0  0  0
  2 29  1  0  0  0  0
  3  4  1  0  0  0  0
  4 24  1  0  0  0  0
  4  5  1  0  0  0  0
  4 30  1  0  0  0  0
  5  6  1  0  0  0  0
  5 31  1  0  0  0  0
  5 32  1  0  0  0  0
  6  7  1  0  0  0  0
  6 33  1  0  0  0  0
  6 34  1  0  0  0  0
  7  8  1  0  0  0  0
  7 23  1  0  0  0  0
  7 54  1  0  0  0  0
  8  9  1  0  0  0  0
  8 35  1  0  0  0  0
  8 36  1  0  0  0  0
  9 10  1  0  0  0  0
  9 11  1  0  0  0  0
  9 37  1  0  0  0  0
 10 38  1  0  0  0  0
 11 12  1  0  0  0  0
 11 39  1  0  0  0  0
 11 40  1  0  0  0  0
 12 22  1  0  0  0  0
 12 13  1  0  0  0  0
 13 14  2  0  0  0  0
 13 41  1  0  0  0  0
 14 15  1  0  0  0  0
 14 55  1  0  0  0  0
 15 22  2  0  0  0  0
 15 16  1  0  0  0  0
 16 17  2  0  0  0  0
 16 42  1  0  0  0  0
 17 18  1  0  0  0  0
 17 19  1  0  0  0  0
 18 43  1  0  0  0  0
 18 44  1  0  0  0  0
 18 45  1  0  0  0  0
 19 20  1  0  0  0  0
 19 21  2  0  0  0  0
 20 46  1  0  0  0  0
 20 47  1  0  0  0  0
 20 48  1  0  0  0  0
 21 22  1  0  0  0  0
 21 49  1  0  0  0  0
 23 24  1  0  0  0  0
 23 50  1  0  0  0  0
 23 51  1  0  0  0  0
 24 52  1  0  0  0  0
 24 53  1  0  0  0  0
M  CHG  1   7   1
M  CHG  1  14   1
M  END
> <s_m_source_file>
AV-unprocessed.smi

> <i_m_source_file_index>
1697

> <i_lp_mmshare_version>
43012

> <i_f3d_flags>
0

> <s_epik_input>
W0NIM11bQ0gyXU9bQ0hdMVtDSDJdW0NIMl1OKFtDSDJdW0NIMl0xKVtDSDJdW0NASF0oW09IXSlbQ0gyXW4oW2NIXW4yKWMoYzIzKVtjSF1jKFtDSDNdKWMoW2NIXTMpW0NIM10=

> <s_epik_cmdline>
J2VwaWtfcHl0aG9uJywgJy1waCcsICc3LjAnLCAnLXRuJywgJzgnLCAnLW1hJywgJzIwMCcsICctbWV0YWxfYmluZGluZycsICctaW1hZScsICc8aW5maWxlLm1hZT4nLCAnLW9tYWUnLCAnPG91dGZpbGUubWFlPic=

> <r_epik_Ionization_Penalty>
1.20016

> <r_epik_Ionization_Penalty_Charging>
1.20016

> <r_epik_Ionization_Penalty_Neutral>
1.70998e-06

> <r_epik_State_Penalty>
1.27959

> <r_epik_Charging_Adjusted_Penalty>
2.47975

> <i_epik_Tot_Q>
2

> <i_epik_Tot_abs_Q>
2

> <r_epik_Metal_State_Penalty>
5.29682

> <b_epik_Metal_Only>
0

> <s_lp_Force_Field>
OPLS_2005

> <r_lp_Energy>
35.517

> <b_lp_Chiralities_Consistent>
1

> <s_lp_Variant>
AV-unprocessed.smi:1697-6

> <Gold.Version>
5.8.1

> <Gold.Id.Protein>
6NUR|6NUR_protein|mol2

> <Gold.PLP.Fitness>
58.3925

> <Gold.PLP.PLP>
-47.5167

> <Gold.PLP.part.hbond>
-3.4362

> <Gold.PLP.part.metal>
0.0000

> <Gold.PLP.part.buried>
-0.2749

> <Gold.PLP.part.nonpolar>
-45.4647

> <Gold.PLP.part.repulsive>
0.2882

> <Gold.PLP.ligand.clash>
0.0000

> <Gold.PLP.ligand.torsion>
0.6881

> <Gold.PLP.Chemscore.Hbond>
4.0374

> <Gold.PLP.Chemscore.CHOScore>
0.0000

> <Gold.PLP.Chemscore.Metal>
0.0000

> <Gold.Chemscore.Hbonds>
donor molecule, donor type, donor heavy atom, donor atom, acceptor molecule, acceptor atom, score
      L1  H     7    54       P1 10175  2.00
      L1  H    10    38       P1  7957  0.69
      P1  H  7989  7998       L1    10  0.16
      P1  H  8011  8017       L1    10  1.00

> <Gold.PLP.Chemscore.Internal.Correction>
0.1398

> <Gold.Rescore>
     Score         DG    S(hbond)    S(metal)    S(lipo)     H(rot)  DE(clash)    DE(int)     intcor
     21.34     -22.41       2.39        0.00     127.92       2.35       0.24       0.84       ----

> <Gold.Chemscore.Fitness>
21.3369

> <Gold.Chemscore.DG>
-22.4143

> <Gold.Chemscore.ZeroCoef>
-5.4800

> <Gold.Chemscore.Hbond>
2.3880

> <Gold.Chemscore.Metal>
0.0000

> <Gold.Chemscore.Lipo>
127.9154

> <Gold.Chemscore.Internal_Hbond>
0.0000

> <Gold.Chemscore.DEClash>
0.2388

> <Gold.Chemscore.DEInternal>
0.8386

> <Gold.Chemscore.Rot>
2.3468

> <Gold.Chemscore.Internal.Correction>
   9.000000E+99

> <Gold.Chemscore.Hbonds>
donor molecule, donor type, donor heavy atom, donor atom, acceptor molecule, acceptor atom, score
      L1  H     7    54       P1 10175  0.99
      L1  H    10    38       P1  7957  0.70
      P1  H  7989  7998       L1    10  0.04
      P1  H  8011  8017       L1    10  0.30

> <Gold.Chemscore.Hbond.Weighted>
-7.9759

> <Gold.Chemscore.Metal.Weighted>
-0.0000

> <Gold.Chemscore.Lipo.Weighted>
-14.9661

> <Gold.Chemscore.Internal_Hbond.Weighted>
0.0000

> <Gold.Chemscore.DEClash.Weighted>
0.2388

> <Gold.Chemscore.DEInternal.Weighted>
0.8386

> <Gold.Chemscore.Rot.Weighted>
6.0077

> <Gold.Chemscore.Internal.Correction.Weighted>
   9.000000E+99

> <Gold.Protein.RotatedTorsions>
[ 6907 6896 6895 6894 ] final   -9.98 input  -60.11 | X-H torsion
[ 7974 7965 7964 7962 ] final   53.18 input  175.53 | X-H torsion
[ 8008 7997 7996 7995 ] final   53.49 input   59.86 | X-H torsion
[ 10167 10162 10161 10158 ] final  178.50 input  -65.29 | X-H torsion
[ 10718 10713 10712 10709 ] final   44.71 input   66.30 | X-H torsion
[ 10763 10752 10751 10750 ] final   22.87 input  -60.55 | X-H torsion
[ 11005 11000 10999 10996 ] final -106.62 input  -57.11 | X-H torsion

> <Gold.Protein.ActiveResidues>
 VAL166  LYS551  ARG553  GLY616  TRP617  ASP618  TYR619  PRO620  LYS621  CYS622 
 ASP623  PHE694  ASN695  SER759  ASP760  ASP761  ALA762  ILE779  LEU786  VAL792 
 PHE793  MET794  SER795  GLU796  ALA797  LYS798  CYS799  TRP800  GLU811  SER814 

> <Gold.Protein.RotatedAtoms>
  151.4092  135.0982  159.9579 H   0  0  0  0  0  0  0  0  0  0  0  0  # atno 6907 bound_to 6896
  152.5025  133.8814  159.7358 H   0  0  0  0  0  0  0  0  0  0  0  0  # atno 6908 bound_to 6896
  150.9305  133.6716  159.2840 H   0  0  0  0  0  0  0  0  0  0  0  0  # atno 6909 bound_to 6896
  145.9738  139.4174  143.0174 H   0  0  0  0  0  0  0  0  0  0  0  0  # atno 7974 bound_to 7965
  155.4691  140.3464  155.4323 H   0  0  0  0  0  0  0  0  0  0  0  0  # atno 8008 bound_to 7997
  156.1112  140.1461  156.9365 H   0  0  0  0  0  0  0  0  0  0  0  0  # atno 8009 bound_to 7997
  154.4757  140.0886  156.7236 H   0  0  0  0  0  0  0  0  0  0  0  0  # atno 8010 bound_to 7997
  139.5296  144.2673  152.0657 H   0  0  0  0  0  0  0  0  0  0  0  0  # atno 10167 bound_to 10162
  157.4298  130.8018  149.7592 H   0  0  0  0  0  0  0  0  0  0  0  0  # atno 10718 bound_to 10713
  153.0882  135.6639  153.9907 H   0  0  0  0  0  0  0  0  0  0  0  0  # atno 10763 bound_to 10752
  153.9511  135.2984  155.3440 H   0  0  0  0  0  0  0  0  0  0  0  0  # atno 10764 bound_to 10752
  154.7293  135.5130  153.9010 H   0  0  0  0  0  0  0  0  0  0  0  0  # atno 10765 bound_to 10752
  141.0995  133.8909  157.1878 H   0  0  0  0  0  0  0  0  0  0  0  0  # atno 11005 bound_to 11000
  145.7869  140.9832  143.1070 LP  0  0  0  0  0  0  0  0  0  0  0  0  # atno 17320 bound_to 7965
  144.6843  139.9633  143.7481 LP  0  0  0  0  0  0  0  0  0  0  0  0  # atno 17321 bound_to 7965
  140.2135  144.4539  150.6375 LP  0  0  0  0  0  0  0  0  0  0  0  0  # atno 17342 bound_to 10162
  140.6465  143.2215  151.6173 LP  0  0  0  0  0  0  0  0  0  0  0  0  # atno 17343 bound_to 10162
  155.9909  130.3941  150.3008 LP  0  0  0  0  0  0  0  0  0  0  0  0  # atno 17370 bound_to 10713
  157.1163  131.0235  151.3027 LP  0  0  0  0  0  0  0  0  0  0  0  0  # atno 17371 bound_to 10713
  139.9842  135.0087  156.9823 LP  0  0  0  0  0  0  0  0  0  0  0  0  # atno 17394 bound_to 11000
  140.5056  134.1053  155.7259 LP  0  0  0  0  0  0  0  0  0  0  0  0  # atno 17395 bound_to 11000

$$$$
