AV-unprocessed.smi:2706|AV-procd|sdf|10448|dock2
  -GOLD-   2272014493D 1   1.00000     0.00000
 Structure written by MMmdl.
 44 47  0  0  0  0  0  0  0  0  2 V2000
  145.2290  132.2161  151.4862 C   0  0  0  0  0  0  0  0  0  0  0  0
  145.8774  131.0325  152.0360 N   0  0  0  0  0  0  0  0  0  0  0  0
  145.4004  129.7026  151.6725 C   0  0  0  0  0  0  0  0  0  0  0  0
  147.0696  131.1709  152.7783 C   0  0  0  0  0  0  0  0  0  0  0  0
  147.7784  130.0718  153.3184 C   0  0  0  0  0  0  0  0  0  0  0  0
  148.9612  130.2980  154.0480 C   0  0  0  0  0  0  0  0  0  0  0  0
  149.4248  131.6153  154.2313 C   0  0  0  0  0  0  0  0  0  0  0  0
  148.6919  132.6948  153.6776 C   0  0  0  0  0  0  0  0  0  0  0  0
  149.0442  134.0695  153.7859 N   0  0  0  0  0  0  0  0  0  0  0  0
  149.7898  134.6953  154.7146 C   0  0  0  0  0  0  0  0  0  0  0  0
  150.3272  134.1581  155.6824 O   0  0  0  0  0  0  0  0  0  0  0  0
  149.8794  136.0076  154.4551 N   0  0  0  0  0  0  0  0  0  0  0  0
  150.5962  136.9617  155.2382 C   0  0  2  0  0  0  0  0  0  0  0  0
  150.4013  138.4228  154.8893 C   0  0  1  0  0  0  0  0  0  0  0  0
  150.8601  139.6312  155.7023 C   0  0  1  0  0  0  0  0  0  0  0  0
  151.3873  139.2072  157.0888 C   0  0  0  0  0  0  0  0  0  0  0  0
  152.7140  138.4976  156.7380 C   0  0  0  0  0  0  0  0  0  0  0  0
  152.7581  138.6159  155.2004 C   0  0  2  0  0  0  0  0  0  0  0  0
  152.1625  140.0063  155.0026 C   0  0  0  0  0  0  0  0  0  0  0  0
  151.7059  137.7247  154.5445 C   0  0  1  0  0  0  0  0  0  0  0  0
  147.5630  132.4166  152.9851 N   0  3  0  0  0  0  0  0  0  0  0  0
  145.9137  132.7599  150.8343 H   0  0  0  0  0  0  0  0  0  0  0  0
  144.9036  132.8826  152.2856 H   0  0  0  0  0  0  0  0  0  0  0  0
  144.3505  131.9500  150.8980 H   0  0  0  0  0  0  0  0  0  0  0  0
  146.1282  129.1954  151.0383 H   0  0  0  0  0  0  0  0  0  0  0  0
  144.4590  129.7552  151.1250 H   0  0  0  0  0  0  0  0  0  0  0  0
  145.2315  129.0969  152.5634 H   0  0  0  0  0  0  0  0  0  0  0  0
  147.4350  129.0570  153.1841 H   0  0  0  0  0  0  0  0  0  0  0  0
  149.5098  129.4658  154.4642 H   0  0  0  0  0  0  0  0  0  0  0  0
  150.3332  131.7587  154.7939 H   0  0  0  0  0  0  0  0  0  0  0  0
  148.6731  134.6621  153.0580 H   0  0  0  0  0  0  0  0  0  0  0  0
  149.4051  136.3647  153.6384 H   0  0  0  0  0  0  0  0  0  0  0  0
  150.7400  136.7089  156.2859 H   0  0  0  0  0  0  0  0  0  0  0  0
  149.7573  138.6608  154.0442 H   0  0  0  0  0  0  0  0  0  0  0  0
  150.1081  140.4201  155.7312 H   0  0  0  0  0  0  0  0  0  0  0  0
  151.5773  140.0818  157.7126 H   0  0  0  0  0  0  0  0  0  0  0  0
  150.6869  138.5675  157.6263 H   0  0  0  0  0  0  0  0  0  0  0  0
  153.5570  139.0228  157.1892 H   0  0  0  0  0  0  0  0  0  0  0  0
  152.7510  137.4636  157.0817 H   0  0  0  0  0  0  0  0  0  0  0  0
  153.7487  138.4738  154.7674 H   0  0  0  0  0  0  0  0  0  0  0  0
  152.0269  140.2723  153.9526 H   0  0  0  0  0  0  0  0  0  0  0  0
  152.7198  140.7998  155.5047 H   0  0  0  0  0  0  0  0  0  0  0  0
  151.8703  137.5304  153.4859 H   0  0  0  0  0  0  0  0  0  0  0  0
  147.0407  133.1975  152.5885 H   0  0  0  0  0  0  0  0  0  0  0  0
  1  2  1  0  0  0  0
  1 22  1  0  0  0  0
  1 23  1  0  0  0  0
  1 24  1  0  0  0  0
  2  3  1  0  0  0  0
  2  4  1  0  0  0  0
  3 25  1  0  0  0  0
  3 26  1  0  0  0  0
  3 27  1  0  0  0  0
  4 21  1  0  0  0  0
  4  5  2  0  0  0  0
  5  6  1  0  0  0  0
  5 28  1  0  0  0  0
  6  7  2  0  0  0  0
  6 29  1  0  0  0  0
  7  8  1  0  0  0  0
  7 30  1  0  0  0  0
  8  9  1  0  0  0  0
  8 21  2  0  0  0  0
  9 10  1  0  0  0  0
  9 31  1  0  0  0  0
 10 11  2  0  0  0  0
 10 12  1  0  0  0  0
 12 13  1  0  0  0  0
 12 32  1  0  0  0  0
 13 20  1  0  0  0  0
 13 14  1  0  0  0  0
 13 33  1  0  0  0  0
 14 20  1  0  0  0  0
 14 15  1  0  0  0  0
 14 34  1  0  0  0  0
 15 19  1  0  0  0  0
 15 16  1  0  0  0  0
 15 35  1  0  0  0  0
 16 17  1  0  0  0  0
 16 36  1  0  0  0  0
 16 37  1  0  0  0  0
 17 18  1  0  0  0  0
 17 38  1  0  0  0  0
 17 39  1  0  0  0  0
 18 19  1  0  0  0  0
 18 20  1  0  0  0  0
 18 40  1  0  0  0  0
 19 41  1  0  0  0  0
 19 42  1  0  0  0  0
 20 43  1  0  0  0  0
 21 44  1  0  0  0  0
M  CHG  1  21   1
M  END
> <s_m_source_file>
AV-unprocessed.smi

> <i_m_source_file_index>
2706

> <i_lp_mmshare_version>
43012

> <i_f3d_flags>
0

> <s_epik_input>
W0NIM11OKFtDSDNdKWMxW2NIXVtjSF1bY0hdYyhuMSlbTkhdQyg9TylbTkhdW0NASF0yW0NAQEhdM1tDQEBIXShbQ0gyXTQpW0NIMl1bQ0gyXVtDQEBIXTRbQ0BIXTIz

> <s_epik_cmdline>
J2VwaWtfcHl0aG9uJywgJy1waCcsICc3LjAnLCAnLXRuJywgJzgnLCAnLW1hJywgJzIwMCcsICctbWV0YWxfYmluZGluZycsICctaW1hZScsICc8aW5maWxlLm1hZT4nLCAnLW9tYWUnLCAnPG91dGZpbGUubWFlPic=

> <r_lp_tautomer_probability>
0.999994

> <r_epik_Ionization_Penalty>
1.8105

> <r_epik_Ionization_Penalty_Charging>
1.79227

> <r_epik_Ionization_Penalty_Neutral>
0.0182286

> <r_epik_State_Penalty>
1.90588

> <r_epik_Charging_Adjusted_Penalty>
3.69815

> <i_epik_Tot_Q>
1

> <i_epik_Tot_abs_Q>
1

> <r_epik_Metal_State_Penalty>
1.93501

> <b_epik_Metal_Only>
0

> <s_lp_Force_Field>
OPLS_2005

> <r_lp_Energy>
87.3902

> <b_lp_Chiralities_Consistent>
1

> <s_lp_Variant>
AV-unprocessed.smi:2706-5

> <Gold.Version>
5.8.1

> <Gold.Id.Protein>
6NUR|6NUR_protein|mol2

> <Gold.PLP.Fitness>
41.8816

> <Gold.PLP.PLP>
-36.3663

> <Gold.PLP.part.hbond>
-2.3600

> <Gold.PLP.part.metal>
0.0000

> <Gold.PLP.part.buried>
0.1703

> <Gold.PLP.part.nonpolar>
-34.1188

> <Gold.PLP.part.repulsive>
0.0898

> <Gold.PLP.ligand.clash>
0.0000

> <Gold.PLP.ligand.torsion>
0.1765

> <Gold.PLP.Chemscore.Hbond>
1.9360

> <Gold.PLP.Chemscore.CHOScore>
0.0000

> <Gold.PLP.Chemscore.Metal>
0.0000

> <Gold.Chemscore.Hbonds>
donor molecule, donor type, donor heavy atom, donor atom, acceptor molecule, acceptor atom, score
      L1  H     9    31       P1  7948  0.90
      L1  H    12    32       P1  7948  0.99

> <Gold.PLP.Chemscore.Internal.Correction>
0.0602

> <Gold.Rescore>
     Score         DG    S(hbond)    S(metal)    S(lipo)     H(rot)  DE(clash)    DE(int)     intcor
     14.83     -17.11       1.33        0.00      83.22       1.00       1.32       0.96       ----

> <Gold.Chemscore.Fitness>
14.8301

> <Gold.Chemscore.DG>
-17.1085

> <Gold.Chemscore.ZeroCoef>
-5.4800

> <Gold.Chemscore.Hbond>
1.3330

> <Gold.Chemscore.Metal>
0.0000

> <Gold.Chemscore.Lipo>
83.2161

> <Gold.Chemscore.Internal_Hbond>
0.0000

> <Gold.Chemscore.DEClash>
1.3167

> <Gold.Chemscore.DEInternal>
0.9617

> <Gold.Chemscore.Rot>
1.0000

> <Gold.Chemscore.Internal.Correction>
   9.000000E+99

> <Gold.Chemscore.Hbonds>
donor molecule, donor type, donor heavy atom, donor atom, acceptor molecule, acceptor atom, score
      L1  H     9    31       P1  7948  0.19
      L1  H    12    32       P1  7948  0.73

> <Gold.Chemscore.Hbond.Weighted>
-4.4522

> <Gold.Chemscore.Metal.Weighted>
-0.0000

> <Gold.Chemscore.Lipo.Weighted>
-9.7363

> <Gold.Chemscore.Internal_Hbond.Weighted>
0.0000

> <Gold.Chemscore.DEClash.Weighted>
1.3167

> <Gold.Chemscore.DEInternal.Weighted>
0.9617

> <Gold.Chemscore.Rot.Weighted>
2.5600

> <Gold.Chemscore.Internal.Correction.Weighted>
   9.000000E+99

> <Gold.Protein.RotatedTorsions>
[ 6907 6896 6895 6894 ] final   92.26 input  -60.11 | X-H torsion
[ 7974 7965 7964 7962 ] final -129.30 input  175.53 | X-H torsion
[ 8008 7997 7996 7995 ] final   62.78 input   59.86 | X-H torsion
[ 10167 10162 10161 10158 ] final -152.60 input  -65.29 | X-H torsion
[ 10718 10713 10712 10709 ] final -173.04 input   66.30 | X-H torsion
[ 10763 10752 10751 10750 ] final   51.52 input  -60.55 | X-H torsion
[ 11005 11000 10999 10996 ] final -139.79 input  -57.11 | X-H torsion

> <Gold.Protein.ActiveResidues>
 VAL166  LYS551  ARG553  GLY616  TRP617  ASP618  TYR619  PRO620  LYS621  CYS622 
 ASP623  PHE694  ASN695  SER759  ASP760  ASP761  ALA762  ILE779  LEU786  VAL792 
 PHE793  MET794  SER795  GLU796  ALA797  LYS798  CYS799  TRP800  GLU811  SER814 

> <Gold.Protein.RotatedAtoms>
  152.5452  134.1529  159.8525 H   0  0  0  0  0  0  0  0  0  0  0  0  # atno 6907 bound_to 6896
  151.1555  133.4872  159.2602 H   0  0  0  0  0  0  0  0  0  0  0  0  # atno 6908 bound_to 6896
  151.1428  135.0199  159.8688 H   0  0  0  0  0  0  0  0  0  0  0  0  # atno 6909 bound_to 6896
  144.9585  140.7421  143.4744 H   0  0  0  0  0  0  0  0  0  0  0  0  # atno 7974 bound_to 7965
  155.6198  140.3495  155.4648 H   0  0  0  0  0  0  0  0  0  0  0  0  # atno 8008 bound_to 7997
  156.0088  140.1229  157.0498 H   0  0  0  0  0  0  0  0  0  0  0  0  # atno 8009 bound_to 7997
  154.4273  140.1086  156.5786 H   0  0  0  0  0  0  0  0  0  0  0  0  # atno 8010 bound_to 7997
  139.7167  143.9021  152.2488 H   0  0  0  0  0  0  0  0  0  0  0  0  # atno 10167 bound_to 10162
  156.7645  130.9425  151.3118 H   0  0  0  0  0  0  0  0  0  0  0  0  # atno 10718 bound_to 10713
  152.9785  135.5843  154.4429 H   0  0  0  0  0  0  0  0  0  0  0  0  # atno 10763 bound_to 10752
  154.4028  135.2769  155.2088 H   0  0  0  0  0  0  0  0  0  0  0  0  # atno 10764 bound_to 10752
  154.3911  135.6125  153.5898 H   0  0  0  0  0  0  0  0  0  0  0  0  # atno 10765 bound_to 10752
  140.8486  134.2314  157.4772 H   0  0  0  0  0  0  0  0  0  0  0  0  # atno 11005 bound_to 11000
  145.2736  139.1945  143.4828 LP  0  0  0  0  0  0  0  0  0  0  0  0  # atno 17320 bound_to 7965
  146.3345  140.2686  142.8605 LP  0  0  0  0  0  0  0  0  0  0  0  0  # atno 17321 bound_to 7965
  139.8906  144.6968  150.8775 LP  0  0  0  0  0  0  0  0  0  0  0  0  # atno 17342 bound_to 10162
  140.7745  143.3589  151.1866 LP  0  0  0  0  0  0  0  0  0  0  0  0  # atno 17343 bound_to 10162
  157.6719  130.9059  150.0061 LP  0  0  0  0  0  0  0  0  0  0  0  0  # atno 17370 bound_to 10713
  156.1318  130.3643  149.9720 LP  0  0  0  0  0  0  0  0  0  0  0  0  # atno 17371 bound_to 10713
  139.8704  134.9672  156.4588 LP  0  0  0  0  0  0  0  0  0  0  0  0  # atno 17394 bound_to 11000
  140.8815  133.7914  155.9472 LP  0  0  0  0  0  0  0  0  0  0  0  0  # atno 17395 bound_to 11000

$$$$
