AV-unprocessed.smi:2773|AV-procd|sdf|10676|dock2
  -GOLD-   2272015123D 1   1.00000     0.00000
 Structure written by MMmdl.
 30 31  0  0  0  0  0  0  0  0  1 V2000
  148.5708  138.7933  154.3106 C   0  0  0  0  0  0  0  0  0  0  0  0
  148.5013  140.1310  155.0144 C   0  0  2  0  0  0  0  0  0  0  0  0
  148.2117  141.3797  154.2257 C   0  0  0  0  0  0  0  0  0  0  0  0
  149.5870  141.1699  154.8204 C   0  0  1  0  0  0  0  0  0  0  0  0
  149.9349  142.0036  155.9319 N   0  0  0  0  0  0  0  0  0  0  0  0
  150.8352  141.7597  156.9015 C   0  0  0  0  0  0  0  0  0  0  0  0
  151.5082  140.7304  156.8956 O   0  0  0  0  0  0  0  0  0  0  0  0
  150.9432  142.7408  157.8200 N   0  0  0  0  0  0  0  0  0  0  0  0
  151.7666  142.7793  158.9760 C   0  0  0  0  0  0  0  0  0  0  0  0
  151.5451  143.8808  159.8317 C   0  0  0  0  0  0  0  0  0  0  0  0
  152.3095  144.0082  161.0067 C   0  0  0  0  0  0  0  0  0  0  0  0
  153.2766  143.0299  161.2979 C   0  0  0  0  0  0  0  0  0  0  0  0
  153.4374  141.9581  160.3940 C   0  0  0  0  0  0  0  0  0  0  0  0
  154.4558  140.8534  160.6385 C   0  0  0  0  0  0  0  0  0  0  0  0
  154.8172  140.8487  161.9218 F   0  0  0  0  0  0  0  0  0  0  0  0
  153.9623  139.6521  160.3359 F   0  0  0  0  0  0  0  0  0  0  0  0
  155.5368  141.0661  159.8878 F   0  0  0  0  0  0  0  0  0  0  0  0
  152.7004  141.8404  159.2663 N   0  0  0  0  0  0  0  0  0  0  0  0
  149.0251  138.8965  153.3246 H   0  0  0  0  0  0  0  0  0  0  0  0
  147.5687  138.3812  154.1903 H   0  0  0  0  0  0  0  0  0  0  0  0
  149.1677  138.0937  154.8961 H   0  0  0  0  0  0  0  0  0  0  0  0
  148.0540  140.0795  156.0057 H   0  0  0  0  0  0  0  0  0  0  0  0
  148.1163  141.2882  153.1454 H   0  0  0  0  0  0  0  0  0  0  0  0
  147.5629  142.1223  154.6864 H   0  0  0  0  0  0  0  0  0  0  0  0
  150.3657  140.9377  154.0954 H   0  0  0  0  0  0  0  0  0  0  0  0
  149.4907  142.9101  155.9532 H   0  0  0  0  0  0  0  0  0  0  0  0
  150.3534  143.5476  157.6802 H   0  0  0  0  0  0  0  0  0  0  0  0
  150.7972  144.6233  159.5937 H   0  0  0  0  0  0  0  0  0  0  0  0
  152.1548  144.8432  161.6742 H   0  0  0  0  0  0  0  0  0  0  0  0
  153.8740  143.1064  162.1941 H   0  0  0  0  0  0  0  0  0  0  0  0
  1  2  1  0  0  0  0
  1 19  1  0  0  0  0
  1 20  1  0  0  0  0
  1 21  1  0  0  0  0
  2  4  1  0  0  0  0
  2  3  1  0  0  0  0
  2 22  1  0  0  0  0
  3  4  1  0  0  0  0
  3 23  1  0  0  0  0
  3 24  1  0  0  0  0
  4  5  1  0  0  0  0
  4 25  1  0  0  0  0
  5  6  1  0  0  0  0
  5 26  1  0  0  0  0
  6  7  2  0  0  0  0
  6  8  1  0  0  0  0
  8  9  1  0  0  0  0
  8 27  1  0  0  0  0
  9 18  1  0  0  0  0
  9 10  2  0  0  0  0
 10 11  1  0  0  0  0
 10 28  1  0  0  0  0
 11 12  2  0  0  0  0
 11 29  1  0  0  0  0
 12 13  1  0  0  0  0
 12 30  1  0  0  0  0
 13 14  1  0  0  0  0
 13 18  2  0  0  0  0
 14 15  1  0  0  0  0
 14 16  1  0  0  0  0
 14 17  1  0  0  0  0
M  END
> <s_m_source_file>
AV-unprocessed.smi

> <i_m_source_file_index>
2773

> <i_lp_mmshare_version>
43012

> <i_f3d_flags>
0

> <s_epik_input>
W0NIM11bQ0BASF0xW0NIMl1bQ0BIXTFbTkhdQyg9TylbTkhdYzJbY0hdW2NIXVtjSF1jKG4yKUMoRikoRilG

> <s_epik_cmdline>
J2VwaWtfcHl0aG9uJywgJy1waCcsICc3LjAnLCAnLXRuJywgJzgnLCAnLW1hJywgJzIwMCcsICctbWV0YWxfYmluZGluZycsICctaW1hZScsICc8aW5maWxlLm1hZT4nLCAnLW9tYWUnLCAnPG91dGZpbGUubWFlPic=

> <r_lp_tautomer_probability>
1

> <r_epik_Ionization_Penalty>
4.04275e-05

> <r_epik_Ionization_Penalty_Charging>
0

> <r_epik_Ionization_Penalty_Neutral>
4.04275e-05

> <r_epik_State_Penalty>
-0

> <r_epik_Charging_Adjusted_Penalty>
0

> <i_epik_Tot_Q>
0

> <i_epik_Tot_abs_Q>
0

> <r_epik_Metal_State_Penalty>
-0

> <b_epik_Metal_Only>
0

> <s_lp_Force_Field>
OPLS_2005

> <r_lp_Energy>
31.927

> <b_lp_Chiralities_Consistent>
1

> <s_lp_Variant>
AV-unprocessed.smi:2773-1

> <Gold.Version>
5.8.1

> <Gold.Id.Protein>
6NUR|6NUR_protein|mol2

> <Gold.PLP.Fitness>
40.7049

> <Gold.PLP.PLP>
-40.2270

> <Gold.PLP.part.hbond>
-1.0000

> <Gold.PLP.part.metal>
0.0000

> <Gold.PLP.part.buried>
-4.3437

> <Gold.PLP.part.nonpolar>
-33.8310

> <Gold.PLP.part.repulsive>
0.1749

> <Gold.PLP.ligand.clash>
0.2792

> <Gold.PLP.ligand.torsion>
1.1386

> <Gold.PLP.Chemscore.Hbond>
1.0000

> <Gold.PLP.Chemscore.CHOScore>
0.0000

> <Gold.PLP.Chemscore.Metal>
0.0000

> <Gold.Chemscore.Hbonds>
donor molecule, donor type, donor heavy atom, donor atom, acceptor molecule, acceptor atom, score
      L1  H     5    26       P1  8028  1.00

> <Gold.PLP.Chemscore.Internal.Correction>
0.0343

> <Gold.Rescore>
     Score         DG    S(hbond)    S(metal)    S(lipo)     H(rot)  DE(clash)    DE(int)     intcor
     13.41     -15.81       1.00        0.00      81.62       1.00       0.14       2.26       ----

> <Gold.Chemscore.Fitness>
13.4093

> <Gold.Chemscore.DG>
-15.8093

> <Gold.Chemscore.ZeroCoef>
-5.4800

> <Gold.Chemscore.Hbond>
1.0000

> <Gold.Chemscore.Metal>
0.0000

> <Gold.Chemscore.Lipo>
81.6179

> <Gold.Chemscore.Internal_Hbond>
0.0000

> <Gold.Chemscore.DEClash>
0.1373

> <Gold.Chemscore.DEInternal>
2.2627

> <Gold.Chemscore.Rot>
1.0000

> <Gold.Chemscore.Internal.Correction>
   9.000000E+99

> <Gold.Chemscore.Hbonds>
donor molecule, donor type, donor heavy atom, donor atom, acceptor molecule, acceptor atom, score
      L1  H     5    26       P1  8028  0.99

> <Gold.Chemscore.Hbond.Weighted>
-3.3400

> <Gold.Chemscore.Metal.Weighted>
-0.0000

> <Gold.Chemscore.Lipo.Weighted>
-9.5493

> <Gold.Chemscore.Internal_Hbond.Weighted>
0.0000

> <Gold.Chemscore.DEClash.Weighted>
0.1373

> <Gold.Chemscore.DEInternal.Weighted>
2.2627

> <Gold.Chemscore.Rot.Weighted>
2.5600

> <Gold.Chemscore.Internal.Correction.Weighted>
   9.000000E+99

> <Gold.Protein.RotatedTorsions>
[ 6907 6896 6895 6894 ] final  140.86 input  -60.11 | X-H torsion
[ 7974 7965 7964 7962 ] final   45.65 input  175.53 | X-H torsion
[ 8008 7997 7996 7995 ] final -148.87 input   59.86 | X-H torsion
[ 10167 10162 10161 10158 ] final -107.35 input  -65.29 | X-H torsion
[ 10718 10713 10712 10709 ] final  -49.24 input   66.30 | X-H torsion
[ 10763 10752 10751 10750 ] final  -17.44 input  -60.55 | X-H torsion
[ 11005 11000 10999 10996 ] final   47.26 input  -57.11 | X-H torsion

> <Gold.Protein.ActiveResidues>
 VAL166  LYS551  ARG553  GLY616  TRP617  ASP618  TYR619  PRO620  LYS621  CYS622 
 ASP623  PHE694  ASN695  SER759  ASP760  ASP761  ALA762  ILE779  LEU786  VAL792 
 PHE793  MET794  SER795  GLU796  ALA797  LYS798  CYS799  TRP800  GLU811  SER814 

> <Gold.Protein.RotatedAtoms>
  152.2379  133.5111  159.5253 H   0  0  0  0  0  0  0  0  0  0  0  0  # atno 6907 bound_to 6896
  150.7056  134.1128  159.4015 H   0  0  0  0  0  0  0  0  0  0  0  0  # atno 6908 bound_to 6896
  151.9049  135.0363  160.0560 H   0  0  0  0  0  0  0  0  0  0  0  0  # atno 6909 bound_to 6896
  146.0461  139.4941  142.9748 H   0  0  0  0  0  0  0  0  0  0  0  0  # atno 7974 bound_to 7965
  155.5986  140.0660  157.2739 H   0  0  0  0  0  0  0  0  0  0  0  0  # atno 8008 bound_to 7997
  154.4285  140.1822  156.1196 H   0  0  0  0  0  0  0  0  0  0  0  0  # atno 8009 bound_to 7997
  156.0177  140.3320  155.7009 H   0  0  0  0  0  0  0  0  0  0  0  0  # atno 8010 bound_to 7997
  140.1780  143.3990  152.1304 H   0  0  0  0  0  0  0  0  0  0  0  0  # atno 10167 bound_to 10162
  156.1912  130.4153  149.9369 H   0  0  0  0  0  0  0  0  0  0  0  0  # atno 10718 bound_to 10713
  153.5738  135.7007  153.5493 H   0  0  0  0  0  0  0  0  0  0  0  0  # atno 10763 bound_to 10752
  153.3321  135.4044  155.1503 H   0  0  0  0  0  0  0  0  0  0  0  0  # atno 10764 bound_to 10752
  154.8629  135.3721  154.5262 H   0  0  0  0  0  0  0  0  0  0  0  0  # atno 10765 bound_to 10752
  140.1295  134.4724  155.8532 H   0  0  0  0  0  0  0  0  0  0  0  0  # atno 11005 bound_to 11000
  145.6803  141.0193  143.1610 LP  0  0  0  0  0  0  0  0  0  0  0  0  # atno 17320 bound_to 7965
  144.7098  139.8414  143.7418 LP  0  0  0  0  0  0  0  0  0  0  0  0  # atno 17321 bound_to 7965
  139.5309  144.7157  151.5061 LP  0  0  0  0  0  0  0  0  0  0  0  0  # atno 17342 bound_to 10162
  140.6539  143.8640  150.6814 LP  0  0  0  0  0  0  0  0  0  0  0  0  # atno 17343 bound_to 10162
  156.7109  130.8970  151.3609 LP  0  0  0  0  0  0  0  0  0  0  0  0  # atno 17370 bound_to 10713
  157.6930  130.9253  150.0565 LP  0  0  0  0  0  0  0  0  0  0  0  0  # atno 17371 bound_to 10713
  141.2167  133.6790  156.7043 LP  0  0  0  0  0  0  0  0  0  0  0  0  # atno 17394 bound_to 11000
  140.2860  134.8279  157.3975 LP  0  0  0  0  0  0  0  0  0  0  0  0  # atno 17395 bound_to 11000

$$$$
