AV-unprocessed.smi:1602|AV-procd|sdf|6439|dock2
  -GOLD-   22720 7 83D 1   1.00000     0.00000
 Structure written by MMmdl.
 36 37  0  0  0  0  0  0  0  0  1 V2000
  154.4794  140.3698  160.7296 C   0  0  0  0  0  0  0  0  0  0  0  0
  153.6229  141.2457  159.8067 C   0  0  2  0  0  0  0  0  0  0  0  0
  153.1806  142.5567  160.4846 C   0  0  0  0  0  0  0  0  0  0  0  0
  152.4474  143.4243  159.5797 N   0  0  0  0  0  0  0  0  0  0  0  0
  152.1282  144.7563  159.7397 C   0  0  0  0  0  0  0  0  0  0  0  0
  151.4134  145.1378  158.6409 C   0  0  0  0  0  0  0  0  0  0  0  0
  151.3491  143.9546  157.8528 C   0  0  0  0  0  0  0  0  0  0  0  0
  151.9719  142.9316  158.4157 N   0  0  0  0  0  0  0  0  0  0  0  0
  152.4474  140.4868  159.3725 N   0  0  0  0  0  0  0  0  0  0  0  0
  152.6716  138.9464  158.6323 S   0  0  0  0  0  0  0  0  0  0  0  0
  154.0893  138.7956  158.2704 O   0  0  0  0  0  0  0  0  0  0  0  0
  151.9900  137.9416  159.4626 O   0  0  0  0  0  0  0  0  0  0  0  0
  151.7592  139.1928  157.1826 N   0  0  0  0  0  0  0  0  0  0  0  0
  150.9013  140.3905  157.1200 C   0  0  0  0  0  0  0  0  0  0  0  0
  149.9991  140.3643  155.8758 C   0  0  0  0  0  0  0  0  0  0  0  0
  150.7839  140.1873  154.7068 O   0  0  0  0  0  0  0  0  0  0  0  0
  151.4697  138.9450  154.7282 C   0  0  0  0  0  0  0  0  0  0  0  0
  152.4468  138.9001  155.9143 C   0  0  0  0  0  0  0  0  0  0  0  0
  155.3804  140.8973  161.0437 H   0  0  0  0  0  0  0  0  0  0  0  0
  154.7931  139.4559  160.2236 H   0  0  0  0  0  0  0  0  0  0  0  0
  153.9313  140.0837  161.6279 H   0  0  0  0  0  0  0  0  0  0  0  0
  154.2234  141.4935  158.9299 H   0  0  0  0  0  0  0  0  0  0  0  0
  152.5546  142.3481  161.3532 H   0  0  0  0  0  0  0  0  0  0  0  0
  154.0506  143.1037  160.8513 H   0  0  0  0  0  0  0  0  0  0  0  0
  152.4266  145.3127  160.6159 H   0  0  0  0  0  0  0  0  0  0  0  0
  150.9974  146.1122  158.4327 H   0  0  0  0  0  0  0  0  0  0  0  0
  150.8713  143.8097  156.8952 H   0  0  0  0  0  0  0  0  0  0  0  0
  151.7030  140.4757  160.0692 H   0  0  0  0  0  0  0  0  0  0  0  0
  150.2857  140.4590  158.0162 H   0  0  0  0  0  0  0  0  0  0  0  0
  151.5357  141.2774  157.1017 H   0  0  0  0  0  0  0  0  0  0  0  0
  149.2553  139.5694  155.9532 H   0  0  0  0  0  0  0  0  0  0  0  0
  149.4504  141.3025  155.7931 H   0  0  0  0  0  0  0  0  0  0  0  0
  150.7550  138.1222  154.7833 H   0  0  0  0  0  0  0  0  0  0  0  0
  152.0147  138.8271  153.7915 H   0  0  0  0  0  0  0  0  0  0  0  0
  153.2448  139.6297  155.7706 H   0  0  0  0  0  0  0  0  0  0  0  0
  152.9165  137.9178  155.9680 H   0  0  0  0  0  0  0  0  0  0  0  0
  1  2  1  0  0  0  0
  1 19  1  0  0  0  0
  1 20  1  0  0  0  0
  1 21  1  0  0  0  0
  2  3  1  0  0  0  0
  2  9  1  0  0  0  0
  2 22  1  0  0  0  0
  3  4  1  0  0  0  0
  3 23  1  0  0  0  0
  3 24  1  0  0  0  0
  4  8  1  0  0  0  0
  4  5  1  0  0  0  0
  5  6  2  0  0  0  0
  5 25  1  0  0  0  0
  6  7  1  0  0  0  0
  6 26  1  0  0  0  0
  7  8  2  0  0  0  0
  7 27  1  0  0  0  0
  9 10  1  0  0  0  0
  9 28  1  0  0  0  0
 10 11  2  0  0  0  0
 10 12  2  0  0  0  0
 10 13  1  0  0  0  0
 13 18  1  0  0  0  0
 13 14  1  0  0  0  0
 14 15  1  0  0  0  0
 14 29  1  0  0  0  0
 14 30  1  0  0  0  0
 15 16  1  0  0  0  0
 15 31  1  0  0  0  0
 15 32  1  0  0  0  0
 16 17  1  0  0  0  0
 17 18  1  0  0  0  0
 17 33  1  0  0  0  0
 17 34  1  0  0  0  0
 18 35  1  0  0  0  0
 18 36  1  0  0  0  0
M  END
> <s_m_source_file>
AV-unprocessed.smi

> <i_m_source_file_index>
1602

> <i_lp_mmshare_version>
43012

> <i_f3d_flags>
0

> <s_epik_input>
bjFbY0hdW2NIXVtjSF1uMVtDSDJdW0NAQEhdKFtDSDNdKVtOSF1TKD1PKSg9TylOMltDSDJdW0NIMl1PW0NIMl1bQ0gyXTI=

> <s_epik_cmdline>
J2VwaWtfcHl0aG9uJywgJy1waCcsICc3LjAnLCAnLXRuJywgJzgnLCAnLW1hJywgJzIwMCcsICctbWV0YWxfYmluZGluZycsICctaW1hZScsICc8aW5maWxlLm1hZT4nLCAnLW9tYWUnLCAnPG91dGZpbGUubWFlPic=

> <r_lp_tautomer_probability>
1

> <r_epik_Ionization_Penalty>
0.114248

> <r_epik_Ionization_Penalty_Charging>
0

> <r_epik_Ionization_Penalty_Neutral>
0.114248

> <r_epik_State_Penalty>
0.103909

> <r_epik_Charging_Adjusted_Penalty>
0.103909

> <i_epik_Tot_Q>
0

> <i_epik_Tot_abs_Q>
0

> <r_epik_Metal_State_Penalty>
0.436178

> <b_epik_Metal_Only>
0

> <s_lp_Force_Field>
OPLS_2005

> <r_lp_Energy>
7.48288

> <b_lp_Chiralities_Consistent>
1

> <s_lp_Variant>
AV-unprocessed.smi:1602-1

> <Gold.Version>
5.8.1

> <Gold.Id.Protein>
6NUR|6NUR_protein|mol2

> <Gold.PLP.Fitness>
48.1015

> <Gold.PLP.PLP>
-40.1632

> <Gold.PLP.part.hbond>
-1.9961

> <Gold.PLP.part.metal>
0.0000

> <Gold.PLP.part.buried>
-4.9288

> <Gold.PLP.part.nonpolar>
-33.1306

> <Gold.PLP.part.repulsive>
0.1053

> <Gold.PLP.ligand.clash>
0.5881

> <Gold.PLP.ligand.torsion>
0.6102

> <Gold.PLP.Chemscore.Hbond>
2.0000

> <Gold.PLP.Chemscore.CHOScore>
0.9993

> <Gold.PLP.Chemscore.Metal>
0.0000

> <Gold.Chemscore.Hbonds>
donor molecule, donor type, donor heavy atom, donor atom, acceptor molecule, acceptor atom, score
      P1  H  7989  7998       L1    16  0.85
      P1  H  7997  8009       L1    11  1.00
      L1  C     7    27       P1  8028  1.00

> <Gold.PLP.Chemscore.Internal.Correction>
0.7491

> <Gold.Rescore>
     Score         DG    S(hbond)    S(metal)    S(lipo)     H(rot)  DE(clash)    DE(int)     intcor
     16.05     -17.74       1.94        0.00      92.48       1.97       0.11       1.58       ----

> <Gold.Chemscore.Fitness>
16.0496

> <Gold.Chemscore.DG>
-17.7386

> <Gold.Chemscore.ZeroCoef>
-5.4800

> <Gold.Chemscore.Hbond>
1.9372

> <Gold.Chemscore.Metal>
0.0000

> <Gold.Chemscore.Lipo>
92.4781

> <Gold.Chemscore.Internal_Hbond>
0.0000

> <Gold.Chemscore.DEClash>
0.1058

> <Gold.Chemscore.DEInternal>
1.5833

> <Gold.Chemscore.Rot>
1.9654

> <Gold.Chemscore.Internal.Correction>
   9.000000E+99

> <Gold.Chemscore.Hbonds>
donor molecule, donor type, donor heavy atom, donor atom, acceptor molecule, acceptor atom, score
      P1  H  7989  7998       L1    16  0.15
      P1  H  7997  8009       L1    11  0.99

> <Gold.Chemscore.Hbond.Weighted>
-6.4702

> <Gold.Chemscore.Metal.Weighted>
-0.0000

> <Gold.Chemscore.Lipo.Weighted>
-10.8199

> <Gold.Chemscore.Internal_Hbond.Weighted>
0.0000

> <Gold.Chemscore.DEClash.Weighted>
0.1058

> <Gold.Chemscore.DEInternal.Weighted>
1.5833

> <Gold.Chemscore.Rot.Weighted>
5.0315

> <Gold.Chemscore.Internal.Correction.Weighted>
   9.000000E+99

> <Gold.Protein.RotatedTorsions>
[ 6907 6896 6895 6894 ] final  136.77 input  -60.11 | X-H torsion
[ 7974 7965 7964 7962 ] final  -53.42 input  175.53 | X-H torsion
[ 8008 7997 7996 7995 ] final  127.35 input   59.86 | X-H torsion
[ 10167 10162 10161 10158 ] final   -1.45 input  -65.29 | X-H torsion
[ 10718 10713 10712 10709 ] final  101.60 input   66.30 | X-H torsion
[ 10763 10752 10751 10750 ] final  -65.68 input  -60.55 | X-H torsion
[ 11005 11000 10999 10996 ] final   54.72 input  -57.11 | X-H torsion

> <Gold.Protein.ActiveResidues>
 VAL166  LYS551  ARG553  GLY616  TRP617  ASP618  TYR619  PRO620  LYS621  CYS622 
 ASP623  PHE694  ASN695  SER759  ASP760  ASP761  ALA762  ILE779  LEU786  VAL792 
 PHE793  MET794  SER795  GLU796  ALA797  LYS798  CYS799  TRP800  GLU811  SER814 

> <Gold.Protein.RotatedAtoms>
  152.2856  133.5512  159.5524 H   0  0  0  0  0  0  0  0  0  0  0  0  # atno 6907 bound_to 6896
  150.7214  134.0502  159.3804 H   0  0  0  0  0  0  0  0  0  0  0  0  # atno 6908 bound_to 6896
  151.8410  135.0590  160.0499 H   0  0  0  0  0  0  0  0  0  0  0  0  # atno 6909 bound_to 6896
  145.8970  140.8025  142.9762 H   0  0  0  0  0  0  0  0  0  0  0  0  # atno 7974 bound_to 7965
  156.2888  140.2671  156.2259 H   0  0  0  0  0  0  0  0  0  0  0  0  # atno 8008 bound_to 7997
  155.0121  140.0387  157.2422 H   0  0  0  0  0  0  0  0  0  0  0  0  # atno 8009 bound_to 7997
  154.7509  140.2743  155.6298 H   0  0  0  0  0  0  0  0  0  0  0  0  # atno 8010 bound_to 7997
  140.6810  143.6774  150.8134 H   0  0  0  0  0  0  0  0  0  0  0  0  # atno 10167 bound_to 10162
  157.6825  131.0730  150.5277 H   0  0  0  0  0  0  0  0  0  0  0  0  # atno 10718 bound_to 10713
  154.3486  135.6141  153.5631 H   0  0  0  0  0  0  0  0  0  0  0  0  # atno 10763 bound_to 10752
  152.9799  135.5787  154.4770 H   0  0  0  0  0  0  0  0  0  0  0  0  # atno 10764 bound_to 10752
  154.4487  135.2852  155.1774 H   0  0  0  0  0  0  0  0  0  0  0  0  # atno 10765 bound_to 10752
  140.0664  134.5531  155.9095 H   0  0  0  0  0  0  0  0  0  0  0  0  # atno 11005 bound_to 11000
  144.6733  140.1618  143.7422 LP  0  0  0  0  0  0  0  0  0  0  0  0  # atno 17320 bound_to 7965
  145.8838  139.2337  143.1589 LP  0  0  0  0  0  0  0  0  0  0  0  0  # atno 17321 bound_to 7965
  140.0474  143.5284  152.2689 LP  0  0  0  0  0  0  0  0  0  0  0  0  # atno 17342 bound_to 10162
  139.6133  144.7614  151.2902 LP  0  0  0  0  0  0  0  0  0  0  0  0  # atno 17343 bound_to 10162
  156.5588  130.4250  149.6072 LP  0  0  0  0  0  0  0  0  0  0  0  0  # atno 17370 bound_to 10713
  156.2839  130.7086  151.1917 LP  0  0  0  0  0  0  0  0  0  0  0  0  # atno 17371 bound_to 10713
  141.1994  133.6607  156.5843 LP  0  0  0  0  0  0  0  0  0  0  0  0  # atno 17394 bound_to 11000
  140.3693  134.7620  157.4587 LP  0  0  0  0  0  0  0  0  0  0  0  0  # atno 17395 bound_to 11000

$$$$
