AV-unprocessed.smi:2572|AV-procd|sdf|10110|dock2
  -GOLD-   2272014123D 1   1.00000     0.00000
 Structure written by MMmdl.
 38 39  0  0  0  0  0  0  0  0  1 V2000
  145.2912  141.9567  156.1122 C   0  0  0  0  0  0  0  0  0  0  0  0
  146.3527  141.6992  157.0293 O   0  0  0  0  0  0  0  0  0  0  0  0
  147.5308  141.2027  156.4992 C   0  0  0  0  0  0  0  0  0  0  0  0
  147.7733  141.3731  155.0823 C   0  0  0  0  0  0  0  0  0  0  0  0
  148.9201  140.8962  154.5520 C   0  0  0  0  0  0  0  0  0  0  0  0
  149.9230  140.2152  155.3702 C   0  0  0  0  0  0  0  0  0  0  0  0
  150.9792  139.7780  154.9139 O   0  0  0  0  0  0  0  0  0  0  0  0
  149.5798  140.1104  156.6885 N   0  0  0  0  0  0  0  0  0  0  0  0
  150.4728  139.4663  157.6591 C   0  0  0  0  0  0  0  0  0  0  0  0
  151.7915  140.2495  157.8393 C   0  0  2  0  0  0  0  0  0  0  0  0
  152.6626  139.9277  156.7722 O   0  0  0  0  0  0  0  0  0  0  0  0
  152.4990  139.8784  159.1560 C   0  0  0  0  0  0  0  0  0  0  0  0
  153.5596  140.9033  159.5921 C   0  0  0  0  0  0  0  0  0  0  0  0
  152.9400  142.2288  159.9919 C   0  0  0  0  0  0  0  0  0  0  0  0
  152.7584  142.5440  161.3551 C   0  0  0  0  0  0  0  0  0  0  0  0
  152.1908  143.7789  161.7260 C   0  0  0  0  0  0  0  0  0  0  0  0
  151.8041  144.7025  160.7356 C   0  0  0  0  0  0  0  0  0  0  0  0
  151.9836  144.3907  159.3740 C   0  0  0  0  0  0  0  0  0  0  0  0
  152.5503  143.1559  159.0024 C   0  0  0  0  0  0  0  0  0  0  0  0
  148.4056  140.5970  157.2390 N   0  0  0  0  0  0  0  0  0  0  0  0
  144.4313  142.3385  156.6623 H   0  0  0  0  0  0  0  0  0  0  0  0
  144.9707  141.0498  155.5963 H   0  0  0  0  0  0  0  0  0  0  0  0
  145.5663  142.7116  155.3734 H   0  0  0  0  0  0  0  0  0  0  0  0
  147.0407  141.8756  154.4682 H   0  0  0  0  0  0  0  0  0  0  0  0
  149.1040  141.0205  153.4950 H   0  0  0  0  0  0  0  0  0  0  0  0
  149.9442  139.4285  158.6134 H   0  0  0  0  0  0  0  0  0  0  0  0
  150.6685  138.4212  157.4115 H   0  0  0  0  0  0  0  0  0  0  0  0
  151.5964  141.3227  157.8304 H   0  0  0  0  0  0  0  0  0  0  0  0
  152.1966  140.0384  155.9576 H   0  0  0  0  0  0  0  0  0  0  0  0
  151.7527  139.8025  159.9481 H   0  0  0  0  0  0  0  0  0  0  0  0
  152.9507  138.8889  159.0700 H   0  0  0  0  0  0  0  0  0  0  0  0
  154.1398  140.5176  160.4311 H   0  0  0  0  0  0  0  0  0  0  0  0
  154.2698  141.0734  158.7820 H   0  0  0  0  0  0  0  0  0  0  0  0
  153.0564  141.8413  162.1194 H   0  0  0  0  0  0  0  0  0  0  0  0
  152.0542  144.0179  162.7704 H   0  0  0  0  0  0  0  0  0  0  0  0
  151.3707  145.6502  161.0201 H   0  0  0  0  0  0  0  0  0  0  0  0
  151.6877  145.0989  158.6141 H   0  0  0  0  0  0  0  0  0  0  0  0
  152.6875  142.9234  157.9562 H   0  0  0  0  0  0  0  0  0  0  0  0
  1  2  1  0  0  0  0
  1 21  1  0  0  0  0
  1 22  1  0  0  0  0
  1 23  1  0  0  0  0
  2  3  1  0  0  0  0
  3 20  2  0  0  0  0
  3  4  1  0  0  0  0
  4  5  2  0  0  0  0
  4 24  1  0  0  0  0
  5  6  1  0  0  0  0
  5 25  1  0  0  0  0
  6  7  2  0  0  0  0
  6  8  1  0  0  0  0
  8  9  1  0  0  0  0
  8 20  1  0  0  0  0
  9 10  1  0  0  0  0
  9 26  1  0  0  0  0
  9 27  1  0  0  0  0
 10 11  1  0  0  0  0
 10 12  1  0  0  0  0
 10 28  1  0  0  0  0
 11 29  1  0  0  0  0
 12 13  1  0  0  0  0
 12 30  1  0  0  0  0
 12 31  1  0  0  0  0
 13 14  1  0  0  0  0
 13 32  1  0  0  0  0
 13 33  1  0  0  0  0
 14 19  1  0  0  0  0
 14 15  2  0  0  0  0
 15 16  1  0  0  0  0
 15 34  1  0  0  0  0
 16 17  2  0  0  0  0
 16 35  1  0  0  0  0
 17 18  1  0  0  0  0
 17 36  1  0  0  0  0
 18 19  2  0  0  0  0
 18 37  1  0  0  0  0
 19 38  1  0  0  0  0
M  END
> <s_m_source_file>
AV-unprocessed.smi

> <i_m_source_file_index>
2572

> <i_lp_mmshare_version>
43012

> <i_f3d_flags>
0

> <s_epik_input>
W0NIM11PYzFbY0hdW2NIXWMoPU8pbihuMSlbQ0gyXVtDQEhdKFtPSF0pW0NIMl1bQ0gyXWMyW2NIXVtjSF1bY0hdW2NIXVtjSF0y

> <s_epik_cmdline>
J2VwaWtfcHl0aG9uJywgJy1waCcsICc3LjAnLCAnLXRuJywgJzgnLCAnLW1hJywgJzIwMCcsICctbWV0YWxfYmluZGluZycsICctaW1hZScsICc8aW5maWxlLm1hZT4nLCAnLW9tYWUnLCAnPG91dGZpbGUubWFlPic=

> <r_lp_tautomer_probability>
1

> <r_epik_Ionization_Penalty>
8.48543e-06

> <r_epik_Ionization_Penalty_Charging>
6.90219e-06

> <r_epik_Ionization_Penalty_Neutral>
1.58323e-06

> <r_epik_State_Penalty>
-0

> <r_epik_Charging_Adjusted_Penalty>
6.90219e-06

> <i_epik_Tot_Q>
0

> <i_epik_Tot_abs_Q>
0

> <r_epik_Metal_State_Penalty>
-0

> <b_epik_Metal_Only>
0

> <s_lp_Force_Field>
OPLS_2005

> <r_lp_Energy>
29.9707

> <b_lp_Chiralities_Consistent>
1

> <s_lp_Variant>
AV-unprocessed.smi:2572-1

> <Gold.Version>
5.8.1

> <Gold.Id.Protein>
6NUR|6NUR_protein|mol2

> <Gold.PLP.Fitness>
50.7508

> <Gold.PLP.PLP>
-46.5212

> <Gold.PLP.part.hbond>
-2.0000

> <Gold.PLP.part.metal>
0.0000

> <Gold.PLP.part.buried>
-4.3998

> <Gold.PLP.part.nonpolar>
-40.0539

> <Gold.PLP.part.repulsive>
0.2403

> <Gold.PLP.ligand.clash>
0.0013

> <Gold.PLP.ligand.torsion>
0.9289

> <Gold.PLP.Chemscore.Hbond>
2.0000

> <Gold.PLP.Chemscore.CHOScore>
0.0000

> <Gold.PLP.Chemscore.Metal>
0.0000

> <Gold.Chemscore.Hbonds>
donor molecule, donor type, donor heavy atom, donor atom, acceptor molecule, acceptor atom, score
      P1  H  7989  7998       L1     7  1.00
      P1  H  7997  8010       L1    11  1.00

> <Gold.PLP.Chemscore.Internal.Correction>
0.0888

> <Gold.Rescore>
     Score         DG    S(hbond)    S(metal)    S(lipo)     H(rot)  DE(clash)    DE(int)     intcor
     17.82     -18.76       1.97        0.00     112.58       2.52       0.27       0.67       ----

> <Gold.Chemscore.Fitness>
17.8173

> <Gold.Chemscore.DG>
-18.7611

> <Gold.Chemscore.ZeroCoef>
-5.4800

> <Gold.Chemscore.Hbond>
1.9651

> <Gold.Chemscore.Metal>
0.0000

> <Gold.Chemscore.Lipo>
112.5806

> <Gold.Chemscore.Internal_Hbond>
0.0000

> <Gold.Chemscore.DEClash>
0.2711

> <Gold.Chemscore.DEInternal>
0.6727

> <Gold.Chemscore.Rot>
2.5212

> <Gold.Chemscore.Internal.Correction>
   9.000000E+99

> <Gold.Chemscore.Hbonds>
donor molecule, donor type, donor heavy atom, donor atom, acceptor molecule, acceptor atom, score
      P1  H  7989  7998       L1     7  0.82
      P1  H  7997  8010       L1    11  0.55

> <Gold.Chemscore.Hbond.Weighted>
-6.5635

> <Gold.Chemscore.Metal.Weighted>
-0.0000

> <Gold.Chemscore.Lipo.Weighted>
-13.1719

> <Gold.Chemscore.Internal_Hbond.Weighted>
0.0000

> <Gold.Chemscore.DEClash.Weighted>
0.2711

> <Gold.Chemscore.DEInternal.Weighted>
0.6727

> <Gold.Chemscore.Rot.Weighted>
6.4543

> <Gold.Chemscore.Internal.Correction.Weighted>
   9.000000E+99

> <Gold.Protein.RotatedTorsions>
[ 6907 6896 6895 6894 ] final   21.79 input  -60.11 | X-H torsion
[ 7974 7965 7964 7962 ] final  -49.34 input  175.53 | X-H torsion
[ 8008 7997 7996 7995 ] final   74.78 input   59.86 | X-H torsion
[ 10167 10162 10161 10158 ] final -156.21 input  -65.29 | X-H torsion
[ 10718 10713 10712 10709 ] final   -3.56 input   66.30 | X-H torsion
[ 10763 10752 10751 10750 ] final -173.50 input  -60.55 | X-H torsion
[ 11005 11000 10999 10996 ] final  -39.24 input  -57.11 | X-H torsion

> <Gold.Protein.ActiveResidues>
 VAL166  LYS551  ARG553  GLY616  TRP617  ASP618  TYR619  PRO620  LYS621  CYS622 
 ASP623  PHE694  ASN695  SER759  ASP760  ASP761  ALA762  ILE779  LEU786  VAL792 
 PHE793  MET794  SER795  GLU796  ALA797  LYS798  CYS799  TRP800  GLU811  SER814 

> <Gold.Protein.RotatedAtoms>
  151.9172  135.0314  160.0518 H   0  0  0  0  0  0  0  0  0  0  0  0  # atno 6907 bound_to 6896
  152.2230  133.4993  159.5181 H   0  0  0  0  0  0  0  0  0  0  0  0  # atno 6908 bound_to 6896
  150.7005  134.1234  159.4086 H   0  0  0  0  0  0  0  0  0  0  0  0  # atno 6909 bound_to 6896
  145.9416  140.7657  142.9549 H   0  0  0  0  0  0  0  0  0  0  0  0  # atno 7974 bound_to 7965
  155.8034  140.3475  155.5416 H   0  0  0  0  0  0  0  0  0  0  0  0  # atno 8008 bound_to 7997
  155.8515  140.0957  157.1692 H   0  0  0  0  0  0  0  0  0  0  0  0  # atno 8009 bound_to 7997
  154.4008  140.1375  156.3837 H   0  0  0  0  0  0  0  0  0  0  0  0  # atno 8010 bound_to 7997
  139.6868  143.9487  152.2365 H   0  0  0  0  0  0  0  0  0  0  0  0  # atno 10167 bound_to 10162
  156.7743  130.5310  149.5762 H   0  0  0  0  0  0  0  0  0  0  0  0  # atno 10718 bound_to 10713
  154.6072  135.2860  155.0472 H   0  0  0  0  0  0  0  0  0  0  0  0  # atno 10763 bound_to 10752
  154.1715  135.6472  153.5014 H   0  0  0  0  0  0  0  0  0  0  0  0  # atno 10764 bound_to 10752
  153.0180  135.5402  154.6812 H   0  0  0  0  0  0  0  0  0  0  0  0  # atno 10765 bound_to 10752
  141.0087  133.6919  156.2160 H   0  0  0  0  0  0  0  0  0  0  0  0  # atno 11005 bound_to 11000
  144.6780  140.2289  143.7357 LP  0  0  0  0  0  0  0  0  0  0  0  0  # atno 17320 bound_to 7965
  145.8292  139.2078  143.1892 LP  0  0  0  0  0  0  0  0  0  0  0  0  # atno 17321 bound_to 7965
  139.9292  144.6752  150.8380 LP  0  0  0  0  0  0  0  0  0  0  0  0  # atno 17342 bound_to 10162
  140.7670  143.3320  151.2389 LP  0  0  0  0  0  0  0  0  0  0  0  0  # atno 17343 bound_to 10162
  156.1258  130.6143  151.0261 LP  0  0  0  0  0  0  0  0  0  0  0  0  # atno 17370 bound_to 10713
  157.6676  131.0868  150.7690 LP  0  0  0  0  0  0  0  0  0  0  0  0  # atno 17371 bound_to 10713
  140.6769  134.4808  157.5588 LP  0  0  0  0  0  0  0  0  0  0  0  0  # atno 17394 bound_to 11000
  139.9078  134.8411  156.1641 LP  0  0  0  0  0  0  0  0  0  0  0  0  # atno 17395 bound_to 11000

$$$$
