AV-unprocessed.smi:1307|AV-procd|sdf|5437|dock2
  -GOLD-   22720 5 03D 1   1.00000     0.00000
 Structure written by MMmdl.
 41 41  0  0  0  0  0  0  0  0  1 V2000
  152.4243  143.8310  161.5274 C   0  0  0  0  0  0  0  0  0  0  0  0
  152.2069  142.9815  160.2589 C   0  0  0  0  0  0  0  0  0  0  0  0
  153.4994  142.2131  159.9293 C   0  0  0  0  0  0  0  0  0  0  0  0
  151.7013  143.8265  159.0590 C   0  0  1  0  0  0  0  0  0  0  0  0
  152.8015  144.6962  158.4212 C   0  0  0  0  0  0  0  0  0  0  0  0
  151.1391  142.9501  158.0344 N   0  0  0  0  0  0  0  0  0  0  0  0
  149.8958  142.4388  158.0240 C   0  0  0  0  0  0  0  0  0  0  0  0
  149.0616  142.6938  158.8913 O   0  0  0  0  0  0  0  0  0  0  0  0
  149.5121  141.4914  156.8708 C   0  0  0  0  0  0  0  0  0  0  0  0
  148.7380  140.2875  157.2740 N   0  0  0  0  0  0  0  0  0  0  0  0
  147.3275  140.2314  157.0426 C   0  0  0  0  0  0  0  0  0  0  0  0
  146.6291  141.4096  156.3484 C   0  0  0  0  0  0  0  0  0  0  0  0
  145.3228  141.1798  156.2070 F   0  0  0  0  0  0  0  0  0  0  0  0
  146.7497  142.5242  157.0701 F   0  0  0  0  0  0  0  0  0  0  0  0
  147.1107  141.6235  155.1241 F   0  0  0  0  0  0  0  0  0  0  0  0
  146.6328  139.1377  157.4062 C   0  0  0  0  0  0  0  0  0  0  0  0
  147.3024  138.0289  158.0276 C   0  0  0  0  0  0  0  0  0  0  0  0
  148.6354  138.0647  158.2528 C   0  0  0  0  0  0  0  0  0  0  0  0
  149.3718  136.9416  158.8771 C   0  0  0  0  0  0  0  0  0  0  0  0
  148.5974  135.9141  159.2481 N   0  0  0  0  0  0  0  0  0  0  0  0
  150.5843  136.8699  159.0757 O   0  0  0  0  0  0  0  0  0  0  0  0
  149.4336  139.2570  157.8679 C   0  0  0  0  0  0  0  0  0  0  0  0
  150.6520  139.3542  158.0430 O   0  0  0  0  0  0  0  0  0  0  0  0
  153.1377  144.6356  161.3462 H   0  0  0  0  0  0  0  0  0  0  0  0
  152.8121  143.2234  162.3454 H   0  0  0  0  0  0  0  0  0  0  0  0
  151.4974  144.2812  161.8828 H   0  0  0  0  0  0  0  0  0  0  0  0
  151.4410  142.2417  160.4970 H   0  0  0  0  0  0  0  0  0  0  0  0
  154.2972  142.8918  159.6257 H   0  0  0  0  0  0  0  0  0  0  0  0
  153.3504  141.4899  159.1281 H   0  0  0  0  0  0  0  0  0  0  0  0
  153.8541  141.6534  160.7953 H   0  0  0  0  0  0  0  0  0  0  0  0
  150.9108  144.4856  159.4232 H   0  0  0  0  0  0  0  0  0  0  0  0
  153.1728  145.4508  159.1137 H   0  0  0  0  0  0  0  0  0  0  0  0
  152.4256  145.2306  157.5480 H   0  0  0  0  0  0  0  0  0  0  0  0
  153.6485  144.0905  158.0977 H   0  0  0  0  0  0  0  0  0  0  0  0
  151.7580  142.6891  157.2808 H   0  0  0  0  0  0  0  0  0  0  0  0
  148.9498  142.0728  156.1378 H   0  0  0  0  0  0  0  0  0  0  0  0
  150.4182  141.2469  156.3252 H   0  0  0  0  0  0  0  0  0  0  0  0
  145.5689  139.0702  157.2335 H   0  0  0  0  0  0  0  0  0  0  0  0
  146.6970  137.1754  158.2949 H   0  0  0  0  0  0  0  0  0  0  0  0
  149.0082  135.1011  159.6829 H   0  0  0  0  0  0  0  0  0  0  0  0
  147.6008  135.9580  159.0901 H   0  0  0  0  0  0  0  0  0  0  0  0
  1  2  1  0  0  0  0
  1 24  1  0  0  0  0
  1 25  1  0  0  0  0
  1 26  1  0  0  0  0
  2  3  1  0  0  0  0
  2  4  1  0  0  0  0
  2 27  1  0  0  0  0
  3 28  1  0  0  0  0
  3 29  1  0  0  0  0
  3 30  1  0  0  0  0
  4  5  1  0  0  0  0
  4  6  1  0  0  0  0
  4 31  1  0  0  0  0
  5 32  1  0  0  0  0
  5 33  1  0  0  0  0
  5 34  1  0  0  0  0
  6  7  1  0  0  0  0
  6 35  1  0  0  0  0
  7  8  2  0  0  0  0
  7  9  1  0  0  0  0
  9 10  1  0  0  0  0
  9 36  1  0  0  0  0
  9 37  1  0  0  0  0
 10 22  1  0  0  0  0
 10 11  1  0  0  0  0
 11 12  1  0  0  0  0
 11 16  2  0  0  0  0
 12 13  1  0  0  0  0
 12 14  1  0  0  0  0
 12 15  1  0  0  0  0
 16 17  1  0  0  0  0
 16 38  1  0  0  0  0
 17 18  2  0  0  0  0
 17 39  1  0  0  0  0
 18 19  1  0  0  0  0
 18 22  1  0  0  0  0
 19 20  1  0  0  0  0
 19 21  2  0  0  0  0
 20 40  1  0  0  0  0
 20 41  1  0  0  0  0
 22 23  2  0  0  0  0
M  END
> <s_m_source_file>
AV-unprocessed.smi

> <i_m_source_file_index>
1307

> <i_lp_mmshare_version>
43012

> <i_f3d_flags>
0

> <s_epik_input>
W0NIM11bQ0hdKFtDSDNdKVtDQEhdKFtDSDNdKVtOSF1DKD1PKVtDSDJdbjFjKEMoRikoRilGKVtjSF1bY0hdYyhjMT1PKUMoPU8pW05IMl0=

> <s_epik_cmdline>
J2VwaWtfcHl0aG9uJywgJy1waCcsICc3LjAnLCAnLXRuJywgJzgnLCAnLW1hJywgJzIwMCcsICctbWV0YWxfYmluZGluZycsICctaW1hZScsICc8aW5maWxlLm1hZT4nLCAnLW9tYWUnLCAnPG91dGZpbGUubWFlPic=

> <r_lp_tautomer_probability>
1

> <r_epik_Ionization_Penalty>
2.05992e-06

> <r_epik_Ionization_Penalty_Charging>
8.21357e-10

> <r_epik_Ionization_Penalty_Neutral>
2.0591e-06

> <r_epik_State_Penalty>
-0

> <r_epik_Charging_Adjusted_Penalty>
8.21357e-10

> <i_epik_Tot_Q>
0

> <i_epik_Tot_abs_Q>
0

> <r_epik_Metal_State_Penalty>
-0

> <b_epik_Metal_Only>
0

> <s_lp_Force_Field>
OPLS_2005

> <r_lp_Energy>
26.9387

> <b_lp_Chiralities_Consistent>
1

> <s_lp_Variant>
AV-unprocessed.smi:1307-2

> <Gold.Version>
5.8.1

> <Gold.Id.Protein>
6NUR|6NUR_protein|mol2

> <Gold.PLP.Fitness>
36.7792

> <Gold.PLP.PLP>
-35.6629

> <Gold.PLP.part.hbond>
-1.9075

> <Gold.PLP.part.metal>
0.0000

> <Gold.PLP.part.buried>
-6.9349

> <Gold.PLP.part.nonpolar>
-26.9950

> <Gold.PLP.part.repulsive>
0.2903

> <Gold.PLP.ligand.clash>
3.9476

> <Gold.PLP.ligand.torsion>
1.0026

> <Gold.PLP.Chemscore.Hbond>
1.0000

> <Gold.PLP.Chemscore.CHOScore>
0.0000

> <Gold.PLP.Chemscore.Metal>
0.0000

> <Gold.Chemscore.Hbonds>
donor molecule, donor type, donor heavy atom, donor atom, acceptor molecule, acceptor atom, score
      P1  H  6896  6907       L1    21  0.99

> <Gold.PLP.Chemscore.Internal.Correction>
4.0690

> <Gold.Rescore>
     Score         DG    S(hbond)    S(metal)    S(lipo)     H(rot)  DE(clash)    DE(int)     intcor
      7.45     -12.14       1.05        0.00      69.99       1.97       0.02       4.67       ----

> <Gold.Chemscore.Fitness>
7.4483

> <Gold.Chemscore.DG>
-12.1385

> <Gold.Chemscore.ZeroCoef>
-5.4800

> <Gold.Chemscore.Hbond>
1.0534

> <Gold.Chemscore.Metal>
0.0000

> <Gold.Chemscore.Lipo>
69.9909

> <Gold.Chemscore.Internal_Hbond>
0.0000

> <Gold.Chemscore.DEClash>
0.0202

> <Gold.Chemscore.DEInternal>
4.6699

> <Gold.Chemscore.Rot>
1.9723

> <Gold.Chemscore.Internal.Correction>
   9.000000E+99

> <Gold.Chemscore.Hbonds>
donor molecule, donor type, donor heavy atom, donor atom, acceptor molecule, acceptor atom, score
      P1  H  6896  6907       L1    21  0.85

> <Gold.Chemscore.Hbond.Weighted>
-3.5185

> <Gold.Chemscore.Metal.Weighted>
-0.0000

> <Gold.Chemscore.Lipo.Weighted>
-8.1889

> <Gold.Chemscore.Internal_Hbond.Weighted>
0.0000

> <Gold.Chemscore.DEClash.Weighted>
0.0202

> <Gold.Chemscore.DEInternal.Weighted>
4.6699

> <Gold.Chemscore.Rot.Weighted>
5.0490

> <Gold.Chemscore.Internal.Correction.Weighted>
   9.000000E+99

> <Gold.Protein.RotatedTorsions>
[ 6907 6896 6895 6894 ] final  -18.95 input  -60.11 | X-H torsion
[ 7974 7965 7964 7962 ] final   69.44 input  175.53 | X-H torsion
[ 8008 7997 7996 7995 ] final  -81.03 input   59.86 | X-H torsion
[ 10167 10162 10161 10158 ] final  100.50 input  -65.29 | X-H torsion
[ 10718 10713 10712 10709 ] final  -51.85 input   66.30 | X-H torsion
[ 10763 10752 10751 10750 ] final -168.36 input  -60.55 | X-H torsion
[ 11005 11000 10999 10996 ] final  118.77 input  -57.11 | X-H torsion

> <Gold.Protein.ActiveResidues>
 VAL166  LYS551  ARG553  GLY616  TRP617  ASP618  TYR619  PRO620  LYS621  CYS622 
 ASP623  PHE694  ASN695  SER759  ASP760  ASP761  ALA762  ILE779  LEU786  VAL792 
 PHE793  MET794  SER795  GLU796  ALA797  LYS798  CYS799  TRP800  GLU811  SER814 

> <Gold.Protein.RotatedAtoms>
  151.2704  135.0683  159.9131 H   0  0  0  0  0  0  0  0  0  0  0  0  # atno 6907 bound_to 6896
  152.5351  134.0136  159.7960 H   0  0  0  0  0  0  0  0  0  0  0  0  # atno 6908 bound_to 6896
  151.0373  133.5686  159.2685 H   0  0  0  0  0  0  0  0  0  0  0  0  # atno 6909 bound_to 6896
  145.7903  139.2931  143.1214 H   0  0  0  0  0  0  0  0  0  0  0  0  # atno 7974 bound_to 7965
  154.5942  140.0654  156.9280 H   0  0  0  0  0  0  0  0  0  0  0  0  # atno 8008 bound_to 7997
  155.2243  140.3332  155.4293 H   0  0  0  0  0  0  0  0  0  0  0  0  # atno 8009 bound_to 7997
  156.2276  140.1826  156.7308 H   0  0  0  0  0  0  0  0  0  0  0  0  # atno 8010 bound_to 7997
  139.7522  144.6980  151.0415 H   0  0  0  0  0  0  0  0  0  0  0  0  # atno 10167 bound_to 10162
  156.1674  130.4149  149.9700 H   0  0  0  0  0  0  0  0  0  0  0  0  # atno 10718 bound_to 10713
  154.6636  135.2928  154.9834 H   0  0  0  0  0  0  0  0  0  0  0  0  # atno 10763 bound_to 10752
  154.0885  135.6594  153.4853 H   0  0  0  0  0  0  0  0  0  0  0  0  # atno 10764 bound_to 10752
  153.0444  135.5214  154.7599 H   0  0  0  0  0  0  0  0  0  0  0  0  # atno 10765 bound_to 10752
  139.9121  134.9623  156.7553 H   0  0  0  0  0  0  0  0  0  0  0  0  # atno 11005 bound_to 11000
  145.9983  140.8543  143.0031 LP  0  0  0  0  0  0  0  0  0  0  0  0  # atno 17320 bound_to 7965
  144.6783  140.2315  143.7354 LP  0  0  0  0  0  0  0  0  0  0  0  0  # atno 17321 bound_to 7965
  140.7799  143.4796  151.0036 LP  0  0  0  0  0  0  0  0  0  0  0  0  # atno 17342 bound_to 10162
  139.8483  143.7472  152.3179 LP  0  0  0  0  0  0  0  0  0  0  0  0  # atno 17343 bound_to 10162
  156.7511  130.9115  151.3637 LP  0  0  0  0  0  0  0  0  0  0  0  0  # atno 17370 bound_to 10713
  157.6777  130.9110  150.0191 LP  0  0  0  0  0  0  0  0  0  0  0  0  # atno 17371 bound_to 10713
  140.6741  133.9533  155.7873 LP  0  0  0  0  0  0  0  0  0  0  0  0  # atno 17394 bound_to 11000
  141.0557  134.0420  157.3725 LP  0  0  0  0  0  0  0  0  0  0  0  0  # atno 17395 bound_to 11000

$$$$
