AV-unprocessed.smi:2311|AV-procd|sdf|9261|dock9
  -GOLD-   2272012483D 1   1.00000     0.00000
 Structure written by MMmdl.
 40 41  0  0  0  0  0  0  0  0  1 V2000
  145.2381  132.0940  149.2681 C   0  0  0  0  0  0  0  0  0  0  0  0
  144.8590  133.0629  150.3682 C   0  0  0  0  0  0  0  0  0  0  0  0
  143.6181  132.9619  151.0274 C   0  0  0  0  0  0  0  0  0  0  0  0
  143.3268  133.8954  152.0383 C   0  0  0  0  0  0  0  0  0  0  0  0
  144.2809  134.8845  152.3455 C   0  0  0  0  0  0  0  0  0  0  0  0
  145.5024  134.9169  151.6356 C   0  0  0  0  0  0  0  0  0  0  0  0
  146.3956  135.9521  152.0202 N   0  0  0  0  0  0  0  0  0  0  0  0
  146.1115  137.0999  152.6614 C   0  0  0  0  0  0  0  0  0  0  0  0
  144.9906  137.4516  153.0308 O   0  0  0  0  0  0  0  0  0  0  0  0
  147.2176  137.8324  152.8580 N   0  0  0  0  0  0  0  0  0  0  0  0
  147.2589  139.1303  153.5264 C   0  0  2  0  0  0  0  0  0  0  0  0
  147.0891  140.2510  152.4940 C   0  0  0  0  0  0  0  0  0  0  0  0
  147.2479  141.6255  153.1579 C   0  0  0  0  0  0  0  0  0  0  0  0
  148.5077  141.7169  153.8206 O   0  0  0  0  0  0  0  0  0  0  0  0
  148.7557  140.7493  154.8462 C   0  0  0  0  0  0  0  0  0  0  0  0
  150.2164  140.9758  155.2696 C   0  0  0  0  0  0  0  0  0  0  0  0
  147.8394  140.9935  156.0647 C   0  0  0  0  0  0  0  0  0  0  0  0
  148.5961  139.3237  154.2649 C   0  0  0  0  0  0  0  0  0  0  0  0
  145.7740  134.0115  150.6625 N   0  0  0  0  0  0  0  0  0  0  0  0
  144.5199  131.2767  149.1966 H   0  0  0  0  0  0  0  0  0  0  0  0
  146.2221  131.6650  149.4592 H   0  0  0  0  0  0  0  0  0  0  0  0
  145.2678  132.6077  148.3069 H   0  0  0  0  0  0  0  0  0  0  0  0
  142.9064  132.1920  150.7672 H   0  0  0  0  0  0  0  0  0  0  0  0
  142.3873  133.8545  152.5695 H   0  0  0  0  0  0  0  0  0  0  0  0
  144.0721  135.6092  153.1191 H   0  0  0  0  0  0  0  0  0  0  0  0
  147.3640  135.7996  151.7814 H   0  0  0  0  0  0  0  0  0  0  0  0
  148.0965  137.4668  152.5223 H   0  0  0  0  0  0  0  0  0  0  0  0
  146.4337  139.1875  154.2380 H   0  0  0  0  0  0  0  0  0  0  0  0
  147.8352  140.1466  151.7046 H   0  0  0  0  0  0  0  0  0  0  0  0
  146.1126  140.1799  152.0133 H   0  0  0  0  0  0  0  0  0  0  0  0
  147.2015  142.4077  152.4002 H   0  0  0  0  0  0  0  0  0  0  0  0
  146.4292  141.8222  153.8498 H   0  0  0  0  0  0  0  0  0  0  0  0
  150.5191  140.2703  156.0444 H   0  0  0  0  0  0  0  0  0  0  0  0
  150.3622  141.9825  155.6630 H   0  0  0  0  0  0  0  0  0  0  0  0
  150.8974  140.8533  154.4268 H   0  0  0  0  0  0  0  0  0  0  0  0
  148.0965  140.3230  156.8854 H   0  0  0  0  0  0  0  0  0  0  0  0
  146.7861  140.8303  155.8409 H   0  0  0  0  0  0  0  0  0  0  0  0
  147.9408  142.0150  156.4320 H   0  0  0  0  0  0  0  0  0  0  0  0
  148.7028  138.5831  155.0588 H   0  0  0  0  0  0  0  0  0  0  0  0
  149.4094  139.1324  153.5628 H   0  0  0  0  0  0  0  0  0  0  0  0
  1  2  1  0  0  0  0
  1 20  1  0  0  0  0
  1 21  1  0  0  0  0
  1 22  1  0  0  0  0
  2 19  1  0  0  0  0
  2  3  2  0  0  0  0
  3  4  1  0  0  0  0
  3 23  1  0  0  0  0
  4  5  2  0  0  0  0
  4 24  1  0  0  0  0
  5  6  1  0  0  0  0
  5 25  1  0  0  0  0
  6  7  1  0  0  0  0
  6 19  2  0  0  0  0
  7  8  1  0  0  0  0
  7 26  1  0  0  0  0
  8  9  2  0  0  0  0
  8 10  1  0  0  0  0
 10 11  1  0  0  0  0
 10 27  1  0  0  0  0
 11 18  1  0  0  0  0
 11 12  1  0  0  0  0
 11 28  1  0  0  0  0
 12 13  1  0  0  0  0
 12 29  1  0  0  0  0
 12 30  1  0  0  0  0
 13 14  1  0  0  0  0
 13 31  1  0  0  0  0
 13 32  1  0  0  0  0
 14 15  1  0  0  0  0
 15 16  1  0  0  0  0
 15 17  1  0  0  0  0
 15 18  1  0  0  0  0
 16 33  1  0  0  0  0
 16 34  1  0  0  0  0
 16 35  1  0  0  0  0
 17 36  1  0  0  0  0
 17 37  1  0  0  0  0
 17 38  1  0  0  0  0
 18 39  1  0  0  0  0
 18 40  1  0  0  0  0
M  END
> <s_m_source_file>
AV-unprocessed.smi

> <i_m_source_file_index>
2311

> <i_lp_mmshare_version>
43012

> <i_f3d_flags>
0

> <s_epik_input>
W0NIM11jMVtjSF1bY0hdW2NIXWMobjEpW05IXUMoPU8pW05IXVtDQEBIXShbQ0gyXTIpW0NIMl1bQ0gyXU9DMihbQ0gzXSlbQ0gzXQ==

> <s_epik_cmdline>
J2VwaWtfcHl0aG9uJywgJy1waCcsICc3LjAnLCAnLXRuJywgJzgnLCAnLW1hJywgJzIwMCcsICctbWV0YWxfYmluZGluZycsICctaW1hZScsICc8aW5maWxlLm1hZT4nLCAnLW9tYWUnLCAnPG91dGZpbGUubWFlPic=

> <r_lp_tautomer_probability>
1

> <r_epik_Ionization_Penalty>
8.54628e-05

> <r_epik_Ionization_Penalty_Charging>
0

> <r_epik_Ionization_Penalty_Neutral>
8.54628e-05

> <r_epik_State_Penalty>
-0

> <r_epik_Charging_Adjusted_Penalty>
0

> <i_epik_Tot_Q>
0

> <i_epik_Tot_abs_Q>
0

> <r_epik_Metal_State_Penalty>
-0

> <b_epik_Metal_Only>
0

> <s_lp_Force_Field>
OPLS_2005

> <r_lp_Energy>
12.4956

> <b_lp_Chiralities_Consistent>
1

> <s_lp_Variant>
AV-unprocessed.smi:2311-1

> <Gold.Version>
5.8.1

> <Gold.Id.Protein>
6NUR|6NUR_protein|mol2

> <Gold.PLP.Fitness>
36.8383

> <Gold.PLP.PLP>
-30.3148

> <Gold.PLP.part.hbond>
-3.0000

> <Gold.PLP.part.metal>
0.0000

> <Gold.PLP.part.buried>
-1.8313

> <Gold.PLP.part.nonpolar>
-25.0275

> <Gold.PLP.part.repulsive>
0.6519

> <Gold.PLP.ligand.clash>
0.0000

> <Gold.PLP.ligand.torsion>
0.4684

> <Gold.PLP.Chemscore.Hbond>
2.4867

> <Gold.PLP.Chemscore.CHOScore>
0.0000

> <Gold.PLP.Chemscore.Metal>
0.0000

> <Gold.Chemscore.Hbonds>
donor molecule, donor type, donor heavy atom, donor atom, acceptor molecule, acceptor atom, score
      L1  H     7    26       P1  7948  1.00
      L1  H    10    27       P1  7948  1.00
      P1  H  8011  8017       L1    14  0.51

> <Gold.PLP.Chemscore.Internal.Correction>
0.0002

> <Gold.Rescore>
     Score         DG    S(hbond)    S(metal)    S(lipo)     H(rot)  DE(clash)    DE(int)     intcor
     16.32     -19.14       2.10        0.00      78.80       1.00       0.92       1.91       ----

> <Gold.Chemscore.Fitness>
16.3152

> <Gold.Chemscore.DG>
-19.1439

> <Gold.Chemscore.ZeroCoef>
-5.4800

> <Gold.Chemscore.Hbond>
2.0969

> <Gold.Chemscore.Metal>
0.0000

> <Gold.Chemscore.Lipo>
78.8038

> <Gold.Chemscore.Internal_Hbond>
0.0000

> <Gold.Chemscore.DEClash>
0.9190

> <Gold.Chemscore.DEInternal>
1.9097

> <Gold.Chemscore.Rot>
1.0000

> <Gold.Chemscore.Internal.Correction>
   9.000000E+99

> <Gold.Chemscore.Hbonds>
donor molecule, donor type, donor heavy atom, donor atom, acceptor molecule, acceptor atom, score
      L1  H     7    26       P1  7948  0.96
      L1  H    10    27       P1  7948  0.94
      P1  H  8011  8017       L1    14  0.20

> <Gold.Chemscore.Hbond.Weighted>
-7.0038

> <Gold.Chemscore.Metal.Weighted>
-0.0000

> <Gold.Chemscore.Lipo.Weighted>
-9.2200

> <Gold.Chemscore.Internal_Hbond.Weighted>
0.0000

> <Gold.Chemscore.DEClash.Weighted>
0.9190

> <Gold.Chemscore.DEInternal.Weighted>
1.9097

> <Gold.Chemscore.Rot.Weighted>
2.5600

> <Gold.Chemscore.Internal.Correction.Weighted>
   9.000000E+99

> <Gold.Protein.RotatedTorsions>
[ 6907 6896 6895 6894 ] final   40.16 input  -60.11 | X-H torsion
[ 7974 7965 7964 7962 ] final  136.46 input  175.53 | X-H torsion
[ 8008 7997 7996 7995 ] final   42.16 input   59.86 | X-H torsion
[ 10167 10162 10161 10158 ] final  120.77 input  -65.29 | X-H torsion
[ 10718 10713 10712 10709 ] final  178.44 input   66.30 | X-H torsion
[ 10763 10752 10751 10750 ] final  -96.13 input  -60.55 | X-H torsion
[ 11005 11000 10999 10996 ] final  137.51 input  -57.11 | X-H torsion

> <Gold.Protein.ActiveResidues>
 VAL166  LYS551  ARG553  GLY616  TRP617  ASP618  TYR619  PRO620  LYS621  CYS622 
 ASP623  PHE694  ASN695  SER759  ASP760  ASP761  ALA762  ILE779  LEU786  VAL792 
 PHE793  MET794  SER795  GLU796  ALA797  LYS798  CYS799  TRP800  GLU811  SER814 

> <Gold.Protein.RotatedAtoms>
  152.1790  134.8770  160.0527 H   0  0  0  0  0  0  0  0  0  0  0  0  # atno 6907 bound_to 6896
  151.9702  133.3718  159.4076 H   0  0  0  0  0  0  0  0  0  0  0  0  # atno 6908 bound_to 6896
  150.6914  134.4071  159.5189 H   0  0  0  0  0  0  0  0  0  0  0  0  # atno 6909 bound_to 6896
  144.9562  139.4762  143.5501 H   0  0  0  0  0  0  0  0  0  0  0  0  # atno 7974 bound_to 7965
  155.2816  140.3373  155.4258 H   0  0  0  0  0  0  0  0  0  0  0  0  # atno 8008 bound_to 7997
  156.2087  140.1761  156.7783 H   0  0  0  0  0  0  0  0  0  0  0  0  # atno 8009 bound_to 7997
  154.5656  140.0679  156.8871 H   0  0  0  0  0  0  0  0  0  0  0  0  # atno 8010 bound_to 7997
  139.5961  144.7042  151.3173 H   0  0  0  0  0  0  0  0  0  0  0  0  # atno 10167 bound_to 10162
  156.8906  130.9846  151.3050 H   0  0  0  0  0  0  0  0  0  0  0  0  # atno 10718 bound_to 10713
  154.7212  135.5095  153.8814 H   0  0  0  0  0  0  0  0  0  0  0  0  # atno 10763 bound_to 10752
  153.0864  135.6646  153.9950 H   0  0  0  0  0  0  0  0  0  0  0  0  # atno 10764 bound_to 10752
  153.9773  135.3032  155.3402 H   0  0  0  0  0  0  0  0  0  0  0  0  # atno 10765 bound_to 10752
  140.0119  134.9435  157.0296 H   0  0  0  0  0  0  0  0  0  0  0  0  # atno 11005 bound_to 11000
  146.3338  139.8681  142.8844 LP  0  0  0  0  0  0  0  0  0  0  0  0  # atno 17320 bound_to 7965
  145.2768  141.0126  143.3740 LP  0  0  0  0  0  0  0  0  0  0  0  0  # atno 17321 bound_to 7965
  140.7213  143.7128  150.7756 LP  0  0  0  0  0  0  0  0  0  0  0  0  # atno 17342 bound_to 10162
  140.0695  143.5075  152.2587 LP  0  0  0  0  0  0  0  0  0  0  0  0  # atno 17343 bound_to 10162
  157.6086  130.8566  149.8915 LP  0  0  0  0  0  0  0  0  0  0  0  0  # atno 17370 bound_to 10713
  156.0631  130.3696  150.0938 LP  0  0  0  0  0  0  0  0  0  0  0  0  # atno 17371 bound_to 10713
  140.4539  134.1554  155.7184 LP  0  0  0  0  0  0  0  0  0  0  0  0  # atno 17394 bound_to 11000
  141.1717  133.8596  157.1550 LP  0  0  0  0  0  0  0  0  0  0  0  0  # atno 17395 bound_to 11000

$$$$
