AV-unprocessed.smi:21|AV-procd|sdf|145|dock2
  -GOLD-   2262015353D 1   1.00000     0.00000
 Structure written by MMmdl.
 62 65  0  0  0  0  0  0  0  0  2 V2000
  144.3327  132.8450  148.5543 C   0  0  0  0  0  0  0  0  0  0  0  0
  143.7742  131.7040  149.1859 O   0  0  0  0  0  0  0  0  0  0  0  0
  144.0255  131.6470  150.5823 C   0  0  1  0  0  0  0  0  0  0  0  0
  145.5103  131.6833  150.9269 C   0  0  0  0  0  0  0  0  0  0  0  0
  145.5358  132.2047  152.3707 C   0  0  1  0  0  0  0  0  0  0  0  0
  146.8746  132.8731  152.7709 C   0  0  0  0  0  0  0  0  0  0  0  0
  146.9937  133.0670  154.2187 N   0  0  0  0  0  0  0  0  0  0  0  0
  146.0674  132.3474  155.0843 C   0  0  0  0  0  0  0  0  0  0  0  0
  148.1164  133.6349  154.7459 C   0  0  0  0  0  0  0  0  0  0  0  0
  149.1455  132.8167  155.0934 N   0  0  0  0  0  0  0  0  0  0  0  0
  150.2685  133.3105  155.6198 C   0  0  0  0  0  0  0  0  0  0  0  0
  150.5754  134.5799  155.8831 N   0  0  0  0  0  0  0  0  0  0  0  0
  149.5553  135.4147  155.5383 C   0  0  0  0  0  0  0  0  0  0  0  0
  148.3022  135.0341  154.9737 C   0  0  0  0  0  0  0  0  0  0  0  0
  147.5195  136.1700  154.7882 N   0  0  0  0  0  0  0  0  0  0  0  0
  148.2653  137.1561  155.2033 C   0  0  0  0  0  0  0  0  0  0  0  0
  149.5132  136.7934  155.6527 N   0  0  0  0  0  0  0  0  0  0  0  0
  150.5387  137.6797  156.1747 C   0  0  0  0  0  0  0  0  0  0  0  0
  151.0552  138.7397  155.1657 C   0  0  2  0  0  0  0  0  0  0  0  0
  152.4780  138.3516  154.7015 C   0  0  0  0  0  0  0  0  0  0  0  0
  153.4030  138.3808  155.7698 O   0  0  0  0  0  0  0  0  0  0  0  0
  150.9738  140.2087  155.6757 C   0  0  1  0  0  0  0  0  0  0  0  0
  149.5648  140.6992  155.9719 C   0  0  0  0  0  0  0  0  0  0  0  0
  149.8237  141.9155  156.8485 C   0  0  0  0  0  0  0  0  0  0  0  0
  150.9298  141.5428  157.6559 O   0  0  0  0  0  0  0  0  0  0  0  0
  151.6526  140.4883  157.0267 C   0  0  0  0  0  0  0  0  0  0  0  0
  144.3144  133.0522  152.5121 N   0  3  1  0  0  0  0  0  0  0  0  0
  144.4968  134.4634  152.9261 C   0  0  0  0  0  0  0  0  0  0  0  0
  143.5151  132.9095  151.2730 C   0  0  0  0  0  0  0  0  0  0  0  0
  143.5519  130.7718  151.0312 H   0  0  0  0  0  0  0  0  0  0  0  0
  145.3666  131.3549  153.0336 H   0  0  0  0  0  0  0  0  0  0  0  0
  144.1298  132.8036  147.4843 H   0  0  0  0  0  0  0  0  0  0  0  0
  145.4147  132.8809  148.6887 H   0  0  0  0  0  0  0  0  0  0  0  0
  143.9007  133.7695  148.9389 H   0  0  0  0  0  0  0  0  0  0  0  0
  145.9950  130.7120  150.8231 H   0  0  0  0  0  0  0  0  0  0  0  0
  146.0187  132.3855  150.2646 H   0  0  0  0  0  0  0  0  0  0  0  0
  147.7194  132.3141  152.3695 H   0  0  0  0  0  0  0  0  0  0  0  0
  146.9386  133.8612  152.3150 H   0  0  0  0  0  0  0  0  0  0  0  0
  146.4891  131.3891  155.3885 H   0  0  0  0  0  0  0  0  0  0  0  0
  145.1281  132.1501  154.5674 H   0  0  0  0  0  0  0  0  0  0  0  0
  145.8330  132.9307  155.9753 H   0  0  0  0  0  0  0  0  0  0  0  0
  151.0302  132.5848  155.8643 H   0  0  0  0  0  0  0  0  0  0  0  0
  147.9264  138.1818  155.1821 H   0  0  0  0  0  0  0  0  0  0  0  0
  150.1479  138.1701  157.0671 H   0  0  0  0  0  0  0  0  0  0  0  0
  151.3649  137.0513  156.5090 H   0  0  0  0  0  0  0  0  0  0  0  0
  150.4306  138.6756  154.2744 H   0  0  0  0  0  0  0  0  0  0  0  0
  152.4768  137.3501  154.2703 H   0  0  0  0  0  0  0  0  0  0  0  0
  152.8304  139.0172  153.9137 H   0  0  0  0  0  0  0  0  0  0  0  0
  154.1161  137.7952  155.5663 H   0  0  0  0  0  0  0  0  0  0  0  0
  151.4088  140.8734  154.9276 H   0  0  0  0  0  0  0  0  0  0  0  0
  148.9986  140.9500  155.0746 H   0  0  0  0  0  0  0  0  0  0  0  0
  149.0063  139.9478  156.5323 H   0  0  0  0  0  0  0  0  0  0  0  0
  150.1045  142.7743  156.2376 H   0  0  0  0  0  0  0  0  0  0  0  0
  148.9599  142.1924  157.4531 H   0  0  0  0  0  0  0  0  0  0  0  0
  151.6087  139.6160  157.6797 H   0  0  0  0  0  0  0  0  0  0  0  0
  152.6979  140.7722  156.9107 H   0  0  0  0  0  0  0  0  0  0  0  0
  145.1026  135.0160  152.2070 H   0  0  0  0  0  0  0  0  0  0  0  0
  144.9654  134.5300  153.9079 H   0  0  0  0  0  0  0  0  0  0  0  0
  143.5278  134.9585  152.9973 H   0  0  0  0  0  0  0  0  0  0  0  0
  143.6915  133.7700  150.6248 H   0  0  0  0  0  0  0  0  0  0  0  0
  142.4465  132.8683  151.4854 H   0  0  0  0  0  0  0  0  0  0  0  0
  143.7736  132.6158  153.2452 H   0  0  0  0  0  0  0  0  0  0  0  0
  1  2  1  0  0  0  0
  1 32  1  0  0  0  0
  1 33  1  0  0  0  0
  1 34  1  0  0  0  0
  2  3  1  0  0  0  0
  3 30  1  0  0  0  0
  3 29  1  0  0  0  0
  3  4  1  0  0  0  0
  4  5  1  0  0  0  0
  4 35  1  0  0  0  0
  4 36  1  0  0  0  0
  5 31  1  0  0  0  0
  5  6  1  0  0  0  0
  5 27  1  0  0  0  0
  6  7  1  0  0  0  0
  6 37  1  0  0  0  0
  6 38  1  0  0  0  0
  7  8  1  0  0  0  0
  7  9  1  0  0  0  0
  8 39  1  0  0  0  0
  8 40  1  0  0  0  0
  8 41  1  0  0  0  0
  9 14  1  0  0  0  0
  9 10  2  0  0  0  0
 10 11  1  0  0  0  0
 11 12  2  0  0  0  0
 11 42  1  0  0  0  0
 12 13  1  0  0  0  0
 13 17  1  0  0  0  0
 13 14  2  0  0  0  0
 14 15  1  0  0  0  0
 15 16  2  0  0  0  0
 16 17  1  0  0  0  0
 16 43  1  0  0  0  0
 17 18  1  0  0  0  0
 18 19  1  0  0  0  0
 18 44  1  0  0  0  0
 18 45  1  0  0  0  0
 19 20  1  0  0  0  0
 19 22  1  0  0  0  0
 19 46  1  0  0  0  0
 20 21  1  0  0  0  0
 20 47  1  0  0  0  0
 20 48  1  0  0  0  0
 21 49  1  0  0  0  0
 22 26  1  0  0  0  0
 22 23  1  0  0  0  0
 22 50  1  0  0  0  0
 23 24  1  0  0  0  0
 23 51  1  0  0  0  0
 23 52  1  0  0  0  0
 24 25  1  0  0  0  0
 24 53  1  0  0  0  0
 24 54  1  0  0  0  0
 25 26  1  0  0  0  0
 26 55  1  0  0  0  0
 26 56  1  0  0  0  0
 27 28  1  0  0  0  0
 27 29  1  0  0  0  0
 27 62  1  0  0  0  0
 28 57  1  0  0  0  0
 28 58  1  0  0  0  0
 28 59  1  0  0  0  0
 29 60  1  0  0  0  0
 29 61  1  0  0  0  0
M  CHG  1  27   1
M  END
> <s_m_source_file>
AV-unprocessed.smi

> <i_m_source_file_index>
21

> <i_lp_mmshare_version>
43012

> <i_f3d_flags>
0

> <s_epik_input>
W0NIM11PW0NASF0xW0NIMl1bQ0BIXShOKFtDSDNdKVtDSDJdMSlbQ0gyXU4oW0NIM10pYyhuW2NIXW4yKWMoYzIzKW5bY0hdbjNbQ0gyXVtDQEhdKFtDSDJdW09IXSlbQ0BASF00W0NIMl1bQ0gyXU9bQ0gyXTQ=

> <s_epik_cmdline>
J2VwaWtfcHl0aG9uJywgJy1waCcsICc3LjAnLCAnLXRuJywgJzgnLCAnLW1hJywgJzIwMCcsICctbWV0YWxfYmluZGluZycsICctaW1hZScsICc8aW5maWxlLm1hZT4nLCAnLW9tYWUnLCAnPG91dGZpbGUubWFlPic=

> <r_lp_tautomer_probability>
1

> <r_epik_Ionization_Penalty>
0.0157465

> <r_epik_Ionization_Penalty_Charging>
0.015354

> <r_epik_Ionization_Penalty_Neutral>
0.000392529

> <r_epik_State_Penalty>
0.0120612

> <r_epik_Charging_Adjusted_Penalty>
0.0274152

> <i_epik_Tot_Q>
1

> <i_epik_Tot_abs_Q>
1

> <r_epik_Metal_State_Penalty>
0.0121253

> <b_epik_Metal_Only>
0

> <s_lp_Force_Field>
OPLS_2005

> <r_lp_Energy>
60.8003

> <b_lp_Chiralities_Consistent>
1

> <s_lp_Variant>
AV-unprocessed.smi:21-25

> <Gold.Version>
5.8.1

> <Gold.Id.Protein>
6NUR|6NUR_protein|mol2

> <Gold.PLP.Fitness>
49.5764

> <Gold.PLP.PLP>
-42.5231

> <Gold.PLP.part.hbond>
-3.1906

> <Gold.PLP.part.metal>
0.0000

> <Gold.PLP.part.buried>
-6.6647

> <Gold.PLP.part.nonpolar>
-33.5902

> <Gold.PLP.part.repulsive>
0.4852

> <Gold.PLP.ligand.clash>
0.0000

> <Gold.PLP.ligand.torsion>
2.3944

> <Gold.PLP.Chemscore.Hbond>
3.7600

> <Gold.PLP.Chemscore.CHOScore>
0.0000

> <Gold.PLP.Chemscore.Metal>
0.0000

> <Gold.Chemscore.Hbonds>
donor molecule, donor type, donor heavy atom, donor atom, acceptor molecule, acceptor atom, score
      L1  H    27    62       P1 10957  1.82
      P1  H  7997  8008       L1    21  0.78
      P1  H 10785 10796       L1     2  0.78

> <Gold.PLP.Chemscore.Internal.Correction>
0.5622

> <Gold.Rescore>
     Score         DG    S(hbond)    S(metal)    S(lipo)     H(rot)  DE(clash)    DE(int)     intcor
     13.95     -16.96       2.31        0.00      99.56       3.08       0.41       2.61       ----

> <Gold.Chemscore.Fitness>
13.9472

> <Gold.Chemscore.DG>
-16.9587

> <Gold.Chemscore.ZeroCoef>
-5.4800

> <Gold.Chemscore.Hbond>
2.3066

> <Gold.Chemscore.Metal>
0.0000

> <Gold.Chemscore.Lipo>
99.5623

> <Gold.Chemscore.Internal_Hbond>
0.0000

> <Gold.Chemscore.DEClash>
0.4058

> <Gold.Chemscore.DEInternal>
2.6058

> <Gold.Chemscore.Rot>
3.0758

> <Gold.Chemscore.Internal.Correction>
   9.000000E+99

> <Gold.Chemscore.Hbonds>
donor molecule, donor type, donor heavy atom, donor atom, acceptor molecule, acceptor atom, score
      L1  H    27    62       P1 10957  0.23
      P1  H  7997  8008       L1    21  0.20
      P1  H 10785 10796       L1     2  0.43

> <Gold.Chemscore.Hbond.Weighted>
-7.7041

> <Gold.Chemscore.Metal.Weighted>
-0.0000

> <Gold.Chemscore.Lipo.Weighted>
-11.6488

> <Gold.Chemscore.Internal_Hbond.Weighted>
0.0000

> <Gold.Chemscore.DEClash.Weighted>
0.4058

> <Gold.Chemscore.DEInternal.Weighted>
2.6058

> <Gold.Chemscore.Rot.Weighted>
7.8741

> <Gold.Chemscore.Internal.Correction.Weighted>
   9.000000E+99

> <Gold.Protein.RotatedTorsions>
[ 6907 6896 6895 6894 ] final -171.77 input  -60.11 | X-H torsion
[ 7974 7965 7964 7962 ] final  -17.30 input  175.53 | X-H torsion
[ 8008 7997 7996 7995 ] final  -24.92 input   59.86 | X-H torsion
[ 10167 10162 10161 10158 ] final  -78.35 input  -65.29 | X-H torsion
[ 10718 10713 10712 10709 ] final  -72.29 input   66.30 | X-H torsion
[ 10763 10752 10751 10750 ] final  175.68 input  -60.55 | X-H torsion
[ 11005 11000 10999 10996 ] final  -66.98 input  -57.11 | X-H torsion

> <Gold.Protein.ActiveResidues>
 VAL166  LYS551  ARG553  GLY616  TRP617  ASP618  TYR619  PRO620  LYS621  CYS622 
 ASP623  PHE694  ASN695  SER759  ASP760  ASP761  ALA762  ILE779  LEU786  VAL792 
 PHE793  MET794  SER795  GLU796  ALA797  LYS798  CYS799  TRP800  GLU811  SER814 

> <Gold.Protein.RotatedAtoms>
  151.5292  133.3452  159.2914 H   0  0  0  0  0  0  0  0  0  0  0  0  # atno 6907 bound_to 6896
  150.8604  134.7957  159.7089 H   0  0  0  0  0  0  0  0  0  0  0  0  # atno 6908 bound_to 6896
  152.4625  134.5160  159.9820 H   0  0  0  0  0  0  0  0  0  0  0  0  # atno 6909 bound_to 6896
  146.1947  140.3760  142.8445 H   0  0  0  0  0  0  0  0  0  0  0  0  # atno 7974 bound_to 7965
  154.4503  140.1940  156.0539 H   0  0  0  0  0  0  0  0  0  0  0  0  # atno 8008 bound_to 7997
  156.0633  140.3294  155.7461 H   0  0  0  0  0  0  0  0  0  0  0  0  # atno 8009 bound_to 7997
  155.5377  140.0583  157.2867 H   0  0  0  0  0  0  0  0  0  0  0  0  # atno 8010 bound_to 7997
  140.4690  143.2432  151.8234 H   0  0  0  0  0  0  0  0  0  0  0  0  # atno 10167 bound_to 10162
  156.0326  130.4369  150.2571 H   0  0  0  0  0  0  0  0  0  0  0  0  # atno 10718 bound_to 10713
  154.4708  135.2771  155.1644 H   0  0  0  0  0  0  0  0  0  0  0  0  # atno 10763 bound_to 10752
  154.3393  135.6173  153.5592 H   0  0  0  0  0  0  0  0  0  0  0  0  # atno 10764 bound_to 10752
  152.9864  135.5784  154.5089 H   0  0  0  0  0  0  0  0  0  0  0  0  # atno 10765 bound_to 10752
  141.1496  133.6710  156.6223 H   0  0  0  0  0  0  0  0  0  0  0  0  # atno 11005 bound_to 11000
  144.8556  140.7066  143.6140 LP  0  0  0  0  0  0  0  0  0  0  0  0  # atno 17320 bound_to 7965
  145.3681  139.1665  143.4347 LP  0  0  0  0  0  0  0  0  0  0  0  0  # atno 17321 bound_to 7965
  139.4816  144.4915  151.9178 LP  0  0  0  0  0  0  0  0  0  0  0  0  # atno 17342 bound_to 10162
  140.4001  144.2504  150.5893 LP  0  0  0  0  0  0  0  0  0  0  0  0  # atno 17343 bound_to 10162
  157.0673  131.0107  151.3202 LP  0  0  0  0  0  0  0  0  0  0  0  0  # atno 17370 bound_to 10713
  157.5026  130.7889  149.7620 LP  0  0  0  0  0  0  0  0  0  0  0  0  # atno 17371 bound_to 10713
  140.3531  134.7752  157.4481 LP  0  0  0  0  0  0  0  0  0  0  0  0  # atno 17394 bound_to 11000
  140.0845  134.5686  155.8506 LP  0  0  0  0  0  0  0  0  0  0  0  0  # atno 17395 bound_to 11000

$$$$
