AV-unprocessed.smi:103|AV-procd|sdf|982|dock8
  -GOLD-   2262017543D 1   1.00000     0.00000
 Structure written by MMmdl.
 53 55  0  0  0  0  0  0  0  0  1 V2000
  141.9372  131.8281  159.2819 C   0  0  0  0  0  0  0  0  0  0  0  0
  142.6617  133.1602  159.4233 C   0  0  0  0  0  0  0  0  0  0  0  0
  142.0850  134.2282  159.2172 O   0  0  0  0  0  0  0  0  0  0  0  0
  143.9459  133.0083  159.7863 O   0  0  0  0  0  0  0  0  0  0  0  0
  144.7516  134.1472  160.0480 C   0  0  0  0  0  0  0  0  0  0  0  0
  146.2215  133.7125  160.1777 C   0  0  1  0  0  0  0  0  0  0  0  0
  146.7165  133.5086  158.8533 O   0  0  0  0  0  0  0  0  0  0  0  0
  147.8424  134.2927  158.6336 C   0  0  1  0  0  0  0  0  0  0  0  0
  147.8404  134.7679  157.2158 N   0  0  0  0  0  0  0  0  0  0  0  0
  148.7826  134.5891  156.2224 C   0  0  0  0  0  0  0  0  0  0  0  0
  150.3051  133.6588  156.3525 S   0  0  0  0  0  0  0  0  0  0  0  0
  151.5574  135.0009  156.4565 C   0  0  0  0  0  0  0  0  0  0  0  0
  150.2594  132.9353  157.6327 O   0  0  0  0  0  0  0  0  0  0  0  0
  150.4805  132.9279  155.0883 O   0  0  0  0  0  0  0  0  0  0  0  0
  148.4836  135.0574  155.0409 N   0  0  0  0  0  0  0  0  0  0  0  0
  147.2556  135.6699  155.2464 C   0  0  0  0  0  0  0  0  0  0  0  0
  146.3614  136.3899  154.4145 C   0  0  0  0  0  0  0  0  0  0  0  0
  146.5984  136.6247  153.1164 N   0  0  0  0  0  0  0  0  0  0  0  0
  145.2130  136.8610  154.9542 N   0  0  0  0  0  0  0  0  0  0  0  0
  144.9525  136.6383  156.2463 C   0  0  0  0  0  0  0  0  0  0  0  0
  145.6907  135.9825  157.1451 N   0  0  0  0  0  0  0  0  0  0  0  0
  146.8482  135.5059  156.6013 C   0  0  0  0  0  0  0  0  0  0  0  0
  147.7604  135.4618  159.6027 C   0  0  2  0  0  0  0  0  0  0  0  0
  149.0649  135.9489  159.8801 O   0  0  0  0  0  0  0  0  0  0  0  0
  149.7069  136.7127  158.9828 C   0  0  0  0  0  0  0  0  0  0  0  0
  151.0294  137.2447  159.5177 C   0  0  0  0  0  0  0  0  0  0  0  0
  149.3146  136.9852  157.8483 O   0  0  0  0  0  0  0  0  0  0  0  0
  147.1470  134.7748  160.8079 C   0  0  1  0  0  0  0  0  0  0  0  0
  146.4627  135.7312  161.6087 O   0  0  0  0  0  0  0  0  0  0  0  0
  147.1538  136.6078  162.3556 C   0  0  0  0  0  0  0  0  0  0  0  0
  146.2443  137.5570  163.1238 C   0  0  0  0  0  0  0  0  0  0  0  0
  148.3794  136.6728  162.4492 O   0  0  0  0  0  0  0  0  0  0  0  0
  142.5966  131.0776  158.8454 H   0  0  0  0  0  0  0  0  0  0  0  0
  141.0642  131.9355  158.6379 H   0  0  0  0  0  0  0  0  0  0  0  0
  141.6059  131.4741  160.2581 H   0  0  0  0  0  0  0  0  0  0  0  0
  144.6569  134.9019  159.2672 H   0  0  0  0  0  0  0  0  0  0  0  0
  144.4029  134.6010  160.9759 H   0  0  0  0  0  0  0  0  0  0  0  0
  146.2844  132.7840  160.7461 H   0  0  0  0  0  0  0  0  0  0  0  0
  148.7295  133.6741  158.7594 H   0  0  0  0  0  0  0  0  0  0  0  0
  152.5509  134.5629  156.5482 H   0  0  0  0  0  0  0  0  0  0  0  0
  151.3518  135.6207  157.3292 H   0  0  0  0  0  0  0  0  0  0  0  0
  151.5121  135.6154  155.5579 H   0  0  0  0  0  0  0  0  0  0  0  0
  147.4475  136.2820  152.6902 H   0  0  0  0  0  0  0  0  0  0  0  0
  145.9292  137.1448  152.5677 H   0  0  0  0  0  0  0  0  0  0  0  0
  144.0187  137.0393  156.6126 H   0  0  0  0  0  0  0  0  0  0  0  0
  147.0901  136.2186  159.1910 H   0  0  0  0  0  0  0  0  0  0  0  0
  151.5955  136.4449  159.9956 H   0  0  0  0  0  0  0  0  0  0  0  0
  150.8509  138.0303  160.2521 H   0  0  0  0  0  0  0  0  0  0  0  0
  151.6316  137.6576  158.7084 H   0  0  0  0  0  0  0  0  0  0  0  0
  147.9425  134.2772  161.3662 H   0  0  0  0  0  0  0  0  0  0  0  0
  145.4517  137.9325  162.4763 H   0  0  0  0  0  0  0  0  0  0  0  0
  146.8113  138.4070  163.5035 H   0  0  0  0  0  0  0  0  0  0  0  0
  145.7872  137.0405  163.9678 H   0  0  0  0  0  0  0  0  0  0  0  0
  1  2  1  0  0  0  0
  1 33  1  0  0  0  0
  1 34  1  0  0  0  0
  1 35  1  0  0  0  0
  2  3  2  0  0  0  0
  2  4  1  0  0  0  0
  4  5  1  0  0  0  0
  5  6  1  0  0  0  0
  5 36  1  0  0  0  0
  5 37  1  0  0  0  0
  6 28  1  0  0  0  0
  6  7  1  0  0  0  0
  6 38  1  0  0  0  0
  7  8  1  0  0  0  0
  8  9  1  0  0  0  0
  8 23  1  0  0  0  0
  8 39  1  0  0  0  0
  9 22  1  0  0  0  0
  9 10  1  0  0  0  0
 10 11  1  0  0  0  0
 10 15  2  0  0  0  0
 11 12  1  0  0  0  0
 11 13  2  0  0  0  0
 11 14  2  0  0  0  0
 12 40  1  0  0  0  0
 12 41  1  0  0  0  0
 12 42  1  0  0  0  0
 15 16  1  0  0  0  0
 16 22  2  0  0  0  0
 16 17  1  0  0  0  0
 17 18  1  0  0  0  0
 17 19  2  0  0  0  0
 18 43  1  0  0  0  0
 18 44  1  0  0  0  0
 19 20  1  0  0  0  0
 20 21  2  0  0  0  0
 20 45  1  0  0  0  0
 21 22  1  0  0  0  0
 23 24  1  0  0  0  0
 23 28  1  0  0  0  0
 23 46  1  0  0  0  0
 24 25  1  0  0  0  0
 25 26  1  0  0  0  0
 25 27  2  0  0  0  0
 26 47  1  0  0  0  0
 26 48  1  0  0  0  0
 26 49  1  0  0  0  0
 28 29  1  0  0  0  0
 28 50  1  0  0  0  0
 29 30  1  0  0  0  0
 30 31  1  0  0  0  0
 30 32  2  0  0  0  0
 31 51  1  0  0  0  0
 31 52  1  0  0  0  0
 31 53  1  0  0  0  0
M  END
> <s_m_source_file>
AV-unprocessed.smi

> <i_m_source_file_index>
103

> <i_lp_mmshare_version>
43012

> <i_f3d_flags>
0

> <s_epik_input>
W0NIM11DKD1PKU9bQ0gyXVtDQEBIXTFPW0NASF0oW0NAQEhdKE9DKD1PKVtDSDNdKVtDQEhdMU9DKD1PKVtDSDNdKW4oYyhuMilTKD1PKSg9TylbQ0gzXSljKGMyMyluW2NIXW5jM1tOSDJd

> <s_epik_cmdline>
J2VwaWtfcHl0aG9uJywgJy1waCcsICc3LjAnLCAnLXRuJywgJzgnLCAnLW1hJywgJzIwMCcsICctbWV0YWxfYmluZGluZycsICctaW1hZScsICc8aW5maWxlLm1hZT4nLCAnLW9tYWUnLCAnPG91dGZpbGUubWFlPic=

> <r_lp_tautomer_probability>
1

> <r_epik_Ionization_Penalty>
1.51338e-05

> <r_epik_Ionization_Penalty_Charging>
0

> <r_epik_Ionization_Penalty_Neutral>
1.51338e-05

> <r_epik_State_Penalty>
-0

> <r_epik_Charging_Adjusted_Penalty>
0

> <i_epik_Tot_Q>
0

> <i_epik_Tot_abs_Q>
0

> <r_epik_Metal_State_Penalty>
-0

> <b_epik_Metal_Only>
0

> <s_epik_Chemistry_Notes>
This compound has an ester and may undergo hydrolysis at high or low pH. This compound contains an acetal/aminal-like group ( X-CH(R)-Y where X, Y are N, S, or O) that may be acid/base labile, releasing an aldehyde.

> <s_lp_Force_Field>
OPLS_2005

> <r_lp_Energy>
15.9567

> <b_lp_Chiralities_Consistent>
1

> <s_lp_Variant>
AV-unprocessed.smi:103-6

> <Gold.Version>
5.8.1

> <Gold.Id.Protein>
6NUR|6NUR_protein|mol2

> <Gold.PLP.Fitness>
35.5290

> <Gold.PLP.PLP>
-24.1067

> <Gold.PLP.part.hbond>
-4.3972

> <Gold.PLP.part.metal>
0.0000

> <Gold.PLP.part.buried>
-3.4262

> <Gold.PLP.part.nonpolar>
-16.2078

> <Gold.PLP.part.repulsive>
0.1697

> <Gold.PLP.ligand.clash>
0.0000

> <Gold.PLP.ligand.torsion>
1.3797

> <Gold.PLP.Chemscore.Hbond>
4.0000

> <Gold.PLP.Chemscore.CHOScore>
0.0000

> <Gold.PLP.Chemscore.Metal>
0.0000

> <Gold.Chemscore.Hbonds>
donor molecule, donor type, donor heavy atom, donor atom, acceptor molecule, acceptor atom, score
      L1  H    18    43       P1  7948  1.00
      P1  H  6896  6908       L1    13  1.00
      P1  H  6931  6943       L1    32  1.00
      P1  H 11000 11005       L1     3  0.91

> <Gold.PLP.Chemscore.Internal.Correction>
2.1817

> <Gold.Rescore>
     Score         DG    S(hbond)    S(metal)    S(lipo)     H(rot)  DE(clash)    DE(int)     intcor
      7.82     -12.21       3.96        0.00      37.34       4.25       0.06       4.34       ----

> <Gold.Chemscore.Fitness>
7.8160

> <Gold.Chemscore.DG>
-12.2144

> <Gold.Chemscore.ZeroCoef>
-5.4800

> <Gold.Chemscore.Hbond>
3.9625

> <Gold.Chemscore.Metal>
0.0000

> <Gold.Chemscore.Lipo>
37.3368

> <Gold.Chemscore.Internal_Hbond>
0.0000

> <Gold.Chemscore.DEClash>
0.0624

> <Gold.Chemscore.DEInternal>
4.3360

> <Gold.Chemscore.Rot>
4.2456

> <Gold.Chemscore.Internal.Correction>
   9.000000E+99

> <Gold.Chemscore.Hbonds>
donor molecule, donor type, donor heavy atom, donor atom, acceptor molecule, acceptor atom, score
      L1  H    18    43       P1  7948  1.00
      P1  H  6896  6908       L1    13  0.99
      P1  H  6931  6943       L1    32  0.87
      P1  H 11000 11005       L1     3  0.69

> <Gold.Chemscore.Hbond.Weighted>
-13.2347

> <Gold.Chemscore.Metal.Weighted>
-0.0000

> <Gold.Chemscore.Lipo.Weighted>
-4.3684

> <Gold.Chemscore.Internal_Hbond.Weighted>
0.0000

> <Gold.Chemscore.DEClash.Weighted>
0.0624

> <Gold.Chemscore.DEInternal.Weighted>
4.3360

> <Gold.Chemscore.Rot.Weighted>
10.8687

> <Gold.Chemscore.Internal.Correction.Weighted>
   9.000000E+99

> <Gold.Protein.RotatedTorsions>
[ 6907 6896 6895 6894 ] final  109.69 input  -60.11 | X-H torsion
[ 7974 7965 7964 7962 ] final  -63.92 input  175.53 | X-H torsion
[ 8008 7997 7996 7995 ] final  162.44 input   59.86 | X-H torsion
[ 10167 10162 10161 10158 ] final  -31.26 input  -65.29 | X-H torsion
[ 10718 10713 10712 10709 ] final -132.07 input   66.30 | X-H torsion
[ 10763 10752 10751 10750 ] final  140.96 input  -60.55 | X-H torsion
[ 11005 11000 10999 10996 ] final -131.85 input  -57.11 | X-H torsion

> <Gold.Protein.ActiveResidues>
 VAL166  LYS551  ARG553  GLY616  TRP617  ASP618  TYR619  PRO620  LYS621  CYS622 
 ASP623  PHE694  ASN695  SER759  ASP760  ASP761  ALA762  ILE779  LEU786  VAL792 
 PHE793  MET794  SER795  GLU796  ALA797  LYS798  CYS799  TRP800  GLU811  SER814 

> <Gold.Protein.RotatedAtoms>
  152.5055  133.8907  159.7392 H   0  0  0  0  0  0  0  0  0  0  0  0  # atno 6907 bound_to 6896
  150.9347  133.6717  159.2810 H   0  0  0  0  0  0  0  0  0  0  0  0  # atno 6908 bound_to 6896
  151.4049  135.0981  159.9620 H   0  0  0  0  0  0  0  0  0  0  0  0  # atno 6909 bound_to 6896
  145.7731  140.8802  143.0369 H   0  0  0  0  0  0  0  0  0  0  0  0  # atno 7974 bound_to 7965
  156.2031  140.1750  156.7858 H   0  0  0  0  0  0  0  0  0  0  0  0  # atno 8008 bound_to 7997
  154.5618  140.0698  156.8861 H   0  0  0  0  0  0  0  0  0  0  0  0  # atno 8009 bound_to 7997
  155.2834  140.3350  155.4259 H   0  0  0  0  0  0  0  0  0  0  0  0  # atno 8010 bound_to 7997
  140.7238  143.3785  151.1645 H   0  0  0  0  0  0  0  0  0  0  0  0  # atno 10167 bound_to 10162
  156.2309  130.7036  151.0857 H   0  0  0  0  0  0  0  0  0  0  0  0  # atno 10718 bound_to 10713
  153.9313  135.2990  155.3445 H   0  0  0  0  0  0  0  0  0  0  0  0  # atno 10763 bound_to 10752
  154.7525  135.4973  153.9318 H   0  0  0  0  0  0  0  0  0  0  0  0  # atno 10764 bound_to 10752
  153.1090  135.6754  153.9639 H   0  0  0  0  0  0  0  0  0  0  0  0  # atno 10765 bound_to 10752
  140.9222  134.1429  157.4305 H   0  0  0  0  0  0  0  0  0  0  0  0  # atno 11005 bound_to 11000
  144.6809  139.9884  143.7484 LP  0  0  0  0  0  0  0  0  0  0  0  0  # atno 17320 bound_to 7965
  146.0149  139.3201  143.0847 LP  0  0  0  0  0  0  0  0  0  0  0  0  # atno 17321 bound_to 7965
  139.7369  143.8984  152.3038 LP  0  0  0  0  0  0  0  0  0  0  0  0  # atno 17342 bound_to 10162
  139.8793  144.7026  150.8897 LP  0  0  0  0  0  0  0  0  0  0  0  0  # atno 17343 bound_to 10162
  157.7132  131.0723  150.6424 LP  0  0  0  0  0  0  0  0  0  0  0  0  # atno 17370 bound_to 10713
  156.6491  130.4480  149.5725 LP  0  0  0  0  0  0  0  0  0  0  0  0  # atno 17371 bound_to 10713
  139.8778  134.9975  156.5852 LP  0  0  0  0  0  0  0  0  0  0  0  0  # atno 17394 bound_to 11000
  140.7973  133.8534  155.8696 LP  0  0  0  0  0  0  0  0  0  0  0  0  # atno 17395 bound_to 11000

$$$$
