AV-unprocessed.smi:661|AV-procd|sdf|3241|dock3
  -GOLD-   22720 0193D 1   1.00000     0.00000
 Structure written by MMmdl.
 30 31  0  0  0  0  0  0  0  0  1 V2000
  147.5119  141.9584  154.0688 C   0  0  0  0  0  0  0  0  0  0  0  0
  148.9159  142.3075  154.1895 N   0  0  0  0  0  0  0  0  0  0  0  0
  149.6544  141.1802  154.7342 C   0  0  0  0  0  0  0  0  0  0  0  0
  150.4324  141.5476  155.9597 C   0  0  0  0  0  0  0  0  0  0  0  0
  150.4549  142.7968  156.4255 N   0  0  0  0  0  0  0  0  0  0  0  0
  151.2733  142.6934  157.5334 C   0  0  0  0  0  0  0  0  0  0  0  0
  151.6932  143.6742  158.4602 C   0  0  0  0  0  0  0  0  0  0  0  0
  152.5467  143.3281  159.5284 C   0  0  0  0  0  0  0  0  0  0  0  0
  152.9920  141.9995  159.6845 C   0  0  0  0  0  0  0  0  0  0  0  0
  152.5852  141.0066  158.7725 C   0  0  0  0  0  0  0  0  0  0  0  0
  151.7324  141.3572  157.7088 C   0  0  0  0  0  0  0  0  0  0  0  0
  151.1609  140.6421  156.6614 N   0  0  0  0  0  0  0  0  0  0  0  0
  151.3385  139.2211  156.4020 C   0  0  0  0  0  0  0  0  0  0  0  0
  151.8223  138.9642  154.9683 C   0  0  0  0  0  0  0  0  0  0  0  0
  153.0861  139.5617  154.7787 O   0  0  0  0  0  0  0  0  0  0  0  0
  146.9527  142.8048  153.6699 H   0  0  0  0  0  0  0  0  0  0  0  0
  147.0894  141.6998  155.0405 H   0  0  0  0  0  0  0  0  0  0  0  0
  147.3775  141.1133  153.3926 H   0  0  0  0  0  0  0  0  0  0  0  0
  149.0040  143.0916  154.8203 H   0  0  0  0  0  0  0  0  0  0  0  0
  148.9547  140.3823  154.9870 H   0  0  0  0  0  0  0  0  0  0  0  0
  150.3346  140.7731  153.9856 H   0  0  0  0  0  0  0  0  0  0  0  0
  151.3580  144.6946  158.3493 H   0  0  0  0  0  0  0  0  0  0  0  0
  152.8614  144.0860  160.2306 H   0  0  0  0  0  0  0  0  0  0  0  0
  153.6464  141.7432  160.5050 H   0  0  0  0  0  0  0  0  0  0  0  0
  152.9249  139.9880  158.8879 H   0  0  0  0  0  0  0  0  0  0  0  0
  152.0629  138.8315  157.1185 H   0  0  0  0  0  0  0  0  0  0  0  0
  150.4061  138.6908  156.5930 H   0  0  0  0  0  0  0  0  0  0  0  0
  151.9022  137.8954  154.7697 H   0  0  0  0  0  0  0  0  0  0  0  0
  151.1216  139.3798  154.2434 H   0  0  0  0  0  0  0  0  0  0  0  0
  153.5009  139.1556  154.0329 H   0  0  0  0  0  0  0  0  0  0  0  0
  1  2  1  0  0  0  0
  1 16  1  0  0  0  0
  1 17  1  0  0  0  0
  1 18  1  0  0  0  0
  2  3  1  0  0  0  0
  2 19  1  0  0  0  0
  3  4  1  0  0  0  0
  3 20  1  0  0  0  0
  3 21  1  0  0  0  0
  4 12  1  0  0  0  0
  4  5  2  0  0  0  0
  5  6  1  0  0  0  0
  6 11  2  0  0  0  0
  6  7  1  0  0  0  0
  7  8  2  0  0  0  0
  7 22  1  0  0  0  0
  8  9  1  0  0  0  0
  8 23  1  0  0  0  0
  9 10  2  0  0  0  0
  9 24  1  0  0  0  0
 10 11  1  0  0  0  0
 10 25  1  0  0  0  0
 11 12  1  0  0  0  0
 12 13  1  0  0  0  0
 13 14  1  0  0  0  0
 13 26  1  0  0  0  0
 13 27  1  0  0  0  0
 14 15  1  0  0  0  0
 14 28  1  0  0  0  0
 14 29  1  0  0  0  0
 15 30  1  0  0  0  0
M  END
> <s_m_source_file>
AV-unprocessed.smi

> <i_m_source_file_index>
661

> <i_lp_mmshare_version>
43012

> <i_f3d_flags>
0

> <s_epik_input>
W0NIM11bTkhdW0NIMl1jKG4xKW4oW0NIMl1bQ0gyXVtPSF0pYyhjMTIpW2NIXVtjSF1bY0hdW2NIXTI=

> <s_epik_cmdline>
J2VwaWtfcHl0aG9uJywgJy1waCcsICc3LjAnLCAnLXRuJywgJzgnLCAnLW1hJywgJzIwMCcsICctbWV0YWxfYmluZGluZycsICctaW1hZScsICc8aW5maWxlLm1hZT4nLCAnLW9tYWUnLCAnPG91dGZpbGUubWFlPic=

> <r_epik_Ionization_Penalty>
1.98932

> <r_epik_Ionization_Penalty_Charging>
0

> <r_epik_Ionization_Penalty_Neutral>
1.98932

> <r_epik_State_Penalty>
1.95598

> <r_epik_Charging_Adjusted_Penalty>
1.95598

> <i_epik_Tot_Q>
0

> <i_epik_Tot_abs_Q>
0

> <r_epik_Metal_State_Penalty>
1.80219

> <b_epik_Metal_Only>
0

> <s_lp_Force_Field>
OPLS_2005

> <r_lp_Energy>
9.98392

> <b_lp_Chiralities_Consistent>
1

> <s_lp_Variant>
AV-unprocessed.smi:661-2

> <Gold.Version>
5.8.1

> <Gold.Id.Protein>
6NUR|6NUR_protein|mol2

> <Gold.PLP.Fitness>
41.8005

> <Gold.PLP.PLP>
-35.9769

> <Gold.PLP.part.hbond>
-4.0000

> <Gold.PLP.part.metal>
0.0000

> <Gold.PLP.part.buried>
-3.9323

> <Gold.PLP.part.nonpolar>
-30.8086

> <Gold.PLP.part.repulsive>
3.4736

> <Gold.PLP.ligand.clash>
0.0000

> <Gold.PLP.ligand.torsion>
0.4153

> <Gold.PLP.Chemscore.Hbond>
2.2145

> <Gold.PLP.Chemscore.CHOScore>
0.0000

> <Gold.PLP.Chemscore.Metal>
0.0000

> <Gold.Chemscore.Hbonds>
donor molecule, donor type, donor heavy atom, donor atom, acceptor molecule, acceptor atom, score
      L1  H     2    19       P1  8028  1.00
      P1  H  7997  8008       L1    15  1.00
      P1  H  8011  8017       L1     2  0.23

> <Gold.PLP.Chemscore.Internal.Correction>
0.0107

> <Gold.Rescore>
     Score         DG    S(hbond)    S(metal)    S(lipo)     H(rot)  DE(clash)    DE(int)     intcor
     14.87     -16.84       2.02        0.00      89.95       2.30       1.56       0.42       ----

> <Gold.Chemscore.Fitness>
14.8678

> <Gold.Chemscore.DG>
-16.8394

> <Gold.Chemscore.ZeroCoef>
-5.4800

> <Gold.Chemscore.Hbond>
2.0155

> <Gold.Chemscore.Metal>
0.0000

> <Gold.Chemscore.Lipo>
89.9459

> <Gold.Chemscore.Internal_Hbond>
0.0000

> <Gold.Chemscore.DEClash>
1.5554

> <Gold.Chemscore.DEInternal>
0.4162

> <Gold.Chemscore.Rot>
2.3031

> <Gold.Chemscore.Internal.Correction>
   9.000000E+99

> <Gold.Chemscore.Hbonds>
donor molecule, donor type, donor heavy atom, donor atom, acceptor molecule, acceptor atom, score
      L1  H     2    19       P1  8028  1.00
      P1  H  7997  8008       L1    15  0.40
      P1  H  8011  8017       L1     2  0.04

> <Gold.Chemscore.Hbond.Weighted>
-6.7317

> <Gold.Chemscore.Metal.Weighted>
-0.0000

> <Gold.Chemscore.Lipo.Weighted>
-10.5237

> <Gold.Chemscore.Internal_Hbond.Weighted>
0.0000

> <Gold.Chemscore.DEClash.Weighted>
1.5554

> <Gold.Chemscore.DEInternal.Weighted>
0.4162

> <Gold.Chemscore.Rot.Weighted>
5.8960

> <Gold.Chemscore.Internal.Correction.Weighted>
   9.000000E+99

> <Gold.Protein.RotatedTorsions>
[ 6907 6896 6895 6894 ] final   33.68 input  -60.11 | X-H torsion
[ 7974 7965 7964 7962 ] final   53.64 input  175.53 | X-H torsion
[ 8008 7997 7996 7995 ] final   -8.04 input   59.86 | X-H torsion
[ 10167 10162 10161 10158 ] final   85.78 input  -65.29 | X-H torsion
[ 10718 10713 10712 10709 ] final -106.88 input   66.30 | X-H torsion
[ 10763 10752 10751 10750 ] final  173.05 input  -60.55 | X-H torsion
[ 11005 11000 10999 10996 ] final  166.56 input  -57.11 | X-H torsion

> <Gold.Protein.ActiveResidues>
 VAL166  LYS551  ARG553  GLY616  TRP617  ASP618  TYR619  PRO620  LYS621  CYS622 
 ASP623  PHE694  ASN695  SER759  ASP760  ASP761  ALA762  ILE779  LEU786  VAL792 
 PHE793  MET794  SER795  GLU796  ALA797  LYS798  CYS799  TRP800  GLU811  SER814 

> <Gold.Protein.RotatedAtoms>
  152.0919  134.9401  160.0571 H   0  0  0  0  0  0  0  0  0  0  0  0  # atno 6907 bound_to 6896
  152.0649  133.4074  159.4442 H   0  0  0  0  0  0  0  0  0  0  0  0  # atno 6908 bound_to 6896
  150.6837  134.3078  159.4777 H   0  0  0  0  0  0  0  0  0  0  0  0  # atno 6909 bound_to 6896
  145.9691  139.4131  143.0201 H   0  0  0  0  0  0  0  0  0  0  0  0  # atno 7974 bound_to 7965
  154.5780  140.2391  155.8095 H   0  0  0  0  0  0  0  0  0  0  0  0  # atno 8008 bound_to 7997
  156.2157  140.3013  155.9792 H   0  0  0  0  0  0  0  0  0  0  0  0  # atno 8009 bound_to 7997
  155.2593  140.0414  157.2986 H   0  0  0  0  0  0  0  0  0  0  0  0  # atno 8010 bound_to 7997
  139.8943  144.6367  150.8705 H   0  0  0  0  0  0  0  0  0  0  0  0  # atno 10167 bound_to 10162
  156.0410  130.5634  150.7743 H   0  0  0  0  0  0  0  0  0  0  0  0  # atno 10718 bound_to 10713
  154.4346  135.2760  155.1889 H   0  0  0  0  0  0  0  0  0  0  0  0  # atno 10763 bound_to 10752
  154.3781  135.6094  153.5779 H   0  0  0  0  0  0  0  0  0  0  0  0  # atno 10764 bound_to 10752
  152.9838  135.5873  154.4663 H   0  0  0  0  0  0  0  0  0  0  0  0  # atno 10765 bound_to 10752
  140.2677  134.7852  157.3647 H   0  0  0  0  0  0  0  0  0  0  0  0  # atno 11005 bound_to 11000
  145.7932  140.9805  143.1038 LP  0  0  0  0  0  0  0  0  0  0  0  0  # atno 17320 bound_to 7965
  144.6832  139.9709  143.7482 LP  0  0  0  0  0  0  0  0  0  0  0  0  # atno 17321 bound_to 7965
  140.7720  143.3486  151.2061 LP  0  0  0  0  0  0  0  0  0  0  0  0  # atno 17342 bound_to 10162
  139.7082  143.9420  152.2936 LP  0  0  0  0  0  0  0  0  0  0  0  0  # atno 17343 bound_to 10162
  157.5228  131.0932  151.0057 LP  0  0  0  0  0  0  0  0  0  0  0  0  # atno 17370 bound_to 10713
  157.0383  130.5739  149.5352 LP  0  0  0  0  0  0  0  0  0  0  0  0  # atno 17371 bound_to 10713
  140.1404  134.4980  155.8036 LP  0  0  0  0  0  0  0  0  0  0  0  0  # atno 17394 bound_to 11000
  141.2182  133.6823  156.7199 LP  0  0  0  0  0  0  0  0  0  0  0  0  # atno 17395 bound_to 11000

$$$$
