AV-unprocessed.smi:1396|AV-procd|sdf|5674|dock9
  -GOLD-   22720 5303D 1   1.00000     0.00000
 Structure written by MMmdl.
 46 47  0  0  0  0  0  0  0  0  1 V2000
  153.7797  142.0591  160.9768 C   0  0  0  0  0  0  0  0  0  0  0  0
  152.7286  142.0860  159.9714 N   0  0  0  0  0  0  0  0  0  0  0  0
  152.6928  141.2869  158.8952 C   0  0  0  0  0  0  0  0  0  0  0  0
  153.5494  140.4366  158.6549 O   0  0  0  0  0  0  0  0  0  0  0  0
  151.5047  141.4705  157.9433 C   0  0  0  0  0  0  0  0  0  0  0  0
  151.0953  140.2459  157.2168 N   0  0  0  0  0  0  0  0  0  0  0  0
  151.9559  140.0719  156.0417 C   0  0  0  0  0  0  0  0  0  0  0  0
  151.6466  138.7406  155.3352 C   0  0  0  0  0  0  0  0  0  0  0  0
  150.1746  138.6725  154.9061 C   0  0  0  0  0  0  0  0  0  0  0  0
  149.8810  137.3590  154.3415 N   0  0  0  0  0  0  0  0  0  0  0  0
  150.0401  136.1922  154.9817 C   0  0  0  0  0  0  0  0  0  0  0  0
  150.4364  136.1042  156.1436 O   0  0  0  0  0  0  0  0  0  0  0  0
  149.6958  135.1565  154.1976 N   0  0  0  0  0  0  0  0  0  0  0  0
  149.7971  133.7664  154.4748 C   0  0  0  0  0  0  0  0  0  0  0  0
  149.1894  132.8665  153.5766 C   0  0  0  0  0  0  0  0  0  0  0  0
  149.2963  131.4830  153.8121 C   0  0  0  0  0  0  0  0  0  0  0  0
  150.0178  131.0399  154.9383 C   0  0  0  0  0  0  0  0  0  0  0  0
  150.1228  129.6825  155.1635 O   0  0  0  0  0  0  0  0  0  0  0  0
  149.7935  128.7941  154.1010 C   0  0  0  0  0  0  0  0  0  0  0  0
  150.6160  131.8966  155.8023 N   0  0  0  0  0  0  0  0  0  0  0  0
  150.5085  133.2225  155.5721 C   0  0  0  0  0  0  0  0  0  0  0  0
  149.2867  138.9574  156.1288 C   0  0  0  0  0  0  0  0  0  0  0  0
  149.6824  140.2782  156.8110 C   0  0  0  0  0  0  0  0  0  0  0  0
  153.5669  142.7893  161.7574 H   0  0  0  0  0  0  0  0  0  0  0  0
  154.7455  142.3051  160.5336 H   0  0  0  0  0  0  0  0  0  0  0  0
  153.8494  141.0745  161.4409 H   0  0  0  0  0  0  0  0  0  0  0  0
  151.9858  142.7595  160.0927 H   0  0  0  0  0  0  0  0  0  0  0  0
  150.6567  141.8638  158.5073 H   0  0  0  0  0  0  0  0  0  0  0  0
  151.7830  142.2433  157.2252 H   0  0  0  0  0  0  0  0  0  0  0  0
  151.8281  140.9056  155.3489 H   0  0  0  0  0  0  0  0  0  0  0  0
  153.0032  140.0725  156.3466 H   0  0  0  0  0  0  0  0  0  0  0  0
  152.2945  138.6257  154.4655 H   0  0  0  0  0  0  0  0  0  0  0  0
  151.8794  137.9124  156.0066 H   0  0  0  0  0  0  0  0  0  0  0  0
  149.9995  139.4383  154.1480 H   0  0  0  0  0  0  0  0  0  0  0  0
  149.5446  137.3390  153.3899 H   0  0  0  0  0  0  0  0  0  0  0  0
  149.2918  135.3909  153.3028 H   0  0  0  0  0  0  0  0  0  0  0  0
  148.6454  133.2291  152.7165 H   0  0  0  0  0  0  0  0  0  0  0  0
  148.8358  130.7743  153.1397 H   0  0  0  0  0  0  0  0  0  0  0  0
  149.9216  127.7655  154.4380 H   0  0  0  0  0  0  0  0  0  0  0  0
  150.4454  128.9438  153.2391 H   0  0  0  0  0  0  0  0  0  0  0  0
  148.7547  128.9125  153.7891 H   0  0  0  0  0  0  0  0  0  0  0  0
  151.0313  133.8444  156.2816 H   0  0  0  0  0  0  0  0  0  0  0  0
  148.2382  139.0015  155.8317 H   0  0  0  0  0  0  0  0  0  0  0  0
  149.3689  138.1408  156.8480 H   0  0  0  0  0  0  0  0  0  0  0  0
  149.0304  140.4185  157.6729 H   0  0  0  0  0  0  0  0  0  0  0  0
  149.5025  141.1198  156.1396 H   0  0  0  0  0  0  0  0  0  0  0  0
  1  2  1  0  0  0  0
  1 24  1  0  0  0  0
  1 25  1  0  0  0  0
  1 26  1  0  0  0  0
  2  3  1  0  0  0  0
  2 27  1  0  0  0  0
  3  4  2  0  0  0  0
  3  5  1  0  0  0  0
  5  6  1  0  0  0  0
  5 28  1  0  0  0  0
  5 29  1  0  0  0  0
  6 23  1  0  0  0  0
  6  7  1  0  0  0  0
  7  8  1  0  0  0  0
  7 30  1  0  0  0  0
  7 31  1  0  0  0  0
  8  9  1  0  0  0  0
  8 32  1  0  0  0  0
  8 33  1  0  0  0  0
  9 10  1  0  0  0  0
  9 22  1  0  0  0  0
  9 34  1  0  0  0  0
 10 11  1  0  0  0  0
 10 35  1  0  0  0  0
 11 12  2  0  0  0  0
 11 13  1  0  0  0  0
 13 14  1  0  0  0  0
 13 36  1  0  0  0  0
 14 21  1  0  0  0  0
 14 15  2  0  0  0  0
 15 16  1  0  0  0  0
 15 37  1  0  0  0  0
 16 17  2  0  0  0  0
 16 38  1  0  0  0  0
 17 18  1  0  0  0  0
 17 20  1  0  0  0  0
 18 19  1  0  0  0  0
 19 39  1  0  0  0  0
 19 40  1  0  0  0  0
 19 41  1  0  0  0  0
 20 21  2  0  0  0  0
 21 42  1  0  0  0  0
 22 23  1  0  0  0  0
 22 43  1  0  0  0  0
 22 44  1  0  0  0  0
 23 45  1  0  0  0  0
 23 46  1  0  0  0  0
M  END
> <s_m_source_file>
AV-unprocessed.smi

> <i_m_source_file_index>
1396

> <i_lp_mmshare_version>
43012

> <i_f3d_flags>
0

> <s_epik_input>
W0NIM11bTkhdQyg9TylbQ0gyXU4xW0NIMl1bQ0gyXVtDSF0oW0NIMl1bQ0gyXTEpW05IXUMoPU8pW05IXWMyW2NIXVtjSF1jKE9bQ0gzXSluW2NIXTI=

> <s_epik_cmdline>
J2VwaWtfcHl0aG9uJywgJy1waCcsICc3LjAnLCAnLXRuJywgJzgnLCAnLW1hJywgJzIwMCcsICctbWV0YWxfYmluZGluZycsICctaW1hZScsICc8aW5maWxlLm1hZT4nLCAnLW9tYWUnLCAnPG91dGZpbGUubWFlPic=

> <r_lp_tautomer_probability>
1

> <r_epik_Ionization_Penalty>
0.16483

> <r_epik_Ionization_Penalty_Charging>
0

> <r_epik_Ionization_Penalty_Neutral>
0.16483

> <r_epik_State_Penalty>
0.154069

> <r_epik_Charging_Adjusted_Penalty>
0.154069

> <i_epik_Tot_Q>
0

> <i_epik_Tot_abs_Q>
0

> <r_epik_Metal_State_Penalty>
0.158584

> <b_epik_Metal_Only>
0

> <s_lp_Force_Field>
OPLS_2005

> <r_lp_Energy>
15.765

> <b_lp_Chiralities_Consistent>
1

> <s_lp_Variant>
AV-unprocessed.smi:1396-1

> <Gold.Version>
5.8.1

> <Gold.Id.Protein>
6NUR|6NUR_protein|mol2

> <Gold.PLP.Fitness>
42.2951

> <Gold.PLP.PLP>
-35.6287

> <Gold.PLP.part.hbond>
-3.4104

> <Gold.PLP.part.metal>
0.0000

> <Gold.PLP.part.buried>
-4.1646

> <Gold.PLP.part.nonpolar>
-28.0938

> <Gold.PLP.part.repulsive>
0.2115

> <Gold.PLP.ligand.clash>
0.0118

> <Gold.PLP.ligand.torsion>
0.8547

> <Gold.PLP.Chemscore.Hbond>
2.7920

> <Gold.PLP.Chemscore.CHOScore>
0.0000

> <Gold.PLP.Chemscore.Metal>
0.0000

> <Gold.Chemscore.Hbonds>
donor molecule, donor type, donor heavy atom, donor atom, acceptor molecule, acceptor atom, score
      L1  H    10    35       P1  7948  0.94
      L1  H    13    36       P1  7948  0.90
      P1  H  7997  8010       L1     4  0.80

> <Gold.PLP.Chemscore.Internal.Correction>
0.0115

> <Gold.Rescore>
     Score         DG    S(hbond)    S(metal)    S(lipo)     H(rot)  DE(clash)    DE(int)     intcor
     13.59     -16.86       2.62        0.00      65.30       1.96       0.04       3.23       ----

> <Gold.Chemscore.Fitness>
13.5887

> <Gold.Chemscore.DG>
-16.8575

> <Gold.Chemscore.ZeroCoef>
-5.4800

> <Gold.Chemscore.Hbond>
2.6247

> <Gold.Chemscore.Metal>
0.0000

> <Gold.Chemscore.Lipo>
65.2986

> <Gold.Chemscore.Internal_Hbond>
0.0000

> <Gold.Chemscore.DEClash>
0.0383

> <Gold.Chemscore.DEInternal>
3.2305

> <Gold.Chemscore.Rot>
1.9645

> <Gold.Chemscore.Internal.Correction>
   9.000000E+99

> <Gold.Chemscore.Hbonds>
donor molecule, donor type, donor heavy atom, donor atom, acceptor molecule, acceptor atom, score
      L1  H    10    35       P1  7948  0.80
      L1  H    13    36       P1  7948  0.18
      P1  H  7997  8010       L1     4  0.79

> <Gold.Chemscore.Hbond.Weighted>
-8.7666

> <Gold.Chemscore.Metal.Weighted>
-0.0000

> <Gold.Chemscore.Lipo.Weighted>
-7.6399

> <Gold.Chemscore.Internal_Hbond.Weighted>
0.0000

> <Gold.Chemscore.DEClash.Weighted>
0.0383

> <Gold.Chemscore.DEInternal.Weighted>
3.2305

> <Gold.Chemscore.Rot.Weighted>
5.0290

> <Gold.Chemscore.Internal.Correction.Weighted>
   9.000000E+99

> <Gold.Protein.RotatedTorsions>
[ 6907 6896 6895 6894 ] final  -95.36 input  -60.11 | X-H torsion
[ 7974 7965 7964 7962 ] final  -79.97 input  175.53 | X-H torsion
[ 8008 7997 7996 7995 ] final   26.07 input   59.86 | X-H torsion
[ 10167 10162 10161 10158 ] final   28.87 input  -65.29 | X-H torsion
[ 10718 10713 10712 10709 ] final  113.02 input   66.30 | X-H torsion
[ 10763 10752 10751 10750 ] final -168.53 input  -60.55 | X-H torsion
[ 11005 11000 10999 10996 ] final   90.71 input  -57.11 | X-H torsion

> <Gold.Protein.ActiveResidues>
 VAL166  LYS551  ARG553  GLY616  TRP617  ASP618  TYR619  PRO620  LYS621  CYS622 
 ASP623  PHE694  ASN695  SER759  ASP760  ASP761  ALA762  ILE779  LEU786  VAL792 
 PHE793  MET794  SER795  GLU796  ALA797  LYS798  CYS799  TRP800  GLU811  SER814 

> <Gold.Protein.RotatedAtoms>
  150.6962  134.1669  159.4197 H   0  0  0  0  0  0  0  0  0  0  0  0  # atno 6907 bound_to 6896
  151.9648  135.0103  160.0559 H   0  0  0  0  0  0  0  0  0  0  0  0  # atno 6908 bound_to 6896
  152.1894  133.4727  159.5037 H   0  0  0  0  0  0  0  0  0  0  0  0  # atno 6909 bound_to 6896
  145.5661  140.9474  143.1420 H   0  0  0  0  0  0  0  0  0  0  0  0  # atno 7974 bound_to 7965
  155.0215  140.3148  155.4792 H   0  0  0  0  0  0  0  0  0  0  0  0  # atno 8008 bound_to 7997
  156.2891  140.2196  156.5275 H   0  0  0  0  0  0  0  0  0  0  0  0  # atno 8009 bound_to 7997
  154.7448  140.0471  157.0830 H   0  0  0  0  0  0  0  0  0  0  0  0  # atno 8010 bound_to 7997
  140.4815  144.0609  150.6267 H   0  0  0  0  0  0  0  0  0  0  0  0  # atno 10167 bound_to 10162
  157.6361  131.0977  150.6980 H   0  0  0  0  0  0  0  0  0  0  0  0  # atno 10718 bound_to 10713
  154.6619  135.2926  154.9855 H   0  0  0  0  0  0  0  0  0  0  0  0  # atno 10763 bound_to 10752
  154.0912  135.6590  153.4857 H   0  0  0  0  0  0  0  0  0  0  0  0  # atno 10764 bound_to 10752
  153.0435  135.5220  154.7574 H   0  0  0  0  0  0  0  0  0  0  0  0  # atno 10765 bound_to 10752
  139.8851  134.8630  156.3323 H   0  0  0  0  0  0  0  0  0  0  0  0  # atno 11005 bound_to 11000
  144.7459  139.7320  143.7292 LP  0  0  0  0  0  0  0  0  0  0  0  0  # atno 17320 bound_to 7965
  146.1817  139.5012  142.9862 LP  0  0  0  0  0  0  0  0  0  0  0  0  # atno 17321 bound_to 7965
  140.3852  143.2781  152.0124 LP  0  0  0  0  0  0  0  0  0  0  0  0  # atno 17342 bound_to 10162
  139.4834  144.6122  151.7412 LP  0  0  0  0  0  0  0  0  0  0  0  0  # atno 17343 bound_to 10162
  156.7312  130.4710  149.5499 LP  0  0  0  0  0  0  0  0  0  0  0  0  # atno 17370 bound_to 10713
  156.1601  130.6368  151.0708 LP  0  0  0  0  0  0  0  0  0  0  0  0  # atno 17371 bound_to 10713
  140.9714  133.7325  156.0540 LP  0  0  0  0  0  0  0  0  0  0  0  0  # atno 17394 bound_to 11000
  140.7866  134.3665  157.5475 LP  0  0  0  0  0  0  0  0  0  0  0  0  # atno 17395 bound_to 11000

$$$$
