AV-unprocessed.smi:2152|AV-procd|sdf|8763|dock9
  -GOLD-   2272011543D 1   1.00000     0.00000
 Structure written by MMmdl.
 41 42  0  0  0  0  0  0  0  0  1 V2000
  151.2800  144.7820  158.9642 C   0  0  0  0  0  0  0  0  0  0  0  0
  152.3607  143.9899  159.7204 C   0  0  1  0  0  0  0  0  0  0  0  0
  151.9483  143.7215  161.1829 C   0  0  0  0  0  0  0  0  0  0  0  0
  153.0483  142.9745  161.9539 C   0  0  0  0  0  0  0  0  0  0  0  0
  153.4373  141.6670  161.2482 C   0  0  0  0  0  0  0  0  0  0  0  0
  153.8528  141.9251  159.7897 C   0  0  0  0  0  0  0  0  0  0  0  0
  152.7621  142.6796  158.9978 C   0  0  1  0  0  0  0  0  0  0  0  0
  151.5962  141.8255  158.7696 N   0  0  0  0  0  0  0  0  0  0  0  0
  151.5413  140.7860  157.9238 C   0  0  0  0  0  0  0  0  0  0  0  0
  152.4830  140.4446  157.2072 O   0  0  0  0  0  0  0  0  0  0  0  0
  150.2078  140.0292  157.8742 C   0  0  0  0  0  0  0  0  0  0  0  0
  149.2454  140.6311  156.9426 N   0  0  0  0  0  0  0  0  0  0  0  0
  149.5958  140.8116  155.6167 C   0  0  0  0  0  0  0  0  0  0  0  0
  148.7672  141.3459  154.6934 C   0  0  0  0  0  0  0  0  0  0  0  0
  147.4218  141.7729  155.0558 C   0  0  0  0  0  0  0  0  0  0  0  0
  146.6236  142.2545  154.2504 O   0  0  0  0  0  0  0  0  0  0  0  0
  147.0908  141.5858  156.4173 N   0  0  0  0  0  0  0  0  0  0  0  0
  145.7569  141.9828  156.8170 C   0  0  0  0  0  0  0  0  0  0  0  0
  147.9594  141.0195  157.3795 C   0  0  0  0  0  0  0  0  0  0  0  0
  147.6277  140.8578  158.5565 O   0  0  0  0  0  0  0  0  0  0  0  0
  150.3337  144.2420  158.9260 H   0  0  0  0  0  0  0  0  0  0  0  0
  151.5898  144.9864  157.9389 H   0  0  0  0  0  0  0  0  0  0  0  0
  151.0905  145.7411  159.4468 H   0  0  0  0  0  0  0  0  0  0  0  0
  153.2488  144.6233  159.7488 H   0  0  0  0  0  0  0  0  0  0  0  0
  151.7295  144.6638  161.6864 H   0  0  0  0  0  0  0  0  0  0  0  0
  151.0261  143.1400  161.2098 H   0  0  0  0  0  0  0  0  0  0  0  0
  153.9268  143.6142  162.0472 H   0  0  0  0  0  0  0  0  0  0  0  0
  152.7115  142.7627  162.9691 H   0  0  0  0  0  0  0  0  0  0  0  0
  154.2541  141.1850  161.7858 H   0  0  0  0  0  0  0  0  0  0  0  0
  152.5983  140.9702  161.2757 H   0  0  0  0  0  0  0  0  0  0  0  0
  154.7706  142.5144  159.7816 H   0  0  0  0  0  0  0  0  0  0  0  0
  154.0988  140.9817  159.3008 H   0  0  0  0  0  0  0  0  0  0  0  0
  153.1755  142.9509  158.0245 H   0  0  0  0  0  0  0  0  0  0  0  0
  150.7708  142.0360  159.3116 H   0  0  0  0  0  0  0  0  0  0  0  0
  150.3793  138.9850  157.6057 H   0  0  0  0  0  0  0  0  0  0  0  0
  149.7928  140.0092  158.8829 H   0  0  0  0  0  0  0  0  0  0  0  0
  150.5818  140.5059  155.2978 H   0  0  0  0  0  0  0  0  0  0  0  0
  149.1028  141.4559  153.6726 H   0  0  0  0  0  0  0  0  0  0  0  0
  145.6407  141.9457  157.8996 H   0  0  0  0  0  0  0  0  0  0  0  0
  145.0624  141.2935  156.3339 H   0  0  0  0  0  0  0  0  0  0  0  0
  145.6008  143.0087  156.4785 H   0  0  0  0  0  0  0  0  0  0  0  0
  1  2  1  0  0  0  0
  1 21  1  0  0  0  0
  1 22  1  0  0  0  0
  1 23  1  0  0  0  0
  2  7  1  0  0  0  0
  2  3  1  0  0  0  0
  2 24  1  0  0  0  0
  3  4  1  0  0  0  0
  3 25  1  0  0  0  0
  3 26  1  0  0  0  0
  4  5  1  0  0  0  0
  4 27  1  0  0  0  0
  4 28  1  0  0  0  0
  5  6  1  0  0  0  0
  5 29  1  0  0  0  0
  5 30  1  0  0  0  0
  6  7  1  0  0  0  0
  6 31  1  0  0  0  0
  6 32  1  0  0  0  0
  7  8  1  0  0  0  0
  7 33  1  0  0  0  0
  8  9  1  0  0  0  0
  8 34  1  0  0  0  0
  9 10  2  0  0  0  0
  9 11  1  0  0  0  0
 11 12  1  0  0  0  0
 11 35  1  0  0  0  0
 11 36  1  0  0  0  0
 12 19  1  0  0  0  0
 12 13  1  0  0  0  0
 13 14  2  0  0  0  0
 13 37  1  0  0  0  0
 14 15  1  0  0  0  0
 14 38  1  0  0  0  0
 15 16  2  0  0  0  0
 15 17  1  0  0  0  0
 17 18  1  0  0  0  0
 17 19  1  0  0  0  0
 18 39  1  0  0  0  0
 18 40  1  0  0  0  0
 18 41  1  0  0  0  0
 19 20  2  0  0  0  0
M  END
> <s_m_source_file>
AV-unprocessed.smi

> <i_m_source_file_index>
2152

> <i_lp_mmshare_version>
43012

> <i_f3d_flags>
0

> <s_epik_input>
W0NIM11bQ0BASF0xW0NIMl1bQ0gyXVtDSDJdW0NIMl1bQ0BIXTFbTkhdQyg9TylbQ0gyXW4yW2NIXVtjSF1jKD1PKW4oW0NIM10pYzI9Tw==

> <s_epik_cmdline>
J2VwaWtfcHl0aG9uJywgJy1waCcsICc3LjAnLCAnLXRuJywgJzgnLCAnLW1hJywgJzIwMCcsICctbWV0YWxfYmluZGluZycsICctaW1hZScsICc8aW5maWxlLm1hZT4nLCAnLW9tYWUnLCAnPG91dGZpbGUubWFlPic=

> <r_lp_tautomer_probability>
1

> <r_epik_Ionization_Penalty>
3.20555e-08

> <r_epik_Ionization_Penalty_Charging>
1.30086e-08

> <r_epik_Ionization_Penalty_Neutral>
1.90469e-08

> <r_epik_State_Penalty>
-0

> <r_epik_Charging_Adjusted_Penalty>
1.30086e-08

> <i_epik_Tot_Q>
0

> <i_epik_Tot_abs_Q>
0

> <r_epik_Metal_State_Penalty>
-0

> <b_epik_Metal_Only>
0

> <s_lp_Force_Field>
OPLS_2005

> <r_lp_Energy>
17.5723

> <b_lp_Chiralities_Consistent>
1

> <s_lp_Variant>
AV-unprocessed.smi:2152-2

> <Gold.Version>
5.8.1

> <Gold.Id.Protein>
6NUR|6NUR_protein|mol2

> <Gold.PLP.Fitness>
45.8021

> <Gold.PLP.PLP>
-44.0909

> <Gold.PLP.part.hbond>
-2.0000

> <Gold.PLP.part.metal>
0.0000

> <Gold.PLP.part.buried>
-4.0471

> <Gold.PLP.part.nonpolar>
-37.2257

> <Gold.PLP.part.repulsive>
0.2943

> <Gold.PLP.ligand.clash>
0.0000

> <Gold.PLP.ligand.torsion>
0.5414

> <Gold.PLP.Chemscore.Hbond>
0.9280

> <Gold.PLP.Chemscore.CHOScore>
0.0000

> <Gold.PLP.Chemscore.Metal>
0.0000

> <Gold.Chemscore.Hbonds>
donor molecule, donor type, donor heavy atom, donor atom, acceptor molecule, acceptor atom, score
      P1  H  7997  8009       L1    10  0.91

> <Gold.PLP.Chemscore.Internal.Correction>
0.0100

> <Gold.Rescore>
     Score         DG    S(hbond)    S(metal)    S(lipo)     H(rot)  DE(clash)    DE(int)     intcor
     14.80     -15.13       0.60        0.00      98.58       1.52       0.00       0.33       ----

> <Gold.Chemscore.Fitness>
14.8047

> <Gold.Chemscore.DG>
-15.1319

> <Gold.Chemscore.ZeroCoef>
-5.4800

> <Gold.Chemscore.Hbond>
0.6048

> <Gold.Chemscore.Metal>
0.0000

> <Gold.Chemscore.Lipo>
98.5807

> <Gold.Chemscore.Internal_Hbond>
0.0000

> <Gold.Chemscore.DEClash>
0.0000

> <Gold.Chemscore.DEInternal>
0.3272

> <Gold.Chemscore.Rot>
1.5242

> <Gold.Chemscore.Internal.Correction>
   9.000000E+99

> <Gold.Chemscore.Hbonds>
donor molecule, donor type, donor heavy atom, donor atom, acceptor molecule, acceptor atom, score
      P1  H  6934  6946       L1    20  0.02
      P1  H  7997  8009       L1    10  0.85

> <Gold.Chemscore.Hbond.Weighted>
-2.0199

> <Gold.Chemscore.Metal.Weighted>
-0.0000

> <Gold.Chemscore.Lipo.Weighted>
-11.5339

> <Gold.Chemscore.Internal_Hbond.Weighted>
0.0000

> <Gold.Chemscore.DEClash.Weighted>
0.0000

> <Gold.Chemscore.DEInternal.Weighted>
0.3272

> <Gold.Chemscore.Rot.Weighted>
3.9019

> <Gold.Chemscore.Internal.Correction.Weighted>
   9.000000E+99

> <Gold.Protein.RotatedTorsions>
[ 6907 6896 6895 6894 ] final  -33.43 input  -60.11 | X-H torsion
[ 7974 7965 7964 7962 ] final  140.26 input  175.53 | X-H torsion
[ 8008 7997 7996 7995 ] final  177.41 input   59.86 | X-H torsion
[ 10167 10162 10161 10158 ] final    3.52 input  -65.29 | X-H torsion
[ 10718 10713 10712 10709 ] final -166.76 input   66.30 | X-H torsion
[ 10763 10752 10751 10750 ] final   -4.98 input  -60.55 | X-H torsion
[ 11005 11000 10999 10996 ] final  137.24 input  -57.11 | X-H torsion

> <Gold.Protein.ActiveResidues>
 VAL166  LYS551  ARG553  GLY616  TRP617  ASP618  TYR619  PRO620  LYS621  CYS622 
 ASP623  PHE694  ASN695  SER759  ASP760  ASP761  ALA762  ILE779  LEU786  VAL792 
 PHE793  MET794  SER795  GLU796  ALA797  LYS798  CYS799  TRP800  GLU811  SER814 

> <Gold.Protein.RotatedAtoms>
  151.0656  134.9765  159.8282 H   0  0  0  0  0  0  0  0  0  0  0  0  # atno 6907 bound_to 6896
  152.5401  134.2362  159.8854 H   0  0  0  0  0  0  0  0  0  0  0  0  # atno 6908 bound_to 6896
  151.2384  133.4369  159.2640 H   0  0  0  0  0  0  0  0  0  0  0  0  # atno 6909 bound_to 6896
  144.9203  139.5177  143.5666 H   0  0  0  0  0  0  0  0  0  0  0  0  # atno 7974 bound_to 7965
  156.0660  140.1359  156.9886 H   0  0  0  0  0  0  0  0  0  0  0  0  # atno 8008 bound_to 7997
  154.4506  140.0981  156.6658 H   0  0  0  0  0  0  0  0  0  0  0  0  # atno 8009 bound_to 7997
  155.5304  140.3458  155.4427 H   0  0  0  0  0  0  0  0  0  0  0  0  # atno 8010 bound_to 7997
  140.6581  143.7374  150.7690 H   0  0  0  0  0  0  0  0  0  0  0  0  # atno 10167 bound_to 10162
  156.6725  130.9090  151.3046 H   0  0  0  0  0  0  0  0  0  0  0  0  # atno 10718 bound_to 10713
  153.3923  135.7002  153.6486 H   0  0  0  0  0  0  0  0  0  0  0  0  # atno 10763 bound_to 10752
  153.5053  135.3643  155.2560 H   0  0  0  0  0  0  0  0  0  0  0  0  # atno 10764 bound_to 10752
  154.8703  135.4122  154.3242 H   0  0  0  0  0  0  0  0  0  0  0  0  # atno 10765 bound_to 10752
  140.0100  134.9443  157.0258 H   0  0  0  0  0  0  0  0  0  0  0  0  # atno 11005 bound_to 11000
  146.3201  139.8077  142.8952 LP  0  0  0  0  0  0  0  0  0  0  0  0  # atno 17320 bound_to 7965
  145.3308  141.0266  143.3447 LP  0  0  0  0  0  0  0  0  0  0  0  0  # atno 17321 bound_to 7965
  140.1037  143.4763  152.2410 LP  0  0  0  0  0  0  0  0  0  0  0  0  # atno 17342 bound_to 10162
  139.5809  144.7510  151.3643 LP  0  0  0  0  0  0  0  0  0  0  0  0  # atno 17343 bound_to 10162
  157.7072  130.9398  150.0969 LP  0  0  0  0  0  0  0  0  0  0  0  0  # atno 17370 bound_to 10713
  156.1928  130.3655  149.8888 LP  0  0  0  0  0  0  0  0  0  0  0  0  # atno 17371 bound_to 10713
  140.4571  134.1522  155.7187 LP  0  0  0  0  0  0  0  0  0  0  0  0  # atno 17394 bound_to 11000
  141.1704  133.8619  157.1587 LP  0  0  0  0  0  0  0  0  0  0  0  0  # atno 17395 bound_to 11000

$$$$
