AV-unprocessed.smi:1790|AV-procd|sdf|7216|dock5
  -GOLD-   22720 8453D 1   1.00000     0.00000
 Structure written by MMmdl.
 33 34  0  0  0  0  0  0  0  0  1 V2000
  150.7140  137.6814  159.2835 O   0  0  0  0  0  0  0  0  0  0  0  0
  149.8588  137.7762  158.4045 C   0  0  0  0  0  0  0  0  0  0  0  0
  149.0739  136.5306  157.9948 C   0  0  0  0  0  0  0  0  0  0  0  0
  149.3535  135.4819  158.9090 O   0  0  0  0  0  0  0  0  0  0  0  0
  148.2547  135.1856  159.7523 C   0  0  0  0  0  0  0  0  0  0  0  0
  148.4128  135.9514  161.0481 C   0  0  0  0  0  0  0  0  0  0  0  0
  148.0466  135.3130  162.3690 C   0  0  0  0  0  0  0  0  0  0  0  0
  147.1960  136.4252  161.8101 C   0  0  0  0  0  0  0  0  0  0  0  0
  149.5135  138.9144  157.7698 N   0  0  0  0  0  0  0  0  0  0  0  0
  150.0350  140.2127  157.9024 C   0  0  0  0  0  0  0  0  0  0  0  0
  151.0673  140.5609  158.7148 C   0  0  0  0  0  0  0  0  0  0  0  0
  151.5576  141.9267  158.7971 C   0  0  0  0  0  0  0  0  0  0  0  0
  152.7491  142.2915  159.6691 C   0  0  0  0  0  0  0  0  0  0  0  0
  153.2900  141.2097  160.2310 F   0  0  0  0  0  0  0  0  0  0  0  0
  153.6844  142.8880  158.9314 F   0  0  0  0  0  0  0  0  0  0  0  0
  152.3895  143.1314  160.6399 F   0  0  0  0  0  0  0  0  0  0  0  0
  150.9547  142.8301  158.0026 C   0  0  0  0  0  0  0  0  0  0  0  0
  149.8933  142.4810  157.1651 N   0  0  0  0  0  0  0  0  0  0  0  0
  149.3905  141.2309  157.0561 C   0  0  0  0  0  0  0  0  0  0  0  0
  148.4561  141.0030  156.2885 O   0  0  0  0  0  0  0  0  0  0  0  0
  149.4880  143.2181  156.6065 H   0  0  0  0  0  0  0  0  0  0  0  0
  148.0049  136.7512  157.9860 H   0  0  0  0  0  0  0  0  0  0  0  0
  149.3659  136.2442  156.9833 H   0  0  0  0  0  0  0  0  0  0  0  0
  147.3190  135.4810  159.2755 H   0  0  0  0  0  0  0  0  0  0  0  0
  148.2051  134.1150  159.9586 H   0  0  0  0  0  0  0  0  0  0  0  0
  149.2677  136.6249  161.0593 H   0  0  0  0  0  0  0  0  0  0  0  0
  147.6337  134.3064  162.3491 H   0  0  0  0  0  0  0  0  0  0  0  0
  148.6754  135.5414  163.2271 H   0  0  0  0  0  0  0  0  0  0  0  0
  147.2555  137.3966  162.2970 H   0  0  0  0  0  0  0  0  0  0  0  0
  146.2162  136.1591  161.4185 H   0  0  0  0  0  0  0  0  0  0  0  0
  148.7491  138.8367  157.1139 H   0  0  0  0  0  0  0  0  0  0  0  0
  151.5699  139.8280  159.3237 H   0  0  0  0  0  0  0  0  0  0  0  0
  151.2349  143.8713  157.9421 H   0  0  0  0  0  0  0  0  0  0  0  0
  1  2  2  0  0  0  0
  2  3  1  0  0  0  0
  2  9  1  0  0  0  0
  3  4  1  0  0  0  0
  3 22  1  0  0  0  0
  3 23  1  0  0  0  0
  4  5  1  0  0  0  0
  5  6  1  0  0  0  0
  5 24  1  0  0  0  0
  5 25  1  0  0  0  0
  6  8  1  0  0  0  0
  6  7  1  0  0  0  0
  6 26  1  0  0  0  0
  7  8  1  0  0  0  0
  7 27  1  0  0  0  0
  7 28  1  0  0  0  0
  8 29  1  0  0  0  0
  8 30  1  0  0  0  0
  9 10  1  0  0  0  0
  9 31  1  0  0  0  0
 10 19  1  0  0  0  0
 10 11  2  0  0  0  0
 11 12  1  0  0  0  0
 11 32  1  0  0  0  0
 12 13  1  0  0  0  0
 12 17  2  0  0  0  0
 13 14  1  0  0  0  0
 13 15  1  0  0  0  0
 13 16  1  0  0  0  0
 17 18  1  0  0  0  0
 17 33  1  0  0  0  0
 18 21  1  0  0  0  0
 18 19  1  0  0  0  0
 19 20  2  0  0  0  0
M  END
> <s_m_source_file>
AV-unprocessed.smi

> <i_m_source_file_index>
1790

> <i_lp_mmshare_version>
43012

> <i_f3d_flags>
0

> <s_epik_input>
W0NIMl0xW0NIMl1bQ0hdMVtDSDJdT1tDSDJdQyg9TylbTkhdYzJbY0hdYyhDKEYpKEYpRilbY0hdW25IXWMyPU8=

> <s_epik_cmdline>
J2VwaWtfcHl0aG9uJywgJy1waCcsICc3LjAnLCAnLXRuJywgJzgnLCAnLW1hJywgJzIwMCcsICctbWV0YWxfYmluZGluZycsICctaW1hZScsICc8aW5maWxlLm1hZT4nLCAnLW9tYWUnLCAnPG91dGZpbGUubWFlPic=

> <r_lp_tautomer_probability>
0.999

> <r_epik_Ionization_Penalty>
0.00811055

> <r_epik_Ionization_Penalty_Charging>
0.00811046

> <r_epik_Ionization_Penalty_Neutral>
9.25705e-08

> <r_epik_State_Penalty>
0.00609496

> <r_epik_Charging_Adjusted_Penalty>
0.0142054

> <i_epik_Tot_Q>
0

> <i_epik_Tot_abs_Q>
0

> <r_epik_Metal_State_Penalty>
0.317593

> <b_epik_Metal_Only>
0

> <s_lp_Force_Field>
OPLS_2005

> <r_lp_Energy>
26.3792

> <b_lp_Chiralities_Consistent>
1

> <s_lp_Variant>
AV-unprocessed.smi:1790-1

> <Gold.Version>
5.8.1

> <Gold.Id.Protein>
6NUR|6NUR_protein|mol2

> <Gold.PLP.Fitness>
42.9619

> <Gold.PLP.PLP>
-38.8634

> <Gold.PLP.part.hbond>
-3.0000

> <Gold.PLP.part.metal>
0.0000

> <Gold.PLP.part.buried>
-4.9646

> <Gold.PLP.part.nonpolar>
-30.2556

> <Gold.PLP.part.repulsive>
0.2020

> <Gold.PLP.ligand.clash>
0.0000

> <Gold.PLP.ligand.torsion>
1.2712

> <Gold.PLP.Chemscore.Hbond>
2.0000

> <Gold.PLP.Chemscore.CHOScore>
0.0000

> <Gold.PLP.Chemscore.Metal>
0.0000

> <Gold.Chemscore.Hbonds>
donor molecule, donor type, donor heavy atom, donor atom, acceptor molecule, acceptor atom, score
      L1  H    18    21       P1  8028  1.00
      P1  H  6896  6907       L1     4  1.00

> <Gold.PLP.Chemscore.Internal.Correction>
0.6408

> <Gold.Rescore>
     Score         DG    S(hbond)    S(metal)    S(lipo)     H(rot)  DE(clash)    DE(int)     intcor
     12.99     -15.42       1.93        0.00      70.60       1.87       0.11       2.32       ----

> <Gold.Chemscore.Fitness>
12.9889

> <Gold.Chemscore.DG>
-15.4243

> <Gold.Chemscore.ZeroCoef>
-5.4800

> <Gold.Chemscore.Hbond>
1.9348

> <Gold.Chemscore.Metal>
0.0000

> <Gold.Chemscore.Lipo>
70.5996

> <Gold.Chemscore.Internal_Hbond>
0.0000

> <Gold.Chemscore.DEClash>
0.1144

> <Gold.Chemscore.DEInternal>
2.3210

> <Gold.Chemscore.Rot>
1.8664

> <Gold.Chemscore.Internal.Correction>
   9.000000E+99

> <Gold.Chemscore.Hbonds>
donor molecule, donor type, donor heavy atom, donor atom, acceptor molecule, acceptor atom, score
      L1  H    18    21       P1  8028  1.00
      P1  H  6896  6907       L1     4  0.50

> <Gold.Chemscore.Hbond.Weighted>
-6.4621

> <Gold.Chemscore.Metal.Weighted>
-0.0000

> <Gold.Chemscore.Lipo.Weighted>
-8.2602

> <Gold.Chemscore.Internal_Hbond.Weighted>
0.0000

> <Gold.Chemscore.DEClash.Weighted>
0.1144

> <Gold.Chemscore.DEInternal.Weighted>
2.3210

> <Gold.Chemscore.Rot.Weighted>
4.7780

> <Gold.Chemscore.Internal.Correction.Weighted>
   9.000000E+99

> <Gold.Protein.RotatedTorsions>
[ 6907 6896 6895 6894 ] final  -78.31 input  -60.11 | X-H torsion
[ 7974 7965 7964 7962 ] final  121.20 input  175.53 | X-H torsion
[ 8008 7997 7996 7995 ] final   -7.79 input   59.86 | X-H torsion
[ 10167 10162 10161 10158 ] final -100.66 input  -65.29 | X-H torsion
[ 10718 10713 10712 10709 ] final   90.44 input   66.30 | X-H torsion
[ 10763 10752 10751 10750 ] final  163.36 input  -60.55 | X-H torsion
[ 11005 11000 10999 10996 ] final  -62.76 input  -57.11 | X-H torsion

> <Gold.Protein.ActiveResidues>
 VAL166  LYS551  ARG553  GLY616  TRP617  ASP618  TYR619  PRO620  LYS621  CYS622 
 ASP623  PHE694  ASN695  SER759  ASP760  ASP761  ALA762  ILE779  LEU786  VAL792 
 PHE793  MET794  SER795  GLU796  ALA797  LYS798  CYS799  TRP800  GLU811  SER814 

> <Gold.Protein.RotatedAtoms>
  150.6976  134.4291  159.5239 H   0  0  0  0  0  0  0  0  0  0  0  0  # atno 6907 bound_to 6896
  152.2020  134.8576  160.0516 H   0  0  0  0  0  0  0  0  0  0  0  0  # atno 6908 bound_to 6896
  151.9493  133.3626  159.4031 H   0  0  0  0  0  0  0  0  0  0  0  0  # atno 6909 bound_to 6896
  145.1221  139.3382  143.4709 H   0  0  0  0  0  0  0  0  0  0  0  0  # atno 7974 bound_to 7965
  154.5803  140.2398  155.8063 H   0  0  0  0  0  0  0  0  0  0  0  0  # atno 8008 bound_to 7997
  156.2174  140.3008  155.9828 H   0  0  0  0  0  0  0  0  0  0  0  0  # atno 8009 bound_to 7997
  155.2552  140.0412  157.2982 H   0  0  0  0  0  0  0  0  0  0  0  0  # atno 8010 bound_to 7997
  140.2495  143.3482  152.0728 H   0  0  0  0  0  0  0  0  0  0  0  0  # atno 10167 bound_to 10162
  157.6959  131.0370  150.3578 H   0  0  0  0  0  0  0  0  0  0  0  0  # atno 10718 bound_to 10713
  154.2925  135.2760  155.2648 H   0  0  0  0  0  0  0  0  0  0  0  0  # atno 10763 bound_to 10752
  154.5121  135.5780  153.6616 H   0  0  0  0  0  0  0  0  0  0  0  0  # atno 10764 bound_to 10752
  152.9912  135.6183  154.3091 H   0  0  0  0  0  0  0  0  0  0  0  0  # atno 10765 bound_to 10752
  141.1371  133.6644  156.5577 H   0  0  0  0  0  0  0  0  0  0  0  0  # atno 11005 bound_to 11000
  146.3520  140.1185  142.8601 LP  0  0  0  0  0  0  0  0  0  0  0  0  # atno 17320 bound_to 7965
  145.0728  140.9167  143.4871 LP  0  0  0  0  0  0  0  0  0  0  0  0  # atno 17321 bound_to 7965
  139.5051  144.6788  151.6061 LP  0  0  0  0  0  0  0  0  0  0  0  0  # atno 17342 bound_to 10162
  140.6051  143.9538  150.6413 LP  0  0  0  0  0  0  0  0  0  0  0  0  # atno 17343 bound_to 10162
  156.4018  130.3917  149.6954 LP  0  0  0  0  0  0  0  0  0  0  0  0  # atno 17370 bound_to 10713
  156.4269  130.7796  151.2815 LP  0  0  0  0  0  0  0  0  0  0  0  0  # atno 17371 bound_to 10713
  140.4013  134.7354  157.4781 LP  0  0  0  0  0  0  0  0  0  0  0  0  # atno 17394 bound_to 11000
  140.0494  134.6152  155.8880 LP  0  0  0  0  0  0  0  0  0  0  0  0  # atno 17395 bound_to 11000

$$$$
