AV-unprocessed.smi:2386|AV-procd|sdf|9467|dock3
  -GOLD-   2272013 93D 1   1.00000     0.00000
 Structure written by MMmdl.
 43 44  0  0  0  0  0  0  0  0  2 V2000
  153.4513  141.6050  160.6968 C   0  0  0  0  0  0  0  0  0  0  0  0
  152.6198  142.7167  160.0922 C   0  0  0  0  0  0  0  0  0  0  0  0
  152.5343  143.9780  160.7134 C   0  0  0  0  0  0  0  0  0  0  0  0
  151.7462  144.9674  160.0989 C   0  0  0  0  0  0  0  0  0  0  0  0
  151.0823  144.6574  158.8965 C   0  0  0  0  0  0  0  0  0  0  0  0
  151.2211  143.3667  158.3384 C   0  0  0  0  0  0  0  0  0  0  0  0
  150.5139  143.1571  157.1248 N   0  0  0  0  0  0  0  0  0  0  0  0
  150.3152  142.0013  156.4670 C   0  0  0  0  0  0  0  0  0  0  0  0
  150.7184  140.8953  156.8282 O   0  0  0  0  0  0  0  0  0  0  0  0
  149.6027  142.1970  155.3480 N   0  0  0  0  0  0  0  0  0  0  0  0
  149.2180  141.1544  154.4014 C   0  0  0  0  0  0  0  0  0  0  0  0
  148.0450  140.2886  154.9009 C   0  0  0  0  0  0  0  0  0  0  0  0
  146.8654  140.2123  153.9128 C   0  0  0  0  0  0  0  0  0  0  0  0
  145.8932  141.3158  154.1123 N   0  3  0  0  0  0  0  0  0  0  0  0
  145.3164  141.3244  155.4781 C   0  0  0  0  0  0  0  0  0  0  0  0
  144.2812  142.4527  155.6197 C   0  0  0  0  0  0  0  0  0  0  0  0
  144.8904  143.7000  155.3119 O   0  0  0  0  0  0  0  0  0  0  0  0
  145.3700  143.7405  153.9740 C   0  0  0  0  0  0  0  0  0  0  0  0
  146.4397  142.6535  153.7734 C   0  0  0  0  0  0  0  0  0  0  0  0
  151.9817  142.4184  158.9398 N   0  0  0  0  0  0  0  0  0  0  0  0
  153.9182  141.9221  161.6296 H   0  0  0  0  0  0  0  0  0  0  0  0
  154.2401  141.3041  160.0067 H   0  0  0  0  0  0  0  0  0  0  0  0
  152.8274  140.7358  160.9068 H   0  0  0  0  0  0  0  0  0  0  0  0
  153.0574  144.1854  161.6354 H   0  0  0  0  0  0  0  0  0  0  0  0
  151.6524  145.9484  160.5412 H   0  0  0  0  0  0  0  0  0  0  0  0
  150.4741  145.4068  158.4111 H   0  0  0  0  0  0  0  0  0  0  0  0
  150.1183  143.9857  156.7064 H   0  0  0  0  0  0  0  0  0  0  0  0
  149.3176  143.1397  155.1257 H   0  0  0  0  0  0  0  0  0  0  0  0
  148.9450  141.6366  153.4624 H   0  0  0  0  0  0  0  0  0  0  0  0
  150.0814  140.5242  154.1820 H   0  0  0  0  0  0  0  0  0  0  0  0
  148.4297  139.2893  155.1018 H   0  0  0  0  0  0  0  0  0  0  0  0
  147.6907  140.6697  155.8595 H   0  0  0  0  0  0  0  0  0  0  0  0
  147.2616  140.2751  152.8986 H   0  0  0  0  0  0  0  0  0  0  0  0
  146.3584  139.2489  153.9851 H   0  0  0  0  0  0  0  0  0  0  0  0
  144.8401  140.3656  155.6861 H   0  0  0  0  0  0  0  0  0  0  0  0
  146.1136  141.4537  156.2116 H   0  0  0  0  0  0  0  0  0  0  0  0
  143.4243  142.2807  154.9664 H   0  0  0  0  0  0  0  0  0  0  0  0
  143.9011  142.4879  156.6407 H   0  0  0  0  0  0  0  0  0  0  0  0
  144.5438  143.6086  153.2736 H   0  0  0  0  0  0  0  0  0  0  0  0
  145.7955  144.7254  153.7818 H   0  0  0  0  0  0  0  0  0  0  0  0
  147.3050  142.8660  154.4033 H   0  0  0  0  0  0  0  0  0  0  0  0
  146.7847  142.6753  152.7403 H   0  0  0  0  0  0  0  0  0  0  0  0
  145.1227  141.1404  153.4830 H   0  0  0  0  0  0  0  0  0  0  0  0
  1  2  1  0  0  0  0
  1 21  1  0  0  0  0
  1 22  1  0  0  0  0
  1 23  1  0  0  0  0
  2 20  1  0  0  0  0
  2  3  2  0  0  0  0
  3  4  1  0  0  0  0
  3 24  1  0  0  0  0
  4  5  2  0  0  0  0
  4 25  1  0  0  0  0
  5  6  1  0  0  0  0
  5 26  1  0  0  0  0
  6  7  1  0  0  0  0
  6 20  2  0  0  0  0
  7  8  1  0  0  0  0
  7 27  1  0  0  0  0
  8  9  2  0  0  0  0
  8 10  1  0  0  0  0
 10 11  1  0  0  0  0
 10 28  1  0  0  0  0
 11 12  1  0  0  0  0
 11 29  1  0  0  0  0
 11 30  1  0  0  0  0
 12 13  1  0  0  0  0
 12 31  1  0  0  0  0
 12 32  1  0  0  0  0
 13 14  1  0  0  0  0
 13 33  1  0  0  0  0
 13 34  1  0  0  0  0
 14 19  1  0  0  0  0
 14 15  1  0  0  0  0
 14 43  1  0  0  0  0
 15 16  1  0  0  0  0
 15 35  1  0  0  0  0
 15 36  1  0  0  0  0
 16 17  1  0  0  0  0
 16 37  1  0  0  0  0
 16 38  1  0  0  0  0
 17 18  1  0  0  0  0
 18 19  1  0  0  0  0
 18 39  1  0  0  0  0
 18 40  1  0  0  0  0
 19 41  1  0  0  0  0
 19 42  1  0  0  0  0
M  CHG  1  14   1
M  END
> <s_m_source_file>
AV-unprocessed.smi

> <i_m_source_file_index>
2386

> <i_lp_mmshare_version>
43012

> <i_f3d_flags>
0

> <s_epik_input>
W0NIM11jMVtjSF1bY0hdW2NIXWMobjEpW05IXUMoPU8pW05IXVtDSDJdW0NIMl1bQ0gyXU4yW0NIMl1bQ0gyXU9bQ0gyXVtDSDJdMg==

> <s_epik_cmdline>
J2VwaWtfcHl0aG9uJywgJy1waCcsICc3LjAnLCAnLXRuJywgJzgnLCAnLW1hJywgJzIwMCcsICctbWV0YWxfYmluZGluZycsICctaW1hZScsICc8aW5maWxlLm1hZT4nLCAnLW9tYWUnLCAnPG91dGZpbGUubWFlPic=

> <r_epik_Ionization_Penalty>
0.270568

> <r_epik_Ionization_Penalty_Charging>
0.270496

> <r_epik_Ionization_Penalty_Neutral>
7.21828e-05

> <r_epik_State_Penalty>
0.262618

> <r_epik_Charging_Adjusted_Penalty>
0.533114

> <i_epik_Tot_Q>
1

> <i_epik_Tot_abs_Q>
1

> <r_epik_Metal_State_Penalty>
0.26262

> <b_epik_Metal_Only>
0

> <s_lp_Force_Field>
OPLS_2005

> <r_lp_Energy>
18.5564

> <b_lp_Chiralities_Consistent>
1

> <s_lp_Variant>
AV-unprocessed.smi:2386-1

> <Gold.Version>
5.8.1

> <Gold.Id.Protein>
6NUR|6NUR_protein|mol2

> <Gold.PLP.Fitness>
53.0657

> <Gold.PLP.PLP>
-42.3916

> <Gold.PLP.part.hbond>
-3.0000

> <Gold.PLP.part.metal>
0.0000

> <Gold.PLP.part.buried>
-7.1907

> <Gold.PLP.part.nonpolar>
-32.6817

> <Gold.PLP.part.repulsive>
0.4030

> <Gold.PLP.ligand.clash>
0.0000

> <Gold.PLP.ligand.torsion>
0.6795

> <Gold.PLP.Chemscore.Hbond>
4.0000

> <Gold.PLP.Chemscore.CHOScore>
0.0000

> <Gold.PLP.Chemscore.Metal>
0.0000

> <Gold.Chemscore.Hbonds>
donor molecule, donor type, donor heavy atom, donor atom, acceptor molecule, acceptor atom, score
      L1  H     7    27       P1  8028  1.00
      L1  H    10    28       P1  8028  1.00
      L1  H    14    43       P1 10175  2.00

> <Gold.PLP.Chemscore.Internal.Correction>
0.0331

> <Gold.Rescore>
     Score         DG    S(hbond)    S(metal)    S(lipo)     H(rot)  DE(clash)    DE(int)     intcor
     19.24     -21.34       2.83        0.00      93.31       1.76       0.21       1.90       ----

> <Gold.Chemscore.Fitness>
19.2385

> <Gold.Chemscore.DG>
-21.3437

> <Gold.Chemscore.ZeroCoef>
-5.4800

> <Gold.Chemscore.Hbond>
2.8295

> <Gold.Chemscore.Metal>
0.0000

> <Gold.Chemscore.Lipo>
93.3087

> <Gold.Chemscore.Internal_Hbond>
0.0000

> <Gold.Chemscore.DEClash>
0.2096

> <Gold.Chemscore.DEInternal>
1.8956

> <Gold.Chemscore.Rot>
1.7593

> <Gold.Chemscore.Internal.Correction>
   9.000000E+99

> <Gold.Chemscore.Hbonds>
donor molecule, donor type, donor heavy atom, donor atom, acceptor molecule, acceptor atom, score
      L1  H     7    27       P1  8028  0.94
      L1  H    10    28       P1  8028  0.94
      L1  H    14    43       P1 10175  0.45

> <Gold.Chemscore.Hbond.Weighted>
-9.4505

> <Gold.Chemscore.Metal.Weighted>
-0.0000

> <Gold.Chemscore.Lipo.Weighted>
-10.9171

> <Gold.Chemscore.Internal_Hbond.Weighted>
0.0000

> <Gold.Chemscore.DEClash.Weighted>
0.2096

> <Gold.Chemscore.DEInternal.Weighted>
1.8956

> <Gold.Chemscore.Rot.Weighted>
4.5039

> <Gold.Chemscore.Internal.Correction.Weighted>
   9.000000E+99

> <Gold.Protein.RotatedTorsions>
[ 6907 6896 6895 6894 ] final  -76.73 input  -60.11 | X-H torsion
[ 7974 7965 7964 7962 ] final   24.22 input  175.53 | X-H torsion
[ 8008 7997 7996 7995 ] final  179.21 input   59.86 | X-H torsion
[ 10167 10162 10161 10158 ] final  109.49 input  -65.29 | X-H torsion
[ 10718 10713 10712 10709 ] final  136.91 input   66.30 | X-H torsion
[ 10763 10752 10751 10750 ] final -144.79 input  -60.55 | X-H torsion
[ 11005 11000 10999 10996 ] final   95.37 input  -57.11 | X-H torsion

> <Gold.Protein.ActiveResidues>
 VAL166  LYS551  ARG553  GLY616  TRP617  ASP618  TYR619  PRO620  LYS621  CYS622 
 ASP623  PHE694  ASN695  SER759  ASP760  ASP761  ALA762  ILE779  LEU786  VAL792 
 PHE793  MET794  SER795  GLU796  ALA797  LYS798  CYS799  TRP800  GLU811  SER814 

> <Gold.Protein.RotatedAtoms>
  150.7019  134.4528  159.5343 H   0  0  0  0  0  0  0  0  0  0  0  0  # atno 6907 bound_to 6896
  152.2217  134.8403  160.0494 H   0  0  0  0  0  0  0  0  0  0  0  0  # atno 6908 bound_to 6896
  151.9251  133.3561  159.3948 H   0  0  0  0  0  0  0  0  0  0  0  0  # atno 6909 bound_to 6896
  146.1948  139.7635  142.8805 H   0  0  0  0  0  0  0  0  0  0  0  0  # atno 7974 bound_to 7965
  156.0460  140.1314  157.0103 H   0  0  0  0  0  0  0  0  0  0  0  0  # atno 8008 bound_to 7997
  154.4412  140.1020  156.6376 H   0  0  0  0  0  0  0  0  0  0  0  0  # atno 8009 bound_to 7997
  155.5596  140.3464  155.4490 H   0  0  0  0  0  0  0  0  0  0  0  0  # atno 8010 bound_to 7997
  139.6762  144.7122  151.1598 H   0  0  0  0  0  0  0  0  0  0  0  0  # atno 10167 bound_to 10162
  157.4417  131.1058  151.0136 H   0  0  0  0  0  0  0  0  0  0  0  0  # atno 10718 bound_to 10713
  154.8412  135.3431  154.6402 H   0  0  0  0  0  0  0  0  0  0  0  0  # atno 10763 bound_to 10752
  153.7013  135.6969  153.5067 H   0  0  0  0  0  0  0  0  0  0  0  0  # atno 10764 bound_to 10752
  153.2521  135.4350  155.0762 H   0  0  0  0  0  0  0  0  0  0  0  0  # atno 10765 bound_to 10752
  139.8790  134.8895  156.4001 H   0  0  0  0  0  0  0  0  0  0  0  0  # atno 11005 bound_to 11000
  145.3680  141.0337  143.3247 LP  0  0  0  0  0  0  0  0  0  0  0  0  # atno 17320 bound_to 7965
  144.8557  139.5253  143.6835 LP  0  0  0  0  0  0  0  0  0  0  0  0  # atno 17321 bound_to 7965
  140.7636  143.5768  150.8937 LP  0  0  0  0  0  0  0  0  0  0  0  0  # atno 17342 bound_to 10162
  139.9437  143.6352  152.3047 LP  0  0  0  0  0  0  0  0  0  0  0  0  # atno 17343 bound_to 10162
  157.0996  130.5976  149.5457 LP  0  0  0  0  0  0  0  0  0  0  0  0  # atno 17370 bound_to 10713
  155.9951  130.5017  150.7447 LP  0  0  0  0  0  0  0  0  0  0  0  0  # atno 17371 bound_to 10713
  140.9272  133.7604  155.9980 LP  0  0  0  0  0  0  0  0  0  0  0  0  # atno 17394 bound_to 11000
  140.8372  134.3109  157.5327 LP  0  0  0  0  0  0  0  0  0  0  0  0  # atno 17395 bound_to 11000

$$$$
