AV-unprocessed.smi:1244|AV-procd|sdf|5230|dock10
  -GOLD-   22720 4333D 1   1.00000     0.00000
 Structure written by MMmdl.
 55 57  0  0  0  0  0  0  0  0  2 V2000
  143.5166  132.1922  150.7135 C   0  0  0  0  0  0  0  0  0  0  0  0
  144.9983  132.5487  150.5015 C   0  0  1  0  0  0  0  0  0  0  0  0
  145.3255  134.0117  150.8608 C   0  0  0  0  0  0  0  0  0  0  0  0
  145.3173  134.2405  152.2997 N   0  0  0  0  0  0  0  0  0  0  0  0
  145.5774  135.6434  152.6274 C   0  0  0  0  0  0  0  0  0  0  0  0
  144.3205  136.5363  152.7082 C   0  0  0  0  0  0  0  0  0  0  0  0
  144.6647  137.9155  153.0364 N   0  0  0  0  0  0  0  0  0  0  0  0
  145.6822  138.2871  153.8236 C   0  0  0  0  0  0  0  0  0  0  0  0
  146.3321  137.5120  154.5254 O   0  0  0  0  0  0  0  0  0  0  0  0
  145.9281  139.5997  153.7049 N   0  0  0  0  0  0  0  0  0  0  0  0
  147.0855  140.2657  154.1782 C   0  0  0  0  0  0  0  0  0  0  0  0
  148.3518  139.6462  154.0451 C   0  0  0  0  0  0  0  0  0  0  0  0
  149.5049  140.3072  154.5074 C   0  0  0  0  0  0  0  0  0  0  0  0
  149.3683  141.5765  155.0957 C   0  0  0  0  0  0  0  0  0  0  0  0
  148.1445  142.1339  155.2119 N   0  3  0  0  0  0  0  0  0  0  0  0
  146.9943  141.5468  154.7958 C   0  0  0  0  0  0  0  0  0  0  0  0
  145.7821  142.2575  154.9681 N   0  0  0  0  0  0  0  0  0  0  0  0
  145.3563  142.6379  156.3104 C   0  0  0  0  0  0  0  0  0  0  0  0
  144.3221  143.7470  156.1209 C   0  0  0  0  0  0  0  0  0  0  0  0
  144.7740  144.4244  154.8334 C   0  0  0  0  0  0  0  0  0  0  0  0
  145.3507  143.2733  154.0070 C   0  0  0  0  0  0  0  0  0  0  0  0
  146.2555  133.3234  152.9359 C   0  0  0  0  0  0  0  0  0  0  0  0
  145.9070  131.8556  152.6282 C   0  0  2  0  0  0  0  0  0  0  0  0
  146.9378  130.8829  153.2108 C   0  0  0  0  0  0  0  0  0  0  0  0
  145.8622  131.6613  151.2150 O   0  0  0  0  0  0  0  0  0  0  0  0
  142.8755  132.7997  150.0745 H   0  0  0  0  0  0  0  0  0  0  0  0
  143.2007  132.3612  151.7424 H   0  0  0  0  0  0  0  0  0  0  0  0
  143.3284  131.1458  150.4730 H   0  0  0  0  0  0  0  0  0  0  0  0
  145.2147  132.4046  149.4426 H   0  0  0  0  0  0  0  0  0  0  0  0
  146.3070  134.2680  150.4582 H   0  0  0  0  0  0  0  0  0  0  0  0
  144.6101  134.6744  150.3719 H   0  0  0  0  0  0  0  0  0  0  0  0
  146.1384  135.7125  153.5604 H   0  0  0  0  0  0  0  0  0  0  0  0
  146.2285  136.0642  151.8596 H   0  0  0  0  0  0  0  0  0  0  0  0
  143.7965  136.5368  151.7525 H   0  0  0  0  0  0  0  0  0  0  0  0
  143.6178  136.1373  153.4412 H   0  0  0  0  0  0  0  0  0  0  0  0
  144.1805  138.6329  152.5169 H   0  0  0  0  0  0  0  0  0  0  0  0
  145.3761  140.0968  153.0217 H   0  0  0  0  0  0  0  0  0  0  0  0
  148.4436  138.6703  153.5906 H   0  0  0  0  0  0  0  0  0  0  0  0
  150.4778  139.8482  154.4090 H   0  0  0  0  0  0  0  0  0  0  0  0
  150.1946  142.1601  155.4748 H   0  0  0  0  0  0  0  0  0  0  0  0
  144.9110  141.8059  156.8546 H   0  0  0  0  0  0  0  0  0  0  0  0
  146.2155  143.0023  156.8756 H   0  0  0  0  0  0  0  0  0  0  0  0
  143.3319  143.3116  155.9796 H   0  0  0  0  0  0  0  0  0  0  0  0
  144.2717  144.4301  156.9694 H   0  0  0  0  0  0  0  0  0  0  0  0
  143.9677  144.9508  154.3219 H   0  0  0  0  0  0  0  0  0  0  0  0
  145.5597  145.1473  155.0571 H   0  0  0  0  0  0  0  0  0  0  0  0
  146.1346  143.6405  153.3458 H   0  0  0  0  0  0  0  0  0  0  0  0
  144.5749  142.8352  153.3788 H   0  0  0  0  0  0  0  0  0  0  0  0
  147.2705  133.5411  152.5991 H   0  0  0  0  0  0  0  0  0  0  0  0
  146.2476  133.4657  154.0163 H   0  0  0  0  0  0  0  0  0  0  0  0
  144.9323  131.6177  153.0557 H   0  0  0  0  0  0  0  0  0  0  0  0
  147.0019  130.9812  154.2948 H   0  0  0  0  0  0  0  0  0  0  0  0
  147.9305  131.0663  152.7981 H   0  0  0  0  0  0  0  0  0  0  0  0
  146.6691  129.8504  152.9862 H   0  0  0  0  0  0  0  0  0  0  0  0
  148.0812  143.0564  155.6429 H   0  0  0  0  0  0  0  0  0  0  0  0
  1  2  1  0  0  0  0
  1 26  1  0  0  0  0
  1 27  1  0  0  0  0
  1 28  1  0  0  0  0
  2 25  1  0  0  0  0
  2  3  1  0  0  0  0
  2 29  1  0  0  0  0
  3  4  1  0  0  0  0
  3 30  1  0  0  0  0
  3 31  1  0  0  0  0
  4  5  1  0  0  0  0
  4 22  1  0  0  0  0
  5  6  1  0  0  0  0
  5 32  1  0  0  0  0
  5 33  1  0  0  0  0
  6  7  1  0  0  0  0
  6 34  1  0  0  0  0
  6 35  1  0  0  0  0
  7  8  1  0  0  0  0
  7 36  1  0  0  0  0
  8  9  2  0  0  0  0
  8 10  1  0  0  0  0
 10 11  1  0  0  0  0
 10 37  1  0  0  0  0
 11 16  1  0  0  0  0
 11 12  2  0  0  0  0
 12 13  1  0  0  0  0
 12 38  1  0  0  0  0
 13 14  2  0  0  0  0
 13 39  1  0  0  0  0
 14 15  1  0  0  0  0
 14 40  1  0  0  0  0
 15 16  2  0  0  0  0
 15 55  1  0  0  0  0
 16 17  1  0  0  0  0
 17 21  1  0  0  0  0
 17 18  1  0  0  0  0
 18 19  1  0  0  0  0
 18 41  1  0  0  0  0
 18 42  1  0  0  0  0
 19 20  1  0  0  0  0
 19 43  1  0  0  0  0
 19 44  1  0  0  0  0
 20 21  1  0  0  0  0
 20 45  1  0  0  0  0
 20 46  1  0  0  0  0
 21 47  1  0  0  0  0
 21 48  1  0  0  0  0
 22 23  1  0  0  0  0
 22 49  1  0  0  0  0
 22 50  1  0  0  0  0
 23 24  1  0  0  0  0
 23 25  1  0  0  0  0
 23 51  1  0  0  0  0
 24 52  1  0  0  0  0
 24 53  1  0  0  0  0
 24 54  1  0  0  0  0
M  CHG  1  15   1
M  END
> <s_m_source_file>
AV-unprocessed.smi

> <i_m_source_file_index>
1244

> <i_lp_mmshare_version>
43012

> <i_f3d_flags>
0

> <s_epik_input>
W0NIM11bQ0BASF0xW0NIMl1OKFtDSDJdW0NASF0oTzEpW0NIM10pW0NIMl1bQ0gyXVtOSF1DKD1PKVtOSF1jMltjSF1bY0hdW2NIXW5jMk4zW0NIMl1bQ0gyXVtDSDJdW0NIMl0z

> <s_epik_cmdline>
J2VwaWtfcHl0aG9uJywgJy1waCcsICc3LjAnLCAnLXRuJywgJzgnLCAnLW1hJywgJzIwMCcsICctbWV0YWxfYmluZGluZycsICctaW1hZScsICc8aW5maWxlLm1hZT4nLCAnLW9tYWUnLCAnPG91dGZpbGUubWFlPic=

> <r_epik_Ionization_Penalty>
1.38385

> <r_epik_Ionization_Penalty_Charging>
1.11784

> <r_epik_Ionization_Penalty_Neutral>
0.26601

> <r_epik_State_Penalty>
1.46794

> <r_epik_Charging_Adjusted_Penalty>
2.58578

> <i_epik_Tot_Q>
1

> <i_epik_Tot_abs_Q>
1

> <r_epik_Metal_State_Penalty>
1.54908

> <b_epik_Metal_Only>
0

> <s_lp_Force_Field>
OPLS_2005

> <r_lp_Energy>
60.8331

> <b_lp_Chiralities_Consistent>
1

> <s_lp_Variant>
AV-unprocessed.smi:1244-10

> <Gold.Version>
5.8.1

> <Gold.Id.Protein>
6NUR|6NUR_protein|mol2

> <Gold.PLP.Fitness>
46.9226

> <Gold.PLP.PLP>
-39.5362

> <Gold.PLP.part.hbond>
-3.0101

> <Gold.PLP.part.metal>
0.0000

> <Gold.PLP.part.buried>
-4.8159

> <Gold.PLP.part.nonpolar>
-32.0418

> <Gold.PLP.part.repulsive>
0.4208

> <Gold.PLP.ligand.clash>
0.0000

> <Gold.PLP.ligand.torsion>
2.1904

> <Gold.PLP.Chemscore.Hbond>
3.5840

> <Gold.PLP.Chemscore.CHOScore>
0.0000

> <Gold.PLP.Chemscore.Metal>
0.0000

> <Gold.Chemscore.Hbonds>
donor molecule, donor type, donor heavy atom, donor atom, acceptor molecule, acceptor atom, score
      L1  H     7    36       P1 10175  0.94
      L1  H    10    37       P1 10175  0.90
      L1  H    15    55       P1  8028  1.73

> <Gold.PLP.Chemscore.Internal.Correction>
1.0151

> <Gold.Rescore>
     Score         DG    S(hbond)    S(metal)    S(lipo)     H(rot)  DE(clash)    DE(int)     intcor
     17.23     -21.79       2.75        0.00      91.71       1.40       0.18       4.38       ----

> <Gold.Chemscore.Fitness>
17.2294

> <Gold.Chemscore.DG>
-21.7922

> <Gold.Chemscore.ZeroCoef>
-5.4800

> <Gold.Chemscore.Hbond>
2.7462

> <Gold.Chemscore.Metal>
0.0000

> <Gold.Chemscore.Lipo>
91.7085

> <Gold.Chemscore.Internal_Hbond>
0.0000

> <Gold.Chemscore.DEClash>
0.1780

> <Gold.Chemscore.DEInternal>
4.3848

> <Gold.Chemscore.Rot>
1.4023

> <Gold.Chemscore.Internal.Correction>
   9.000000E+99

> <Gold.Chemscore.Hbonds>
donor molecule, donor type, donor heavy atom, donor atom, acceptor molecule, acceptor atom, score
      L1  H     7    36       P1 10175  0.91
      L1  H    10    37       P1 10175  0.88
      L1  H    15    55       P1  8028  0.70

> <Gold.Chemscore.Hbond.Weighted>
-9.1722

> <Gold.Chemscore.Metal.Weighted>
-0.0000

> <Gold.Chemscore.Lipo.Weighted>
-10.7299

> <Gold.Chemscore.Internal_Hbond.Weighted>
0.0000

> <Gold.Chemscore.DEClash.Weighted>
0.1780

> <Gold.Chemscore.DEInternal.Weighted>
4.3848

> <Gold.Chemscore.Rot.Weighted>
3.5899

> <Gold.Chemscore.Internal.Correction.Weighted>
   9.000000E+99

> <Gold.Protein.RotatedTorsions>
[ 6907 6896 6895 6894 ] final  124.35 input  -60.11 | X-H torsion
[ 7974 7965 7964 7962 ] final  -59.70 input  175.53 | X-H torsion
[ 8008 7997 7996 7995 ] final  102.00 input   59.86 | X-H torsion
[ 10167 10162 10161 10158 ] final  -21.38 input  -65.29 | X-H torsion
[ 10718 10713 10712 10709 ] final  155.95 input   66.30 | X-H torsion
[ 10763 10752 10751 10750 ] final  163.95 input  -60.55 | X-H torsion
[ 11005 11000 10999 10996 ] final -147.38 input  -57.11 | X-H torsion

> <Gold.Protein.ActiveResidues>
 VAL166  LYS551  ARG553  GLY616  TRP617  ASP618  TYR619  PRO620  LYS621  CYS622 
 ASP623  PHE694  ASN695  SER759  ASP760  ASP761  ALA762  ILE779  LEU786  VAL792 
 PHE793  MET794  SER795  GLU796  ALA797  LYS798  CYS799  TRP800  GLU811  SER814 

> <Gold.Protein.RotatedAtoms>
  152.4086  133.6927  159.6377 H   0  0  0  0  0  0  0  0  0  0  0  0  # atno 6907 bound_to 6896
  150.7968  133.8665  159.3255 H   0  0  0  0  0  0  0  0  0  0  0  0  # atno 6908 bound_to 6896
  151.6413  135.1014  160.0193 H   0  0  0  0  0  0  0  0  0  0  0  0  # atno 6909 bound_to 6896
  145.8244  140.8520  143.0116 H   0  0  0  0  0  0  0  0  0  0  0  0  # atno 7974 bound_to 7965
  156.1352  140.3188  155.8409 H   0  0  0  0  0  0  0  0  0  0  0  0  # atno 8008 bound_to 7997
  155.4258  140.0515  157.3039 H   0  0  0  0  0  0  0  0  0  0  0  0  # atno 8009 bound_to 7997
  154.4931  140.2100  155.9518 H   0  0  0  0  0  0  0  0  0  0  0  0  # atno 8010 bound_to 7997
  140.7281  143.4633  151.0349 H   0  0  0  0  0  0  0  0  0  0  0  0  # atno 10167 bound_to 10162
  157.2115  131.0698  151.1966 H   0  0  0  0  0  0  0  0  0  0  0  0  # atno 10718 bound_to 10713
  154.3016  135.2759  155.2608 H   0  0  0  0  0  0  0  0  0  0  0  0  # atno 10763 bound_to 10752
  154.5043  135.5800  153.6558 H   0  0  0  0  0  0  0  0  0  0  0  0  # atno 10764 bound_to 10752
  152.9900  135.6165  154.3187 H   0  0  0  0  0  0  0  0  0  0  0  0  # atno 10765 bound_to 10752
  140.7723  134.3175  157.5071 H   0  0  0  0  0  0  0  0  0  0  0  0  # atno 11005 bound_to 11000
  144.6745  140.0580  143.7477 LP  0  0  0  0  0  0  0  0  0  0  0  0  # atno 17320 bound_to 7965
  145.9640  139.2821  143.1138 LP  0  0  0  0  0  0  0  0  0  0  0  0  # atno 17321 bound_to 7965
  139.8319  143.7679  152.3180 LP  0  0  0  0  0  0  0  0  0  0  0  0  # atno 17342 bound_to 10162
  139.7798  144.7448  151.0105 LP  0  0  0  0  0  0  0  0  0  0  0  0  # atno 17343 bound_to 10162
  157.3667  130.7160  149.6538 LP  0  0  0  0  0  0  0  0  0  0  0  0  # atno 17370 bound_to 10713
  155.9690  130.4210  150.4450 LP  0  0  0  0  0  0  0  0  0  0  0  0  # atno 17371 bound_to 10713
  139.8754  134.9268  156.3409 LP  0  0  0  0  0  0  0  0  0  0  0  0  # atno 17394 bound_to 11000
  140.9562  133.7418  156.0339 LP  0  0  0  0  0  0  0  0  0  0  0  0  # atno 17395 bound_to 11000

$$$$
