AV-unprocessed.smi:1576|AV-procd|sdf|6343|dock4
  -GOLD-   22720 6563D 1   1.00000     0.00000
 Structure written by MMmdl.
 45 47  0  0  0  0  0  0  0  0  1 V2000
  146.4201  139.4633  153.6341 O   0  0  0  0  0  0  0  0  0  0  0  0
  147.2821  138.7316  153.1485 C   0  0  0  0  0  0  0  0  0  0  0  0
  148.5813  138.7241  153.4916 N   0  0  0  0  0  0  0  0  0  0  0  0
  149.2632  139.5802  154.3981 C   0  0  0  0  0  0  0  0  0  0  0  0
  150.5887  139.2552  154.7450 C   0  0  0  0  0  0  0  0  0  0  0  0
  151.2980  140.0976  155.6215 C   0  0  0  0  0  0  0  0  0  0  0  0
  150.6647  141.2568  156.1271 C   0  0  0  0  0  0  0  0  0  0  0  0
  151.3585  142.1166  157.0058 N   0  0  0  0  0  0  0  0  0  0  0  0
  151.0269  143.5434  156.9639 C   0  0  0  0  0  0  0  0  0  0  0  0
  152.1014  144.3850  157.6732 C   0  0  0  0  0  0  0  0  0  0  0  0
  152.3449  143.8778  159.1020 C   0  0  0  0  0  0  0  0  0  0  0  0
  152.6936  142.3820  159.0761 C   0  0  0  0  0  0  0  0  0  0  0  0
  151.6104  141.5731  158.3420 C   0  0  0  0  0  0  0  0  0  0  0  0
  149.3946  141.5788  155.7801 N   0  0  0  0  0  0  0  0  0  0  0  0
  148.7163  140.7667  154.9420 C   0  0  0  0  0  0  0  0  0  0  0  0
  147.0244  137.8098  152.2099 N   0  0  0  0  0  0  0  0  0  0  0  0
  145.7129  137.5513  151.6189 C   0  0  2  0  0  0  0  0  0  0  0  0
  144.6540  137.3213  152.7183 C   0  0  0  0  0  0  0  0  0  0  0  0
  144.7878  135.8904  153.2552 C   0  0  0  0  0  0  0  0  0  0  0  0
  145.3828  134.8771  151.8488 S   0  0  0  0  0  0  0  0  0  0  0  0
  146.6312  134.2054  152.2404 O   0  0  0  0  0  0  0  0  0  0  0  0
  144.2604  134.1167  151.2784 O   0  0  0  0  0  0  0  0  0  0  0  0
  145.7703  136.2891  150.7446 C   0  0  0  0  0  0  0  0  0  0  0  0
  149.1464  137.9993  153.0740 H   0  0  0  0  0  0  0  0  0  0  0  0
  151.0614  138.3702  154.3445 H   0  0  0  0  0  0  0  0  0  0  0  0
  152.3181  139.8570  155.8819 H   0  0  0  0  0  0  0  0  0  0  0  0
  150.9383  143.8789  155.9296 H   0  0  0  0  0  0  0  0  0  0  0  0
  150.0573  143.6995  157.4386 H   0  0  0  0  0  0  0  0  0  0  0  0
  153.0325  144.3399  157.1064 H   0  0  0  0  0  0  0  0  0  0  0  0
  151.8010  145.4330  157.6922 H   0  0  0  0  0  0  0  0  0  0  0  0
  153.1486  144.4452  159.5724 H   0  0  0  0  0  0  0  0  0  0  0  0
  151.4515  144.0379  159.7069 H   0  0  0  0  0  0  0  0  0  0  0  0
  153.6540  142.2393  158.5789 H   0  0  0  0  0  0  0  0  0  0  0  0
  152.8124  142.0078  160.0932 H   0  0  0  0  0  0  0  0  0  0  0  0
  150.6789  141.6018  158.9088 H   0  0  0  0  0  0  0  0  0  0  0  0
  151.9169  140.5288  158.3007 H   0  0  0  0  0  0  0  0  0  0  0  0
  147.7222  141.1053  154.6960 H   0  0  0  0  0  0  0  0  0  0  0  0
  147.7919  137.2450  151.8762 H   0  0  0  0  0  0  0  0  0  0  0  0
  145.4344  138.4058  150.9993 H   0  0  0  0  0  0  0  0  0  0  0  0
  144.7131  138.0598  153.5186 H   0  0  0  0  0  0  0  0  0  0  0  0
  143.6656  137.4301  152.2701 H   0  0  0  0  0  0  0  0  0  0  0  0
  145.5375  135.8432  154.0452 H   0  0  0  0  0  0  0  0  0  0  0  0
  143.8499  135.4898  153.6403 H   0  0  0  0  0  0  0  0  0  0  0  0
  144.9985  136.3266  149.9753 H   0  0  0  0  0  0  0  0  0  0  0  0
  146.7317  136.1358  150.2536 H   0  0  0  0  0  0  0  0  0  0  0  0
  1  2  2  0  0  0  0
  2  3  1  0  0  0  0
  2 16  1  0  0  0  0
  3  4  1  0  0  0  0
  3 24  1  0  0  0  0
  4 15  1  0  0  0  0
  4  5  2  0  0  0  0
  5  6  1  0  0  0  0
  5 25  1  0  0  0  0
  6  7  2  0  0  0  0
  6 26  1  0  0  0  0
  7  8  1  0  0  0  0
  7 14  1  0  0  0  0
  8 13  1  0  0  0  0
  8  9  1  0  0  0  0
  9 10  1  0  0  0  0
  9 27  1  0  0  0  0
  9 28  1  0  0  0  0
 10 11  1  0  0  0  0
 10 29  1  0  0  0  0
 10 30  1  0  0  0  0
 11 12  1  0  0  0  0
 11 31  1  0  0  0  0
 11 32  1  0  0  0  0
 12 13  1  0  0  0  0
 12 33  1  0  0  0  0
 12 34  1  0  0  0  0
 13 35  1  0  0  0  0
 13 36  1  0  0  0  0
 14 15  2  0  0  0  0
 15 37  1  0  0  0  0
 16 17  1  0  0  0  0
 16 38  1  0  0  0  0
 17 23  1  0  0  0  0
 17 18  1  0  0  0  0
 17 39  1  0  0  0  0
 18 19  1  0  0  0  0
 18 40  1  0  0  0  0
 18 41  1  0  0  0  0
 19 20  1  0  0  0  0
 19 42  1  0  0  0  0
 19 43  1  0  0  0  0
 20 21  2  0  0  0  0
 20 22  2  0  0  0  0
 20 23  1  0  0  0  0
 23 44  1  0  0  0  0
 23 45  1  0  0  0  0
M  END
> <s_m_source_file>
AV-unprocessed.smi

> <i_m_source_file_index>
1576

> <i_lp_mmshare_version>
43012

> <i_f3d_flags>
0

> <s_epik_input>
Tz1TMSg9TylbQ0gyXVtDSDJdW0NASF0oW0NIMl0xKVtOSF1DKD1PKVtOSF1jMltjSF1bY0hdYyhuW2NIXTIpTjNbQ0gyXVtDSDJdW0NIMl1bQ0gyXVtDSDJdMw==

> <s_epik_cmdline>
J2VwaWtfcHl0aG9uJywgJy1waCcsICc3LjAnLCAnLXRuJywgJzgnLCAnLW1hJywgJzIwMCcsICctbWV0YWxfYmluZGluZycsICctaW1hZScsICc8aW5maWxlLm1hZT4nLCAnLW9tYWUnLCAnPG91dGZpbGUubWFlPic=

> <r_lp_tautomer_probability>
1

> <r_epik_Ionization_Penalty>
0.0900267

> <r_epik_Ionization_Penalty_Charging>
0

> <r_epik_Ionization_Penalty_Neutral>
0.0900267

> <r_epik_State_Penalty>
0.0748882

> <r_epik_Charging_Adjusted_Penalty>
0.0748882

> <i_epik_Tot_Q>
0

> <i_epik_Tot_abs_Q>
0

> <r_epik_Metal_State_Penalty>
0.0662821

> <b_epik_Metal_Only>
0

> <s_lp_Force_Field>
OPLS_2005

> <r_lp_Energy>
21.2293

> <b_lp_Chiralities_Consistent>
1

> <s_lp_Variant>
AV-unprocessed.smi:1576-1

> <Gold.Version>
5.8.1

> <Gold.Id.Protein>
6NUR|6NUR_protein|mol2

> <Gold.PLP.Fitness>
43.4761

> <Gold.PLP.PLP>
-39.2785

> <Gold.PLP.part.hbond>
-2.8906

> <Gold.PLP.part.metal>
0.0000

> <Gold.PLP.part.buried>
2.2747

> <Gold.PLP.part.nonpolar>
-40.4547

> <Gold.PLP.part.repulsive>
1.5298

> <Gold.PLP.ligand.clash>
0.0000

> <Gold.PLP.ligand.torsion>
0.5509

> <Gold.PLP.Chemscore.Hbond>
1.6267

> <Gold.PLP.Chemscore.CHOScore>
0.0000

> <Gold.PLP.Chemscore.Metal>
0.0000

> <Gold.Chemscore.Hbonds>
donor molecule, donor type, donor heavy atom, donor atom, acceptor molecule, acceptor atom, score
      L1  H     3    24       P1  7948  0.64
      L1  H    16    38       P1  7948  0.96

> <Gold.PLP.Chemscore.Internal.Correction>
0.4193

> <Gold.Rescore>
     Score         DG    S(hbond)    S(metal)    S(lipo)     H(rot)  DE(clash)    DE(int)     intcor
     14.77     -19.62       1.52        0.00     104.43       1.24       1.89       2.96       ----

> <Gold.Chemscore.Fitness>
14.7652

> <Gold.Chemscore.DG>
-19.6155

> <Gold.Chemscore.ZeroCoef>
-5.4800

> <Gold.Chemscore.Hbond>
1.5219

> <Gold.Chemscore.Metal>
0.0000

> <Gold.Chemscore.Lipo>
104.4275

> <Gold.Chemscore.Internal_Hbond>
0.0000

> <Gold.Chemscore.DEClash>
1.8869

> <Gold.Chemscore.DEInternal>
2.9633

> <Gold.Chemscore.Rot>
1.2366

> <Gold.Chemscore.Internal.Correction>
   9.000000E+99

> <Gold.Chemscore.Hbonds>
donor molecule, donor type, donor heavy atom, donor atom, acceptor molecule, acceptor atom, score
      L1  H     3    24       P1  7948  0.63
      L1  H    16    38       P1  7948  0.91

> <Gold.Chemscore.Hbond.Weighted>
-5.0832

> <Gold.Chemscore.Metal.Weighted>
-0.0000

> <Gold.Chemscore.Lipo.Weighted>
-12.2180

> <Gold.Chemscore.Internal_Hbond.Weighted>
0.0000

> <Gold.Chemscore.DEClash.Weighted>
1.8869

> <Gold.Chemscore.DEInternal.Weighted>
2.9633

> <Gold.Chemscore.Rot.Weighted>
3.1657

> <Gold.Chemscore.Internal.Correction.Weighted>
   9.000000E+99

> <Gold.Protein.RotatedTorsions>
[ 6907 6896 6895 6894 ] final   84.27 input  -60.11 | X-H torsion
[ 7974 7965 7964 7962 ] final  -97.67 input  175.53 | X-H torsion
[ 8008 7997 7996 7995 ] final  128.67 input   59.86 | X-H torsion
[ 10167 10162 10161 10158 ] final  -99.94 input  -65.29 | X-H torsion
[ 10718 10713 10712 10709 ] final  168.79 input   66.30 | X-H torsion
[ 10763 10752 10751 10750 ] final  101.32 input  -60.55 | X-H torsion
[ 11005 11000 10999 10996 ] final -122.93 input  -57.11 | X-H torsion

> <Gold.Protein.ActiveResidues>
 VAL166  LYS551  ARG553  GLY616  TRP617  ASP618  TYR619  PRO620  LYS621  CYS622 
 ASP623  PHE694  ASN695  SER759  ASP760  ASP761  ALA762  ILE779  LEU786  VAL792 
 PHE793  MET794  SER795  GLU796  ALA797  LYS798  CYS799  TRP800  GLU811  SER814 

> <Gold.Protein.RotatedAtoms>
  152.5348  134.2767  159.8991 H   0  0  0  0  0  0  0  0  0  0  0  0  # atno 6907 bound_to 6896
  151.2722  133.4243  159.2629 H   0  0  0  0  0  0  0  0  0  0  0  0  # atno 6908 bound_to 6896
  151.0357  134.9586  159.8191 H   0  0  0  0  0  0  0  0  0  0  0  0  # atno 6909 bound_to 6896
  145.3306  140.9441  143.2664 H   0  0  0  0  0  0  0  0  0  0  0  0  # atno 7974 bound_to 7965
  156.2920  140.2639  156.2474 H   0  0  0  0  0  0  0  0  0  0  0  0  # atno 8008 bound_to 7997
  154.9917  140.0388  157.2340 H   0  0  0  0  0  0  0  0  0  0  0  0  # atno 8009 bound_to 7997
  154.7680  140.2773  155.6165 H   0  0  0  0  0  0  0  0  0  0  0  0  # atno 8010 bound_to 7997
  140.2571  143.3432  152.0660 H   0  0  0  0  0  0  0  0  0  0  0  0  # atno 10167 bound_to 10162
  157.0320  131.0262  151.2741 H   0  0  0  0  0  0  0  0  0  0  0  0  # atno 10718 bound_to 10713
  153.3252  135.4048  155.1450 H   0  0  0  0  0  0  0  0  0  0  0  0  # atno 10763 bound_to 10752
  154.8610  135.3597  154.5543 H   0  0  0  0  0  0  0  0  0  0  0  0  # atno 10764 bound_to 10752
  153.5979  135.7072  153.5455 H   0  0  0  0  0  0  0  0  0  0  0  0  # atno 10765 bound_to 10752
  140.9958  134.0474  157.3599 H   0  0  0  0  0  0  0  0  0  0  0  0  # atno 11005 bound_to 11000
  144.8867  139.4830  143.6697 LP  0  0  0  0  0  0  0  0  0  0  0  0  # atno 17320 bound_to 7965
  146.3047  139.7540  142.9065 LP  0  0  0  0  0  0  0  0  0  0  0  0  # atno 17321 bound_to 7965
  139.5028  144.6742  151.6168 LP  0  0  0  0  0  0  0  0  0  0  0  0  # atno 17342 bound_to 10162
  140.5995  143.9636  150.6376 LP  0  0  0  0  0  0  0  0  0  0  0  0  # atno 17343 bound_to 10162
  157.5170  130.7974  149.7767 LP  0  0  0  0  0  0  0  0  0  0  0  0  # atno 17370 bound_to 10713
  156.0066  130.3852  150.2408 LP  0  0  0  0  0  0  0  0  0  0  0  0  # atno 17371 bound_to 10713
  139.9014  135.0165  156.7285 LP  0  0  0  0  0  0  0  0  0  0  0  0  # atno 17394 bound_to 11000
  140.6969  133.9341  155.8000 LP  0  0  0  0  0  0  0  0  0  0  0  0  # atno 17395 bound_to 11000

$$$$
