AV-unprocessed.smi:2033|AV-procd|sdf|8259|dock9
  -GOLD-   2272010533D 1   1.00000     0.00000
 Structure written by MMmdl.
 33 34  0  0  0  0  0  0  0  0  1 V2000
  151.5057  131.0713  156.5367 C   0  0  0  0  0  0  0  0  0  0  0  0
  151.1034  132.4764  156.2441 C   0  0  0  0  0  0  0  0  0  0  0  0
  151.3624  133.4931  157.0756 N   0  0  0  0  0  0  0  0  0  0  0  0
  150.8898  134.7040  156.5890 N   0  0  0  0  0  0  0  0  0  0  0  0
  150.2861  134.5641  155.4008 C   0  0  0  0  0  0  0  0  0  0  0  0
  149.7118  135.6417  154.6758 N   0  0  0  0  0  0  0  0  0  0  0  0
  149.3111  136.8384  155.1401 C   0  0  0  0  0  0  0  0  0  0  0  0
  149.3795  137.2064  156.3131 O   0  0  0  0  0  0  0  0  0  0  0  0
  148.8175  137.6004  154.1531 N   0  0  0  0  0  0  0  0  0  0  0  0
  148.3215  138.9692  154.2987 C   0  0  2  0  0  0  0  0  0  0  0  0
  147.3130  139.3104  153.1719 C   0  0  0  0  0  0  0  0  0  0  0  0
  147.1396  140.8095  152.8494 C   0  0  0  0  0  0  0  0  0  0  0  0
  146.8150  141.7154  154.0546 C   0  0  0  0  0  0  0  0  0  0  0  0
  147.8041  141.6740  155.2446 C   0  0  0  0  0  0  0  0  0  0  0  0
  149.1504  141.2185  154.8985 N   0  0  0  0  0  0  0  0  0  0  0  0
  149.4689  139.9809  154.4816 C   0  0  0  0  0  0  0  0  0  0  0  0
  150.6316  139.6667  154.2304 O   0  0  0  0  0  0  0  0  0  0  0  0
  150.2441  132.9242  154.7756 S   0  0  0  0  0  0  0  0  0  0  0  0
  152.2175  131.0389  157.3622 H   0  0  0  0  0  0  0  0  0  0  0  0
  151.9717  130.6255  155.6579 H   0  0  0  0  0  0  0  0  0  0  0  0
  150.6292  130.4824  156.8067 H   0  0  0  0  0  0  0  0  0  0  0  0
  149.5946  135.4832  153.6858 H   0  0  0  0  0  0  0  0  0  0  0  0
  148.8035  137.2190  153.2184 H   0  0  0  0  0  0  0  0  0  0  0  0
  147.7741  138.9886  155.2419 H   0  0  0  0  0  0  0  0  0  0  0  0
  147.6177  138.8109  152.2511 H   0  0  0  0  0  0  0  0  0  0  0  0
  146.3422  138.8849  153.4286 H   0  0  0  0  0  0  0  0  0  0  0  0
  148.0378  141.1800  152.3533 H   0  0  0  0  0  0  0  0  0  0  0  0
  146.3459  140.9160  152.1094 H   0  0  0  0  0  0  0  0  0  0  0  0
  146.7639  142.7409  153.6877 H   0  0  0  0  0  0  0  0  0  0  0  0
  145.8132  141.4890  154.4210 H   0  0  0  0  0  0  0  0  0  0  0  0
  147.8811  142.6673  155.6873 H   0  0  0  0  0  0  0  0  0  0  0  0
  147.4082  141.0388  156.0376 H   0  0  0  0  0  0  0  0  0  0  0  0
  149.8993  141.8878  155.0033 H   0  0  0  0  0  0  0  0  0  0  0  0
  1  2  1  0  0  0  0
  1 19  1  0  0  0  0
  1 20  1  0  0  0  0
  1 21  1  0  0  0  0
  2 18  1  0  0  0  0
  2  3  2  0  0  0  0
  3  4  1  0  0  0  0
  4  5  2  0  0  0  0
  5  6  1  0  0  0  0
  5 18  1  0  0  0  0
  6  7  1  0  0  0  0
  6 22  1  0  0  0  0
  7  8  2  0  0  0  0
  7  9  1  0  0  0  0
  9 10  1  0  0  0  0
  9 23  1  0  0  0  0
 10 16  1  0  0  0  0
 10 11  1  0  0  0  0
 10 24  1  0  0  0  0
 11 12  1  0  0  0  0
 11 25  1  0  0  0  0
 11 26  1  0  0  0  0
 12 13  1  0  0  0  0
 12 27  1  0  0  0  0
 12 28  1  0  0  0  0
 13 14  1  0  0  0  0
 13 29  1  0  0  0  0
 13 30  1  0  0  0  0
 14 15  1  0  0  0  0
 14 31  1  0  0  0  0
 14 32  1  0  0  0  0
 15 16  1  0  0  0  0
 15 33  1  0  0  0  0
 16 17  2  0  0  0  0
M  END
> <s_m_source_file>
AV-unprocessed.smi

> <i_m_source_file_index>
2033

> <i_lp_mmshare_version>
43012

> <i_f3d_flags>
0

> <s_epik_input>
W0NIM11jMW5uYyhzMSlbTkhdQyg9TylbTkhdW0NAQEhdMltDSDJdW0NIMl1bQ0gyXVtDSDJdW05IXUMyPU8=

> <s_epik_cmdline>
J2VwaWtfcHl0aG9uJywgJy1waCcsICc3LjAnLCAnLXRuJywgJzgnLCAnLW1hJywgJzIwMCcsICctbWV0YWxfYmluZGluZycsICctaW1hZScsICc8aW5maWxlLm1hZT4nLCAnLW9tYWUnLCAnPG91dGZpbGUubWFlPic=

> <r_lp_tautomer_probability>
1

> <r_epik_Ionization_Penalty>
0.00079266

> <r_epik_Ionization_Penalty_Charging>
0

> <r_epik_Ionization_Penalty_Neutral>
0.00079266

> <r_epik_State_Penalty>
-0

> <r_epik_Charging_Adjusted_Penalty>
0

> <i_epik_Tot_Q>
0

> <i_epik_Tot_abs_Q>
0

> <r_epik_Metal_State_Penalty>
0.265831

> <b_epik_Metal_Only>
0

> <s_lp_Force_Field>
OPLS_2005

> <r_lp_Energy>
13.3352

> <b_lp_Chiralities_Consistent>
1

> <s_lp_Variant>
AV-unprocessed.smi:2033-1

> <Gold.Version>
5.8.1

> <Gold.Id.Protein>
6NUR|6NUR_protein|mol2

> <Gold.PLP.Fitness>
36.1677

> <Gold.PLP.PLP>
-26.4621

> <Gold.PLP.part.hbond>
-4.0000

> <Gold.PLP.part.metal>
0.0000

> <Gold.PLP.part.buried>
-2.9840

> <Gold.PLP.part.nonpolar>
-18.7393

> <Gold.PLP.part.repulsive>
0.3790

> <Gold.PLP.ligand.clash>
0.0000

> <Gold.PLP.ligand.torsion>
0.3541

> <Gold.PLP.Chemscore.Hbond>
3.4542

> <Gold.PLP.Chemscore.CHOScore>
0.0000

> <Gold.PLP.Chemscore.Metal>
0.0000

> <Gold.Chemscore.Hbonds>
donor molecule, donor type, donor heavy atom, donor atom, acceptor molecule, acceptor atom, score
      L1  H     6    22       P1  7948  0.82
      L1  H     9    23       P1  7948  1.00
      P1  H  6896  6908       L1     3  0.43
      P1  H  7989  7998       L1    17  1.00

> <Gold.PLP.Chemscore.Internal.Correction>
0.0513

> <Gold.Rescore>
     Score         DG    S(hbond)    S(metal)    S(lipo)     H(rot)  DE(clash)    DE(int)     intcor
     17.81     -19.56       3.35        0.00      46.74       1.00       0.13       1.62       ----

> <Gold.Chemscore.Fitness>
17.8114

> <Gold.Chemscore.DG>
-19.5619

> <Gold.Chemscore.ZeroCoef>
-5.4800

> <Gold.Chemscore.Hbond>
3.3454

> <Gold.Chemscore.Metal>
0.0000

> <Gold.Chemscore.Lipo>
46.7358

> <Gold.Chemscore.Internal_Hbond>
0.0000

> <Gold.Chemscore.DEClash>
0.1306

> <Gold.Chemscore.DEInternal>
1.6199

> <Gold.Chemscore.Rot>
1.0000

> <Gold.Chemscore.Internal.Correction>
   9.000000E+99

> <Gold.Chemscore.Hbonds>
donor molecule, donor type, donor heavy atom, donor atom, acceptor molecule, acceptor atom, score
      L1  H     6    22       P1  7948  0.13
      L1  H     9    23       P1  7948  1.00
      P1  H  6896  6908       L1     3  0.38
      P1  H  7989  7998       L1    17  0.94

> <Gold.Chemscore.Hbond.Weighted>
-11.1738

> <Gold.Chemscore.Metal.Weighted>
-0.0000

> <Gold.Chemscore.Lipo.Weighted>
-5.4681

> <Gold.Chemscore.Internal_Hbond.Weighted>
0.0000

> <Gold.Chemscore.DEClash.Weighted>
0.1306

> <Gold.Chemscore.DEInternal.Weighted>
1.6199

> <Gold.Chemscore.Rot.Weighted>
2.5600

> <Gold.Chemscore.Internal.Correction.Weighted>
   9.000000E+99

> <Gold.Protein.RotatedTorsions>
[ 6907 6896 6895 6894 ] final   74.02 input  -60.11 | X-H torsion
[ 7974 7965 7964 7962 ] final   17.01 input  175.53 | X-H torsion
[ 8008 7997 7996 7995 ] final -131.66 input   59.86 | X-H torsion
[ 10167 10162 10161 10158 ] final  160.06 input  -65.29 | X-H torsion
[ 10718 10713 10712 10709 ] final  -22.99 input   66.30 | X-H torsion
[ 10763 10752 10751 10750 ] final  175.44 input  -60.55 | X-H torsion
[ 11005 11000 10999 10996 ] final -165.27 input  -57.11 | X-H torsion

> <Gold.Protein.ActiveResidues>
 VAL166  LYS551  ARG553  GLY616  TRP617  ASP618  TYR619  PRO620  LYS621  CYS622 
 ASP623  PHE694  ASN695  SER759  ASP760  ASP761  ALA762  ILE779  LEU786  VAL792 
 PHE793  MET794  SER795  GLU796  ALA797  LYS798  CYS799  TRP800  GLU811  SER814 

> <Gold.Protein.RotatedAtoms>
  152.4954  134.4334  159.9519 H   0  0  0  0  0  0  0  0  0  0  0  0  # atno 6907 bound_to 6896
  151.4314  133.3663  159.2777 H   0  0  0  0  0  0  0  0  0  0  0  0  # atno 6908 bound_to 6896
  150.9152  134.8593  159.7512 H   0  0  0  0  0  0  0  0  0  0  0  0  # atno 6909 bound_to 6896
  146.2232  139.8664  142.8595 H   0  0  0  0  0  0  0  0  0  0  0  0  # atno 7974 bound_to 7965
  155.3160  140.0459  157.3037 H   0  0  0  0  0  0  0  0  0  0  0  0  # atno 8008 bound_to 7997
  154.5406  140.2286  155.8614 H   0  0  0  0  0  0  0  0  0  0  0  0  # atno 8009 bound_to 7997
  156.1877  140.3058  155.9277 H   0  0  0  0  0  0  0  0  0  0  0  0  # atno 8010 bound_to 7997
  139.4837  144.4670  151.8628 H   0  0  0  0  0  0  0  0  0  0  0  0  # atno 10167 bound_to 10162
  156.4971  130.4579  149.6722 H   0  0  0  0  0  0  0  0  0  0  0  0  # atno 10718 bound_to 10713
  154.4677  135.2770  155.1666 H   0  0  0  0  0  0  0  0  0  0  0  0  # atno 10763 bound_to 10752
  154.3428  135.6166  153.5608 H   0  0  0  0  0  0  0  0  0  0  0  0  # atno 10764 bound_to 10752
  152.9861  135.5792  154.5051 H   0  0  0  0  0  0  0  0  0  0  0  0  # atno 10765 bound_to 10752
  140.5776  134.5174  157.5173 H   0  0  0  0  0  0  0  0  0  0  0  0  # atno 11005 bound_to 11000
  145.2653  141.0090  143.3803 LP  0  0  0  0  0  0  0  0  0  0  0  0  # atno 17320 bound_to 7965
  144.9266  139.4347  143.6515 LP  0  0  0  0  0  0  0  0  0  0  0  0  # atno 17321 bound_to 7965
  140.4136  144.2336  150.5888 LP  0  0  0  0  0  0  0  0  0  0  0  0  # atno 17342 bound_to 10162
  140.4942  143.2337  151.8773 LP  0  0  0  0  0  0  0  0  0  0  0  0  # atno 17343 bound_to 10162
  156.3369  130.7361  151.2300 LP  0  0  0  0  0  0  0  0  0  0  0  0  # atno 17370 bound_to 10713
  157.7467  131.0414  150.4646 LP  0  0  0  0  0  0  0  0  0  0  0  0  # atno 17371 bound_to 10713
  139.9332  134.7924  156.0873 LP  0  0  0  0  0  0  0  0  0  0  0  0  # atno 17394 bound_to 11000
  141.1017  133.6675  156.2769 LP  0  0  0  0  0  0  0  0  0  0  0  0  # atno 17395 bound_to 11000

$$$$
