AV-unprocessed.smi:222|AV-procd|sdf|1702|dock4
  -GOLD-   2262020163D 1   1.00000     0.00000
 Structure written by MMmdl.
 59 61  0  0  0  0  0  0  0  0  1 V2000
  140.1468  136.3559  153.7416 C   0  0  0  0  0  0  0  0  0  0  0  0
  141.0445  135.2932  154.0196 O   0  0  0  0  0  0  0  0  0  0  0  0
  142.3128  135.4106  153.3874 C   0  0  0  0  0  0  0  0  0  0  0  0
  143.3652  134.4417  153.9650 C   0  0  0  0  0  0  0  0  0  0  0  0
  144.7442  134.8596  153.6834 N   0  0  0  0  0  0  0  0  0  0  0  0
  145.6422  133.8950  153.0270 C   0  0  0  0  0  0  0  0  0  0  0  0
  145.4204  133.7397  151.5061 C   0  0  0  0  0  0  0  0  0  0  0  0
  145.3489  134.7463  150.7981 O   0  0  0  0  0  0  0  0  0  0  0  0
  145.3160  132.4935  150.9906 N   0  0  0  0  0  0  0  0  0  0  0  0
  145.0809  132.2306  149.5685 C   0  0  0  0  0  0  0  0  0  0  0  0
  145.4343  131.3171  151.8553 C   0  0  0  0  0  0  0  0  0  0  0  0
  145.2151  136.0536  154.1590 C   0  0  0  0  0  0  0  0  0  0  0  0
  144.3731  137.1226  154.1724 N   0  0  0  0  0  0  0  0  0  0  0  0
  144.7669  138.3057  154.6484 C   0  0  0  0  0  0  0  0  0  0  0  0
  145.9514  138.6461  155.1540 N   0  0  0  0  0  0  0  0  0  0  0  0
  146.8137  137.5911  155.1397 C   0  0  0  0  0  0  0  0  0  0  0  0
  146.5345  136.2742  154.6671 C   0  0  0  0  0  0  0  0  0  0  0  0
  147.6707  135.4853  154.8210 N   0  0  0  0  0  0  0  0  0  0  0  0
  148.5537  136.2772  155.3610 C   0  0  0  0  0  0  0  0  0  0  0  0
  148.1294  137.5679  155.5718 N   0  0  0  0  0  0  0  0  0  0  0  0
  148.9012  138.6535  156.1611 C   0  0  0  0  0  0  0  0  0  0  0  0
  149.7562  139.4855  155.1530 C   0  0  0  0  0  0  0  0  0  0  0  0
  148.8168  140.4730  154.4066 C   0  0  0  0  0  0  0  0  0  0  0  0
  149.4218  141.0883  153.2860 O   0  0  0  0  0  0  0  0  0  0  0  0
  150.8403  140.2681  155.9388 C   0  0  0  0  0  0  0  0  0  0  0  0
  151.9533  139.3543  156.4879 C   0  0  0  0  0  0  0  0  0  0  0  0
  152.5341  138.5982  155.4321 O   0  0  0  0  0  0  0  0  0  0  0  0
  151.6032  137.7424  154.7807 C   0  0  0  0  0  0  0  0  0  0  0  0
  150.4907  138.5823  154.1284 C   0  0  0  0  0  0  0  0  0  0  0  0
  139.2279  136.2073  154.3084 H   0  0  0  0  0  0  0  0  0  0  0  0
  139.8782  136.3987  152.6867 H   0  0  0  0  0  0  0  0  0  0  0  0
  140.5686  137.3176  154.0359 H   0  0  0  0  0  0  0  0  0  0  0  0
  142.2051  135.2542  152.3133 H   0  0  0  0  0  0  0  0  0  0  0  0
  142.6550  136.4384  153.5082 H   0  0  0  0  0  0  0  0  0  0  0  0
  143.2363  134.3285  155.0407 H   0  0  0  0  0  0  0  0  0  0  0  0
  143.1869  133.4390  153.5745 H   0  0  0  0  0  0  0  0  0  0  0  0
  146.6738  134.2190  153.1667 H   0  0  0  0  0  0  0  0  0  0  0  0
  145.5754  132.9371  153.5396 H   0  0  0  0  0  0  0  0  0  0  0  0
  144.2508  132.8263  149.1869 H   0  0  0  0  0  0  0  0  0  0  0  0
  144.8297  131.1877  149.3743 H   0  0  0  0  0  0  0  0  0  0  0  0
  145.9722  132.4679  148.9865 H   0  0  0  0  0  0  0  0  0  0  0  0
  146.3175  131.3870  152.4924 H   0  0  0  0  0  0  0  0  0  0  0  0
  145.5247  130.3883  151.2918 H   0  0  0  0  0  0  0  0  0  0  0  0
  144.5578  131.2329  152.4987 H   0  0  0  0  0  0  0  0  0  0  0  0
  144.0258  139.0905  154.6214 H   0  0  0  0  0  0  0  0  0  0  0  0
  149.5476  135.9393  155.6153 H   0  0  0  0  0  0  0  0  0  0  0  0
  148.2056  139.3118  156.6833 H   0  0  0  0  0  0  0  0  0  0  0  0
  149.5205  138.2166  156.9424 H   0  0  0  0  0  0  0  0  0  0  0  0
  147.9235  139.9617  154.0482 H   0  0  0  0  0  0  0  0  0  0  0  0
  148.4817  141.2609  155.0820 H   0  0  0  0  0  0  0  0  0  0  0  0
  149.6708  140.4146  152.6717 H   0  0  0  0  0  0  0  0  0  0  0  0
  151.3173  141.0048  155.2920 H   0  0  0  0  0  0  0  0  0  0  0  0
  150.3871  140.8346  156.7531 H   0  0  0  0  0  0  0  0  0  0  0  0
  152.7340  139.9611  156.9467 H   0  0  0  0  0  0  0  0  0  0  0  0
  151.5839  138.6887  157.2682 H   0  0  0  0  0  0  0  0  0  0  0  0
  152.1326  137.1730  154.0167 H   0  0  0  0  0  0  0  0  0  0  0  0
  151.2000  137.0159  155.4864 H   0  0  0  0  0  0  0  0  0  0  0  0
  149.7919  137.9390  153.5952 H   0  0  0  0  0  0  0  0  0  0  0  0
  150.9581  139.1994  153.3604 H   0  0  0  0  0  0  0  0  0  0  0  0
  1  2  1  0  0  0  0
  1 30  1  0  0  0  0
  1 31  1  0  0  0  0
  1 32  1  0  0  0  0
  2  3  1  0  0  0  0
  3  4  1  0  0  0  0
  3 33  1  0  0  0  0
  3 34  1  0  0  0  0
  4  5  1  0  0  0  0
  4 35  1  0  0  0  0
  4 36  1  0  0  0  0
  5  6  1  0  0  0  0
  5 12  1  0  0  0  0
  6  7  1  0  0  0  0
  6 37  1  0  0  0  0
  6 38  1  0  0  0  0
  7  8  2  0  0  0  0
  7  9  1  0  0  0  0
  9 10  1  0  0  0  0
  9 11  1  0  0  0  0
 10 39  1  0  0  0  0
 10 40  1  0  0  0  0
 10 41  1  0  0  0  0
 11 42  1  0  0  0  0
 11 43  1  0  0  0  0
 11 44  1  0  0  0  0
 12 17  1  0  0  0  0
 12 13  2  0  0  0  0
 13 14  1  0  0  0  0
 14 15  2  0  0  0  0
 14 45  1  0  0  0  0
 15 16  1  0  0  0  0
 16 20  1  0  0  0  0
 16 17  2  0  0  0  0
 17 18  1  0  0  0  0
 18 19  2  0  0  0  0
 19 20  1  0  0  0  0
 19 46  1  0  0  0  0
 20 21  1  0  0  0  0
 21 22  1  0  0  0  0
 21 47  1  0  0  0  0
 21 48  1  0  0  0  0
 22 29  1  0  0  0  0
 22 23  1  0  0  0  0
 22 25  1  0  0  0  0
 23 24  1  0  0  0  0
 23 49  1  0  0  0  0
 23 50  1  0  0  0  0
 24 51  1  0  0  0  0
 25 26  1  0  0  0  0
 25 52  1  0  0  0  0
 25 53  1  0  0  0  0
 26 27  1  0  0  0  0
 26 54  1  0  0  0  0
 26 55  1  0  0  0  0
 27 28  1  0  0  0  0
 28 29  1  0  0  0  0
 28 56  1  0  0  0  0
 28 57  1  0  0  0  0
 29 58  1  0  0  0  0
 29 59  1  0  0  0  0
M  END
> <s_m_source_file>
AV-unprocessed.smi

> <i_m_source_file_index>
222

> <i_lp_mmshare_version>
43012

> <i_f3d_flags>
0

> <s_epik_input>
W0NIM11PW0NIMl1bQ0gyXU4oW0NIMl1DKD1PKU4oW0NIM10pW0NIM10pYyhuW2NIXW4xKWMoYzEyKW5bY0hdbjJbQ0gyXUMzKFtDSDJdW09IXSlbQ0gyXVtDSDJdT1tDSDJdW0NIMl0z

> <s_epik_cmdline>
J2VwaWtfcHl0aG9uJywgJy1waCcsICc3LjAnLCAnLXRuJywgJzgnLCAnLW1hJywgJzIwMCcsICctbWV0YWxfYmluZGluZycsICctaW1hZScsICc8aW5maWxlLm1hZT4nLCAnLW9tYWUnLCAnPG91dGZpbGUubWFlPic=

> <r_lp_tautomer_probability>
1

> <r_epik_Ionization_Penalty>
0.000796957

> <r_epik_Ionization_Penalty_Charging>
0

> <r_epik_Ionization_Penalty_Neutral>
0.000796957

> <r_epik_State_Penalty>
0.000428513

> <r_epik_Charging_Adjusted_Penalty>
0.000428513

> <i_epik_Tot_Q>
0

> <i_epik_Tot_abs_Q>
0

> <r_epik_Metal_State_Penalty>
-0

> <b_epik_Metal_Only>
0

> <s_lp_Force_Field>
OPLS_2005

> <r_lp_Energy>
34.6666

> <b_lp_Chiralities_Consistent>
1

> <s_lp_Variant>
AV-unprocessed.smi:222-1

> <Gold.Version>
5.8.1

> <Gold.Id.Protein>
6NUR|6NUR_protein|mol2

> <Gold.PLP.Fitness>
44.7685

> <Gold.PLP.PLP>
-36.9078

> <Gold.PLP.part.hbond>
-3.2722

> <Gold.PLP.part.metal>
0.0000

> <Gold.PLP.part.buried>
-6.2070

> <Gold.PLP.part.nonpolar>
-29.3581

> <Gold.PLP.part.repulsive>
0.5858

> <Gold.PLP.ligand.clash>
0.0000

> <Gold.PLP.ligand.torsion>
1.6423

> <Gold.PLP.Chemscore.Hbond>
2.7362

> <Gold.PLP.Chemscore.CHOScore>
0.7981

> <Gold.PLP.Chemscore.Metal>
0.0000

> <Gold.Chemscore.Hbonds>
donor molecule, donor type, donor heavy atom, donor atom, acceptor molecule, acceptor atom, score
      L1  H    24    51       P1  7957  0.85
      P1  H  8011  8017       L1    24  0.85
      P1  H 11000 11005       L1     2  0.84
      L1  C    14    45       P1 10175  0.77

> <Gold.PLP.Chemscore.Internal.Correction>
0.5425

> <Gold.Rescore>
     Score         DG    S(hbond)    S(metal)    S(lipo)     H(rot)  DE(clash)    DE(int)     intcor
      9.05     -12.52       1.86        0.00      83.57       3.49       0.81       2.66       ----

> <Gold.Chemscore.Fitness>
9.0530

> <Gold.Chemscore.DG>
-12.5225

> <Gold.Chemscore.ZeroCoef>
-5.4800

> <Gold.Chemscore.Hbond>
1.8562

> <Gold.Chemscore.Metal>
0.0000

> <Gold.Chemscore.Lipo>
83.5675

> <Gold.Chemscore.Internal_Hbond>
0.0000

> <Gold.Chemscore.DEClash>
0.8057

> <Gold.Chemscore.DEInternal>
2.6638

> <Gold.Chemscore.Rot>
3.4901

> <Gold.Chemscore.Internal.Correction>
   9.000000E+99

> <Gold.Chemscore.Hbonds>
donor molecule, donor type, donor heavy atom, donor atom, acceptor molecule, acceptor atom, score
      L1  H    24    51       P1  7957  0.79
      P1  H  8011  8017       L1    24  0.15
      P1  H 11000 11005       L1     2  0.48

> <Gold.Chemscore.Hbond.Weighted>
-6.1997

> <Gold.Chemscore.Metal.Weighted>
-0.0000

> <Gold.Chemscore.Lipo.Weighted>
-9.7774

> <Gold.Chemscore.Internal_Hbond.Weighted>
0.0000

> <Gold.Chemscore.DEClash.Weighted>
0.8057

> <Gold.Chemscore.DEInternal.Weighted>
2.6638

> <Gold.Chemscore.Rot.Weighted>
8.9347

> <Gold.Chemscore.Internal.Correction.Weighted>
   9.000000E+99

> <Gold.Protein.RotatedTorsions>
[ 6907 6896 6895 6894 ] final  -10.91 input  -60.11 | X-H torsion
[ 7974 7965 7964 7962 ] final   64.08 input  175.53 | X-H torsion
[ 8008 7997 7996 7995 ] final  -56.94 input   59.86 | X-H torsion
[ 10167 10162 10161 10158 ] final  155.22 input  -65.29 | X-H torsion
[ 10718 10713 10712 10709 ] final    2.69 input   66.30 | X-H torsion
[ 10763 10752 10751 10750 ] final   12.36 input  -60.55 | X-H torsion
[ 11005 11000 10999 10996 ] final   29.22 input  -57.11 | X-H torsion

> <Gold.Protein.ActiveResidues>
 VAL166  LYS551  ARG553  GLY616  TRP617  ASP618  TYR619  PRO620  LYS621  CYS622 
 ASP623  PHE694  ASN695  SER759  ASP760  ASP761  ALA762  ILE779  LEU786  VAL792 
 PHE793  MET794  SER795  GLU796  ALA797  LYS798  CYS799  TRP800  GLU811  SER814 

> <Gold.Protein.RotatedAtoms>
  151.3945  135.0961  159.9536 H   0  0  0  0  0  0  0  0  0  0  0  0  # atno 6907 bound_to 6896
  152.5069  133.8948  159.7422 H   0  0  0  0  0  0  0  0  0  0  0  0  # atno 6908 bound_to 6896
  150.9408  133.6602  159.2819 H   0  0  0  0  0  0  0  0  0  0  0  0  # atno 6909 bound_to 6896
  145.8543  139.3274  143.0856 H   0  0  0  0  0  0  0  0  0  0  0  0  # atno 7974 bound_to 7965
  154.4249  140.1118  156.5718 H   0  0  0  0  0  0  0  0  0  0  0  0  # atno 8008 bound_to 7997
  155.6204  140.3495  155.4631 H   0  0  0  0  0  0  0  0  0  0  0  0  # atno 8009 bound_to 7997
  156.0029  140.1203  157.0519 H   0  0  0  0  0  0  0  0  0  0  0  0  # atno 8010 bound_to 7997
  139.4821  144.5118  151.8013 H   0  0  0  0  0  0  0  0  0  0  0  0  # atno 10167 bound_to 10162
  156.8667  130.5605  149.5659 H   0  0  0  0  0  0  0  0  0  0  0  0  # atno 10718 bound_to 10713
  153.1831  135.6831  153.8452 H   0  0  0  0  0  0  0  0  0  0  0  0  # atno 10763 bound_to 10752
  153.7777  135.3187  155.3362 H   0  0  0  0  0  0  0  0  0  0  0  0  # atno 10764 bound_to 10752
  154.8072  135.4741  154.0517 H   0  0  0  0  0  0  0  0  0  0  0  0  # atno 10765 bound_to 10752
  140.3072  134.2690  155.7741 H   0  0  0  0  0  0  0  0  0  0  0  0  # atno 11005 bound_to 11000
  145.9321  140.9041  143.0351 LP  0  0  0  0  0  0  0  0  0  0  0  0  # atno 17320 bound_to 7965
  144.6728  140.1432  143.7435 LP  0  0  0  0  0  0  0  0  0  0  0  0  # atno 17321 bound_to 7965
  140.4622  144.1706  150.5907 LP  0  0  0  0  0  0  0  0  0  0  0  0  # atno 17342 bound_to 10162
  140.4472  143.2501  151.9395 LP  0  0  0  0  0  0  0  0  0  0  0  0  # atno 17343 bound_to 10162
  156.0748  130.5772  150.9452 LP  0  0  0  0  0  0  0  0  0  0  0  0  # atno 17370 bound_to 10713
  157.6219  131.0929  150.8606 LP  0  0  0  0  0  0  0  0  0  0  0  0  # atno 17371 bound_to 10713
  141.2116  133.7684  156.9854 LP  0  0  0  0  0  0  0  0  0  0  0  0  # atno 17394 bound_to 11000
  140.1057  134.9508  157.1990 LP  0  0  0  0  0  0  0  0  0  0  0  0  # atno 17395 bound_to 11000

$$$$
