AV-unprocessed.smi:1052|AV-procd|sdf|4616|dock1
  -GOLD-   22720 3113D 1   1.00000     0.00000
 Structure written by MMmdl.
 40 41  0  0  0  0  0  0  0  0  1 V2000
  147.3262  140.3458  153.0023 C   0  0  0  0  0  0  0  0  0  0  0  0
  147.4995  141.0689  154.3497 C   0  0  0  0  0  0  0  0  0  0  0  0
  147.1213  142.5544  154.1748 C   0  0  0  0  0  0  0  0  0  0  0  0
  146.5890  140.3953  155.3986 C   0  0  0  0  0  0  0  0  0  0  0  0
  148.9126  140.9382  154.7245 N   0  0  0  0  0  0  0  0  0  0  0  0
  149.5053  141.2705  155.8852 C   0  0  0  0  0  0  0  0  0  0  0  0
  148.9110  141.7693  156.8415 O   0  0  0  0  0  0  0  0  0  0  0  0
  151.0177  141.0170  155.9586 C   0  0  0  0  0  0  0  0  0  0  0  0
  151.5996  141.3700  157.2620 N   0  0  0  0  0  0  0  0  0  0  0  0
  151.2469  142.6268  157.7145 N   0  0  0  0  0  0  0  0  0  0  0  0
  151.6749  143.0667  158.8497 C   0  0  0  0  0  0  0  0  0  0  0  0
  151.2379  144.4417  159.2682 C   0  0  0  0  0  0  0  0  0  0  0  0
  152.1996  145.6066  159.3004 C   0  0  0  0  0  0  0  0  0  0  0  0
  151.6450  145.0498  160.5912 C   0  0  0  0  0  0  0  0  0  0  0  0
  152.5425  142.2323  159.6569 C   0  0  0  0  0  0  0  0  0  0  0  0
  152.8974  140.9965  159.2278 C   0  0  0  0  0  0  0  0  0  0  0  0
  153.8191  140.0926  160.0425 C   0  0  0  0  0  0  0  0  0  0  0  0
  153.3325  138.8522  160.0876 F   0  0  0  0  0  0  0  0  0  0  0  0
  155.0360  140.0437  159.4991 F   0  0  0  0  0  0  0  0  0  0  0  0
  153.9524  140.5261  161.2970 F   0  0  0  0  0  0  0  0  0  0  0  0
  152.4050  140.4955  157.9357 C   0  0  0  0  0  0  0  0  0  0  0  0
  152.6829  139.3827  157.4862 O   0  0  0  0  0  0  0  0  0  0  0  0
  146.2944  140.3998  152.6528 H   0  0  0  0  0  0  0  0  0  0  0  0
  147.5904  139.2903  153.0803 H   0  0  0  0  0  0  0  0  0  0  0  0
  147.9567  140.7864  152.2288 H   0  0  0  0  0  0  0  0  0  0  0  0
  147.7753  143.0484  153.4551 H   0  0  0  0  0  0  0  0  0  0  0  0
  147.1855  143.1070  155.1121 H   0  0  0  0  0  0  0  0  0  0  0  0
  146.0983  142.6587  153.8122 H   0  0  0  0  0  0  0  0  0  0  0  0
  145.5474  140.4025  155.0757 H   0  0  0  0  0  0  0  0  0  0  0  0
  146.6254  140.9030  156.3624 H   0  0  0  0  0  0  0  0  0  0  0  0
  146.8738  139.3554  155.5626 H   0  0  0  0  0  0  0  0  0  0  0  0
  149.5110  140.5417  154.0143 H   0  0  0  0  0  0  0  0  0  0  0  0
  151.2317  139.9718  155.7265 H   0  0  0  0  0  0  0  0  0  0  0  0
  151.4930  141.5944  155.1635 H   0  0  0  0  0  0  0  0  0  0  0  0
  150.2250  144.6443  158.9248 H   0  0  0  0  0  0  0  0  0  0  0  0
  153.2475  145.4104  159.0805 H   0  0  0  0  0  0  0  0  0  0  0  0
  151.8270  146.5735  158.9687 H   0  0  0  0  0  0  0  0  0  0  0  0
  150.9036  145.6473  161.1179 H   0  0  0  0  0  0  0  0  0  0  0  0
  152.3314  144.4938  161.2271 H   0  0  0  0  0  0  0  0  0  0  0  0
  152.8951  142.6178  160.6018 H   0  0  0  0  0  0  0  0  0  0  0  0
  1  2  1  0  0  0  0
  1 23  1  0  0  0  0
  1 24  1  0  0  0  0
  1 25  1  0  0  0  0
  2  3  1  0  0  0  0
  2  4  1  0  0  0  0
  2  5  1  0  0  0  0
  3 26  1  0  0  0  0
  3 27  1  0  0  0  0
  3 28  1  0  0  0  0
  4 29  1  0  0  0  0
  4 30  1  0  0  0  0
  4 31  1  0  0  0  0
  5  6  1  0  0  0  0
  5 32  1  0  0  0  0
  6  7  2  0  0  0  0
  6  8  1  0  0  0  0
  8  9  1  0  0  0  0
  8 33  1  0  0  0  0
  8 34  1  0  0  0  0
  9 21  1  0  0  0  0
  9 10  1  0  0  0  0
 10 11  2  0  0  0  0
 11 12  1  0  0  0  0
 11 15  1  0  0  0  0
 12 14  1  0  0  0  0
 12 13  1  0  0  0  0
 12 35  1  0  0  0  0
 13 14  1  0  0  0  0
 13 36  1  0  0  0  0
 13 37  1  0  0  0  0
 14 38  1  0  0  0  0
 14 39  1  0  0  0  0
 15 16  2  0  0  0  0
 15 40  1  0  0  0  0
 16 17  1  0  0  0  0
 16 21  1  0  0  0  0
 17 18  1  0  0  0  0
 17 19  1  0  0  0  0
 17 20  1  0  0  0  0
 21 22  2  0  0  0  0
M  END
> <s_m_source_file>
AV-unprocessed.smi

> <i_m_source_file_index>
1052

> <i_lp_mmshare_version>
43012

> <i_f3d_flags>
0

> <s_epik_input>
W0NIM11DKFtDSDNdKShbQ0gzXSlbTkhdQyg9TylbQ0gyXW4xbmMoW0NIXTJbQ0gyXVtDSDJdMilbY0hdYyhDKEYpKEYpRiljMT1P

> <s_epik_cmdline>
J2VwaWtfcHl0aG9uJywgJy1waCcsICc3LjAnLCAnLXRuJywgJzgnLCAnLW1hJywgJzIwMCcsICctbWV0YWxfYmluZGluZycsICctaW1hZScsICc8aW5maWxlLm1hZT4nLCAnLW9tYWUnLCAnPG91dGZpbGUubWFlPic=

> <r_lp_tautomer_probability>
1

> <r_epik_Ionization_Penalty>
2.47799e-08

> <r_epik_Ionization_Penalty_Charging>
1.49243e-10

> <r_epik_Ionization_Penalty_Neutral>
2.46307e-08

> <r_epik_State_Penalty>
-0

> <r_epik_Charging_Adjusted_Penalty>
1.49243e-10

> <i_epik_Tot_Q>
0

> <i_epik_Tot_abs_Q>
0

> <r_epik_Metal_State_Penalty>
-0

> <b_epik_Metal_Only>
0

> <s_lp_Force_Field>
OPLS_2005

> <r_lp_Energy>
24.0208

> <b_lp_Chiralities_Consistent>
1

> <s_lp_Variant>
AV-unprocessed.smi:1052-1

> <Gold.Version>
5.8.1

> <Gold.Id.Protein>
6NUR|6NUR_protein|mol2

> <Gold.PLP.Fitness>
42.9651

> <Gold.PLP.PLP>
-42.3188

> <Gold.PLP.part.hbond>
-1.0000

> <Gold.PLP.part.metal>
0.0000

> <Gold.PLP.part.buried>
-2.5759

> <Gold.PLP.part.nonpolar>
-38.0353

> <Gold.PLP.part.repulsive>
0.3064

> <Gold.PLP.ligand.clash>
0.0000

> <Gold.PLP.ligand.torsion>
0.8263

> <Gold.PLP.Chemscore.Hbond>
0.5500

> <Gold.PLP.Chemscore.CHOScore>
0.0000

> <Gold.PLP.Chemscore.Metal>
0.0000

> <Gold.Chemscore.Hbonds>
donor molecule, donor type, donor heavy atom, donor atom, acceptor molecule, acceptor atom, score
      P1  H  7997  8008       L1    22  0.55

> <Gold.PLP.Chemscore.Internal.Correction>
0.6490

> <Gold.Rescore>
     Score         DG    S(hbond)    S(metal)    S(lipo)     H(rot)  DE(clash)    DE(int)     intcor
      9.38     -12.98       0.00        0.00     101.06       1.69       0.03       3.57       ----

> <Gold.Chemscore.Fitness>
9.3791

> <Gold.Chemscore.DG>
-12.9763

> <Gold.Chemscore.ZeroCoef>
-5.4800

> <Gold.Chemscore.Hbond>
0.0000

> <Gold.Chemscore.Metal>
0.0000

> <Gold.Chemscore.Lipo>
101.0550

> <Gold.Chemscore.Internal_Hbond>
0.0000

> <Gold.Chemscore.DEClash>
0.0297

> <Gold.Chemscore.DEInternal>
3.5674

> <Gold.Chemscore.Rot>
1.6903

> <Gold.Chemscore.Internal.Correction>
   9.000000E+99

> <Gold.Chemscore.Hbonds>
donor molecule, donor type, donor heavy atom, donor atom, acceptor molecule, acceptor atom, score
      P1  H  7997  8008       L1    22  0.03

> <Gold.Chemscore.Hbond.Weighted>
-0.0000

> <Gold.Chemscore.Metal.Weighted>
-0.0000

> <Gold.Chemscore.Lipo.Weighted>
-11.8234

> <Gold.Chemscore.Internal_Hbond.Weighted>
0.0000

> <Gold.Chemscore.DEClash.Weighted>
0.0297

> <Gold.Chemscore.DEInternal.Weighted>
3.5674

> <Gold.Chemscore.Rot.Weighted>
4.3272

> <Gold.Chemscore.Internal.Correction.Weighted>
   9.000000E+99

> <Gold.Protein.RotatedTorsions>
[ 6907 6896 6895 6894 ] final -110.64 input  -60.11 | X-H torsion
[ 7974 7965 7964 7962 ] final  171.33 input  175.53 | X-H torsion
[ 8008 7997 7996 7995 ] final  -67.97 input   59.86 | X-H torsion
[ 10167 10162 10161 10158 ] final   75.30 input  -65.29 | X-H torsion
[ 10718 10713 10712 10709 ] final  -41.56 input   66.30 | X-H torsion
[ 10763 10752 10751 10750 ] final   62.89 input  -60.55 | X-H torsion
[ 11005 11000 10999 10996 ] final   19.34 input  -57.11 | X-H torsion

> <Gold.Protein.ActiveResidues>
 VAL166  LYS551  ARG553  GLY616  TRP617  ASP618  TYR619  PRO620  LYS621  CYS622 
 ASP623  PHE694  ASN695  SER759  ASP760  ASP761  ALA762  ILE779  LEU786  VAL792 
 PHE793  MET794  SER795  GLU796  ALA797  LYS798  CYS799  TRP800  GLU811  SER814 

> <Gold.Protein.RotatedAtoms>
  150.7638  133.9352  159.3438 H   0  0  0  0  0  0  0  0  0  0  0  0  # atno 6907 bound_to 6896
  151.7254  135.0884  160.0300 H   0  0  0  0  0  0  0  0  0  0  0  0  # atno 6908 bound_to 6896
  152.3623  133.6275  159.6060 H   0  0  0  0  0  0  0  0  0  0  0  0  # atno 6909 bound_to 6896
  144.7298  139.9334  143.6425 H   0  0  0  0  0  0  0  0  0  0  0  0  # atno 7974 bound_to 7965
  154.4836  140.0882  156.7435 H   0  0  0  0  0  0  0  0  0  0  0  0  # atno 8008 bound_to 7997
  155.4407  140.3453  155.4271 H   0  0  0  0  0  0  0  0  0  0  0  0  # atno 8009 bound_to 7997
  156.1228  140.1479  156.9168 H   0  0  0  0  0  0  0  0  0  0  0  0  # atno 8010 bound_to 7997
  140.0045  144.5661  150.7710 H   0  0  0  0  0  0  0  0  0  0  0  0  # atno 10167 bound_to 10162
  156.2690  130.4205  149.8458 H   0  0  0  0  0  0  0  0  0  0  0  0  # atno 10718 bound_to 10713
  152.9998  135.5448  154.6266 H   0  0  0  0  0  0  0  0  0  0  0  0  # atno 10763 bound_to 10752
  154.5553  135.2829  155.0973 H   0  0  0  0  0  0  0  0  0  0  0  0  # atno 10764 bound_to 10752
  154.2196  135.6453  153.5193 H   0  0  0  0  0  0  0  0  0  0  0  0  # atno 10765 bound_to 10752
  140.4148  134.1580  155.7669 H   0  0  0  0  0  0  0  0  0  0  0  0  # atno 11005 bound_to 11000
  146.0840  139.3828  143.0447 LP  0  0  0  0  0  0  0  0  0  0  0  0  # atno 17320 bound_to 7965
  145.7803  140.9859  143.1103 LP  0  0  0  0  0  0  0  0  0  0  0  0  # atno 17321 bound_to 7965
  140.7406  143.2806  151.3609 LP  0  0  0  0  0  0  0  0  0  0  0  0  # atno 17342 bound_to 10162
  139.6248  144.0835  152.2424 LP  0  0  0  0  0  0  0  0  0  0  0  0  # atno 17343 bound_to 10162
  156.5947  130.8521  151.3417 LP  0  0  0  0  0  0  0  0  0  0  0  0  # atno 17370 bound_to 10713
  157.7277  130.9647  150.1711 LP  0  0  0  0  0  0  0  0  0  0  0  0  # atno 17371 bound_to 10713
  141.1807  133.8420  157.1267 LP  0  0  0  0  0  0  0  0  0  0  0  0  # atno 17394 bound_to 11000
  140.0242  134.9932  157.0652 LP  0  0  0  0  0  0  0  0  0  0  0  0  # atno 17395 bound_to 11000

$$$$
