AV-unprocessed.smi:1455|AV-procd|sdf|5916|dock4
  -GOLD-   22720 6 03D 1   1.00000     0.00000
 Structure written by MMmdl.
 31 32  0  0  0  0  0  0  0  0  2 V2000
  152.4659  140.7318  157.6498 O   0  0  0  0  0  0  0  0  0  0  0  0
  151.5888  141.5100  157.2763 C   0  0  0  0  0  0  0  0  0  0  0  0
  150.5473  141.0282  156.2512 C   0  0  0  0  0  0  0  0  0  0  0  0
  150.6839  139.6164  155.8482 N   0  0  0  0  0  0  0  0  0  0  0  0
  149.6221  138.7478  156.1571 C   0  0  0  0  0  0  0  0  0  0  0  0
  149.6484  137.4447  155.8188 C   0  0  0  0  0  0  0  0  0  0  0  0
  150.8195  136.9383  155.1140 C   0  0  0  0  0  0  0  0  0  0  0  0
  150.8621  135.7507  154.7993 O   0  0  0  0  0  0  0  0  0  0  0  0
  151.8223  137.8212  154.8338 N   0  5  0  0  0  0  0  0  0  0  0  0
  151.7803  139.1450  155.1808 C   0  0  0  0  0  0  0  0  0  0  0  0
  152.6909  139.9268  154.9072 O   0  0  0  0  0  0  0  0  0  0  0  0
  151.4910  142.7690  157.7350 N   0  0  0  0  0  0  0  0  0  0  0  0
  152.3789  143.3874  158.7134 C   0  0  0  0  0  0  0  0  0  0  0  0
  152.1823  142.7837  160.1200 C   0  0  0  0  0  0  0  0  0  0  0  0
  151.9700  143.9672  161.0663 C   0  0  0  0  0  0  0  0  0  0  0  0
  151.3528  145.0503  160.1870 C   0  0  0  0  0  0  0  0  0  0  0  0
  152.0658  144.8886  158.8448 C   0  0  0  0  0  0  0  0  0  0  0  0
  149.5511  141.2147  156.6555 H   0  0  0  0  0  0  0  0  0  0  0  0
  150.6180  141.6712  155.3728 H   0  0  0  0  0  0  0  0  0  0  0  0
  148.7907  139.2047  156.6735 H   0  0  0  0  0  0  0  0  0  0  0  0
  148.8227  136.7915  156.0600 H   0  0  0  0  0  0  0  0  0  0  0  0
  150.7438  143.3426  157.3701 H   0  0  0  0  0  0  0  0  0  0  0  0
  153.4143  143.2692  158.3887 H   0  0  0  0  0  0  0  0  0  0  0  0
  151.2974  142.1455  160.1459 H   0  0  0  0  0  0  0  0  0  0  0  0
  153.0296  142.1681  160.4234 H   0  0  0  0  0  0  0  0  0  0  0  0
  151.3443  143.7132  161.9223 H   0  0  0  0  0  0  0  0  0  0  0  0
  152.9328  144.3100  161.4474 H   0  0  0  0  0  0  0  0  0  0  0  0
  150.2860  144.8600  160.0621 H   0  0  0  0  0  0  0  0  0  0  0  0
  151.4681  146.0500  160.6063 H   0  0  0  0  0  0  0  0  0  0  0  0
  153.0014  145.4490  158.8680 H   0  0  0  0  0  0  0  0  0  0  0  0
  151.4774  145.2839  158.0153 H   0  0  0  0  0  0  0  0  0  0  0  0
  1  2  2  0  0  0  0
  2  3  1  0  0  0  0
  2 12  1  0  0  0  0
  3  4  1  0  0  0  0
  3 18  1  0  0  0  0
  3 19  1  0  0  0  0
  4 10  1  0  0  0  0
  4  5  1  0  0  0  0
  5  6  2  0  0  0  0
  5 20  1  0  0  0  0
  6  7  1  0  0  0  0
  6 21  1  0  0  0  0
  7  8  2  0  0  0  0
  7  9  1  0  0  0  0
  9 10  1  0  0  0  0
 10 11  2  0  0  0  0
 12 13  1  0  0  0  0
 12 22  1  0  0  0  0
 13 17  1  0  0  0  0
 13 14  1  0  0  0  0
 13 23  1  0  0  0  0
 14 15  1  0  0  0  0
 14 24  1  0  0  0  0
 14 25  1  0  0  0  0
 15 16  1  0  0  0  0
 15 26  1  0  0  0  0
 15 27  1  0  0  0  0
 16 17  1  0  0  0  0
 16 28  1  0  0  0  0
 16 29  1  0  0  0  0
 17 30  1  0  0  0  0
 17 31  1  0  0  0  0
M  CHG  1   9  -1
M  END
> <s_m_source_file>
AV-unprocessed.smi

> <i_m_source_file_index>
1455

> <i_lp_mmshare_version>
43012

> <i_f3d_flags>
0

> <s_epik_input>
W0NIMl0xW0NIMl1bQ0gyXVtDSDJdW0NIXTFbTkhdQyg9TylbQ0gyXW4yW2NIXVtjSF1jKD1PKVtuSF1jMj1P

> <s_epik_cmdline>
J2VwaWtfcHl0aG9uJywgJy1waCcsICc3LjAnLCAnLXRuJywgJzgnLCAnLW1hJywgJzIwMCcsICctbWV0YWxfYmluZGluZycsICctaW1hZScsICc8aW5maWxlLm1hZT4nLCAnLW9tYWUnLCAnPG91dGZpbGUubWFlPic=

> <r_lp_tautomer_probability>
0.999537

> <r_epik_Ionization_Penalty>
3.09122

> <r_epik_Ionization_Penalty_Charging>
2.83991e-08

> <r_epik_Ionization_Penalty_Neutral>
3.09122

> <r_epik_State_Penalty>
3.09028

> <r_epik_Charging_Adjusted_Penalty>
3.09028

> <i_epik_Tot_Q>
-1

> <i_epik_Tot_abs_Q>
1

> <r_epik_Metal_State_Penalty>
0.460928

> <b_epik_Metal_Only>
1

> <s_lp_Force_Field>
OPLS_2005

> <r_lp_Energy>
25.8803

> <b_lp_Chiralities_Consistent>
1

> <s_lp_Variant>
AV-unprocessed.smi:1455-2

> <Gold.Version>
5.8.1

> <Gold.Id.Protein>
6NUR|6NUR_protein|mol2

> <Gold.PLP.Fitness>
41.7663

> <Gold.PLP.PLP>
-35.0520

> <Gold.PLP.part.hbond>
-4.2302

> <Gold.PLP.part.metal>
0.0000

> <Gold.PLP.part.buried>
-1.9662

> <Gold.PLP.part.nonpolar>
-27.9212

> <Gold.PLP.part.repulsive>
0.2670

> <Gold.PLP.ligand.clash>
0.0000

> <Gold.PLP.ligand.torsion>
0.0942

> <Gold.PLP.Chemscore.Hbond>
2.2994

> <Gold.PLP.Chemscore.CHOScore>
0.0000

> <Gold.PLP.Chemscore.Metal>
0.0000

> <Gold.Chemscore.Hbonds>
donor molecule, donor type, donor heavy atom, donor atom, acceptor molecule, acceptor atom, score
      P1  H  7989  7998       L1    11  0.36
      P1  H  7997  8010       L1    11  0.81
      P1  H 10752 10764       L1     8  0.59

> <Gold.PLP.Chemscore.Internal.Correction>
0.0045

> <Gold.Rescore>
     Score         DG    S(hbond)    S(metal)    S(lipo)     H(rot)  DE(clash)    DE(int)     intcor
     10.26     -13.75       1.27        0.00      71.43       1.69       0.07       3.43       ----

> <Gold.Chemscore.Fitness>
10.2553

> <Gold.Chemscore.DG>
-13.7532

> <Gold.Chemscore.ZeroCoef>
-5.4800

> <Gold.Chemscore.Hbond>
1.2681

> <Gold.Chemscore.Metal>
0.0000

> <Gold.Chemscore.Lipo>
71.4329

> <Gold.Chemscore.Internal_Hbond>
0.0000

> <Gold.Chemscore.DEClash>
0.0708

> <Gold.Chemscore.DEInternal>
3.4271

> <Gold.Chemscore.Rot>
1.6875

> <Gold.Chemscore.Internal.Correction>
   9.000000E+99

> <Gold.Chemscore.Hbonds>
donor molecule, donor type, donor heavy atom, donor atom, acceptor molecule, acceptor atom, score
      P1  H  7989  7998       L1    11  0.04
      P1  H  7997  8010       L1    11  0.75
      P1  H 10752 10764       L1     8  0.11

> <Gold.Chemscore.Hbond.Weighted>
-4.2355

> <Gold.Chemscore.Metal.Weighted>
-0.0000

> <Gold.Chemscore.Lipo.Weighted>
-8.3576

> <Gold.Chemscore.Internal_Hbond.Weighted>
0.0000

> <Gold.Chemscore.DEClash.Weighted>
0.0708

> <Gold.Chemscore.DEInternal.Weighted>
3.4271

> <Gold.Chemscore.Rot.Weighted>
4.3200

> <Gold.Chemscore.Internal.Correction.Weighted>
   9.000000E+99

> <Gold.Protein.RotatedTorsions>
[ 6907 6896 6895 6894 ] final   53.74 input  -60.11 | X-H torsion
[ 7974 7965 7964 7962 ] final   10.59 input  175.53 | X-H torsion
[ 8008 7997 7996 7995 ] final   84.71 input   59.86 | X-H torsion
[ 10167 10162 10161 10158 ] final  169.80 input  -65.29 | X-H torsion
[ 10718 10713 10712 10709 ] final   41.15 input   66.30 | X-H torsion
[ 10763 10752 10751 10750 ] final  -43.26 input  -60.55 | X-H torsion
[ 11005 11000 10999 10996 ] final   57.13 input  -57.11 | X-H torsion

> <Gold.Protein.ActiveResidues>
 VAL166  LYS551  ARG553  GLY616  TRP617  ASP618  TYR619  PRO620  LYS621  CYS622 
 ASP623  PHE694  ASN695  SER759  ASP760  ASP761  ALA762  ILE779  LEU786  VAL792 
 PHE793  MET794  SER795  GLU796  ALA797  LYS798  CYS799  TRP800  GLU811  SER814 

> <Gold.Protein.RotatedAtoms>
  152.3368  134.7188  160.0274 H   0  0  0  0  0  0  0  0  0  0  0  0  # atno 6907 bound_to 6896
  151.7586  133.3327  159.3419 H   0  0  0  0  0  0  0  0  0  0  0  0  # atno 6908 bound_to 6896
  150.7455  134.6059  159.6105 H   0  0  0  0  0  0  0  0  0  0  0  0  # atno 6909 bound_to 6896
  146.2386  139.9612  142.8458 H   0  0  0  0  0  0  0  0  0  0  0  0  # atno 7974 bound_to 7965
  155.9406  140.3408  155.6324 H   0  0  0  0  0  0  0  0  0  0  0  0  # atno 8008 bound_to 7997
  155.7045  140.0764  157.2415 H   0  0  0  0  0  0  0  0  0  0  0  0  # atno 8009 bound_to 7997
  154.4102  140.1634  156.2215 H   0  0  0  0  0  0  0  0  0  0  0  0  # atno 8010 bound_to 7997
  139.5002  144.3666  151.9769 H   0  0  0  0  0  0  0  0  0  0  0  0  # atno 10167 bound_to 10162
  157.3902  130.7802  149.7263 H   0  0  0  0  0  0  0  0  0  0  0  0  # atno 10718 bound_to 10713
  153.9927  135.6703  153.4755 H   0  0  0  0  0  0  0  0  0  0  0  0  # atno 10763 bound_to 10752
  153.0698  135.4981  154.8275 H   0  0  0  0  0  0  0  0  0  0  0  0  # atno 10764 bound_to 10752
  154.7100  135.3095  154.9175 H   0  0  0  0  0  0  0  0  0  0  0  0  # atno 10765 bound_to 10752
  140.0476  134.5783  155.9303 H   0  0  0  0  0  0  0  0  0  0  0  0  # atno 11005 bound_to 11000
  145.1770  140.9748  143.4289 LP  0  0  0  0  0  0  0  0  0  0  0  0  # atno 17320 bound_to 7965
  144.9977  139.3628  143.6183 LP  0  0  0  0  0  0  0  0  0  0  0  0  # atno 17321 bound_to 7965
  140.3102  144.3546  150.6036 LP  0  0  0  0  0  0  0  0  0  0  0  0  # atno 17342 bound_to 10162
  140.5804  143.2173  151.7438 LP  0  0  0  0  0  0  0  0  0  0  0  0  # atno 17343 bound_to 10162
  155.9796  130.4038  150.3575 LP  0  0  0  0  0  0  0  0  0  0  0  0  # atno 17370 bound_to 10713
  157.1690  131.0364  151.2805 LP  0  0  0  0  0  0  0  0  0  0  0  0  # atno 17371 bound_to 10713
  141.1914  133.6572  156.5457 LP  0  0  0  0  0  0  0  0  0  0  0  0  # atno 17394 bound_to 11000
  140.3969  134.7391  157.4756 LP  0  0  0  0  0  0  0  0  0  0  0  0  # atno 17395 bound_to 11000

$$$$
