AV-unprocessed.smi:37|AV-procd|sdf|318|dock5
  -GOLD-   2262016143D 1   1.00000     0.00000
 Structure written by MMmdl.
 44 45  0  0  0  0  0  0  0  0  1 V2000
  147.0380  139.4108  152.8065 C   0  0  0  0  0  0  0  0  0  0  0  0
  147.6735  140.6972  153.3546 C   0  0  0  0  0  0  0  0  0  0  0  0
  148.3655  140.5112  154.7065 C   0  0  0  0  0  0  0  0  0  0  0  0
  149.0433  141.3973  155.2300 O   0  0  0  0  0  0  0  0  0  0  0  0
  148.1406  139.2925  155.2194 O   0  0  0  0  0  0  0  0  0  0  0  0
  148.7502  138.9173  156.4454 C   0  0  0  0  0  0  0  0  0  0  0  0
  148.3874  137.4684  156.7958 C   0  0  1  0  0  0  0  0  0  0  0  0
  148.9987  136.5517  155.8888 O   0  0  0  0  0  0  0  0  0  0  0  0
  149.6504  135.5492  156.6087 C   0  0  2  0  0  0  0  0  0  0  0  0
  149.5205  134.2254  155.8928 N   0  0  0  0  0  0  0  0  0  0  0  0
  148.8844  134.1072  154.6625 C   0  0  0  0  0  0  0  0  0  0  0  0
  148.7561  132.9263  154.0127 C   0  0  0  0  0  0  0  0  0  0  0  0
  148.1236  132.8868  152.8278 F   0  0  0  0  0  0  0  0  0  0  0  0
  149.2921  131.6963  154.5890 C   0  0  0  0  0  0  0  0  0  0  0  0
  149.2283  130.5815  154.0748 O   0  0  0  0  0  0  0  0  0  0  0  0
  149.9161  131.8634  155.8290 N   0  0  0  0  0  0  0  0  0  0  0  0
  150.0532  133.0738  156.5102 C   0  0  0  0  0  0  0  0  0  0  0  0
  150.6170  133.1078  157.6032 O   0  0  0  0  0  0  0  0  0  0  0  0
  149.0213  135.5332  158.0059 C   0  0  2  0  0  0  0  0  0  0  0  0
  147.2760  134.5541  158.0266 Br  0  0  0  0  0  0  0  0  0  0  0  0
  148.7955  137.0226  158.2061 C   0  0  2  0  0  0  0  0  0  0  0  0
  147.7925  137.3156  159.1703 O   0  0  0  0  0  0  0  0  0  0  0  0
  148.0236  137.0877  160.4748 C   0  0  0  0  0  0  0  0  0  0  0  0
  149.1239  137.1380  161.0274 O   0  0  0  0  0  0  0  0  0  0  0  0
  146.7392  136.7432  161.2314 C   0  0  0  0  0  0  0  0  0  0  0  0
  146.4781  137.6495  162.4435 C   0  0  0  0  0  0  0  0  0  0  0  0
  150.2979  131.0387  156.2686 H   0  0  0  0  0  0  0  0  0  0  0  0
  146.5541  139.6006  151.8484 H   0  0  0  0  0  0  0  0  0  0  0  0
  146.2796  139.0209  153.4867 H   0  0  0  0  0  0  0  0  0  0  0  0
  147.7850  138.6319  152.6498 H   0  0  0  0  0  0  0  0  0  0  0  0
  148.4049  141.0780  152.6416 H   0  0  0  0  0  0  0  0  0  0  0  0
  146.9084  141.4663  153.4622 H   0  0  0  0  0  0  0  0  0  0  0  0
  149.8348  139.0028  156.3624 H   0  0  0  0  0  0  0  0  0  0  0  0
  148.4292  139.5939  157.2385 H   0  0  0  0  0  0  0  0  0  0  0  0
  147.3111  137.3367  156.6753 H   0  0  0  0  0  0  0  0  0  0  0  0
  150.7162  135.7885  156.6224 H   0  0  0  0  0  0  0  0  0  0  0  0
  148.4570  134.9801  154.1913 H   0  0  0  0  0  0  0  0  0  0  0  0
  149.6865  135.0837  158.7436 H   0  0  0  0  0  0  0  0  0  0  0  0
  149.7430  137.4925  158.4741 H   0  0  0  0  0  0  0  0  0  0  0  0
  145.9017  136.8103  160.5366 H   0  0  0  0  0  0  0  0  0  0  0  0
  146.7972  135.7043  161.5564 H   0  0  0  0  0  0  0  0  0  0  0  0
  145.5571  137.3583  162.9485 H   0  0  0  0  0  0  0  0  0  0  0  0
  146.3743  138.6933  162.1454 H   0  0  0  0  0  0  0  0  0  0  0  0
  147.2873  137.5834  163.1716 H   0  0  0  0  0  0  0  0  0  0  0  0
  1  2  1  0  0  0  0
  1 28  1  0  0  0  0
  1 29  1  0  0  0  0
  1 30  1  0  0  0  0
  2  3  1  0  0  0  0
  2 31  1  0  0  0  0
  2 32  1  0  0  0  0
  3  4  2  0  0  0  0
  3  5  1  0  0  0  0
  5  6  1  0  0  0  0
  6  7  1  0  0  0  0
  6 33  1  0  0  0  0
  6 34  1  0  0  0  0
  7 21  1  0  0  0  0
  7  8  1  0  0  0  0
  7 35  1  0  0  0  0
  8  9  1  0  0  0  0
  9 10  1  0  0  0  0
  9 19  1  0  0  0  0
  9 36  1  0  0  0  0
 10 17  1  0  0  0  0
 10 11  1  0  0  0  0
 11 12  2  0  0  0  0
 11 37  1  0  0  0  0
 12 13  1  0  0  0  0
 12 14  1  0  0  0  0
 14 15  2  0  0  0  0
 14 16  1  0  0  0  0
 16 27  1  0  0  0  0
 16 17  1  0  0  0  0
 17 18  2  0  0  0  0
 19 20  1  0  0  0  0
 19 21  1  0  0  0  0
 19 38  1  0  0  0  0
 21 22  1  0  0  0  0
 21 39  1  0  0  0  0
 22 23  1  0  0  0  0
 23 24  2  0  0  0  0
 23 25  1  0  0  0  0
 25 26  1  0  0  0  0
 25 40  1  0  0  0  0
 25 41  1  0  0  0  0
 26 42  1  0  0  0  0
 26 43  1  0  0  0  0
 26 44  1  0  0  0  0
M  END
> <s_m_source_file>
AV-unprocessed.smi

> <i_m_source_file_index>
37

> <i_lp_mmshare_version>
43012

> <i_f3d_flags>
0

> <s_epik_input>
W0NIM11bQ0gyXUMoPU8pT1tDSDJdW0NAQEhdMU9bQ0BASF0objJbY0hdYyhGKWMoPU8pW25IXWMyPU8pW0NAQEhdKEJyKVtDQEhdMU9DKD1PKVtDSDJdW0NIM10=

> <s_epik_cmdline>
J2VwaWtfcHl0aG9uJywgJy1waCcsICc3LjAnLCAnLXRuJywgJzgnLCAnLW1hJywgJzIwMCcsICctbWV0YWxfYmluZGluZycsICctaW1hZScsICc8aW5maWxlLm1hZT4nLCAnLW9tYWUnLCAnPG91dGZpbGUubWFlPic=

> <r_lp_tautomer_probability>
0.999537

> <r_epik_Ionization_Penalty>
0.104106

> <r_epik_Ionization_Penalty_Charging>
0.104106

> <r_epik_Ionization_Penalty_Neutral>
3.94675e-16

> <r_epik_State_Penalty>
0.0940182

> <r_epik_Charging_Adjusted_Penalty>
0.198124

> <i_epik_Tot_Q>
0

> <i_epik_Tot_abs_Q>
0

> <r_epik_Metal_State_Penalty>
3.05314

> <b_epik_Metal_Only>
0

> <s_epik_Chemistry_Notes>
This compound has an ester and may undergo hydrolysis at high or low pH. This compound contains an acetal/aminal-like group ( X-CH(R)-Y where X, Y are N, S, or O) that may be acid/base labile, releasing an aldehyde.

> <s_lp_Force_Field>
OPLS_2005

> <r_lp_Energy>
25.1984

> <b_lp_Chiralities_Consistent>
1

> <s_lp_Variant>
AV-unprocessed.smi:37-16

> <Gold.Version>
5.8.1

> <Gold.Id.Protein>
6NUR|6NUR_protein|mol2

> <Gold.PLP.Fitness>
37.6344

> <Gold.PLP.PLP>
-29.6495

> <Gold.PLP.part.hbond>
-2.0000

> <Gold.PLP.part.metal>
0.0000

> <Gold.PLP.part.buried>
-1.7919

> <Gold.PLP.part.nonpolar>
-26.0583

> <Gold.PLP.part.repulsive>
0.3093

> <Gold.PLP.ligand.clash>
0.0000

> <Gold.PLP.ligand.torsion>
0.5531

> <Gold.PLP.Chemscore.Hbond>
1.9920

> <Gold.PLP.Chemscore.CHOScore>
1.0000

> <Gold.PLP.Chemscore.Metal>
0.0000

> <Gold.Chemscore.Hbonds>
donor molecule, donor type, donor heavy atom, donor atom, acceptor molecule, acceptor atom, score
      P1  H  6896  6907       L1    18  1.00
      P1  H  6931  6943       L1    24  0.56
      L1  C    11    37       P1  7948  0.66

> <Gold.PLP.Chemscore.Internal.Correction>
0.1152

> <Gold.Rescore>
     Score         DG    S(hbond)    S(metal)    S(lipo)     H(rot)  DE(clash)    DE(int)     intcor
      6.96      -8.81       1.98        0.00      44.76       3.33       0.00       1.85       ----

> <Gold.Chemscore.Fitness>
6.9580

> <Gold.Chemscore.DG>
-8.8138

> <Gold.Chemscore.ZeroCoef>
-5.4800

> <Gold.Chemscore.Hbond>
1.9829

> <Gold.Chemscore.Metal>
0.0000

> <Gold.Chemscore.Lipo>
44.7554

> <Gold.Chemscore.Internal_Hbond>
0.0000

> <Gold.Chemscore.DEClash>
0.0038

> <Gold.Chemscore.DEInternal>
1.8520

> <Gold.Chemscore.Rot>
3.3303

> <Gold.Chemscore.Internal.Correction>
   9.000000E+99

> <Gold.Chemscore.Hbonds>
donor molecule, donor type, donor heavy atom, donor atom, acceptor molecule, acceptor atom, score
      P1  H  6896  6907       L1    18  0.96
      P1  H  6931  6943       L1    24  0.30

> <Gold.Chemscore.Hbond.Weighted>
-6.6230

> <Gold.Chemscore.Metal.Weighted>
-0.0000

> <Gold.Chemscore.Lipo.Weighted>
-5.2364

> <Gold.Chemscore.Internal_Hbond.Weighted>
0.0000

> <Gold.Chemscore.DEClash.Weighted>
0.0038

> <Gold.Chemscore.DEInternal.Weighted>
1.8520

> <Gold.Chemscore.Rot.Weighted>
8.5256

> <Gold.Chemscore.Internal.Correction.Weighted>
   9.000000E+99

> <Gold.Protein.RotatedTorsions>
[ 6907 6896 6895 6894 ] final -150.84 input  -60.11 | X-H torsion
[ 7974 7965 7964 7962 ] final   15.99 input  175.53 | X-H torsion
[ 8008 7997 7996 7995 ] final  117.53 input   59.86 | X-H torsion
[ 10167 10162 10161 10158 ] final  -70.49 input  -65.29 | X-H torsion
[ 10718 10713 10712 10709 ] final  -52.88 input   66.30 | X-H torsion
[ 10763 10752 10751 10750 ] final   54.24 input  -60.55 | X-H torsion
[ 11005 11000 10999 10996 ] final  124.46 input  -57.11 | X-H torsion

> <Gold.Protein.ActiveResidues>
 VAL166  LYS551  ARG553  GLY616  TRP617  ASP618  TYR619  PRO620  LYS621  CYS622 
 ASP623  PHE694  ASN695  SER759  ASP760  ASP761  ALA762  ILE779  LEU786  VAL792 
 PHE793  MET794  SER795  GLU796  ALA797  LYS798  CYS799  TRP800  GLU811  SER814 

> <Gold.Protein.RotatedAtoms>
  151.2043  133.4592  159.2596 H   0  0  0  0  0  0  0  0  0  0  0  0  # atno 6907 bound_to 6896
  151.1038  134.9988  159.8471 H   0  0  0  0  0  0  0  0  0  0  0  0  # atno 6908 bound_to 6896
  152.5445  134.1968  159.8749 H   0  0  0  0  0  0  0  0  0  0  0  0  # atno 6909 bound_to 6896
  146.2263  139.8814  142.8570 H   0  0  0  0  0  0  0  0  0  0  0  0  # atno 7974 bound_to 7965
  156.2499  140.2894  156.0693 H   0  0  0  0  0  0  0  0  0  0  0  0  # atno 8008 bound_to 7997
  155.1689  140.0401  157.2876 H   0  0  0  0  0  0  0  0  0  0  0  0  # atno 8009 bound_to 7997
  154.6340  140.2506  155.7407 H   0  0  0  0  0  0  0  0  0  0  0  0  # atno 8010 bound_to 7997
  140.5348  143.2319  151.7197 H   0  0  0  0  0  0  0  0  0  0  0  0  # atno 10167 bound_to 10162
  156.1583  130.4150  149.9834 H   0  0  0  0  0  0  0  0  0  0  0  0  # atno 10718 bound_to 10713
  152.9803  135.5751  154.4873 H   0  0  0  0  0  0  0  0  0  0  0  0  # atno 10763 bound_to 10752
  154.4412  135.2776  155.1848 H   0  0  0  0  0  0  0  0  0  0  0  0  # atno 10764 bound_to 10752
  154.3515  135.6208  153.5699 H   0  0  0  0  0  0  0  0  0  0  0  0  # atno 10765 bound_to 10752
  139.9360  134.9639  156.8412 H   0  0  0  0  0  0  0  0  0  0  0  0  # atno 11005 bound_to 11000
  145.2509  141.0043  143.3882 LP  0  0  0  0  0  0  0  0  0  0  0  0  # atno 17320 bound_to 7965
  144.9375  139.4227  143.6465 LP  0  0  0  0  0  0  0  0  0  0  0  0  # atno 17321 bound_to 7965
  139.4967  144.4059  152.0132 LP  0  0  0  0  0  0  0  0  0  0  0  0  # atno 17342 bound_to 10162
  140.3164  144.3479  150.6020 LP  0  0  0  0  0  0  0  0  0  0  0  0  # atno 17343 bound_to 10162
  156.7671  130.9172  151.3643 LP  0  0  0  0  0  0  0  0  0  0  0  0  # atno 17370 bound_to 10713
  157.6712  130.9053  150.0045 LP  0  0  0  0  0  0  0  0  0  0  0  0  # atno 17371 bound_to 10713
  140.6076  134.0113  155.7563 LP  0  0  0  0  0  0  0  0  0  0  0  0  # atno 17394 bound_to 11000
  141.0973  133.9823  157.3138 LP  0  0  0  0  0  0  0  0  0  0  0  0  # atno 17395 bound_to 11000

$$$$
