AV-unprocessed.smi:2090|AV-procd|sdf|8535|dock2
  -GOLD-   2272011253D 1   1.00000     0.00000
 Structure written by MMmdl.
 41 42  0  0  0  0  0  0  0  0  3 V2000
  151.1632  141.0899  155.5215 C   0  0  0  0  0  0  0  0  0  0  0  0
  151.4760  139.6611  155.2345 C   0  0  0  0  0  0  0  0  0  0  0  0
  150.6930  138.5815  154.9388 C   0  0  0  0  0  0  0  0  0  0  0  0
  151.6368  137.5315  154.7724 C   0  0  0  0  0  0  0  0  0  0  0  0
  151.3486  136.2540  154.4787 N   0  5  0  0  0  0  0  0  0  0  0  0
  150.3469  135.6161  155.1258 C   0  0  0  0  0  0  0  0  0  0  0  0
  150.3600  135.2264  156.2956 O   0  0  0  0  0  0  0  0  0  0  0  0
  149.2611  135.4135  154.3681 N   0  0  0  0  0  0  0  0  0  0  0  0
  148.0426  134.7475  154.8061 C   0  0  0  0  0  0  0  0  0  0  0  0
  146.8086  135.4941  154.2773 C   0  0  0  0  0  0  0  0  0  0  0  0
  146.4642  135.1009  152.8880 N   0  3  2  0  0  0  0  0  0  0  0  0
  145.1637  135.6706  152.4505 C   0  0  0  0  0  0  0  0  0  0  0  0
  144.8913  135.3671  150.9663 C   0  0  0  0  0  0  0  0  0  0  0  0
  144.9476  133.8596  150.6610 C   0  0  2  0  0  0  0  0  0  0  0  0
  143.7176  133.0994  151.1874 C   0  0  0  0  0  0  0  0  0  0  0  0
  146.2749  133.2818  151.1850 C   0  0  0  0  0  0  0  0  0  0  0  0
  146.5212  133.6318  152.6641 C   0  0  0  0  0  0  0  0  0  0  0  0
  152.8813  137.9343  154.9686 N   0  0  0  0  0  0  0  0  0  0  0  0
  152.7873  139.3011  155.2574 O   0  0  0  0  0  0  0  0  0  0  0  0
  150.2972  141.1709  156.1785 H   0  0  0  0  0  0  0  0  0  0  0  0
  150.9396  141.6267  154.5998 H   0  0  0  0  0  0  0  0  0  0  0  0
  152.0031  141.5863  156.0080 H   0  0  0  0  0  0  0  0  0  0  0  0
  149.6175  138.5479  154.8513 H   0  0  0  0  0  0  0  0  0  0  0  0
  149.2891  135.7509  153.4171 H   0  0  0  0  0  0  0  0  0  0  0  0
  148.0323  133.7174  154.4459 H   0  0  0  0  0  0  0  0  0  0  0  0
  148.0484  134.7101  155.8953 H   0  0  0  0  0  0  0  0  0  0  0  0
  145.9488  135.3406  154.9315 H   0  0  0  0  0  0  0  0  0  0  0  0
  147.0281  136.5629  154.3043 H   0  0  0  0  0  0  0  0  0  0  0  0
  144.3617  135.2781  153.0770 H   0  0  0  0  0  0  0  0  0  0  0  0
  145.1709  136.7519  152.5927 H   0  0  0  0  0  0  0  0  0  0  0  0
  143.9249  135.7773  150.6710 H   0  0  0  0  0  0  0  0  0  0  0  0
  145.6360  135.8830  150.3583 H   0  0  0  0  0  0  0  0  0  0  0  0
  144.9416  133.7424  149.5765 H   0  0  0  0  0  0  0  0  0  0  0  0
  143.6353  133.1484  152.2728 H   0  0  0  0  0  0  0  0  0  0  0  0
  143.7609  132.0465  150.9078 H   0  0  0  0  0  0  0  0  0  0  0  0
  142.7980  133.5096  150.7692 H   0  0  0  0  0  0  0  0  0  0  0  0
  146.2966  132.2002  151.0478 H   0  0  0  0  0  0  0  0  0  0  0  0
  147.0976  133.6777  150.5876 H   0  0  0  0  0  0  0  0  0  0  0  0
  147.4967  133.2438  152.9547 H   0  0  0  0  0  0  0  0  0  0  0  0
  145.7879  133.1349  153.3005 H   0  0  0  0  0  0  0  0  0  0  0  0
  147.1663  135.5176  152.2934 H   0  0  0  0  0  0  0  0  0  0  0  0
  1  2  1  0  0  0  0
  1 20  1  0  0  0  0
  1 21  1  0  0  0  0
  1 22  1  0  0  0  0
  2 19  1  0  0  0  0
  2  3  2  0  0  0  0
  3  4  1  0  0  0  0
  3 23  1  0  0  0  0
  4  5  1  0  0  0  0
  4 18  2  0  0  0  0
  5  6  1  0  0  0  0
  6  7  2  0  0  0  0
  6  8  1  0  0  0  0
  8  9  1  0  0  0  0
  8 24  1  0  0  0  0
  9 10  1  0  0  0  0
  9 25  1  0  0  0  0
  9 26  1  0  0  0  0
 10 11  1  0  0  0  0
 10 27  1  0  0  0  0
 10 28  1  0  0  0  0
 11 17  1  0  0  0  0
 11 12  1  0  0  0  0
 11 41  1  0  0  0  0
 12 13  1  0  0  0  0
 12 29  1  0  0  0  0
 12 30  1  0  0  0  0
 13 14  1  0  0  0  0
 13 31  1  0  0  0  0
 13 32  1  0  0  0  0
 14 15  1  0  0  0  0
 14 16  1  0  0  0  0
 14 33  1  0  0  0  0
 15 34  1  0  0  0  0
 15 35  1  0  0  0  0
 15 36  1  0  0  0  0
 16 17  1  0  0  0  0
 16 37  1  0  0  0  0
 16 38  1  0  0  0  0
 17 39  1  0  0  0  0
 17 40  1  0  0  0  0
 18 19  1  0  0  0  0
M  CHG  1   5  -1
M  CHG  1  11   1
M  END
> <s_m_source_file>
AV-unprocessed.smi

> <i_m_source_file_index>
2090

> <i_lp_mmshare_version>
43012

> <i_f3d_flags>
0

> <s_epik_input>
W0NIM11jMVtjSF1jKG5vMSlbTkhdQyg9TylbTkhdW0NIMl1bQ0gyXU4yW0NIMl1bQ0gyXVtDSF0oW0NIM10pW0NIMl1bQ0gyXTI=

> <s_epik_cmdline>
J2VwaWtfcHl0aG9uJywgJy1waCcsICc3LjAnLCAnLXRuJywgJzgnLCAnLW1hJywgJzIwMCcsICctbWV0YWxfYmluZGluZycsICctaW1hZScsICc8aW5maWxlLm1hZT4nLCAnLW9tYWUnLCAnPG91dGZpbGUubWFlPic=

> <r_epik_Ionization_Penalty>
6.22503

> <r_epik_Ionization_Penalty_Charging>
6.22494

> <r_epik_Ionization_Penalty_Neutral>
9.3589e-05

> <r_epik_State_Penalty>
6.22491

> <r_epik_Charging_Adjusted_Penalty>
12.4498

> <i_epik_Tot_Q>
0

> <i_epik_Tot_abs_Q>
2

> <r_epik_Metal_State_Penalty>
2.16853

> <b_epik_Metal_Only>
1

> <s_lp_Force_Field>
OPLS_2005

> <r_lp_Energy>
7.06079

> <b_lp_Chiralities_Consistent>
1

> <s_lp_Variant>
AV-unprocessed.smi:2090-4

> <Gold.Version>
5.8.1

> <Gold.Id.Protein>
6NUR|6NUR_protein|mol2

> <Gold.PLP.Fitness>
48.2719

> <Gold.PLP.PLP>
-33.0349

> <Gold.PLP.part.hbond>
-4.7084

> <Gold.PLP.part.metal>
0.0000

> <Gold.PLP.part.buried>
-4.6264

> <Gold.PLP.part.nonpolar>
-24.2729

> <Gold.PLP.part.repulsive>
0.4613

> <Gold.PLP.ligand.clash>
0.0000

> <Gold.PLP.ligand.torsion>
1.3957

> <Gold.PLP.Chemscore.Hbond>
6.0000

> <Gold.PLP.Chemscore.CHOScore>
0.0000

> <Gold.PLP.Chemscore.Metal>
0.0000

> <Gold.Chemscore.Hbonds>
donor molecule, donor type, donor heavy atom, donor atom, acceptor molecule, acceptor atom, score
      L1  H     8    24       P1  7948  1.00
      L1  H    11    41       P1  7948  2.00
      P1  H  7997  8008       L1    19  1.00
      P1  H 10752 10764       L1     5  2.00

> <Gold.PLP.Chemscore.Internal.Correction>
0.0284

> <Gold.Rescore>
     Score         DG    S(hbond)    S(metal)    S(lipo)     H(rot)  DE(clash)    DE(int)     intcor
     17.14     -18.59       3.15        0.00      55.92       1.54       0.00       1.45       ----

> <Gold.Chemscore.Fitness>
17.1407

> <Gold.Chemscore.DG>
-18.5879

> <Gold.Chemscore.ZeroCoef>
-5.4800

> <Gold.Chemscore.Hbond>
3.1466

> <Gold.Chemscore.Metal>
0.0000

> <Gold.Chemscore.Lipo>
55.9232

> <Gold.Chemscore.Internal_Hbond>
0.0000

> <Gold.Chemscore.DEClash>
0.0000

> <Gold.Chemscore.DEInternal>
1.4472

> <Gold.Chemscore.Rot>
1.5409

> <Gold.Chemscore.Internal.Correction>
   9.000000E+99

> <Gold.Chemscore.Hbonds>
donor molecule, donor type, donor heavy atom, donor atom, acceptor molecule, acceptor atom, score
      L1  H     8    24       P1  7948  0.50
      L1  H    11    41       P1  7948  0.97
      P1  H  7997  8008       L1    19  0.87
      P1  H 10752 10764       L1     5  0.25

> <Gold.Chemscore.Hbond.Weighted>
-10.5095

> <Gold.Chemscore.Metal.Weighted>
-0.0000

> <Gold.Chemscore.Lipo.Weighted>
-6.5430

> <Gold.Chemscore.Internal_Hbond.Weighted>
0.0000

> <Gold.Chemscore.DEClash.Weighted>
0.0000

> <Gold.Chemscore.DEInternal.Weighted>
1.4472

> <Gold.Chemscore.Rot.Weighted>
3.9446

> <Gold.Chemscore.Internal.Correction.Weighted>
   9.000000E+99

> <Gold.Protein.RotatedTorsions>
[ 6907 6896 6895 6894 ] final  170.70 input  -60.11 | X-H torsion
[ 7974 7965 7964 7962 ] final -170.86 input  175.53 | X-H torsion
[ 8008 7997 7996 7995 ] final   -8.63 input   59.86 | X-H torsion
[ 10167 10162 10161 10158 ] final -136.79 input  -65.29 | X-H torsion
[ 10718 10713 10712 10709 ] final  -77.69 input   66.30 | X-H torsion
[ 10763 10752 10751 10750 ] final  -68.19 input  -60.55 | X-H torsion
[ 11005 11000 10999 10996 ] final  -95.91 input  -57.11 | X-H torsion

> <Gold.Protein.ActiveResidues>
 VAL166  LYS551  ARG553  GLY616  TRP617  ASP618  TYR619  PRO620  LYS621  CYS622 
 ASP623  PHE694  ASN695  SER759  ASP760  ASP761  ALA762  ILE779  LEU786  VAL792 
 PHE793  MET794  SER795  GLU796  ALA797  LYS798  CYS799  TRP800  GLU811  SER814 

> <Gold.Protein.RotatedAtoms>
  151.8120  133.3383  159.3557 H   0  0  0  0  0  0  0  0  0  0  0  0  # atno 6907 bound_to 6896
  150.7323  134.5655  159.5873 H   0  0  0  0  0  0  0  0  0  0  0  0  # atno 6908 bound_to 6896
  152.3068  134.7546  160.0397 H   0  0  0  0  0  0  0  0  0  0  0  0  # atno 6909 bound_to 6896
  144.7164  140.2009  143.6338 H   0  0  0  0  0  0  0  0  0  0  0  0  # atno 7974 bound_to 7965
  154.5723  140.2376  155.8173 H   0  0  0  0  0  0  0  0  0  0  0  0  # atno 8008 bound_to 7997
  156.2116  140.3024  155.9704 H   0  0  0  0  0  0  0  0  0  0  0  0  # atno 8009 bound_to 7997
  155.2689  140.0417  157.2995 H   0  0  0  0  0  0  0  0  0  0  0  0  # atno 8010 bound_to 7997
  139.8642  143.7038  152.2647 H   0  0  0  0  0  0  0  0  0  0  0  0  # atno 10167 bound_to 10162
  156.0138  130.4498  150.3384 H   0  0  0  0  0  0  0  0  0  0  0  0  # atno 10718 bound_to 10713
  154.3854  135.6064  153.5814 H   0  0  0  0  0  0  0  0  0  0  0  0  # atno 10763 bound_to 10752
  152.9788  135.5871  154.4360 H   0  0  0  0  0  0  0  0  0  0  0  0  # atno 10764 bound_to 10752
  154.4136  135.2844  155.1999 H   0  0  0  0  0  0  0  0  0  0  0  0  # atno 10765 bound_to 10752
  141.1427  133.8060  157.0499 H   0  0  0  0  0  0  0  0  0  0  0  0  # atno 11005 bound_to 11000
  145.8681  139.2257  143.1677 LP  0  0  0  0  0  0  0  0  0  0  0  0  # atno 17320 bound_to 7965
  146.0111  140.8435  142.9970 LP  0  0  0  0  0  0  0  0  0  0  0  0  # atno 17321 bound_to 7965
  139.7345  144.7574  151.0750 LP  0  0  0  0  0  0  0  0  0  0  0  0  # atno 17342 bound_to 10162
  140.7770  143.5048  150.9726 LP  0  0  0  0  0  0  0  0  0  0  0  0  # atno 17343 bound_to 10162
  157.1480  131.0313  151.2898 LP  0  0  0  0  0  0  0  0  0  0  0  0  # atno 17370 bound_to 10713
  157.4416  130.7547  149.7074 LP  0  0  0  0  0  0  0  0  0  0  0  0  # atno 17371 bound_to 10713
  140.0638  134.9740  157.1351 LP  0  0  0  0  0  0  0  0  0  0  0  0  # atno 17394 bound_to 11000
  140.3809  134.2288  155.7171 LP  0  0  0  0  0  0  0  0  0  0  0  0  # atno 17395 bound_to 11000

$$$$
