AV-unprocessed.smi:2391|AV-procd|sdf|9482|dock5
  -GOLD-   2272013113D 1   1.00000     0.00000
 Structure written by MMmdl.
 35 36  0  0  0  0  0  0  0  0  1 V2000
  145.6495  135.7754  154.7444 O   0  0  0  0  0  0  0  0  0  0  0  0
  146.5358  135.9306  153.9042 C   0  0  0  0  0  0  0  0  0  0  0  0
  147.1294  137.1003  153.6095 N   0  0  0  0  0  0  0  0  0  0  0  0
  146.8748  138.3776  154.1744 C   0  0  0  0  0  0  0  0  0  0  0  0
  147.4402  139.4685  153.4802 C   0  0  0  0  0  0  0  0  0  0  0  0
  147.2251  140.7628  153.9834 C   0  0  0  0  0  0  0  0  0  0  0  0
  146.4554  140.8785  155.1536 C   0  0  0  0  0  0  0  0  0  0  0  0
  145.9337  139.8057  155.7865 N   0  0  0  0  0  0  0  0  0  0  0  0
  146.1421  138.5768  155.3015 N   0  0  0  0  0  0  0  0  0  0  0  0
  147.0327  134.9353  153.1551 N   0  0  0  0  0  0  0  0  0  0  0  0
  146.6334  133.5274  153.2178 C   0  0  1  0  0  0  0  0  0  0  0  0
  146.0973  133.0759  151.8341 C   0  0  0  0  0  0  0  0  0  0  0  0
  145.1064  134.0537  151.1889 C   0  0  0  0  0  0  0  0  0  0  0  0
  144.4103  133.2383  150.0991 C   0  0  0  0  0  0  0  0  0  0  0  0
  144.4042  131.7899  150.6036 C   0  0  0  0  0  0  0  0  0  0  0  0
  145.3124  131.7564  151.8408 C   0  0  0  0  0  0  0  0  0  0  0  0
  147.8341  132.6969  153.7256 C   0  0  0  0  0  0  0  0  0  0  0  0
  148.2210  133.1478  154.9198 F   0  0  0  0  0  0  0  0  0  0  0  0
  147.5055  131.4132  153.8644 F   0  0  0  0  0  0  0  0  0  0  0  0
  148.8615  132.7918  152.8807 F   0  0  0  0  0  0  0  0  0  0  0  0
  147.8440  137.0751  152.8973 H   0  0  0  0  0  0  0  0  0  0  0  0
  148.0242  139.3203  152.5835 H   0  0  0  0  0  0  0  0  0  0  0  0
  147.6336  141.6330  153.4915 H   0  0  0  0  0  0  0  0  0  0  0  0
  146.2541  141.8456  155.5899 H   0  0  0  0  0  0  0  0  0  0  0  0
  147.7599  135.1623  152.4929 H   0  0  0  0  0  0  0  0  0  0  0  0
  145.8288  133.4095  153.9460 H   0  0  0  0  0  0  0  0  0  0  0  0
  146.9394  132.9616  151.1494 H   0  0  0  0  0  0  0  0  0  0  0  0
  144.3717  134.3803  151.9265 H   0  0  0  0  0  0  0  0  0  0  0  0
  145.5908  134.9444  150.7874 H   0  0  0  0  0  0  0  0  0  0  0  0
  143.4072  133.6093  149.8870 H   0  0  0  0  0  0  0  0  0  0  0  0
  144.9851  133.2994  149.1741 H   0  0  0  0  0  0  0  0  0  0  0  0
  143.3955  131.4648  150.8612 H   0  0  0  0  0  0  0  0  0  0  0  0
  144.7741  131.1179  149.8282 H   0  0  0  0  0  0  0  0  0  0  0  0
  145.9684  130.8856  151.8361 H   0  0  0  0  0  0  0  0  0  0  0  0
  144.6937  131.6963  152.7374 H   0  0  0  0  0  0  0  0  0  0  0  0
  1  2  2  0  0  0  0
  2  3  1  0  0  0  0
  2 10  1  0  0  0  0
  3  4  1  0  0  0  0
  3 21  1  0  0  0  0
  4  9  1  0  0  0  0
  4  5  2  0  0  0  0
  5  6  1  0  0  0  0
  5 22  1  0  0  0  0
  6  7  2  0  0  0  0
  6 23  1  0  0  0  0
  7  8  1  0  0  0  0
  7 24  1  0  0  0  0
  8  9  2  0  0  0  0
 10 11  1  0  0  0  0
 10 25  1  0  0  0  0
 11 12  1  0  0  0  0
 11 17  1  0  0  0  0
 11 26  1  0  0  0  0
 12 16  1  0  0  0  0
 12 13  1  0  0  0  0
 12 27  1  0  0  0  0
 13 14  1  0  0  0  0
 13 28  1  0  0  0  0
 13 29  1  0  0  0  0
 14 15  1  0  0  0  0
 14 30  1  0  0  0  0
 14 31  1  0  0  0  0
 15 16  1  0  0  0  0
 15 32  1  0  0  0  0
 15 33  1  0  0  0  0
 16 34  1  0  0  0  0
 16 35  1  0  0  0  0
 17 18  1  0  0  0  0
 17 19  1  0  0  0  0
 17 20  1  0  0  0  0
M  END
> <s_m_source_file>
AV-unprocessed.smi

> <i_m_source_file_index>
2391

> <i_lp_mmshare_version>
43012

> <i_f3d_flags>
0

> <s_epik_input>
W0NIMl0xW0NIMl1bQ0gyXVtDSDJdW0NIXTFbQ0BIXShDKEYpKEYpRilbTkhdQyg9TylbTkhdYzJbY0hdW2NIXVtjSF1ubjI=

> <s_epik_cmdline>
J2VwaWtfcHl0aG9uJywgJy1waCcsICc3LjAnLCAnLXRuJywgJzgnLCAnLW1hJywgJzIwMCcsICctbWV0YWxfYmluZGluZycsICctaW1hZScsICc8aW5maWxlLm1hZT4nLCAnLW9tYWUnLCAnPG91dGZpbGUubWFlPic=

> <r_lp_tautomer_probability>
1

> <r_epik_Ionization_Penalty>
0.00359591

> <r_epik_Ionization_Penalty_Charging>
0

> <r_epik_Ionization_Penalty_Neutral>
0.00359591

> <r_epik_State_Penalty>
0.0123658

> <r_epik_Charging_Adjusted_Penalty>
0.0123658

> <i_epik_Tot_Q>
0

> <i_epik_Tot_abs_Q>
0

> <r_epik_Metal_State_Penalty>
0.0410426

> <b_epik_Metal_Only>
0

> <s_lp_Force_Field>
OPLS_2005

> <r_lp_Energy>
31.4034

> <b_lp_Chiralities_Consistent>
1

> <s_lp_Variant>
AV-unprocessed.smi:2391-2

> <Gold.Version>
5.8.1

> <Gold.Id.Protein>
6NUR|6NUR_protein|mol2

> <Gold.PLP.Fitness>
34.6670

> <Gold.PLP.PLP>
-28.9578

> <Gold.PLP.part.hbond>
-2.0000

> <Gold.PLP.part.metal>
0.0000

> <Gold.PLP.part.buried>
-3.0271

> <Gold.PLP.part.nonpolar>
-24.3890

> <Gold.PLP.part.repulsive>
0.1922

> <Gold.PLP.ligand.clash>
0.0000

> <Gold.PLP.ligand.torsion>
0.2379

> <Gold.PLP.Chemscore.Hbond>
1.9600

> <Gold.PLP.Chemscore.CHOScore>
0.0000

> <Gold.PLP.Chemscore.Metal>
0.0000

> <Gold.Chemscore.Hbonds>
donor molecule, donor type, donor heavy atom, donor atom, acceptor molecule, acceptor atom, score
      L1  H     3    21       P1  7948  1.00
      L1  H    10    25       P1  7948  1.00

> <Gold.PLP.Chemscore.Internal.Correction>
0.3051

> <Gold.Rescore>
     Score         DG    S(hbond)    S(metal)    S(lipo)     H(rot)  DE(clash)    DE(int)     intcor
     14.50     -15.89       1.91        0.00      63.46       1.33       0.01       1.39       ----

> <Gold.Chemscore.Fitness>
14.4951

> <Gold.Chemscore.DG>
-15.8886

> <Gold.Chemscore.ZeroCoef>
-5.4800

> <Gold.Chemscore.Hbond>
1.9131

> <Gold.Chemscore.Metal>
0.0000

> <Gold.Chemscore.Lipo>
63.4564

> <Gold.Chemscore.Internal_Hbond>
0.0000

> <Gold.Chemscore.DEClash>
0.0074

> <Gold.Chemscore.DEInternal>
1.3861

> <Gold.Chemscore.Rot>
1.3304

> <Gold.Chemscore.Internal.Correction>
   9.000000E+99

> <Gold.Chemscore.Hbonds>
donor molecule, donor type, donor heavy atom, donor atom, acceptor molecule, acceptor atom, score
      L1  H     3    21       P1  7948  0.97
      L1  H    10    25       P1  7948  0.96

> <Gold.Chemscore.Hbond.Weighted>
-6.3899

> <Gold.Chemscore.Metal.Weighted>
-0.0000

> <Gold.Chemscore.Lipo.Weighted>
-7.4244

> <Gold.Chemscore.Internal_Hbond.Weighted>
0.0000

> <Gold.Chemscore.DEClash.Weighted>
0.0074

> <Gold.Chemscore.DEInternal.Weighted>
1.3861

> <Gold.Chemscore.Rot.Weighted>
3.4057

> <Gold.Chemscore.Internal.Correction.Weighted>
   9.000000E+99

> <Gold.Protein.RotatedTorsions>
[ 6907 6896 6895 6894 ] final -146.39 input  -60.11 | X-H torsion
[ 7974 7965 7964 7962 ] final  -32.16 input  175.53 | X-H torsion
[ 8008 7997 7996 7995 ] final  -73.50 input   59.86 | X-H torsion
[ 10167 10162 10161 10158 ] final   13.98 input  -65.29 | X-H torsion
[ 10718 10713 10712 10709 ] final    3.65 input   66.30 | X-H torsion
[ 10763 10752 10751 10750 ] final   35.83 input  -60.55 | X-H torsion
[ 11005 11000 10999 10996 ] final -140.17 input  -57.11 | X-H torsion

> <Gold.Protein.ActiveResidues>
 VAL166  LYS551  ARG553  GLY616  TRP617  ASP618  TYR619  PRO620  LYS621  CYS622 
 ASP623  PHE694  ASN695  SER759  ASP760  ASP761  ALA762  ILE779  LEU786  VAL792 
 PHE793  MET794  SER795  GLU796  ALA797  LYS798  CYS799  TRP800  GLU811  SER814 

> <Gold.Protein.RotatedAtoms>
  151.1410  133.4971  159.2596 H   0  0  0  0  0  0  0  0  0  0  0  0  # atno 6907 bound_to 6896
  151.1655  135.0293  159.8739 H   0  0  0  0  0  0  0  0  0  0  0  0  # atno 6908 bound_to 6896
  152.5462  134.1279  159.8480 H   0  0  0  0  0  0  0  0  0  0  0  0  # atno 6909 bound_to 6896
  146.1012  140.5757  142.8820 H   0  0  0  0  0  0  0  0  0  0  0  0  # atno 7974 bound_to 7965
  154.5253  140.0778  156.8246 H   0  0  0  0  0  0  0  0  0  0  0  0  # atno 8008 bound_to 7997
  155.3489  140.3411  155.4221 H   0  0  0  0  0  0  0  0  0  0  0  0  # atno 8009 bound_to 7997
  156.1725  140.1624  156.8409 H   0  0  0  0  0  0  0  0  0  0  0  0  # atno 8010 bound_to 7997
  140.5966  143.8689  150.6924 H   0  0  0  0  0  0  0  0  0  0  0  0  # atno 10167 bound_to 10162
  156.8809  130.5653  149.5653 H   0  0  0  0  0  0  0  0  0  0  0  0  # atno 10718 bound_to 10713
  153.0102  135.6322  154.1889 H   0  0  0  0  0  0  0  0  0  0  0  0  # atno 10763 bound_to 10752
  154.1631  135.2822  155.3104 H   0  0  0  0  0  0  0  0  0  0  0  0  # atno 10764 bound_to 10752
  154.5966  135.5600  153.7392 H   0  0  0  0  0  0  0  0  0  0  0  0  # atno 10765 bound_to 10752
  140.8448  134.2358  157.4791 H   0  0  0  0  0  0  0  0  0  0  0  0  # atno 11005 bound_to 11000
  144.7434  140.5003  143.6853 LP  0  0  0  0  0  0  0  0  0  0  0  0  # atno 17320 bound_to 7965
  145.5851  139.1491  143.3213 LP  0  0  0  0  0  0  0  0  0  0  0  0  # atno 17321 bound_to 7965
  140.2224  143.3798  152.1632 LP  0  0  0  0  0  0  0  0  0  0  0  0  # atno 17342 bound_to 10162
  139.5262  144.7105  151.5220 LP  0  0  0  0  0  0  0  0  0  0  0  0  # atno 17343 bound_to 10162
  156.0677  130.5717  150.9322 LP  0  0  0  0  0  0  0  0  0  0  0  0  # atno 17370 bound_to 10713
  157.6140  131.0934  150.8743 LP  0  0  0  0  0  0  0  0  0  0  0  0  # atno 17371 bound_to 10713
  139.8703  134.9654  156.4526 LP  0  0  0  0  0  0  0  0  0  0  0  0  # atno 17394 bound_to 11000
  140.8855  133.7886  155.9514 LP  0  0  0  0  0  0  0  0  0  0  0  0  # atno 17395 bound_to 11000

$$$$
