AV-unprocessed.smi:2717|AV-procd|sdf|10485|dock1
  -GOLD-   2272014533D 1   1.00000     0.00000
 Structure written by MMmdl.
 43 44  0  0  0  0  0  0  0  0  1 V2000
  150.1904  141.0624  157.3377 C   0  0  0  0  0  0  0  0  0  0  0  0
  151.1310  140.8050  156.1554 C   0  0  0  0  0  0  0  0  0  0  0  0
  151.0876  139.3895  155.6855 C   0  0  0  0  0  0  0  0  0  0  0  0
  150.2548  138.4726  156.1858 N   0  0  0  0  0  0  0  0  0  0  0  0
  150.3853  137.2293  155.5597 C   0  0  0  0  0  0  0  0  0  0  0  0
  149.5454  136.0695  156.0105 C   0  0  0  0  0  0  0  0  0  0  0  0
  148.0884  136.1326  155.5082 C   0  0  0  0  0  0  0  0  0  0  0  0
  147.9095  135.5121  154.1987 N   0  0  0  0  0  0  0  0  0  0  0  0
  146.9823  134.5909  153.9044 C   0  0  0  0  0  0  0  0  0  0  0  0
  146.1863  134.1272  154.7214 O   0  0  0  0  0  0  0  0  0  0  0  0
  147.0128  134.2536  152.6078 N   0  0  0  0  0  0  0  0  0  0  0  0
  146.0943  133.3232  151.9596 C   0  0  2  0  0  0  0  0  0  0  0  0
  146.5540  133.0688  150.5127 C   0  0  0  0  0  0  0  0  0  0  0  0
  145.5840  132.1354  149.7671 C   0  0  0  0  0  0  0  0  0  0  0  0
  144.1327  132.6504  149.8064 C   0  0  2  0  0  0  0  0  0  0  0  0
  144.0070  133.8103  149.0076 O   0  0  0  0  0  0  0  0  0  0  0  0
  143.6772  132.9516  151.2465 C   0  0  0  0  0  0  0  0  0  0  0  0
  144.6563  133.8800  151.9861 C   0  0  0  0  0  0  0  0  0  0  0  0
  151.3252  137.2225  154.5591 C   0  0  0  0  0  0  0  0  0  0  0  0
  152.0845  138.7782  154.3702 S   0  0  0  0  0  0  0  0  0  0  0  0
  150.2433  142.1034  157.6569 H   0  0  0  0  0  0  0  0  0  0  0  0
  150.4526  140.4379  158.1924 H   0  0  0  0  0  0  0  0  0  0  0  0
  149.1554  140.8477  157.0700 H   0  0  0  0  0  0  0  0  0  0  0  0
  150.8679  141.4571  155.3222 H   0  0  0  0  0  0  0  0  0  0  0  0
  152.1560  141.0527  156.4348 H   0  0  0  0  0  0  0  0  0  0  0  0
  149.9955  135.1329  155.6797 H   0  0  0  0  0  0  0  0  0  0  0  0
  149.5461  136.0208  157.0999 H   0  0  0  0  0  0  0  0  0  0  0  0
  147.4424  135.6014  156.2076 H   0  0  0  0  0  0  0  0  0  0  0  0
  147.7366  137.1650  155.4863 H   0  0  0  0  0  0  0  0  0  0  0  0
  148.5146  135.8332  153.4569 H   0  0  0  0  0  0  0  0  0  0  0  0
  147.7046  134.6932  152.0185 H   0  0  0  0  0  0  0  0  0  0  0  0
  146.1148  132.3711  152.4941 H   0  0  0  0  0  0  0  0  0  0  0  0
  146.6313  134.0160  149.9767 H   0  0  0  0  0  0  0  0  0  0  0  0
  147.5537  132.6325  150.5101 H   0  0  0  0  0  0  0  0  0  0  0  0
  145.9106  132.0016  148.7351 H   0  0  0  0  0  0  0  0  0  0  0  0
  145.6222  131.1473  150.2272 H   0  0  0  0  0  0  0  0  0  0  0  0
  143.4748  131.8950  149.3756 H   0  0  0  0  0  0  0  0  0  0  0  0
  144.8285  133.9617  148.5661 H   0  0  0  0  0  0  0  0  0  0  0  0
  142.6774  133.3874  151.2441 H   0  0  0  0  0  0  0  0  0  0  0  0
  143.5970  132.0134  151.7969 H   0  0  0  0  0  0  0  0  0  0  0  0
  144.3224  134.0121  153.0160 H   0  0  0  0  0  0  0  0  0  0  0  0
  144.6349  134.8702  151.5287 H   0  0  0  0  0  0  0  0  0  0  0  0
  151.6183  136.3966  153.9277 H   0  0  0  0  0  0  0  0  0  0  0  0
  1  2  1  0  0  0  0
  1 21  1  0  0  0  0
  1 22  1  0  0  0  0
  1 23  1  0  0  0  0
  2  3  1  0  0  0  0
  2 24  1  0  0  0  0
  2 25  1  0  0  0  0
  3 20  1  0  0  0  0
  3  4  2  0  0  0  0
  4  5  1  0  0  0  0
  5  6  1  0  0  0  0
  5 19  2  0  0  0  0
  6  7  1  0  0  0  0
  6 26  1  0  0  0  0
  6 27  1  0  0  0  0
  7  8  1  0  0  0  0
  7 28  1  0  0  0  0
  7 29  1  0  0  0  0
  8  9  1  0  0  0  0
  8 30  1  0  0  0  0
  9 10  2  0  0  0  0
  9 11  1  0  0  0  0
 11 12  1  0  0  0  0
 11 31  1  0  0  0  0
 12 18  1  0  0  0  0
 12 13  1  0  0  0  0
 12 32  1  0  0  0  0
 13 14  1  0  0  0  0
 13 33  1  0  0  0  0
 13 34  1  0  0  0  0
 14 15  1  0  0  0  0
 14 35  1  0  0  0  0
 14 36  1  0  0  0  0
 15 16  1  0  0  0  0
 15 17  1  0  0  0  0
 15 37  1  0  0  0  0
 16 38  1  0  0  0  0
 17 18  1  0  0  0  0
 17 39  1  0  0  0  0
 17 40  1  0  0  0  0
 18 41  1  0  0  0  0
 18 42  1  0  0  0  0
 19 20  1  0  0  0  0
 19 43  1  0  0  0  0
M  END
> <s_m_source_file>
AV-unprocessed.smi

> <i_m_source_file_index>
2717

> <i_lp_mmshare_version>
43012

> <i_f3d_flags>
0

> <s_epik_input>
W0NIM11bQ0gyXWMxbmMoW2NIXXMxKVtDSDJdW0NIMl1bTkhdQyg9TylbTkhdW0NAQEhdMltDSDJdW0NIMl1bQ0BASF0oW09IXSlbQ0gyXVtDSDJdMg==

> <s_epik_cmdline>
J2VwaWtfcHl0aG9uJywgJy1waCcsICc3LjAnLCAnLXRuJywgJzgnLCAnLW1hJywgJzIwMCcsICctbWV0YWxfYmluZGluZycsICctaW1hZScsICc8aW5maWxlLm1hZT4nLCAnLW9tYWUnLCAnPG91dGZpbGUubWFlPic=

> <r_epik_Ionization_Penalty>
0.00202099

> <r_epik_Ionization_Penalty_Charging>
0

> <r_epik_Ionization_Penalty_Neutral>
0.00202099

> <r_epik_State_Penalty>
0.00133629

> <r_epik_Charging_Adjusted_Penalty>
0.00133629

> <i_epik_Tot_Q>
0

> <i_epik_Tot_abs_Q>
0

> <r_epik_Metal_State_Penalty>
-0

> <b_epik_Metal_Only>
0

> <s_lp_Force_Field>
OPLS_2005

> <r_lp_Energy>
0.0101123

> <b_lp_Chiralities_Consistent>
1

> <s_lp_Variant>
AV-unprocessed.smi:2717-2

> <Gold.Version>
5.8.1

> <Gold.Id.Protein>
6NUR|6NUR_protein|mol2

> <Gold.PLP.Fitness>
45.5260

> <Gold.PLP.PLP>
-34.5938

> <Gold.PLP.part.hbond>
-4.0000

> <Gold.PLP.part.metal>
0.0000

> <Gold.PLP.part.buried>
-4.1948

> <Gold.PLP.part.nonpolar>
-26.5480

> <Gold.PLP.part.repulsive>
0.0654

> <Gold.PLP.ligand.clash>
0.0000

> <Gold.PLP.ligand.torsion>
0.4717

> <Gold.PLP.Chemscore.Hbond>
2.9440

> <Gold.PLP.Chemscore.CHOScore>
1.0000

> <Gold.PLP.Chemscore.Metal>
0.0000

> <Gold.Chemscore.Hbonds>
donor molecule, donor type, donor heavy atom, donor atom, acceptor molecule, acceptor atom, score
      L1  H     8    30       P1  7948  1.00
      L1  H    11    31       P1  7948  0.93
      L1  H    16    38       P1  7921  1.00
      L1  C    19    43       P1  7949  1.00

> <Gold.PLP.Chemscore.Internal.Correction>
0.0436

> <Gold.Rescore>
     Score         DG    S(hbond)    S(metal)    S(lipo)     H(rot)  DE(clash)    DE(int)     intcor
     18.88     -19.24       2.80        0.00      86.06       2.21       0.01       0.35       ----

> <Gold.Chemscore.Fitness>
18.8792

> <Gold.Chemscore.DG>
-19.2403

> <Gold.Chemscore.ZeroCoef>
-5.4800

> <Gold.Chemscore.Hbond>
2.7979

> <Gold.Chemscore.Metal>
0.0000

> <Gold.Chemscore.Lipo>
86.0591

> <Gold.Chemscore.Internal_Hbond>
0.0000

> <Gold.Chemscore.DEClash>
0.0147

> <Gold.Chemscore.DEInternal>
0.3464

> <Gold.Chemscore.Rot>
2.2084

> <Gold.Chemscore.Internal.Correction>
   9.000000E+99

> <Gold.Chemscore.Hbonds>
donor molecule, donor type, donor heavy atom, donor atom, acceptor molecule, acceptor atom, score
      L1  H     8    30       P1  7948  0.99
      L1  H    11    31       P1  7948  0.49
      L1  H    16    38       P1  7921  0.99

> <Gold.Chemscore.Hbond.Weighted>
-9.3449

> <Gold.Chemscore.Metal.Weighted>
-0.0000

> <Gold.Chemscore.Lipo.Weighted>
-10.0689

> <Gold.Chemscore.Internal_Hbond.Weighted>
0.0000

> <Gold.Chemscore.DEClash.Weighted>
0.0147

> <Gold.Chemscore.DEInternal.Weighted>
0.3464

> <Gold.Chemscore.Rot.Weighted>
5.6535

> <Gold.Chemscore.Internal.Correction.Weighted>
   9.000000E+99

> <Gold.Protein.RotatedTorsions>
[ 6907 6896 6895 6894 ] final  -85.15 input  -60.11 | X-H torsion
[ 7974 7965 7964 7962 ] final  -97.59 input  175.53 | X-H torsion
[ 8008 7997 7996 7995 ] final  -40.70 input   59.86 | X-H torsion
[ 10167 10162 10161 10158 ] final   45.00 input  -65.29 | X-H torsion
[ 10718 10713 10712 10709 ] final   17.20 input   66.30 | X-H torsion
[ 10763 10752 10751 10750 ] final  -15.15 input  -60.55 | X-H torsion
[ 11005 11000 10999 10996 ] final -112.45 input  -57.11 | X-H torsion

> <Gold.Protein.ActiveResidues>
 VAL166  LYS551  ARG553  GLY616  TRP617  ASP618  TYR619  PRO620  LYS621  CYS622 
 ASP623  PHE694  ASN695  SER759  ASP760  ASP761  ALA762  ILE779  LEU786  VAL792 
 PHE793  MET794  SER795  GLU796  ALA797  LYS798  CYS799  TRP800  GLU811  SER814 

> <Gold.Protein.RotatedAtoms>
  150.6872  134.3249  159.4801 H   0  0  0  0  0  0  0  0  0  0  0  0  # atno 6907 bound_to 6896
  152.1120  134.9265  160.0575 H   0  0  0  0  0  0  0  0  0  0  0  0  # atno 6908 bound_to 6896
  152.0504  133.3982  159.4411 H   0  0  0  0  0  0  0  0  0  0  0  0  # atno 6909 bound_to 6896
  145.3317  140.9443  143.2658 H   0  0  0  0  0  0  0  0  0  0  0  0  # atno 7974 bound_to 7965
  154.4010  140.1518  156.3070 H   0  0  0  0  0  0  0  0  0  0  0  0  # atno 8008 bound_to 7997
  155.8649  140.3451  155.5760 H   0  0  0  0  0  0  0  0  0  0  0  0  # atno 8009 bound_to 7997
  155.7839  140.0847  157.2035 H   0  0  0  0  0  0  0  0  0  0  0  0  # atno 8010 bound_to 7997
  140.3285  144.2617  150.6171 H   0  0  0  0  0  0  0  0  0  0  0  0  # atno 10167 bound_to 10162
  157.0788  130.6379  149.5822 H   0  0  0  0  0  0  0  0  0  0  0  0  # atno 10718 bound_to 10713
  153.5389  135.7013  153.5646 H   0  0  0  0  0  0  0  0  0  0  0  0  # atno 10763 bound_to 10752
  153.3620  135.3967  155.1725 H   0  0  0  0  0  0  0  0  0  0  0  0  # atno 10764 bound_to 10752
  154.8676  135.3791  154.4892 H   0  0  0  0  0  0  0  0  0  0  0  0  # atno 10765 bound_to 10752
  141.0674  133.9436  157.2552 H   0  0  0  0  0  0  0  0  0  0  0  0  # atno 11005 bound_to 11000
  144.8859  139.4840  143.6701 LP  0  0  0  0  0  0  0  0  0  0  0  0  # atno 17320 bound_to 7965
  146.3043  139.7528  142.9068 LP  0  0  0  0  0  0  0  0  0  0  0  0  # atno 17321 bound_to 7965
  140.5418  143.2222  151.8071 LP  0  0  0  0  0  0  0  0  0  0  0  0  # atno 17342 bound_to 10162
  139.4861  144.4590  151.9564 LP  0  0  0  0  0  0  0  0  0  0  0  0  # atno 17343 bound_to 10162
  155.9929  130.4989  150.7361 LP  0  0  0  0  0  0  0  0  0  0  0  0  # atno 17370 bound_to 10713
  157.4817  131.0903  151.0528 LP  0  0  0  0  0  0  0  0  0  0  0  0  # atno 17371 bound_to 10713
  139.9490  135.0179  156.8937 LP  0  0  0  0  0  0  0  0  0  0  0  0  # atno 17394 bound_to 11000
  140.5745  134.0412  155.7442 LP  0  0  0  0  0  0  0  0  0  0  0  0  # atno 17395 bound_to 11000

$$$$
