AV-unprocessed.smi:3188|AV-procd|sdf|12185|dock2
  -GOLD-   2272018 23D 1   1.00000     0.00000
 Structure written by MMmdl.
 40 41  0  0  0  0  0  0  0  0  2 V2000
  151.7165  139.8352  157.7777 C   0  0  0  0  0  0  0  0  0  0  0  0
  152.0989  140.9992  158.6781 C   0  0  0  0  0  0  0  0  0  0  0  0
  152.8054  140.7671  159.8009 C   0  0  0  0  0  0  0  0  0  0  0  0
  153.3057  141.8463  160.7327 C   0  0  0  0  0  0  0  0  0  0  0  0
  153.3635  143.2008  160.0229 C   0  0  0  0  0  0  0  0  0  0  0  0
  152.0443  143.5108  159.2973 C   0  0  1  0  0  0  0  0  0  0  0  0
  152.1181  144.9229  158.6846 C   0  0  0  0  0  0  0  0  0  0  0  0
  151.6755  142.4193  158.2449 C   0  0  2  0  0  0  0  0  0  0  0  0
  150.1689  142.5163  157.8857 C   0  0  0  0  0  0  0  0  0  0  0  0
  149.8758  142.0445  156.5176 N   0  3  0  0  0  0  0  0  0  0  0  0
  149.1194  140.7780  156.4564 C   0  0  0  0  0  0  0  0  0  0  0  0
  149.3324  140.0615  155.1136 C   0  0  0  0  0  0  0  0  0  0  0  0
  150.6655  139.4956  155.0105 N   0  0  0  0  0  0  0  0  0  0  0  0
  151.0307  138.1692  154.9123 C   0  0  0  0  0  0  0  0  0  0  0  0
  152.3951  138.2181  154.8744 C   0  0  0  0  0  0  0  0  0  0  0  0
  152.7966  139.5505  154.9520 N   0  0  0  0  0  0  0  0  0  0  0  0
  151.7489  140.3086  155.0273 N   0  0  0  0  0  0  0  0  0  0  0  0
  152.0005  140.0392  156.7450 H   0  0  0  0  0  0  0  0  0  0  0  0
  150.6446  139.6431  157.8205 H   0  0  0  0  0  0  0  0  0  0  0  0
  152.2205  138.9166  158.0805 H   0  0  0  0  0  0  0  0  0  0  0  0
  153.0622  139.7543  160.0767 H   0  0  0  0  0  0  0  0  0  0  0  0
  152.6490  141.8899  161.6020 H   0  0  0  0  0  0  0  0  0  0  0  0
  154.2986  141.5765  161.0931 H   0  0  0  0  0  0  0  0  0  0  0  0
  153.5923  143.9800  160.7512 H   0  0  0  0  0  0  0  0  0  0  0  0
  154.1840  143.2006  159.3035 H   0  0  0  0  0  0  0  0  0  0  0  0
  151.2628  143.5225  160.0589 H   0  0  0  0  0  0  0  0  0  0  0  0
  152.8740  144.9743  157.9004 H   0  0  0  0  0  0  0  0  0  0  0  0
  152.3819  145.6621  159.4417 H   0  0  0  0  0  0  0  0  0  0  0  0
  151.1707  145.2406  158.2524 H   0  0  0  0  0  0  0  0  0  0  0  0
  152.2551  142.6312  157.3449 H   0  0  0  0  0  0  0  0  0  0  0  0
  149.5851  141.9414  158.6061 H   0  0  0  0  0  0  0  0  0  0  0  0
  149.8100  143.5421  157.9493 H   0  0  0  0  0  0  0  0  0  0  0  0
  149.3603  142.7605  156.0260 H   0  0  0  0  0  0  0  0  0  0  0  0
  149.4300  140.1256  157.2739 H   0  0  0  0  0  0  0  0  0  0  0  0
  148.0597  140.9909  156.6018 H   0  0  0  0  0  0  0  0  0  0  0  0
  148.6109  139.2507  155.0064 H   0  0  0  0  0  0  0  0  0  0  0  0
  149.1623  140.7443  154.2794 H   0  0  0  0  0  0  0  0  0  0  0  0
  150.3267  137.3505  154.8833 H   0  0  0  0  0  0  0  0  0  0  0  0
  153.1139  137.4151  154.8014 H   0  0  0  0  0  0  0  0  0  0  0  0
  150.7580  141.9029  156.0456 H   0  0  0  0  0  0  0  0  0  0  0  0
  1  2  1  0  0  0  0
  1 18  1  0  0  0  0
  1 19  1  0  0  0  0
  1 20  1  0  0  0  0
  2  8  1  0  0  0  0
  2  3  2  0  0  0  0
  3  4  1  0  0  0  0
  3 21  1  0  0  0  0
  4  5  1  0  0  0  0
  4 22  1  0  0  0  0
  4 23  1  0  0  0  0
  5  6  1  0  0  0  0
  5 24  1  0  0  0  0
  5 25  1  0  0  0  0
  6  7  1  0  0  0  0
  6  8  1  0  0  0  0
  6 26  1  0  0  0  0
  7 27  1  0  0  0  0
  7 28  1  0  0  0  0
  7 29  1  0  0  0  0
  8  9  1  0  0  0  0
  8 30  1  0  0  0  0
  9 10  1  0  0  0  0
  9 31  1  0  0  0  0
  9 32  1  0  0  0  0
 10 11  1  0  0  0  0
 10 33  1  0  0  0  0
 10 40  1  0  0  0  0
 11 12  1  0  0  0  0
 11 34  1  0  0  0  0
 11 35  1  0  0  0  0
 12 13  1  0  0  0  0
 12 36  1  0  0  0  0
 12 37  1  0  0  0  0
 13 17  1  0  0  0  0
 13 14  1  0  0  0  0
 14 15  2  0  0  0  0
 14 38  1  0  0  0  0
 15 16  1  0  0  0  0
 15 39  1  0  0  0  0
 16 17  2  0  0  0  0
M  CHG  1  10   1
M  END
> <s_m_source_file>
AV-unprocessed.smi

> <i_m_source_file_index>
3188

> <i_lp_mmshare_version>
43012

> <i_f3d_flags>
0

> <s_epik_input>
W0NIM11DMT1bQ0hdW0NIMl1bQ0gyXVtDQEBIXShbQ0gzXSlbQ0BIXTFbQ0gyXVtOSF1bQ0gyXVtDSDJdbjJbY0hdW2NIXW5uMg==

> <s_epik_cmdline>
J2VwaWtfcHl0aG9uJywgJy1waCcsICc3LjAnLCAnLXRuJywgJzgnLCAnLW1hJywgJzIwMCcsICctbWV0YWxfYmluZGluZycsICctaW1hZScsICc8aW5maWxlLm1hZT4nLCAnLW9tYWUnLCAnPG91dGZpbGUubWFlPic=

> <r_lp_tautomer_probability>
1

> <r_epik_Ionization_Penalty>
0.007268

> <r_epik_Ionization_Penalty_Charging>
0.00726786

> <r_epik_Ionization_Penalty_Neutral>
1.34882e-07

> <r_epik_State_Penalty>
0.00542069

> <r_epik_Charging_Adjusted_Penalty>
0.0126886

> <i_epik_Tot_Q>
1

> <i_epik_Tot_abs_Q>
1

> <r_epik_Metal_State_Penalty>
-0

> <b_epik_Metal_Only>
0

> <s_lp_Force_Field>
OPLS_2005

> <r_lp_Energy>
14.3192

> <b_lp_Chiralities_Consistent>
1

> <s_lp_Variant>
AV-unprocessed.smi:3188-3

> <Gold.Version>
5.8.1

> <Gold.Id.Protein>
6NUR|6NUR_protein|mol2

> <Gold.PLP.Fitness>
50.4653

> <Gold.PLP.PLP>
-40.5727

> <Gold.PLP.part.hbond>
-3.7429

> <Gold.PLP.part.metal>
0.0000

> <Gold.PLP.part.buried>
-4.6336

> <Gold.PLP.part.nonpolar>
-32.9309

> <Gold.PLP.part.repulsive>
0.1220

> <Gold.PLP.ligand.clash>
0.0000

> <Gold.PLP.ligand.torsion>
0.7973

> <Gold.PLP.Chemscore.Hbond>
3.7632

> <Gold.PLP.Chemscore.CHOScore>
0.0000

> <Gold.PLP.Chemscore.Metal>
0.0000

> <Gold.Chemscore.Hbonds>
donor molecule, donor type, donor heavy atom, donor atom, acceptor molecule, acceptor atom, score
      L1  H    10    33       P1  8028  1.92
      P1  H  7989  7998       L1    17  0.82
      P1  H  7997  8010       L1    16  0.99

> <Gold.PLP.Chemscore.Internal.Correction>
0.1976

> <Gold.Rescore>
     Score         DG    S(hbond)    S(metal)    S(lipo)     H(rot)  DE(clash)    DE(int)     intcor
     18.47     -20.54       1.94        0.00     112.19       1.78       0.06       2.00       ----

> <Gold.Chemscore.Fitness>
18.4750

> <Gold.Chemscore.DG>
-20.5409

> <Gold.Chemscore.ZeroCoef>
-5.4800

> <Gold.Chemscore.Hbond>
1.9444

> <Gold.Chemscore.Metal>
0.0000

> <Gold.Chemscore.Lipo>
112.1850

> <Gold.Chemscore.Internal_Hbond>
0.0000

> <Gold.Chemscore.DEClash>
0.0614

> <Gold.Chemscore.DEInternal>
2.0045

> <Gold.Chemscore.Rot>
1.7809

> <Gold.Chemscore.Internal.Correction>
   9.000000E+99

> <Gold.Chemscore.Hbonds>
donor molecule, donor type, donor heavy atom, donor atom, acceptor molecule, acceptor atom, score
      L1  H    10    33       P1  8028  0.87
      P1  H  7989  7998       L1    17  0.05
      P1  H  7997  8010       L1    16  0.89

> <Gold.Chemscore.Hbond.Weighted>
-6.4942

> <Gold.Chemscore.Metal.Weighted>
-0.0000

> <Gold.Chemscore.Lipo.Weighted>
-13.1256

> <Gold.Chemscore.Internal_Hbond.Weighted>
0.0000

> <Gold.Chemscore.DEClash.Weighted>
0.0614

> <Gold.Chemscore.DEInternal.Weighted>
2.0045

> <Gold.Chemscore.Rot.Weighted>
4.5590

> <Gold.Chemscore.Internal.Correction.Weighted>
   9.000000E+99

> <Gold.Protein.RotatedTorsions>
[ 6907 6896 6895 6894 ] final   25.26 input  -60.11 | X-H torsion
[ 7974 7965 7964 7962 ] final  163.86 input  175.53 | X-H torsion
[ 8008 7997 7996 7995 ] final  114.73 input   59.86 | X-H torsion
[ 10167 10162 10161 10158 ] final   83.52 input  -65.29 | X-H torsion
[ 10718 10713 10712 10709 ] final  146.14 input   66.30 | X-H torsion
[ 10763 10752 10751 10750 ] final  116.57 input  -60.55 | X-H torsion
[ 11005 11000 10999 10996 ] final   41.02 input  -57.11 | X-H torsion

> <Gold.Protein.ActiveResidues>
 VAL166  LYS551  ARG553  GLY616  TRP617  ASP618  TYR619  PRO620  LYS621  CYS622 
 ASP623  PHE694  ASN695  SER759  ASP760  ASP761  ALA762  ILE779  LEU786  VAL792 
 PHE793  MET794  SER795  GLU796  ALA797  LYS798  CYS799  TRP800  GLU811  SER814 

> <Gold.Protein.RotatedAtoms>
  151.9699  135.0082  160.0551 H   0  0  0  0  0  0  0  0  0  0  0  0  # atno 6907 bound_to 6896
  152.1793  133.4691  159.4958 H   0  0  0  0  0  0  0  0  0  0  0  0  # atno 6908 bound_to 6896
  150.6914  134.1771  159.4277 H   0  0  0  0  0  0  0  0  0  0  0  0  # atno 6909 bound_to 6896
  144.7571  139.8242  143.6346 H   0  0  0  0  0  0  0  0  0  0  0  0  # atno 7974 bound_to 7965
  156.2339  140.2953  156.0260 H   0  0  0  0  0  0  0  0  0  0  0  0  # atno 8008 bound_to 7997
  155.2148  140.0413  157.2956 H   0  0  0  0  0  0  0  0  0  0  0  0  # atno 8009 bound_to 7997
  154.6043  140.2435  155.7758 H   0  0  0  0  0  0  0  0  0  0  0  0  # atno 8010 bound_to 7997
  139.9176  144.6233  150.8473 H   0  0  0  0  0  0  0  0  0  0  0  0  # atno 10167 bound_to 10162
  157.3368  131.0929  151.1116 H   0  0  0  0  0  0  0  0  0  0  0  0  # atno 10718 bound_to 10713
  153.5393  135.3562  155.2711 H   0  0  0  0  0  0  0  0  0  0  0  0  # atno 10763 bound_to 10752
  154.8719  135.4087  154.3062 H   0  0  0  0  0  0  0  0  0  0  0  0  # atno 10764 bound_to 10752
  153.3766  135.7066  153.6665 H   0  0  0  0  0  0  0  0  0  0  0  0  # atno 10765 bound_to 10752
  140.1875  134.4028  155.8165 H   0  0  0  0  0  0  0  0  0  0  0  0  # atno 11005 bound_to 11000
  146.1593  139.4702  142.9998 LP  0  0  0  0  0  0  0  0  0  0  0  0  # atno 17320 bound_to 7965
  145.6743  141.0208  143.1640 LP  0  0  0  0  0  0  0  0  0  0  0  0  # atno 17321 bound_to 7965
  140.7670  143.3320  151.2389 LP  0  0  0  0  0  0  0  0  0  0  0  0  # atno 17342 bound_to 10162
  139.6889  143.9726  152.2849 LP  0  0  0  0  0  0  0  0  0  0  0  0  # atno 17343 bound_to 10162
  157.2343  130.6540  149.5863 LP  0  0  0  0  0  0  0  0  0  0  0  0  # atno 17370 bound_to 10713
  155.9702  130.4588  150.6015 LP  0  0  0  0  0  0  0  0  0  0  0  0  # atno 17371 bound_to 10713
  141.2225  133.7030  156.8037 LP  0  0  0  0  0  0  0  0  0  0  0  0  # atno 17394 bound_to 11000
  140.2197  134.8766  157.3364 LP  0  0  0  0  0  0  0  0  0  0  0  0  # atno 17395 bound_to 11000

$$$$
