AV-unprocessed.smi:2847|AV-procd|sdf|10953|dock2
  -GOLD-   2272015403D 1   1.00000     0.00000
 Structure written by MMmdl.
 45 46  0  0  0  0  0  0  0  0  1 V2000
  152.8775  144.9083  157.6808 C   0  0  0  0  0  0  0  0  0  0  0  0
  151.8852  144.1912  158.6263 C   0  0  0  0  0  0  0  0  0  0  0  0
  150.9599  145.2949  159.1912 C   0  0  0  0  0  0  0  0  0  0  0  0
  151.0489  143.1783  157.8233 C   0  0  0  0  0  0  0  0  0  0  0  0
  152.6293  143.4598  159.7572 C   0  0  0  0  0  0  0  0  0  0  0  0
  153.3452  142.3799  159.4170 N   0  0  0  0  0  0  0  0  0  0  0  0
  153.8965  141.6547  160.4125 C   0  0  0  0  0  0  0  0  0  0  0  0
  153.7016  141.9800  161.7693 C   0  0  0  0  0  0  0  0  0  0  0  0
  154.3251  141.1811  162.7645 N   0  0  0  0  0  0  0  0  0  0  0  0
  154.9037  139.9765  162.6271 C   0  0  0  0  0  0  0  0  0  0  0  0
  155.0184  139.3646  161.5658 O   0  0  0  0  0  0  0  0  0  0  0  0
  155.3607  139.5293  163.8085 N   0  0  0  0  0  0  0  0  0  0  0  0
  156.0578  138.2701  164.1051 C   0  0  1  0  0  0  0  0  0  0  0  0
  157.3546  138.2918  163.2586 C   0  0  0  0  0  0  0  0  0  0  0  0
  156.4404  138.2157  165.6094 C   0  0  0  0  0  0  0  0  0  0  0  0
  156.9038  136.9402  166.0093 O   0  0  0  0  0  0  0  0  0  0  0  0
  155.1854  137.0418  163.7920 C   0  0  0  0  0  0  0  0  0  0  0  0
  153.9297  137.0892  162.9512 C   0  0  0  0  0  0  0  0  0  0  0  0
  153.8444  136.7636  164.4305 C   0  0  0  0  0  0  0  0  0  0  0  0
  152.9028  143.1212  162.0193 C   0  0  0  0  0  0  0  0  0  0  0  0
  152.3590  143.8388  161.0133 N   0  0  0  0  0  0  0  0  0  0  0  0
  152.3537  145.4665  156.9042 H   0  0  0  0  0  0  0  0  0  0  0  0
  153.5367  144.2049  157.1706 H   0  0  0  0  0  0  0  0  0  0  0  0
  153.5053  145.6148  158.2252 H   0  0  0  0  0  0  0  0  0  0  0  0
  151.5197  146.0139  159.7908 H   0  0  0  0  0  0  0  0  0  0  0  0
  150.1695  144.8841  159.8203 H   0  0  0  0  0  0  0  0  0  0  0  0
  150.4679  145.8490  158.3911 H   0  0  0  0  0  0  0  0  0  0  0  0
  150.5058  143.6643  157.0123 H   0  0  0  0  0  0  0  0  0  0  0  0
  150.3159  142.6787  158.4576 H   0  0  0  0  0  0  0  0  0  0  0  0
  151.6800  142.4067  157.3807 H   0  0  0  0  0  0  0  0  0  0  0  0
  154.4903  140.8008  160.1205 H   0  0  0  0  0  0  0  0  0  0  0  0
  154.3711  141.5937  163.6848 H   0  0  0  0  0  0  0  0  0  0  0  0
  155.2003  140.1267  164.6061 H   0  0  0  0  0  0  0  0  0  0  0  0
  157.9988  137.4390  163.4710 H   0  0  0  0  0  0  0  0  0  0  0  0
  157.9466  139.1851  163.4611 H   0  0  0  0  0  0  0  0  0  0  0  0
  157.1496  138.3005  162.1888 H   0  0  0  0  0  0  0  0  0  0  0  0
  157.2063  138.9521  165.8528 H   0  0  0  0  0  0  0  0  0  0  0  0
  155.5748  138.4660  166.2235 H   0  0  0  0  0  0  0  0  0  0  0  0
  157.7603  136.8017  165.6349 H   0  0  0  0  0  0  0  0  0  0  0  0
  155.7840  136.1506  163.6141 H   0  0  0  0  0  0  0  0  0  0  0  0
  153.5373  138.0510  162.6314 H   0  0  0  0  0  0  0  0  0  0  0  0
  153.7696  136.2731  162.2496 H   0  0  0  0  0  0  0  0  0  0  0  0
  153.6293  135.7327  164.7043 H   0  0  0  0  0  0  0  0  0  0  0  0
  153.4018  137.5118  165.0828 H   0  0  0  0  0  0  0  0  0  0  0  0
  152.6968  143.4857  163.0134 H   0  0  0  0  0  0  0  0  0  0  0  0
  1  2  1  0  0  0  0
  1 22  1  0  0  0  0
  1 23  1  0  0  0  0
  1 24  1  0  0  0  0
  2  3  1  0  0  0  0
  2  4  1  0  0  0  0
  2  5  1  0  0  0  0
  3 25  1  0  0  0  0
  3 26  1  0  0  0  0
  3 27  1  0  0  0  0
  4 28  1  0  0  0  0
  4 29  1  0  0  0  0
  4 30  1  0  0  0  0
  5 21  1  0  0  0  0
  5  6  2  0  0  0  0
  6  7  1  0  0  0  0
  7  8  2  0  0  0  0
  7 31  1  0  0  0  0
  8  9  1  0  0  0  0
  8 20  1  0  0  0  0
  9 10  1  0  0  0  0
  9 32  1  0  0  0  0
 10 11  2  0  0  0  0
 10 12  1  0  0  0  0
 12 13  1  0  0  0  0
 12 33  1  0  0  0  0
 13 14  1  0  0  0  0
 13 15  1  0  0  0  0
 13 17  1  0  0  0  0
 14 34  1  0  0  0  0
 14 35  1  0  0  0  0
 14 36  1  0  0  0  0
 15 16  1  0  0  0  0
 15 37  1  0  0  0  0
 15 38  1  0  0  0  0
 16 39  1  0  0  0  0
 17 19  1  0  0  0  0
 17 18  1  0  0  0  0
 17 40  1  0  0  0  0
 18 19  1  0  0  0  0
 18 41  1  0  0  0  0
 18 42  1  0  0  0  0
 19 43  1  0  0  0  0
 19 44  1  0  0  0  0
 20 21  2  0  0  0  0
 20 45  1  0  0  0  0
M  END
> <s_m_source_file>
AV-unprocessed.smi

> <i_m_source_file_index>
2847

> <i_lp_mmshare_version>
43012

> <i_f3d_flags>
0

> <s_epik_input>
W0NIM11DKFtDSDNdKShbQ0gzXSljMW5bY0hdYyhbY0hdbjEpW05IXUMoPU8pW05IXVtDQEBdKFtDSDNdKShbQ0gyXVtPSF0pW0NIXTJbQ0gyXVtDSDJdMg==

> <s_epik_cmdline>
J2VwaWtfcHl0aG9uJywgJy1waCcsICc3LjAnLCAnLXRuJywgJzgnLCAnLW1hJywgJzIwMCcsICctbWV0YWxfYmluZGluZycsICctaW1hZScsICc8aW5maWxlLm1hZT4nLCAnLW9tYWUnLCAnPG91dGZpbGUubWFlPic=

> <r_lp_tautomer_probability>
1

> <r_epik_Ionization_Penalty>
2.57177e-05

> <r_epik_Ionization_Penalty_Charging>
0

> <r_epik_Ionization_Penalty_Neutral>
2.57177e-05

> <r_epik_State_Penalty>
-0

> <r_epik_Charging_Adjusted_Penalty>
0

> <i_epik_Tot_Q>
0

> <i_epik_Tot_abs_Q>
0

> <r_epik_Metal_State_Penalty>
-0

> <b_epik_Metal_Only>
0

> <s_lp_Force_Field>
OPLS_2005

> <r_lp_Energy>
20.4005

> <b_lp_Chiralities_Consistent>
1

> <s_lp_Variant>
AV-unprocessed.smi:2847-1

> <Gold.Version>
5.8.1

> <Gold.Id.Protein>
6NUR|6NUR_protein|mol2

> <Gold.PLP.Fitness>
44.0674

> <Gold.PLP.PLP>
-44.9123

> <Gold.PLP.part.hbond>
-0.6605

> <Gold.PLP.part.metal>
0.0000

> <Gold.PLP.part.buried>
-5.7912

> <Gold.PLP.part.nonpolar>
-37.9481

> <Gold.PLP.part.repulsive>
0.1344

> <Gold.PLP.ligand.clash>
0.0000

> <Gold.PLP.ligand.torsion>
1.2137

> <Gold.PLP.Chemscore.Hbond>
0.0000

> <Gold.PLP.Chemscore.CHOScore>
0.0000

> <Gold.PLP.Chemscore.Metal>
0.0000

> <Gold.PLP.Chemscore.Internal.Correction>
1.5826

> <Gold.Rescore>
     Score         DG    S(hbond)    S(metal)    S(lipo)     H(rot)  DE(clash)    DE(int)     intcor
      8.36     -13.78       0.00        0.00     118.36       2.17       0.74       4.68       ----

> <Gold.Chemscore.Fitness>
8.3639

> <Gold.Chemscore.DG>
-13.7786

> <Gold.Chemscore.ZeroCoef>
-5.4800

> <Gold.Chemscore.Hbond>
0.0000

> <Gold.Chemscore.Metal>
0.0000

> <Gold.Chemscore.Lipo>
118.3628

> <Gold.Chemscore.Internal_Hbond>
0.0000

> <Gold.Chemscore.DEClash>
0.7371

> <Gold.Chemscore.DEInternal>
4.6775

> <Gold.Chemscore.Rot>
2.1679

> <Gold.Chemscore.Internal.Correction>
   9.000000E+99

> <Gold.Chemscore.Hbond.Weighted>
-0.0000

> <Gold.Chemscore.Metal.Weighted>
-0.0000

> <Gold.Chemscore.Lipo.Weighted>
-13.8484

> <Gold.Chemscore.Internal_Hbond.Weighted>
0.0000

> <Gold.Chemscore.DEClash.Weighted>
0.7371

> <Gold.Chemscore.DEInternal.Weighted>
4.6775

> <Gold.Chemscore.Rot.Weighted>
5.5499

> <Gold.Chemscore.Internal.Correction.Weighted>
   9.000000E+99

> <Gold.Protein.RotatedTorsions>
[ 6907 6896 6895 6894 ] final -137.07 input  -60.11 | X-H torsion
[ 7974 7965 7964 7962 ] final   92.40 input  175.53 | X-H torsion
[ 8008 7997 7996 7995 ] final -133.05 input   59.86 | X-H torsion
[ 10167 10162 10161 10158 ] final   66.79 input  -65.29 | X-H torsion
[ 10718 10713 10712 10709 ] final  165.62 input   66.30 | X-H torsion
[ 10763 10752 10751 10750 ] final   42.77 input  -60.55 | X-H torsion
[ 11005 11000 10999 10996 ] final   84.00 input  -57.11 | X-H torsion

> <Gold.Protein.ActiveResidues>
 VAL166  LYS551  ARG553  GLY616  TRP617  ASP618  TYR619  PRO620  LYS621  CYS622 
 ASP623  PHE694  ASN695  SER759  ASP760  ASP761  ALA762  ILE779  LEU786  VAL792 
 PHE793  MET794  SER795  GLU796  ALA797  LYS798  CYS799  TRP800  GLU811  SER814 

> <Gold.Protein.RotatedAtoms>
  151.0178  133.5904  159.2674 H   0  0  0  0  0  0  0  0  0  0  0  0  # atno 6907 bound_to 6896
  151.3032  135.0773  159.9256 H   0  0  0  0  0  0  0  0  0  0  0  0  # atno 6908 bound_to 6896
  152.5316  133.9856  159.7881 H   0  0  0  0  0  0  0  0  0  0  0  0  # atno 6909 bound_to 6896
  145.4928  139.2276  143.2820 H   0  0  0  0  0  0  0  0  0  0  0  0  # atno 7974 bound_to 7965
  155.3391  140.0471  157.3044 H   0  0  0  0  0  0  0  0  0  0  0  0  # atno 8008 bound_to 7997
  154.5287  140.2249  155.8808 H   0  0  0  0  0  0  0  0  0  0  0  0  # atno 8009 bound_to 7997
  156.1766  140.3083  155.9077 H   0  0  0  0  0  0  0  0  0  0  0  0  # atno 8010 bound_to 7997
  140.0966  144.4941  150.7064 H   0  0  0  0  0  0  0  0  0  0  0  0  # atno 10167 bound_to 10162
  157.0775  131.0383  151.2588 H   0  0  0  0  0  0  0  0  0  0  0  0  # atno 10718 bound_to 10713
  152.9875  135.6122  154.3003 H   0  0  0  0  0  0  0  0  0  0  0  0  # atno 10763 bound_to 10752
  154.2724  135.2779  155.2734 H   0  0  0  0  0  0  0  0  0  0  0  0  # atno 10764 bound_to 10752
  154.5110  135.5841  153.6662 H   0  0  0  0  0  0  0  0  0  0  0  0  # atno 10765 bound_to 10752
  139.9013  134.8185  156.2385 H   0  0  0  0  0  0  0  0  0  0  0  0  # atno 11005 bound_to 11000
  146.2273  140.5723  142.8990 LP  0  0  0  0  0  0  0  0  0  0  0  0  # atno 17320 bound_to 7965
  144.7824  140.5867  143.6596 LP  0  0  0  0  0  0  0  0  0  0  0  0  # atno 17321 bound_to 7965
  140.7000  143.2429  151.4891 LP  0  0  0  0  0  0  0  0  0  0  0  0  # atno 17342 bound_to 10162
  139.5695  144.1963  152.1815 LP  0  0  0  0  0  0  0  0  0  0  0  0  # atno 17343 bound_to 10162
  157.4827  130.7775  149.7430 LP  0  0  0  0  0  0  0  0  0  0  0  0  # atno 17370 bound_to 10713
  155.9933  130.3925  150.2906 LP  0  0  0  0  0  0  0  0  0  0  0  0  # atno 17371 bound_to 10713
  141.0300  133.6994  156.1413 LP  0  0  0  0  0  0  0  0  0  0  0  0  # atno 17394 bound_to 11000
  140.7110  134.4461  157.5581 LP  0  0  0  0  0  0  0  0  0  0  0  0  # atno 17395 bound_to 11000

$$$$
