AV-unprocessed.smi:2025|AV-procd|sdf|8198|dock7
  -GOLD-   2272010453D 1   1.00000     0.00000
 Structure written by MMmdl.
 39 40  0  0  0  0  0  0  0  0  1 V2000
  147.2415  134.4804  154.2147 C   0  0  0  0  0  0  0  0  0  0  0  0
  146.3199  135.3519  153.3492 C   0  0  1  0  0  0  0  0  0  0  0  0
  146.9586  136.6507  153.1435 N   0  0  0  0  0  0  0  0  0  0  0  0
  147.1812  137.5793  154.0865 C   0  0  0  0  0  0  0  0  0  0  0  0
  146.8434  137.4466  155.2634 O   0  0  0  0  0  0  0  0  0  0  0  0
  147.8672  138.8669  153.6114 C   0  0  0  0  0  0  0  0  0  0  0  0
  149.1900  139.0674  154.2167 N   0  0  0  0  0  0  0  0  0  0  0  0
  150.1814  138.1219  154.0273 C   0  0  0  0  0  0  0  0  0  0  0  0
  151.4285  138.2393  154.5328 C   0  0  0  0  0  0  0  0  0  0  0  0
  151.8070  139.3990  155.3311 C   0  0  0  0  0  0  0  0  0  0  0  0
  152.9378  139.5555  155.7929 O   0  0  0  0  0  0  0  0  0  0  0  0
  150.7696  140.3427  155.5231 N   0  0  0  0  0  0  0  0  0  0  0  0
  151.0564  141.5381  156.2890 C   0  0  0  0  0  0  0  0  0  0  0  0
  149.4726  140.2231  154.9760 C   0  0  0  0  0  0  0  0  0  0  0  0
  148.6119  141.0911  155.1416 O   0  0  0  0  0  0  0  0  0  0  0  0
  146.0040  134.6868  151.9939 C   0  0  2  0  0  0  0  0  0  0  0  0
  145.0816  135.4940  151.0782 C   0  0  0  0  0  0  0  0  0  0  0  0
  144.5194  134.4141  150.1833 C   0  0  0  0  0  0  0  0  0  0  0  0
  144.3469  133.2548  151.1605 C   0  0  0  0  0  0  0  0  0  0  0  0
  145.3148  133.4540  152.1884 O   0  0  0  0  0  0  0  0  0  0  0  0
  146.7841  133.5138  154.4278 H   0  0  0  0  0  0  0  0  0  0  0  0
  147.4497  134.9607  155.1713 H   0  0  0  0  0  0  0  0  0  0  0  0
  148.1954  134.2949  153.7200 H   0  0  0  0  0  0  0  0  0  0  0  0
  145.3834  135.4799  153.8946 H   0  0  0  0  0  0  0  0  0  0  0  0
  147.2650  136.8564  152.2036 H   0  0  0  0  0  0  0  0  0  0  0  0
  147.9501  138.8657  152.5231 H   0  0  0  0  0  0  0  0  0  0  0  0
  147.2157  139.7070  153.8553 H   0  0  0  0  0  0  0  0  0  0  0  0
  149.9518  137.2459  153.4384 H   0  0  0  0  0  0  0  0  0  0  0  0
  152.1579  137.4660  154.3412 H   0  0  0  0  0  0  0  0  0  0  0  0
  150.1896  141.7724  156.9091 H   0  0  0  0  0  0  0  0  0  0  0  0
  151.2610  142.3329  155.5705 H   0  0  0  0  0  0  0  0  0  0  0  0
  151.9087  141.3722  156.9484 H   0  0  0  0  0  0  0  0  0  0  0  0
  146.9295  134.4678  151.4587 H   0  0  0  0  0  0  0  0  0  0  0  0
  144.2784  135.9579  151.6528 H   0  0  0  0  0  0  0  0  0  0  0  0
  145.6043  136.2758  150.5265 H   0  0  0  0  0  0  0  0  0  0  0  0
  143.5888  134.7015  149.6935 H   0  0  0  0  0  0  0  0  0  0  0  0
  145.2458  134.1527  149.4128 H   0  0  0  0  0  0  0  0  0  0  0  0
  143.3547  133.2794  151.6122 H   0  0  0  0  0  0  0  0  0  0  0  0
  144.4749  132.2862  150.6773 H   0  0  0  0  0  0  0  0  0  0  0  0
  1  2  1  0  0  0  0
  1 21  1  0  0  0  0
  1 22  1  0  0  0  0
  1 23  1  0  0  0  0
  2  3  1  0  0  0  0
  2 16  1  0  0  0  0
  2 24  1  0  0  0  0
  3  4  1  0  0  0  0
  3 25  1  0  0  0  0
  4  5  2  0  0  0  0
  4  6  1  0  0  0  0
  6  7  1  0  0  0  0
  6 26  1  0  0  0  0
  6 27  1  0  0  0  0
  7 14  1  0  0  0  0
  7  8  1  0  0  0  0
  8  9  2  0  0  0  0
  8 28  1  0  0  0  0
  9 10  1  0  0  0  0
  9 29  1  0  0  0  0
 10 11  2  0  0  0  0
 10 12  1  0  0  0  0
 12 13  1  0  0  0  0
 12 14  1  0  0  0  0
 13 30  1  0  0  0  0
 13 31  1  0  0  0  0
 13 32  1  0  0  0  0
 14 15  2  0  0  0  0
 16 20  1  0  0  0  0
 16 17  1  0  0  0  0
 16 33  1  0  0  0  0
 17 18  1  0  0  0  0
 17 34  1  0  0  0  0
 17 35  1  0  0  0  0
 18 19  1  0  0  0  0
 18 36  1  0  0  0  0
 18 37  1  0  0  0  0
 19 20  1  0  0  0  0
 19 38  1  0  0  0  0
 19 39  1  0  0  0  0
M  END
> <s_m_source_file>
AV-unprocessed.smi

> <i_m_source_file_index>
2025

> <i_lp_mmshare_version>
43012

> <i_f3d_flags>
0

> <s_epik_input>
TzFbQ0gyXVtDSDJdW0NIMl1bQ0BIXTFbQ0BIXShbQ0gzXSlbTkhdQyg9TylbQ0gyXW4yW2NIXVtjSF1jKD1PKW4oW0NIM10pYzI9Tw==

> <s_epik_cmdline>
J2VwaWtfcHl0aG9uJywgJy1waCcsICc3LjAnLCAnLXRuJywgJzgnLCAnLW1hJywgJzIwMCcsICctbWV0YWxfYmluZGluZycsICctaW1hZScsICc8aW5maWxlLm1hZT4nLCAnLW9tYWUnLCAnPG91dGZpbGUubWFlPic=

> <r_lp_tautomer_probability>
1

> <r_epik_Ionization_Penalty>
3.54787e-08

> <r_epik_Ionization_Penalty_Charging>
1.24654e-08

> <r_epik_Ionization_Penalty_Neutral>
2.30132e-08

> <r_epik_State_Penalty>
-0

> <r_epik_Charging_Adjusted_Penalty>
1.24654e-08

> <i_epik_Tot_Q>
0

> <i_epik_Tot_abs_Q>
0

> <r_epik_Metal_State_Penalty>
-0

> <b_epik_Metal_Only>
0

> <s_lp_Force_Field>
OPLS_2005

> <r_lp_Energy>
25.7305

> <b_lp_Chiralities_Consistent>
1

> <s_lp_Variant>
AV-unprocessed.smi:2025-2

> <Gold.Version>
5.8.1

> <Gold.Id.Protein>
6NUR|6NUR_protein|mol2

> <Gold.PLP.Fitness>
39.7333

> <Gold.PLP.PLP>
-33.0640

> <Gold.PLP.part.hbond>
-2.0000

> <Gold.PLP.part.metal>
0.0000

> <Gold.PLP.part.buried>
-1.2769

> <Gold.PLP.part.nonpolar>
-29.5673

> <Gold.PLP.part.repulsive>
0.2364

> <Gold.PLP.ligand.clash>
0.0000

> <Gold.PLP.ligand.torsion>
0.1066

> <Gold.PLP.Chemscore.Hbond>
1.2880

> <Gold.PLP.Chemscore.CHOScore>
1.0000

> <Gold.PLP.Chemscore.Metal>
0.0000

> <Gold.Chemscore.Hbonds>
donor molecule, donor type, donor heavy atom, donor atom, acceptor molecule, acceptor atom, score
      L1  H     3    25       P1  7948  0.27
      P1  H  7997  8010       L1    11  1.00
      L1  C     8    28       P1  7948  1.00

> <Gold.PLP.Chemscore.Internal.Correction>
0.0185

> <Gold.Rescore>
     Score         DG    S(hbond)    S(metal)    S(lipo)     H(rot)  DE(clash)    DE(int)     intcor
     13.10     -13.33       1.88        0.00      53.40       1.82       0.10       0.13       ----

> <Gold.Chemscore.Fitness>
13.0989

> <Gold.Chemscore.DG>
-13.3269

> <Gold.Chemscore.ZeroCoef>
-5.4800

> <Gold.Chemscore.Hbond>
1.8759

> <Gold.Chemscore.Metal>
0.0000

> <Gold.Chemscore.Lipo>
53.4015

> <Gold.Chemscore.Internal_Hbond>
0.0000

> <Gold.Chemscore.DEClash>
0.0998

> <Gold.Chemscore.DEInternal>
0.1282

> <Gold.Chemscore.Rot>
1.8228

> <Gold.Chemscore.Internal.Correction>
   9.000000E+99

> <Gold.Chemscore.Hbonds>
donor molecule, donor type, donor heavy atom, donor atom, acceptor molecule, acceptor atom, score
      L1  H     3    25       P1  7948  0.28
      P1  H  7997  8010       L1    11  0.98

> <Gold.Chemscore.Hbond.Weighted>
-6.2654

> <Gold.Chemscore.Metal.Weighted>
-0.0000

> <Gold.Chemscore.Lipo.Weighted>
-6.2480

> <Gold.Chemscore.Internal_Hbond.Weighted>
0.0000

> <Gold.Chemscore.DEClash.Weighted>
0.0998

> <Gold.Chemscore.DEInternal.Weighted>
0.1282

> <Gold.Chemscore.Rot.Weighted>
4.6665

> <Gold.Chemscore.Internal.Correction.Weighted>
   9.000000E+99

> <Gold.Protein.RotatedTorsions>
[ 6907 6896 6895 6894 ] final  -66.42 input  -60.11 | X-H torsion
[ 7974 7965 7964 7962 ] final   78.16 input  175.53 | X-H torsion
[ 8008 7997 7996 7995 ] final   83.42 input   59.86 | X-H torsion
[ 10167 10162 10161 10158 ] final   79.71 input  -65.29 | X-H torsion
[ 10718 10713 10712 10709 ] final  -31.92 input   66.30 | X-H torsion
[ 10763 10752 10751 10750 ] final  -91.51 input  -60.55 | X-H torsion
[ 11005 11000 10999 10996 ] final   -6.96 input  -57.11 | X-H torsion

> <Gold.Protein.ActiveResidues>
 VAL166  LYS551  ARG553  GLY616  TRP617  ASP618  TYR619  PRO620  LYS621  CYS622 
 ASP623  PHE694  ASN695  SER759  ASP760  ASP761  ALA762  ILE779  LEU786  VAL792 
 PHE793  MET794  SER795  GLU796  ALA797  LYS798  CYS799  TRP800  GLU811  SER814 

> <Gold.Protein.RotatedAtoms>
  150.7466  134.6023  159.6042 H   0  0  0  0  0  0  0  0  0  0  0  0  # atno 6907 bound_to 6896
  152.3381  134.7168  160.0280 H   0  0  0  0  0  0  0  0  0  0  0  0  # atno 6908 bound_to 6896
  151.7630  133.3299  159.3459 H   0  0  0  0  0  0  0  0  0  0  0  0  # atno 6909 bound_to 6896
  145.6808  139.2523  143.1815 H   0  0  0  0  0  0  0  0  0  0  0  0  # atno 7974 bound_to 7965
  155.9237  140.3419  155.6193 H   0  0  0  0  0  0  0  0  0  0  0  0  # atno 8008 bound_to 7997
  155.7242  140.0787  157.2336 H   0  0  0  0  0  0  0  0  0  0  0  0  # atno 8009 bound_to 7997
  154.4074  140.1600  156.2423 H   0  0  0  0  0  0  0  0  0  0  0  0  # atno 8010 bound_to 7997
  139.9574  144.5984  150.8103 H   0  0  0  0  0  0  0  0  0  0  0  0  # atno 10167 bound_to 10162
  156.3813  130.4356  149.7466 H   0  0  0  0  0  0  0  0  0  0  0  0  # atno 10718 bound_to 10713
  154.6768  135.5265  153.8210 H   0  0  0  0  0  0  0  0  0  0  0  0  # atno 10763 bound_to 10752
  153.0537  135.6542  154.0639 H   0  0  0  0  0  0  0  0  0  0  0  0  # atno 10764 bound_to 10752
  154.0531  135.2968  155.3317 H   0  0  0  0  0  0  0  0  0  0  0  0  # atno 10765 bound_to 10752
  140.7076  133.8936  155.8728 H   0  0  0  0  0  0  0  0  0  0  0  0  # atno 11005 bound_to 11000
  146.0966  140.7593  142.9569 LP  0  0  0  0  0  0  0  0  0  0  0  0  # atno 17320 bound_to 7965
  144.7027  140.3721  143.7143 LP  0  0  0  0  0  0  0  0  0  0  0  0  # atno 17321 bound_to 7965
  140.7564  143.3065  151.2950 LP  0  0  0  0  0  0  0  0  0  0  0  0  # atno 17342 bound_to 10162
  139.6580  144.0240  152.2673 LP  0  0  0  0  0  0  0  0  0  0  0  0  # atno 17343 bound_to 10162
  156.4556  130.7927  151.2948 LP  0  0  0  0  0  0  0  0  0  0  0  0  # atno 17370 bound_to 10713
  157.7492  131.0082  150.3219 LP  0  0  0  0  0  0  0  0  0  0  0  0  # atno 17371 bound_to 10713
  141.0111  134.1019  157.4220 LP  0  0  0  0  0  0  0  0  0  0  0  0  # atno 17394 bound_to 11000
  139.8880  135.0094  156.6594 LP  0  0  0  0  0  0  0  0  0  0  0  0  # atno 17395 bound_to 11000

$$$$
