AV-unprocessed.smi:560|AV-procd|sdf|2932|dock2
  -GOLD-   2262023423D 1   1.00000     0.00000
 Structure written by MMmdl.
 41 42  0  0  0  0  0  0  0  0  3 V2000
  153.2361  138.5929  154.9856 C   0  0  0  0  0  0  0  0  0  0  0  0
  151.9192  138.5110  155.7795 C   0  0  2  0  0  0  0  0  0  0  0  0
  150.9012  137.5513  155.1446 C   0  0  0  0  0  0  0  0  0  0  0  0
  150.5345  137.7045  153.9788 O   0  0  0  0  0  0  0  0  0  0  0  0
  150.4442  136.5656  155.9333 N   0  0  0  0  0  0  0  0  0  0  0  0
  149.4485  135.5705  155.5479 C   0  0  2  0  0  0  0  0  0  0  0  0
  150.0499  134.6063  154.5129 C   0  0  0  0  0  0  0  0  0  0  0  0
  149.0035  133.5913  154.0241 C   0  0  0  0  0  0  0  0  0  0  0  0
  147.8088  134.2794  153.4653 N   0  3  1  0  0  0  0  0  0  0  0  0
  146.8245  133.3474  152.8579 C   0  0  0  0  0  0  0  0  0  0  0  0
  145.7021  134.1247  152.1624 C   0  0  0  0  0  0  0  0  0  0  0  0
  146.1691  135.1525  151.4250 N   0  5  0  0  0  0  0  0  0  0  0  0
  144.5346  133.7732  152.3149 O   0  0  0  0  0  0  0  0  0  0  0  0
  147.1868  135.1907  154.4584 C   0  0  0  0  0  0  0  0  0  0  0  0
  148.1941  136.2400  154.9569 C   0  0  0  0  0  0  0  0  0  0  0  0
  151.3259  139.8310  155.9480 N   0  0  0  0  0  0  0  0  0  0  0  0
  151.0836  140.5296  157.1152 C   0  0  0  0  0  0  0  0  0  0  0  0
  150.5229  141.7248  156.7678 C   0  0  0  0  0  0  0  0  0  0  0  0
  150.4588  141.6676  155.3479 C   0  0  0  0  0  0  0  0  0  0  0  0
  150.9412  140.5357  154.8607 N   0  0  0  0  0  0  0  0  0  0  0  0
  153.6874  137.6073  154.8661 H   0  0  0  0  0  0  0  0  0  0  0  0
  153.9606  139.2232  155.5019 H   0  0  0  0  0  0  0  0  0  0  0  0
  153.0859  139.0129  153.9903 H   0  0  0  0  0  0  0  0  0  0  0  0
  152.1623  138.1186  156.7691 H   0  0  0  0  0  0  0  0  0  0  0  0
  150.7973  136.5165  156.8786 H   0  0  0  0  0  0  0  0  0  0  0  0
  149.1646  134.9937  156.4307 H   0  0  0  0  0  0  0  0  0  0  0  0
  150.4336  135.1675  153.6593 H   0  0  0  0  0  0  0  0  0  0  0  0
  150.9016  134.0780  154.9429 H   0  0  0  0  0  0  0  0  0  0  0  0
  149.4575  132.9502  153.2680 H   0  0  0  0  0  0  0  0  0  0  0  0
  148.6993  132.9416  154.8461 H   0  0  0  0  0  0  0  0  0  0  0  0
  147.3198  132.6750  152.1554 H   0  0  0  0  0  0  0  0  0  0  0  0
  146.3727  132.7156  153.6251 H   0  0  0  0  0  0  0  0  0  0  0  0
  147.1815  135.2437  151.2803 H   0  0  0  0  0  0  0  0  0  0  0  0
  146.3354  135.7013  154.0068 H   0  0  0  0  0  0  0  0  0  0  0  0
  146.8008  134.6082  155.2966 H   0  0  0  0  0  0  0  0  0  0  0  0
  147.7164  136.8766  155.7025 H   0  0  0  0  0  0  0  0  0  0  0  0
  148.4768  136.8922  154.1293 H   0  0  0  0  0  0  0  0  0  0  0  0
  151.3295  140.1219  158.0849 H   0  0  0  0  0  0  0  0  0  0  0  0
  150.2060  142.5186  157.4277 H   0  0  0  0  0  0  0  0  0  0  0  0
  150.0795  142.4101  154.6615 H   0  0  0  0  0  0  0  0  0  0  0  0
  148.1314  134.8615  152.7048 H   0  0  0  0  0  0  0  0  0  0  0  0
  1  2  1  0  0  0  0
  1 21  1  0  0  0  0
  1 22  1  0  0  0  0
  1 23  1  0  0  0  0
  2  3  1  0  0  0  0
  2 16  1  0  0  0  0
  2 24  1  0  0  0  0
  3  4  2  0  0  0  0
  3  5  1  0  0  0  0
  5  6  1  0  0  0  0
  5 25  1  0  0  0  0
  6 15  1  0  0  0  0
  6  7  1  0  0  0  0
  6 26  1  0  0  0  0
  7  8  1  0  0  0  0
  7 27  1  0  0  0  0
  7 28  1  0  0  0  0
  8  9  1  0  0  0  0
  8 29  1  0  0  0  0
  8 30  1  0  0  0  0
  9 10  1  0  0  0  0
  9 14  1  0  0  0  0
  9 41  1  0  0  0  0
 10 11  1  0  0  0  0
 10 31  1  0  0  0  0
 10 32  1  0  0  0  0
 11 12  1  0  0  0  0
 11 13  2  0  0  0  0
 12 33  1  0  0  0  0
 14 15  1  0  0  0  0
 14 34  1  0  0  0  0
 14 35  1  0  0  0  0
 15 36  1  0  0  0  0
 15 37  1  0  0  0  0
 16 20  1  0  0  0  0
 16 17  1  0  0  0  0
 17 18  2  0  0  0  0
 17 38  1  0  0  0  0
 18 19  1  0  0  0  0
 18 39  1  0  0  0  0
 19 20  2  0  0  0  0
 19 40  1  0  0  0  0
M  CHG  1   9   1
M  CHG  1  12  -1
M  END
> <s_m_source_file>
AV-unprocessed.smi

> <i_m_source_file_index>
560

> <i_lp_mmshare_version>
43012

> <i_f3d_flags>
0

> <s_epik_input>
bjFbY0hdW2NIXVtjSF1uMVtDQEhdKFtDSDNdKUMoPU8pW05IXVtDSF0yW0NIMl1bQ0gyXU4oW0NIMl1bQ0gyXTIpW0NIMl1DKD1PKVtOSDJd

> <s_epik_cmdline>
J2VwaWtfcHl0aG9uJywgJy1waCcsICc3LjAnLCAnLXRuJywgJzgnLCAnLW1hJywgJzIwMCcsICctbWV0YWxfYmluZGluZycsICctaW1hZScsICc8aW5maWxlLm1hZT4nLCAnLW9tYWUnLCAnPG91dGZpbGUubWFlPic=

> <r_lp_tautomer_probability>
1

> <r_epik_Ionization_Penalty>
5.71084

> <r_epik_Ionization_Penalty_Charging>
5.71081

> <r_epik_Ionization_Penalty_Neutral>
3.04611e-05

> <r_epik_State_Penalty>
6.71277

> <r_epik_Charging_Adjusted_Penalty>
12.4236

> <i_epik_Tot_Q>
0

> <i_epik_Tot_abs_Q>
2

> <r_epik_Metal_State_Penalty>
2.67562

> <b_epik_Metal_Only>
1

> <s_lp_Force_Field>
OPLS_2005

> <r_lp_Energy>
10.6989

> <b_lp_Chiralities_Consistent>
1

> <s_lp_Variant>
AV-unprocessed.smi:560-7

> <Gold.Version>
5.8.1

> <Gold.Id.Protein>
6NUR|6NUR_protein|mol2

> <Gold.PLP.Fitness>
41.9782

> <Gold.PLP.PLP>
-27.8497

> <Gold.PLP.part.hbond>
-3.0000

> <Gold.PLP.part.metal>
0.0000

> <Gold.PLP.part.buried>
-3.0208

> <Gold.PLP.part.nonpolar>
-22.4531

> <Gold.PLP.part.repulsive>
0.7136

> <Gold.PLP.ligand.clash>
0.0000

> <Gold.PLP.ligand.torsion>
0.3958

> <Gold.PLP.Chemscore.Hbond>
3.9600

> <Gold.PLP.Chemscore.CHOScore>
0.9841

> <Gold.PLP.Chemscore.Metal>
0.0000

> <Gold.Chemscore.Hbonds>
donor molecule, donor type, donor heavy atom, donor atom, acceptor molecule, acceptor atom, score
      L1  H     9    41       P1  7948  2.00
      L1  H    12    33       P1  7948  0.90
      P1  H  7989  7998       L1    20  1.00
      L1  C    19    40       P1  8028  0.32

> <Gold.PLP.Chemscore.Internal.Correction>
0.0876

> <Gold.Rescore>
     Score         DG    S(hbond)    S(metal)    S(lipo)     H(rot)  DE(clash)    DE(int)     intcor
     10.99     -13.90       2.52        0.00      54.06       2.47       0.10       2.81       ----

> <Gold.Chemscore.Fitness>
10.9893

> <Gold.Chemscore.DG>
-13.9037

> <Gold.Chemscore.ZeroCoef>
-5.4800

> <Gold.Chemscore.Hbond>
2.5240

> <Gold.Chemscore.Metal>
0.0000

> <Gold.Chemscore.Lipo>
54.0631

> <Gold.Chemscore.Internal_Hbond>
0.0000

> <Gold.Chemscore.DEClash>
0.1019

> <Gold.Chemscore.DEInternal>
2.8125

> <Gold.Chemscore.Rot>
2.4734

> <Gold.Chemscore.Internal.Correction>
   9.000000E+99

> <Gold.Chemscore.Hbonds>
donor molecule, donor type, donor heavy atom, donor atom, acceptor molecule, acceptor atom, score
      L1  H     9    41       P1  7948  0.74
      L1  H    12    33       P1  7948  0.65
      P1  H  7989  7998       L1    20  0.55

> <Gold.Chemscore.Hbond.Weighted>
-8.4301

> <Gold.Chemscore.Metal.Weighted>
-0.0000

> <Gold.Chemscore.Lipo.Weighted>
-6.3254

> <Gold.Chemscore.Internal_Hbond.Weighted>
0.0000

> <Gold.Chemscore.DEClash.Weighted>
0.1019

> <Gold.Chemscore.DEInternal.Weighted>
2.8125

> <Gold.Chemscore.Rot.Weighted>
6.3318

> <Gold.Chemscore.Internal.Correction.Weighted>
   9.000000E+99

> <Gold.Protein.RotatedTorsions>
[ 6907 6896 6895 6894 ] final   62.12 input  -60.11 | X-H torsion
[ 7974 7965 7964 7962 ] final   60.45 input  175.53 | X-H torsion
[ 8008 7997 7996 7995 ] final  130.03 input   59.86 | X-H torsion
[ 10167 10162 10161 10158 ] final  175.98 input  -65.29 | X-H torsion
[ 10718 10713 10712 10709 ] final   99.49 input   66.30 | X-H torsion
[ 10763 10752 10751 10750 ] final  100.67 input  -60.55 | X-H torsion
[ 11005 11000 10999 10996 ] final -118.41 input  -57.11 | X-H torsion

> <Gold.Protein.ActiveResidues>
 VAL166  LYS551  ARG553  GLY616  TRP617  ASP618  TYR619  PRO620  LYS621  CYS622 
 ASP623  PHE694  ASN695  SER759  ASP760  ASP761  ALA762  ILE779  LEU786  VAL792 
 PHE793  MET794  SER795  GLU796  ALA797  LYS798  CYS799  TRP800  GLU811  SER814 

> <Gold.Protein.RotatedAtoms>
  152.4146  134.6064  160.0013 H   0  0  0  0  0  0  0  0  0  0  0  0  # atno 6907 bound_to 6896
  151.6232  133.3332  159.3100 H   0  0  0  0  0  0  0  0  0  0  0  0  # atno 6908 bound_to 6896
  150.8035  134.7184  159.6689 H   0  0  0  0  0  0  0  0  0  0  0  0  # atno 6909 bound_to 6896
  145.8959  139.3545  143.0621 H   0  0  0  0  0  0  0  0  0  0  0  0  # atno 7974 bound_to 7965
  156.2947  140.2606  156.2695 H   0  0  0  0  0  0  0  0  0  0  0  0  # atno 8008 bound_to 7997
  154.9709  140.0391  157.2252 H   0  0  0  0  0  0  0  0  0  0  0  0  # atno 8009 bound_to 7997
  154.7859  140.2803  155.6032 H   0  0  0  0  0  0  0  0  0  0  0  0  # atno 8010 bound_to 7997
  139.5197  144.2969  152.0414 H   0  0  0  0  0  0  0  0  0  0  0  0  # atno 10167 bound_to 10162
  157.6875  131.0671  150.4957 H   0  0  0  0  0  0  0  0  0  0  0  0  # atno 10718 bound_to 10713
  153.3169  135.4071  155.1383 H   0  0  0  0  0  0  0  0  0  0  0  0  # atno 10763 bound_to 10752
  154.8590  135.3578  154.5649 H   0  0  0  0  0  0  0  0  0  0  0  0  # atno 10764 bound_to 10752
  153.6080  135.7069  153.5417 H   0  0  0  0  0  0  0  0  0  0  0  0  # atno 10765 bound_to 10752
  141.0287  134.0014  157.3175 H   0  0  0  0  0  0  0  0  0  0  0  0  # atno 11005 bound_to 11000
  145.8851  140.9338  143.0581 LP  0  0  0  0  0  0  0  0  0  0  0  0  # atno 17320 bound_to 7965
  144.6733  140.0832  143.7468 LP  0  0  0  0  0  0  0  0  0  0  0  0  # atno 17321 bound_to 7965
  140.2418  144.4262  150.6257 LP  0  0  0  0  0  0  0  0  0  0  0  0  # atno 17342 bound_to 10162
  140.6286  143.2184  151.6545 LP  0  0  0  0  0  0  0  0  0  0  0  0  # atno 17343 bound_to 10162
  156.5281  130.4178  149.6216 LP  0  0  0  0  0  0  0  0  0  0  0  0  # atno 17370 bound_to 10713
  156.3094  130.7220  151.2110 LP  0  0  0  0  0  0  0  0  0  0  0  0  # atno 17371 bound_to 10713
  139.9193  135.0199  156.8004 LP  0  0  0  0  0  0  0  0  0  0  0  0  # atno 17394 bound_to 11000
  140.6444  133.9788  155.7724 LP  0  0  0  0  0  0  0  0  0  0  0  0  # atno 17395 bound_to 11000

$$$$
