AV-unprocessed.smi:2732|AV-procd|sdf|10533|dock5
  -GOLD-   2272014573D 1   1.00000     0.00000
 Structure written by MMmdl.
 34 35  0  0  0  0  0  0  0  0  1 V2000
  149.6698  143.7449  158.8559 C   0  0  0  0  0  0  0  0  0  0  0  0
  150.8541  142.9629  158.2684 C   0  0  1  0  0  0  0  0  0  0  0  0
  151.6112  142.4470  159.3601 O   0  0  0  0  0  0  0  0  0  0  0  0
  152.8013  141.7555  159.0021 C   0  0  0  0  0  0  0  0  0  0  0  0
  153.7748  141.8347  160.1576 C   0  0  0  0  0  0  0  0  0  0  0  0
  153.9991  140.6376  161.0535 C   0  0  0  0  0  0  0  0  0  0  0  0
  153.2733  141.8477  161.5839 C   0  0  0  0  0  0  0  0  0  0  0  0
  150.3733  141.8160  157.3641 C   0  0  0  0  0  0  0  0  0  0  0  0
  150.6090  140.6522  157.6861 O   0  0  0  0  0  0  0  0  0  0  0  0
  149.7304  142.1924  156.2424 N   0  0  0  0  0  0  0  0  0  0  0  0
  149.1786  141.3992  155.1976 C   0  0  0  0  0  0  0  0  0  0  0  0
  148.1095  141.7905  154.3544 C   0  0  0  0  0  0  0  0  0  0  0  0
  147.6673  140.8995  153.3571 C   0  0  0  0  0  0  0  0  0  0  0  0
  148.3081  139.6512  153.2344 C   0  0  0  0  0  0  0  0  0  0  0  0
  147.8957  138.7459  152.2600 N   0  0  0  0  0  0  0  0  0  0  0  0
  149.3296  139.2675  154.0272 N   0  0  0  0  0  0  0  0  0  0  0  0
  149.7485  140.1263  154.9811 C   0  0  0  0  0  0  0  0  0  0  0  0
  149.0368  144.1558  158.0686 H   0  0  0  0  0  0  0  0  0  0  0  0
  150.0220  144.5789  159.4633 H   0  0  0  0  0  0  0  0  0  0  0  0
  149.0478  143.1148  159.4930 H   0  0  0  0  0  0  0  0  0  0  0  0
  151.4726  143.6569  157.6957 H   0  0  0  0  0  0  0  0  0  0  0  0
  152.6047  140.7089  158.7667 H   0  0  0  0  0  0  0  0  0  0  0  0
  153.2561  142.2167  158.1245 H   0  0  0  0  0  0  0  0  0  0  0  0
  154.6539  142.4424  159.9512 H   0  0  0  0  0  0  0  0  0  0  0  0
  153.4094  139.7427  160.8638 H   0  0  0  0  0  0  0  0  0  0  0  0
  155.0109  140.4617  161.4127 H   0  0  0  0  0  0  0  0  0  0  0  0
  153.8008  142.4807  162.2948 H   0  0  0  0  0  0  0  0  0  0  0  0
  152.2004  141.7605  161.7443 H   0  0  0  0  0  0  0  0  0  0  0  0
  149.6397  143.1897  156.1116 H   0  0  0  0  0  0  0  0  0  0  0  0
  147.6185  142.7460  154.4393 H   0  0  0  0  0  0  0  0  0  0  0  0
  146.8531  141.1739  152.7022 H   0  0  0  0  0  0  0  0  0  0  0  0
  147.1385  138.9584  151.6269 H   0  0  0  0  0  0  0  0  0  0  0  0
  148.3477  137.8492  152.1512 H   0  0  0  0  0  0  0  0  0  0  0  0
  150.5686  139.7822  155.5943 H   0  0  0  0  0  0  0  0  0  0  0  0
  1  2  1  0  0  0  0
  1 18  1  0  0  0  0
  1 19  1  0  0  0  0
  1 20  1  0  0  0  0
  2  3  1  0  0  0  0
  2  8  1  0  0  0  0
  2 21  1  0  0  0  0
  3  4  1  0  0  0  0
  4  5  1  0  0  0  0
  4 22  1  0  0  0  0
  4 23  1  0  0  0  0
  5  7  1  0  0  0  0
  5  6  1  0  0  0  0
  5 24  1  0  0  0  0
  6  7  1  0  0  0  0
  6 25  1  0  0  0  0
  6 26  1  0  0  0  0
  7 27  1  0  0  0  0
  7 28  1  0  0  0  0
  8  9  2  0  0  0  0
  8 10  1  0  0  0  0
 10 11  1  0  0  0  0
 10 29  1  0  0  0  0
 11 17  1  0  0  0  0
 11 12  2  0  0  0  0
 12 13  1  0  0  0  0
 12 30  1  0  0  0  0
 13 14  2  0  0  0  0
 13 31  1  0  0  0  0
 14 15  1  0  0  0  0
 14 16  1  0  0  0  0
 15 32  1  0  0  0  0
 15 33  1  0  0  0  0
 16 17  2  0  0  0  0
 17 34  1  0  0  0  0
M  END
> <s_m_source_file>
AV-unprocessed.smi

> <i_m_source_file_index>
2732

> <i_lp_mmshare_version>
43012

> <i_f3d_flags>
0

> <s_epik_input>
W0NIMl0xW0NIMl1bQ0hdMVtDSDJdT1tDQEBIXShbQ0gzXSlDKD1PKVtOSF1jMltjSF1bY0hdYyhbTkgyXSluW2NIXTI=

> <s_epik_cmdline>
J2VwaWtfcHl0aG9uJywgJy1waCcsICc3LjAnLCAnLXRuJywgJzgnLCAnLW1hJywgJzIwMCcsICctbWV0YWxfYmluZGluZycsICctaW1hZScsICc8aW5maWxlLm1hZT4nLCAnLW9tYWUnLCAnPG91dGZpbGUubWFlPic=

> <r_lp_tautomer_probability>
1

> <r_epik_Ionization_Penalty>
0.0764773

> <r_epik_Ionization_Penalty_Charging>
0

> <r_epik_Ionization_Penalty_Neutral>
0.0764773

> <r_epik_State_Penalty>
0.0673619

> <r_epik_Charging_Adjusted_Penalty>
0.0673619

> <i_epik_Tot_Q>
0

> <i_epik_Tot_abs_Q>
0

> <r_epik_Metal_State_Penalty>
0.0594329

> <b_epik_Metal_Only>
0

> <s_lp_Force_Field>
OPLS_2005

> <r_lp_Energy>
18.9716

> <b_lp_Chiralities_Consistent>
1

> <s_lp_Variant>
AV-unprocessed.smi:2732-2

> <Gold.Version>
5.8.1

> <Gold.Id.Protein>
6NUR|6NUR_protein|mol2

> <Gold.PLP.Fitness>
38.3414

> <Gold.PLP.PLP>
-33.3820

> <Gold.PLP.part.hbond>
-3.0000

> <Gold.PLP.part.metal>
0.0000

> <Gold.PLP.part.buried>
-1.8823

> <Gold.PLP.part.nonpolar>
-29.2749

> <Gold.PLP.part.repulsive>
0.5464

> <Gold.PLP.ligand.clash>
0.0000

> <Gold.PLP.ligand.torsion>
0.8071

> <Gold.PLP.Chemscore.Hbond>
2.0000

> <Gold.PLP.Chemscore.CHOScore>
0.0000

> <Gold.PLP.Chemscore.Metal>
0.0000

> <Gold.Chemscore.Hbonds>
donor molecule, donor type, donor heavy atom, donor atom, acceptor molecule, acceptor atom, score
      L1  H    10    29       P1  8028  1.00
      L1  H    15    33       P1  7948  1.00

> <Gold.PLP.Chemscore.Internal.Correction>
0.5735

> <Gold.Rescore>
     Score         DG    S(hbond)    S(metal)    S(lipo)     H(rot)  DE(clash)    DE(int)     intcor
     13.83     -17.44       1.98        0.00      83.34       1.72       0.34       3.27       ----

> <Gold.Chemscore.Fitness>
13.8274

> <Gold.Chemscore.DG>
-17.4412

> <Gold.Chemscore.ZeroCoef>
-5.4800

> <Gold.Chemscore.Hbond>
1.9831

> <Gold.Chemscore.Metal>
0.0000

> <Gold.Chemscore.Lipo>
83.3376

> <Gold.Chemscore.Internal_Hbond>
0.0000

> <Gold.Chemscore.DEClash>
0.3413

> <Gold.Chemscore.DEInternal>
3.2725

> <Gold.Chemscore.Rot>
1.7237

> <Gold.Chemscore.Internal.Correction>
   9.000000E+99

> <Gold.Chemscore.Hbonds>
donor molecule, donor type, donor heavy atom, donor atom, acceptor molecule, acceptor atom, score
      L1  H    10    29       P1  8028  0.99
      L1  H    15    33       P1  7948  1.00

> <Gold.Chemscore.Hbond.Weighted>
-6.6234

> <Gold.Chemscore.Metal.Weighted>
-0.0000

> <Gold.Chemscore.Lipo.Weighted>
-9.7505

> <Gold.Chemscore.Internal_Hbond.Weighted>
0.0000

> <Gold.Chemscore.DEClash.Weighted>
0.3413

> <Gold.Chemscore.DEInternal.Weighted>
3.2725

> <Gold.Chemscore.Rot.Weighted>
4.4127

> <Gold.Chemscore.Internal.Correction.Weighted>
   9.000000E+99

> <Gold.Protein.RotatedTorsions>
[ 6907 6896 6895 6894 ] final -136.14 input  -60.11 | X-H torsion
[ 7974 7965 7964 7962 ] final  -35.11 input  175.53 | X-H torsion
[ 8008 7997 7996 7995 ] final -168.23 input   59.86 | X-H torsion
[ 10167 10162 10161 10158 ] final   -8.57 input  -65.29 | X-H torsion
[ 10718 10713 10712 10709 ] final   13.27 input   66.30 | X-H torsion
[ 10763 10752 10751 10750 ] final   11.80 input  -60.55 | X-H torsion
[ 11005 11000 10999 10996 ] final  109.38 input  -57.11 | X-H torsion

> <Gold.Protein.ActiveResidues>
 VAL166  LYS551  ARG553  GLY616  TRP617  ASP618  TYR619  PRO620  LYS621  CYS622 
 ASP623  PHE694  ASN695  SER759  ASP760  ASP761  ALA762  ILE779  LEU786  VAL792 
 PHE793  MET794  SER795  GLU796  ALA797  LYS798  CYS799  TRP800  GLU811  SER814 

> <Gold.Protein.RotatedAtoms>
  151.0064  133.6007  159.2688 H   0  0  0  0  0  0  0  0  0  0  0  0  # atno 6907 bound_to 6896
  151.3174  135.0809  159.9303 H   0  0  0  0  0  0  0  0  0  0  0  0  # atno 6908 bound_to 6896
  152.5288  133.9717  159.7819 H   0  0  0  0  0  0  0  0  0  0  0  0  # atno 6909 bound_to 6896
  146.0774  140.6120  142.8924 H   0  0  0  0  0  0  0  0  0  0  0  0  # atno 7974 bound_to 7965
  155.8886  140.1021  157.1435 H   0  0  0  0  0  0  0  0  0  0  0  0  # atno 8008 bound_to 7997
  154.4012  140.1315  156.4351 H   0  0  0  0  0  0  0  0  0  0  0  0  # atno 8009 bound_to 7997
  155.7560  140.3464  155.5176 H   0  0  0  0  0  0  0  0  0  0  0  0  # atno 8010 bound_to 7997
  140.7063  143.5954  150.8851 H   0  0  0  0  0  0  0  0  0  0  0  0  # atno 10167 bound_to 10162
  157.0222  130.6159  149.5722 H   0  0  0  0  0  0  0  0  0  0  0  0  # atno 10718 bound_to 10713
  153.1889  135.6839  153.8379 H   0  0  0  0  0  0  0  0  0  0  0  0  # atno 10763 bound_to 10752
  153.7685  135.3199  155.3349 H   0  0  0  0  0  0  0  0  0  0  0  0  # atno 10764 bound_to 10752
  154.8105  135.4720  154.0602 H   0  0  0  0  0  0  0  0  0  0  0  0  # atno 10765 bound_to 10752
  139.8861  134.9456  156.6117 H   0  0  0  0  0  0  0  0  0  0  0  0  # atno 11005 bound_to 11000
  144.7270  140.4556  143.6965 LP  0  0  0  0  0  0  0  0  0  0  0  0  # atno 17320 bound_to 7965
  145.6281  139.1533  143.2984 LP  0  0  0  0  0  0  0  0  0  0  0  0  # atno 17321 bound_to 7965
  139.9679  143.6090  152.2982 LP  0  0  0  0  0  0  0  0  0  0  0  0  # atno 17342 bound_to 10162
  139.6666  144.7662  151.1862 LP  0  0  0  0  0  0  0  0  0  0  0  0  # atno 17343 bound_to 10162
  156.0098  130.5189  150.7952 LP  0  0  0  0  0  0  0  0  0  0  0  0  # atno 17370 bound_to 10713
  157.5241  131.0933  151.0040 LP  0  0  0  0  0  0  0  0  0  0  0  0  # atno 17371 bound_to 10713
  140.7806  133.8663  155.8565 LP  0  0  0  0  0  0  0  0  0  0  0  0  # atno 17394 bound_to 11000
  140.9763  134.1464  157.4533 LP  0  0  0  0  0  0  0  0  0  0  0  0  # atno 17395 bound_to 11000

$$$$
