AV-unprocessed.smi:3135|AV-procd|sdf|11946|dock8
  -GOLD-   2272017343D 1   1.00000     0.00000
 Structure written by MMmdl.
 38 39  0  0  0  0  0  0  0  0  2 V2000
  152.2620  145.0244  158.3662 C   0  0  0  0  0  0  0  0  0  0  0  0
  151.7966  143.5969  158.3823 C   0  0  0  0  0  0  0  0  0  0  0  0
  152.0484  142.6068  159.3743 C   0  0  0  0  0  0  0  0  0  0  0  0
  151.4928  141.4402  159.0896 N   0  0  0  0  0  0  0  0  0  0  0  0
  150.8678  141.6427  157.9098 N   0  0  0  0  0  0  0  0  0  0  0  0
  150.1293  140.5580  157.2843 C   0  0  0  0  0  0  0  0  0  0  0  0
  149.8875  140.8036  155.7910 C   0  0  0  0  0  0  0  0  0  0  0  0
  150.7931  140.6003  154.9830 O   0  0  0  0  0  0  0  0  0  0  0  0
  148.6753  141.2576  155.4324 N   0  0  0  0  0  0  0  0  0  0  0  0
  148.2581  141.5329  154.0633 C   0  0  0  0  0  0  0  0  0  0  0  0
  146.7280  141.4439  153.9110 C   0  0  0  0  0  0  0  0  0  0  0  0
  146.2244  140.0468  153.8996 N   0  3  2  0  0  0  0  0  0  0  0  0
  146.0886  139.5159  155.2753 C   0  0  0  0  0  0  0  0  0  0  0  0
  147.0318  139.1433  153.0444 C   0  0  0  0  0  0  0  0  0  0  0  0
  146.7482  139.2725  151.5637 C   0  0  0  0  0  0  0  0  0  0  0  0
  146.2193  138.0843  152.3299 C   0  0  0  0  0  0  0  0  0  0  0  0
  151.0391  142.9347  157.4583 C   0  0  0  0  0  0  0  0  0  0  0  0
  152.2591  145.4611  159.3652 H   0  0  0  0  0  0  0  0  0  0  0  0
  151.6258  145.6515  157.7410 H   0  0  0  0  0  0  0  0  0  0  0  0
  153.2777  145.1101  157.9802 H   0  0  0  0  0  0  0  0  0  0  0  0
  152.6153  142.7015  160.2889 H   0  0  0  0  0  0  0  0  0  0  0  0
  150.6874  139.6297  157.4119 H   0  0  0  0  0  0  0  0  0  0  0  0
  149.1775  140.4337  157.8032 H   0  0  0  0  0  0  0  0  0  0  0  0
  147.9880  141.3977  156.1591 H   0  0  0  0  0  0  0  0  0  0  0  0
  148.6203  142.5141  153.7511 H   0  0  0  0  0  0  0  0  0  0  0  0
  148.7502  140.7995  153.4251 H   0  0  0  0  0  0  0  0  0  0  0  0
  146.2342  142.0043  154.7066 H   0  0  0  0  0  0  0  0  0  0  0  0
  146.4428  141.9216  152.9724 H   0  0  0  0  0  0  0  0  0  0  0  0
  147.0590  139.4684  155.7713 H   0  0  0  0  0  0  0  0  0  0  0  0
  145.6601  138.5135  155.2711 H   0  0  0  0  0  0  0  0  0  0  0  0
  145.4305  140.1486  155.8718 H   0  0  0  0  0  0  0  0  0  0  0  0
  148.0312  138.9051  153.4048 H   0  0  0  0  0  0  0  0  0  0  0  0
  146.0243  140.0171  151.2376 H   0  0  0  0  0  0  0  0  0  0  0  0
  147.5737  139.0956  150.8771 H   0  0  0  0  0  0  0  0  0  0  0  0
  146.6962  137.1232  152.1477 H   0  0  0  0  0  0  0  0  0  0  0  0
  145.1450  138.0442  152.5006 H   0  0  0  0  0  0  0  0  0  0  0  0
  150.6087  143.2740  156.5274 H   0  0  0  0  0  0  0  0  0  0  0  0
  145.2934  140.0730  153.5087 H   0  0  0  0  0  0  0  0  0  0  0  0
  1  2  1  0  0  0  0
  1 18  1  0  0  0  0
  1 19  1  0  0  0  0
  1 20  1  0  0  0  0
  2 17  2  0  0  0  0
  2  3  1  0  0  0  0
  3  4  2  0  0  0  0
  3 21  1  0  0  0  0
  4  5  1  0  0  0  0
  5  6  1  0  0  0  0
  5 17  1  0  0  0  0
  6  7  1  0  0  0  0
  6 22  1  0  0  0  0
  6 23  1  0  0  0  0
  7  8  2  0  0  0  0
  7  9  1  0  0  0  0
  9 10  1  0  0  0  0
  9 24  1  0  0  0  0
 10 11  1  0  0  0  0
 10 25  1  0  0  0  0
 10 26  1  0  0  0  0
 11 12  1  0  0  0  0
 11 27  1  0  0  0  0
 11 28  1  0  0  0  0
 12 13  1  0  0  0  0
 12 14  1  0  0  0  0
 12 38  1  0  0  0  0
 13 29  1  0  0  0  0
 13 30  1  0  0  0  0
 13 31  1  0  0  0  0
 14 16  1  0  0  0  0
 14 15  1  0  0  0  0
 14 32  1  0  0  0  0
 15 16  1  0  0  0  0
 15 33  1  0  0  0  0
 15 34  1  0  0  0  0
 16 35  1  0  0  0  0
 16 36  1  0  0  0  0
 17 37  1  0  0  0  0
M  CHG  1  12   1
M  END
> <s_m_source_file>
AV-unprocessed.smi

> <i_m_source_file_index>
3135

> <i_lp_mmshare_version>
43012

> <i_f3d_flags>
0

> <s_epik_input>
W0NIM11jMVtjSF1ubihbY0hdMSlbQ0gyXUMoPU8pW05IXVtDSDJdW0NIMl1OKFtDSDNdKVtDSF0yW0NIMl1bQ0gyXTI=

> <s_epik_cmdline>
J2VwaWtfcHl0aG9uJywgJy1waCcsICc3LjAnLCAnLXRuJywgJzgnLCAnLW1hJywgJzIwMCcsICctbWV0YWxfYmluZGluZycsICctaW1hZScsICc8aW5maWxlLm1hZT4nLCAnLW9tYWUnLCAnPG91dGZpbGUubWFlPic=

> <r_lp_tautomer_probability>
1

> <r_epik_Ionization_Penalty>
0.174318

> <r_epik_Ionization_Penalty_Charging>
0.174302

> <r_epik_Ionization_Penalty_Neutral>
1.62778e-05

> <r_epik_State_Penalty>
0.163722

> <r_epik_Charging_Adjusted_Penalty>
0.338024

> <i_epik_Tot_Q>
1

> <i_epik_Tot_abs_Q>
1

> <r_epik_Metal_State_Penalty>
0.163727

> <b_epik_Metal_Only>
0

> <s_lp_Force_Field>
OPLS_2005

> <r_lp_Energy>
17.5594

> <b_lp_Chiralities_Consistent>
1

> <s_lp_Variant>
AV-unprocessed.smi:3135-2

> <Gold.Version>
5.8.1

> <Gold.Id.Protein>
6NUR|6NUR_protein|mol2

> <Gold.PLP.Fitness>
47.2598

> <Gold.PLP.PLP>
-37.0952

> <Gold.PLP.part.hbond>
-2.0000

> <Gold.PLP.part.metal>
0.0000

> <Gold.PLP.part.buried>
-1.3272

> <Gold.PLP.part.nonpolar>
-33.4692

> <Gold.PLP.part.repulsive>
0.1602

> <Gold.PLP.ligand.clash>
0.0000

> <Gold.PLP.ligand.torsion>
1.5626

> <Gold.PLP.Chemscore.Hbond>
3.0000

> <Gold.PLP.Chemscore.CHOScore>
0.9982

> <Gold.PLP.Chemscore.Metal>
0.0000

> <Gold.Chemscore.Hbonds>
donor molecule, donor type, donor heavy atom, donor atom, acceptor molecule, acceptor atom, score
      L1  H    12    38       P1 10175  2.00
      P1  H  7989  7998       L1     8  0.98
      L1  C    17    37       P1  8028  1.00

> <Gold.PLP.Chemscore.Internal.Correction>
1.2952

> <Gold.Rescore>
     Score         DG    S(hbond)    S(metal)    S(lipo)     H(rot)  DE(clash)    DE(int)     intcor
     16.32     -17.94       1.97        0.00      93.05       1.96       0.14       1.48       ----

> <Gold.Chemscore.Fitness>
16.3152

> <Gold.Chemscore.DG>
-17.9374

> <Gold.Chemscore.ZeroCoef>
-5.4800

> <Gold.Chemscore.Hbond>
1.9692

> <Gold.Chemscore.Metal>
0.0000

> <Gold.Chemscore.Lipo>
93.0452

> <Gold.Chemscore.Internal_Hbond>
0.0000

> <Gold.Chemscore.DEClash>
0.1423

> <Gold.Chemscore.DEInternal>
1.4800

> <Gold.Chemscore.Rot>
1.9555

> <Gold.Chemscore.Internal.Correction>
   9.000000E+99

> <Gold.Chemscore.Hbonds>
donor molecule, donor type, donor heavy atom, donor atom, acceptor molecule, acceptor atom, score
      L1  H    12    38       P1 10175  0.99
      P1  H  7989  7998       L1     8  0.92

> <Gold.Chemscore.Hbond.Weighted>
-6.5771

> <Gold.Chemscore.Metal.Weighted>
-0.0000

> <Gold.Chemscore.Lipo.Weighted>
-10.8863

> <Gold.Chemscore.Internal_Hbond.Weighted>
0.0000

> <Gold.Chemscore.DEClash.Weighted>
0.1423

> <Gold.Chemscore.DEInternal.Weighted>
1.4800

> <Gold.Chemscore.Rot.Weighted>
5.0060

> <Gold.Chemscore.Internal.Correction.Weighted>
   9.000000E+99

> <Gold.Protein.RotatedTorsions>
[ 6907 6896 6895 6894 ] final   70.84 input  -60.11 | X-H torsion
[ 7974 7965 7964 7962 ] final   98.73 input  175.53 | X-H torsion
[ 8008 7997 7996 7995 ] final  -39.51 input   59.86 | X-H torsion
[ 10167 10162 10161 10158 ] final  -41.53 input  -65.29 | X-H torsion
[ 10718 10713 10712 10709 ] final   93.55 input   66.30 | X-H torsion
[ 10763 10752 10751 10750 ] final   97.26 input  -60.55 | X-H torsion
[ 11005 11000 10999 10996 ] final  -98.52 input  -57.11 | X-H torsion

> <Gold.Protein.ActiveResidues>
 VAL166  LYS551  ARG553  GLY616  TRP617  ASP618  TYR619  PRO620  LYS621  CYS622 
 ASP623  PHE694  ASN695  SER759  ASP760  ASP761  ALA762  ILE779  LEU786  VAL792 
 PHE793  MET794  SER795  GLU796  ALA797  LYS798  CYS799  TRP800  GLU811  SER814 

> <Gold.Protein.RotatedAtoms>
  152.4774  134.4809  159.9665 H   0  0  0  0  0  0  0  0  0  0  0  0  # atno 6907 bound_to 6896
  151.4822  133.3538  159.2848 H   0  0  0  0  0  0  0  0  0  0  0  0  # atno 6908 bound_to 6896
  150.8822  134.8241  159.7294 H   0  0  0  0  0  0  0  0  0  0  0  0  # atno 6909 bound_to 6896
  145.4082  139.2337  143.3262 H   0  0  0  0  0  0  0  0  0  0  0  0  # atno 7974 bound_to 7965
  154.4022  140.1550  156.2875 H   0  0  0  0  0  0  0  0  0  0  0  0  # atno 8008 bound_to 7997
  155.8815  140.3443  155.5869 H   0  0  0  0  0  0  0  0  0  0  0  0  # atno 8009 bound_to 7997
  155.7662  140.0824  157.2121 H   0  0  0  0  0  0  0  0  0  0  0  0  # atno 8010 bound_to 7997
  140.6999  143.3089  151.3079 H   0  0  0  0  0  0  0  0  0  0  0  0  # atno 10167 bound_to 10162
  157.6954  131.0482  150.4051 H   0  0  0  0  0  0  0  0  0  0  0  0  # atno 10718 bound_to 10713
  153.2747  135.4190  155.1022 H   0  0  0  0  0  0  0  0  0  0  0  0  # atno 10763 bound_to 10752
  154.8468  135.3480  154.6195 H   0  0  0  0  0  0  0  0  0  0  0  0  # atno 10764 bound_to 10752
  153.6615  135.7048  153.5233 H   0  0  0  0  0  0  0  0  0  0  0  0  # atno 10765 bound_to 10752
  141.1342  133.8252  157.0851 H   0  0  0  0  0  0  0  0  0  0  0  0  # atno 11005 bound_to 11000
  146.2718  140.4790  142.8811 LP  0  0  0  0  0  0  0  0  0  0  0  0  # atno 17320 bound_to 7965
  144.8327  140.6732  143.6280 LP  0  0  0  0  0  0  0  0  0  0  0  0  # atno 17321 bound_to 7965
  139.6505  144.0371  152.2623 LP  0  0  0  0  0  0  0  0  0  0  0  0  # atno 17342 bound_to 10162
  139.9906  144.6364  150.7818 LP  0  0  0  0  0  0  0  0  0  0  0  0  # atno 17343 bound_to 10162
  156.4440  130.3997  149.6679 LP  0  0  0  0  0  0  0  0  0  0  0  0  # atno 17370 bound_to 10713
  156.3852  130.7599  151.2595 LP  0  0  0  0  0  0  0  0  0  0  0  0  # atno 17371 bound_to 10713
  140.0427  134.9846  157.0992 LP  0  0  0  0  0  0  0  0  0  0  0  0  # atno 17394 bound_to 11000
  140.4110  134.1981  155.7163 LP  0  0  0  0  0  0  0  0  0  0  0  0  # atno 17395 bound_to 11000

$$$$
