AV-unprocessed.smi:1820|AV-procd|sdf|7384|dock4
  -GOLD-   22720 9 53D 1   1.00000     0.00000
 Structure written by MMmdl.
 34 35  0  0  0  0  0  0  0  0  1 V2000
  144.4553  136.8794  152.5108 O   0  0  0  0  0  0  0  0  0  0  0  0
  145.6679  136.6739  152.4687 C   0  0  0  0  0  0  0  0  0  0  0  0
  146.5801  137.5283  152.9527 N   0  0  0  0  0  0  0  0  0  0  0  0
  146.2803  138.7926  153.6198 C   0  0  0  0  0  0  0  0  0  0  0  0
  147.0781  139.9901  153.0413 C   0  0  0  0  0  0  0  0  0  0  0  0
  146.7908  140.0906  151.6601 O   0  0  0  0  0  0  0  0  0  0  0  0
  146.8456  141.3288  153.7602 C   0  0  0  0  0  0  0  0  0  0  0  0
  147.7643  141.2810  154.9852 C   0  0  0  0  0  0  0  0  0  0  0  0
  148.9205  140.3404  154.6104 C   0  0  0  0  0  0  0  0  0  0  0  0
  148.5898  139.7848  153.2179 C   0  0  0  0  0  0  0  0  0  0  0  0
  146.2583  135.5935  151.9281 N   0  0  0  0  0  0  0  0  0  0  0  0
  145.6579  134.4607  151.3135 C   0  0  0  0  0  0  0  0  0  0  0  0
  146.5142  133.4566  150.8159 C   0  0  0  0  0  0  0  0  0  0  0  0
  145.9468  132.3161  150.2136 C   0  0  0  0  0  0  0  0  0  0  0  0
  144.6165  132.1256  150.0922 N   0  0  0  0  0  0  0  0  0  0  0  0
  143.7977  133.0807  150.5811 C   0  0  0  0  0  0  0  0  0  0  0  0
  144.2610  134.2580  151.2020 C   0  0  0  0  0  0  0  0  0  0  0  0
  147.5548  137.2797  152.8713 H   0  0  0  0  0  0  0  0  0  0  0  0
  145.2123  138.9617  153.4801 H   0  0  0  0  0  0  0  0  0  0  0  0
  146.4247  138.7146  154.6989 H   0  0  0  0  0  0  0  0  0  0  0  0
  147.6053  140.1672  151.1875 H   0  0  0  0  0  0  0  0  0  0  0  0
  147.1698  142.1489  153.1172 H   0  0  0  0  0  0  0  0  0  0  0  0
  145.8054  141.5258  154.0194 H   0  0  0  0  0  0  0  0  0  0  0  0
  148.1149  142.2750  155.2650 H   0  0  0  0  0  0  0  0  0  0  0  0
  147.2225  140.8737  155.8398 H   0  0  0  0  0  0  0  0  0  0  0  0
  149.8797  140.8589  154.6078 H   0  0  0  0  0  0  0  0  0  0  0  0
  148.9906  139.5304  155.3373 H   0  0  0  0  0  0  0  0  0  0  0  0
  148.8973  138.7454  153.0964 H   0  0  0  0  0  0  0  0  0  0  0  0
  149.1350  140.3691  152.4743 H   0  0  0  0  0  0  0  0  0  0  0  0
  147.2672  135.6073  151.9090 H   0  0  0  0  0  0  0  0  0  0  0  0
  147.5874  133.5556  150.8877 H   0  0  0  0  0  0  0  0  0  0  0  0
  146.5802  131.5350  149.8198 H   0  0  0  0  0  0  0  0  0  0  0  0
  142.7380  132.8987  150.4797 H   0  0  0  0  0  0  0  0  0  0  0  0
  143.5414  134.9651  151.5844 H   0  0  0  0  0  0  0  0  0  0  0  0
  1  2  2  0  0  0  0
  2  3  1  0  0  0  0
  2 11  1  0  0  0  0
  3  4  1  0  0  0  0
  3 18  1  0  0  0  0
  4  5  1  0  0  0  0
  4 19  1  0  0  0  0
  4 20  1  0  0  0  0
  5 10  1  0  0  0  0
  5  6  1  0  0  0  0
  5  7  1  0  0  0  0
  6 21  1  0  0  0  0
  7  8  1  0  0  0  0
  7 22  1  0  0  0  0
  7 23  1  0  0  0  0
  8  9  1  0  0  0  0
  8 24  1  0  0  0  0
  8 25  1  0  0  0  0
  9 10  1  0  0  0  0
  9 26  1  0  0  0  0
  9 27  1  0  0  0  0
 10 28  1  0  0  0  0
 10 29  1  0  0  0  0
 11 12  1  0  0  0  0
 11 30  1  0  0  0  0
 12 17  1  0  0  0  0
 12 13  2  0  0  0  0
 13 14  1  0  0  0  0
 13 31  1  0  0  0  0
 14 15  2  0  0  0  0
 14 32  1  0  0  0  0
 15 16  1  0  0  0  0
 16 17  2  0  0  0  0
 16 33  1  0  0  0  0
 17 34  1  0  0  0  0
M  END
> <s_m_source_file>
AV-unprocessed.smi

> <i_m_source_file_index>
1820

> <i_lp_mmshare_version>
43012

> <i_f3d_flags>
0

> <s_epik_input>
W2NIXTFbY0hdbltjSF1bY0hdYzFbTkhdQyg9TylbTkhdW0NIMl1DMihbT0hdKVtDSDJdW0NIMl1bQ0gyXVtDSDJdMg==

> <s_epik_cmdline>
J2VwaWtfcHl0aG9uJywgJy1waCcsICc3LjAnLCAnLXRuJywgJzgnLCAnLW1hJywgJzIwMCcsICctbWV0YWxfYmluZGluZycsICctaW1hZScsICc8aW5maWxlLm1hZT4nLCAnLW9tYWUnLCAnPG91dGZpbGUubWFlPic=

> <r_epik_Ionization_Penalty>
0.127626

> <r_epik_Ionization_Penalty_Charging>
0

> <r_epik_Ionization_Penalty_Neutral>
0.127626

> <r_epik_State_Penalty>
0.11702

> <r_epik_Charging_Adjusted_Penalty>
0.11702

> <i_epik_Tot_Q>
0

> <i_epik_Tot_abs_Q>
0

> <r_epik_Metal_State_Penalty>
0.0961027

> <b_epik_Metal_Only>
0

> <s_lp_Force_Field>
OPLS_2005

> <r_lp_Energy>
30.5055

> <b_lp_Chiralities_Consistent>
1

> <s_lp_Variant>
AV-unprocessed.smi:1820-1

> <Gold.Version>
5.8.1

> <Gold.Id.Protein>
6NUR|6NUR_protein|mol2

> <Gold.PLP.Fitness>
43.0108

> <Gold.PLP.PLP>
-28.3918

> <Gold.PLP.part.hbond>
-3.3445

> <Gold.PLP.part.metal>
0.0000

> <Gold.PLP.part.buried>
-0.4451

> <Gold.PLP.part.nonpolar>
-25.4547

> <Gold.PLP.part.repulsive>
0.4038

> <Gold.PLP.ligand.clash>
0.0000

> <Gold.PLP.ligand.torsion>
0.0495

> <Gold.PLP.Chemscore.Hbond>
2.9440

> <Gold.PLP.Chemscore.CHOScore>
1.9587

> <Gold.PLP.Chemscore.Metal>
0.0000

> <Gold.Chemscore.Hbonds>
donor molecule, donor type, donor heavy atom, donor atom, acceptor molecule, acceptor atom, score
      L1  H     3    18       P1  7948  0.93
      L1  H     6    21       P1  7957  1.00
      L1  H    11    30       P1  7948  1.00
      L1  C    14    32       P1 10747  1.00
      L1  C    16    33       P1 10186  0.97

> <Gold.PLP.Chemscore.Internal.Correction>
0.0098

> <Gold.Rescore>
     Score         DG    S(hbond)    S(metal)    S(lipo)     H(rot)  DE(clash)    DE(int)     intcor
     16.50     -19.62       2.91        0.00      76.21       1.76       1.84       1.28       ----

> <Gold.Chemscore.Fitness>
16.4951

> <Gold.Chemscore.DG>
-19.6202

> <Gold.Chemscore.ZeroCoef>
-5.4800

> <Gold.Chemscore.Hbond>
2.9101

> <Gold.Chemscore.Metal>
0.0000

> <Gold.Chemscore.Lipo>
76.2109

> <Gold.Chemscore.Internal_Hbond>
0.0000

> <Gold.Chemscore.DEClash>
1.8420

> <Gold.Chemscore.DEInternal>
1.2831

> <Gold.Chemscore.Rot>
1.7564

> <Gold.Chemscore.Internal.Correction>
   9.000000E+99

> <Gold.Chemscore.Hbonds>
donor molecule, donor type, donor heavy atom, donor atom, acceptor molecule, acceptor atom, score
      L1  H     3    18       P1  7948  0.87
      L1  H     6    21       P1  7957  0.94
      L1  H    11    30       P1  7948  1.00

> <Gold.Chemscore.Hbond.Weighted>
-9.7199

> <Gold.Chemscore.Metal.Weighted>
-0.0000

> <Gold.Chemscore.Lipo.Weighted>
-8.9167

> <Gold.Chemscore.Internal_Hbond.Weighted>
0.0000

> <Gold.Chemscore.DEClash.Weighted>
1.8420

> <Gold.Chemscore.DEInternal.Weighted>
1.2831

> <Gold.Chemscore.Rot.Weighted>
4.4963

> <Gold.Chemscore.Internal.Correction.Weighted>
   9.000000E+99

> <Gold.Protein.RotatedTorsions>
[ 6907 6896 6895 6894 ] final    6.52 input  -60.11 | X-H torsion
[ 7974 7965 7964 7962 ] final   37.07 input  175.53 | X-H torsion
[ 8008 7997 7996 7995 ] final    9.33 input   59.86 | X-H torsion
[ 10167 10162 10161 10158 ] final  145.26 input  -65.29 | X-H torsion
[ 10718 10713 10712 10709 ] final   19.61 input   66.30 | X-H torsion
[ 10763 10752 10751 10750 ] final -179.03 input  -60.55 | X-H torsion
[ 11005 11000 10999 10996 ] final -101.81 input  -57.11 | X-H torsion

> <Gold.Protein.ActiveResidues>
 VAL166  LYS551  ARG553  GLY616  TRP617  ASP618  TYR619  PRO620  LYS621  CYS622 
 ASP623  PHE694  ASN695  SER759  ASP760  ASP761  ALA762  ILE779  LEU786  VAL792 
 PHE793  MET794  SER795  GLU796  ALA797  LYS798  CYS799  TRP800  GLU811  SER814 

> <Gold.Protein.RotatedAtoms>
  151.6751  135.0970  160.0205 H   0  0  0  0  0  0  0  0  0  0  0  0  # atno 6907 bound_to 6896
  152.3869  133.6619  159.6214 H   0  0  0  0  0  0  0  0  0  0  0  0  # atno 6908 bound_to 6896
  150.7792  133.8937  159.3362 H   0  0  0  0  0  0  0  0  0  0  0  0  # atno 6909 bound_to 6896
  146.1165  139.5939  142.9318 H   0  0  0  0  0  0  0  0  0  0  0  0  # atno 7974 bound_to 7965
  154.7787  140.2815  155.6081 H   0  0  0  0  0  0  0  0  0  0  0  0  # atno 8008 bound_to 7997
  156.2946  140.2627  156.2535 H   0  0  0  0  0  0  0  0  0  0  0  0  # atno 8009 bound_to 7997
  154.9811  140.0375  157.2267 H   0  0  0  0  0  0  0  0  0  0  0  0  # atno 8010 bound_to 7997
  139.4930  144.5914  151.6673 H   0  0  0  0  0  0  0  0  0  0  0  0  # atno 10167 bound_to 10162
  157.1129  130.6516  149.5902 H   0  0  0  0  0  0  0  0  0  0  0  0  # atno 10718 bound_to 10713
  154.5402  135.2805  155.1102 H   0  0  0  0  0  0  0  0  0  0  0  0  # atno 10763 bound_to 10752
  154.2588  135.6325  153.5270 H   0  0  0  0  0  0  0  0  0  0  0  0  # atno 10764 bound_to 10752
  152.9977  135.5600  154.5939 H   0  0  0  0  0  0  0  0  0  0  0  0  # atno 10765 bound_to 10752
  141.1215  133.8508  157.1280 H   0  0  0  0  0  0  0  0  0  0  0  0  # atno 11005 bound_to 11000
  145.5556  141.0409  143.2254 LP  0  0  0  0  0  0  0  0  0  0  0  0  # atno 17320 bound_to 7965
  144.7557  139.7080  143.7255 LP  0  0  0  0  0  0  0  0  0  0  0  0  # atno 17321 bound_to 7965
  140.5542  144.0376  150.6140 LP  0  0  0  0  0  0  0  0  0  0  0  0  # atno 17342 bound_to 10162
  140.3440  143.3002  152.0558 LP  0  0  0  0  0  0  0  0  0  0  0  0  # atno 17343 bound_to 10162
  155.9846  130.4872  150.6992 LP  0  0  0  0  0  0  0  0  0  0  0  0  # atno 17370 bound_to 10713
  157.4544  131.0876  151.0812 LP  0  0  0  0  0  0  0  0  0  0  0  0  # atno 17371 bound_to 10713
  140.0177  134.9960  157.0527 LP  0  0  0  0  0  0  0  0  0  0  0  0  # atno 17394 bound_to 11000
  140.4492  134.1600  155.7180 LP  0  0  0  0  0  0  0  0  0  0  0  0  # atno 17395 bound_to 11000

$$$$
