AV-unprocessed.smi:112|AV-procd|sdf|1083|dock4
  -GOLD-   2262018173D 1   1.00000     0.00000
 Structure written by MMmdl.
 54 57  0  0  0  0  0  0  0  0  3 V2000
  146.1737  140.3882  158.1201 C   0  0  0  0  0  0  0  0  0  0  0  0
  147.2513  140.4606  157.0494 C   0  0  0  0  0  0  0  0  0  0  0  0
  147.1440  139.7976  155.8747 C   0  0  0  0  0  0  0  0  0  0  0  0
  148.1052  139.8445  154.8808 N   0  0  0  0  0  0  0  0  0  0  0  0
  147.9387  139.1149  153.5651 C   0  0  2  0  0  0  0  0  0  0  0  0
  147.1562  139.9797  152.5660 C   0  0  0  0  0  0  0  0  0  0  0  0
  146.1743  138.9929  151.9649 C   0  0  1  0  0  0  0  0  0  0  0  0
  146.7358  138.3558  150.8327 O   0  0  0  0  0  0  0  0  0  0  0  0
  145.9466  138.0187  153.1274 C   0  0  1  0  0  0  0  0  0  0  0  0
  145.4108  136.6214  152.7712 C   0  0  0  0  0  0  0  0  0  0  0  0
  146.4808  135.7235  152.5669 O   0  0  0  0  0  0  0  0  0  0  0  0
  147.2178  137.9327  153.7642 O   0  0  0  0  0  0  0  0  0  0  0  0
  149.2625  140.6264  155.0672 C   0  0  0  0  0  0  0  0  0  0  0  0
  150.1169  140.7086  154.1815 O   0  0  0  0  0  0  0  0  0  0  0  0
  149.4102  141.3231  156.2875 N   0  0  0  0  0  0  0  0  0  0  0  0
  150.6173  142.1576  156.4828 C   0  0  0  0  0  0  0  0  0  0  0  0
  151.5169  141.6856  157.6465 C   0  0  0  0  0  0  0  0  0  0  0  0
  152.0959  140.6028  157.5495 O   0  0  0  0  0  0  0  0  0  0  0  0
  151.6279  142.4938  158.7300 N   0  0  0  0  0  0  0  0  0  0  0  0
  150.9479  143.7959  158.8459 C   0  0  0  0  0  0  0  0  0  0  0  0
  151.3420  144.3703  160.2243 C   0  0  0  0  0  0  0  0  0  0  0  0
  152.2393  143.3093  160.7898 C   0  0  0  0  0  0  0  0  0  0  0  0
  152.8778  143.3299  162.0415 C   0  0  0  0  0  0  0  0  0  0  0  0
  153.6914  142.2307  162.4133 C   0  0  0  0  0  0  0  0  0  0  0  0
  154.3750  142.2160  163.7219 N   0  3  0  0  0  0  0  0  0  0  0  0
  154.0273  143.0326  164.5690 O   0  0  0  0  0  0  0  0  0  0  0  0
  155.2620  141.3883  163.9048 O   0  5  0  0  0  0  0  0  0  0  0  0
  153.8384  141.1443  161.5103 C   0  0  0  0  0  0  0  0  0  0  0  0
  153.1899  141.1407  160.2560 C   0  0  0  0  0  0  0  0  0  0  0  0
  152.3832  142.2454  159.9069 C   0  0  0  0  0  0  0  0  0  0  0  0
  148.4334  141.2847  157.3126 C   0  0  0  0  0  0  0  0  0  0  0  0
  148.5898  141.9263  158.3534 O   0  0  0  0  0  0  0  0  0  0  0  0
  145.3527  139.7333  157.8270 H   0  0  0  0  0  0  0  0  0  0  0  0
  145.7585  141.3785  158.3099 H   0  0  0  0  0  0  0  0  0  0  0  0
  146.5874  140.0049  159.0537 H   0  0  0  0  0  0  0  0  0  0  0  0
  146.2539  139.2083  155.7169 H   0  0  0  0  0  0  0  0  0  0  0  0
  148.9417  138.8486  153.2272 H   0  0  0  0  0  0  0  0  0  0  0  0
  146.6142  140.7594  153.1039 H   0  0  0  0  0  0  0  0  0  0  0  0
  147.8214  140.4531  151.8427 H   0  0  0  0  0  0  0  0  0  0  0  0
  145.2477  139.4799  151.6599 H   0  0  0  0  0  0  0  0  0  0  0  0
  146.0452  138.1927  150.2083 H   0  0  0  0  0  0  0  0  0  0  0  0
  145.2636  138.4882  153.8372 H   0  0  0  0  0  0  0  0  0  0  0  0
  144.7481  136.2355  153.5459 H   0  0  0  0  0  0  0  0  0  0  0  0
  144.8270  136.6726  151.8520 H   0  0  0  0  0  0  0  0  0  0  0  0
  147.1993  136.1963  152.1749 H   0  0  0  0  0  0  0  0  0  0  0  0
  151.2109  142.1934  155.5685 H   0  0  0  0  0  0  0  0  0  0  0  0
  150.3300  143.1959  156.6548 H   0  0  0  0  0  0  0  0  0  0  0  0
  151.2652  144.4707  158.0497 H   0  0  0  0  0  0  0  0  0  0  0  0
  149.8656  143.6758  158.7827 H   0  0  0  0  0  0  0  0  0  0  0  0
  151.8780  145.3155  160.1330 H   0  0  0  0  0  0  0  0  0  0  0  0
  150.4729  144.5175  160.8663 H   0  0  0  0  0  0  0  0  0  0  0  0
  152.7403  144.1759  162.6986 H   0  0  0  0  0  0  0  0  0  0  0  0
  154.4539  140.2963  161.7725 H   0  0  0  0  0  0  0  0  0  0  0  0
  153.3277  140.2951  159.6009 H   0  0  0  0  0  0  0  0  0  0  0  0
  1  2  1  0  0  0  0
  1 33  1  0  0  0  0
  1 34  1  0  0  0  0
  1 35  1  0  0  0  0
  2 31  1  0  0  0  0
  2  3  2  0  0  0  0
  3  4  1  0  0  0  0
  3 36  1  0  0  0  0
  4  5  1  0  0  0  0
  4 13  1  0  0  0  0
  5 12  1  0  0  0  0
  5  6  1  0  0  0  0
  5 37  1  0  0  0  0
  6  7  1  0  0  0  0
  6 38  1  0  0  0  0
  6 39  1  0  0  0  0
  7  8  1  0  0  0  0
  7  9  1  0  0  0  0
  7 40  1  0  0  0  0
  8 41  1  0  0  0  0
  9 10  1  0  0  0  0
  9 12  1  0  0  0  0
  9 42  1  0  0  0  0
 10 11  1  0  0  0  0
 10 43  1  0  0  0  0
 10 44  1  0  0  0  0
 11 45  1  0  0  0  0
 13 14  2  0  0  0  0
 13 15  1  0  0  0  0
 15 16  1  0  0  0  0
 15 31  1  0  0  0  0
 16 17  1  0  0  0  0
 16 46  1  0  0  0  0
 16 47  1  0  0  0  0
 17 18  2  0  0  0  0
 17 19  1  0  0  0  0
 19 30  1  0  0  0  0
 19 20  1  0  0  0  0
 20 21  1  0  0  0  0
 20 48  1  0  0  0  0
 20 49  1  0  0  0  0
 21 22  1  0  0  0  0
 21 50  1  0  0  0  0
 21 51  1  0  0  0  0
 22 30  2  0  0  0  0
 22 23  1  0  0  0  0
 23 24  2  0  0  0  0
 23 52  1  0  0  0  0
 24 25  1  0  0  0  0
 24 28  1  0  0  0  0
 25 26  2  0  0  0  0
 25 27  1  0  0  0  0
 28 29  2  0  0  0  0
 28 53  1  0  0  0  0
 29 30  1  0  0  0  0
 29 54  1  0  0  0  0
 31 32  2  0  0  0  0
M  CHG  1  25   1
M  CHG  1  27  -1
M  END
> <s_m_source_file>
AV-unprocessed.smi

> <i_m_source_file_index>
112

> <i_lp_mmshare_version>
43012

> <i_f3d_flags>
0

> <s_epik_input>
W09IXVtDSDJdW0NAQEhdKE8xKVtDQEhdKFtPSF0pW0NIMl1bQ0BIXTFuKFtjSF1jMltDSDNdKWMoPU8pbihjMj1PKVtDSDJdQyg9TylOKFtDSDJdW0NIMl0zKWMoYzM0KVtjSF1bY0hdYyhbY0hdNClbTitdKD1PKVtPLV0=

> <s_epik_cmdline>
J2VwaWtfcHl0aG9uJywgJy1waCcsICc3LjAnLCAnLXRuJywgJzgnLCAnLW1hJywgJzIwMCcsICctbWV0YWxfYmluZGluZycsICctaW1hZScsICc8aW5maWxlLm1hZT4nLCAnLW9tYWUnLCAnPG91dGZpbGUubWFlPic=

> <r_lp_tautomer_probability>
1

> <r_epik_Ionization_Penalty>
2.5696e-07

> <r_epik_Ionization_Penalty_Charging>
1.04886e-08

> <r_epik_Ionization_Penalty_Neutral>
2.46472e-07

> <r_epik_State_Penalty>
-0

> <r_epik_Charging_Adjusted_Penalty>
1.04886e-08

> <i_epik_Tot_Q>
0

> <i_epik_Tot_abs_Q>
2

> <r_epik_Metal_State_Penalty>
-0

> <b_epik_Metal_Only>
0

> <s_epik_Chemistry_Notes>
This compound contains an acetal/aminal-like group ( X-CH(R)-Y where X, Y are N, S, or O) that may be acid/base labile, releasing an aldehyde.

> <s_lp_Force_Field>
OPLS_2005

> <r_lp_Energy>
59.5699

> <b_lp_Chiralities_Consistent>
1

> <s_lp_Variant>
AV-unprocessed.smi:112-1

> <Gold.Version>
5.8.1

> <Gold.Id.Protein>
6NUR|6NUR_protein|mol2

> <Gold.PLP.Fitness>
61.4352

> <Gold.PLP.PLP>
-54.9530

> <Gold.PLP.part.hbond>
-6.6019

> <Gold.PLP.part.metal>
0.0000

> <Gold.PLP.part.buried>
-0.8768

> <Gold.PLP.part.nonpolar>
-47.2497

> <Gold.PLP.part.repulsive>
1.1162

> <Gold.PLP.ligand.clash>
0.0000

> <Gold.PLP.ligand.torsion>
1.2911

> <Gold.PLP.Chemscore.Hbond>
3.0119

> <Gold.PLP.Chemscore.CHOScore>
0.0000

> <Gold.PLP.Chemscore.Metal>
0.0000

> <Gold.Chemscore.Hbonds>
donor molecule, donor type, donor heavy atom, donor atom, acceptor molecule, acceptor atom, score
      L1  H     8    41       P1 10171  0.45
      L1  H    11    45       P1  7948  0.93
      P1  H  7954  7966       L1     8  1.00
      P1  H  7989  7998       L1    14  0.70

> <Gold.PLP.Chemscore.Internal.Correction>
0.0286

> <Gold.Rescore>
     Score         DG    S(hbond)    S(metal)    S(lipo)     H(rot)  DE(clash)    DE(int)     intcor
     14.20     -20.97       3.02        0.00     118.22       3.29       2.38       4.39       ----

> <Gold.Chemscore.Fitness>
14.1997

> <Gold.Chemscore.DG>
-20.9679

> <Gold.Chemscore.ZeroCoef>
-5.4800

> <Gold.Chemscore.Hbond>
3.0189

> <Gold.Chemscore.Metal>
0.0000

> <Gold.Chemscore.Lipo>
118.2150

> <Gold.Chemscore.Internal_Hbond>
0.0000

> <Gold.Chemscore.DEClash>
2.3764

> <Gold.Chemscore.DEInternal>
4.3918

> <Gold.Chemscore.Rot>
3.2916

> <Gold.Chemscore.Internal.Correction>
   9.000000E+99

> <Gold.Chemscore.Hbonds>
donor molecule, donor type, donor heavy atom, donor atom, acceptor molecule, acceptor atom, score
      L1  H     8    41       P1 10171  0.44
      L1  H    11    45       P1  7948  0.90
      P1  H  7954  7966       L1     8  0.29
      P1  H  7989  7998       L1    14  0.70

> <Gold.Chemscore.Hbond.Weighted>
-10.0833

> <Gold.Chemscore.Metal.Weighted>
-0.0000

> <Gold.Chemscore.Lipo.Weighted>
-13.8312

> <Gold.Chemscore.Internal_Hbond.Weighted>
0.0000

> <Gold.Chemscore.DEClash.Weighted>
2.3764

> <Gold.Chemscore.DEInternal.Weighted>
4.3918

> <Gold.Chemscore.Rot.Weighted>
8.4265

> <Gold.Chemscore.Internal.Correction.Weighted>
   9.000000E+99

> <Gold.Protein.RotatedTorsions>
[ 6907 6896 6895 6894 ] final -163.55 input  -60.11 | X-H torsion
[ 7974 7965 7964 7962 ] final  -71.38 input  175.53 | X-H torsion
[ 8008 7997 7996 7995 ] final -146.18 input   59.86 | X-H torsion
[ 10167 10162 10161 10158 ] final -128.87 input  -65.29 | X-H torsion
[ 10718 10713 10712 10709 ] final   65.56 input   66.30 | X-H torsion
[ 10763 10752 10751 10750 ] final  169.97 input  -60.55 | X-H torsion
[ 11005 11000 10999 10996 ] final  -73.90 input  -57.11 | X-H torsion

> <Gold.Protein.ActiveResidues>
 VAL166  LYS551  ARG553  GLY616  TRP617  ASP618  TYR619  PRO620  LYS621  CYS622 
 ASP623  PHE694  ASN695  SER759  ASP760  ASP761  ALA762  ILE779  LEU786  VAL792 
 PHE793  MET794  SER795  GLU796  ALA797  LYS798  CYS799  TRP800  GLU811  SER814 

> <Gold.Protein.RotatedAtoms>
  151.3977  133.3767  159.2728 H   0  0  0  0  0  0  0  0  0  0  0  0  # atno 6907 bound_to 6896
  150.9457  134.8863  159.7651 H   0  0  0  0  0  0  0  0  0  0  0  0  # atno 6908 bound_to 6896
  152.5090  134.3930  159.9442 H   0  0  0  0  0  0  0  0  0  0  0  0  # atno 6909 bound_to 6896
  145.6788  140.9195  143.0843 H   0  0  0  0  0  0  0  0  0  0  0  0  # atno 7974 bound_to 7965
  155.5553  140.0620  157.2841 H   0  0  0  0  0  0  0  0  0  0  0  0  # atno 8008 bound_to 7997
  154.4407  140.1895  156.0772 H   0  0  0  0  0  0  0  0  0  0  0  0  # atno 8009 bound_to 7997
  156.0487  140.3287  155.7329 H   0  0  0  0  0  0  0  0  0  0  0  0  # atno 8010 bound_to 7997
  139.9457  143.6112  152.2490 H   0  0  0  0  0  0  0  0  0  0  0  0  # atno 10167 bound_to 10162
  157.6113  130.9221  149.9993 H   0  0  0  0  0  0  0  0  0  0  0  0  # atno 10718 bound_to 10713
  154.3909  135.2754  155.2155 H   0  0  0  0  0  0  0  0  0  0  0  0  # atno 10763 bound_to 10752
  154.4222  135.5997  153.6020 H   0  0  0  0  0  0  0  0  0  0  0  0  # atno 10764 bound_to 10752
  152.9832  135.5975  154.4164 H   0  0  0  0  0  0  0  0  0  0  0  0  # atno 10765 bound_to 10752
  141.1628  133.6893  156.7283 H   0  0  0  0  0  0  0  0  0  0  0  0  # atno 11005 bound_to 11000
  144.7032  139.8670  143.7438 LP  0  0  0  0  0  0  0  0  0  0  0  0  # atno 17320 bound_to 7965
  146.0982  139.3975  143.0363 LP  0  0  0  0  0  0  0  0  0  0  0  0  # atno 17321 bound_to 7965
  139.6668  144.7662  151.1857 LP  0  0  0  0  0  0  0  0  0  0  0  0  # atno 17342 bound_to 10162
  140.7598  143.5925  150.8782 LP  0  0  0  0  0  0  0  0  0  0  0  0  # atno 17343 bound_to 10162
  156.1217  130.3645  149.9876 LP  0  0  0  0  0  0  0  0  0  0  0  0  # atno 17370 bound_to 10713
  156.7954  130.9271  151.3646 LP  0  0  0  0  0  0  0  0  0  0  0  0  # atno 17371 bound_to 10713
  140.2764  134.8351  157.3894 LP  0  0  0  0  0  0  0  0  0  0  0  0  # atno 17394 bound_to 11000
  140.1473  134.4894  155.7987 LP  0  0  0  0  0  0  0  0  0  0  0  0  # atno 17395 bound_to 11000

$$$$
