AV-unprocessed.smi:3083|AV-procd|sdf|11747|dock5
  -GOLD-   2272017143D 1   1.00000     0.00000
 Structure written by MMmdl.
 28 29  0  0  0  0  0  0  0  0  2 V2000
  148.8860  138.4197  153.0363 N   0  3  0  0  0  0  0  0  0  0  0  0
  149.5573  138.7664  154.3027 C   0  0  1  0  0  0  0  0  0  0  0  0
  151.0232  138.2947  154.2718 C   0  0  0  0  0  0  0  0  0  0  0  0
  151.7570  138.6558  155.5726 C   0  0  0  0  0  0  0  0  0  0  0  0
  151.6785  140.1638  155.8537 C   0  0  0  0  0  0  0  0  0  0  0  0
  150.2204  140.6476  155.8866 C   0  0  0  0  0  0  0  0  0  0  0  0
  149.4743  140.2893  154.5846 C   0  0  2  0  0  0  0  0  0  0  0  0
  148.1017  140.7796  154.6328 N   0  0  0  0  0  0  0  0  0  0  0  0
  147.6692  142.0742  154.8347 C   0  0  0  0  0  0  0  0  0  0  0  0
  146.3040  142.0554  154.8315 C   0  0  0  0  0  0  0  0  0  0  0  0
  145.9852  140.6831  154.6351 C   0  0  0  0  0  0  0  0  0  0  0  0
  147.0617  139.9221  154.5223 N   0  0  0  0  0  0  0  0  0  0  0  0
  149.0847  139.1257  152.3423 H   0  0  0  0  0  0  0  0  0  0  0  0
  147.8889  138.3709  153.1920 H   0  0  0  0  0  0  0  0  0  0  0  0
  149.0441  138.2222  155.0970 H   0  0  0  0  0  0  0  0  0  0  0  0
  151.0670  137.2159  154.1162 H   0  0  0  0  0  0  0  0  0  0  0  0
  151.5418  138.7496  153.4265 H   0  0  0  0  0  0  0  0  0  0  0  0
  151.3185  138.1049  156.4057 H   0  0  0  0  0  0  0  0  0  0  0  0
  152.7998  138.3433  155.5099 H   0  0  0  0  0  0  0  0  0  0  0  0
  152.1665  140.3909  156.8022 H   0  0  0  0  0  0  0  0  0  0  0  0
  152.2281  140.7092  155.0855 H   0  0  0  0  0  0  0  0  0  0  0  0
  149.7120  140.2003  156.7423 H   0  0  0  0  0  0  0  0  0  0  0  0
  150.1975  141.7263  156.0456 H   0  0  0  0  0  0  0  0  0  0  0  0
  149.9690  140.8119  153.7637 H   0  0  0  0  0  0  0  0  0  0  0  0
  148.3609  142.8939  154.9633 H   0  0  0  0  0  0  0  0  0  0  0  0
  145.6345  142.8933  154.9589 H   0  0  0  0  0  0  0  0  0  0  0  0
  145.0112  140.2201  154.5743 H   0  0  0  0  0  0  0  0  0  0  0  0
  149.2195  137.5232  152.7123 H   0  0  0  0  0  0  0  0  0  0  0  0
  1  2  1  0  0  0  0
  1 13  1  0  0  0  0
  1 14  1  0  0  0  0
  1 28  1  0  0  0  0
  2  7  1  0  0  0  0
  2  3  1  0  0  0  0
  2 15  1  0  0  0  0
  3  4  1  0  0  0  0
  3 16  1  0  0  0  0
  3 17  1  0  0  0  0
  4  5  1  0  0  0  0
  4 18  1  0  0  0  0
  4 19  1  0  0  0  0
  5  6  1  0  0  0  0
  5 20  1  0  0  0  0
  5 21  1  0  0  0  0
  6  7  1  0  0  0  0
  6 22  1  0  0  0  0
  6 23  1  0  0  0  0
  7  8  1  0  0  0  0
  7 24  1  0  0  0  0
  8 12  1  0  0  0  0
  8  9  1  0  0  0  0
  9 10  2  0  0  0  0
  9 25  1  0  0  0  0
 10 11  1  0  0  0  0
 10 26  1  0  0  0  0
 11 12  2  0  0  0  0
 11 27  1  0  0  0  0
M  CHG  1   1   1
M  END
> <s_m_source_file>
AV-unprocessed.smi

> <i_m_source_file_index>
3083

> <i_lp_mmshare_version>
43012

> <i_f3d_flags>
0

> <s_epik_input>
W05IMl1bQ0BASF0xW0NIMl1bQ0gyXVtDSDJdW0NIMl1bQ0BIXTFuMltjSF1bY0hdW2NIXW4y

> <s_epik_cmdline>
J2VwaWtfcHl0aG9uJywgJy1waCcsICc3LjAnLCAnLXRuJywgJzgnLCAnLW1hJywgJzIwMCcsICctbWV0YWxfYmluZGluZycsICctaW1hZScsICc8aW5maWxlLm1hZT4nLCAnLW9tYWUnLCAnPG91dGZpbGUubWFlPic=

> <r_lp_tautomer_probability>
1

> <r_epik_Ionization_Penalty>
0.00385053

> <r_epik_Ionization_Penalty_Charging>
0.0038389

> <r_epik_Ionization_Penalty_Neutral>
1.16305e-05

> <r_epik_State_Penalty>
-0

> <r_epik_Charging_Adjusted_Penalty>
0.0038389

> <i_epik_Tot_Q>
1

> <i_epik_Tot_abs_Q>
1

> <r_epik_Metal_State_Penalty>
-0

> <b_epik_Metal_Only>
0

> <s_lp_Force_Field>
OPLS_2005

> <r_lp_Energy>
13.574

> <b_lp_Chiralities_Consistent>
1

> <s_lp_Variant>
AV-unprocessed.smi:3083-4

> <Gold.Version>
5.8.1

> <Gold.Id.Protein>
6NUR|6NUR_protein|mol2

> <Gold.PLP.Fitness>
36.8368

> <Gold.PLP.PLP>
-22.7861

> <Gold.PLP.part.hbond>
-1.7399

> <Gold.PLP.part.metal>
0.0000

> <Gold.PLP.part.buried>
-1.5338

> <Gold.PLP.part.nonpolar>
-21.7785

> <Gold.PLP.part.repulsive>
0.1716

> <Gold.PLP.ligand.clash>
0.0000

> <Gold.PLP.ligand.torsion>
0.0145

> <Gold.PLP.Chemscore.Hbond>
2.9840

> <Gold.PLP.Chemscore.CHOScore>
1.6998

> <Gold.PLP.Chemscore.Metal>
0.0000

> <Gold.Chemscore.Hbonds>
donor molecule, donor type, donor heavy atom, donor atom, acceptor molecule, acceptor atom, score
      L1  H     1    13       P1  7957  1.00
      L1  H     1    28       P1  7948  1.95
      L1  C     9    25       P1  8028  0.93
      L1  C    11    27       P1 10175  0.78

> <Gold.PLP.Chemscore.Internal.Correction>
0.0283

> <Gold.Rescore>
     Score         DG    S(hbond)    S(metal)    S(lipo)     H(rot)  DE(clash)    DE(int)     intcor
     14.31     -15.85       1.92        0.00      55.74       1.00       0.15       1.40       ----

> <Gold.Chemscore.Fitness>
14.3121

> <Gold.Chemscore.DG>
-15.8550

> <Gold.Chemscore.ZeroCoef>
-5.4800

> <Gold.Chemscore.Hbond>
1.9201

> <Gold.Chemscore.Metal>
0.0000

> <Gold.Chemscore.Lipo>
55.7414

> <Gold.Chemscore.Internal_Hbond>
0.0000

> <Gold.Chemscore.DEClash>
0.1461

> <Gold.Chemscore.DEInternal>
1.3968

> <Gold.Chemscore.Rot>
1.0000

> <Gold.Chemscore.Internal.Correction>
   9.000000E+99

> <Gold.Chemscore.Hbonds>
donor molecule, donor type, donor heavy atom, donor atom, acceptor molecule, acceptor atom, score
      L1  H     1    13       P1  7957  0.96
      L1  H     1    28       P1  7948  0.85

> <Gold.Chemscore.Hbond.Weighted>
-6.4132

> <Gold.Chemscore.Metal.Weighted>
-0.0000

> <Gold.Chemscore.Lipo.Weighted>
-6.5217

> <Gold.Chemscore.Internal_Hbond.Weighted>
0.0000

> <Gold.Chemscore.DEClash.Weighted>
0.1461

> <Gold.Chemscore.DEInternal.Weighted>
1.3968

> <Gold.Chemscore.Rot.Weighted>
2.5600

> <Gold.Chemscore.Internal.Correction.Weighted>
   9.000000E+99

> <Gold.Protein.RotatedTorsions>
[ 6907 6896 6895 6894 ] final   44.65 input  -60.11 | X-H torsion
[ 7974 7965 7964 7962 ] final -143.22 input  175.53 | X-H torsion
[ 8008 7997 7996 7995 ] final  152.41 input   59.86 | X-H torsion
[ 10167 10162 10161 10158 ] final   15.17 input  -65.29 | X-H torsion
[ 10718 10713 10712 10709 ] final  -41.68 input   66.30 | X-H torsion
[ 10763 10752 10751 10750 ] final  -20.13 input  -60.55 | X-H torsion
[ 11005 11000 10999 10996 ] final -169.43 input  -57.11 | X-H torsion

> <Gold.Protein.ActiveResidues>
 VAL166  LYS551  ARG553  GLY616  TRP617  ASP618  TYR619  PRO620  LYS621  CYS622 
 ASP623  PHE694  ASN695  SER759  ASP760  ASP761  ALA762  ILE779  LEU786  VAL792 
 PHE793  MET794  SER795  GLU796  ALA797  LYS798  CYS799  TRP800  GLU811  SER814 

> <Gold.Protein.RotatedAtoms>
  152.2350  134.8284  160.0468 H   0  0  0  0  0  0  0  0  0  0  0  0  # atno 6907 bound_to 6896
  151.9019  133.3535  159.3842 H   0  0  0  0  0  0  0  0  0  0  0  0  # atno 6908 bound_to 6896
  150.7037  134.4745  159.5485 H   0  0  0  0  0  0  0  0  0  0  0  0  # atno 6909 bound_to 6896
  144.8385  140.5861  143.5468 H   0  0  0  0  0  0  0  0  0  0  0  0  # atno 7974 bound_to 7965
  156.2630  140.2021  156.6328 H   0  0  0  0  0  0  0  0  0  0  0  0  # atno 8008 bound_to 7997
  154.6669  140.0554  157.0148 H   0  0  0  0  0  0  0  0  0  0  0  0  # atno 8009 bound_to 7997
  155.1193  140.3223  155.4504 H   0  0  0  0  0  0  0  0  0  0  0  0  # atno 8010 bound_to 7997
  140.5886  143.8841  150.6853 H   0  0  0  0  0  0  0  0  0  0  0  0  # atno 10167 bound_to 10162
  156.2677  130.4203  149.8472 H   0  0  0  0  0  0  0  0  0  0  0  0  # atno 10718 bound_to 10713
  153.6156  135.6994  153.5330 H   0  0  0  0  0  0  0  0  0  0  0  0  # atno 10763 bound_to 10752
  153.2980  135.4137  155.1226 H   0  0  0  0  0  0  0  0  0  0  0  0  # atno 10764 bound_to 10752
  154.8554  135.3642  154.5696 H   0  0  0  0  0  0  0  0  0  0  0  0  # atno 10765 bound_to 10752
  140.5308  134.5618  157.5074 H   0  0  0  0  0  0  0  0  0  0  0  0  # atno 11005 bound_to 11000
  145.4744  139.1500  143.3797 LP  0  0  0  0  0  0  0  0  0  0  0  0  # atno 17320 bound_to 7965
  146.2681  140.4878  142.8826 LP  0  0  0  0  0  0  0  0  0  0  0  0  # atno 17321 bound_to 7965
  140.2358  143.3701  152.1528 LP  0  0  0  0  0  0  0  0  0  0  0  0  # atno 17342 bound_to 10162
  139.5213  144.7044  151.5398 LP  0  0  0  0  0  0  0  0  0  0  0  0  # atno 17343 bound_to 10162
  156.5964  130.8528  151.3421 LP  0  0  0  0  0  0  0  0  0  0  0  0  # atno 17370 bound_to 10713
  157.7273  130.9641  150.1693 LP  0  0  0  0  0  0  0  0  0  0  0  0  # atno 17371 bound_to 10713
  139.9555  134.7542  156.0351 LP  0  0  0  0  0  0  0  0  0  0  0  0  # atno 17394 bound_to 11000
  141.1282  133.6593  156.3393 LP  0  0  0  0  0  0  0  0  0  0  0  0  # atno 17395 bound_to 11000

$$$$
