AV-unprocessed.smi:236|AV-procd|sdf|1809|dock8
  -GOLD-   2262020393D 1   1.00000     0.00000
 Structure written by MMmdl.
 58 62  0  0  0  0  0  0  0  0  1 V2000
  144.9906  132.4460  161.1122 C   0  0  0  0  0  0  0  0  0  0  0  0
  146.1805  133.1234  161.8080 C   0  0  2  0  0  0  0  0  0  0  0  0
  145.7299  134.1030  162.7403 O   0  0  0  0  0  0  0  0  0  0  0  0
  146.6341  135.2038  162.7746 C   0  0  0  0  0  0  0  0  0  0  0  0
  147.8279  134.7835  161.9228 C   0  0  0  0  0  0  0  0  0  0  0  0
  147.1915  133.8497  160.9002 C   0  0  1  0  0  0  0  0  0  0  0  0
  148.1727  132.9427  160.4331 O   0  0  0  0  0  0  0  0  0  0  0  0
  146.5468  134.5821  159.6918 C   0  0  0  0  0  0  0  0  0  0  0  0
  147.4563  135.4788  158.9959 N   0  0  0  0  0  0  0  0  0  0  0  0
  147.4794  136.8532  159.0680 C   0  0  0  0  0  0  0  0  0  0  0  0
  148.3929  137.4331  158.3384 N   0  0  0  0  0  0  0  0  0  0  0  0
  149.0596  136.3784  157.7261 C   0  0  0  0  0  0  0  0  0  0  0  0
  150.1458  136.2803  156.8103 C   0  0  0  0  0  0  0  0  0  0  0  0
  150.8194  137.3278  156.2907 N   0  0  0  0  0  0  0  0  0  0  0  0
  151.1251  137.1682  154.8764 C   0  0  0  0  0  0  0  0  0  0  0  0
  152.0463  138.3076  154.4115 C   0  0  0  0  0  0  0  0  0  0  0  0
  151.4428  139.5615  154.7168 O   0  0  0  0  0  0  0  0  0  0  0  0
  151.2370  139.7419  156.1169 C   0  0  1  0  0  0  0  0  0  0  0  0
  150.6571  141.1442  156.3380 C   0  0  0  0  0  0  0  0  0  0  0  0
  151.3286  141.7558  157.4269 O   0  0  0  0  0  0  0  0  0  0  0  0
  151.1579  143.1621  157.4517 C   0  0  0  0  0  0  0  0  0  0  0  0
  151.9889  143.7422  158.5764 C   0  0  0  0  0  0  0  0  0  0  0  0
  151.3317  144.2872  159.8243 C   0  0  0  0  0  0  0  0  0  0  0  0
  151.9753  145.2308  158.8408 C   0  0  0  0  0  0  0  0  0  0  0  0
  150.2775  138.6425  156.6116 C   0  0  0  0  0  0  0  0  0  0  0  0
  150.5250  135.0445  156.4026 N   0  0  0  0  0  0  0  0  0  0  0  0
  149.8928  133.9636  156.8696 C   0  0  0  0  0  0  0  0  0  0  0  0
  148.8727  133.8985  157.7278 N   0  0  0  0  0  0  0  0  0  0  0  0
  148.4830  135.1420  158.1312 C   0  0  0  0  0  0  0  0  0  0  0  0
  145.3295  131.7194  160.3736 H   0  0  0  0  0  0  0  0  0  0  0  0
  144.3514  133.1699  160.6069 H   0  0  0  0  0  0  0  0  0  0  0  0
  144.3719  131.9168  161.8371 H   0  0  0  0  0  0  0  0  0  0  0  0
  146.7121  132.3718  162.3950 H   0  0  0  0  0  0  0  0  0  0  0  0
  146.1409  136.0750  162.3426 H   0  0  0  0  0  0  0  0  0  0  0  0
  146.9222  135.4512  163.7962 H   0  0  0  0  0  0  0  0  0  0  0  0
  148.3720  135.6270  161.4995 H   0  0  0  0  0  0  0  0  0  0  0  0
  148.5302  134.2315  162.5501 H   0  0  0  0  0  0  0  0  0  0  0  0
  147.8924  132.6025  159.5973 H   0  0  0  0  0  0  0  0  0  0  0  0
  146.1670  133.8611  158.9668 H   0  0  0  0  0  0  0  0  0  0  0  0
  145.6841  135.1637  160.0191 H   0  0  0  0  0  0  0  0  0  0  0  0
  146.7878  137.4167  159.6774 H   0  0  0  0  0  0  0  0  0  0  0  0
  151.6054  136.2043  154.7027 H   0  0  0  0  0  0  0  0  0  0  0  0
  150.1993  137.1768  154.2992 H   0  0  0  0  0  0  0  0  0  0  0  0
  153.0248  138.2373  154.8895 H   0  0  0  0  0  0  0  0  0  0  0  0
  152.2110  138.2443  153.3359 H   0  0  0  0  0  0  0  0  0  0  0  0
  152.1883  139.6597  156.6461 H   0  0  0  0  0  0  0  0  0  0  0  0
  150.7542  141.7444  155.4318 H   0  0  0  0  0  0  0  0  0  0  0  0
  149.5939  141.0728  156.5729 H   0  0  0  0  0  0  0  0  0  0  0  0
  151.4876  143.5989  156.5081 H   0  0  0  0  0  0  0  0  0  0  0  0
  150.1075  143.4214  157.5941 H   0  0  0  0  0  0  0  0  0  0  0  0
  152.9501  143.2496  158.7121 H   0  0  0  0  0  0  0  0  0  0  0  0
  150.2446  144.2744  159.8713 H   0  0  0  0  0  0  0  0  0  0  0  0
  151.8413  144.1233  160.7716 H   0  0  0  0  0  0  0  0  0  0  0  0
  152.9145  145.6977  159.1310 H   0  0  0  0  0  0  0  0  0  0  0  0
  151.3156  145.8485  158.2342 H   0  0  0  0  0  0  0  0  0  0  0  0
  149.3031  138.7722  156.1408 H   0  0  0  0  0  0  0  0  0  0  0  0
  150.1315  138.7261  157.6895 H   0  0  0  0  0  0  0  0  0  0  0  0
  150.2551  133.0151  156.5014 H   0  0  0  0  0  0  0  0  0  0  0  0
  1  2  1  0  0  0  0
  1 30  1  0  0  0  0
  1 31  1  0  0  0  0
  1 32  1  0  0  0  0
  2  6  1  0  0  0  0
  2  3  1  0  0  0  0
  2 33  1  0  0  0  0
  3  4  1  0  0  0  0
  4  5  1  0  0  0  0
  4 34  1  0  0  0  0
  4 35  1  0  0  0  0
  5  6  1  0  0  0  0
  5 36  1  0  0  0  0
  5 37  1  0  0  0  0
  6  7  1  0  0  0  0
  6  8  1  0  0  0  0
  7 38  1  0  0  0  0
  8  9  1  0  0  0  0
  8 39  1  0  0  0  0
  8 40  1  0  0  0  0
  9 29  1  0  0  0  0
  9 10  1  0  0  0  0
 10 11  2  0  0  0  0
 10 41  1  0  0  0  0
 11 12  1  0  0  0  0
 12 29  2  0  0  0  0
 12 13  1  0  0  0  0
 13 14  1  0  0  0  0
 13 26  2  0  0  0  0
 14 25  1  0  0  0  0
 14 15  1  0  0  0  0
 15 16  1  0  0  0  0
 15 42  1  0  0  0  0
 15 43  1  0  0  0  0
 16 17  1  0  0  0  0
 16 44  1  0  0  0  0
 16 45  1  0  0  0  0
 17 18  1  0  0  0  0
 18 19  1  0  0  0  0
 18 25  1  0  0  0  0
 18 46  1  0  0  0  0
 19 20  1  0  0  0  0
 19 47  1  0  0  0  0
 19 48  1  0  0  0  0
 20 21  1  0  0  0  0
 21 22  1  0  0  0  0
 21 49  1  0  0  0  0
 21 50  1  0  0  0  0
 22 24  1  0  0  0  0
 22 23  1  0  0  0  0
 22 51  1  0  0  0  0
 23 24  1  0  0  0  0
 23 52  1  0  0  0  0
 23 53  1  0  0  0  0
 24 54  1  0  0  0  0
 24 55  1  0  0  0  0
 25 56  1  0  0  0  0
 25 57  1  0  0  0  0
 26 27  1  0  0  0  0
 27 28  2  0  0  0  0
 27 58  1  0  0  0  0
 28 29  1  0  0  0  0
M  END
> <s_m_source_file>
AV-unprocessed.smi

> <i_m_source_file_index>
236

> <i_lp_mmshare_version>
43012

> <i_f3d_flags>
0

> <s_epik_input>
W0NIMl0xW0NIMl1PW0NAQEhdKFtDSDNdKVtDQEBdMShbT0hdKVtDSDJdbihbY0hdbjIpYyhjMjMpbltjSF1uYzNONFtDSDJdW0NIMl1PW0NASF0oW0NIMl00KVtDSDJdT1tDSDJdW0NIXTVbQ0gyXVtDSDJdNQ==

> <s_epik_cmdline>
J2VwaWtfcHl0aG9uJywgJy1waCcsICc3LjAnLCAnLXRuJywgJzgnLCAnLW1hJywgJzIwMCcsICctbWV0YWxfYmluZGluZycsICctaW1hZScsICc8aW5maWxlLm1hZT4nLCAnLW9tYWUnLCAnPG91dGZpbGUubWFlPic=

> <r_lp_tautomer_probability>
1

> <r_epik_Ionization_Penalty>
7.21838e-05

> <r_epik_Ionization_Penalty_Charging>
0

> <r_epik_Ionization_Penalty_Neutral>
7.21838e-05

> <r_epik_State_Penalty>
-0

> <r_epik_Charging_Adjusted_Penalty>
0

> <i_epik_Tot_Q>
0

> <i_epik_Tot_abs_Q>
0

> <r_epik_Metal_State_Penalty>
-0

> <b_epik_Metal_Only>
0

> <s_lp_Force_Field>
OPLS_2005

> <r_lp_Energy>
49.116

> <b_lp_Chiralities_Consistent>
1

> <s_lp_Variant>
AV-unprocessed.smi:236-1

> <Gold.Version>
5.8.1

> <Gold.Id.Protein>
6NUR|6NUR_protein|mol2

> <Gold.PLP.Fitness>
45.2748

> <Gold.PLP.PLP>
-44.7374

> <Gold.PLP.part.hbond>
-1.2301

> <Gold.PLP.part.metal>
0.0000

> <Gold.PLP.part.buried>
-8.2034

> <Gold.PLP.part.nonpolar>
-35.4501

> <Gold.PLP.part.repulsive>
0.1394

> <Gold.PLP.ligand.clash>
0.0000

> <Gold.PLP.ligand.torsion>
1.6386

> <Gold.PLP.Chemscore.Hbond>
1.0000

> <Gold.PLP.Chemscore.CHOScore>
0.0000

> <Gold.PLP.Chemscore.Metal>
0.0000

> <Gold.Chemscore.Hbonds>
donor molecule, donor type, donor heavy atom, donor atom, acceptor molecule, acceptor atom, score
      P1  H  7989  7998       L1    17  1.00

> <Gold.PLP.Chemscore.Internal.Correction>
0.8147

> <Gold.Rescore>
     Score         DG    S(hbond)    S(metal)    S(lipo)     H(rot)  DE(clash)    DE(int)     intcor
     12.57     -15.79       0.97        0.00     123.16       2.87       0.00       3.21       ----

> <Gold.Chemscore.Fitness>
12.5740

> <Gold.Chemscore.DG>
-15.7915

> <Gold.Chemscore.ZeroCoef>
-5.4800

> <Gold.Chemscore.Hbond>
0.9695

> <Gold.Chemscore.Metal>
0.0000

> <Gold.Chemscore.Lipo>
123.1552

> <Gold.Chemscore.Internal_Hbond>
0.0000

> <Gold.Chemscore.DEClash>
0.0047

> <Gold.Chemscore.DEInternal>
3.2128

> <Gold.Chemscore.Rot>
2.8655

> <Gold.Chemscore.Internal.Correction>
   9.000000E+99

> <Gold.Chemscore.Hbonds>
donor molecule, donor type, donor heavy atom, donor atom, acceptor molecule, acceptor atom, score
      P1  H  7989  7998       L1    17  0.92

> <Gold.Chemscore.Hbond.Weighted>
-3.2381

> <Gold.Chemscore.Metal.Weighted>
-0.0000

> <Gold.Chemscore.Lipo.Weighted>
-14.4092

> <Gold.Chemscore.Internal_Hbond.Weighted>
0.0000

> <Gold.Chemscore.DEClash.Weighted>
0.0047

> <Gold.Chemscore.DEInternal.Weighted>
3.2128

> <Gold.Chemscore.Rot.Weighted>
7.3358

> <Gold.Chemscore.Internal.Correction.Weighted>
   9.000000E+99

> <Gold.Protein.RotatedTorsions>
[ 6907 6896 6895 6894 ] final   -6.77 input  -60.11 | X-H torsion
[ 7974 7965 7964 7962 ] final -124.60 input  175.53 | X-H torsion
[ 8008 7997 7996 7995 ] final  -59.40 input   59.86 | X-H torsion
[ 10167 10162 10161 10158 ] final  -79.12 input  -65.29 | X-H torsion
[ 10718 10713 10712 10709 ] final  -99.64 input   66.30 | X-H torsion
[ 10763 10752 10751 10750 ] final    6.84 input  -60.55 | X-H torsion
[ 11005 11000 10999 10996 ] final   47.70 input  -57.11 | X-H torsion

> <Gold.Protein.ActiveResidues>
 VAL166  LYS551  ARG553  GLY616  TRP617  ASP618  TYR619  PRO620  LYS621  CYS622 
 ASP623  PHE694  ASN695  SER759  ASP760  ASP761  ALA762  ILE779  LEU786  VAL792 
 PHE793  MET794  SER795  GLU796  ALA797  LYS798  CYS799  TRP800  GLU811  SER814 

> <Gold.Protein.RotatedAtoms>
  151.4603  135.1038  159.9722 H   0  0  0  0  0  0  0  0  0  0  0  0  # atno 6907 bound_to 6896
  152.4855  133.8359  159.7138 H   0  0  0  0  0  0  0  0  0  0  0  0  # atno 6908 bound_to 6896
  150.8962  133.7118  159.2918 H   0  0  0  0  0  0  0  0  0  0  0  0  # atno 6909 bound_to 6896
  145.0064  140.7866  143.4465 H   0  0  0  0  0  0  0  0  0  0  0  0  # atno 7974 bound_to 7965
  154.4350  140.1062  156.6109 H   0  0  0  0  0  0  0  0  0  0  0  0  # atno 8008 bound_to 7997
  155.5811  140.3491  155.4522 H   0  0  0  0  0  0  0  0  0  0  0  0  # atno 8009 bound_to 7997
  156.0318  140.1262  157.0239 H   0  0  0  0  0  0  0  0  0  0  0  0  # atno 8010 bound_to 7997
  140.4621  143.2450  151.8332 H   0  0  0  0  0  0  0  0  0  0  0  0  # atno 10167 bound_to 10162
  156.0140  130.5292  150.6700 H   0  0  0  0  0  0  0  0  0  0  0  0  # atno 10718 bound_to 10713
  153.2431  135.6905  153.7761 H   0  0  0  0  0  0  0  0  0  0  0  0  # atno 10763 bound_to 10752
  153.6883  135.3317  155.3196 H   0  0  0  0  0  0  0  0  0  0  0  0  # atno 10764 bound_to 10752
  154.8364  135.4539  154.1360 H   0  0  0  0  0  0  0  0  0  0  0  0  # atno 10765 bound_to 10752
  140.1256  134.4773  155.8562 H   0  0  0  0  0  0  0  0  0  0  0  0  # atno 11005 bound_to 11000
  145.2083  139.2217  143.5156 LP  0  0  0  0  0  0  0  0  0  0  0  0  # atno 17320 bound_to 7965
  146.3462  140.1916  142.8589 LP  0  0  0  0  0  0  0  0  0  0  0  0  # atno 17321 bound_to 7965
  139.4807  144.4995  151.9080 LP  0  0  0  0  0  0  0  0  0  0  0  0  # atno 17342 bound_to 10162
  140.4080  144.2406  150.5890 LP  0  0  0  0  0  0  0  0  0  0  0  0  # atno 17343 bound_to 10162
  157.4425  131.0863  151.0929 LP  0  0  0  0  0  0  0  0  0  0  0  0  # atno 17370 bound_to 10713
  157.1469  130.6167  149.5571 LP  0  0  0  0  0  0  0  0  0  0  0  0  # atno 17371 bound_to 10713
  141.2160  133.6776  156.6971 LP  0  0  0  0  0  0  0  0  0  0  0  0  # atno 17394 bound_to 11000
  140.2909  134.8241  157.4015 LP  0  0  0  0  0  0  0  0  0  0  0  0  # atno 17395 bound_to 11000

$$$$
