AV-unprocessed.smi:3183|AV-procd|sdf|12160|dock2
  -GOLD-   2272017593D 1   1.00000     0.00000
 Structure written by MMmdl.
 43 44  0  0  0  0  0  0  0  0  2 V2000
  152.8751  143.5218  162.3933 C   0  0  0  0  0  0  0  0  0  0  0  0
  152.1669  143.2444  161.0554 C   0  0  1  0  0  0  0  0  0  0  0  0
  151.3360  144.4747  160.6383 C   0  0  0  0  0  0  0  0  0  0  0  0
  150.5917  144.2505  159.3146 C   0  0  0  0  0  0  0  0  0  0  0  0
  151.5678  143.8677  158.1859 C   0  0  2  0  0  0  0  0  0  0  0  0
  150.8558  143.5942  156.9178 N   0  3  0  0  0  0  0  0  0  0  0  0
  149.9871  142.3984  156.9243 C   0  0  0  0  0  0  0  0  0  0  0  0
  150.1403  141.6015  155.6203 C   0  0  0  0  0  0  0  0  0  0  0  0
  148.8473  141.3088  154.9204 C   0  0  0  0  0  0  0  0  0  0  0  0
  147.7549  142.1003  154.6894 C   0  0  0  0  0  0  0  0  0  0  0  0
  146.8541  141.2564  153.9840 C   0  0  0  0  0  0  0  0  0  0  0  0
  147.3423  140.0446  153.7908 N   0  0  0  0  0  0  0  0  0  0  0  0
  148.5644  140.0730  154.3620 N   0  0  0  0  0  0  0  0  0  0  0  0
  149.3728  138.8688  154.3217 C   0  0  0  0  0  0  0  0  0  0  0  0
  152.3855  142.6309  158.5973 C   0  0  0  0  0  0  0  0  0  0  0  0
  153.1472  142.8414  159.9224 C   0  0  2  0  0  0  0  0  0  0  0  0
  153.9696  141.5845  160.2593 C   0  0  0  0  0  0  0  0  0  0  0  0
  153.6414  144.2898  162.2848 H   0  0  0  0  0  0  0  0  0  0  0  0
  153.3501  142.6266  162.7939 H   0  0  0  0  0  0  0  0  0  0  0  0
  152.1660  143.8661  163.1466 H   0  0  0  0  0  0  0  0  0  0  0  0
  151.4748  142.4163  161.2171 H   0  0  0  0  0  0  0  0  0  0  0  0
  150.6145  144.7179  161.4192 H   0  0  0  0  0  0  0  0  0  0  0  0
  151.9884  145.3442  160.5434 H   0  0  0  0  0  0  0  0  0  0  0  0
  149.8455  143.4655  159.4446 H   0  0  0  0  0  0  0  0  0  0  0  0
  150.0447  145.1584  159.0614 H   0  0  0  0  0  0  0  0  0  0  0  0
  152.2630  144.6918  158.0167 H   0  0  0  0  0  0  0  0  0  0  0  0
  150.2660  144.3907  156.7233 H   0  0  0  0  0  0  0  0  0  0  0  0
  150.2396  141.7638  157.7739 H   0  0  0  0  0  0  0  0  0  0  0  0
  148.9493  142.7111  157.0478 H   0  0  0  0  0  0  0  0  0  0  0  0
  150.7932  142.1520  154.9421 H   0  0  0  0  0  0  0  0  0  0  0  0
  150.6468  140.6596  155.8347 H   0  0  0  0  0  0  0  0  0  0  0  0
  147.6144  143.1307  154.9800 H   0  0  0  0  0  0  0  0  0  0  0  0
  145.8677  141.4874  153.6099 H   0  0  0  0  0  0  0  0  0  0  0  0
  150.3857  139.0669  154.6707 H   0  0  0  0  0  0  0  0  0  0  0  0
  149.4252  138.4939  153.2990 H   0  0  0  0  0  0  0  0  0  0  0  0
  148.9237  138.1052  154.9573 H   0  0  0  0  0  0  0  0  0  0  0  0
  151.7229  141.7690  158.6923 H   0  0  0  0  0  0  0  0  0  0  0  0
  153.0938  142.3856  157.8045 H   0  0  0  0  0  0  0  0  0  0  0  0
  153.8509  143.6620  159.7739 H   0  0  0  0  0  0  0  0  0  0  0  0
  153.3241  140.7371  160.4920 H   0  0  0  0  0  0  0  0  0  0  0  0
  154.6284  141.7484  161.1116 H   0  0  0  0  0  0  0  0  0  0  0  0
  154.6057  141.2964  159.4217 H   0  0  0  0  0  0  0  0  0  0  0  0
  151.5344  143.5107  156.1744 H   0  0  0  0  0  0  0  0  0  0  0  0
  1  2  1  0  0  0  0
  1 18  1  0  0  0  0
  1 19  1  0  0  0  0
  1 20  1  0  0  0  0
  2 16  1  0  0  0  0
  2  3  1  0  0  0  0
  2 21  1  0  0  0  0
  3  4  1  0  0  0  0
  3 22  1  0  0  0  0
  3 23  1  0  0  0  0
  4  5  1  0  0  0  0
  4 24  1  0  0  0  0
  4 25  1  0  0  0  0
  5  6  1  0  0  0  0
  5 15  1  0  0  0  0
  5 26  1  0  0  0  0
  6  7  1  0  0  0  0
  6 27  1  0  0  0  0
  6 43  1  0  0  0  0
  7  8  1  0  0  0  0
  7 28  1  0  0  0  0
  7 29  1  0  0  0  0
  8  9  1  0  0  0  0
  8 30  1  0  0  0  0
  8 31  1  0  0  0  0
  9 13  1  0  0  0  0
  9 10  2  0  0  0  0
 10 11  1  0  0  0  0
 10 32  1  0  0  0  0
 11 12  2  0  0  0  0
 11 33  1  0  0  0  0
 12 13  1  0  0  0  0
 13 14  1  0  0  0  0
 14 34  1  0  0  0  0
 14 35  1  0  0  0  0
 14 36  1  0  0  0  0
 15 16  1  0  0  0  0
 15 37  1  0  0  0  0
 15 38  1  0  0  0  0
 16 17  1  0  0  0  0
 16 39  1  0  0  0  0
 17 40  1  0  0  0  0
 17 41  1  0  0  0  0
 17 42  1  0  0  0  0
M  CHG  1   6   1
M  END
> <s_m_source_file>
AV-unprocessed.smi

> <i_m_source_file_index>
3183

> <i_lp_mmshare_version>
43012

> <i_f3d_flags>
0

> <s_epik_input>
W0NIM11bQ0BASF0xW0NIMl1bQ0gyXVtDQEhdKFtDSDJdW0NASF0xW0NIM10pW05IXVtDSDJdW0NIMl1jMltjSF1bY0hdbm4yW0NIM10=

> <s_epik_cmdline>
J2VwaWtfcHl0aG9uJywgJy1waCcsICc3LjAnLCAnLXRuJywgJzgnLCAnLW1hJywgJzIwMCcsICctbWV0YWxfYmluZGluZycsICctaW1hZScsICc8aW5maWxlLm1hZT4nLCAnLW9tYWUnLCAnPG91dGZpbGUubWFlPic=

> <r_lp_tautomer_probability>
1

> <r_epik_Ionization_Penalty>
0.000327718

> <r_epik_Ionization_Penalty_Charging>
0.000294043

> <r_epik_Ionization_Penalty_Neutral>
3.36755e-05

> <r_epik_State_Penalty>
-0

> <r_epik_Charging_Adjusted_Penalty>
0.000294043

> <i_epik_Tot_Q>
1

> <i_epik_Tot_abs_Q>
1

> <r_epik_Metal_State_Penalty>
-0

> <b_epik_Metal_Only>
0

> <s_lp_Force_Field>
OPLS_2005

> <r_lp_Energy>
12.5672

> <b_lp_Chiralities_Consistent>
1

> <s_lp_Variant>
AV-unprocessed.smi:3183-8

> <Gold.Version>
5.8.1

> <Gold.Id.Protein>
6NUR|6NUR_protein|mol2

> <Gold.PLP.Fitness>
49.1898

> <Gold.PLP.PLP>
-43.6621

> <Gold.PLP.part.hbond>
-1.0000

> <Gold.PLP.part.metal>
0.0000

> <Gold.PLP.part.buried>
-4.6159

> <Gold.PLP.part.nonpolar>
-38.6737

> <Gold.PLP.part.repulsive>
0.2082

> <Gold.PLP.ligand.clash>
0.0000

> <Gold.PLP.ligand.torsion>
0.9099

> <Gold.PLP.Chemscore.Hbond>
1.9520

> <Gold.PLP.Chemscore.CHOScore>
0.4925

> <Gold.PLP.Chemscore.Metal>
0.0000

> <Gold.Chemscore.Hbonds>
donor molecule, donor type, donor heavy atom, donor atom, acceptor molecule, acceptor atom, score
      L1  H     6    27       P1  8028  1.50
      L1  C    11    33       P1 10175  0.70

> <Gold.PLP.Chemscore.Internal.Correction>
0.0140

> <Gold.Rescore>
     Score         DG    S(hbond)    S(metal)    S(lipo)     H(rot)  DE(clash)    DE(int)     intcor
     18.64     -19.69       0.95        0.00     124.38       1.38       0.09       0.96       ----

> <Gold.Chemscore.Fitness>
18.6431

> <Gold.Chemscore.DG>
-19.6920

> <Gold.Chemscore.ZeroCoef>
-5.4800

> <Gold.Chemscore.Hbond>
0.9533

> <Gold.Chemscore.Metal>
0.0000

> <Gold.Chemscore.Lipo>
124.3826

> <Gold.Chemscore.Internal_Hbond>
0.0000

> <Gold.Chemscore.DEClash>
0.0933

> <Gold.Chemscore.DEInternal>
0.9556

> <Gold.Chemscore.Rot>
1.3768

> <Gold.Chemscore.Internal.Correction>
   9.000000E+99

> <Gold.Chemscore.Hbonds>
donor molecule, donor type, donor heavy atom, donor atom, acceptor molecule, acceptor atom, score
      L1  H     6    27       P1  8028  0.73

> <Gold.Chemscore.Hbond.Weighted>
-3.1839

> <Gold.Chemscore.Metal.Weighted>
-0.0000

> <Gold.Chemscore.Lipo.Weighted>
-14.5528

> <Gold.Chemscore.Internal_Hbond.Weighted>
0.0000

> <Gold.Chemscore.DEClash.Weighted>
0.0933

> <Gold.Chemscore.DEInternal.Weighted>
0.9556

> <Gold.Chemscore.Rot.Weighted>
3.5247

> <Gold.Chemscore.Internal.Correction.Weighted>
   9.000000E+99

> <Gold.Protein.RotatedTorsions>
[ 6907 6896 6895 6894 ] final   80.46 input  -60.11 | X-H torsion
[ 7974 7965 7964 7962 ] final -166.87 input  175.53 | X-H torsion
[ 8008 7997 7996 7995 ] final  145.73 input   59.86 | X-H torsion
[ 10167 10162 10161 10158 ] final  -57.44 input  -65.29 | X-H torsion
[ 10718 10713 10712 10709 ] final -111.15 input   66.30 | X-H torsion
[ 10763 10752 10751 10750 ] final   67.35 input  -60.55 | X-H torsion
[ 11005 11000 10999 10996 ] final -146.72 input  -57.11 | X-H torsion

> <Gold.Protein.ActiveResidues>
 VAL166  LYS551  ARG553  GLY616  TRP617  ASP618  TYR619  PRO620  LYS621  CYS622 
 ASP623  PHE694  ASN695  SER759  ASP760  ASP761  ALA762  ILE779  LEU786  VAL792 
 PHE793  MET794  SER795  GLU796  ALA797  LYS798  CYS799  TRP800  GLU811  SER814 

> <Gold.Protein.RotatedAtoms>
  152.5236  134.3353  159.9197 H   0  0  0  0  0  0  0  0  0  0  0  0  # atno 6907 bound_to 6896
  151.3303  133.3997  159.2669 H   0  0  0  0  0  0  0  0  0  0  0  0  # atno 6908 bound_to 6896
  150.9886  134.9244  159.7944 H   0  0  0  0  0  0  0  0  0  0  0  0  # atno 6909 bound_to 6896
  144.7235  140.2602  143.6266 H   0  0  0  0  0  0  0  0  0  0  0  0  # atno 7974 bound_to 7965
  156.2875  140.2201  156.5262 H   0  0  0  0  0  0  0  0  0  0  0  0  # atno 8008 bound_to 7997
  154.7487  140.0482  157.0897 H   0  0  0  0  0  0  0  0  0  0  0  0  # atno 8009 bound_to 7997
  155.0137  140.3116  155.4823 H   0  0  0  0  0  0  0  0  0  0  0  0  # atno 8010 bound_to 7997
  140.6258  143.2438  151.5367 H   0  0  0  0  0  0  0  0  0  0  0  0  # atno 10167 bound_to 10162
  156.0631  130.5852  150.8335 H   0  0  0  0  0  0  0  0  0  0  0  0  # atno 10718 bound_to 10713
  153.0182  135.5287  154.6965 H   0  0  0  0  0  0  0  0  0  0  0  0  # atno 10763 bound_to 10752
  154.6085  135.2876  155.0460 H   0  0  0  0  0  0  0  0  0  0  0  0  # atno 10764 bound_to 10752
  154.1490  135.6566  153.5011 H   0  0  0  0  0  0  0  0  0  0  0  0  # atno 10765 bound_to 10752
  140.7790  134.3101  157.5051 H   0  0  0  0  0  0  0  0  0  0  0  0  # atno 11005 bound_to 11000
  145.8143  139.2016  143.1975 LP  0  0  0  0  0  0  0  0  0  0  0  0  # atno 17320 bound_to 7965
  146.0569  140.8011  142.9754 LP  0  0  0  0  0  0  0  0  0  0  0  0  # atno 17321 bound_to 7965
  139.5478  144.2474  152.1476 LP  0  0  0  0  0  0  0  0  0  0  0  0  # atno 17342 bound_to 10162
  140.1705  144.4940  150.6582 LP  0  0  0  0  0  0  0  0  0  0  0  0  # atno 17343 bound_to 10162
  157.5654  131.0946  150.9498 LP  0  0  0  0  0  0  0  0  0  0  0  0  # atno 17370 bound_to 10713
  156.9726  130.5497  149.5291 LP  0  0  0  0  0  0  0  0  0  0  0  0  # atno 17371 bound_to 10713
  139.8745  134.9307  156.3509 LP  0  0  0  0  0  0  0  0  0  0  0  0  # atno 17394 bound_to 11000
  140.9500  133.7457  156.0260 LP  0  0  0  0  0  0  0  0  0  0  0  0  # atno 17395 bound_to 11000

$$$$
