AV-unprocessed.smi:1740|AV-procd|sdf|7007|dock4
  -GOLD-   22720 8223D 1   1.00000     0.00000
 Structure written by MMmdl.
 52 54  0  0  0  0  0  0  0  0  2 V2000
  142.3952  132.1798  147.6718 N   0  0  0  0  0  0  0  0  0  0  0  0
  143.4690  132.8458  148.1023 C   0  0  0  0  0  0  0  0  0  0  0  0
  143.9144  133.8257  147.5078 O   0  0  0  0  0  0  0  0  0  0  0  0
  144.1212  132.3469  149.3957 C   0  0  0  0  0  0  0  0  0  0  0  0
  144.8992  133.4025  150.0934 N   0  3  2  0  0  0  0  0  0  0  0  0
  145.7284  132.8754  151.2100 C   0  0  0  0  0  0  0  0  0  0  0  0
  146.6251  133.9763  151.7993 C   0  0  0  0  0  0  0  0  0  0  0  0
  145.7927  135.1799  152.2695 C   0  0  1  0  0  0  0  0  0  0  0  0
  146.6809  136.2399  152.7353 N   0  0  0  0  0  0  0  0  0  0  0  0
  146.2912  137.4644  153.1170 C   0  0  0  0  0  0  0  0  0  0  0  0
  145.1178  137.8357  153.1147 O   0  0  0  0  0  0  0  0  0  0  0  0
  147.3422  138.2038  153.5079 N   0  0  0  0  0  0  0  0  0  0  0  0
  147.3510  139.5273  154.0329 C   0  0  0  0  0  0  0  0  0  0  0  0
  146.2983  140.4405  153.7783 C   0  0  0  0  0  0  0  0  0  0  0  0
  146.3939  141.7561  154.2638 C   0  0  0  0  0  0  0  0  0  0  0  0
  147.5490  142.1198  154.9754 C   0  0  0  0  0  0  0  0  0  0  0  0
  148.5651  141.2674  155.2154 N   0  0  0  0  0  0  0  0  0  0  0  0
  148.4809  139.9911  154.7661 C   0  0  0  0  0  0  0  0  0  0  0  0
  149.5664  139.1352  155.0621 N   0  0  0  0  0  0  0  0  0  0  0  0
  150.5014  139.5600  156.1000 C   0  0  0  0  0  0  0  0  0  0  0  0
  151.8923  139.1080  155.6426 C   0  0  0  0  0  0  0  0  0  0  0  0
  151.5995  137.9970  154.6390 C   0  0  0  0  0  0  0  0  0  0  0  0
  150.3054  138.4781  153.9892 C   0  0  0  0  0  0  0  0  0  0  0  0
  144.9050  135.6774  151.1136 C   0  0  0  0  0  0  0  0  0  0  0  0
  144.0498  134.5376  150.5353 C   0  0  0  0  0  0  0  0  0  0  0  0
  141.9310  132.4750  146.8245 H   0  0  0  0  0  0  0  0  0  0  0  0
  142.0455  131.3866  148.1900 H   0  0  0  0  0  0  0  0  0  0  0  0
  143.3105  132.0025  150.0391 H   0  0  0  0  0  0  0  0  0  0  0  0
  144.7559  131.4810  149.1996 H   0  0  0  0  0  0  0  0  0  0  0  0
  145.0794  132.4650  151.9854 H   0  0  0  0  0  0  0  0  0  0  0  0
  146.3561  132.0558  150.8592 H   0  0  0  0  0  0  0  0  0  0  0  0
  147.2041  133.5734  152.6313 H   0  0  0  0  0  0  0  0  0  0  0  0
  147.3472  134.2944  151.0455 H   0  0  0  0  0  0  0  0  0  0  0  0
  145.1567  134.8560  153.0961 H   0  0  0  0  0  0  0  0  0  0  0  0
  147.6663  136.0237  152.7765 H   0  0  0  0  0  0  0  0  0  0  0  0
  148.2332  137.7298  153.5309 H   0  0  0  0  0  0  0  0  0  0  0  0
  145.4306  140.1638  153.1997 H   0  0  0  0  0  0  0  0  0  0  0  0
  145.6063  142.4723  154.0831 H   0  0  0  0  0  0  0  0  0  0  0  0
  147.6636  143.1235  155.3574 H   0  0  0  0  0  0  0  0  0  0  0  0
  150.4682  140.6374  156.2682 H   0  0  0  0  0  0  0  0  0  0  0  0
  150.2385  139.0633  157.0342 H   0  0  0  0  0  0  0  0  0  0  0  0
  152.3978  139.9324  155.1376 H   0  0  0  0  0  0  0  0  0  0  0  0
  152.5246  138.7816  156.4686 H   0  0  0  0  0  0  0  0  0  0  0  0
  152.4054  137.8450  153.9205 H   0  0  0  0  0  0  0  0  0  0  0  0
  151.4281  137.0560  155.1636 H   0  0  0  0  0  0  0  0  0  0  0  0
  149.7352  137.6530  153.5616 H   0  0  0  0  0  0  0  0  0  0  0  0
  150.5420  139.1825  153.1909 H   0  0  0  0  0  0  0  0  0  0  0  0
  144.2556  136.4842  151.4558 H   0  0  0  0  0  0  0  0  0  0  0  0
  145.5284  136.0981  150.3228 H   0  0  0  0  0  0  0  0  0  0  0  0
  143.4736  134.9179  149.6909 H   0  0  0  0  0  0  0  0  0  0  0  0
  143.3314  134.1893  151.2792 H   0  0  0  0  0  0  0  0  0  0  0  0
  145.5368  133.7769  149.4046 H   0  0  0  0  0  0  0  0  0  0  0  0
  1  2  1  0  0  0  0
  1 26  1  0  0  0  0
  1 27  1  0  0  0  0
  2  3  2  0  0  0  0
  2  4  1  0  0  0  0
  4  5  1  0  0  0  0
  4 28  1  0  0  0  0
  4 29  1  0  0  0  0
  5 25  1  0  0  0  0
  5  6  1  0  0  0  0
  5 52  1  0  0  0  0
  6  7  1  0  0  0  0
  6 30  1  0  0  0  0
  6 31  1  0  0  0  0
  7  8  1  0  0  0  0
  7 32  1  0  0  0  0
  7 33  1  0  0  0  0
  8  9  1  0  0  0  0
  8 24  1  0  0  0  0
  8 34  1  0  0  0  0
  9 10  1  0  0  0  0
  9 35  1  0  0  0  0
 10 11  2  0  0  0  0
 10 12  1  0  0  0  0
 12 13  1  0  0  0  0
 12 36  1  0  0  0  0
 13 18  1  0  0  0  0
 13 14  2  0  0  0  0
 14 15  1  0  0  0  0
 14 37  1  0  0  0  0
 15 16  2  0  0  0  0
 15 38  1  0  0  0  0
 16 17  1  0  0  0  0
 16 39  1  0  0  0  0
 17 18  2  0  0  0  0
 18 19  1  0  0  0  0
 19 23  1  0  0  0  0
 19 20  1  0  0  0  0
 20 21  1  0  0  0  0
 20 40  1  0  0  0  0
 20 41  1  0  0  0  0
 21 22  1  0  0  0  0
 21 42  1  0  0  0  0
 21 43  1  0  0  0  0
 22 23  1  0  0  0  0
 22 44  1  0  0  0  0
 22 45  1  0  0  0  0
 23 46  1  0  0  0  0
 23 47  1  0  0  0  0
 24 25  1  0  0  0  0
 24 48  1  0  0  0  0
 24 49  1  0  0  0  0
 25 50  1  0  0  0  0
 25 51  1  0  0  0  0
M  CHG  1   5   1
M  END
> <s_m_source_file>
AV-unprocessed.smi

> <i_m_source_file_index>
1740

> <i_lp_mmshare_version>
43012

> <i_f3d_flags>
0

> <s_epik_input>
W05IMl1DKD1PKVtDSDJdTjFbQ0gyXVtDSDJdW0NIXShbQ0gyXVtDSDJdMSlbTkhdQyg9TylbTkhdYzJbY0hdW2NIXVtjSF1uYzJOM1tDSDJdW0NIMl1bQ0gyXVtDSDJdMw==

> <s_epik_cmdline>
J2VwaWtfcHl0aG9uJywgJy1waCcsICc3LjAnLCAnLXRuJywgJzgnLCAnLW1hJywgJzIwMCcsICctbWV0YWxfYmluZGluZycsICctaW1hZScsICc8aW5maWxlLm1hZT4nLCAnLW9tYWUnLCAnPG91dGZpbGUubWFlPic=

> <r_lp_tautomer_probability>
1

> <r_epik_Ionization_Penalty>
0.91661

> <r_epik_Ionization_Penalty_Charging>
0.838844

> <r_epik_Ionization_Penalty_Neutral>
0.0777664

> <r_epik_State_Penalty>
0.927046

> <r_epik_Charging_Adjusted_Penalty>
1.76589

> <i_epik_Tot_Q>
1

> <i_epik_Tot_abs_Q>
1

> <r_epik_Metal_State_Penalty>
0.950555

> <b_epik_Metal_Only>
0

> <s_lp_Force_Field>
OPLS_2005

> <r_lp_Energy>
39.0638

> <b_lp_Chiralities_Consistent>
1

> <s_lp_Variant>
AV-unprocessed.smi:1740-2

> <Gold.Version>
5.8.1

> <Gold.Id.Protein>
6NUR|6NUR_protein|mol2

> <Gold.PLP.Fitness>
52.6729

> <Gold.PLP.PLP>
-36.5949

> <Gold.PLP.part.hbond>
-6.1345

> <Gold.PLP.part.metal>
0.0000

> <Gold.PLP.part.buried>
-0.6243

> <Gold.PLP.part.nonpolar>
-37.6870

> <Gold.PLP.part.repulsive>
6.3882

> <Gold.PLP.ligand.clash>
0.0000

> <Gold.PLP.ligand.torsion>
0.7068

> <Gold.PLP.Chemscore.Hbond>
4.9927

> <Gold.PLP.Chemscore.CHOScore>
0.7280

> <Gold.PLP.Chemscore.Metal>
0.0000

> <Gold.Chemscore.Hbonds>
donor molecule, donor type, donor heavy atom, donor atom, acceptor molecule, acceptor atom, score
      L1  H     1    26       P1 10195  0.83
      L1  H     1    27       P1 10952  0.84
      L1  H     5    52       P1  7921  0.75
      L1  H     9    35       P1  7948  0.75
      L1  H    12    36       P1  7948  0.10
      P1  H  7918  7932       L1     3  0.93
      P1  H 10192 10197       L1     3  0.23
      L1  C    16    39       P1  8028  0.92

> <Gold.PLP.Chemscore.Internal.Correction>
0.3294

> <Gold.Rescore>
     Score         DG    S(hbond)    S(metal)    S(lipo)     H(rot)  DE(clash)    DE(int)     intcor
     17.19     -24.08       4.13        0.00      89.08       2.19       3.54       3.35       ----

> <Gold.Chemscore.Fitness>
17.1873

> <Gold.Chemscore.DG>
-24.0807

> <Gold.Chemscore.ZeroCoef>
-5.4800

> <Gold.Chemscore.Hbond>
4.1302

> <Gold.Chemscore.Metal>
0.0000

> <Gold.Chemscore.Lipo>
89.0781

> <Gold.Chemscore.Internal_Hbond>
0.0000

> <Gold.Chemscore.DEClash>
3.5440

> <Gold.Chemscore.DEInternal>
3.3494

> <Gold.Chemscore.Rot>
2.1939

> <Gold.Chemscore.Internal.Correction>
   9.000000E+99

> <Gold.Chemscore.Hbonds>
donor molecule, donor type, donor heavy atom, donor atom, acceptor molecule, acceptor atom, score
      L1  H     1    26       P1 10195  0.81
      L1  H     1    27       P1 10952  0.81
      L1  H     5    52       P1  7921  0.37
      L1  H     9    35       P1  7948  0.72
      L1  H    12    36       P1  7948  0.10
      P1  H  7918  7932       L1     3  0.69
      P1  H 10192 10197       L1     3  0.10

> <Gold.Chemscore.Hbond.Weighted>
-13.7949

> <Gold.Chemscore.Metal.Weighted>
-0.0000

> <Gold.Chemscore.Lipo.Weighted>
-10.4221

> <Gold.Chemscore.Internal_Hbond.Weighted>
0.0000

> <Gold.Chemscore.DEClash.Weighted>
3.5440

> <Gold.Chemscore.DEInternal.Weighted>
3.3494

> <Gold.Chemscore.Rot.Weighted>
5.6163

> <Gold.Chemscore.Internal.Correction.Weighted>
   9.000000E+99

> <Gold.Protein.RotatedTorsions>
[ 6907 6896 6895 6894 ] final   49.56 input  -60.11 | X-H torsion
[ 7974 7965 7964 7962 ] final -145.78 input  175.53 | X-H torsion
[ 8008 7997 7996 7995 ] final  123.80 input   59.86 | X-H torsion
[ 10167 10162 10161 10158 ] final -176.20 input  -65.29 | X-H torsion
[ 10718 10713 10712 10709 ] final  -84.36 input   66.30 | X-H torsion
[ 10763 10752 10751 10750 ] final  -43.55 input  -60.55 | X-H torsion
[ 11005 11000 10999 10996 ] final -175.77 input  -57.11 | X-H torsion

> <Gold.Protein.ActiveResidues>
 VAL166  LYS551  ARG553  GLY616  TRP617  ASP618  TYR619  PRO620  LYS621  CYS622 
 ASP623  PHE694  ASN695  SER759  ASP760  ASP761  ALA762  ILE779  LEU786  VAL792 
 PHE793  MET794  SER795  GLU796  ALA797  LYS798  CYS799  TRP800  GLU811  SER814 

> <Gold.Protein.RotatedAtoms>
  152.2921  134.7709  160.0375 H   0  0  0  0  0  0  0  0  0  0  0  0  # atno 6907 bound_to 6896
  151.8252  133.3395  159.3604 H   0  0  0  0  0  0  0  0  0  0  0  0  # atno 6908 bound_to 6896
  150.7235  134.5465  159.5817 H   0  0  0  0  0  0  0  0  0  0  0  0  # atno 6909 bound_to 6896
  144.8204  140.5540  143.5582 H   0  0  0  0  0  0  0  0  0  0  0  0  # atno 7974 bound_to 7965
  156.2779  140.2754  156.1686 H   0  0  0  0  0  0  0  0  0  0  0  0  # atno 8008 bound_to 7997
  155.0678  140.0387  157.2616 H   0  0  0  0  0  0  0  0  0  0  0  0  # atno 8009 bound_to 7997
  154.7065  140.2660  155.6675 H   0  0  0  0  0  0  0  0  0  0  0  0  # atno 8010 bound_to 7997
  139.5542  144.2033  152.1129 H   0  0  0  0  0  0  0  0  0  0  0  0  # atno 10167 bound_to 10162
  156.0007  130.4695  150.4398 H   0  0  0  0  0  0  0  0  0  0  0  0  # atno 10718 bound_to 10713
  153.9975  135.6697  153.4757 H   0  0  0  0  0  0  0  0  0  0  0  0  # atno 10763 bound_to 10752
  153.0677  135.4991  154.8233 H   0  0  0  0  0  0  0  0  0  0  0  0  # atno 10764 bound_to 10752
  154.7073  135.3090  154.9214 H   0  0  0  0  0  0  0  0  0  0  0  0  # atno 10765 bound_to 10752
  140.4595  134.6268  157.4836 H   0  0  0  0  0  0  0  0  0  0  0  0  # atno 11005 bound_to 11000
  145.5118  139.1479  143.3600 LP  0  0  0  0  0  0  0  0  0  0  0  0  # atno 17320 bound_to 7965
  146.2509  140.5259  142.8894 LP  0  0  0  0  0  0  0  0  0  0  0  0  # atno 17321 bound_to 7965
  140.1534  144.5094  150.6674 LP  0  0  0  0  0  0  0  0  0  0  0  0  # atno 17342 bound_to 10162
  140.6811  143.2327  151.5382 LP  0  0  0  0  0  0  0  0  0  0  0  0  # atno 17343 bound_to 10162
  157.2440  131.0531  151.2419 LP  0  0  0  0  0  0  0  0  0  0  0  0  # atno 17370 bound_to 10713
  157.3593  130.7123  149.6491 LP  0  0  0  0  0  0  0  0  0  0  0  0  # atno 17371 bound_to 10713
  139.9954  134.6919  155.9618 LP  0  0  0  0  0  0  0  0  0  0  0  0  # atno 17394 bound_to 11000
  141.1627  133.6538  156.4375 LP  0  0  0  0  0  0  0  0  0  0  0  0  # atno 17395 bound_to 11000

$$$$
