AV-unprocessed.smi:1521|AV-procd|sdf|6132|dock6
  -GOLD-   22720 6273D 1   1.00000     0.00000
 Structure written by MMmdl.
 35 36  0  0  0  0  0  0  0  0  2 V2000
  150.4248  137.1936  159.6320 O   0  0  0  0  0  0  0  0  0  0  0  0
  149.8002  137.7721  158.7427 C   0  0  0  0  0  0  0  0  0  0  0  0
  148.7081  137.2586  158.1597 N   0  0  0  0  0  0  0  0  0  0  0  0
  148.1033  135.9743  158.4939 C   0  0  0  0  0  0  0  0  0  0  0  0
  148.1291  135.7155  160.0095 C   0  0  2  0  0  0  0  0  0  0  0  0
  147.3104  134.4667  160.3928 C   0  0  0  0  0  0  0  0  0  0  0  0
  147.3196  134.3109  161.8058 O   0  0  0  0  0  0  0  0  0  0  0  0
  146.7546  135.4425  162.4533 C   0  0  0  0  0  0  0  0  0  0  0  0
  147.5723  136.6898  162.0805 C   0  0  0  0  0  0  0  0  0  0  0  0
  147.5589  136.8427  160.6676 O   0  0  0  0  0  0  0  0  0  0  0  0
  150.0856  138.9853  158.2371 N   0  0  0  0  0  0  0  0  0  0  0  0
  151.1515  139.8483  158.5422 C   0  0  0  0  0  0  0  0  0  0  0  0
  151.0248  141.1829  158.7828 C   0  0  0  0  0  0  0  0  0  0  0  0
  152.1661  142.0276  159.1123 C   0  0  0  0  0  0  0  0  0  0  0  0
  152.0778  143.5320  159.2961 C   0  0  0  0  0  0  0  0  0  0  0  0
  152.8591  144.1682  158.4232 F   0  0  0  0  0  0  0  0  0  0  0  0
  150.8265  143.9620  159.1323 F   0  0  0  0  0  0  0  0  0  0  0  0
  152.4734  143.8623  160.5246 F   0  0  0  0  0  0  0  0  0  0  0  0
  153.3522  141.3200  159.1359 C   0  0  0  0  0  0  0  0  0  0  0  0
  153.5596  139.9996  158.9384 N   0  5  0  0  0  0  0  0  0  0  0  0
  152.4846  139.2181  158.6362 C   0  0  0  0  0  0  0  0  0  0  0  0
  152.6023  138.0075  158.4431 O   0  0  0  0  0  0  0  0  0  0  0  0
  148.2496  137.8051  157.4454 H   0  0  0  0  0  0  0  0  0  0  0  0
  147.0750  135.9735  158.1312 H   0  0  0  0  0  0  0  0  0  0  0  0
  148.6179  135.1716  157.9631 H   0  0  0  0  0  0  0  0  0  0  0  0
  149.1618  135.5842  160.3384 H   0  0  0  0  0  0  0  0  0  0  0  0
  146.2837  134.5447  160.0315 H   0  0  0  0  0  0  0  0  0  0  0  0
  147.7438  133.5754  159.9387 H   0  0  0  0  0  0  0  0  0  0  0  0
  145.7096  135.5612  162.1628 H   0  0  0  0  0  0  0  0  0  0  0  0
  146.7732  135.2838  163.5317 H   0  0  0  0  0  0  0  0  0  0  0  0
  147.1394  137.5789  162.5390 H   0  0  0  0  0  0  0  0  0  0  0  0
  148.5982  136.6067  162.4426 H   0  0  0  0  0  0  0  0  0  0  0  0
  149.4291  139.3585  157.5672 H   0  0  0  0  0  0  0  0  0  0  0  0
  150.0583  141.6589  158.7583 H   0  0  0  0  0  0  0  0  0  0  0  0
  154.2742  141.9035  159.3443 H   0  0  0  0  0  0  0  0  0  0  0  0
  1  2  2  0  0  0  0
  2  3  1  0  0  0  0
  2 11  1  0  0  0  0
  3  4  1  0  0  0  0
  3 23  1  0  0  0  0
  4  5  1  0  0  0  0
  4 24  1  0  0  0  0
  4 25  1  0  0  0  0
  5 10  1  0  0  0  0
  5  6  1  0  0  0  0
  5 26  1  0  0  0  0
  6  7  1  0  0  0  0
  6 27  1  0  0  0  0
  6 28  1  0  0  0  0
  7  8  1  0  0  0  0
  8  9  1  0  0  0  0
  8 29  1  0  0  0  0
  8 30  1  0  0  0  0
  9 10  1  0  0  0  0
  9 31  1  0  0  0  0
  9 32  1  0  0  0  0
 11 12  1  0  0  0  0
 11 33  1  0  0  0  0
 12 21  1  0  0  0  0
 12 13  2  0  0  0  0
 13 14  1  0  0  0  0
 13 34  1  0  0  0  0
 14 15  1  0  0  0  0
 14 19  2  0  0  0  0
 15 16  1  0  0  0  0
 15 17  1  0  0  0  0
 15 18  1  0  0  0  0
 19 20  1  0  0  0  0
 19 35  1  0  0  0  0
 20 21  1  0  0  0  0
 21 22  2  0  0  0  0
M  CHG  1  20  -1
M  END
> <s_m_source_file>
AV-unprocessed.smi

> <i_m_source_file_index>
1521

> <i_lp_mmshare_version>
43012

> <i_f3d_flags>
0

> <s_epik_input>
Tz1jMVtuSF1bY0hdYyhDKEYpKEYpRilbY0hdYzFbTkhdQyg9TylbTkhdW0NIMl1bQ0BASF0yW0NIMl1PW0NIMl1bQ0gyXU8y

> <s_epik_cmdline>
J2VwaWtfcHl0aG9uJywgJy1waCcsICc3LjAnLCAnLXRuJywgJzgnLCAnLW1hJywgJzIwMCcsICctbWV0YWxfYmluZGluZycsICctaW1hZScsICc8aW5maWxlLm1hZT4nLCAnLW9tYWUnLCAnPG91dGZpbGUubWFlPic=

> <r_lp_tautomer_probability>
1

> <r_epik_Ionization_Penalty>
3.1412

> <r_epik_Ionization_Penalty_Charging>
0.17015

> <r_epik_Ionization_Penalty_Neutral>
2.97105

> <r_epik_State_Penalty>
2.96707

> <r_epik_Charging_Adjusted_Penalty>
3.13722

> <i_epik_Tot_Q>
-1

> <i_epik_Tot_abs_Q>
1

> <r_epik_Metal_State_Penalty>
0.451298

> <b_epik_Metal_Only>
1

> <s_lp_Force_Field>
OPLS_2005

> <r_lp_Energy>
20.4323

> <b_lp_Chiralities_Consistent>
1

> <s_lp_Variant>
AV-unprocessed.smi:1521-3

> <Gold.Version>
5.8.1

> <Gold.Id.Protein>
6NUR|6NUR_protein|mol2

> <Gold.PLP.Fitness>
47.4455

> <Gold.PLP.PLP>
-39.9849

> <Gold.PLP.part.hbond>
-3.3239

> <Gold.PLP.part.metal>
0.0000

> <Gold.PLP.part.buried>
-4.5989

> <Gold.PLP.part.nonpolar>
-31.9691

> <Gold.PLP.part.repulsive>
0.2957

> <Gold.PLP.ligand.clash>
0.0000

> <Gold.PLP.ligand.torsion>
0.6007

> <Gold.PLP.Chemscore.Hbond>
2.8690

> <Gold.PLP.Chemscore.CHOScore>
0.0000

> <Gold.PLP.Chemscore.Metal>
0.0000

> <Gold.Chemscore.Hbonds>
donor molecule, donor type, donor heavy atom, donor atom, acceptor molecule, acceptor atom, score
      P1  H  6896  6909       L1     1  0.50
      P1  H  6934  6947       L1    10  0.26
      P1  H  7997  8010       L1    20  1.42

> <Gold.PLP.Chemscore.Internal.Correction>
0.0549

> <Gold.Rescore>
     Score         DG    S(hbond)    S(metal)    S(lipo)     H(rot)  DE(clash)    DE(int)     intcor
     11.53     -16.35       1.78        0.00      71.81       1.36       0.35       4.47       ----

> <Gold.Chemscore.Fitness>
11.5273

> <Gold.Chemscore.DG>
-16.3493

> <Gold.Chemscore.ZeroCoef>
-5.4800

> <Gold.Chemscore.Hbond>
1.7842

> <Gold.Chemscore.Metal>
0.0000

> <Gold.Chemscore.Lipo>
71.8094

> <Gold.Chemscore.Internal_Hbond>
0.0000

> <Gold.Chemscore.DEClash>
0.3494

> <Gold.Chemscore.DEInternal>
4.4726

> <Gold.Chemscore.Rot>
1.3640

> <Gold.Chemscore.Internal.Correction>
   9.000000E+99

> <Gold.Chemscore.Hbonds>
donor molecule, donor type, donor heavy atom, donor atom, acceptor molecule, acceptor atom, score
      P1  H  6896  6909       L1     1  0.50
      P1  H  6934  6947       L1    10  0.01
      P1  H  7997  8010       L1    20  0.07

> <Gold.Chemscore.Hbond.Weighted>
-5.9594

> <Gold.Chemscore.Metal.Weighted>
-0.0000

> <Gold.Chemscore.Lipo.Weighted>
-8.4017

> <Gold.Chemscore.Internal_Hbond.Weighted>
0.0000

> <Gold.Chemscore.DEClash.Weighted>
0.3494

> <Gold.Chemscore.DEInternal.Weighted>
4.4726

> <Gold.Chemscore.Rot.Weighted>
3.4918

> <Gold.Chemscore.Internal.Correction.Weighted>
   9.000000E+99

> <Gold.Protein.RotatedTorsions>
[ 6907 6896 6895 6894 ] final   92.33 input  -60.11 | X-H torsion
[ 7974 7965 7964 7962 ] final  -70.57 input  175.53 | X-H torsion
[ 8008 7997 7996 7995 ] final   30.29 input   59.86 | X-H torsion
[ 10167 10162 10161 10158 ] final  143.38 input  -65.29 | X-H torsion
[ 10718 10713 10712 10709 ] final   52.02 input   66.30 | X-H torsion
[ 10763 10752 10751 10750 ] final  125.45 input  -60.55 | X-H torsion
[ 11005 11000 10999 10996 ] final  166.31 input  -57.11 | X-H torsion

> <Gold.Protein.ActiveResidues>
 VAL166  LYS551  ARG553  GLY616  TRP617  ASP618  TYR619  PRO620  LYS621  CYS622 
 ASP623  PHE694  ASN695  SER759  ASP760  ASP761  ALA762  ILE779  LEU786  VAL792 
 PHE793  MET794  SER795  GLU796  ALA797  LYS798  CYS799  TRP800  GLU811  SER814 

> <Gold.Protein.RotatedAtoms>
  152.5452  134.1519  159.8521 H   0  0  0  0  0  0  0  0  0  0  0  0  # atno 6907 bound_to 6896
  151.1545  133.4878  159.2602 H   0  0  0  0  0  0  0  0  0  0  0  0  # atno 6908 bound_to 6896
  151.1437  135.0203  159.8692 H   0  0  0  0  0  0  0  0  0  0  0  0  # atno 6909 bound_to 6896
  145.6892  140.9159  143.0790 H   0  0  0  0  0  0  0  0  0  0  0  0  # atno 7974 bound_to 7965
  155.0881  140.3217  155.4582 H   0  0  0  0  0  0  0  0  0  0  0  0  # atno 8008 bound_to 7997
  156.2750  140.2083  156.5954 H   0  0  0  0  0  0  0  0  0  0  0  0  # atno 8009 bound_to 7997
  154.6925  140.0515  157.0365 H   0  0  0  0  0  0  0  0  0  0  0  0  # atno 8010 bound_to 7997
  139.4971  144.6044  151.6410 H   0  0  0  0  0  0  0  0  0  0  0  0  # atno 10167 bound_to 10162
  157.5036  130.8454  149.8346 H   0  0  0  0  0  0  0  0  0  0  0  0  # atno 10718 bound_to 10713
  153.6775  135.3320  155.3169 H   0  0  0  0  0  0  0  0  0  0  0  0  # atno 10763 bound_to 10752
  154.8475  135.4401  154.1641 H   0  0  0  0  0  0  0  0  0  0  0  0  # atno 10764 bound_to 10752
  153.2648  135.6994  153.7617 H   0  0  0  0  0  0  0  0  0  0  0  0  # atno 10765 bound_to 10752
  140.2651  134.7871  157.3625 H   0  0  0  0  0  0  0  0  0  0  0  0  # atno 11005 bound_to 11000
  144.7002  139.8799  143.7446 LP  0  0  0  0  0  0  0  0  0  0  0  0  # atno 17320 bound_to 7965
  146.0896  139.3886  143.0414 LP  0  0  0  0  0  0  0  0  0  0  0  0  # atno 17321 bound_to 7965
  140.5702  144.0121  150.6213 LP  0  0  0  0  0  0  0  0  0  0  0  0  # atno 17342 bound_to 10162
  140.3236  143.3121  152.0759 LP  0  0  0  0  0  0  0  0  0  0  0  0  # atno 17343 bound_to 10162
  156.0244  130.3784  150.1866 LP  0  0  0  0  0  0  0  0  0  0  0  0  # atno 17370 bound_to 10713
  157.0056  130.9935  151.3379 LP  0  0  0  0  0  0  0  0  0  0  0  0  # atno 17371 bound_to 10713
  140.1427  134.4951  155.8019 LP  0  0  0  0  0  0  0  0  0  0  0  0  # atno 17394 bound_to 11000
  141.2185  133.6831  156.7239 LP  0  0  0  0  0  0  0  0  0  0  0  0  # atno 17395 bound_to 11000

$$$$
