AV-unprocessed.smi:2824|AV-procd|sdf|10887|dock1
  -GOLD-   2272015333D 1   1.00000     0.00000
 Structure written by MMmdl.
 38 39  0  0  0  0  0  0  0  0  1 V2000
  153.9993  142.5145  161.7229 C   0  0  0  0  0  0  0  0  0  0  0  0
  153.2001  143.1561  160.6041 C   0  0  0  0  0  0  0  0  0  0  0  0
  153.0118  144.5544  160.5958 C   0  0  0  0  0  0  0  0  0  0  0  0
  152.2745  145.1647  159.5652 C   0  0  0  0  0  0  0  0  0  0  0  0
  151.7239  144.3773  158.5385 C   0  0  0  0  0  0  0  0  0  0  0  0
  151.9092  142.9815  158.5417 C   0  0  0  0  0  0  0  0  0  0  0  0
  152.6501  142.3545  159.5763 C   0  0  0  0  0  0  0  0  0  0  0  0
  152.8726  140.9944  159.6432 O   0  0  0  0  0  0  0  0  0  0  0  0
  151.8965  140.1179  159.0962 C   0  0  0  0  0  0  0  0  0  0  0  0
  152.4819  138.6968  159.0426 C   0  0  1  0  0  0  0  0  0  0  0  0
  153.0983  138.4489  160.2917 O   0  0  0  0  0  0  0  0  0  0  0  0
  151.3832  137.6309  158.8350 C   0  0  0  0  0  0  0  0  0  0  0  0
  150.7352  137.7542  157.5236 N   0  0  0  0  0  0  0  0  0  0  0  0
  150.1457  138.9865  157.3016 N   0  0  0  0  0  0  0  0  0  0  0  0
  149.5228  139.2454  156.1972 C   0  0  0  0  0  0  0  0  0  0  0  0
  148.9053  140.6144  156.0528 C   0  0  0  0  0  0  0  0  0  0  0  0
  148.0789  140.8780  157.0652 F   0  0  0  0  0  0  0  0  0  0  0  0
  149.8587  141.5464  156.0308 F   0  0  0  0  0  0  0  0  0  0  0  0
  148.2164  140.6883  154.9134 F   0  0  0  0  0  0  0  0  0  0  0  0
  149.4516  138.2196  155.1699 C   0  0  0  0  0  0  0  0  0  0  0  0
  150.0289  137.0186  155.3882 C   0  0  0  0  0  0  0  0  0  0  0  0
  150.7273  136.7174  156.6354 C   0  0  0  0  0  0  0  0  0  0  0  0
  151.2561  135.6307  156.8677 O   0  0  0  0  0  0  0  0  0  0  0  0
  154.3165  143.2512  162.4613 H   0  0  0  0  0  0  0  0  0  0  0  0
  154.8901  142.0307  161.3215 H   0  0  0  0  0  0  0  0  0  0  0  0
  153.3998  141.7606  162.2339 H   0  0  0  0  0  0  0  0  0  0  0  0
  153.4328  145.1657  161.3806 H   0  0  0  0  0  0  0  0  0  0  0  0
  152.1325  146.2353  159.5621 H   0  0  0  0  0  0  0  0  0  0  0  0
  151.1585  144.8439  157.7453 H   0  0  0  0  0  0  0  0  0  0  0  0
  151.4717  142.4136  157.7351 H   0  0  0  0  0  0  0  0  0  0  0  0
  150.9686  140.1354  159.6711 H   0  0  0  0  0  0  0  0  0  0  0  0
  151.6685  140.4547  158.0836 H   0  0  0  0  0  0  0  0  0  0  0  0
  153.2230  138.6398  158.2444 H   0  0  0  0  0  0  0  0  0  0  0  0
  153.1218  139.2566  160.7815 H   0  0  0  0  0  0  0  0  0  0  0  0
  151.7908  136.6277  158.9764 H   0  0  0  0  0  0  0  0  0  0  0  0
  150.6184  137.7309  159.6075 H   0  0  0  0  0  0  0  0  0  0  0  0
  148.9397  138.4197  154.2404 H   0  0  0  0  0  0  0  0  0  0  0  0
  149.9736  136.2593  154.6220 H   0  0  0  0  0  0  0  0  0  0  0  0
  1  2  1  0  0  0  0
  1 24  1  0  0  0  0
  1 25  1  0  0  0  0
  1 26  1  0  0  0  0
  2  7  1  0  0  0  0
  2  3  2  0  0  0  0
  3  4  1  0  0  0  0
  3 27  1  0  0  0  0
  4  5  2  0  0  0  0
  4 28  1  0  0  0  0
  5  6  1  0  0  0  0
  5 29  1  0  0  0  0
  6  7  2  0  0  0  0
  6 30  1  0  0  0  0
  7  8  1  0  0  0  0
  8  9  1  0  0  0  0
  9 10  1  0  0  0  0
  9 31  1  0  0  0  0
  9 32  1  0  0  0  0
 10 11  1  0  0  0  0
 10 12  1  0  0  0  0
 10 33  1  0  0  0  0
 11 34  1  0  0  0  0
 12 13  1  0  0  0  0
 12 35  1  0  0  0  0
 12 36  1  0  0  0  0
 13 22  1  0  0  0  0
 13 14  1  0  0  0  0
 14 15  2  0  0  0  0
 15 16  1  0  0  0  0
 15 20  1  0  0  0  0
 16 17  1  0  0  0  0
 16 18  1  0  0  0  0
 16 19  1  0  0  0  0
 20 21  2  0  0  0  0
 20 37  1  0  0  0  0
 21 22  1  0  0  0  0
 21 38  1  0  0  0  0
 22 23  2  0  0  0  0
M  END
> <s_m_source_file>
AV-unprocessed.smi

> <i_m_source_file_index>
2824

> <i_lp_mmshare_version>
43012

> <i_f3d_flags>
0

> <s_epik_input>
W0NIM11jMVtjSF1bY0hdW2NIXVtjSF1jMU9bQ0gyXVtDQEhdKFtPSF0pW0NIMl1uMm5jKEMoRikoRilGKVtjSF1bY0hdYzI9Tw==

> <s_epik_cmdline>
J2VwaWtfcHl0aG9uJywgJy1waCcsICc3LjAnLCAnLXRuJywgJzgnLCAnLW1hJywgJzIwMCcsICctbWV0YWxfYmluZGluZycsICctaW1hZScsICc8aW5maWxlLm1hZT4nLCAnLW9tYWUnLCAnPG91dGZpbGUubWFlPic=

> <r_lp_tautomer_probability>
1

> <r_epik_Ionization_Penalty>
1.2156e-07

> <r_epik_Ionization_Penalty_Charging>
4.38548e-09

> <r_epik_Ionization_Penalty_Neutral>
1.17174e-07

> <r_epik_State_Penalty>
-0

> <r_epik_Charging_Adjusted_Penalty>
4.38548e-09

> <i_epik_Tot_Q>
0

> <i_epik_Tot_abs_Q>
0

> <r_epik_Metal_State_Penalty>
-0

> <b_epik_Metal_Only>
0

> <s_lp_Force_Field>
OPLS_2005

> <r_lp_Energy>
34.0789

> <b_lp_Chiralities_Consistent>
1

> <s_lp_Variant>
AV-unprocessed.smi:2824-2

> <Gold.Version>
5.8.1

> <Gold.Id.Protein>
6NUR|6NUR_protein|mol2

> <Gold.PLP.Fitness>
49.3039

> <Gold.PLP.PLP>
-47.5487

> <Gold.PLP.part.hbond>
-0.8237

> <Gold.PLP.part.metal>
0.0000

> <Gold.PLP.part.buried>
-5.9619

> <Gold.PLP.part.nonpolar>
-40.5012

> <Gold.PLP.part.repulsive>
0.0237

> <Gold.PLP.ligand.clash>
0.0000

> <Gold.PLP.ligand.torsion>
0.6007

> <Gold.PLP.Chemscore.Hbond>
0.8960

> <Gold.PLP.Chemscore.CHOScore>
0.0000

> <Gold.PLP.Chemscore.Metal>
0.0000

> <Gold.PLP.Chemscore.Internal.Correction>
0.2686

> <Gold.Rescore>
     Score         DG    S(hbond)    S(metal)    S(lipo)     H(rot)  DE(clash)    DE(int)     intcor
     13.42     -15.51       0.97        0.00     114.98       2.60       0.08       2.01       ----

> <Gold.Chemscore.Fitness>
13.4206

> <Gold.Chemscore.DG>
-15.5134

> <Gold.Chemscore.ZeroCoef>
-5.4800

> <Gold.Chemscore.Hbond>
0.9675

> <Gold.Chemscore.Metal>
0.0000

> <Gold.Chemscore.Lipo>
114.9788

> <Gold.Chemscore.Internal_Hbond>
0.0000

> <Gold.Chemscore.DEClash>
0.0790

> <Gold.Chemscore.DEInternal>
2.0139

> <Gold.Chemscore.Rot>
2.5978

> <Gold.Chemscore.Internal.Correction>
   9.000000E+99

> <Gold.Chemscore.Hbond.Weighted>
-3.2313

> <Gold.Chemscore.Metal.Weighted>
-0.0000

> <Gold.Chemscore.Lipo.Weighted>
-13.4525

> <Gold.Chemscore.Internal_Hbond.Weighted>
0.0000

> <Gold.Chemscore.DEClash.Weighted>
0.0790

> <Gold.Chemscore.DEInternal.Weighted>
2.0139

> <Gold.Chemscore.Rot.Weighted>
6.6504

> <Gold.Chemscore.Internal.Correction.Weighted>
   9.000000E+99

> <Gold.Protein.RotatedTorsions>
[ 6907 6896 6895 6894 ] final  145.45 input  -60.11 | X-H torsion
[ 7974 7965 7964 7962 ] final -131.96 input  175.53 | X-H torsion
[ 8008 7997 7996 7995 ] final -146.10 input   59.86 | X-H torsion
[ 10167 10162 10161 10158 ] final   59.68 input  -65.29 | X-H torsion
[ 10718 10713 10712 10709 ] final  103.70 input   66.30 | X-H torsion
[ 10763 10752 10751 10750 ] final -177.27 input  -60.55 | X-H torsion
[ 11005 11000 10999 10996 ] final  155.67 input  -57.11 | X-H torsion

> <Gold.Protein.ActiveResidues>
 VAL166  LYS551  ARG553  GLY616  TRP617  ASP618  TYR619  PRO620  LYS621  CYS622 
 ASP623  PHE694  ASN695  SER759  ASP760  ASP761  ALA762  ILE779  LEU786  VAL792 
 PHE793  MET794  SER795  GLU796  ALA797  LYS798  CYS799  TRP800  GLU811  SER814 

> <Gold.Protein.RotatedAtoms>
  152.1806  133.4705  159.4956 H   0  0  0  0  0  0  0  0  0  0  0  0  # atno 6907 bound_to 6896
  150.6934  134.1838  159.4268 H   0  0  0  0  0  0  0  0  0  0  0  0  # atno 6908 bound_to 6896
  151.9749  135.0058  160.0605 H   0  0  0  0  0  0  0  0  0  0  0  0  # atno 6909 bound_to 6896
  144.9330  140.7150  143.4894 H   0  0  0  0  0  0  0  0  0  0  0  0  # atno 7974 bound_to 7965
  155.5539  140.0619  157.2844 H   0  0  0  0  0  0  0  0  0  0  0  0  # atno 8008 bound_to 7997
  154.4411  140.1897  156.0759 H   0  0  0  0  0  0  0  0  0  0  0  0  # atno 8009 bound_to 7997
  156.0496  140.3286  155.7339 H   0  0  0  0  0  0  0  0  0  0  0  0  # atno 8010 bound_to 7997
  140.1738  144.4250  150.6648 H   0  0  0  0  0  0  0  0  0  0  0  0  # atno 10167 bound_to 10162
  157.6764  131.0785  150.5595 H   0  0  0  0  0  0  0  0  0  0  0  0  # atno 10718 bound_to 10713
  154.5622  135.2821  155.0908 H   0  0  0  0  0  0  0  0  0  0  0  0  # atno 10763 bound_to 10752
  154.2313  135.6373  153.5180 H   0  0  0  0  0  0  0  0  0  0  0  0  # atno 10764 bound_to 10752
  153.0032  135.5538  154.6219 H   0  0  0  0  0  0  0  0  0  0  0  0  # atno 10765 bound_to 10752
  140.1603  134.8614  157.2566 H   0  0  0  0  0  0  0  0  0  0  0  0  # atno 11005 bound_to 11000
  145.3112  139.1818  143.4638 LP  0  0  0  0  0  0  0  0  0  0  0  0  # atno 17320 bound_to 7965
  146.3255  140.3116  142.8627 LP  0  0  0  0  0  0  0  0  0  0  0  0  # atno 17321 bound_to 7965
  140.6564  143.2239  151.5958 LP  0  0  0  0  0  0  0  0  0  0  0  0  # atno 17342 bound_to 10162
  139.5326  144.2872  152.1181 LP  0  0  0  0  0  0  0  0  0  0  0  0  # atno 17343 bound_to 10162
  156.5898  130.4326  149.5941 LP  0  0  0  0  0  0  0  0  0  0  0  0  # atno 17370 bound_to 10713
  156.2592  130.6952  151.1716 LP  0  0  0  0  0  0  0  0  0  0  0  0  # atno 17371 bound_to 10713
  140.2497  134.3697  155.7447 LP  0  0  0  0  0  0  0  0  0  0  0  0  # atno 17394 bound_to 11000
  141.2209  133.7310  156.8916 LP  0  0  0  0  0  0  0  0  0  0  0  0  # atno 17395 bound_to 11000

$$$$
