AV-unprocessed.smi:1492|AV-procd|sdf|6046|dock5
  -GOLD-   22720 6163D 1   1.00000     0.00000
 Structure written by MMmdl.
 52 53  0  0  0  0  0  0  0  0  3 V2000
  144.1570  136.5119  154.9811 C   0  0  0  0  0  0  0  0  0  0  0  0
  145.5436  136.0674  155.4823 C   0  0  0  0  0  0  0  0  0  0  0  0
  146.7820  136.4267  154.5928 C   0  0  1  0  0  0  0  0  0  0  0  0
  146.8982  137.9680  154.4975 C   0  0  0  0  0  0  0  0  0  0  0  0
  148.0771  135.8759  155.2685 C   0  0  0  0  0  0  0  0  0  0  0  0
  149.2728  136.5141  154.7314 N   0  0  0  0  0  0  0  0  0  0  0  0
  150.5441  136.2167  155.0359 C   0  0  0  0  0  0  0  0  0  0  0  0
  150.8834  135.2068  155.6507 O   0  0  0  0  0  0  0  0  0  0  0  0
  151.5813  137.2701  154.6429 C   0  0  0  0  0  0  0  0  0  0  0  0
  151.5446  138.5242  155.5178 C   0  0  0  0  0  0  0  0  0  0  0  0
  150.5993  139.5012  155.4042 C   0  0  0  0  0  0  0  0  0  0  0  0
  149.5119  139.4858  154.3442 C   0  0  0  0  0  0  0  0  0  0  0  0
  150.5618  140.5815  156.3018 N   0  0  0  0  0  0  0  0  0  0  0  0
  151.4086  140.6365  157.2579 C   0  0  0  0  0  0  0  0  0  0  0  0
  151.3475  141.7919  158.2338 C   0  0  0  0  0  0  0  0  0  0  0  0
  152.3891  139.6937  157.4702 N   0  5  0  0  0  0  0  0  0  0  0  0
  152.5184  138.6395  156.6168 C   0  0  0  0  0  0  0  0  0  0  0  0
  153.3984  137.7912  156.7534 O   0  0  0  0  0  0  0  0  0  0  0  0
  146.6199  135.8126  153.2176 N   0  3  0  0  0  0  0  0  0  0  0  0
  146.2962  134.3555  153.1779 C   0  0  0  0  0  0  0  0  0  0  0  0
  146.2749  133.8237  151.7324 C   0  0  0  0  0  0  0  0  0  0  0  0
  145.3806  134.5862  150.9361 O   0  0  0  0  0  0  0  0  0  0  0  0
  145.7710  135.9496  150.8803 C   0  0  0  0  0  0  0  0  0  0  0  0
  145.7053  136.5441  152.2941 C   0  0  0  0  0  0  0  0  0  0  0  0
  143.3790  136.1218  155.6375 H   0  0  0  0  0  0  0  0  0  0  0  0
  143.9444  136.1459  153.9775 H   0  0  0  0  0  0  0  0  0  0  0  0
  144.0506  137.5964  154.9803 H   0  0  0  0  0  0  0  0  0  0  0  0
  145.6795  136.4788  156.4839 H   0  0  0  0  0  0  0  0  0  0  0  0
  145.4877  134.9860  155.6083 H   0  0  0  0  0  0  0  0  0  0  0  0
  146.9794  138.4249  155.4831 H   0  0  0  0  0  0  0  0  0  0  0  0
  146.0316  138.4131  154.0091 H   0  0  0  0  0  0  0  0  0  0  0  0
  147.7867  138.2816  153.9496 H   0  0  0  0  0  0  0  0  0  0  0  0
  148.0415  135.9630  156.3537 H   0  0  0  0  0  0  0  0  0  0  0  0
  148.1708  134.8037  155.1001 H   0  0  0  0  0  0  0  0  0  0  0  0
  149.1191  137.3575  154.1970 H   0  0  0  0  0  0  0  0  0  0  0  0
  152.5791  136.8297  154.6741 H   0  0  0  0  0  0  0  0  0  0  0  0
  151.4176  137.5307  153.5979 H   0  0  0  0  0  0  0  0  0  0  0  0
  149.9512  139.5435  153.3482 H   0  0  0  0  0  0  0  0  0  0  0  0
  148.8358  140.3336  154.4602 H   0  0  0  0  0  0  0  0  0  0  0  0
  148.9171  138.5750  154.4106 H   0  0  0  0  0  0  0  0  0  0  0  0
  152.3498  142.1565  158.4627 H   0  0  0  0  0  0  0  0  0  0  0  0
  150.8745  141.4726  159.1629 H   0  0  0  0  0  0  0  0  0  0  0  0
  150.7713  142.6216  157.8219 H   0  0  0  0  0  0  0  0  0  0  0  0
  147.0359  133.7635  153.7137 H   0  0  0  0  0  0  0  0  0  0  0  0
  145.3298  134.1763  153.6497 H   0  0  0  0  0  0  0  0  0  0  0  0
  147.2711  133.8422  151.2921 H   0  0  0  0  0  0  0  0  0  0  0  0
  145.9515  132.7827  151.7241 H   0  0  0  0  0  0  0  0  0  0  0  0
  146.7706  136.0500  150.4551 H   0  0  0  0  0  0  0  0  0  0  0  0
  145.0887  136.4832  150.2182 H   0  0  0  0  0  0  0  0  0  0  0  0
  144.6772  136.4817  152.6511 H   0  0  0  0  0  0  0  0  0  0  0  0
  145.9553  137.5997  152.2274 H   0  0  0  0  0  0  0  0  0  0  0  0
  147.5364  135.8824  152.7973 H   0  0  0  0  0  0  0  0  0  0  0  0
  1  2  1  0  0  0  0
  1 25  1  0  0  0  0
  1 26  1  0  0  0  0
  1 27  1  0  0  0  0
  2  3  1  0  0  0  0
  2 28  1  0  0  0  0
  2 29  1  0  0  0  0
  3  4  1  0  0  0  0
  3  5  1  0  0  0  0
  3 19  1  0  0  0  0
  4 30  1  0  0  0  0
  4 31  1  0  0  0  0
  4 32  1  0  0  0  0
  5  6  1  0  0  0  0
  5 33  1  0  0  0  0
  5 34  1  0  0  0  0
  6  7  1  0  0  0  0
  6 35  1  0  0  0  0
  7  8  2  0  0  0  0
  7  9  1  0  0  0  0
  9 10  1  0  0  0  0
  9 36  1  0  0  0  0
  9 37  1  0  0  0  0
 10 17  1  0  0  0  0
 10 11  2  0  0  0  0
 11 12  1  0  0  0  0
 11 13  1  0  0  0  0
 12 38  1  0  0  0  0
 12 39  1  0  0  0  0
 12 40  1  0  0  0  0
 13 14  2  0  0  0  0
 14 15  1  0  0  0  0
 14 16  1  0  0  0  0
 15 41  1  0  0  0  0
 15 42  1  0  0  0  0
 15 43  1  0  0  0  0
 16 17  1  0  0  0  0
 17 18  2  0  0  0  0
 19 24  1  0  0  0  0
 19 20  1  0  0  0  0
 19 52  1  0  0  0  0
 20 21  1  0  0  0  0
 20 44  1  0  0  0  0
 20 45  1  0  0  0  0
 21 22  1  0  0  0  0
 21 46  1  0  0  0  0
 21 47  1  0  0  0  0
 22 23  1  0  0  0  0
 23 24  1  0  0  0  0
 23 48  1  0  0  0  0
 23 49  1  0  0  0  0
 24 50  1  0  0  0  0
 24 51  1  0  0  0  0
M  CHG  1  16  -1
M  CHG  1  19   1
M  END
> <s_m_source_file>
AV-unprocessed.smi

> <i_m_source_file_index>
1492

> <i_lp_mmshare_version>
43012

> <i_f3d_flags>
0

> <s_epik_input>
W0NIMl0xW0NIMl1PW0NIMl1bQ0gyXU4xW0NAQF0oW0NIM10pKFtDSDJdW0NIM10pW0NIMl1bTkhdQyg9TylbQ0gyXWMyYyhbQ0gzXSluYyhbQ0gzXSlbbkhdYzI9Tw==

> <s_epik_cmdline>
J2VwaWtfcHl0aG9uJywgJy1waCcsICc3LjAnLCAnLXRuJywgJzgnLCAnLW1hJywgJzIwMCcsICctbWV0YWxfYmluZGluZycsICctaW1hZScsICc8aW5maWxlLm1hZT4nLCAnLW9tYWUnLCAnPG91dGZpbGUubWFlPic=

> <r_lp_tautomer_probability>
0.839158

> <r_epik_Ionization_Penalty>
6.90614

> <r_epik_Ionization_Penalty_Charging>
0.570079

> <r_epik_Ionization_Penalty_Neutral>
6.33607

> <r_epik_State_Penalty>
4.81716

> <r_epik_Charging_Adjusted_Penalty>
5.38724

> <i_epik_Tot_Q>
0

> <i_epik_Tot_abs_Q>
2

> <r_epik_Metal_State_Penalty>
1.25629

> <b_epik_Metal_Only>
1

> <s_lp_Force_Field>
OPLS_2005

> <r_lp_Energy>
28.2979

> <b_lp_Chiralities_Consistent>
1

> <s_lp_Variant>
AV-unprocessed.smi:1492-11

> <Gold.Version>
5.8.1

> <Gold.Id.Protein>
6NUR|6NUR_protein|mol2

> <Gold.PLP.Fitness>
43.7929

> <Gold.PLP.PLP>
-33.5638

> <Gold.PLP.part.hbond>
-4.0000

> <Gold.PLP.part.metal>
0.0000

> <Gold.PLP.part.buried>
-1.6811

> <Gold.PLP.part.nonpolar>
-27.1550

> <Gold.PLP.part.repulsive>
0.3793

> <Gold.PLP.ligand.clash>
0.0000

> <Gold.PLP.ligand.torsion>
0.9582

> <Gold.PLP.Chemscore.Hbond>
3.9920

> <Gold.PLP.Chemscore.CHOScore>
0.0000

> <Gold.PLP.Chemscore.Metal>
0.0000

> <Gold.Chemscore.Hbonds>
donor molecule, donor type, donor heavy atom, donor atom, acceptor molecule, acceptor atom, score
      L1  H    19    52       P1  7948  2.00
      P1  H 10752 10764       L1     8  0.02

> <Gold.PLP.Chemscore.Internal.Correction>
0.1696

> <Gold.Rescore>
     Score         DG    S(hbond)    S(metal)    S(lipo)     H(rot)  DE(clash)    DE(int)     intcor
     15.76     -17.25       2.95        0.00      62.89       2.12       0.17       1.32       ----

> <Gold.Chemscore.Fitness>
15.7571

> <Gold.Chemscore.DG>
-17.2461

> <Gold.Chemscore.ZeroCoef>
-5.4800

> <Gold.Chemscore.Hbond>
2.9474

> <Gold.Chemscore.Metal>
0.0000

> <Gold.Chemscore.Lipo>
62.8872

> <Gold.Chemscore.Internal_Hbond>
0.0000

> <Gold.Chemscore.DEClash>
0.1677

> <Gold.Chemscore.DEInternal>
1.3213

> <Gold.Chemscore.Rot>
2.1235

> <Gold.Chemscore.Internal.Correction>
   9.000000E+99

> <Gold.Chemscore.Hbonds>
donor molecule, donor type, donor heavy atom, donor atom, acceptor molecule, acceptor atom, score
      L1  H    19    52       P1  7948  1.00

> <Gold.Chemscore.Hbond.Weighted>
-9.8443

> <Gold.Chemscore.Metal.Weighted>
-0.0000

> <Gold.Chemscore.Lipo.Weighted>
-7.3578

> <Gold.Chemscore.Internal_Hbond.Weighted>
0.0000

> <Gold.Chemscore.DEClash.Weighted>
0.1677

> <Gold.Chemscore.DEInternal.Weighted>
1.3213

> <Gold.Chemscore.Rot.Weighted>
5.4360

> <Gold.Chemscore.Internal.Correction.Weighted>
   9.000000E+99

> <Gold.Protein.RotatedTorsions>
[ 6907 6896 6895 6894 ] final  -41.87 input  -60.11 | X-H torsion
[ 7974 7965 7964 7962 ] final  103.94 input  175.53 | X-H torsion
[ 8008 7997 7996 7995 ] final  -31.07 input   59.86 | X-H torsion
[ 10167 10162 10161 10158 ] final  -50.29 input  -65.29 | X-H torsion
[ 10718 10713 10712 10709 ] final  136.87 input   66.30 | X-H torsion
[ 10763 10752 10751 10750 ] final  -64.86 input  -60.55 | X-H torsion
[ 11005 11000 10999 10996 ] final -173.39 input  -57.11 | X-H torsion

> <Gold.Protein.ActiveResidues>
 VAL166  LYS551  ARG553  GLY616  TRP617  ASP618  TYR619  PRO620  LYS621  CYS622 
 ASP623  PHE694  ASN695  SER759  ASP760  ASP761  ALA762  ILE779  LEU786  VAL792 
 PHE793  MET794  SER795  GLU796  ALA797  LYS798  CYS799  TRP800  GLU811  SER814 

> <Gold.Protein.RotatedAtoms>
  150.9617  134.9004  159.7734 H   0  0  0  0  0  0  0  0  0  0  0  0  # atno 6907 bound_to 6896
  152.5158  134.3663  159.9312 H   0  0  0  0  0  0  0  0  0  0  0  0  # atno 6908 bound_to 6896
  151.3675  133.3826  159.2731 H   0  0  0  0  0  0  0  0  0  0  0  0  # atno 6909 bound_to 6896
  145.3393  139.2466  143.3618 H   0  0  0  0  0  0  0  0  0  0  0  0  # atno 7974 bound_to 7965
  154.4227  140.1774  156.1508 H   0  0  0  0  0  0  0  0  0  0  0  0  # atno 8008 bound_to 7997
  155.9917  140.3368  155.6735 H   0  0  0  0  0  0  0  0  0  0  0  0  # atno 8009 bound_to 7997
  155.6364  140.0675  157.2623 H   0  0  0  0  0  0  0  0  0  0  0  0  # atno 8010 bound_to 7997
  140.6644  143.2663  151.4338 H   0  0  0  0  0  0  0  0  0  0  0  0  # atno 10167 bound_to 10162
  157.4421  131.1058  151.0131 H   0  0  0  0  0  0  0  0  0  0  0  0  # atno 10718 bound_to 10713
  154.3363  135.6166  153.5575 H   0  0  0  0  0  0  0  0  0  0  0  0  # atno 10763 bound_to 10752
  152.9807  135.5759  154.4904 H   0  0  0  0  0  0  0  0  0  0  0  0  # atno 10764 bound_to 10752
  154.4599  135.2855  155.1697 H   0  0  0  0  0  0  0  0  0  0  0  0  # atno 10765 bound_to 10752
  140.4862  134.6028  157.4938 H   0  0  0  0  0  0  0  0  0  0  0  0  # atno 11005 bound_to 11000
  146.3014  140.3987  142.8703 LP  0  0  0  0  0  0  0  0  0  0  0  0  # atno 17320 bound_to 7965
  144.8802  140.7391  143.5991 LP  0  0  0  0  0  0  0  0  0  0  0  0  # atno 17321 bound_to 7965
  139.5888  144.1544  152.2063 LP  0  0  0  0  0  0  0  0  0  0  0  0  # atno 17342 bound_to 10162
  140.0892  144.5635  150.7066 LP  0  0  0  0  0  0  0  0  0  0  0  0  # atno 17343 bound_to 10162
  157.0991  130.5974  149.5456 LP  0  0  0  0  0  0  0  0  0  0  0  0  # atno 17370 bound_to 10713
  155.9953  130.5019  150.7452 LP  0  0  0  0  0  0  0  0  0  0  0  0  # atno 17371 bound_to 10713
  139.9796  134.7158  155.9884 LP  0  0  0  0  0  0  0  0  0  0  0  0  # atno 17394 bound_to 11000
  141.1507  133.6549  156.4003 LP  0  0  0  0  0  0  0  0  0  0  0  0  # atno 17395 bound_to 11000

$$$$
