AV-unprocessed.smi:1487|AV-procd|sdf|6019|dock3
  -GOLD-   22720 6123D 1   1.00000     0.00000
 Structure written by MMmdl.
 49 51  0  0  0  0  0  0  0  0  3 V2000
  151.9258  144.9382  159.9627 C   0  0  0  0  0  0  0  0  0  0  0  0
  151.7181  143.7146  159.0863 C   0  0  0  0  0  0  0  0  0  0  0  0
  150.8486  143.8190  157.9773 C   0  0  0  0  0  0  0  0  0  0  0  0
  150.6798  142.6834  157.1944 C   0  0  0  0  0  0  0  0  0  0  0  0
  149.9036  142.4671  156.0542 N   0  3  0  0  0  0  0  0  0  0  0  0
  150.0605  141.1815  155.6340 C   0  0  0  0  0  0  0  0  0  0  0  0
  150.9254  140.5719  156.4899 N   0  0  0  0  0  0  0  0  0  0  0  0
  151.4353  139.1925  156.4824 C   0  0  0  0  0  0  0  0  0  0  0  0
  152.0179  138.7751  155.1179 C   0  0  2  0  0  0  0  0  0  0  0  0
  152.9757  139.7281  154.6998 O   0  0  0  0  0  0  0  0  0  0  0  0
  150.9225  138.6752  154.0379 C   0  0  0  0  0  0  0  0  0  0  0  0
  150.0517  137.4858  154.2202 N   0  3  1  0  0  0  0  0  0  0  0  0
  150.7864  136.2876  154.7058 C   0  0  0  0  0  0  0  0  0  0  0  0
  149.8770  135.0491  154.7127 C   0  0  0  0  0  0  0  0  0  0  0  0
  148.6232  135.2922  155.5645 C   0  0  0  0  0  0  0  0  0  0  0  0
  147.8983  136.5753  155.1250 C   0  0  2  0  0  0  0  0  0  0  0  0
  147.2832  136.3894  153.8654 O   0  0  0  0  0  0  0  0  0  0  0  0
  148.8588  137.7791  155.0578 C   0  0  0  0  0  0  0  0  0  0  0  0
  151.3396  141.4720  157.4801 C   0  0  0  0  0  0  0  0  0  0  0  0
  152.1985  141.3521  158.5705 C   0  0  0  0  0  0  0  0  0  0  0  0
  152.3849  142.4967  159.3784 C   0  0  0  0  0  0  0  0  0  0  0  0
  153.3173  142.3949  160.5736 C   0  0  0  0  0  0  0  0  0  0  0  0
  151.3007  145.7712  159.6399 H   0  0  0  0  0  0  0  0  0  0  0  0
  152.9651  145.2648  159.9217 H   0  0  0  0  0  0  0  0  0  0  0  0
  151.6724  144.7161  160.9996 H   0  0  0  0  0  0  0  0  0  0  0  0
  150.3374  144.7430  157.7485 H   0  0  0  0  0  0  0  0  0  0  0  0
  149.5851  140.7290  154.7754 H   0  0  0  0  0  0  0  0  0  0  0  0
  152.2111  139.1360  157.2471 H   0  0  0  0  0  0  0  0  0  0  0  0
  150.6451  138.5129  156.8028 H   0  0  0  0  0  0  0  0  0  0  0  0
  152.5246  137.8181  155.2382 H   0  0  0  0  0  0  0  0  0  0  0  0
  152.5246  140.4388  154.2693 H   0  0  0  0  0  0  0  0  0  0  0  0
  150.3044  139.5743  154.0315 H   0  0  0  0  0  0  0  0  0  0  0  0
  151.4071  138.6363  153.0608 H   0  0  0  0  0  0  0  0  0  0  0  0
  151.6498  136.0870  154.0723 H   0  0  0  0  0  0  0  0  0  0  0  0
  151.1710  136.4762  155.7094 H   0  0  0  0  0  0  0  0  0  0  0  0
  149.5885  134.7999  153.6907 H   0  0  0  0  0  0  0  0  0  0  0  0
  150.4240  134.1874  155.0962 H   0  0  0  0  0  0  0  0  0  0  0  0
  147.9531  134.4333  155.5122 H   0  0  0  0  0  0  0  0  0  0  0  0
  148.9169  135.3884  156.6108 H   0  0  0  0  0  0  0  0  0  0  0  0
  147.1013  136.7959  155.8358 H   0  0  0  0  0  0  0  0  0  0  0  0
  147.9083  136.6043  153.1891 H   0  0  0  0  0  0  0  0  0  0  0  0
  149.1888  138.0445  156.0634 H   0  0  0  0  0  0  0  0  0  0  0  0
  148.3276  138.6468  154.6634 H   0  0  0  0  0  0  0  0  0  0  0  0
  152.7033  140.4255  158.7998 H   0  0  0  0  0  0  0  0  0  0  0  0
  153.7909  141.4142  160.6286 H   0  0  0  0  0  0  0  0  0  0  0  0
  152.7668  142.5520  161.5014 H   0  0  0  0  0  0  0  0  0  0  0  0
  154.1090  143.1419  160.5088 H   0  0  0  0  0  0  0  0  0  0  0  0
  149.6913  137.2603  153.3034 H   0  0  0  0  0  0  0  0  0  0  0  0
  149.3111  143.1466  155.5936 H   0  0  0  0  0  0  0  0  0  0  0  0
  1  2  1  0  0  0  0
  1 23  1  0  0  0  0
  1 24  1  0  0  0  0
  1 25  1  0  0  0  0
  2 21  1  0  0  0  0
  2  3  2  0  0  0  0
  3  4  1  0  0  0  0
  3 26  1  0  0  0  0
  4 19  2  0  0  0  0
  4  5  1  0  0  0  0
  5  6  2  0  0  0  0
  5 49  1  0  0  0  0
  6  7  1  0  0  0  0
  6 27  1  0  0  0  0
  7  8  1  0  0  0  0
  7 19  1  0  0  0  0
  8  9  1  0  0  0  0
  8 28  1  0  0  0  0
  8 29  1  0  0  0  0
  9 10  1  0  0  0  0
  9 11  1  0  0  0  0
  9 30  1  0  0  0  0
 10 31  1  0  0  0  0
 11 12  1  0  0  0  0
 11 32  1  0  0  0  0
 11 33  1  0  0  0  0
 12 18  1  0  0  0  0
 12 13  1  0  0  0  0
 12 48  1  0  0  0  0
 13 14  1  0  0  0  0
 13 34  1  0  0  0  0
 13 35  1  0  0  0  0
 14 15  1  0  0  0  0
 14 36  1  0  0  0  0
 14 37  1  0  0  0  0
 15 16  1  0  0  0  0
 15 38  1  0  0  0  0
 15 39  1  0  0  0  0
 16 17  1  0  0  0  0
 16 18  1  0  0  0  0
 16 40  1  0  0  0  0
 17 41  1  0  0  0  0
 18 42  1  0  0  0  0
 18 43  1  0  0  0  0
 19 20  1  0  0  0  0
 20 21  2  0  0  0  0
 20 44  1  0  0  0  0
 21 22  1  0  0  0  0
 22 45  1  0  0  0  0
 22 46  1  0  0  0  0
 22 47  1  0  0  0  0
M  CHG  1   5   1
M  CHG  1  12   1
M  END
> <s_m_source_file>
AV-unprocessed.smi

> <i_m_source_file_index>
1487

> <i_lp_mmshare_version>
43012

> <i_f3d_flags>
0

> <s_epik_input>
W0NIM11jKFtjSF0xKWMoW0NIM10pW2NIXWMoYzEyKW4oW2NIXW4yKVtDSDJdW0NASF0oW09IXSlbQ0gyXU4zW0NIMl1bQ0gyXVtDSDJdW0NAQEhdKFtPSF0pW0NIMl0z

> <s_epik_cmdline>
J2VwaWtfcHl0aG9uJywgJy1waCcsICc3LjAnLCAnLXRuJywgJzgnLCAnLW1hJywgJzIwMCcsICctbWV0YWxfYmluZGluZycsICctaW1hZScsICc8aW5maWxlLm1hZT4nLCAnLW9tYWUnLCAnPG91dGZpbGUubWFlPic=

> <r_epik_Ionization_Penalty>
1.1857

> <r_epik_Ionization_Penalty_Charging>
1.1857

> <r_epik_Ionization_Penalty_Neutral>
1.75578e-06

> <r_epik_State_Penalty>
1.26953

> <r_epik_Charging_Adjusted_Penalty>
2.45524

> <i_epik_Tot_Q>
2

> <i_epik_Tot_abs_Q>
2

> <r_epik_Metal_State_Penalty>
5.28243

> <b_epik_Metal_Only>
0

> <s_lp_Force_Field>
OPLS_2005

> <r_lp_Energy>
30.6325

> <b_lp_Chiralities_Consistent>
1

> <s_lp_Variant>
AV-unprocessed.smi:1487-13

> <Gold.Version>
5.8.1

> <Gold.Id.Protein>
6NUR|6NUR_protein|mol2

> <Gold.PLP.Fitness>
63.6022

> <Gold.PLP.PLP>
-46.7147

> <Gold.PLP.part.hbond>
-5.1004

> <Gold.PLP.part.metal>
0.0000

> <Gold.PLP.part.buried>
-5.5314

> <Gold.PLP.part.nonpolar>
-36.7009

> <Gold.PLP.part.repulsive>
0.1652

> <Gold.PLP.ligand.clash>
0.0000

> <Gold.PLP.ligand.torsion>
0.5000

> <Gold.PLP.Chemscore.Hbond>
5.9520

> <Gold.PLP.Chemscore.CHOScore>
0.0000

> <Gold.PLP.Chemscore.Metal>
0.0000

> <Gold.Chemscore.Hbonds>
donor molecule, donor type, donor heavy atom, donor atom, acceptor molecule, acceptor atom, score
      L1  H     5    49       P1  8028  1.70
      L1  H    12    48       P1  7948  2.00
      L1  H    17    41       P1  7948  1.00
      P1  H  7997  8010       L1    10  1.00

> <Gold.PLP.Chemscore.Internal.Correction>
0.0315

> <Gold.Rescore>
     Score         DG    S(hbond)    S(metal)    S(lipo)     H(rot)  DE(clash)    DE(int)     intcor
     23.47     -24.05       3.59        0.00     116.17       2.74       0.10       0.48       ----

> <Gold.Chemscore.Fitness>
23.4695

> <Gold.Chemscore.DG>
-24.0526

> <Gold.Chemscore.ZeroCoef>
-5.4800

> <Gold.Chemscore.Hbond>
3.5902

> <Gold.Chemscore.Metal>
0.0000

> <Gold.Chemscore.Lipo>
116.1679

> <Gold.Chemscore.Internal_Hbond>
0.0000

> <Gold.Chemscore.DEClash>
0.0998

> <Gold.Chemscore.DEInternal>
0.4833

> <Gold.Chemscore.Rot>
2.7384

> <Gold.Chemscore.Internal.Correction>
   9.000000E+99

> <Gold.Chemscore.Hbonds>
donor molecule, donor type, donor heavy atom, donor atom, acceptor molecule, acceptor atom, score
      L1  H     5    49       P1  8028  0.83
      L1  H    12    48       P1  7948  0.65
      L1  H    17    41       P1  7948  0.98
      P1  H  7997  8010       L1    10  0.78

> <Gold.Chemscore.Hbond.Weighted>
-11.9913

> <Gold.Chemscore.Metal.Weighted>
-0.0000

> <Gold.Chemscore.Lipo.Weighted>
-13.5916

> <Gold.Chemscore.Internal_Hbond.Weighted>
0.0000

> <Gold.Chemscore.DEClash.Weighted>
0.0998

> <Gold.Chemscore.DEInternal.Weighted>
0.4833

> <Gold.Chemscore.Rot.Weighted>
7.0103

> <Gold.Chemscore.Internal.Correction.Weighted>
   9.000000E+99

> <Gold.Protein.RotatedTorsions>
[ 6907 6896 6895 6894 ] final   59.12 input  -60.11 | X-H torsion
[ 7974 7965 7964 7962 ] final  -66.74 input  175.53 | X-H torsion
[ 8008 7997 7996 7995 ] final   90.34 input   59.86 | X-H torsion
[ 10167 10162 10161 10158 ] final   29.50 input  -65.29 | X-H torsion
[ 10718 10713 10712 10709 ] final  128.76 input   66.30 | X-H torsion
[ 10763 10752 10751 10750 ] final   -0.62 input  -60.55 | X-H torsion
[ 11005 11000 10999 10996 ] final   -8.88 input  -57.11 | X-H torsion

> <Gold.Protein.ActiveResidues>
 VAL166  LYS551  ARG553  GLY616  TRP617  ASP618  TYR619  PRO620  LYS621  CYS622 
 ASP623  PHE694  ASN695  SER759  ASP760  ASP761  ALA762  ILE779  LEU786  VAL792 
 PHE793  MET794  SER795  GLU796  ALA797  LYS798  CYS799  TRP800  GLU811  SER814 

> <Gold.Protein.RotatedAtoms>
  152.3886  134.6477  160.0115 H   0  0  0  0  0  0  0  0  0  0  0  0  # atno 6907 bound_to 6896
  151.6718  133.3308  159.3206 H   0  0  0  0  0  0  0  0  0  0  0  0  # atno 6908 bound_to 6896
  150.7807  134.6792  159.6479 H   0  0  0  0  0  0  0  0  0  0  0  0  # atno 6909 bound_to 6896
  145.7379  140.8967  143.0545 H   0  0  0  0  0  0  0  0  0  0  0  0  # atno 7974 bound_to 7965
  156.0108  140.3350  155.6938 H   0  0  0  0  0  0  0  0  0  0  0  0  # atno 8008 bound_to 7997
  155.6161  140.0670  157.2710 H   0  0  0  0  0  0  0  0  0  0  0  0  # atno 8009 bound_to 7997
  154.4280  140.1785  156.1310 H   0  0  0  0  0  0  0  0  0  0  0  0  # atno 8010 bound_to 7997
  140.4760  144.0689  150.6251 H   0  0  0  0  0  0  0  0  0  0  0  0  # atno 10167 bound_to 10162
  157.5216  131.1098  150.9145 H   0  0  0  0  0  0  0  0  0  0  0  0  # atno 10718 bound_to 10713
  153.3342  135.6977  153.6922 H   0  0  0  0  0  0  0  0  0  0  0  0  # atno 10763 bound_to 10752
  153.5712  135.3516  155.2839 H   0  0  0  0  0  0  0  0  0  0  0  0  # atno 10764 bound_to 10752
  154.8624  135.4272  154.2539 H   0  0  0  0  0  0  0  0  0  0  0  0  # atno 10765 bound_to 10752
  140.7282  133.8771  155.8872 H   0  0  0  0  0  0  0  0  0  0  0  0  # atno 11005 bound_to 11000
  144.6877  139.9421  143.7475 LP  0  0  0  0  0  0  0  0  0  0  0  0  # atno 17320 bound_to 7965
  146.0475  139.3480  143.0659 LP  0  0  0  0  0  0  0  0  0  0  0  0  # atno 17321 bound_to 7965
  140.3918  143.2749  152.0052 LP  0  0  0  0  0  0  0  0  0  0  0  0  # atno 17342 bound_to 10162
  139.4825  144.6071  151.7501 LP  0  0  0  0  0  0  0  0  0  0  0  0  # atno 17343 bound_to 10162
  156.9754  130.5507  149.5293 LP  0  0  0  0  0  0  0  0  0  0  0  0  # atno 17370 bound_to 10713
  156.0357  130.5445  150.8648 LP  0  0  0  0  0  0  0  0  0  0  0  0  # atno 17371 bound_to 10713
  140.9944  134.1235  157.4378 LP  0  0  0  0  0  0  0  0  0  0  0  0  # atno 17394 bound_to 11000
  139.8832  135.0050  156.6285 LP  0  0  0  0  0  0  0  0  0  0  0  0  # atno 17395 bound_to 11000

$$$$
