AV-unprocessed.smi:439|AV-procd|sdf|2579|dock7
  -GOLD-   2262022563D 1   1.00000     0.00000
 Structure written by MMmdl.
 46 47  0  0  0  0  0  0  0  0  1 V2000
  150.7663  145.3351  159.8215 C   0  0  0  0  0  0  0  0  0  0  0  0
  152.1790  145.1584  159.2493 C   0  0  0  0  0  0  0  0  0  0  0  0
  152.3098  143.9699  158.2839 C   0  0  0  0  0  0  0  0  0  0  0  0
  151.9271  142.6205  158.9187 C   0  0  0  0  0  0  0  0  0  0  0  0
  151.2985  141.7199  157.9728 N   0  0  0  0  0  0  0  0  0  0  0  0
  150.0710  141.9806  157.3557 C   0  0  0  0  0  0  0  0  0  0  0  0
  149.4246  143.1640  157.6757 N   0  0  0  0  0  0  0  0  0  0  0  0
  149.5222  141.1149  156.4511 C   0  0  0  0  0  0  0  0  0  0  0  0
  148.2707  141.3619  155.8434 N   0  0  0  0  0  0  0  0  0  0  0  0
  148.3166  141.7558  154.4229 C   0  0  0  0  0  0  0  0  0  0  0  0
  147.4374  140.8792  153.5121 C   0  0  0  0  0  0  0  0  0  0  0  0
  147.0959  141.4433  156.5382 C   0  0  0  0  0  0  0  0  0  0  0  0
  146.9969  140.9782  157.6758 O   0  0  0  0  0  0  0  0  0  0  0  0
  145.9799  142.1325  155.8817 C   0  0  0  0  0  0  0  0  0  0  0  0
  144.7437  141.5881  155.9596 C   0  0  0  0  0  0  0  0  0  0  0  0
  143.6168  142.1691  155.4340 O   0  0  0  0  0  0  0  0  0  0  0  0
  143.7826  143.5179  155.0140 C   0  0  0  0  0  0  0  0  0  0  0  0
  145.1408  143.7014  154.3234 C   0  0  0  0  0  0  0  0  0  0  0  0
  146.1882  143.3124  155.2029 O   0  0  0  0  0  0  0  0  0  0  0  0
  150.1953  139.8457  156.1340 C   0  0  0  0  0  0  0  0  0  0  0  0
  149.7819  138.9869  155.3559 O   0  0  0  0  0  0  0  0  0  0  0  0
  151.3978  139.6349  156.8028 N   0  0  0  0  0  0  0  0  0  0  0  0
  151.9807  140.5073  157.7141 C   0  0  0  0  0  0  0  0  0  0  0  0
  153.0432  140.1951  158.2526 O   0  0  0  0  0  0  0  0  0  0  0  0
  151.8841  138.7699  156.6160 H   0  0  0  0  0  0  0  0  0  0  0  0
  150.7423  146.1509  160.5444 H   0  0  0  0  0  0  0  0  0  0  0  0
  150.4315  144.4311  160.3306 H   0  0  0  0  0  0  0  0  0  0  0  0
  150.0427  145.5699  159.0412 H   0  0  0  0  0  0  0  0  0  0  0  0
  152.4931  146.0760  158.7509 H   0  0  0  0  0  0  0  0  0  0  0  0
  152.8720  145.0122  160.0785 H   0  0  0  0  0  0  0  0  0  0  0  0
  151.6674  144.1525  157.4217 H   0  0  0  0  0  0  0  0  0  0  0  0
  153.3281  143.9245  157.8964 H   0  0  0  0  0  0  0  0  0  0  0  0
  152.7944  142.0972  159.3182 H   0  0  0  0  0  0  0  0  0  0  0  0
  151.2587  142.7432  159.7726 H   0  0  0  0  0  0  0  0  0  0  0  0
  149.8180  143.8236  158.3317 H   0  0  0  0  0  0  0  0  0  0  0  0
  148.5289  143.4073  157.2776 H   0  0  0  0  0  0  0  0  0  0  0  0
  148.0198  142.8014  154.3259 H   0  0  0  0  0  0  0  0  0  0  0  0
  149.3444  141.7142  154.0583 H   0  0  0  0  0  0  0  0  0  0  0  0
  147.5338  141.1954  152.4733 H   0  0  0  0  0  0  0  0  0  0  0  0
  146.3816  140.9478  153.7736 H   0  0  0  0  0  0  0  0  0  0  0  0
  147.7237  139.8298  153.5594 H   0  0  0  0  0  0  0  0  0  0  0  0
  144.5104  140.6634  156.4681 H   0  0  0  0  0  0  0  0  0  0  0  0
  142.9708  143.7832  154.3369 H   0  0  0  0  0  0  0  0  0  0  0  0
  143.7060  144.1747  155.8816 H   0  0  0  0  0  0  0  0  0  0  0  0
  145.1942  143.1025  153.4129 H   0  0  0  0  0  0  0  0  0  0  0  0
  145.2861  144.7421  154.0333 H   0  0  0  0  0  0  0  0  0  0  0  0
  1  2  1  0  0  0  0
  1 26  1  0  0  0  0
  1 27  1  0  0  0  0
  1 28  1  0  0  0  0
  2  3  1  0  0  0  0
  2 29  1  0  0  0  0
  2 30  1  0  0  0  0
  3  4  1  0  0  0  0
  3 31  1  0  0  0  0
  3 32  1  0  0  0  0
  4  5  1  0  0  0  0
  4 33  1  0  0  0  0
  4 34  1  0  0  0  0
  5 23  1  0  0  0  0
  5  6  1  0  0  0  0
  6  7  1  0  0  0  0
  6  8  2  0  0  0  0
  7 35  1  0  0  0  0
  7 36  1  0  0  0  0
  8  9  1  0  0  0  0
  8 20  1  0  0  0  0
  9 10  1  0  0  0  0
  9 12  1  0  0  0  0
 10 11  1  0  0  0  0
 10 37  1  0  0  0  0
 10 38  1  0  0  0  0
 11 39  1  0  0  0  0
 11 40  1  0  0  0  0
 11 41  1  0  0  0  0
 12 13  2  0  0  0  0
 12 14  1  0  0  0  0
 14 19  1  0  0  0  0
 14 15  2  0  0  0  0
 15 16  1  0  0  0  0
 15 42  1  0  0  0  0
 16 17  1  0  0  0  0
 17 18  1  0  0  0  0
 17 43  1  0  0  0  0
 17 44  1  0  0  0  0
 18 19  1  0  0  0  0
 18 45  1  0  0  0  0
 18 46  1  0  0  0  0
 20 21  2  0  0  0  0
 20 22  1  0  0  0  0
 22 25  1  0  0  0  0
 22 23  1  0  0  0  0
 23 24  2  0  0  0  0
M  END
> <s_m_source_file>
AV-unprocessed.smi

> <i_m_source_file_index>
439

> <i_lp_mmshare_version>
43012

> <i_f3d_flags>
0

> <s_epik_input>
W0NIM11bQ0gyXVtDSDJdW0NIMl1uMWMoW05IMl0pYyhjKD1PKVtuSF1jMT1PKU4oW0NIMl1bQ0gzXSlDKD1PKUMyPVtDSF1PW0NIMl1bQ0gyXU8y

> <s_epik_cmdline>
J2VwaWtfcHl0aG9uJywgJy1waCcsICc3LjAnLCAnLXRuJywgJzgnLCAnLW1hJywgJzIwMCcsICctbWV0YWxfYmluZGluZycsICctaW1hZScsICc8aW5maWxlLm1hZT4nLCAnLW9tYWUnLCAnPG91dGZpbGUubWFlPic=

> <r_lp_tautomer_probability>
1

> <r_epik_Ionization_Penalty>
3.16361e-05

> <r_epik_Ionization_Penalty_Charging>
2.29435e-05

> <r_epik_Ionization_Penalty_Neutral>
8.69256e-06

> <r_epik_State_Penalty>
-0

> <r_epik_Charging_Adjusted_Penalty>
2.29435e-05

> <i_epik_Tot_Q>
0

> <i_epik_Tot_abs_Q>
0

> <r_epik_Metal_State_Penalty>
0.0222995

> <b_epik_Metal_Only>
0

> <s_epik_Chemistry_Notes>
This compound has an imine and may undergo hydrolysis.

> <s_lp_Force_Field>
OPLS_2005

> <r_lp_Energy>
28.4658

> <b_lp_Chiralities_Consistent>
1

> <s_lp_Variant>
AV-unprocessed.smi:439-1

> <Gold.Version>
5.8.1

> <Gold.Id.Protein>
6NUR|6NUR_protein|mol2

> <Gold.PLP.Fitness>
39.8405

> <Gold.PLP.PLP>
-38.0614

> <Gold.PLP.part.hbond>
-2.2498

> <Gold.PLP.part.metal>
0.0000

> <Gold.PLP.part.buried>
-5.0378

> <Gold.PLP.part.nonpolar>
-31.9127

> <Gold.PLP.part.repulsive>
0.8600

> <Gold.PLP.ligand.clash>
0.0066

> <Gold.PLP.ligand.torsion>
2.3894

> <Gold.PLP.Chemscore.Hbond>
1.0694

> <Gold.PLP.Chemscore.CHOScore>
0.0000

> <Gold.PLP.Chemscore.Metal>
0.0000

> <Gold.Chemscore.Hbonds>
donor molecule, donor type, donor heavy atom, donor atom, acceptor molecule, acceptor atom, score
      L1  H     7    36       P1  8028  0.11
      P1  H  7997  8009       L1    24  0.98

> <Gold.PLP.Chemscore.Internal.Correction>
3.3566

> <Gold.Rescore>
     Score         DG    S(hbond)    S(metal)    S(lipo)     H(rot)  DE(clash)    DE(int)     intcor
      9.98     -13.98       0.99        0.00      80.64       1.66       0.02       3.98       ----

> <Gold.Chemscore.Fitness>
9.9805

> <Gold.Chemscore.DG>
-13.9778

> <Gold.Chemscore.ZeroCoef>
-5.4800

> <Gold.Chemscore.Hbond>
0.9887

> <Gold.Chemscore.Metal>
0.0000

> <Gold.Chemscore.Lipo>
80.6432

> <Gold.Chemscore.Internal_Hbond>
0.0000

> <Gold.Chemscore.DEClash>
0.0212

> <Gold.Chemscore.DEInternal>
3.9761

> <Gold.Chemscore.Rot>
1.6562

> <Gold.Chemscore.Internal.Correction>
   9.000000E+99

> <Gold.Chemscore.Hbonds>
donor molecule, donor type, donor heavy atom, donor atom, acceptor molecule, acceptor atom, score
      L1  H     7    36       P1  8028  0.02
      P1  H  7997  8009       L1    24  0.81

> <Gold.Chemscore.Hbond.Weighted>
-3.3024

> <Gold.Chemscore.Metal.Weighted>
-0.0000

> <Gold.Chemscore.Lipo.Weighted>
-9.4353

> <Gold.Chemscore.Internal_Hbond.Weighted>
0.0000

> <Gold.Chemscore.DEClash.Weighted>
0.0212

> <Gold.Chemscore.DEInternal.Weighted>
3.9761

> <Gold.Chemscore.Rot.Weighted>
4.2398

> <Gold.Chemscore.Internal.Correction.Weighted>
   9.000000E+99

> <Gold.Protein.RotatedTorsions>
[ 6907 6896 6895 6894 ] final  -55.36 input  -60.11 | X-H torsion
[ 7974 7965 7964 7962 ] final   29.20 input  175.53 | X-H torsion
[ 8008 7997 7996 7995 ] final  157.34 input   59.86 | X-H torsion
[ 10167 10162 10161 10158 ] final  166.35 input  -65.29 | X-H torsion
[ 10718 10713 10712 10709 ] final   93.18 input   66.30 | X-H torsion
[ 10763 10752 10751 10750 ] final  106.76 input  -60.55 | X-H torsion
[ 11005 11000 10999 10996 ] final  133.17 input  -57.11 | X-H torsion

> <Gold.Protein.ActiveResidues>
 VAL166  LYS551  ARG553  GLY616  TRP617  ASP618  TYR619  PRO620  LYS621  CYS622 
 ASP623  PHE694  ASN695  SER759  ASP760  ASP761  ALA762  ILE779  LEU786  VAL792 
 PHE793  MET794  SER795  GLU796  ALA797  LYS798  CYS799  TRP800  GLU811  SER814 

> <Gold.Protein.RotatedAtoms>
  150.8258  134.7488  159.6811 H   0  0  0  0  0  0  0  0  0  0  0  0  # atno 6907 bound_to 6896
  152.4369  134.5665  159.9919 H   0  0  0  0  0  0  0  0  0  0  0  0  # atno 6908 bound_to 6896
  151.5838  133.3337  159.3049 H   0  0  0  0  0  0  0  0  0  0  0  0  # atno 6909 bound_to 6896
  146.1685  139.6953  142.8984 H   0  0  0  0  0  0  0  0  0  0  0  0  # atno 7974 bound_to 7965
  156.2370  140.1888  156.7093 H   0  0  0  0  0  0  0  0  0  0  0  0  # atno 8008 bound_to 7997
  154.6124  140.0620  156.9538 H   0  0  0  0  0  0  0  0  0  0  0  0  # atno 8009 bound_to 7997
  155.1994  140.3291  155.4348 H   0  0  0  0  0  0  0  0  0  0  0  0  # atno 8010 bound_to 7997
  139.4923  144.4036  151.9381 H   0  0  0  0  0  0  0  0  0  0  0  0  # atno 10167 bound_to 10162
  157.6956  131.0469  150.3995 H   0  0  0  0  0  0  0  0  0  0  0  0  # atno 10718 bound_to 10713
  153.3974  135.3866  155.1964 H   0  0  0  0  0  0  0  0  0  0  0  0  # atno 10763 bound_to 10752
  154.8726  135.3763  154.4661 H   0  0  0  0  0  0  0  0  0  0  0  0  # atno 10764 bound_to 10752
  153.5154  135.7087  153.5820 H   0  0  0  0  0  0  0  0  0  0  0  0  # atno 10765 bound_to 10752
  139.9835  134.9540  156.9687 H   0  0  0  0  0  0  0  0  0  0  0  0  # atno 11005 bound_to 11000
  145.4404  141.0422  143.2861 LP  0  0  0  0  0  0  0  0  0  0  0  0  # atno 17320 bound_to 7965
  144.8128  139.5932  143.7022 LP  0  0  0  0  0  0  0  0  0  0  0  0  # atno 17321 bound_to 7965
  140.3476  144.3128  150.5955 LP  0  0  0  0  0  0  0  0  0  0  0  0  # atno 17342 bound_to 10162
  140.5513  143.2206  151.7923 LP  0  0  0  0  0  0  0  0  0  0  0  0  # atno 17343 bound_to 10162
  156.4390  130.3987  149.6710 LP  0  0  0  0  0  0  0  0  0  0  0  0  # atno 17370 bound_to 10713
  156.3900  130.7622  151.2622 LP  0  0  0  0  0  0  0  0  0  0  0  0  # atno 17371 bound_to 10713
  140.5049  134.1060  155.7258 LP  0  0  0  0  0  0  0  0  0  0  0  0  # atno 17394 bound_to 11000
  141.1504  133.8979  157.2112 LP  0  0  0  0  0  0  0  0  0  0  0  0  # atno 17395 bound_to 11000

$$$$
