AV-unprocessed.smi:1076|AV-procd|sdf|4697|dock1
  -GOLD-   22720 3213D 1   1.00000     0.00000
 Structure written by MMmdl.
 45 46  0  0  0  0  0  0  0  0  2 V2000
  151.9875  145.7245  160.1871 C   0  0  0  0  0  0  0  0  0  0  0  0
  151.8476  144.4640  159.3844 C   0  0  0  0  0  0  0  0  0  0  0  0
  152.2644  143.1510  159.7425 C   0  0  0  0  0  0  0  0  0  0  0  0
  152.0101  142.2569  158.8013 N   0  0  0  0  0  0  0  0  0  0  0  0
  151.4170  142.9637  157.8151 N   0  0  0  0  0  0  0  0  0  0  0  0
  151.0246  142.2964  156.5845 C   0  0  0  0  0  0  0  0  0  0  0  0
  149.7136  141.5050  156.7569 C   0  0  2  0  0  0  0  0  0  0  0  0
  149.3199  140.7699  155.4675 C   0  0  0  0  0  0  0  0  0  0  0  0
  148.6341  142.4170  157.1935 N   0  3  0  0  0  0  0  0  0  0  0  0
  147.2772  141.8311  157.2543 C   0  0  0  0  0  0  0  0  0  0  0  0
  146.2968  142.7864  157.9646 C   0  0  0  0  0  0  0  0  0  0  0  0
  146.4827  142.8461  159.4953 C   0  0  0  0  0  0  0  0  0  0  0  0
  147.5777  143.1855  159.9475 O   0  0  0  0  0  0  0  0  0  0  0  0
  145.4364  142.5501  160.3017 N   0  0  0  0  0  0  0  0  0  0  0  0
  145.4548  142.7731  161.7497 C   0  0  0  0  0  0  0  0  0  0  0  0
  144.4313  143.8770  162.0738 C   0  0  0  0  0  0  0  0  0  0  0  0
  143.1401  143.4897  161.6075 O   0  0  0  0  0  0  0  0  0  0  0  0
  143.1018  143.2233  160.2069 C   0  0  0  0  0  0  0  0  0  0  0  0
  144.1078  142.1088  159.8696 C   0  0  0  0  0  0  0  0  0  0  0  0
  151.3035  144.2981  158.1423 C   0  0  0  0  0  0  0  0  0  0  0  0
  152.1240  145.5155  161.2484 H   0  0  0  0  0  0  0  0  0  0  0  0
  151.1076  146.3615  160.0966 H   0  0  0  0  0  0  0  0  0  0  0  0
  152.8462  146.3122  159.8623 H   0  0  0  0  0  0  0  0  0  0  0  0
  152.7487  142.8252  160.6512 H   0  0  0  0  0  0  0  0  0  0  0  0
  150.9265  143.0401  155.7917 H   0  0  0  0  0  0  0  0  0  0  0  0
  151.8336  141.6278  156.2882 H   0  0  0  0  0  0  0  0  0  0  0  0
  149.8828  140.7651  157.5408 H   0  0  0  0  0  0  0  0  0  0  0  0
  150.1122  140.0932  155.1464 H   0  0  0  0  0  0  0  0  0  0  0  0
  149.1313  141.4701  154.6528 H   0  0  0  0  0  0  0  0  0  0  0  0
  148.4189  140.1725  155.6096 H   0  0  0  0  0  0  0  0  0  0  0  0
  148.8683  142.6883  158.1389 H   0  0  0  0  0  0  0  0  0  0  0  0
  146.9376  141.6236  156.2395 H   0  0  0  0  0  0  0  0  0  0  0  0
  147.2936  140.8734  157.7769 H   0  0  0  0  0  0  0  0  0  0  0  0
  146.4259  143.7827  157.5405 H   0  0  0  0  0  0  0  0  0  0  0  0
  145.2718  142.4784  157.7553 H   0  0  0  0  0  0  0  0  0  0  0  0
  145.1911  141.8488  162.2659 H   0  0  0  0  0  0  0  0  0  0  0  0
  146.4370  143.0614  162.1265 H   0  0  0  0  0  0  0  0  0  0  0  0
  144.3836  144.0456  163.1496 H   0  0  0  0  0  0  0  0  0  0  0  0
  144.7221  144.8228  161.6141 H   0  0  0  0  0  0  0  0  0  0  0  0
  142.0920  142.9178  159.9330 H   0  0  0  0  0  0  0  0  0  0  0  0
  143.3256  144.1327  159.6467 H   0  0  0  0  0  0  0  0  0  0  0  0
  144.0509  141.8514  158.8132 H   0  0  0  0  0  0  0  0  0  0  0  0
  143.8425  141.1961  160.4053 H   0  0  0  0  0  0  0  0  0  0  0  0
  150.8600  145.0143  157.4662 H   0  0  0  0  0  0  0  0  0  0  0  0
  148.6295  143.2483  156.6202 H   0  0  0  0  0  0  0  0  0  0  0  0
  1  2  1  0  0  0  0
  1 21  1  0  0  0  0
  1 22  1  0  0  0  0
  1 23  1  0  0  0  0
  2 20  2  0  0  0  0
  2  3  1  0  0  0  0
  3  4  2  0  0  0  0
  3 24  1  0  0  0  0
  4  5  1  0  0  0  0
  5  6  1  0  0  0  0
  5 20  1  0  0  0  0
  6  7  1  0  0  0  0
  6 25  1  0  0  0  0
  6 26  1  0  0  0  0
  7  8  1  0  0  0  0
  7  9  1  0  0  0  0
  7 27  1  0  0  0  0
  8 28  1  0  0  0  0
  8 29  1  0  0  0  0
  8 30  1  0  0  0  0
  9 10  1  0  0  0  0
  9 31  1  0  0  0  0
  9 45  1  0  0  0  0
 10 11  1  0  0  0  0
 10 32  1  0  0  0  0
 10 33  1  0  0  0  0
 11 12  1  0  0  0  0
 11 34  1  0  0  0  0
 11 35  1  0  0  0  0
 12 13  2  0  0  0  0
 12 14  1  0  0  0  0
 14 19  1  0  0  0  0
 14 15  1  0  0  0  0
 15 16  1  0  0  0  0
 15 36  1  0  0  0  0
 15 37  1  0  0  0  0
 16 17  1  0  0  0  0
 16 38  1  0  0  0  0
 16 39  1  0  0  0  0
 17 18  1  0  0  0  0
 18 19  1  0  0  0  0
 18 40  1  0  0  0  0
 18 41  1  0  0  0  0
 19 42  1  0  0  0  0
 19 43  1  0  0  0  0
 20 44  1  0  0  0  0
M  CHG  1   9   1
M  END
> <s_m_source_file>
AV-unprocessed.smi

> <i_m_source_file_index>
1076

> <i_lp_mmshare_version>
43012

> <i_f3d_flags>
0

> <s_epik_input>
W0NIM11jMVtjSF1ubihbY0hdMSlbQ0gyXVtDQEhdKFtDSDNdKVtOSF1bQ0gyXVtDSDJdQyg9TylOMltDSDJdW0NIMl1PW0NIMl1bQ0gyXTI=

> <s_epik_cmdline>
J2VwaWtfcHl0aG9uJywgJy1waCcsICc3LjAnLCAnLXRuJywgJzgnLCAnLW1hJywgJzIwMCcsICctbWV0YWxfYmluZGluZycsICctaW1hZScsICc8aW5maWxlLm1hZT4nLCAnLW9tYWUnLCAnPG91dGZpbGUubWFlPic=

> <r_lp_tautomer_probability>
1

> <r_epik_Ionization_Penalty>
0.00797518

> <r_epik_Ionization_Penalty_Charging>
0.0079672

> <r_epik_Ionization_Penalty_Neutral>
7.97619e-06

> <r_epik_State_Penalty>
0.00597998

> <r_epik_Charging_Adjusted_Penalty>
0.0139472

> <i_epik_Tot_Q>
1

> <i_epik_Tot_abs_Q>
1

> <r_epik_Metal_State_Penalty>
0.00598062

> <b_epik_Metal_Only>
0

> <s_lp_Force_Field>
OPLS_2005

> <r_lp_Energy>
21.8291

> <b_lp_Chiralities_Consistent>
1

> <s_lp_Variant>
AV-unprocessed.smi:1076-1

> <Gold.Version>
5.8.1

> <Gold.Id.Protein>
6NUR|6NUR_protein|mol2

> <Gold.PLP.Fitness>
50.2016

> <Gold.PLP.PLP>
-38.7706

> <Gold.PLP.part.hbond>
-2.0000

> <Gold.PLP.part.metal>
0.0000

> <Gold.PLP.part.buried>
-5.3007

> <Gold.PLP.part.nonpolar>
-31.8441

> <Gold.PLP.part.repulsive>
0.1665

> <Gold.PLP.ligand.clash>
0.0000

> <Gold.PLP.ligand.torsion>
0.3792

> <Gold.PLP.Chemscore.Hbond>
2.9760

> <Gold.PLP.Chemscore.CHOScore>
0.9958

> <Gold.PLP.Chemscore.Metal>
0.0000

> <Gold.Chemscore.Hbonds>
donor molecule, donor type, donor heavy atom, donor atom, acceptor molecule, acceptor atom, score
      L1  H     9    45       P1  8028  2.00
      P1  H  6933  6944       L1    13  0.94
      L1  C    20    44       P1  8028  0.72

> <Gold.PLP.Chemscore.Internal.Correction>
0.2739

> <Gold.Rescore>
     Score         DG    S(hbond)    S(metal)    S(lipo)     H(rot)  DE(clash)    DE(int)     intcor
     16.18     -16.61       1.78        0.00      87.63       1.98       0.05       0.38       ----

> <Gold.Chemscore.Fitness>
16.1840

> <Gold.Chemscore.DG>
-16.6088

> <Gold.Chemscore.ZeroCoef>
-5.4800

> <Gold.Chemscore.Hbond>
1.7827

> <Gold.Chemscore.Metal>
0.0000

> <Gold.Chemscore.Lipo>
87.6311

> <Gold.Chemscore.Internal_Hbond>
0.0000

> <Gold.Chemscore.DEClash>
0.0456

> <Gold.Chemscore.DEInternal>
0.3793

> <Gold.Chemscore.Rot>
1.9837

> <Gold.Chemscore.Internal.Correction>
   9.000000E+99

> <Gold.Chemscore.Hbonds>
donor molecule, donor type, donor heavy atom, donor atom, acceptor molecule, acceptor atom, score
      L1  H     9    45       P1  8028  0.74
      P1  H  6933  6944       L1    13  0.90

> <Gold.Chemscore.Hbond.Weighted>
-5.9542

> <Gold.Chemscore.Metal.Weighted>
-0.0000

> <Gold.Chemscore.Lipo.Weighted>
-10.2528

> <Gold.Chemscore.Internal_Hbond.Weighted>
0.0000

> <Gold.Chemscore.DEClash.Weighted>
0.0456

> <Gold.Chemscore.DEInternal.Weighted>
0.3793

> <Gold.Chemscore.Rot.Weighted>
5.0782

> <Gold.Chemscore.Internal.Correction.Weighted>
   9.000000E+99

> <Gold.Protein.RotatedTorsions>
[ 6907 6896 6895 6894 ] final  -45.62 input  -60.11 | X-H torsion
[ 7974 7965 7964 7962 ] final   67.57 input  175.53 | X-H torsion
[ 8008 7997 7996 7995 ] final   29.93 input   59.86 | X-H torsion
[ 10167 10162 10161 10158 ] final  136.35 input  -65.29 | X-H torsion
[ 10718 10713 10712 10709 ] final -108.35 input   66.30 | X-H torsion
[ 10763 10752 10751 10750 ] final -132.12 input  -60.55 | X-H torsion
[ 11005 11000 10999 10996 ] final -164.82 input  -57.11 | X-H torsion

> <Gold.Protein.ActiveResidues>
 VAL166  LYS551  ARG553  GLY616  TRP617  ASP618  TYR619  PRO620  LYS621  CYS622 
 ASP623  PHE694  ASN695  SER759  ASP760  ASP761  ALA762  ILE779  LEU786  VAL792 
 PHE793  MET794  SER795  GLU796  ALA797  LYS798  CYS799  TRP800  GLU811  SER814 

> <Gold.Protein.RotatedAtoms>
  150.9200  134.8618  159.7482 H   0  0  0  0  0  0  0  0  0  0  0  0  # atno 6907 bound_to 6896
  152.4988  134.4232  159.9497 H   0  0  0  0  0  0  0  0  0  0  0  0  # atno 6908 bound_to 6896
  151.4267  133.3642  159.2798 H   0  0  0  0  0  0  0  0  0  0  0  0  # atno 6909 bound_to 6896
  145.8131  139.3043  143.1087 H   0  0  0  0  0  0  0  0  0  0  0  0  # atno 7974 bound_to 7965
  155.0823  140.3211  155.4598 H   0  0  0  0  0  0  0  0  0  0  0  0  # atno 8008 bound_to 7997
  156.2764  140.2092  156.5896 H   0  0  0  0  0  0  0  0  0  0  0  0  # atno 8009 bound_to 7997
  154.6969  140.0511  157.0406 H   0  0  0  0  0  0  0  0  0  0  0  0  # atno 8010 bound_to 7997
  139.5183  144.6469  151.5414 H   0  0  0  0  0  0  0  0  0  0  0  0  # atno 10167 bound_to 10162
  156.0481  130.5709  150.7949 H   0  0  0  0  0  0  0  0  0  0  0  0  # atno 10718 bound_to 10713
  154.8746  135.3808  154.4358 H   0  0  0  0  0  0  0  0  0  0  0  0  # atno 10763 bound_to 10752
  153.5047  135.7030  153.5818 H   0  0  0  0  0  0  0  0  0  0  0  0  # atno 10764 bound_to 10752
  153.4133  135.3919  155.2031 H   0  0  0  0  0  0  0  0  0  0  0  0  # atno 10765 bound_to 10752
  140.5826  134.5126  157.5181 H   0  0  0  0  0  0  0  0  0  0  0  0  # atno 11005 bound_to 11000
  145.9756  140.8725  143.0140 LP  0  0  0  0  0  0  0  0  0  0  0  0  # atno 17320 bound_to 7965
  144.6755  140.2007  143.7387 LP  0  0  0  0  0  0  0  0  0  0  0  0  # atno 17321 bound_to 7965
  140.6257  143.9173  150.6563 LP  0  0  0  0  0  0  0  0  0  0  0  0  # atno 17342 bound_to 10162
  140.2461  143.3628  152.1446 LP  0  0  0  0  0  0  0  0  0  0  0  0  # atno 17343 bound_to 10162
  157.5379  131.0939  150.9867 LP  0  0  0  0  0  0  0  0  0  0  0  0  # atno 17370 bound_to 10713
  157.0157  130.5654  149.5325 LP  0  0  0  0  0  0  0  0  0  0  0  0  # atno 17371 bound_to 10713
  139.9310  134.7964  156.0931 LP  0  0  0  0  0  0  0  0  0  0  0  0  # atno 17394 bound_to 11000
  141.0986  133.6686  156.2703 LP  0  0  0  0  0  0  0  0  0  0  0  0  # atno 17395 bound_to 11000

$$$$
