AV-unprocessed.smi:2421|AV-procd|sdf|9555|dock3
  -GOLD-   2272013183D 1   1.00000     0.00000
 Structure written by MMmdl.
 44 46  0  0  0  0  0  0  0  0  1 V2000
  145.8499  140.9942  155.6332 C   0  0  0  0  0  0  0  0  0  0  0  0
  145.0279  139.9188  156.2828 C   0  0  0  0  0  0  0  0  0  0  0  0
  144.9751  139.8249  157.6030 N   0  0  0  0  0  0  0  0  0  0  0  0
  144.1274  138.7415  157.8921 O   0  0  0  0  0  0  0  0  0  0  0  0
  143.6834  138.2023  156.7247 C   0  0  0  0  0  0  0  0  0  0  0  0
  142.7583  137.0368  156.8159 C   0  0  0  0  0  0  0  0  0  0  0  0
  144.2318  138.9036  155.6932 C   0  0  0  0  0  0  0  0  0  0  0  0
  144.0131  138.6922  154.3165 N   0  0  0  0  0  0  0  0  0  0  0  0
  143.9086  137.4783  153.7511 C   0  0  0  0  0  0  0  0  0  0  0  0
  143.9121  136.4287  154.3923 O   0  0  0  0  0  0  0  0  0  0  0  0
  143.7856  137.4909  152.4115 N   0  0  0  0  0  0  0  0  0  0  0  0
  143.6527  136.3490  151.5043 C   0  0  2  0  0  0  0  0  0  0  0  0
  142.3121  135.6455  151.7487 C   0  0  0  0  0  0  0  0  0  0  0  0
  142.1932  134.3939  150.8677 C   0  0  0  0  0  0  0  0  0  0  0  0
  143.2954  133.5158  151.0887 O   0  0  0  0  0  0  0  0  0  0  0  0
  144.5973  134.0684  150.8601 C   0  0  0  0  0  0  0  0  0  0  0  0
  144.8761  134.2708  149.3598 C   0  0  0  0  0  0  0  0  0  0  0  0
  145.1466  132.8675  148.8096 C   0  0  0  0  0  0  0  0  0  0  0  0
  145.6470  132.0365  149.9995 C   0  0  0  0  0  0  0  0  0  0  0  0
  145.6004  132.9654  151.2190 C   0  0  0  0  0  0  0  0  0  0  0  0
  144.7902  135.3356  151.7209 C   0  0  0  0  0  0  0  0  0  0  0  0
  145.8181  140.9169  154.5463 H   0  0  0  0  0  0  0  0  0  0  0  0
  146.8942  140.9267  155.9385 H   0  0  0  0  0  0  0  0  0  0  0  0
  145.4847  141.9847  155.9053 H   0  0  0  0  0  0  0  0  0  0  0  0
  142.5147  136.6523  155.8252 H   0  0  0  0  0  0  0  0  0  0  0  0
  141.8277  137.3205  157.3072 H   0  0  0  0  0  0  0  0  0  0  0  0
  143.2120  136.2283  157.3889 H   0  0  0  0  0  0  0  0  0  0  0  0
  143.9833  139.5069  153.7209 H   0  0  0  0  0  0  0  0  0  0  0  0
  143.7543  138.4010  151.9747 H   0  0  0  0  0  0  0  0  0  0  0  0
  143.6654  136.7006  150.4712 H   0  0  0  0  0  0  0  0  0  0  0  0
  142.2276  135.3562  152.7973 H   0  0  0  0  0  0  0  0  0  0  0  0
  141.4833  136.3242  151.5435 H   0  0  0  0  0  0  0  0  0  0  0  0
  141.2750  133.8583  151.1091 H   0  0  0  0  0  0  0  0  0  0  0  0
  142.1185  134.6667  149.8156 H   0  0  0  0  0  0  0  0  0  0  0  0
  144.0836  134.7852  148.8182 H   0  0  0  0  0  0  0  0  0  0  0  0
  145.7775  134.8734  149.2391 H   0  0  0  0  0  0  0  0  0  0  0  0
  144.2230  132.4352  148.4226 H   0  0  0  0  0  0  0  0  0  0  0  0
  145.8661  132.8890  147.9905 H   0  0  0  0  0  0  0  0  0  0  0  0
  144.9908  131.1787  150.1532 H   0  0  0  0  0  0  0  0  0  0  0  0
  146.6538  131.6518  149.8335 H   0  0  0  0  0  0  0  0  0  0  0  0
  146.5890  133.4022  151.3689 H   0  0  0  0  0  0  0  0  0  0  0  0
  145.3377  132.4376  152.1366 H   0  0  0  0  0  0  0  0  0  0  0  0
  145.7580  135.7910  151.5074 H   0  0  0  0  0  0  0  0  0  0  0  0
  144.8161  135.0487  152.7734 H   0  0  0  0  0  0  0  0  0  0  0  0
  1  2  1  0  0  0  0
  1 22  1  0  0  0  0
  1 23  1  0  0  0  0
  1 24  1  0  0  0  0
  2  7  1  0  0  0  0
  2  3  2  0  0  0  0
  3  4  1  0  0  0  0
  4  5  1  0  0  0  0
  5  6  1  0  0  0  0
  5  7  2  0  0  0  0
  6 25  1  0  0  0  0
  6 26  1  0  0  0  0
  6 27  1  0  0  0  0
  7  8  1  0  0  0  0
  8  9  1  0  0  0  0
  8 28  1  0  0  0  0
  9 10  2  0  0  0  0
  9 11  1  0  0  0  0
 11 12  1  0  0  0  0
 11 29  1  0  0  0  0
 12 21  1  0  0  0  0
 12 13  1  0  0  0  0
 12 30  1  0  0  0  0
 13 14  1  0  0  0  0
 13 31  1  0  0  0  0
 13 32  1  0  0  0  0
 14 15  1  0  0  0  0
 14 33  1  0  0  0  0
 14 34  1  0  0  0  0
 15 16  1  0  0  0  0
 16 20  1  0  0  0  0
 16 17  1  0  0  0  0
 16 21  1  0  0  0  0
 17 18  1  0  0  0  0
 17 35  1  0  0  0  0
 17 36  1  0  0  0  0
 18 19  1  0  0  0  0
 18 37  1  0  0  0  0
 18 38  1  0  0  0  0
 19 20  1  0  0  0  0
 19 39  1  0  0  0  0
 19 40  1  0  0  0  0
 20 41  1  0  0  0  0
 20 42  1  0  0  0  0
 21 43  1  0  0  0  0
 21 44  1  0  0  0  0
M  END
> <s_m_source_file>
AV-unprocessed.smi

> <i_m_source_file_index>
2421

> <i_lp_mmshare_version>
43012

> <i_f3d_flags>
0

> <s_epik_input>
W0NIM11jMW5vYyhbQ0gzXSljMVtOSF1DKD1PKVtOSF1bQ0BASF0oW0NIMl0yKVtDSDJdW0NIMl1PQzIzW0NIMl1bQ0gyXVtDSDJdW0NIMl0z

> <s_epik_cmdline>
J2VwaWtfcHl0aG9uJywgJy1waCcsICc3LjAnLCAnLXRuJywgJzgnLCAnLW1hJywgJzIwMCcsICctbWV0YWxfYmluZGluZycsICctaW1hZScsICc8aW5maWxlLm1hZT4nLCAnLW9tYWUnLCAnPG91dGZpbGUubWFlPic=

> <r_lp_tautomer_probability>
1

> <r_epik_Ionization_Penalty>
3.59808e-05

> <r_epik_Ionization_Penalty_Charging>
0

> <r_epik_Ionization_Penalty_Neutral>
3.59808e-05

> <r_epik_State_Penalty>
-0

> <r_epik_Charging_Adjusted_Penalty>
0

> <i_epik_Tot_Q>
0

> <i_epik_Tot_abs_Q>
0

> <r_epik_Metal_State_Penalty>
-0

> <b_epik_Metal_Only>
0

> <s_lp_Force_Field>
OPLS_2005

> <r_lp_Energy>
43.4187

> <b_lp_Chiralities_Consistent>
1

> <s_lp_Variant>
AV-unprocessed.smi:2421-1

> <Gold.Version>
5.8.1

> <Gold.Id.Protein>
6NUR|6NUR_protein|mol2

> <Gold.PLP.Fitness>
33.7992

> <Gold.PLP.PLP>
-28.1727

> <Gold.PLP.part.hbond>
-3.0000

> <Gold.PLP.part.metal>
0.0000

> <Gold.PLP.part.buried>
-1.5987

> <Gold.PLP.part.nonpolar>
-23.6382

> <Gold.PLP.part.repulsive>
0.2734

> <Gold.PLP.ligand.clash>
0.0000

> <Gold.PLP.ligand.torsion>
0.3300

> <Gold.PLP.Chemscore.Hbond>
1.9280

> <Gold.PLP.Chemscore.CHOScore>
0.0000

> <Gold.PLP.Chemscore.Metal>
0.0000

> <Gold.Chemscore.Hbonds>
donor molecule, donor type, donor heavy atom, donor atom, acceptor molecule, acceptor atom, score
      L1  H     8    28       P1 10175  1.00
      L1  H    11    29       P1 10175  0.72

> <Gold.PLP.Chemscore.Internal.Correction>
0.5025

> <Gold.Rescore>
     Score         DG    S(hbond)    S(metal)    S(lipo)     H(rot)  DE(clash)    DE(int)     intcor
     16.37     -16.88       1.88        0.00      65.64       1.00       0.00       0.50       ----

> <Gold.Chemscore.Fitness>
16.3731

> <Gold.Chemscore.DG>
-16.8758

> <Gold.Chemscore.ZeroCoef>
-5.4800

> <Gold.Chemscore.Hbond>
1.8790

> <Gold.Chemscore.Metal>
0.0000

> <Gold.Chemscore.Lipo>
65.6410

> <Gold.Chemscore.Internal_Hbond>
0.0000

> <Gold.Chemscore.DEClash>
0.0000

> <Gold.Chemscore.DEInternal>
0.5027

> <Gold.Chemscore.Rot>
1.0000

> <Gold.Chemscore.Internal.Correction>
   9.000000E+99

> <Gold.Chemscore.Hbonds>
donor molecule, donor type, donor heavy atom, donor atom, acceptor molecule, acceptor atom, score
      L1  H     8    28       P1 10175  0.98
      L1  H    11    29       P1 10175  0.70

> <Gold.Chemscore.Hbond.Weighted>
-6.2758

> <Gold.Chemscore.Metal.Weighted>
-0.0000

> <Gold.Chemscore.Lipo.Weighted>
-7.6800

> <Gold.Chemscore.Internal_Hbond.Weighted>
0.0000

> <Gold.Chemscore.DEClash.Weighted>
0.0000

> <Gold.Chemscore.DEInternal.Weighted>
0.5027

> <Gold.Chemscore.Rot.Weighted>
2.5600

> <Gold.Chemscore.Internal.Correction.Weighted>
   9.000000E+99

> <Gold.Protein.RotatedTorsions>
[ 6907 6896 6895 6894 ] final   67.53 input  -60.11 | X-H torsion
[ 7974 7965 7964 7962 ] final -122.30 input  175.53 | X-H torsion
[ 8008 7997 7996 7995 ] final  101.06 input   59.86 | X-H torsion
[ 10167 10162 10161 10158 ] final -175.29 input  -65.29 | X-H torsion
[ 10718 10713 10712 10709 ] final   -4.13 input   66.30 | X-H torsion
[ 10763 10752 10751 10750 ] final  -31.72 input  -60.55 | X-H torsion
[ 11005 11000 10999 10996 ] final    2.14 input  -57.11 | X-H torsion

> <Gold.Protein.ActiveResidues>
 VAL166  LYS551  ARG553  GLY616  TRP617  ASP618  TYR619  PRO620  LYS621  CYS622 
 ASP623  PHE694  ASN695  SER759  ASP760  ASP761  ALA762  ILE779  LEU786  VAL792 
 PHE793  MET794  SER795  GLU796  ALA797  LYS798  CYS799  TRP800  GLU811  SER814 

> <Gold.Protein.RotatedAtoms>
  152.4558  134.5295  159.9806 H   0  0  0  0  0  0  0  0  0  0  0  0  # atno 6907 bound_to 6896
  151.5356  133.3435  159.2934 H   0  0  0  0  0  0  0  0  0  0  0  0  # atno 6908 bound_to 6896
  150.8502  134.7854  159.7065 H   0  0  0  0  0  0  0  0  0  0  0  0  # atno 6909 bound_to 6896
  145.0310  140.8067  143.4324 H   0  0  0  0  0  0  0  0  0  0  0  0  # atno 7974 bound_to 7965
  156.1263  140.3203  155.8282 H   0  0  0  0  0  0  0  0  0  0  0  0  # atno 8008 bound_to 7997
  155.4414  140.0526  157.3027 H   0  0  0  0  0  0  0  0  0  0  0  0  # atno 8009 bound_to 7997
  154.4865  140.2074  155.9657 H   0  0  0  0  0  0  0  0  0  0  0  0  # atno 8010 bound_to 7997
  139.5588  144.1920  152.1205 H   0  0  0  0  0  0  0  0  0  0  0  0  # atno 10167 bound_to 10162
  156.7658  130.5284  149.5776 H   0  0  0  0  0  0  0  0  0  0  0  0  # atno 10718 bound_to 10713
  153.8020  135.6889  153.4854 H   0  0  0  0  0  0  0  0  0  0  0  0  # atno 10763 bound_to 10752
  153.1682  135.4553  154.9865 H   0  0  0  0  0  0  0  0  0  0  0  0  # atno 10764 bound_to 10752
  154.8002  135.3335  154.7508 H   0  0  0  0  0  0  0  0  0  0  0  0  # atno 10765 bound_to 10752
  140.6076  133.9778  155.8161 H   0  0  0  0  0  0  0  0  0  0  0  0  # atno 11005 bound_to 11000
  145.1771  139.2372  143.5312 LP  0  0  0  0  0  0  0  0  0  0  0  0  # atno 17320 bound_to 7965
  146.3498  140.1536  142.8592 LP  0  0  0  0  0  0  0  0  0  0  0  0  # atno 17321 bound_to 7965
  140.1430  144.5185  150.6733 LP  0  0  0  0  0  0  0  0  0  0  0  0  # atno 17342 bound_to 10162
  140.6865  143.2353  151.5245 LP  0  0  0  0  0  0  0  0  0  0  0  0  # atno 17343 bound_to 10162
  156.1309  130.6177  151.0332 LP  0  0  0  0  0  0  0  0  0  0  0  0  # atno 17370 bound_to 10713
  157.6713  131.0860  150.7604 LP  0  0  0  0  0  0  0  0  0  0  0  0  # atno 17371 bound_to 10713
  141.0830  134.0033  157.3357 LP  0  0  0  0  0  0  0  0  0  0  0  0  # atno 17394 bound_to 11000
  139.9206  135.0200  156.8048 LP  0  0  0  0  0  0  0  0  0  0  0  0  # atno 17395 bound_to 11000

$$$$
