AV-unprocessed.smi:2856|AV-procd|sdf|10995|dock4
  -GOLD-   2272015453D 1   1.00000     0.00000
 Structure written by MMmdl.
 37 38  0  0  0  0  0  0  0  0  1 V2000
  148.6509  133.6309  153.8540 C   0  0  0  0  0  0  0  0  0  0  0  0
  147.1333  133.5922  154.8445 S   0  0  0  0  0  0  0  0  0  0  0  0
  145.9180  134.2349  153.6490 C   0  0  2  0  0  0  0  0  0  0  0  0
  146.2378  133.7296  152.2285 C   0  0  0  0  0  0  0  0  0  0  0  0
  145.2065  134.2316  151.2056 C   0  0  0  0  0  0  0  0  0  0  0  0
  145.0977  135.7636  151.2287 C   0  0  0  0  0  0  0  0  0  0  0  0
  144.7782  136.2776  152.6430 C   0  0  0  0  0  0  0  0  0  0  0  0
  145.7977  135.7787  153.6901 C   0  0  2  0  0  0  0  0  0  0  0  0
  147.1019  136.4115  153.4886 N   0  0  0  0  0  0  0  0  0  0  0  0
  147.6283  137.3707  154.2626 C   0  0  0  0  0  0  0  0  0  0  0  0
  147.0541  137.8461  155.2426 O   0  0  0  0  0  0  0  0  0  0  0  0
  148.8464  137.7335  153.8265 N   0  0  0  0  0  0  0  0  0  0  0  0
  149.7094  138.7096  154.3860 C   0  0  0  0  0  0  0  0  0  0  0  0
  149.1903  139.7919  155.1454 C   0  0  0  0  0  0  0  0  0  0  0  0
  150.3128  140.4885  155.4958 C   0  0  0  0  0  0  0  0  0  0  0  0
  150.5291  141.7318  156.2884 C   0  0  0  0  0  0  0  0  0  0  0  0
  151.4226  139.8833  154.9918 O   0  0  0  0  0  0  0  0  0  0  0  0
  151.0292  138.7427  154.2820 N   0  0  0  0  0  0  0  0  0  0  0  0
  149.5037  133.3436  154.4689 H   0  0  0  0  0  0  0  0  0  0  0  0
  148.8287  134.6334  153.4653 H   0  0  0  0  0  0  0  0  0  0  0  0
  148.5865  132.9358  153.0174 H   0  0  0  0  0  0  0  0  0  0  0  0
  144.9534  133.8125  153.9341 H   0  0  0  0  0  0  0  0  0  0  0  0
  147.2351  134.0568  151.9314 H   0  0  0  0  0  0  0  0  0  0  0  0
  146.2584  132.6394  152.2186 H   0  0  0  0  0  0  0  0  0  0  0  0
  145.4796  133.8933  150.2057 H   0  0  0  0  0  0  0  0  0  0  0  0
  144.2320  133.7934  151.4248 H   0  0  0  0  0  0  0  0  0  0  0  0
  146.0325  136.2030  150.8782 H   0  0  0  0  0  0  0  0  0  0  0  0
  144.3248  136.0909  150.5327 H   0  0  0  0  0  0  0  0  0  0  0  0
  144.7330  137.3673  152.6425 H   0  0  0  0  0  0  0  0  0  0  0  0
  143.7819  135.9366  152.9270 H   0  0  0  0  0  0  0  0  0  0  0  0
  145.4265  136.0646  154.6748 H   0  0  0  0  0  0  0  0  0  0  0  0
  147.6470  136.0795  152.7067 H   0  0  0  0  0  0  0  0  0  0  0  0
  149.1948  137.2585  153.0070 H   0  0  0  0  0  0  0  0  0  0  0  0
  148.1648  140.0226  155.3932 H   0  0  0  0  0  0  0  0  0  0  0  0
  149.6345  141.9937  156.8535 H   0  0  0  0  0  0  0  0  0  0  0  0
  150.7729  142.5684  155.6336 H   0  0  0  0  0  0  0  0  0  0  0  0
  151.3494  141.6042  156.9949 H   0  0  0  0  0  0  0  0  0  0  0  0
  1  2  1  0  0  0  0
  1 19  1  0  0  0  0
  1 20  1  0  0  0  0
  1 21  1  0  0  0  0
  2  3  1  0  0  0  0
  3  8  1  0  0  0  0
  3  4  1  0  0  0  0
  3 22  1  0  0  0  0
  4  5  1  0  0  0  0
  4 23  1  0  0  0  0
  4 24  1  0  0  0  0
  5  6  1  0  0  0  0
  5 25  1  0  0  0  0
  5 26  1  0  0  0  0
  6  7  1  0  0  0  0
  6 27  1  0  0  0  0
  6 28  1  0  0  0  0
  7  8  1  0  0  0  0
  7 29  1  0  0  0  0
  7 30  1  0  0  0  0
  8  9  1  0  0  0  0
  8 31  1  0  0  0  0
  9 10  1  0  0  0  0
  9 32  1  0  0  0  0
 10 11  2  0  0  0  0
 10 12  1  0  0  0  0
 12 13  1  0  0  0  0
 12 33  1  0  0  0  0
 13 18  2  0  0  0  0
 13 14  1  0  0  0  0
 14 15  2  0  0  0  0
 14 34  1  0  0  0  0
 15 16  1  0  0  0  0
 15 17  1  0  0  0  0
 16 35  1  0  0  0  0
 16 36  1  0  0  0  0
 16 37  1  0  0  0  0
 17 18  1  0  0  0  0
M  END
> <s_m_source_file>
AV-unprocessed.smi

> <i_m_source_file_index>
2856

> <i_lp_mmshare_version>
43012

> <i_f3d_flags>
0

> <s_epik_input>
W0NIM11TW0NAQEhdMVtDSDJdW0NIMl1bQ0gyXVtDSDJdW0NASF0xW05IXUMoPU8pW05IXWMyW2NIXWMoW0NIM10pb24y

> <s_epik_cmdline>
J2VwaWtfcHl0aG9uJywgJy1waCcsICc3LjAnLCAnLXRuJywgJzgnLCAnLW1hJywgJzIwMCcsICctbWV0YWxfYmluZGluZycsICctaW1hZScsICc8aW5maWxlLm1hZT4nLCAnLW9tYWUnLCAnPG91dGZpbGUubWFlPic=

> <r_lp_tautomer_probability>
1

> <r_epik_Ionization_Penalty>
2.20874e-05

> <r_epik_Ionization_Penalty_Charging>
0

> <r_epik_Ionization_Penalty_Neutral>
2.20874e-05

> <r_epik_State_Penalty>
-0

> <r_epik_Charging_Adjusted_Penalty>
0

> <i_epik_Tot_Q>
0

> <i_epik_Tot_abs_Q>
0

> <r_epik_Metal_State_Penalty>
-0

> <b_epik_Metal_Only>
0

> <s_lp_Force_Field>
OPLS_2005

> <r_lp_Energy>
4.88366

> <b_lp_Chiralities_Consistent>
1

> <s_lp_Variant>
AV-unprocessed.smi:2856-3

> <Gold.Version>
5.8.1

> <Gold.Id.Protein>
6NUR|6NUR_protein|mol2

> <Gold.PLP.Fitness>
30.7156

> <Gold.PLP.PLP>
-23.8672

> <Gold.PLP.part.hbond>
-2.7212

> <Gold.PLP.part.metal>
0.0000

> <Gold.PLP.part.buried>
-2.9992

> <Gold.PLP.part.nonpolar>
-19.1353

> <Gold.PLP.part.repulsive>
0.2749

> <Gold.PLP.ligand.clash>
0.0000

> <Gold.PLP.ligand.torsion>
0.5745

> <Gold.PLP.Chemscore.Hbond>
2.6600

> <Gold.PLP.Chemscore.CHOScore>
0.0000

> <Gold.PLP.Chemscore.Metal>
0.0000

> <Gold.Chemscore.Hbonds>
donor molecule, donor type, donor heavy atom, donor atom, acceptor molecule, acceptor atom, score
      L1  H     9    32       P1  7948  0.96
      L1  H    12    33       P1  7948  1.00
      P1  H  7989  7998       L1    17  0.70

> <Gold.PLP.Chemscore.Internal.Correction>
0.0173

> <Gold.Rescore>
     Score         DG    S(hbond)    S(metal)    S(lipo)     H(rot)  DE(clash)    DE(int)     intcor
     12.37     -14.34       1.92        0.00      47.48       1.21       0.15       1.82       ----

> <Gold.Chemscore.Fitness>
12.3743

> <Gold.Chemscore.DG>
-14.3391

> <Gold.Chemscore.ZeroCoef>
-5.4800

> <Gold.Chemscore.Hbond>
1.9172

> <Gold.Chemscore.Metal>
0.0000

> <Gold.Chemscore.Lipo>
47.4848

> <Gold.Chemscore.Internal_Hbond>
0.0000

> <Gold.Chemscore.DEClash>
0.1461

> <Gold.Chemscore.DEInternal>
1.8187

> <Gold.Chemscore.Rot>
1.2109

> <Gold.Chemscore.Internal.Correction>
   9.000000E+99

> <Gold.Chemscore.Hbonds>
donor molecule, donor type, donor heavy atom, donor atom, acceptor molecule, acceptor atom, score
      L1  H     9    32       P1  7948  0.89
      L1  H    12    33       P1  7948  0.88
      P1  H  7989  7998       L1    17  0.02

> <Gold.Chemscore.Hbond.Weighted>
-6.4034

> <Gold.Chemscore.Metal.Weighted>
-0.0000

> <Gold.Chemscore.Lipo.Weighted>
-5.5557

> <Gold.Chemscore.Internal_Hbond.Weighted>
0.0000

> <Gold.Chemscore.DEClash.Weighted>
0.1461

> <Gold.Chemscore.DEInternal.Weighted>
1.8187

> <Gold.Chemscore.Rot.Weighted>
3.1000

> <Gold.Chemscore.Internal.Correction.Weighted>
   9.000000E+99

> <Gold.Protein.RotatedTorsions>
[ 6907 6896 6895 6894 ] final   99.25 input  -60.11 | X-H torsion
[ 7974 7965 7964 7962 ] final   -1.74 input  175.53 | X-H torsion
[ 8008 7997 7996 7995 ] final -161.01 input   59.86 | X-H torsion
[ 10167 10162 10161 10158 ] final   56.66 input  -65.29 | X-H torsion
[ 10718 10713 10712 10709 ] final  168.90 input   66.30 | X-H torsion
[ 10763 10752 10751 10750 ] final -129.26 input  -60.55 | X-H torsion
[ 11005 11000 10999 10996 ] final   57.82 input  -57.11 | X-H torsion

> <Gold.Protein.ActiveResidues>
 VAL166  LYS551  ARG553  GLY616  TRP617  ASP618  TYR619  PRO620  LYS621  CYS622 
 ASP623  PHE694  ASN695  SER759  ASP760  ASP761  ALA762  ILE779  LEU786  VAL792 
 PHE793  MET794  SER795  GLU796  ALA797  LYS798  CYS799  TRP800  GLU811  SER814 

> <Gold.Protein.RotatedAtoms>
  152.5395  134.0457  159.8087 H   0  0  0  0  0  0  0  0  0  0  0  0  # atno 6907 bound_to 6896
  151.0606  133.5539  159.2642 H   0  0  0  0  0  0  0  0  0  0  0  0  # atno 6908 bound_to 6896
  151.2440  135.0607  159.9090 H   0  0  0  0  0  0  0  0  0  0  0  0  # atno 6909 bound_to 6896
  146.2413  140.1467  142.8334 H   0  0  0  0  0  0  0  0  0  0  0  0  # atno 7974 bound_to 7965
  155.7859  140.0871  157.2035 H   0  0  0  0  0  0  0  0  0  0  0  0  # atno 8008 bound_to 7997
  154.3988  140.1499  156.3164 H   0  0  0  0  0  0  0  0  0  0  0  0  # atno 8009 bound_to 7997
  155.8607  140.3430  155.5757 H   0  0  0  0  0  0  0  0  0  0  0  0  # atno 8010 bound_to 7997
  140.2064  144.3935  150.6507 H   0  0  0  0  0  0  0  0  0  0  0  0  # atno 10167 bound_to 10162
  157.0305  131.0258  151.2746 H   0  0  0  0  0  0  0  0  0  0  0  0  # atno 10718 bound_to 10713
  154.8757  135.3901  154.3891 H   0  0  0  0  0  0  0  0  0  0  0  0  # atno 10763 bound_to 10752
  153.4629  135.7029  153.6045 H   0  0  0  0  0  0  0  0  0  0  0  0  # atno 10764 bound_to 10752
  153.4536  135.3828  155.2266 H   0  0  0  0  0  0  0  0  0  0  0  0  # atno 10765 bound_to 10752
  140.0424  134.5855  155.9365 H   0  0  0  0  0  0  0  0  0  0  0  0  # atno 11005 bound_to 11000
  145.0202  140.8787  143.5171 LP  0  0  0  0  0  0  0  0  0  0  0  0  # atno 17320 bound_to 7965
  145.1514  139.2512  143.5439 LP  0  0  0  0  0  0  0  0  0  0  0  0  # atno 17321 bound_to 7965
  140.6354  143.2194  151.6405 LP  0  0  0  0  0  0  0  0  0  0  0  0  # atno 17342 bound_to 10162
  139.5197  144.3246  152.0881 LP  0  0  0  0  0  0  0  0  0  0  0  0  # atno 17343 bound_to 10162
  157.5181  130.7981  149.7779 LP  0  0  0  0  0  0  0  0  0  0  0  0  # atno 17370 bound_to 10713
  156.0071  130.3850  150.2392 LP  0  0  0  0  0  0  0  0  0  0  0  0  # atno 17371 bound_to 10713
  141.1889  133.6564  156.5347 LP  0  0  0  0  0  0  0  0  0  0  0  0  # atno 17394 bound_to 11000
  140.4048  134.7324  157.4801 LP  0  0  0  0  0  0  0  0  0  0  0  0  # atno 17395 bound_to 11000

$$$$
