AV-unprocessed.smi:2680|AV-procd|sdf|10372|dock5
  -GOLD-   2272014403D 1   1.00000     0.00000
 Structure written by MMmdl.
 37 38  0  0  0  0  0  0  0  0  2 V2000
  151.5162  144.8031  160.6589 C   0  0  0  0  0  0  0  0  0  0  0  0
  152.0700  143.5114  160.1306 C   0  0  0  0  0  0  0  0  0  0  0  0
  152.0984  143.0565  158.7818 C   0  0  0  0  0  0  0  0  0  0  0  0
  152.6660  141.8686  158.6507 N   0  0  0  0  0  0  0  0  0  0  0  0
  153.0306  141.5274  159.9053 N   0  0  0  0  0  0  0  0  0  0  0  0
  153.7011  140.2575  160.1427 C   0  0  0  0  0  0  0  0  0  0  0  0
  153.6011  139.3220  158.9340 C   0  0  0  0  0  0  0  0  0  0  0  0
  154.6264  138.8089  158.4888 O   0  0  0  0  0  0  0  0  0  0  0  0
  152.3618  139.1363  158.4389 N   0  0  0  0  0  0  0  0  0  0  0  0
  151.8644  138.4077  157.2617 C   0  0  0  0  0  0  0  0  0  0  0  0
  152.2199  136.9248  157.5442 C   0  0  0  0  0  0  0  0  0  0  0  0
  152.5485  136.6146  158.7113 O   0  0  0  0  0  0  0  0  0  0  0  0
  152.2103  136.1253  156.5811 O   0  5  0  0  0  0  0  0  0  0  0  0
  150.3364  138.5756  156.9819 C   0  0  0  0  0  0  0  0  0  0  0  0
  149.8869  137.9226  155.6602 C   0  0  0  0  0  0  0  0  0  0  0  0
  150.6868  138.4738  154.4711 C   0  0  0  0  0  0  0  0  0  0  0  0
  152.1971  138.3119  154.6948 C   0  0  0  0  0  0  0  0  0  0  0  0
  152.6386  138.9511  156.0267 C   0  0  0  0  0  0  0  0  0  0  0  0
  152.6695  142.4963  160.8200 C   0  0  0  0  0  0  0  0  0  0  0  0
  151.0322  145.3877  159.8762 H   0  0  0  0  0  0  0  0  0  0  0  0
  152.2994  145.4282  161.0884 H   0  0  0  0  0  0  0  0  0  0  0  0
  150.7745  144.6337  161.4394 H   0  0  0  0  0  0  0  0  0  0  0  0
  151.7246  143.5526  157.8983 H   0  0  0  0  0  0  0  0  0  0  0  0
  154.7473  140.4598  160.3747 H   0  0  0  0  0  0  0  0  0  0  0  0
  153.2651  139.7661  161.0140 H   0  0  0  0  0  0  0  0  0  0  0  0
  151.6356  139.6376  158.9300 H   0  0  0  0  0  0  0  0  0  0  0  0
  149.7362  138.1810  157.8029 H   0  0  0  0  0  0  0  0  0  0  0  0
  150.0940  139.6368  156.9149 H   0  0  0  0  0  0  0  0  0  0  0  0
  150.0037  136.8398  155.7138 H   0  0  0  0  0  0  0  0  0  0  0  0
  148.8236  138.1057  155.5036 H   0  0  0  0  0  0  0  0  0  0  0  0
  150.3891  137.9657  153.5535 H   0  0  0  0  0  0  0  0  0  0  0  0
  150.4504  139.5294  154.3318 H   0  0  0  0  0  0  0  0  0  0  0  0
  152.4584  137.2534  154.6801 H   0  0  0  0  0  0  0  0  0  0  0  0
  152.7422  138.7698  153.8691 H   0  0  0  0  0  0  0  0  0  0  0  0
  152.4841  140.0290  155.9589 H   0  0  0  0  0  0  0  0  0  0  0  0
  153.7153  138.8245  156.1514 H   0  0  0  0  0  0  0  0  0  0  0  0
  152.8791  142.3887  161.8743 H   0  0  0  0  0  0  0  0  0  0  0  0
  1  2  1  0  0  0  0
  1 20  1  0  0  0  0
  1 21  1  0  0  0  0
  1 22  1  0  0  0  0
  2 19  2  0  0  0  0
  2  3  1  0  0  0  0
  3  4  2  0  0  0  0
  3 23  1  0  0  0  0
  4  5  1  0  0  0  0
  5  6  1  0  0  0  0
  5 19  1  0  0  0  0
  6  7  1  0  0  0  0
  6 24  1  0  0  0  0
  6 25  1  0  0  0  0
  7  8  2  0  0  0  0
  7  9  1  0  0  0  0
  9 10  1  0  0  0  0
  9 26  1  0  0  0  0
 10 18  1  0  0  0  0
 10 11  1  0  0  0  0
 10 14  1  0  0  0  0
 11 12  2  0  0  0  0
 11 13  1  0  0  0  0
 14 15  1  0  0  0  0
 14 27  1  0  0  0  0
 14 28  1  0  0  0  0
 15 16  1  0  0  0  0
 15 29  1  0  0  0  0
 15 30  1  0  0  0  0
 16 17  1  0  0  0  0
 16 31  1  0  0  0  0
 16 32  1  0  0  0  0
 17 18  1  0  0  0  0
 17 33  1  0  0  0  0
 17 34  1  0  0  0  0
 18 35  1  0  0  0  0
 18 36  1  0  0  0  0
 19 37  1  0  0  0  0
M  CHG  1  13  -1
M  END
> <s_m_source_file>
AV-unprocessed.smi

> <i_m_source_file_index>
2680

> <i_lp_mmshare_version>
43012

> <i_f3d_flags>
0

> <s_epik_input>
W0NIM11jMVtjSF1ubihbY0hdMSlbQ0gyXUMoPU8pW05IXUMyKEMoPU8pW09IXSlbQ0gyXVtDSDJdW0NIMl1bQ0gyXVtDSDJdMg==

> <s_epik_cmdline>
J2VwaWtfcHl0aG9uJywgJy1waCcsICc3LjAnLCAnLXRuJywgJzgnLCAnLW1hJywgJzIwMCcsICctbWV0YWxfYmluZGluZycsICctaW1hZScsICc8aW5maWxlLm1hZT4nLCAnLW9tYWUnLCAnPG91dGZpbGUubWFlPic=

> <r_lp_tautomer_probability>
1

> <r_epik_Ionization_Penalty>
0.000361632

> <r_epik_Ionization_Penalty_Charging>
0.000323848

> <r_epik_Ionization_Penalty_Neutral>
3.77838e-05

> <r_epik_State_Penalty>
0.000195685

> <r_epik_Charging_Adjusted_Penalty>
0.000519533

> <i_epik_Tot_Q>
-1

> <i_epik_Tot_abs_Q>
1

> <r_epik_Metal_State_Penalty>
-0

> <b_epik_Metal_Only>
0

> <s_lp_Force_Field>
OPLS_2005

> <r_lp_Energy>
4.37628

> <b_lp_Chiralities_Consistent>
1

> <s_lp_Variant>
AV-unprocessed.smi:2680-1

> <Gold.Version>
5.8.1

> <Gold.Id.Protein>
6NUR|6NUR_protein|mol2

> <Gold.PLP.Fitness>
47.0495

> <Gold.PLP.PLP>
-34.8262

> <Gold.PLP.part.hbond>
-3.0000

> <Gold.PLP.part.metal>
0.0000

> <Gold.PLP.part.buried>
-1.5987

> <Gold.PLP.part.nonpolar>
-30.0697

> <Gold.PLP.part.repulsive>
0.0853

> <Gold.PLP.ligand.clash>
0.0000

> <Gold.PLP.ligand.torsion>
0.7167

> <Gold.PLP.Chemscore.Hbond>
4.5360

> <Gold.PLP.Chemscore.CHOScore>
0.0000

> <Gold.PLP.Chemscore.Metal>
0.0000

> <Gold.Chemscore.Hbonds>
donor molecule, donor type, donor heavy atom, donor atom, acceptor molecule, acceptor atom, score
      P1  H  6896  6908       L1    12  1.22
      P1  H  7997  8010       L1     8  1.00
      P1  H 10752 10764       L1    13  2.00

> <Gold.PLP.Chemscore.Internal.Correction>
0.0488

> <Gold.Rescore>
     Score         DG    S(hbond)    S(metal)    S(lipo)     H(rot)  DE(clash)    DE(int)     intcor
     15.67     -19.09       2.81        0.00      79.14       1.96       0.03       3.39       ----

> <Gold.Chemscore.Fitness>
15.6729

> <Gold.Chemscore.DG>
-19.0856

> <Gold.Chemscore.ZeroCoef>
-5.4800

> <Gold.Chemscore.Hbond>
2.8052

> <Gold.Chemscore.Metal>
0.0000

> <Gold.Chemscore.Lipo>
79.1411

> <Gold.Chemscore.Internal_Hbond>
0.0000

> <Gold.Chemscore.DEClash>
0.0276

> <Gold.Chemscore.DEInternal>
3.3852

> <Gold.Chemscore.Rot>
1.9622

> <Gold.Chemscore.Internal.Correction>
   9.000000E+99

> <Gold.Chemscore.Hbonds>
donor molecule, donor type, donor heavy atom, donor atom, acceptor molecule, acceptor atom, score
      P1  H  6896  6908       L1    12  0.59
      P1  H  7997  8010       L1     8  0.48
      P1  H 10752 10764       L1    13  1.00

> <Gold.Chemscore.Hbond.Weighted>
-9.3694

> <Gold.Chemscore.Metal.Weighted>
-0.0000

> <Gold.Chemscore.Lipo.Weighted>
-9.2595

> <Gold.Chemscore.Internal_Hbond.Weighted>
0.0000

> <Gold.Chemscore.DEClash.Weighted>
0.0276

> <Gold.Chemscore.DEInternal.Weighted>
3.3852

> <Gold.Chemscore.Rot.Weighted>
5.0233

> <Gold.Chemscore.Internal.Correction.Weighted>
   9.000000E+99

> <Gold.Protein.RotatedTorsions>
[ 6907 6896 6895 6894 ] final -104.87 input  -60.11 | X-H torsion
[ 7974 7965 7964 7962 ] final  -30.72 input  175.53 | X-H torsion
[ 8008 7997 7996 7995 ] final  -11.58 input   59.86 | X-H torsion
[ 10167 10162 10161 10158 ] final  170.22 input  -65.29 | X-H torsion
[ 10718 10713 10712 10709 ] final   57.84 input   66.30 | X-H torsion
[ 10763 10752 10751 10750 ] final  -13.40 input  -60.55 | X-H torsion
[ 11005 11000 10999 10996 ] final   75.43 input  -57.11 | X-H torsion

> <Gold.Protein.ActiveResidues>
 VAL166  LYS551  ARG553  GLY616  TRP617  ASP618  TYR619  PRO620  LYS621  CYS622 
 ASP623  PHE694  ASN695  SER759  ASP760  ASP761  ALA762  ILE779  LEU786  VAL792 
 PHE793  MET794  SER795  GLU796  ALA797  LYS798  CYS799  TRP800  GLU811  SER814 

> <Gold.Protein.RotatedAtoms>
  150.7308  134.0213  159.3701 H   0  0  0  0  0  0  0  0  0  0  0  0  # atno 6907 bound_to 6896
  151.8178  135.0659  160.0430 H   0  0  0  0  0  0  0  0  0  0  0  0  # atno 6908 bound_to 6896
  152.3026  133.5634  159.5665 H   0  0  0  0  0  0  0  0  0  0  0  0  # atno 6909 bound_to 6896
  146.1122  140.5576  142.8773 H   0  0  0  0  0  0  0  0  0  0  0  0  # atno 7974 bound_to 7965
  154.5452  140.2299  155.8575 H   0  0  0  0  0  0  0  0  0  0  0  0  # atno 8008 bound_to 7997
  156.1896  140.3080  155.9268 H   0  0  0  0  0  0  0  0  0  0  0  0  # atno 8009 bound_to 7997
  155.3179  140.0439  157.3028 H   0  0  0  0  0  0  0  0  0  0  0  0  # atno 8010 bound_to 7997
  139.5013  144.3620  151.9815 H   0  0  0  0  0  0  0  0  0  0  0  0  # atno 10167 bound_to 10162
  157.5548  130.8792  149.9018 H   0  0  0  0  0  0  0  0  0  0  0  0  # atno 10718 bound_to 10713
  153.5127  135.7016  153.5772 H   0  0  0  0  0  0  0  0  0  0  0  0  # atno 10763 bound_to 10752
  153.3855  135.3909  155.1887 H   0  0  0  0  0  0  0  0  0  0  0  0  # atno 10764 bound_to 10752
  154.8702  135.3845  154.4609 H   0  0  0  0  0  0  0  0  0  0  0  0  # atno 10765 bound_to 10752
  139.9344  134.7517  156.1270 H   0  0  0  0  0  0  0  0  0  0  0  0  # atno 11005 bound_to 11000
  144.7521  140.5217  143.6794 LP  0  0  0  0  0  0  0  0  0  0  0  0  # atno 17320 bound_to 7965
  145.5640  139.1480  143.3325 LP  0  0  0  0  0  0  0  0  0  0  0  0  # atno 17321 bound_to 7965
  140.3056  144.3597  150.6048 LP  0  0  0  0  0  0  0  0  0  0  0  0  # atno 17342 bound_to 10162
  140.5839  143.2171  151.7378 LP  0  0  0  0  0  0  0  0  0  0  0  0  # atno 17343 bound_to 10162
  156.0608  130.3700  150.0986 LP  0  0  0  0  0  0  0  0  0  0  0  0  # atno 17370 bound_to 10713
  156.9155  130.9666  151.3556 LP  0  0  0  0  0  0  0  0  0  0  0  0  # atno 17371 bound_to 10713
  141.0950  133.6699  156.2625 LP  0  0  0  0  0  0  0  0  0  0  0  0  # atno 17394 bound_to 11000
  140.6115  134.5454  157.5534 LP  0  0  0  0  0  0  0  0  0  0  0  0  # atno 17395 bound_to 11000

$$$$
