AV-unprocessed.smi:1815|AV-procd|sdf|7355|dock7
  -GOLD-   22720 9 13D 1   1.00000     0.00000
 Structure written by MMmdl.
 40 41  0  0  0  0  0  0  0  0  2 V2000
  152.9986  138.6607  154.6278 C   0  0  0  0  0  0  0  0  0  0  0  0
  151.7568  137.8010  154.3675 C   0  0  2  0  0  0  0  0  0  0  0  0
  150.4520  138.6051  154.5188 C   0  0  0  0  0  0  0  0  0  0  0  0
  149.2726  137.7263  154.3346 N   0  3  2  0  0  0  0  0  0  0  0  0
  147.9942  138.4765  154.4104 C   0  0  0  0  0  0  0  0  0  0  0  0
  146.7640  137.5485  154.3946 C   0  0  0  0  0  0  0  0  0  0  0  0
  146.8529  136.5588  153.3269 N   0  0  0  0  0  0  0  0  0  0  0  0
  145.8342  135.7950  152.9062 C   0  0  0  0  0  0  0  0  0  0  0  0
  144.7041  135.8493  153.3928 O   0  0  0  0  0  0  0  0  0  0  0  0
  146.2131  134.9807  151.9059 N   0  0  0  0  0  0  0  0  0  0  0  0
  145.4294  134.0223  151.2110 C   0  0  0  0  0  0  0  0  0  0  0  0
  144.0919  133.9854  151.2278 N   0  0  0  0  0  0  0  0  0  0  0  0
  143.5866  132.9354  150.4568 C   0  0  0  0  0  0  0  0  0  0  0  0
  144.5607  132.1769  149.8567 C   0  0  0  0  0  0  0  0  0  0  0  0
  146.1606  132.7554  150.2366 S   0  0  0  0  0  0  0  0  0  0  0  0
  149.3419  136.5700  155.2615 C   0  0  0  0  0  0  0  0  0  0  0  0
  150.6777  135.8213  155.0917 C   0  0  2  0  0  0  0  0  0  0  0  0
  150.8235  134.6661  156.0883 C   0  0  0  0  0  0  0  0  0  0  0  0
  151.7521  136.7302  155.3051 O   0  0  0  0  0  0  0  0  0  0  0  0
  153.0565  139.4905  153.9230 H   0  0  0  0  0  0  0  0  0  0  0  0
  153.9096  138.0713  154.5213 H   0  0  0  0  0  0  0  0  0  0  0  0
  152.9873  139.0772  155.6355 H   0  0  0  0  0  0  0  0  0  0  0  0
  151.8235  137.3937  153.3571 H   0  0  0  0  0  0  0  0  0  0  0  0
  150.4066  139.0720  155.5043 H   0  0  0  0  0  0  0  0  0  0  0  0
  150.4307  139.4089  153.7816 H   0  0  0  0  0  0  0  0  0  0  0  0
  147.9886  139.1121  155.2973 H   0  0  0  0  0  0  0  0  0  0  0  0
  147.9338  139.1466  153.5515 H   0  0  0  0  0  0  0  0  0  0  0  0
  146.6496  137.0474  155.3574 H   0  0  0  0  0  0  0  0  0  0  0  0
  145.8505  138.1185  154.2298 H   0  0  0  0  0  0  0  0  0  0  0  0
  147.7488  136.4533  152.8732 H   0  0  0  0  0  0  0  0  0  0  0  0
  147.1746  135.0509  151.6073 H   0  0  0  0  0  0  0  0  0  0  0  0
  142.5172  132.8003  150.3903 H   0  0  0  0  0  0  0  0  0  0  0  0
  144.4341  131.3166  149.2164 H   0  0  0  0  0  0  0  0  0  0  0  0
  149.2348  136.9207  156.2895 H   0  0  0  0  0  0  0  0  0  0  0  0
  148.5194  135.8814  155.0712 H   0  0  0  0  0  0  0  0  0  0  0  0
  150.7459  135.4161  154.0804 H   0  0  0  0  0  0  0  0  0  0  0  0
  150.0252  133.9344  155.9611 H   0  0  0  0  0  0  0  0  0  0  0  0
  150.7881  135.0248  157.1174 H   0  0  0  0  0  0  0  0  0  0  0  0
  151.7729  134.1487  155.9487 H   0  0  0  0  0  0  0  0  0  0  0  0
  149.3371  137.3597  153.3956 H   0  0  0  0  0  0  0  0  0  0  0  0
  1  2  1  0  0  0  0
  1 20  1  0  0  0  0
  1 21  1  0  0  0  0
  1 22  1  0  0  0  0
  2 19  1  0  0  0  0
  2  3  1  0  0  0  0
  2 23  1  0  0  0  0
  3  4  1  0  0  0  0
  3 24  1  0  0  0  0
  3 25  1  0  0  0  0
  4  5  1  0  0  0  0
  4 16  1  0  0  0  0
  4 40  1  0  0  0  0
  5  6  1  0  0  0  0
  5 26  1  0  0  0  0
  5 27  1  0  0  0  0
  6  7  1  0  0  0  0
  6 28  1  0  0  0  0
  6 29  1  0  0  0  0
  7  8  1  0  0  0  0
  7 30  1  0  0  0  0
  8  9  2  0  0  0  0
  8 10  1  0  0  0  0
 10 11  1  0  0  0  0
 10 31  1  0  0  0  0
 11 15  1  0  0  0  0
 11 12  2  0  0  0  0
 12 13  1  0  0  0  0
 13 14  2  0  0  0  0
 13 32  1  0  0  0  0
 14 15  1  0  0  0  0
 14 33  1  0  0  0  0
 16 17  1  0  0  0  0
 16 34  1  0  0  0  0
 16 35  1  0  0  0  0
 17 18  1  0  0  0  0
 17 19  1  0  0  0  0
 17 36  1  0  0  0  0
 18 37  1  0  0  0  0
 18 38  1  0  0  0  0
 18 39  1  0  0  0  0
M  CHG  1   4   1
M  END
> <s_m_source_file>
AV-unprocessed.smi

> <i_m_source_file_index>
1815

> <i_lp_mmshare_version>
43012

> <i_f3d_flags>
0

> <s_epik_input>
W0NIM11bQ0BASF0xW0NIMl1OKFtDSDJdW0NASF0oTzEpW0NIM10pW0NIMl1bQ0gyXVtOSF1DKD1PKVtOSF1jMm5bY0hdW2NIXXMy

> <s_epik_cmdline>
J2VwaWtfcHl0aG9uJywgJy1waCcsICc3LjAnLCAnLXRuJywgJzgnLCAnLW1hJywgJzIwMCcsICctbWV0YWxfYmluZGluZycsICctaW1hZScsICc8aW5maWxlLm1hZT4nLCAnLW9tYWUnLCAnPG91dGZpbGUubWFlPic=

> <r_lp_tautomer_probability>
0.999

> <r_epik_Ionization_Penalty>
0.695838

> <r_epik_Ionization_Penalty_Charging>
0.695697

> <r_epik_Ionization_Penalty_Neutral>
0.000141198

> <r_epik_State_Penalty>
0.717972

> <r_epik_Charging_Adjusted_Penalty>
1.41367

> <i_epik_Tot_Q>
1

> <i_epik_Tot_abs_Q>
1

> <r_epik_Metal_State_Penalty>
0.756405

> <b_epik_Metal_Only>
0

> <s_lp_Force_Field>
OPLS_2005

> <r_lp_Energy>
12.0644

> <b_lp_Chiralities_Consistent>
1

> <s_lp_Variant>
AV-unprocessed.smi:1815-6

> <Gold.Version>
5.8.1

> <Gold.Id.Protein>
6NUR|6NUR_protein|mol2

> <Gold.PLP.Fitness>
48.2701

> <Gold.PLP.PLP>
-32.2972

> <Gold.PLP.part.hbond>
-3.9557

> <Gold.PLP.part.metal>
0.0000

> <Gold.PLP.part.buried>
-4.7694

> <Gold.PLP.part.nonpolar>
-24.4883

> <Gold.PLP.part.repulsive>
0.3280

> <Gold.PLP.ligand.clash>
0.0000

> <Gold.PLP.ligand.torsion>
0.2284

> <Gold.PLP.Chemscore.Hbond>
4.5424

> <Gold.PLP.Chemscore.CHOScore>
0.9303

> <Gold.PLP.Chemscore.Metal>
0.0000

> <Gold.Chemscore.Hbonds>
donor molecule, donor type, donor heavy atom, donor atom, acceptor molecule, acceptor atom, score
      L1  H     4    40       P1  7948  2.00
      L1  H     7    30       P1  7948  1.00
      L1  H    10    31       P1  7948  0.73
      P1  H 10752 10765       L1    19  0.80
      L1  C    13    32       P1 10186  0.90

> <Gold.PLP.Chemscore.Internal.Correction>
0.0115

> <Gold.Rescore>
     Score         DG    S(hbond)    S(metal)    S(lipo)     H(rot)  DE(clash)    DE(int)     intcor
     17.35     -18.84       2.69        0.00      73.33       1.64       0.05       1.44       ----

> <Gold.Chemscore.Fitness>
17.3501

> <Gold.Chemscore.DG>
-18.8388

> <Gold.Chemscore.ZeroCoef>
-5.4800

> <Gold.Chemscore.Hbond>
2.6868

> <Gold.Chemscore.Metal>
0.0000

> <Gold.Chemscore.Lipo>
73.3283

> <Gold.Chemscore.Internal_Hbond>
0.0000

> <Gold.Chemscore.DEClash>
0.0528

> <Gold.Chemscore.DEInternal>
1.4359

> <Gold.Chemscore.Rot>
1.6385

> <Gold.Chemscore.Internal.Correction>
   9.000000E+99

> <Gold.Chemscore.Hbonds>
donor molecule, donor type, donor heavy atom, donor atom, acceptor molecule, acceptor atom, score
      L1  H     4    40       P1  7948  0.96
      L1  H     7    30       P1  7948  0.98
      L1  H    10    31       P1  7948  0.61
      P1  H 10752 10765       L1    19  0.09

> <Gold.Chemscore.Hbond.Weighted>
-8.9739

> <Gold.Chemscore.Metal.Weighted>
-0.0000

> <Gold.Chemscore.Lipo.Weighted>
-8.5794

> <Gold.Chemscore.Internal_Hbond.Weighted>
0.0000

> <Gold.Chemscore.DEClash.Weighted>
0.0528

> <Gold.Chemscore.DEInternal.Weighted>
1.4359

> <Gold.Chemscore.Rot.Weighted>
4.1945

> <Gold.Chemscore.Internal.Correction.Weighted>
   9.000000E+99

> <Gold.Protein.RotatedTorsions>
[ 6907 6896 6895 6894 ] final   88.56 input  -60.11 | X-H torsion
[ 7974 7965 7964 7962 ] final  152.81 input  175.53 | X-H torsion
[ 8008 7997 7996 7995 ] final -175.47 input   59.86 | X-H torsion
[ 10167 10162 10161 10158 ] final   93.84 input  -65.29 | X-H torsion
[ 10718 10713 10712 10709 ] final -171.43 input   66.30 | X-H torsion
[ 10763 10752 10751 10750 ] final -156.71 input  -60.55 | X-H torsion
[ 11005 11000 10999 10996 ] final   52.21 input  -57.11 | X-H torsion

> <Gold.Protein.ActiveResidues>
 VAL166  LYS551  ARG553  GLY616  TRP617  ASP618  TYR619  PRO620  LYS621  CYS622 
 ASP623  PHE694  ASN695  SER759  ASP760  ASP761  ALA762  ILE779  LEU786  VAL792 
 PHE793  MET794  SER795  GLU796  ALA797  LYS798  CYS799  TRP800  GLU811  SER814 

> <Gold.Protein.RotatedAtoms>
  152.5426  134.2103  159.8747 H   0  0  0  0  0  0  0  0  0  0  0  0  # atno 6907 bound_to 6896
  151.2086  133.4562  159.2605 H   0  0  0  0  0  0  0  0  0  0  0  0  # atno 6908 bound_to 6896
  151.0919  134.9934  159.8462 H   0  0  0  0  0  0  0  0  0  0  0  0  # atno 6909 bound_to 6896
  144.8197  139.6718  143.6106 H   0  0  0  0  0  0  0  0  0  0  0  0  # atno 7974 bound_to 7965
  155.9829  140.1185  157.0710 H   0  0  0  0  0  0  0  0  0  0  0  0  # atno 8008 bound_to 7997
  154.4188  140.1141  156.5528 H   0  0  0  0  0  0  0  0  0  0  0  0  # atno 8009 bound_to 7997
  155.6446  140.3473  155.4729 H   0  0  0  0  0  0  0  0  0  0  0  0  # atno 8010 bound_to 7997
  139.8140  144.6761  150.9603 H   0  0  0  0  0  0  0  0  0  0  0  0  # atno 10167 bound_to 10162
  156.7407  130.9341  151.3110 H   0  0  0  0  0  0  0  0  0  0  0  0  # atno 10718 bound_to 10713
  154.7692  135.3140  154.8223 H   0  0  0  0  0  0  0  0  0  0  0  0  # atno 10763 bound_to 10752
  153.8963  135.6820  153.4762 H   0  0  0  0  0  0  0  0  0  0  0  0  # atno 10764 bound_to 10752
  153.1303  135.4783  154.9272 H   0  0  0  0  0  0  0  0  0  0  0  0  # atno 10765 bound_to 10752
  140.0868  134.5264  155.8891 H   0  0  0  0  0  0  0  0  0  0  0  0  # atno 11005 bound_to 11000
  146.2502  139.6183  142.9432 LP  0  0  0  0  0  0  0  0  0  0  0  0  # atno 17320 bound_to 7965
  145.5133  141.0434  143.2475 LP  0  0  0  0  0  0  0  0  0  0  0  0  # atno 17321 bound_to 7965
  140.7816  143.4156  151.0922 LP  0  0  0  0  0  0  0  0  0  0  0  0  # atno 17342 bound_to 10162
  139.7821  143.8340  152.3139 LP  0  0  0  0  0  0  0  0  0  0  0  0  # atno 17343 bound_to 10162
  157.6820  130.9149  150.0290 LP  0  0  0  0  0  0  0  0  0  0  0  0  # atno 17370 bound_to 10713
  156.1466  130.3642  149.9500 LP  0  0  0  0  0  0  0  0  0  0  0  0  # atno 17371 bound_to 10713
  141.2065  133.6656  156.6246 LP  0  0  0  0  0  0  0  0  0  0  0  0  # atno 17394 bound_to 11000
  140.3409  134.7850  157.4397 LP  0  0  0  0  0  0  0  0  0  0  0  0  # atno 17395 bound_to 11000

$$$$
