AV-unprocessed.smi:67|AV-procd|sdf|634|dock2
  -GOLD-   2262016523D 1   1.00000     0.00000
 Structure written by MMmdl.
 48 50  0  0  0  0  0  0  0  0  2 V2000
  147.8108  137.3555  154.4036 O   0  0  0  0  0  0  0  0  0  0  0  0
  147.4636  138.6936  154.0942 C   0  0  2  0  0  0  0  0  0  0  0  0
  148.8012  139.4363  153.8561 C   0  0  0  0  0  0  0  0  0  0  0  0
  149.7920  139.3313  154.9306 N   0  0  0  0  0  0  0  0  0  0  0  0
  149.5048  140.2725  156.0154 C   0  0  0  0  0  0  0  0  0  0  0  0
  150.4494  140.0982  157.2167 C   0  0  0  0  0  0  0  0  0  0  0  0
  151.9219  140.1941  156.7620 C   0  0  0  0  0  0  0  0  0  0  0  0
  152.8829  140.0869  157.8154 O   0  0  0  0  0  0  0  0  0  0  0  0
  153.0286  141.0381  158.8075 C   0  0  0  0  0  0  0  0  0  0  0  0
  153.6315  140.8349  160.0740 C   0  0  0  0  0  0  0  0  0  0  0  0
  153.7233  141.8911  161.0001 C   0  0  0  0  0  0  0  0  0  0  0  0
  153.2128  143.1620  160.6808 C   0  0  0  0  0  0  0  0  0  0  0  0
  152.6025  143.3823  159.4289 C   0  0  0  0  0  0  0  0  0  0  0  0
  152.0471  144.7495  159.0596 C   0  0  0  0  0  0  0  0  0  0  0  0
  150.7185  144.6958  158.9604 F   0  0  0  0  0  0  0  0  0  0  0  0
  152.3605  145.6689  159.9733 F   0  0  0  0  0  0  0  0  0  0  0  0
  152.5506  145.1251  157.8845 F   0  0  0  0  0  0  0  0  0  0  0  0
  152.5231  142.3196  158.5041 C   0  0  0  0  0  0  0  0  0  0  0  0
  152.2243  139.3365  155.5142 C   0  0  0  0  0  0  0  0  0  0  0  0
  151.1532  139.5768  154.4381 C   0  0  0  0  0  0  0  0  0  0  0  0
  146.5371  139.2196  155.1967 C   0  0  0  0  0  0  0  0  0  0  0  0
  145.1814  138.6047  154.8434 C   0  0  0  0  0  0  0  0  0  0  0  0
  145.1664  138.4710  153.3730 N   0  3  0  0  0  0  0  0  0  0  0  0
  146.5414  138.6599  152.8650 C   0  0  0  0  0  0  0  0  0  0  0  0
  147.8783  136.8670  153.5969 H   0  0  0  0  0  0  0  0  0  0  0  0
  149.2486  139.1098  152.9154 H   0  0  0  0  0  0  0  0  0  0  0  0
  148.5488  140.4858  153.6942 H   0  0  0  0  0  0  0  0  0  0  0  0
  149.5665  141.2966  155.6438 H   0  0  0  0  0  0  0  0  0  0  0  0
  148.4804  140.1329  156.3632 H   0  0  0  0  0  0  0  0  0  0  0  0
  150.2442  140.8676  157.9613 H   0  0  0  0  0  0  0  0  0  0  0  0
  150.2257  139.1503  157.6990 H   0  0  0  0  0  0  0  0  0  0  0  0
  152.0457  141.2257  156.4295 H   0  0  0  0  0  0  0  0  0  0  0  0
  154.0369  139.8843  160.3737 H   0  0  0  0  0  0  0  0  0  0  0  0
  154.1883  141.7247  161.9606 H   0  0  0  0  0  0  0  0  0  0  0  0
  153.2946  143.9624  161.4015 H   0  0  0  0  0  0  0  0  0  0  0  0
  152.0636  142.4885  157.5410 H   0  0  0  0  0  0  0  0  0  0  0  0
  153.2067  139.5970  155.1193 H   0  0  0  0  0  0  0  0  0  0  0  0
  152.2650  138.2735  155.7361 H   0  0  0  0  0  0  0  0  0  0  0  0
  151.3742  138.9502  153.5762 H   0  0  0  0  0  0  0  0  0  0  0  0
  151.2321  140.6048  154.0799 H   0  0  0  0  0  0  0  0  0  0  0  0
  146.8715  138.9773  156.2063 H   0  0  0  0  0  0  0  0  0  0  0  0
  146.4316  140.3017  155.1272 H   0  0  0  0  0  0  0  0  0  0  0  0
  145.0928  137.6100  155.2819 H   0  0  0  0  0  0  0  0  0  0  0  0
  144.3434  139.2044  155.1998 H   0  0  0  0  0  0  0  0  0  0  0  0
  144.8295  137.5517  153.1245 H   0  0  0  0  0  0  0  0  0  0  0  0
  146.5658  139.6184  152.3453 H   0  0  0  0  0  0  0  0  0  0  0  0
  146.8143  137.8899  152.1421 H   0  0  0  0  0  0  0  0  0  0  0  0
  144.5656  139.1748  152.9685 H   0  0  0  0  0  0  0  0  0  0  0  0
  1  2  1  0  0  0  0
  1 25  1  0  0  0  0
  2 24  1  0  0  0  0
  2  3  1  0  0  0  0
  2 21  1  0  0  0  0
  3  4  1  0  0  0  0
  3 26  1  0  0  0  0
  3 27  1  0  0  0  0
  4 20  1  0  0  0  0
  4  5  1  0  0  0  0
  5  6  1  0  0  0  0
  5 28  1  0  0  0  0
  5 29  1  0  0  0  0
  6  7  1  0  0  0  0
  6 30  1  0  0  0  0
  6 31  1  0  0  0  0
  7  8  1  0  0  0  0
  7 19  1  0  0  0  0
  7 32  1  0  0  0  0
  8  9  1  0  0  0  0
  9 18  1  0  0  0  0
  9 10  2  0  0  0  0
 10 11  1  0  0  0  0
 10 33  1  0  0  0  0
 11 12  2  0  0  0  0
 11 34  1  0  0  0  0
 12 13  1  0  0  0  0
 12 35  1  0  0  0  0
 13 14  1  0  0  0  0
 13 18  2  0  0  0  0
 14 15  1  0  0  0  0
 14 16  1  0  0  0  0
 14 17  1  0  0  0  0
 18 36  1  0  0  0  0
 19 20  1  0  0  0  0
 19 37  1  0  0  0  0
 19 38  1  0  0  0  0
 20 39  1  0  0  0  0
 20 40  1  0  0  0  0
 21 22  1  0  0  0  0
 21 41  1  0  0  0  0
 21 42  1  0  0  0  0
 22 23  1  0  0  0  0
 22 43  1  0  0  0  0
 22 44  1  0  0  0  0
 23 24  1  0  0  0  0
 23 45  1  0  0  0  0
 23 48  1  0  0  0  0
 24 46  1  0  0  0  0
 24 47  1  0  0  0  0
M  CHG  1  23   1
M  END
> <s_m_source_file>
AV-unprocessed.smi

> <i_m_source_file_index>
67

> <i_lp_mmshare_version>
43012

> <i_f3d_flags>
0

> <s_epik_input>
W0NIMl0xW05IXVtDSDJdW0NIMl1bQ0BAXTEoW09IXSlbQ0gyXU4yW0NIMl1bQ0gyXVtDSF0oW0NIMl1bQ0gyXTIpT2MzW2NIXVtjSF1bY0hdYyhDKEYpKEYpRilbY0hdMw==

> <s_epik_cmdline>
J2VwaWtfcHl0aG9uJywgJy1waCcsICc3LjAnLCAnLXRuJywgJzgnLCAnLW1hJywgJzIwMCcsICctbWV0YWxfYmluZGluZycsICctaW1hZScsICc8aW5maWxlLm1hZT4nLCAnLW9tYWUnLCAnPG91dGZpbGUubWFlPic=

> <r_lp_tautomer_probability>
1

> <r_epik_Ionization_Penalty>
1.18002

> <r_epik_Ionization_Penalty_Charging>
0.00399663

> <r_epik_Ionization_Penalty_Neutral>
1.17602

> <r_epik_State_Penalty>
1.25421

> <r_epik_Charging_Adjusted_Penalty>
1.25821

> <i_epik_Tot_Q>
1

> <i_epik_Tot_abs_Q>
1

> <r_epik_Metal_State_Penalty>
1.25387

> <b_epik_Metal_Only>
0

> <s_lp_Force_Field>
OPLS_2005

> <r_lp_Energy>
62.5676

> <b_lp_Chiralities_Consistent>
1

> <s_lp_Variant>
AV-unprocessed.smi:67-6

> <Gold.Version>
5.8.1

> <Gold.Id.Protein>
6NUR|6NUR_protein|mol2

> <Gold.PLP.Fitness>
59.3685

> <Gold.PLP.PLP>
-48.5929

> <Gold.PLP.part.hbond>
-3.0000

> <Gold.PLP.part.metal>
0.0000

> <Gold.PLP.part.buried>
-2.9272

> <Gold.PLP.part.nonpolar>
-43.0826

> <Gold.PLP.part.repulsive>
0.0859

> <Gold.PLP.ligand.clash>
0.3375

> <Gold.PLP.ligand.torsion>
0.8406

> <Gold.PLP.Chemscore.Hbond>
4.0000

> <Gold.PLP.Chemscore.CHOScore>
0.0000

> <Gold.PLP.Chemscore.Metal>
0.0000

> <Gold.Chemscore.Hbonds>
donor molecule, donor type, donor heavy atom, donor atom, acceptor molecule, acceptor atom, score
      L1  H     1    25       P1  7948  0.73
      L1  H    23    48       P1 10175  2.00
      P1  H  7997  8010       L1     8  1.00

> <Gold.PLP.Chemscore.Internal.Correction>
0.7944

> <Gold.Rescore>
     Score         DG    S(hbond)    S(metal)    S(lipo)     H(rot)  DE(clash)    DE(int)     intcor
     17.86     -21.71       2.24        0.00     122.68       2.19       2.72       1.13       ----

> <Gold.Chemscore.Fitness>
17.8637

> <Gold.Chemscore.DG>
-21.7121

> <Gold.Chemscore.ZeroCoef>
-5.4800

> <Gold.Chemscore.Hbond>
2.2399

> <Gold.Chemscore.Metal>
0.0000

> <Gold.Chemscore.Lipo>
122.6827

> <Gold.Chemscore.Internal_Hbond>
0.0000

> <Gold.Chemscore.DEClash>
2.7181

> <Gold.Chemscore.DEInternal>
1.1304

> <Gold.Chemscore.Rot>
2.1887

> <Gold.Chemscore.Internal.Correction>
   9.000000E+99

> <Gold.Chemscore.Hbonds>
donor molecule, donor type, donor heavy atom, donor atom, acceptor molecule, acceptor atom, score
      L1  H     1    25       P1  7948  0.70
      L1  H    23    48       P1 10175  1.00
      P1  H  7997  8010       L1     8  0.18

> <Gold.Chemscore.Hbond.Weighted>
-7.4814

> <Gold.Chemscore.Metal.Weighted>
-0.0000

> <Gold.Chemscore.Lipo.Weighted>
-14.3539

> <Gold.Chemscore.Internal_Hbond.Weighted>
0.0000

> <Gold.Chemscore.DEClash.Weighted>
2.7181

> <Gold.Chemscore.DEInternal.Weighted>
1.1304

> <Gold.Chemscore.Rot.Weighted>
5.6032

> <Gold.Chemscore.Internal.Correction.Weighted>
   9.000000E+99

> <Gold.Protein.RotatedTorsions>
[ 6907 6896 6895 6894 ] final    0.23 input  -60.11 | X-H torsion
[ 7974 7965 7964 7962 ] final  126.67 input  175.53 | X-H torsion
[ 8008 7997 7996 7995 ] final   48.02 input   59.86 | X-H torsion
[ 10167 10162 10161 10158 ] final -106.88 input  -65.29 | X-H torsion
[ 10718 10713 10712 10709 ] final  -70.70 input   66.30 | X-H torsion
[ 10763 10752 10751 10750 ] final   15.38 input  -60.55 | X-H torsion
[ 11005 11000 10999 10996 ] final -178.40 input  -57.11 | X-H torsion

> <Gold.Protein.ActiveResidues>
 VAL166  LYS551  ARG553  GLY616  TRP617  ASP618  TYR619  PRO620  LYS621  CYS622 
 ASP623  PHE694  ASN695  SER759  ASP760  ASP761  ALA762  ILE779  LEU786  VAL792 
 PHE793  MET794  SER795  GLU796  ALA797  LYS798  CYS799  TRP800  GLU811  SER814 

> <Gold.Protein.RotatedAtoms>
  151.5730  135.1061  159.9999 H   0  0  0  0  0  0  0  0  0  0  0  0  # atno 6907 bound_to 6896
  152.4391  133.7411  159.6652 H   0  0  0  0  0  0  0  0  0  0  0  0  # atno 6908 bound_to 6896
  150.8294  133.8047  159.3128 H   0  0  0  0  0  0  0  0  0  0  0  0  # atno 6909 bound_to 6896
  145.0591  139.3819  143.5015 H   0  0  0  0  0  0  0  0  0  0  0  0  # atno 7974 bound_to 7965
  155.3787  140.3427  155.4246 H   0  0  0  0  0  0  0  0  0  0  0  0  # atno 8008 bound_to 7997
  156.1622  140.1604  156.8626 H   0  0  0  0  0  0  0  0  0  0  0  0  # atno 8009 bound_to 7997
  154.5151  140.0780  156.8047 H   0  0  0  0  0  0  0  0  0  0  0  0  # atno 8010 bound_to 7997
  140.1830  143.3952  152.1266 H   0  0  0  0  0  0  0  0  0  0  0  0  # atno 10167 bound_to 10162
  156.0396  130.4336  150.2334 H   0  0  0  0  0  0  0  0  0  0  0  0  # atno 10718 bound_to 10713
  153.1531  135.6782  153.8852 H   0  0  0  0  0  0  0  0  0  0  0  0  # atno 10763 bound_to 10752
  153.8272  135.3122  155.3417 H   0  0  0  0  0  0  0  0  0  0  0  0  # atno 10764 bound_to 10752
  154.7877  135.4852  154.0070 H   0  0  0  0  0  0  0  0  0  0  0  0  # atno 10765 bound_to 10752
  140.4302  134.6526  157.4708 H   0  0  0  0  0  0  0  0  0  0  0  0  # atno 11005 bound_to 11000
  146.3523  140.0281  142.8653 LP  0  0  0  0  0  0  0  0  0  0  0  0  # atno 17320 bound_to 7965
  145.1431  140.9582  143.4477 LP  0  0  0  0  0  0  0  0  0  0  0  0  # atno 17321 bound_to 7965
  139.5288  144.7135  151.5131 LP  0  0  0  0  0  0  0  0  0  0  0  0  # atno 17342 bound_to 10162
  140.6507  143.8703  150.6783 LP  0  0  0  0  0  0  0  0  0  0  0  0  # atno 17343 bound_to 10162
  157.0431  131.0041  151.3277 LP  0  0  0  0  0  0  0  0  0  0  0  0  # atno 17370 bound_to 10713
  157.5195  130.7989  149.7793 LP  0  0  0  0  0  0  0  0  0  0  0  0  # atno 17371 bound_to 10713
  140.0140  134.6648  155.9338 LP  0  0  0  0  0  0  0  0  0  0  0  0  # atno 17394 bound_to 11000
  141.1749  133.6539  156.4789 LP  0  0  0  0  0  0  0  0  0  0  0  0  # atno 17395 bound_to 11000

$$$$
