AV-unprocessed.smi:1493|AV-procd|sdf|6050|dock6
  -GOLD-   22720 6163D 1   1.00000     0.00000
 Structure written by MMmdl.
 34 34  0  0  0  0  0  0  0  0  1 V2000
  151.8209  145.7208  160.1926 C   0  0  0  0  0  0  0  0  0  0  0  0
  151.5905  144.2768  159.7346 C   0  0  0  0  0  0  0  0  0  0  0  0
  152.6985  143.3234  160.2164 C   0  0  0  0  0  0  0  0  0  0  0  0
  152.4581  141.8475  159.8452 C   0  0  2  0  0  0  0  0  0  0  0  0
  153.5967  140.9478  160.3532 C   0  0  0  0  0  0  0  0  0  0  0  0
  152.3136  141.7151  158.3989 N   0  0  0  0  0  0  0  0  0  0  0  0
  151.1651  141.5009  157.7345 C   0  0  0  0  0  0  0  0  0  0  0  0
  150.0827  141.3594  158.3026 O   0  0  0  0  0  0  0  0  0  0  0  0
  151.2157  141.4458  156.1975 C   0  0  0  0  0  0  0  0  0  0  0  0
  151.1766  140.0897  155.6253 N   0  0  0  0  0  0  0  0  0  0  0  0
  150.1390  139.8876  154.7276 N   0  0  0  0  0  0  0  0  0  0  0  0
  150.0059  138.7464  154.1409 C   0  0  0  0  0  0  0  0  0  0  0  0
  148.9662  138.5907  153.2572 O   0  0  0  0  0  0  0  0  0  0  0  0
  150.9229  137.6589  154.4033 C   0  0  0  0  0  0  0  0  0  0  0  0
  151.9296  137.8645  155.2806 C   0  0  0  0  0  0  0  0  0  0  0  0
  152.1118  139.1483  155.9603 C   0  0  0  0  0  0  0  0  0  0  0  0
  153.0287  139.3676  156.7511 O   0  0  0  0  0  0  0  0  0  0  0  0
  149.1576  137.7983  152.7798 H   0  0  0  0  0  0  0  0  0  0  0  0
  151.0226  146.3729  159.8377 H   0  0  0  0  0  0  0  0  0  0  0  0
  152.7642  146.1098  159.8083 H   0  0  0  0  0  0  0  0  0  0  0  0
  151.8473  145.7892  161.2806 H   0  0  0  0  0  0  0  0  0  0  0  0
  150.6247  143.9324  160.1059 H   0  0  0  0  0  0  0  0  0  0  0  0
  151.5267  144.2592  158.6459 H   0  0  0  0  0  0  0  0  0  0  0  0
  153.6569  143.6508  159.8104 H   0  0  0  0  0  0  0  0  0  0  0  0
  152.7863  143.4042  161.3007 H   0  0  0  0  0  0  0  0  0  0  0  0
  151.5288  141.5281  160.3208 H   0  0  0  0  0  0  0  0  0  0  0  0
  153.7079  141.0304  161.4346 H   0  0  0  0  0  0  0  0  0  0  0  0
  154.5503  141.2194  159.8991 H   0  0  0  0  0  0  0  0  0  0  0  0
  153.4068  139.8984  160.1254 H   0  0  0  0  0  0  0  0  0  0  0  0
  153.1559  141.8165  157.8514 H   0  0  0  0  0  0  0  0  0  0  0  0
  150.3982  142.0506  155.8016 H   0  0  0  0  0  0  0  0  0  0  0  0
  152.1270  141.9521  155.8741 H   0  0  0  0  0  0  0  0  0  0  0  0
  150.7980  136.7083  153.9062 H   0  0  0  0  0  0  0  0  0  0  0  0
  152.6216  137.0613  155.4863 H   0  0  0  0  0  0  0  0  0  0  0  0
  1  2  1  0  0  0  0
  1 19  1  0  0  0  0
  1 20  1  0  0  0  0
  1 21  1  0  0  0  0
  2  3  1  0  0  0  0
  2 22  1  0  0  0  0
  2 23  1  0  0  0  0
  3  4  1  0  0  0  0
  3 24  1  0  0  0  0
  3 25  1  0  0  0  0
  4  5  1  0  0  0  0
  4  6  1  0  0  0  0
  4 26  1  0  0  0  0
  5 27  1  0  0  0  0
  5 28  1  0  0  0  0
  5 29  1  0  0  0  0
  6  7  1  0  0  0  0
  6 30  1  0  0  0  0
  7  8  2  0  0  0  0
  7  9  1  0  0  0  0
  9 31  1  0  0  0  0
  9 32  1  0  0  0  0
  9 10  1  0  0  0  0
 10 11  1  0  0  0  0
 10 16  1  0  0  0  0
 11 12  2  0  0  0  0
 12 13  1  0  0  0  0
 12 14  1  0  0  0  0
 13 18  1  0  0  0  0
 14 33  1  0  0  0  0
 14 15  2  0  0  0  0
 15 34  1  0  0  0  0
 15 16  1  0  0  0  0
 16 17  2  0  0  0  0
M  END
> <s_m_source_file>
AV-unprocessed.smi

> <i_m_source_file_index>
1493

> <i_lp_mmshare_version>
43012

> <i_f3d_flags>
0

> <s_epik_input>
W0NIM11bQ0gyXVtDSDJdW0NASF0oW0NIM10pW05IXUMoPU8pW0NIMl1uMVtuSF1jKD1PKVtjSF1bY0hdYzE9Tw==

> <s_epik_cmdline>
J2VwaWtfcHl0aG9uJywgJy1waCcsICc3LjAnLCAnLXRuJywgJzgnLCAnLW1hJywgJzIwMCcsICctbWV0YWxfYmluZGluZycsICctaW1hZScsICc8aW5maWxlLm1hZT4nLCAnLW9tYWUnLCAnPG91dGZpbGUubWFlPic=

> <r_lp_tautomer_probability>
0.9996

> <r_epik_Ionization_Penalty>
2.12047

> <r_epik_Ionization_Penalty_Charging>
3.81971e-08

> <r_epik_Ionization_Penalty_Neutral>
2.12047

> <r_epik_State_Penalty>
1.69728

> <r_epik_Charging_Adjusted_Penalty>
1.69728

> <i_epik_Tot_Q>
0

> <i_epik_Tot_abs_Q>
0

> <r_epik_Metal_State_Penalty>
1.69728

> <b_epik_Metal_Only>
0

> <s_lp_Force_Field>
OPLS_2005

> <r_lp_Energy>
13.2358

> <b_lp_Chiralities_Consistent>
1

> <s_lp_Variant>
AV-unprocessed.smi:1493-3

> <Gold.Version>
5.8.1

> <Gold.Id.Protein>
6NUR|6NUR_protein|mol2

> <Gold.PLP.Fitness>
45.9992

> <Gold.PLP.PLP>
-40.8053

> <Gold.PLP.part.hbond>
-3.8440

> <Gold.PLP.part.metal>
0.0000

> <Gold.PLP.part.buried>
-5.0186

> <Gold.PLP.part.nonpolar>
-32.2384

> <Gold.PLP.part.repulsive>
0.2028

> <Gold.PLP.ligand.clash>
0.0000

> <Gold.PLP.ligand.torsion>
0.4140

> <Gold.PLP.Chemscore.Hbond>
2.0000

> <Gold.PLP.Chemscore.CHOScore>
0.0000

> <Gold.PLP.Chemscore.Metal>
0.0000

> <Gold.Chemscore.Hbonds>
donor molecule, donor type, donor heavy atom, donor atom, acceptor molecule, acceptor atom, score
      L1  H    13    18       P1  7948  1.00
      P1  H  7997  8009       L1    17  0.99

> <Gold.PLP.Chemscore.Internal.Correction>
0.0218

> <Gold.Rescore>
     Score         DG    S(hbond)    S(metal)    S(lipo)     H(rot)  DE(clash)    DE(int)     intcor
     13.66     -14.01       1.99        0.00      76.76       2.78       0.05       0.30       ----

> <Gold.Chemscore.Fitness>
13.6596

> <Gold.Chemscore.DG>
-14.0055

> <Gold.Chemscore.ZeroCoef>
-5.4800

> <Gold.Chemscore.Hbond>
1.9932

> <Gold.Chemscore.Metal>
0.0000

> <Gold.Chemscore.Lipo>
76.7621

> <Gold.Chemscore.Internal_Hbond>
0.0000

> <Gold.Chemscore.DEClash>
0.0504

> <Gold.Chemscore.DEInternal>
0.2955

> <Gold.Chemscore.Rot>
2.7785

> <Gold.Chemscore.Internal.Correction>
   9.000000E+99

> <Gold.Chemscore.Hbonds>
donor molecule, donor type, donor heavy atom, donor atom, acceptor molecule, acceptor atom, score
      L1  H    13    18       P1  7948  0.98
      P1  H  7997  8009       L1    17  0.92

> <Gold.Chemscore.Hbond.Weighted>
-6.6573

> <Gold.Chemscore.Metal.Weighted>
-0.0000

> <Gold.Chemscore.Lipo.Weighted>
-8.9812

> <Gold.Chemscore.Internal_Hbond.Weighted>
0.0000

> <Gold.Chemscore.DEClash.Weighted>
0.0504

> <Gold.Chemscore.DEInternal.Weighted>
0.2955

> <Gold.Chemscore.Rot.Weighted>
7.1129

> <Gold.Chemscore.Internal.Correction.Weighted>
   9.000000E+99

> <Gold.Protein.RotatedTorsions>
[ 6907 6896 6895 6894 ] final  160.24 input  -60.11 | X-H torsion
[ 7974 7965 7964 7962 ] final -155.30 input  175.53 | X-H torsion
[ 8008 7997 7996 7995 ] final -170.00 input   59.86 | X-H torsion
[ 10167 10162 10161 10158 ] final  125.92 input  -65.29 | X-H torsion
[ 10718 10713 10712 10709 ] final -116.90 input   66.30 | X-H torsion
[ 10763 10752 10751 10750 ] final -179.21 input  -60.55 | X-H torsion
[ 11005 11000 10999 10996 ] final   71.82 input  -57.11 | X-H torsion

> <Gold.Protein.ActiveResidues>
 VAL166  LYS551  ARG553  GLY616  TRP617  ASP618  TYR619  PRO620  LYS621  CYS622 
 ASP623  PHE694  ASN695  SER759  ASP760  ASP761  ALA762  ILE779  LEU786  VAL792 
 PHE793  MET794  SER795  GLU796  ALA797  LYS798  CYS799  TRP800  GLU811  SER814 

> <Gold.Protein.RotatedAtoms>
  151.9736  133.3734  159.4080 H   0  0  0  0  0  0  0  0  0  0  0  0  # atno 6907 bound_to 6896
  150.6945  134.4114  159.5172 H   0  0  0  0  0  0  0  0  0  0  0  0  # atno 6908 bound_to 6896
  152.1821  134.8744  160.0576 H   0  0  0  0  0  0  0  0  0  0  0  0  # atno 6909 bound_to 6896
  144.7647  140.4269  143.5951 H   0  0  0  0  0  0  0  0  0  0  0  0  # atno 7974 bound_to 7965
  155.9125  140.1060  157.1269 H   0  0  0  0  0  0  0  0  0  0  0  0  # atno 8008 bound_to 7997
  154.4041  140.1271  156.4640 H   0  0  0  0  0  0  0  0  0  0  0  0  # atno 8009 bound_to 7997
  155.7293  140.3468  155.5054 H   0  0  0  0  0  0  0  0  0  0  0  0  # atno 8010 bound_to 7997
  139.5659  144.6911  151.3912 H   0  0  0  0  0  0  0  0  0  0  0  0  # atno 10167 bound_to 10162
  156.0996  130.6161  150.9095 H   0  0  0  0  0  0  0  0  0  0  0  0  # atno 10718 bound_to 10713
  154.5379  135.2804  155.1122 H   0  0  0  0  0  0  0  0  0  0  0  0  # atno 10763 bound_to 10752
  154.2616  135.6320  153.5280 H   0  0  0  0  0  0  0  0  0  0  0  0  # atno 10764 bound_to 10752
  152.9972  135.5607  154.5910 H   0  0  0  0  0  0  0  0  0  0  0  0  # atno 10765 bound_to 10752
  139.9523  134.7205  156.0833 H   0  0  0  0  0  0  0  0  0  0  0  0  # atno 11005 bound_to 11000
  145.6508  139.1564  143.2863 LP  0  0  0  0  0  0  0  0  0  0  0  0  # atno 17320 bound_to 7965
  146.1743  140.6596  142.9218 LP  0  0  0  0  0  0  0  0  0  0  0  0  # atno 17321 bound_to 7965
  140.6942  143.7789  150.7301 LP  0  0  0  0  0  0  0  0  0  0  0  0  # atno 17342 bound_to 10162
  140.1280  143.4551  152.2272 LP  0  0  0  0  0  0  0  0  0  0  0  0  # atno 17343 bound_to 10162
  157.6164  131.0933  150.8703 LP  0  0  0  0  0  0  0  0  0  0  0  0  # atno 17370 bound_to 10713
  156.8834  130.5187  149.5290 LP  0  0  0  0  0  0  0  0  0  0  0  0  # atno 17371 bound_to 10713
  141.1189  133.6619  156.3163 LP  0  0  0  0  0  0  0  0  0  0  0  0  # atno 17394 bound_to 11000
  140.5689  134.5860  157.5453 LP  0  0  0  0  0  0  0  0  0  0  0  0  # atno 17395 bound_to 11000

$$$$
