AV-unprocessed.smi:2774|AV-procd|sdf|10683|dock5
  -GOLD-   2272015123D 1   1.00000     0.00000
 Structure written by MMmdl.
 35 36  0  0  0  0  0  0  0  0  2 V2000
  148.6192  140.8096  154.5316 O   0  0  0  0  0  0  0  0  0  0  0  0
  149.8998  141.0801  155.0668 C   0  0  1  0  0  0  0  0  0  0  0  0
  149.7299  141.6659  156.4797 C   0  0  0  0  0  0  0  0  0  0  0  0
  150.5336  142.8952  156.6552 N   0  3  0  0  0  0  0  0  0  0  0  0
  150.9092  143.2108  158.0512 C   0  0  1  0  0  0  0  0  0  0  0  0
  151.7406  142.0493  158.6303 C   0  0  0  0  0  0  0  0  0  0  0  0
  152.1016  142.2519  160.1113 C   0  0  0  0  0  0  0  0  0  0  0  0
  152.9496  143.5100  160.3408 C   0  0  0  0  0  0  0  0  0  0  0  0
  152.0492  145.0027  159.8443 S   0  0  0  0  0  0  0  0  0  0  0  0
  151.6834  144.5431  158.1285 C   0  0  0  0  0  0  0  0  0  0  0  0
  150.7696  139.8334  155.0868 C   0  0  0  0  0  0  0  0  0  0  0  0
  150.3241  138.6373  154.4858 C   0  0  0  0  0  0  0  0  0  0  0  0
  151.1676  137.5087  154.5250 C   0  0  0  0  0  0  0  0  0  0  0  0
  152.3853  137.5130  155.1081 N   0  0  0  0  0  0  0  0  0  0  0  0
  152.8072  138.6600  155.6817 C   0  0  0  0  0  0  0  0  0  0  0  0
  152.0420  139.8432  155.6984 C   0  0  0  0  0  0  0  0  0  0  0  0
  148.3424  141.5584  154.0244 H   0  0  0  0  0  0  0  0  0  0  0  0
  150.3728  141.8236  154.4234 H   0  0  0  0  0  0  0  0  0  0  0  0
  148.6775  141.8715  156.6752 H   0  0  0  0  0  0  0  0  0  0  0  0
  150.0539  140.9327  157.2196 H   0  0  0  0  0  0  0  0  0  0  0  0
  151.3852  142.7734  156.1264 H   0  0  0  0  0  0  0  0  0  0  0  0
  149.9922  143.2939  158.6368 H   0  0  0  0  0  0  0  0  0  0  0  0
  151.1814  141.1179  158.5314 H   0  0  0  0  0  0  0  0  0  0  0  0
  152.6540  141.9185  158.0482 H   0  0  0  0  0  0  0  0  0  0  0  0
  151.1916  142.3071  160.7100 H   0  0  0  0  0  0  0  0  0  0  0  0
  152.6497  141.3803  160.4702 H   0  0  0  0  0  0  0  0  0  0  0  0
  153.2185  143.5977  161.3937 H   0  0  0  0  0  0  0  0  0  0  0  0
  153.8808  143.4508  159.7766 H   0  0  0  0  0  0  0  0  0  0  0  0
  152.6202  144.4749  157.5739 H   0  0  0  0  0  0  0  0  0  0  0  0
  151.1126  145.3591  157.6870 H   0  0  0  0  0  0  0  0  0  0  0  0
  149.3588  138.5785  154.0047 H   0  0  0  0  0  0  0  0  0  0  0  0
  150.8560  136.5780  154.0745 H   0  0  0  0  0  0  0  0  0  0  0  0
  153.7847  138.6351  156.1401 H   0  0  0  0  0  0  0  0  0  0  0  0
  152.4275  140.7354  156.1698 H   0  0  0  0  0  0  0  0  0  0  0  0
  150.0267  143.6781  156.2669 H   0  0  0  0  0  0  0  0  0  0  0  0
  1  2  1  0  0  0  0
  1 17  1  0  0  0  0
  2  3  1  0  0  0  0
  2 11  1  0  0  0  0
  2 18  1  0  0  0  0
  3  4  1  0  0  0  0
  3 19  1  0  0  0  0
  3 20  1  0  0  0  0
  4  5  1  0  0  0  0
  4 21  1  0  0  0  0
  4 35  1  0  0  0  0
  5 10  1  0  0  0  0
  5  6  1  0  0  0  0
  5 22  1  0  0  0  0
  6  7  1  0  0  0  0
  6 23  1  0  0  0  0
  6 24  1  0  0  0  0
  7  8  1  0  0  0  0
  7 25  1  0  0  0  0
  7 26  1  0  0  0  0
  8  9  1  0  0  0  0
  8 27  1  0  0  0  0
  8 28  1  0  0  0  0
  9 10  1  0  0  0  0
 10 29  1  0  0  0  0
 10 30  1  0  0  0  0
 11 16  1  0  0  0  0
 11 12  2  0  0  0  0
 12 13  1  0  0  0  0
 12 31  1  0  0  0  0
 13 14  2  0  0  0  0
 13 32  1  0  0  0  0
 14 15  1  0  0  0  0
 15 16  2  0  0  0  0
 15 33  1  0  0  0  0
 16 34  1  0  0  0  0
M  CHG  1   4   1
M  END
> <s_m_source_file>
AV-unprocessed.smi

> <i_m_source_file_index>
2774

> <i_lp_mmshare_version>
43012

> <i_f3d_flags>
0

> <s_epik_input>
W2NIXTFbY0hdbltjSF1bY0hdYzFbQ0BIXShbT0hdKVtDSDJdW05IXVtDQEBIXTJbQ0gyXVtDSDJdW0NIMl1TW0NIMl0y

> <s_epik_cmdline>
J2VwaWtfcHl0aG9uJywgJy1waCcsICc3LjAnLCAnLXRuJywgJzgnLCAnLW1hJywgJzIwMCcsICctbWV0YWxfYmluZGluZycsICctaW1hZScsICc8aW5maWxlLm1hZT4nLCAnLW9tYWUnLCAnPG91dGZpbGUubWFlPic=

> <r_epik_Ionization_Penalty>
0.0205977

> <r_epik_Ionization_Penalty_Charging>
0.0185619

> <r_epik_Ionization_Penalty_Neutral>
0.00203589

> <r_epik_State_Penalty>
0.0147768

> <r_epik_Charging_Adjusted_Penalty>
0.0333386

> <i_epik_Tot_Q>
1

> <i_epik_Tot_abs_Q>
1

> <r_epik_Metal_State_Penalty>
0.0152254

> <b_epik_Metal_Only>
0

> <s_lp_Force_Field>
OPLS_2005

> <r_lp_Energy>
9.96731

> <b_lp_Chiralities_Consistent>
1

> <s_lp_Variant>
AV-unprocessed.smi:2774-4

> <Gold.Version>
5.8.1

> <Gold.Id.Protein>
6NUR|6NUR_protein|mol2

> <Gold.PLP.Fitness>
49.9016

> <Gold.PLP.PLP>
-40.7405

> <Gold.PLP.part.hbond>
-2.0000

> <Gold.PLP.part.metal>
0.0000

> <Gold.PLP.part.buried>
-2.0189

> <Gold.PLP.part.nonpolar>
-35.8918

> <Gold.PLP.part.repulsive>
0.1326

> <Gold.PLP.ligand.clash>
0.0000

> <Gold.PLP.ligand.torsion>
0.9075

> <Gold.PLP.Chemscore.Hbond>
2.7360

> <Gold.PLP.Chemscore.CHOScore>
0.9161

> <Gold.PLP.Chemscore.Metal>
0.0000

> <Gold.Chemscore.Hbonds>
donor molecule, donor type, donor heavy atom, donor atom, acceptor molecule, acceptor atom, score
      L1  H     4    35       P1  8028  2.00
      P1  H 10752 10765       L1    14  0.48
      L1  C    13    32       P1  7948  0.04
      L1  C    13    32       P1  7949  0.52

> <Gold.PLP.Chemscore.Internal.Correction>
0.0199

> <Gold.Rescore>
     Score         DG    S(hbond)    S(metal)    S(lipo)     H(rot)  DE(clash)    DE(int)     intcor
     19.42     -20.35       1.89        0.00     116.12       1.97       0.02       0.90       ----

> <Gold.Chemscore.Fitness>
19.4241

> <Gold.Chemscore.DG>
-20.3499

> <Gold.Chemscore.ZeroCoef>
-5.4800

> <Gold.Chemscore.Hbond>
1.8931

> <Gold.Chemscore.Metal>
0.0000

> <Gold.Chemscore.Lipo>
116.1243

> <Gold.Chemscore.Internal_Hbond>
0.0000

> <Gold.Chemscore.DEClash>
0.0246

> <Gold.Chemscore.DEInternal>
0.9012

> <Gold.Chemscore.Rot>
1.9686

> <Gold.Chemscore.Internal.Correction>
   9.000000E+99

> <Gold.Chemscore.Hbonds>
donor molecule, donor type, donor heavy atom, donor atom, acceptor molecule, acceptor atom, score
      L1  H     4    35       P1  8028  1.00
      P1  H 10752 10765       L1    14  0.07

> <Gold.Chemscore.Hbond.Weighted>
-6.3229

> <Gold.Chemscore.Metal.Weighted>
-0.0000

> <Gold.Chemscore.Lipo.Weighted>
-13.5865

> <Gold.Chemscore.Internal_Hbond.Weighted>
0.0000

> <Gold.Chemscore.DEClash.Weighted>
0.0246

> <Gold.Chemscore.DEInternal.Weighted>
0.9012

> <Gold.Chemscore.Rot.Weighted>
5.0396

> <Gold.Chemscore.Internal.Correction.Weighted>
   9.000000E+99

> <Gold.Protein.RotatedTorsions>
[ 6907 6896 6895 6894 ] final  -13.53 input  -60.11 | X-H torsion
[ 7974 7965 7964 7962 ] final  162.60 input  175.53 | X-H torsion
[ 8008 7997 7996 7995 ] final  149.08 input   59.86 | X-H torsion
[ 10167 10162 10161 10158 ] final -144.10 input  -65.29 | X-H torsion
[ 10718 10713 10712 10709 ] final  -28.68 input   66.30 | X-H torsion
[ 10763 10752 10751 10750 ] final  170.51 input  -60.55 | X-H torsion
[ 11005 11000 10999 10996 ] final -148.83 input  -57.11 | X-H torsion

> <Gold.Protein.ActiveResidues>
 VAL166  LYS551  ARG553  GLY616  TRP617  ASP618  TYR619  PRO620  LYS621  CYS622 
 ASP623  PHE694  ASN695  SER759  ASP760  ASP761  ALA762  ILE779  LEU786  VAL792 
 PHE793  MET794  SER795  GLU796  ALA797  LYS798  CYS799  TRP800  GLU811  SER814 

> <Gold.Protein.RotatedAtoms>
  151.3534  135.0889  159.9410 H   0  0  0  0  0  0  0  0  0  0  0  0  # atno 6907 bound_to 6896
  152.5181  133.9330  159.7600 H   0  0  0  0  0  0  0  0  0  0  0  0  # atno 6908 bound_to 6896
  150.9709  133.6291  159.2767 H   0  0  0  0  0  0  0  0  0  0  0  0  # atno 6909 bound_to 6896
  144.7629  139.8063  143.6326 H   0  0  0  0  0  0  0  0  0  0  0  0  # atno 7974 bound_to 7965
  156.2768  140.2111  156.5801 H   0  0  0  0  0  0  0  0  0  0  0  0  # atno 8008 bound_to 7997
  154.7065  140.0516  157.0532 H   0  0  0  0  0  0  0  0  0  0  0  0  # atno 8009 bound_to 7997
  155.0663  140.3172  155.4647 H   0  0  0  0  0  0  0  0  0  0  0  0  # atno 8010 bound_to 7997
  139.7930  143.7939  152.2651 H   0  0  0  0  0  0  0  0  0  0  0  0  # atno 10167 bound_to 10162
  156.4222  130.4428  149.7176 H   0  0  0  0  0  0  0  0  0  0  0  0  # atno 10718 bound_to 10713
  154.3987  135.2755  155.2110 H   0  0  0  0  0  0  0  0  0  0  0  0  # atno 10763 bound_to 10752
  154.4145  135.6014  153.5976 H   0  0  0  0  0  0  0  0  0  0  0  0  # atno 10764 bound_to 10752
  152.9831  135.5957  154.4252 H   0  0  0  0  0  0  0  0  0  0  0  0  # atno 10765 bound_to 10752
  140.7571  134.3341  157.5111 H   0  0  0  0  0  0  0  0  0  0  0  0  # atno 11005 bound_to 11000
  146.1709  139.4859  142.9928 LP  0  0  0  0  0  0  0  0  0  0  0  0  # atno 17320 bound_to 7965
  145.6562  141.0251  143.1733 LP  0  0  0  0  0  0  0  0  0  0  0  0  # atno 17321 bound_to 7965
  139.8036  144.7364  150.9791 LP  0  0  0  0  0  0  0  0  0  0  0  0  # atno 17342 bound_to 10162
  140.7820  143.4320  151.0680 LP  0  0  0  0  0  0  0  0  0  0  0  0  # atno 17343 bound_to 10162
  156.4112  130.7723  151.2736 LP  0  0  0  0  0  0  0  0  0  0  0  0  # atno 17370 bound_to 10713
  157.7508  131.0211  150.3734 LP  0  0  0  0  0  0  0  0  0  0  0  0  # atno 17371 bound_to 10713
  139.8777  134.9178  156.3189 LP  0  0  0  0  0  0  0  0  0  0  0  0  # atno 17394 bound_to 11000
  140.9697  133.7335  156.0518 LP  0  0  0  0  0  0  0  0  0  0  0  0  # atno 17395 bound_to 11000

$$$$
