AV-unprocessed.smi:1473|AV-procd|sdf|5970|dock2
  -GOLD-   22720 6 53D 1   1.00000     0.00000
 Structure written by MMmdl.
 33 34  0  0  0  0  0  0  0  0  2 V2000
  147.9119  143.8127  159.9541 N   0  5  0  0  0  0  0  0  0  0  0  0
  146.3116  143.9399  160.1040 S   0  0  0  0  0  0  0  0  0  0  0  0
  145.6363  142.6593  160.3663 O   0  0  0  0  0  0  0  0  0  0  0  0
  145.8831  145.1212  160.8684 O   0  0  0  0  0  0  0  0  0  0  0  0
  145.9979  144.3111  158.4548 N   0  0  0  0  0  0  0  0  0  0  0  0
  145.1681  143.4392  157.6301 C   0  0  0  0  0  0  0  0  0  0  0  0
  145.9069  142.9459  156.4041 C   0  0  0  0  0  0  0  0  0  0  0  0
  145.4166  143.2199  155.1116 C   0  0  0  0  0  0  0  0  0  0  0  0
  146.1332  142.7251  154.0049 C   0  0  0  0  0  0  0  0  0  0  0  0
  147.2656  141.9989  154.1196 N   0  0  0  0  0  0  0  0  0  0  0  0
  147.7324  141.7305  155.3633 C   0  0  0  0  0  0  0  0  0  0  0  0
  148.9020  140.9671  155.4868 N   0  0  0  0  0  0  0  0  0  0  0  0
  149.1640  140.1140  154.3341 C   0  0  0  0  0  0  0  0  0  0  0  0
  150.3895  139.2247  154.6058 C   0  0  0  0  0  0  0  0  0  0  0  0
  151.5077  140.0428  154.9388 O   0  0  0  0  0  0  0  0  0  0  0  0
  151.2718  140.8200  156.1098 C   0  0  0  0  0  0  0  0  0  0  0  0
  150.0675  141.7497  155.8788 C   0  0  0  0  0  0  0  0  0  0  0  0
  147.0865  142.1848  156.5323 C   0  0  0  0  0  0  0  0  0  0  0  0
  148.1455  143.8633  158.9551 H   0  0  0  0  0  0  0  0  0  0  0  0
  146.7127  144.8592  157.9771 H   0  0  0  0  0  0  0  0  0  0  0  0
  144.8493  142.5810  158.2228 H   0  0  0  0  0  0  0  0  0  0  0  0
  144.2649  143.9763  157.3387 H   0  0  0  0  0  0  0  0  0  0  0  0
  144.5115  143.7924  154.9705 H   0  0  0  0  0  0  0  0  0  0  0  0
  145.7864  142.9156  153.0000 H   0  0  0  0  0  0  0  0  0  0  0  0
  148.2900  139.4956  154.1262 H   0  0  0  0  0  0  0  0  0  0  0  0
  149.3431  140.7290  153.4509 H   0  0  0  0  0  0  0  0  0  0  0  0
  150.1878  138.5198  155.4140 H   0  0  0  0  0  0  0  0  0  0  0  0
  150.6299  138.6355  153.7211 H   0  0  0  0  0  0  0  0  0  0  0  0
  151.0990  140.1641  156.9645 H   0  0  0  0  0  0  0  0  0  0  0  0
  152.1629  141.4067  156.3330 H   0  0  0  0  0  0  0  0  0  0  0  0
  150.3046  142.4751  155.0992 H   0  0  0  0  0  0  0  0  0  0  0  0
  149.8474  142.3111  156.7876 H   0  0  0  0  0  0  0  0  0  0  0  0
  147.4842  141.9487  157.5090 H   0  0  0  0  0  0  0  0  0  0  0  0
  1  2  1  0  0  0  0
  1 19  1  0  0  0  0
  2  3  2  0  0  0  0
  2  4  2  0  0  0  0
  2  5  1  0  0  0  0
  5  6  1  0  0  0  0
  5 20  1  0  0  0  0
  6  7  1  0  0  0  0
  6 21  1  0  0  0  0
  6 22  1  0  0  0  0
  7 18  1  0  0  0  0
  7  8  2  0  0  0  0
  8  9  1  0  0  0  0
  8 23  1  0  0  0  0
  9 10  2  0  0  0  0
  9 24  1  0  0  0  0
 10 11  1  0  0  0  0
 11 12  1  0  0  0  0
 11 18  2  0  0  0  0
 12 17  1  0  0  0  0
 12 13  1  0  0  0  0
 13 14  1  0  0  0  0
 13 25  1  0  0  0  0
 13 26  1  0  0  0  0
 14 15  1  0  0  0  0
 14 27  1  0  0  0  0
 14 28  1  0  0  0  0
 15 16  1  0  0  0  0
 16 17  1  0  0  0  0
 16 29  1  0  0  0  0
 16 30  1  0  0  0  0
 17 31  1  0  0  0  0
 17 32  1  0  0  0  0
 18 33  1  0  0  0  0
M  CHG  1   1  -1
M  END
> <s_m_source_file>
AV-unprocessed.smi

> <i_m_source_file_index>
1473

> <i_lp_mmshare_version>
43012

> <i_f3d_flags>
0

> <s_epik_input>
W05IMl1TKD1PKSg9TylbTkhdW0NIMl1jMVtjSF1bY0hdbmMoW2NIXTEpTjJbQ0gyXVtDSDJdT1tDSDJdW0NIMl0y

> <s_epik_cmdline>
J2VwaWtfcHl0aG9uJywgJy1waCcsICc3LjAnLCAnLXRuJywgJzgnLCAnLW1hJywgJzIwMCcsICctbWV0YWxfYmluZGluZycsICctaW1hZScsICc8aW5maWxlLm1hZT4nLCAnLW9tYWUnLCAnPG91dGZpbGUubWFlPic=

> <r_lp_tautomer_probability>
1

> <r_epik_Ionization_Penalty>
2.7939

> <r_epik_Ionization_Penalty_Charging>
2.75358

> <r_epik_Ionization_Penalty_Neutral>
0.0403146

> <r_epik_State_Penalty>
2.98411

> <r_epik_Charging_Adjusted_Penalty>
5.73769

> <i_epik_Tot_Q>
-1

> <i_epik_Tot_abs_Q>
1

> <r_epik_Metal_State_Penalty>
0.875881

> <b_epik_Metal_Only>
1

> <s_lp_Force_Field>
OPLS_2005

> <r_lp_Energy>
15.423

> <b_lp_Chiralities_Consistent>
1

> <s_lp_Variant>
AV-unprocessed.smi:1473-5

> <Gold.Version>
5.8.1

> <Gold.Id.Protein>
6NUR|6NUR_protein|mol2

> <Gold.PLP.Fitness>
43.3988

> <Gold.PLP.PLP>
-29.3782

> <Gold.PLP.part.hbond>
-4.0000

> <Gold.PLP.part.metal>
0.0000

> <Gold.PLP.part.buried>
-5.2350

> <Gold.PLP.part.nonpolar>
-20.8193

> <Gold.PLP.part.repulsive>
0.4213

> <Gold.PLP.ligand.clash>
0.0000

> <Gold.PLP.ligand.torsion>
1.0489

> <Gold.PLP.Chemscore.Hbond>
4.9840

> <Gold.PLP.Chemscore.CHOScore>
0.0000

> <Gold.PLP.Chemscore.Metal>
0.0000

> <Gold.Chemscore.Hbonds>
donor molecule, donor type, donor heavy atom, donor atom, acceptor molecule, acceptor atom, score
      L1  H     5    20       P1  8029  1.00
      P1  H  6933  6944       L1     1  1.37
      P1  H  6934  6946       L1     3  0.50
      P1  H  7989  7998       L1    15  0.95

> <Gold.PLP.Chemscore.Internal.Correction>
1.1663

> <Gold.Rescore>
     Score         DG    S(hbond)    S(metal)    S(lipo)     H(rot)  DE(clash)    DE(int)     intcor
     14.42     -15.34       2.95        0.00      41.08       1.88       0.01       0.91       ----

> <Gold.Chemscore.Fitness>
14.4177

> <Gold.Chemscore.DG>
-15.3361

> <Gold.Chemscore.ZeroCoef>
-5.4800

> <Gold.Chemscore.Hbond>
2.9539

> <Gold.Chemscore.Metal>
0.0000

> <Gold.Chemscore.Lipo>
41.0828

> <Gold.Chemscore.Internal_Hbond>
0.0000

> <Gold.Chemscore.DEClash>
0.0090

> <Gold.Chemscore.DEInternal>
0.9093

> <Gold.Chemscore.Rot>
1.8814

> <Gold.Chemscore.Internal.Correction>
   9.000000E+99

> <Gold.Chemscore.Hbonds>
donor molecule, donor type, donor heavy atom, donor atom, acceptor molecule, acceptor atom, score
      L1  H     5    20       P1  8029  0.74
      P1  H  6933  6944       L1     1  0.37
      P1  H  6934  6946       L1     3  0.48
      P1  H  7989  7998       L1    15  0.20

> <Gold.Chemscore.Hbond.Weighted>
-9.8659

> <Gold.Chemscore.Metal.Weighted>
-0.0000

> <Gold.Chemscore.Lipo.Weighted>
-4.8067

> <Gold.Chemscore.Internal_Hbond.Weighted>
0.0000

> <Gold.Chemscore.DEClash.Weighted>
0.0090

> <Gold.Chemscore.DEInternal.Weighted>
0.9093

> <Gold.Chemscore.Rot.Weighted>
4.8165

> <Gold.Chemscore.Internal.Correction.Weighted>
   9.000000E+99

> <Gold.Protein.RotatedTorsions>
[ 6907 6896 6895 6894 ] final  117.27 input  -60.11 | X-H torsion
[ 7974 7965 7964 7962 ] final  139.54 input  175.53 | X-H torsion
[ 8008 7997 7996 7995 ] final  133.33 input   59.86 | X-H torsion
[ 10167 10162 10161 10158 ] final -116.17 input  -65.29 | X-H torsion
[ 10718 10713 10712 10709 ] final   61.50 input   66.30 | X-H torsion
[ 10763 10752 10751 10750 ] final   94.05 input  -60.55 | X-H torsion
[ 11005 11000 10999 10996 ] final  -26.04 input  -57.11 | X-H torsion

> <Gold.Protein.ActiveResidues>
 VAL166  LYS551  ARG553  GLY616  TRP617  ASP618  TYR619  PRO620  LYS621  CYS622 
 ASP623  PHE694  ASN695  SER759  ASP760  ASP761  ALA762  ILE779  LEU786  VAL792 
 PHE793  MET794  SER795  GLU796  ALA797  LYS798  CYS799  TRP800  GLU811  SER814 

> <Gold.Protein.RotatedAtoms>
  152.4623  133.7849  159.6870 H   0  0  0  0  0  0  0  0  0  0  0  0  # atno 6907 bound_to 6896
  150.8572  133.7687  159.3011 H   0  0  0  0  0  0  0  0  0  0  0  0  # atno 6908 bound_to 6896
  151.5264  135.1071  159.9943 H   0  0  0  0  0  0  0  0  0  0  0  0  # atno 6909 bound_to 6896
  144.9269  139.5096  143.5636 H   0  0  0  0  0  0  0  0  0  0  0  0  # atno 7974 bound_to 7965
  156.2991  140.2524  156.3236 H   0  0  0  0  0  0  0  0  0  0  0  0  # atno 8008 bound_to 7997
  154.9212  140.0400  157.2018 H   0  0  0  0  0  0  0  0  0  0  0  0  # atno 8009 bound_to 7997
  154.8309  140.2875  155.5727 H   0  0  0  0  0  0  0  0  0  0  0  0  # atno 8010 bound_to 7997
  140.0821  143.4778  152.1920 H   0  0  0  0  0  0  0  0  0  0  0  0  # atno 10167 bound_to 10162
  157.5832  130.8998  149.9469 H   0  0  0  0  0  0  0  0  0  0  0  0  # atno 10718 bound_to 10713
  153.2372  135.4303  155.0659 H   0  0  0  0  0  0  0  0  0  0  0  0  # atno 10763 bound_to 10752
  154.8324  135.3394  154.6701 H   0  0  0  0  0  0  0  0  0  0  0  0  # atno 10764 bound_to 10752
  153.7126  135.7022  153.5090 H   0  0  0  0  0  0  0  0  0  0  0  0  # atno 10765 bound_to 10752
  140.8993  133.7535  156.0523 H   0  0  0  0  0  0  0  0  0  0  0  0  # atno 11005 bound_to 11000
  146.3230  139.8191  142.8930 LP  0  0  0  0  0  0  0  0  0  0  0  0  # atno 17320 bound_to 7965
  145.3204  141.0242  143.3503 LP  0  0  0  0  0  0  0  0  0  0  0  0  # atno 17321 bound_to 7965
  139.5774  144.7494  151.3730 LP  0  0  0  0  0  0  0  0  0  0  0  0  # atno 17342 bound_to 10162
  140.7072  143.7482  150.7503 LP  0  0  0  0  0  0  0  0  0  0  0  0  # atno 17343 bound_to 10162
  156.0879  130.3666  150.0451 LP  0  0  0  0  0  0  0  0  0  0  0  0  # atno 17370 bound_to 10713
  156.8587  130.9484  151.3620 LP  0  0  0  0  0  0  0  0  0  0  0  0  # atno 17371 bound_to 10713
  140.8250  134.3245  157.5369 LP  0  0  0  0  0  0  0  0  0  0  0  0  # atno 17394 bound_to 11000
  139.8740  134.9331  156.3571 LP  0  0  0  0  0  0  0  0  0  0  0  0  # atno 17395 bound_to 11000

$$$$
