AV-unprocessed.smi:429|AV-procd|sdf|2545|dock7
  -GOLD-   2262022513D 1   1.00000     0.00000
 Structure written by MMmdl.
 43 44  0  0  0  0  0  0  0  0  1 V2000
  150.6751  131.6212  153.8261 C   0  0  0  0  0  0  0  0  0  0  0  0
  150.3891  133.1255  153.8869 C   0  0  0  0  0  0  0  0  0  0  0  0
  150.0858  133.6112  155.3116 C   0  0  0  0  0  0  0  0  0  0  0  0
  149.5158  135.0413  155.3362 C   0  0  0  0  0  0  0  0  0  0  0  0
  150.6020  136.1215  155.3276 C   0  0  0  0  0  0  0  0  0  0  0  0
  151.3533  136.2633  156.2928 O   0  0  0  0  0  0  0  0  0  0  0  0
  150.6684  136.8870  154.2273 N   0  0  0  0  0  0  0  0  0  0  0  0
  151.6258  137.9689  154.0183 C   0  0  0  0  0  0  0  0  0  0  0  0
  151.6448  139.0121  155.1265 C   0  0  0  0  0  0  0  0  0  0  0  0
  150.6165  139.9662  155.2734 C   0  0  0  0  0  0  0  0  0  0  0  0
  150.6989  140.9048  156.3194 C   0  0  0  0  0  0  0  0  0  0  0  0
  151.8103  140.8687  157.1951 C   0  0  0  0  0  0  0  0  0  0  0  0
  151.9103  141.7949  158.2565 N   0  0  0  0  0  0  0  0  0  0  0  0
  151.6109  143.1974  157.9720 C   0  0  0  0  0  0  0  0  0  0  0  0
  151.4927  143.9976  159.2800 C   0  0  0  0  0  0  0  0  0  0  0  0
  152.6785  143.8346  160.0504 O   0  0  0  0  0  0  0  0  0  0  0  0
  152.8904  142.4744  160.4125 C   0  0  0  0  0  0  0  0  0  0  0  0
  153.0557  141.6168  159.1459 C   0  0  0  0  0  0  0  0  0  0  0  0
  152.8048  139.9596  157.0394 N   0  0  0  0  0  0  0  0  0  0  0  0
  152.7202  139.0615  156.0357 C   0  0  0  0  0  0  0  0  0  0  0  0
  150.8904  131.3077  152.8044 H   0  0  0  0  0  0  0  0  0  0  0  0
  149.8200  131.0433  154.1781 H   0  0  0  0  0  0  0  0  0  0  0  0
  151.5347  131.3582  154.4431 H   0  0  0  0  0  0  0  0  0  0  0  0
  151.2469  133.6694  153.4900 H   0  0  0  0  0  0  0  0  0  0  0  0
  149.5469  133.3573  153.2341 H   0  0  0  0  0  0  0  0  0  0  0  0
  149.3790  132.9242  155.7795 H   0  0  0  0  0  0  0  0  0  0  0  0
  150.9986  133.5701  155.9078 H   0  0  0  0  0  0  0  0  0  0  0  0
  148.8602  135.1865  154.4759 H   0  0  0  0  0  0  0  0  0  0  0  0
  148.9005  135.1813  156.2256 H   0  0  0  0  0  0  0  0  0  0  0  0
  150.0127  136.7054  153.4811 H   0  0  0  0  0  0  0  0  0  0  0  0
  152.6255  137.5518  153.8838 H   0  0  0  0  0  0  0  0  0  0  0  0
  151.3730  138.4698  153.0836 H   0  0  0  0  0  0  0  0  0  0  0  0
  149.7753  139.9870  154.5964 H   0  0  0  0  0  0  0  0  0  0  0  0
  149.9204  141.6450  156.4274 H   0  0  0  0  0  0  0  0  0  0  0  0
  152.4020  143.6167  157.3487 H   0  0  0  0  0  0  0  0  0  0  0  0
  150.6772  143.2791  157.4143 H   0  0  0  0  0  0  0  0  0  0  0  0
  151.3542  145.0563  159.0610 H   0  0  0  0  0  0  0  0  0  0  0  0
  150.6238  143.6754  159.8563 H   0  0  0  0  0  0  0  0  0  0  0  0
  153.7862  142.4074  161.0300 H   0  0  0  0  0  0  0  0  0  0  0  0
  152.0582  142.1144  161.0195 H   0  0  0  0  0  0  0  0  0  0  0  0
  153.1831  140.5760  159.4395 H   0  0  0  0  0  0  0  0  0  0  0  0
  153.9620  141.9089  158.6137 H   0  0  0  0  0  0  0  0  0  0  0  0
  153.5375  138.3596  155.9592 H   0  0  0  0  0  0  0  0  0  0  0  0
  1  2  1  0  0  0  0
  1 21  1  0  0  0  0
  1 22  1  0  0  0  0
  1 23  1  0  0  0  0
  2  3  1  0  0  0  0
  2 24  1  0  0  0  0
  2 25  1  0  0  0  0
  3  4  1  0  0  0  0
  3 26  1  0  0  0  0
  3 27  1  0  0  0  0
  4  5  1  0  0  0  0
  4 28  1  0  0  0  0
  4 29  1  0  0  0  0
  5  6  2  0  0  0  0
  5  7  1  0  0  0  0
  7  8  1  0  0  0  0
  7 30  1  0  0  0  0
  8  9  1  0  0  0  0
  8 31  1  0  0  0  0
  8 32  1  0  0  0  0
  9 20  1  0  0  0  0
  9 10  2  0  0  0  0
 10 11  1  0  0  0  0
 10 33  1  0  0  0  0
 11 12  2  0  0  0  0
 11 34  1  0  0  0  0
 12 13  1  0  0  0  0
 12 19  1  0  0  0  0
 13 18  1  0  0  0  0
 13 14  1  0  0  0  0
 14 15  1  0  0  0  0
 14 35  1  0  0  0  0
 14 36  1  0  0  0  0
 15 16  1  0  0  0  0
 15 37  1  0  0  0  0
 15 38  1  0  0  0  0
 16 17  1  0  0  0  0
 17 18  1  0  0  0  0
 17 39  1  0  0  0  0
 17 40  1  0  0  0  0
 18 41  1  0  0  0  0
 18 42  1  0  0  0  0
 19 20  2  0  0  0  0
 20 43  1  0  0  0  0
M  END
> <s_m_source_file>
AV-unprocessed.smi

> <i_m_source_file_index>
429

> <i_lp_mmshare_version>
43012

> <i_f3d_flags>
0

> <s_epik_input>
W0NIM11bQ0gyXVtDSDJdW0NIMl1DKD1PKVtOSF1bQ0gyXWMxW2NIXVtjSF1jKG5bY0hdMSlOMltDSDJdW0NIMl1PW0NIMl1bQ0gyXTI=

> <s_epik_cmdline>
J2VwaWtfcHl0aG9uJywgJy1waCcsICc3LjAnLCAnLXRuJywgJzgnLCAnLW1hJywgJzIwMCcsICctbWV0YWxfYmluZGluZycsICctaW1hZScsICc8aW5maWxlLm1hZT4nLCAnLW9tYWUnLCAnPG91dGZpbGUubWFlPic=

> <r_lp_tautomer_probability>
1

> <r_epik_Ionization_Penalty>
0.00508978

> <r_epik_Ionization_Penalty_Charging>
0

> <r_epik_Ionization_Penalty_Neutral>
0.00508978

> <r_epik_State_Penalty>
0.0037045

> <r_epik_Charging_Adjusted_Penalty>
0.0037045

> <i_epik_Tot_Q>
0

> <i_epik_Tot_abs_Q>
0

> <r_epik_Metal_State_Penalty>
-0

> <b_epik_Metal_Only>
0

> <s_lp_Force_Field>
OPLS_2005

> <r_lp_Energy>
15.7693

> <b_lp_Chiralities_Consistent>
1

> <s_lp_Variant>
AV-unprocessed.smi:429-1

> <Gold.Version>
5.8.1

> <Gold.Id.Protein>
6NUR|6NUR_protein|mol2

> <Gold.PLP.Fitness>
44.5844

> <Gold.PLP.PLP>
-40.3531

> <Gold.PLP.part.hbond>
-2.8357

> <Gold.PLP.part.metal>
0.0000

> <Gold.PLP.part.buried>
-3.9269

> <Gold.PLP.part.nonpolar>
-33.2408

> <Gold.PLP.part.repulsive>
0.0706

> <Gold.PLP.ligand.clash>
0.0000

> <Gold.PLP.ligand.torsion>
0.6060

> <Gold.PLP.Chemscore.Hbond>
1.6960

> <Gold.PLP.Chemscore.CHOScore>
0.0000

> <Gold.PLP.Chemscore.Metal>
0.0000

> <Gold.Chemscore.Hbonds>
donor molecule, donor type, donor heavy atom, donor atom, acceptor molecule, acceptor atom, score
      L1  H     7    30       P1  7948  0.85
      P1  H  7997  8010       L1    19  0.55
      P1  H 10752 10765       L1     6  0.14

> <Gold.PLP.Chemscore.Internal.Correction>
0.3552

> <Gold.Rescore>
     Score         DG    S(hbond)    S(metal)    S(lipo)     H(rot)  DE(clash)    DE(int)     intcor
     13.95     -16.34       1.14        0.00      98.95       1.77       0.08       2.31       ----

> <Gold.Chemscore.Fitness>
13.9535

> <Gold.Chemscore.DG>
-16.3445

> <Gold.Chemscore.ZeroCoef>
-5.4800

> <Gold.Chemscore.Hbond>
1.1420

> <Gold.Chemscore.Metal>
0.0000

> <Gold.Chemscore.Lipo>
98.9513

> <Gold.Chemscore.Internal_Hbond>
0.0000

> <Gold.Chemscore.DEClash>
0.0841

> <Gold.Chemscore.DEInternal>
2.3070

> <Gold.Chemscore.Rot>
1.7684

> <Gold.Chemscore.Internal.Correction>
   9.000000E+99

> <Gold.Chemscore.Hbonds>
donor molecule, donor type, donor heavy atom, donor atom, acceptor molecule, acceptor atom, score
      L1  H     7    30       P1  7948  0.14
      P1  H  7997  8010       L1    19  0.05
      P1  H 10752 10765       L1     6  0.01

> <Gold.Chemscore.Hbond.Weighted>
-3.8143

> <Gold.Chemscore.Metal.Weighted>
-0.0000

> <Gold.Chemscore.Lipo.Weighted>
-11.5773

> <Gold.Chemscore.Internal_Hbond.Weighted>
0.0000

> <Gold.Chemscore.DEClash.Weighted>
0.0841

> <Gold.Chemscore.DEInternal.Weighted>
2.3070

> <Gold.Chemscore.Rot.Weighted>
4.5271

> <Gold.Chemscore.Internal.Correction.Weighted>
   9.000000E+99

> <Gold.Protein.RotatedTorsions>
[ 6907 6896 6895 6894 ] final   41.31 input  -60.11 | X-H torsion
[ 7974 7965 7964 7962 ] final   67.60 input  175.53 | X-H torsion
[ 8008 7997 7996 7995 ] final   39.60 input   59.86 | X-H torsion
[ 10167 10162 10161 10158 ] final   22.61 input  -65.29 | X-H torsion
[ 10718 10713 10712 10709 ] final  124.60 input   66.30 | X-H torsion
[ 10763 10752 10751 10750 ] final -142.58 input  -60.55 | X-H torsion
[ 11005 11000 10999 10996 ] final -106.10 input  -57.11 | X-H torsion

> <Gold.Protein.ActiveResidues>
 VAL166  LYS551  ARG553  GLY616  TRP617  ASP618  TYR619  PRO620  LYS621  CYS622 
 ASP623  PHE694  ASN695  SER759  ASP760  ASP761  ALA762  ILE779  LEU786  VAL792 
 PHE793  MET794  SER795  GLU796  ALA797  LYS798  CYS799  TRP800  GLU811  SER814 

> <Gold.Protein.RotatedAtoms>
  152.1936  134.8650  160.0514 H   0  0  0  0  0  0  0  0  0  0  0  0  # atno 6907 bound_to 6896
  151.9530  133.3667  159.4015 H   0  0  0  0  0  0  0  0  0  0  0  0  # atno 6908 bound_to 6896
  150.6940  134.4244  159.5263 H   0  0  0  0  0  0  0  0  0  0  0  0  # atno 6909 bound_to 6896
  145.8127  139.3041  143.1089 H   0  0  0  0  0  0  0  0  0  0  0  0  # atno 7974 bound_to 7965
  155.2393  140.3344  155.4294 H   0  0  0  0  0  0  0  0  0  0  0  0  # atno 8008 bound_to 7997
  156.2262  140.1830  156.7401 H   0  0  0  0  0  0  0  0  0  0  0  0  # atno 8009 bound_to 7997
  154.5903  140.0639  156.9215 H   0  0  0  0  0  0  0  0  0  0  0  0  # atno 8010 bound_to 7997
  140.5335  143.9801  150.6478 H   0  0  0  0  0  0  0  0  0  0  0  0  # atno 10167 bound_to 10162
  157.5572  131.1091  150.8601 H   0  0  0  0  0  0  0  0  0  0  0  0  # atno 10718 bound_to 10713
  154.8503  135.3492  154.6051 H   0  0  0  0  0  0  0  0  0  0  0  0  # atno 10763 bound_to 10752
  153.6659  135.6987  153.5167 H   0  0  0  0  0  0  0  0  0  0  0  0  # atno 10764 bound_to 10752
  153.2780  135.4272  155.1009 H   0  0  0  0  0  0  0  0  0  0  0  0  # atno 10765 bound_to 10752
  141.1021  133.8865  157.1815 H   0  0  0  0  0  0  0  0  0  0  0  0  # atno 11005 bound_to 11000
  145.9760  140.8722  143.0138 LP  0  0  0  0  0  0  0  0  0  0  0  0  # atno 17320 bound_to 7965
  144.6755  140.2012  143.7387 LP  0  0  0  0  0  0  0  0  0  0  0  0  # atno 17321 bound_to 7965
  140.3182  143.3154  152.0810 LP  0  0  0  0  0  0  0  0  0  0  0  0  # atno 17342 bound_to 10162
  139.4962  144.6591  151.6505 LP  0  0  0  0  0  0  0  0  0  0  0  0  # atno 17343 bound_to 10162
  156.9109  130.5280  149.5280 LP  0  0  0  0  0  0  0  0  0  0  0  0  # atno 17370 bound_to 10713
  156.0629  130.5678  150.9230 LP  0  0  0  0  0  0  0  0  0  0  0  0  # atno 17371 bound_to 10713
  139.9876  135.0076  156.9900 LP  0  0  0  0  0  0  0  0  0  0  0  0  # atno 17394 bound_to 11000
  140.4995  134.1111  155.7248 LP  0  0  0  0  0  0  0  0  0  0  0  0  # atno 17395 bound_to 11000

$$$$
