AV-unprocessed.smi:2202|AV-procd|sdf|8932|dock9
  -GOLD-   2272012143D 1   1.00000     0.00000
 Structure written by MMmdl.
 43 45  0  0  0  0  0  0  0  0  2 V2000
  147.4865  134.3861  156.3039 O   0  0  0  0  0  0  0  0  0  0  0  0
  148.3158  134.8773  155.5361 C   0  0  0  0  0  0  0  0  0  0  0  0
  149.5781  135.5713  156.0683 C   0  0  0  0  0  0  0  0  0  0  0  0
  149.8616  136.8558  155.4115 N   0  0  0  0  0  0  0  0  0  0  0  0
  151.0932  137.2834  155.1046 C   0  0  0  0  0  0  0  0  0  0  0  0
  152.1423  136.6796  155.3320 O   0  0  0  0  0  0  0  0  0  0  0  0
  151.0563  138.6416  154.4006 C   0  0  2  0  0  0  0  0  0  0  0  0
  151.9294  139.6908  155.1383 C   0  0  0  0  0  0  0  0  0  0  0  0
  151.2116  140.3316  156.3082 C   0  0  0  0  0  0  0  0  0  0  0  0
  149.8999  140.5974  156.2552 C   0  0  0  0  0  0  0  0  0  0  0  0
  149.0826  140.2675  155.0234 C   0  0  0  0  0  0  0  0  0  0  0  0
  149.5335  138.9493  154.3403 C   0  0  2  0  0  0  0  0  0  0  0  0
  148.9193  137.7235  155.0204 C   0  0  0  0  0  0  0  0  0  0  0  0
  147.7045  137.5797  155.1615 O   0  0  0  0  0  0  0  0  0  0  0  0
  148.1851  134.8433  154.2015 N   0  0  0  0  0  0  0  0  0  0  0  0
  147.0664  134.2361  153.4904 C   0  0  0  0  0  0  0  0  0  0  0  0
  147.5490  133.2674  152.3974 C   0  0  0  0  0  0  0  0  0  0  0  0
  146.4709  132.9765  151.3722 C   0  0  0  0  0  0  0  0  0  0  0  0
  145.1627  133.4955  151.4855 C   0  0  0  0  0  0  0  0  0  0  0  0
  144.2113  133.1874  150.4905 C   0  0  0  0  0  0  0  0  0  0  0  0
  144.5877  132.3693  149.4050 C   0  0  0  0  0  0  0  0  0  0  0  0
  145.9079  131.8787  149.3417 C   0  0  0  0  0  0  0  0  0  0  0  0
  146.7905  132.1961  150.3143 N   0  3  0  0  0  0  0  0  0  0  0  0
  149.4686  135.7142  157.1447 H   0  0  0  0  0  0  0  0  0  0  0  0
  150.4288  134.8980  155.9468 H   0  0  0  0  0  0  0  0  0  0  0  0
  151.4479  138.4956  153.3931 H   0  0  0  0  0  0  0  0  0  0  0  0
  152.8584  139.2450  155.4961 H   0  0  0  0  0  0  0  0  0  0  0  0
  152.2221  140.4832  154.4490 H   0  0  0  0  0  0  0  0  0  0  0  0
  151.7999  140.6181  157.1675 H   0  0  0  0  0  0  0  0  0  0  0  0
  149.4042  141.1035  157.0706 H   0  0  0  0  0  0  0  0  0  0  0  0
  148.0286  140.2235  155.3013 H   0  0  0  0  0  0  0  0  0  0  0  0
  149.1757  141.1002  154.3256 H   0  0  0  0  0  0  0  0  0  0  0  0
  149.1939  138.9494  153.3038 H   0  0  0  0  0  0  0  0  0  0  0  0
  148.9124  135.2642  153.6411 H   0  0  0  0  0  0  0  0  0  0  0  0
  146.4505  133.7026  154.2148 H   0  0  0  0  0  0  0  0  0  0  0  0
  146.4354  135.0166  153.0617 H   0  0  0  0  0  0  0  0  0  0  0  0
  148.4161  133.6793  151.8792 H   0  0  0  0  0  0  0  0  0  0  0  0
  147.8783  132.3305  152.8487 H   0  0  0  0  0  0  0  0  0  0  0  0
  144.8901  134.1232  152.3217 H   0  0  0  0  0  0  0  0  0  0  0  0
  143.2053  133.5751  150.5588 H   0  0  0  0  0  0  0  0  0  0  0  0
  143.8741  132.1218  148.6326 H   0  0  0  0  0  0  0  0  0  0  0  0
  146.2824  131.2475  148.5489 H   0  0  0  0  0  0  0  0  0  0  0  0
  147.7409  131.8305  150.2485 H   0  0  0  0  0  0  0  0  0  0  0  0
  1  2  2  0  0  0  0
  2  3  1  0  0  0  0
  2 15  1  0  0  0  0
  3  4  1  0  0  0  0
  3 24  1  0  0  0  0
  3 25  1  0  0  0  0
  4 13  1  0  0  0  0
  4  5  1  0  0  0  0
  5  6  2  0  0  0  0
  5  7  1  0  0  0  0
  7 12  1  0  0  0  0
  7  8  1  0  0  0  0
  7 26  1  0  0  0  0
  8  9  1  0  0  0  0
  8 27  1  0  0  0  0
  8 28  1  0  0  0  0
  9 10  2  0  0  0  0
  9 29  1  0  0  0  0
 10 11  1  0  0  0  0
 10 30  1  0  0  0  0
 11 12  1  0  0  0  0
 11 31  1  0  0  0  0
 11 32  1  0  0  0  0
 12 13  1  0  0  0  0
 12 33  1  0  0  0  0
 13 14  2  0  0  0  0
 15 16  1  0  0  0  0
 15 34  1  0  0  0  0
 16 17  1  0  0  0  0
 16 35  1  0  0  0  0
 16 36  1  0  0  0  0
 17 18  1  0  0  0  0
 17 37  1  0  0  0  0
 17 38  1  0  0  0  0
 18 23  1  0  0  0  0
 18 19  2  0  0  0  0
 19 20  1  0  0  0  0
 19 39  1  0  0  0  0
 20 21  2  0  0  0  0
 20 40  1  0  0  0  0
 21 22  1  0  0  0  0
 21 41  1  0  0  0  0
 22 23  2  0  0  0  0
 22 42  1  0  0  0  0
 23 43  1  0  0  0  0
M  CHG  1  23   1
M  END
> <s_m_source_file>
AV-unprocessed.smi

> <i_m_source_file_index>
2202

> <i_lp_mmshare_version>
43012

> <i_f3d_flags>
0

> <s_epik_input>
W0NIMl0xW0NIXT1bQ0hdW0NIMl1bQ0BIXShbQ0BIXTEyKUMoPU8pTihDMj1PKVtDSDJdQyg9TylbTkhdW0NIMl1bQ0gyXWMzW2NIXVtjSF1bY0hdW2NIXW4z

> <s_epik_cmdline>
J2VwaWtfcHl0aG9uJywgJy1waCcsICc3LjAnLCAnLXRuJywgJzgnLCAnLW1hJywgJzIwMCcsICctbWV0YWxfYmluZGluZycsICctaW1hZScsICc8aW5maWxlLm1hZT4nLCAnLW9tYWUnLCAnPG91dGZpbGUubWFlPic=

> <r_lp_tautomer_probability>
1

> <r_epik_Ionization_Penalty>
1.90039

> <r_epik_Ionization_Penalty_Charging>
1.90039

> <r_epik_Ionization_Penalty_Neutral>
1.50224e-07

> <r_epik_State_Penalty>
2.02162

> <r_epik_Charging_Adjusted_Penalty>
3.922

> <i_epik_Tot_Q>
1

> <i_epik_Tot_abs_Q>
1

> <r_epik_Metal_State_Penalty>
2.04542

> <b_epik_Metal_Only>
0

> <s_lp_Force_Field>
OPLS_2005

> <r_lp_Energy>
20.8283

> <b_lp_Chiralities_Consistent>
1

> <s_lp_Variant>
AV-unprocessed.smi:2202-4

> <Gold.Version>
5.8.1

> <Gold.Id.Protein>
6NUR|6NUR_protein|mol2

> <Gold.PLP.Fitness>
46.3604

> <Gold.PLP.PLP>
-39.5076

> <Gold.PLP.part.hbond>
-2.7422

> <Gold.PLP.part.metal>
0.0000

> <Gold.PLP.part.buried>
-4.4583

> <Gold.PLP.part.nonpolar>
-33.2920

> <Gold.PLP.part.repulsive>
0.2504

> <Gold.PLP.ligand.clash>
0.0000

> <Gold.PLP.ligand.torsion>
0.6320

> <Gold.PLP.Chemscore.Hbond>
2.6960

> <Gold.PLP.Chemscore.CHOScore>
0.0000

> <Gold.PLP.Chemscore.Metal>
0.0000

> <Gold.Chemscore.Hbonds>
donor molecule, donor type, donor heavy atom, donor atom, acceptor molecule, acceptor atom, score
      L1  H    15    34       P1  7948  0.70
      L1  H    23    43       P1 10747  1.00
      P1  H 10752 10764       L1     6  0.98

> <Gold.PLP.Chemscore.Internal.Correction>
0.0288

> <Gold.Rescore>
     Score         DG    S(hbond)    S(metal)    S(lipo)     H(rot)  DE(clash)    DE(int)     intcor
     19.43     -21.73       2.83        0.00     101.02       1.96       0.37       1.93       ----

> <Gold.Chemscore.Fitness>
19.4273

> <Gold.Chemscore.DG>
-21.7261

> <Gold.Chemscore.ZeroCoef>
-5.4800

> <Gold.Chemscore.Hbond>
2.8295

> <Gold.Chemscore.Metal>
0.0000

> <Gold.Chemscore.Lipo>
101.0204

> <Gold.Chemscore.Internal_Hbond>
0.0000

> <Gold.Chemscore.DEClash>
0.3721

> <Gold.Chemscore.DEInternal>
1.9266

> <Gold.Chemscore.Rot>
1.9625

> <Gold.Chemscore.Internal.Correction>
   9.000000E+99

> <Gold.Chemscore.Hbonds>
donor molecule, donor type, donor heavy atom, donor atom, acceptor molecule, acceptor atom, score
      L1  H    15    34       P1  7948  0.47
      L1  H    23    43       P1 10747  0.96
      P1  H 10752 10764       L1     6  0.86

> <Gold.Chemscore.Hbond.Weighted>
-9.4506

> <Gold.Chemscore.Metal.Weighted>
-0.0000

> <Gold.Chemscore.Lipo.Weighted>
-11.8194

> <Gold.Chemscore.Internal_Hbond.Weighted>
0.0000

> <Gold.Chemscore.DEClash.Weighted>
0.3721

> <Gold.Chemscore.DEInternal.Weighted>
1.9266

> <Gold.Chemscore.Rot.Weighted>
5.0240

> <Gold.Chemscore.Internal.Correction.Weighted>
   9.000000E+99

> <Gold.Protein.RotatedTorsions>
[ 6907 6896 6895 6894 ] final -123.36 input  -60.11 | X-H torsion
[ 7974 7965 7964 7962 ] final   62.10 input  175.53 | X-H torsion
[ 8008 7997 7996 7995 ] final  138.67 input   59.86 | X-H torsion
[ 10167 10162 10161 10158 ] final   48.27 input  -65.29 | X-H torsion
[ 10718 10713 10712 10709 ] final  103.07 input   66.30 | X-H torsion
[ 10763 10752 10751 10750 ] final  -58.89 input  -60.55 | X-H torsion
[ 11005 11000 10999 10996 ] final  121.20 input  -57.11 | X-H torsion

> <Gold.Protein.ActiveResidues>
 VAL166  LYS551  ARG553  GLY616  TRP617  ASP618  TYR619  PRO620  LYS621  CYS622 
 ASP623  PHE694  ASN695  SER759  ASP760  ASP761  ALA762  ILE779  LEU786  VAL792 
 PHE793  MET794  SER795  GLU796  ALA797  LYS798  CYS799  TRP800  GLU811  SER814 

> <Gold.Protein.RotatedAtoms>
  150.8663  133.7569  159.2975 H   0  0  0  0  0  0  0  0  0  0  0  0  # atno 6907 bound_to 6896
  151.5195  135.1065  159.9884 H   0  0  0  0  0  0  0  0  0  0  0  0  # atno 6908 bound_to 6896
  152.4663  133.7887  159.6946 H   0  0  0  0  0  0  0  0  0  0  0  0  # atno 6909 bound_to 6896
  145.8773  139.3418  143.0727 H   0  0  0  0  0  0  0  0  0  0  0  0  # atno 7974 bound_to 7965
  156.2996  140.2387  156.4111 H   0  0  0  0  0  0  0  0  0  0  0  0  # atno 8008 bound_to 7997
  154.8440  140.0427  157.1580 H   0  0  0  0  0  0  0  0  0  0  0  0  # atno 8009 bound_to 7997
  154.9071  140.2985  155.5290 H   0  0  0  0  0  0  0  0  0  0  0  0  # atno 8010 bound_to 7997
  140.2951  144.3001  150.6231 H   0  0  0  0  0  0  0  0  0  0  0  0  # atno 10167 bound_to 10162
  157.6784  131.0769  150.5499 H   0  0  0  0  0  0  0  0  0  0  0  0  # atno 10718 bound_to 10713
  154.2453  135.6336  153.5221 H   0  0  0  0  0  0  0  0  0  0  0  0  # atno 10763 bound_to 10752
  152.9922  135.5552  154.5867 H   0  0  0  0  0  0  0  0  0  0  0  0  # atno 10764 bound_to 10752
  154.5381  135.2893  155.1094 H   0  0  0  0  0  0  0  0  0  0  0  0  # atno 10765 bound_to 10752
  139.9216  134.9638  156.7922 H   0  0  0  0  0  0  0  0  0  0  0  0  # atno 11005 bound_to 11000
  145.9066  140.9208  143.0475 LP  0  0  0  0  0  0  0  0  0  0  0  0  # atno 17320 bound_to 7965
  144.6726  140.1104  143.7455 LP  0  0  0  0  0  0  0  0  0  0  0  0  # atno 17321 bound_to 7965
  140.5699  143.2182  151.7617 LP  0  0  0  0  0  0  0  0  0  0  0  0  # atno 17342 bound_to 10162
  139.4928  144.4231  151.9956 LP  0  0  0  0  0  0  0  0  0  0  0  0  # atno 17343 bound_to 10162
  156.5804  130.4303  149.5980 LP  0  0  0  0  0  0  0  0  0  0  0  0  # atno 17370 bound_to 10713
  156.2666  130.6993  151.1778 LP  0  0  0  0  0  0  0  0  0  0  0  0  # atno 17371 bound_to 10713
  140.6458  133.9777  155.7730 LP  0  0  0  0  0  0  0  0  0  0  0  0  # atno 17394 bound_to 11000
  141.0741  134.0161  157.3483 LP  0  0  0  0  0  0  0  0  0  0  0  0  # atno 17395 bound_to 11000

$$$$
