AV-unprocessed.smi:162|AV-procd|sdf|1378|dock1
  -GOLD-   2262019103D 1   1.00000     0.00000
 Structure written by MMmdl.
 54 57  0  0  0  0  0  0  0  0  1 V2000
  151.4396  138.6571  154.7527 C   0  0  0  0  0  0  0  0  0  0  0  0
  151.3729  140.0493  155.0024 O   0  0  0  0  0  0  0  0  0  0  0  0
  150.1486  140.4390  155.6033 C   0  0  0  0  0  0  0  0  0  0  0  0
  150.4441  141.1969  156.9079 C   0  0  2  0  0  0  0  0  0  0  0  0
  150.6786  142.6921  156.7119 C   0  0  0  0  0  0  0  0  0  0  0  0
  151.3547  143.0813  158.0295 C   0  0  2  0  0  0  0  0  0  0  0  0
  152.2090  144.2098  157.9121 O   0  0  0  0  0  0  0  0  0  0  0  0
  152.6944  144.6872  159.1565 C   0  0  0  0  0  0  0  0  0  0  0  0
  152.1588  141.8284  158.4088 C   0  0  0  0  0  0  0  0  0  0  0  0
  151.6643  140.7454  157.5663 N   0  0  0  0  0  0  0  0  0  0  0  0
  151.6291  139.5346  158.1623 C   0  0  0  0  0  0  0  0  0  0  0  0
  150.4131  138.9497  158.2882 N   0  0  0  0  0  0  0  0  0  0  0  0
  150.3050  137.7556  158.8785 C   0  0  0  0  0  0  0  0  0  0  0  0
  151.2672  136.9907  159.3994 N   0  0  0  0  0  0  0  0  0  0  0  0
  152.4925  137.5753  159.2660 C   0  0  0  0  0  0  0  0  0  0  0  0
  152.7638  138.8347  158.6614 C   0  0  0  0  0  0  0  0  0  0  0  0
  154.1286  139.0948  158.7008 N   0  0  0  0  0  0  0  0  0  0  0  0
  154.6333  138.0535  159.3044 C   0  0  0  0  0  0  0  0  0  0  0  0
  153.7223  137.0897  159.6741 N   0  0  0  0  0  0  0  0  0  0  0  0
  154.0054  135.8364  160.3568 C   0  0  0  0  0  0  0  0  0  0  0  0
  154.4998  136.0123  161.8137 C   0  0  0  0  0  0  0  0  0  0  0  0
  155.7572  136.6648  161.7637 O   0  0  0  0  0  0  0  0  0  0  0  0
  153.5226  136.9001  162.6103 C   0  0  0  0  0  0  0  0  0  0  0  0
  153.8879  136.9687  164.1040 C   0  0  0  0  0  0  0  0  0  0  0  0
  153.9532  135.6565  164.6488 O   0  0  0  0  0  0  0  0  0  0  0  0
  154.9692  134.8619  164.0493 C   0  0  0  0  0  0  0  0  0  0  0  0
  154.6759  134.6663  162.5509 C   0  0  0  0  0  0  0  0  0  0  0  0
  149.5934  141.0829  157.5798 H   0  0  0  0  0  0  0  0  0  0  0  0
  150.5963  143.2511  158.7961 H   0  0  0  0  0  0  0  0  0  0  0  0
  152.3951  138.4146  154.2879 H   0  0  0  0  0  0  0  0  0  0  0  0
  150.6453  138.3403  154.0757 H   0  0  0  0  0  0  0  0  0  0  0  0
  151.3607  138.0863  155.6789 H   0  0  0  0  0  0  0  0  0  0  0  0
  149.5557  141.0546  154.9247 H   0  0  0  0  0  0  0  0  0  0  0  0
  149.5667  139.5429  155.8251 H   0  0  0  0  0  0  0  0  0  0  0  0
  151.3581  142.8617  155.8749 H   0  0  0  0  0  0  0  0  0  0  0  0
  149.7581  143.2449  156.5235 H   0  0  0  0  0  0  0  0  0  0  0  0
  153.3603  145.5329  158.9858 H   0  0  0  0  0  0  0  0  0  0  0  0
  153.2592  143.9165  159.6824 H   0  0  0  0  0  0  0  0  0  0  0  0
  151.8829  145.0277  159.8000 H   0  0  0  0  0  0  0  0  0  0  0  0
  153.2170  141.9700  158.1866 H   0  0  0  0  0  0  0  0  0  0  0  0
  152.0721  141.6099  159.4743 H   0  0  0  0  0  0  0  0  0  0  0  0
  149.3037  137.3562  158.9427 H   0  0  0  0  0  0  0  0  0  0  0  0
  155.6926  137.9561  159.4941 H   0  0  0  0  0  0  0  0  0  0  0  0
  153.1038  135.2225  160.3322 H   0  0  0  0  0  0  0  0  0  0  0  0
  154.7528  135.2975  159.7731 H   0  0  0  0  0  0  0  0  0  0  0  0
  155.6114  137.5838  161.5984 H   0  0  0  0  0  0  0  0  0  0  0  0
  153.4843  137.9046  162.1870 H   0  0  0  0  0  0  0  0  0  0  0  0
  152.5139  136.4939  162.5224 H   0  0  0  0  0  0  0  0  0  0  0  0
  154.8365  137.4860  164.2555 H   0  0  0  0  0  0  0  0  0  0  0  0
  153.1309  137.5352  164.6465 H   0  0  0  0  0  0  0  0  0  0  0  0
  155.9456  135.3245  164.2013 H   0  0  0  0  0  0  0  0  0  0  0  0
  154.9988  133.8948  164.5514 H   0  0  0  0  0  0  0  0  0  0  0  0
  153.7616  134.0800  162.4500 H   0  0  0  0  0  0  0  0  0  0  0  0
  155.4709  134.0731  162.0973 H   0  0  0  0  0  0  0  0  0  0  0  0
  1  2  1  0  0  0  0
  1 30  1  0  0  0  0
  1 31  1  0  0  0  0
  1 32  1  0  0  0  0
  2  3  1  0  0  0  0
  3  4  1  0  0  0  0
  3 33  1  0  0  0  0
  3 34  1  0  0  0  0
  4 28  1  0  0  0  0
  4 10  1  0  0  0  0
  4  5  1  0  0  0  0
  5  6  1  0  0  0  0
  5 35  1  0  0  0  0
  5 36  1  0  0  0  0
  6 29  1  0  0  0  0
  6  7  1  0  0  0  0
  6  9  1  0  0  0  0
  7  8  1  0  0  0  0
  8 37  1  0  0  0  0
  8 38  1  0  0  0  0
  8 39  1  0  0  0  0
  9 10  1  0  0  0  0
  9 40  1  0  0  0  0
  9 41  1  0  0  0  0
 10 11  1  0  0  0  0
 11 16  1  0  0  0  0
 11 12  2  0  0  0  0
 12 13  1  0  0  0  0
 13 14  2  0  0  0  0
 13 42  1  0  0  0  0
 14 15  1  0  0  0  0
 15 19  1  0  0  0  0
 15 16  2  0  0  0  0
 16 17  1  0  0  0  0
 17 18  2  0  0  0  0
 18 19  1  0  0  0  0
 18 43  1  0  0  0  0
 19 20  1  0  0  0  0
 20 21  1  0  0  0  0
 20 44  1  0  0  0  0
 20 45  1  0  0  0  0
 21 27  1  0  0  0  0
 21 22  1  0  0  0  0
 21 23  1  0  0  0  0
 22 46  1  0  0  0  0
 23 24  1  0  0  0  0
 23 47  1  0  0  0  0
 23 48  1  0  0  0  0
 24 25  1  0  0  0  0
 24 49  1  0  0  0  0
 24 50  1  0  0  0  0
 25 26  1  0  0  0  0
 26 27  1  0  0  0  0
 26 51  1  0  0  0  0
 26 52  1  0  0  0  0
 27 53  1  0  0  0  0
 27 54  1  0  0  0  0
M  END
> <s_m_source_file>
AV-unprocessed.smi

> <i_m_source_file_index>
162

> <i_lp_mmshare_version>
43012

> <i_f3d_flags>
0

> <s_epik_input>
W0NIM11PW0NIMl1bQ0BASF0xW0NIMl1bQ0BASF0oT1tDSDNdKVtDSDJdTjFjKG5bY0hdbjIpYyhjMjMpbltjSF1uM1tDSDJdQzQoW09IXSlbQ0gyXVtDSDJdT1tDSDJdW0NIMl00

> <s_epik_cmdline>
J2VwaWtfcHl0aG9uJywgJy1waCcsICc3LjAnLCAnLXRuJywgJzgnLCAnLW1hJywgJzIwMCcsICctbWV0YWxfYmluZGluZycsICctaW1hZScsICc8aW5maWxlLm1hZT4nLCAnLW9tYWUnLCAnPG91dGZpbGUubWFlPic=

> <r_lp_tautomer_probability>
1

> <r_epik_Ionization_Penalty>
0.00660334

> <r_epik_Ionization_Penalty_Charging>
0

> <r_epik_Ionization_Penalty_Neutral>
0.00660334

> <r_epik_State_Penalty>
0.00469459

> <r_epik_Charging_Adjusted_Penalty>
0.00469459

> <i_epik_Tot_Q>
0

> <i_epik_Tot_abs_Q>
0

> <r_epik_Metal_State_Penalty>
-0

> <b_epik_Metal_Only>
0

> <s_lp_Force_Field>
OPLS_2005

> <r_lp_Energy>
44.4659

> <b_lp_Chiralities_Consistent>
1

> <s_lp_Variant>
AV-unprocessed.smi:162-3

> <Gold.Version>
5.8.1

> <Gold.Id.Protein>
6NUR|6NUR_protein|mol2

> <Gold.PLP.Fitness>
50.5397

> <Gold.PLP.PLP>
-43.3263

> <Gold.PLP.part.hbond>
-3.0000

> <Gold.PLP.part.metal>
0.0000

> <Gold.PLP.part.buried>
-6.8057

> <Gold.PLP.part.nonpolar>
-35.5736

> <Gold.PLP.part.repulsive>
1.2814

> <Gold.PLP.ligand.clash>
0.0000

> <Gold.PLP.ligand.torsion>
0.9460

> <Gold.PLP.Chemscore.Hbond>
2.9760

> <Gold.PLP.Chemscore.CHOScore>
0.0000

> <Gold.PLP.Chemscore.Metal>
0.0000

> <Gold.Chemscore.Hbonds>
donor molecule, donor type, donor heavy atom, donor atom, acceptor molecule, acceptor atom, score
      P1  H  6896  6908       L1    14  1.00
      P1  H  7989  7998       L1     2  1.00
      P1  H  7997  8010       L1    17  1.00

> <Gold.PLP.Chemscore.Internal.Correction>
0.1773

> <Gold.Rescore>
     Score         DG    S(hbond)    S(metal)    S(lipo)     H(rot)  DE(clash)    DE(int)     intcor
     17.70     -19.48       2.79        0.00     102.60       2.86       0.04       1.73       ----

> <Gold.Chemscore.Fitness>
17.7021

> <Gold.Chemscore.DG>
-19.4770

> <Gold.Chemscore.ZeroCoef>
-5.4800

> <Gold.Chemscore.Hbond>
2.7921

> <Gold.Chemscore.Metal>
0.0000

> <Gold.Chemscore.Lipo>
102.5963

> <Gold.Chemscore.Internal_Hbond>
0.0000

> <Gold.Chemscore.DEClash>
0.0420

> <Gold.Chemscore.DEInternal>
1.7329

> <Gold.Chemscore.Rot>
2.8642

> <Gold.Chemscore.Internal.Correction>
   9.000000E+99

> <Gold.Chemscore.Hbonds>
donor molecule, donor type, donor heavy atom, donor atom, acceptor molecule, acceptor atom, score
      P1  H  6896  6908       L1    14  0.78
      P1  H  7989  7998       L1     2  0.53
      P1  H  7997  8010       L1    17  0.96

> <Gold.Chemscore.Hbond.Weighted>
-9.3256

> <Gold.Chemscore.Metal.Weighted>
-0.0000

> <Gold.Chemscore.Lipo.Weighted>
-12.0038

> <Gold.Chemscore.Internal_Hbond.Weighted>
0.0000

> <Gold.Chemscore.DEClash.Weighted>
0.0420

> <Gold.Chemscore.DEInternal.Weighted>
1.7329

> <Gold.Chemscore.Rot.Weighted>
7.3324

> <Gold.Chemscore.Internal.Correction.Weighted>
   9.000000E+99

> <Gold.Protein.RotatedTorsions>
[ 6907 6896 6895 6894 ] final -129.02 input  -60.11 | X-H torsion
[ 7974 7965 7964 7962 ] final   68.11 input  175.53 | X-H torsion
[ 8008 7997 7996 7995 ] final   -3.87 input   59.86 | X-H torsion
[ 10167 10162 10161 10158 ] final  -35.82 input  -65.29 | X-H torsion
[ 10718 10713 10712 10709 ] final   23.57 input   66.30 | X-H torsion
[ 10763 10752 10751 10750 ] final  -29.53 input  -60.55 | X-H torsion
[ 11005 11000 10999 10996 ] final  111.33 input  -57.11 | X-H torsion

> <Gold.Protein.ActiveResidues>
 VAL166  LYS551  ARG553  GLY616  TRP617  ASP618  TYR619  PRO620  LYS621  CYS622 
 ASP623  PHE694  ASN695  SER759  ASP760  ASP761  ALA762  ILE779  LEU786  VAL792 
 PHE793  MET794  SER795  GLU796  ALA797  LYS798  CYS799  TRP800  GLU811  SER814 

> <Gold.Protein.RotatedAtoms>
  150.9242  133.6844  159.2824 H   0  0  0  0  0  0  0  0  0  0  0  0  # atno 6907 bound_to 6896
  151.4288  135.1006  159.9645 H   0  0  0  0  0  0  0  0  0  0  0  0  # atno 6908 bound_to 6896
  152.4994  133.8677  159.7337 H   0  0  0  0  0  0  0  0  0  0  0  0  # atno 6909 bound_to 6896
  145.8066  139.3010  143.1124 H   0  0  0  0  0  0  0  0  0  0  0  0  # atno 7974 bound_to 7965
  154.6203  140.2498  155.7558 H   0  0  0  0  0  0  0  0  0  0  0  0  # atno 8008 bound_to 7997
  156.2423  140.2928  156.0427 H   0  0  0  0  0  0  0  0  0  0  0  0  # atno 8009 bound_to 7997
  155.1908  140.0391  157.2890 H   0  0  0  0  0  0  0  0  0  0  0  0  # atno 8010 bound_to 7997
  140.7157  143.3451  151.2273 H   0  0  0  0  0  0  0  0  0  0  0  0  # atno 10167 bound_to 10162
  157.1679  130.6746  149.6067 H   0  0  0  0  0  0  0  0  0  0  0  0  # atno 10718 bound_to 10713
  153.7661  135.6916  153.4916 H   0  0  0  0  0  0  0  0  0  0  0  0  # atno 10763 bound_to 10752
  153.1906  135.4472  155.0143 H   0  0  0  0  0  0  0  0  0  0  0  0  # atno 10764 bound_to 10752
  154.8135  135.3388  154.7173 H   0  0  0  0  0  0  0  0  0  0  0  0  # atno 10765 bound_to 10752
  139.8901  134.9505  156.6416 H   0  0  0  0  0  0  0  0  0  0  0  0  # atno 11005 bound_to 11000
  145.9822  140.8673  143.0108 LP  0  0  0  0  0  0  0  0  0  0  0  0  # atno 17320 bound_to 7965
  144.6762  140.2096  143.7378 LP  0  0  0  0  0  0  0  0  0  0  0  0  # atno 17321 bound_to 7965
  139.6968  143.9599  152.2886 LP  0  0  0  0  0  0  0  0  0  0  0  0  # atno 17342 bound_to 10162
  139.9279  144.6760  150.8393 LP  0  0  0  0  0  0  0  0  0  0  0  0  # atno 17343 bound_to 10162
  155.9743  130.4689  150.6376 LP  0  0  0  0  0  0  0  0  0  0  0  0  # atno 17370 bound_to 10713
  157.4071  131.0818  151.1255 LP  0  0  0  0  0  0  0  0  0  0  0  0  # atno 17371 bound_to 10713
  140.7589  133.8834  155.8403 LP  0  0  0  0  0  0  0  0  0  0  0  0  # atno 17394 bound_to 11000
  140.9939  134.1242  157.4382 LP  0  0  0  0  0  0  0  0  0  0  0  0  # atno 17395 bound_to 11000

$$$$
