AV-unprocessed.smi:101|AV-procd|sdf|925|dock10
  -GOLD-   2262017433D 1   1.00000     0.00000
 Structure written by MMmdl.
 44 46  0  0  0  0  0  0  0  0  1 V2000
  144.5158  137.3976  155.7061 C   0  0  0  0  0  0  0  0  0  0  0  0
  145.1878  137.8285  154.4128 C   0  0  0  0  0  0  0  0  0  0  0  0
  146.3419  138.5435  154.3971 C   0  0  0  0  0  0  0  0  0  0  0  0
  146.9819  138.9488  153.2317 N   0  0  0  0  0  0  0  0  0  0  0  0
  148.2778  139.7399  153.2442 C   0  0  2  0  0  0  0  0  0  0  0  0
  149.1607  139.1747  154.1695 O   0  0  0  0  0  0  0  0  0  0  0  0
  149.2763  140.0224  155.3074 C   0  0  1  0  0  0  0  0  0  0  0  0
  150.5889  139.7226  156.0377 C   0  0  0  0  0  0  0  0  0  0  0  0
  150.7681  140.7040  157.0451 O   0  0  0  0  0  0  0  0  0  0  0  0
  151.8922  140.7232  157.7844 C   0  0  0  0  0  0  0  0  0  0  0  0
  152.7610  139.8506  157.7294 O   0  0  0  0  0  0  0  0  0  0  0  0
  151.9721  141.9131  158.6804 C   0  0  0  0  0  0  0  0  0  0  0  0
  151.4592  143.1532  158.2340 C   0  0  0  0  0  0  0  0  0  0  0  0
  151.5244  144.2943  159.0573 C   0  0  0  0  0  0  0  0  0  0  0  0
  152.1020  144.2088  160.3373 C   0  0  0  0  0  0  0  0  0  0  0  0
  152.6148  142.9805  160.7937 C   0  0  0  0  0  0  0  0  0  0  0  0
  152.5513  141.8385  159.9717 C   0  0  0  0  0  0  0  0  0  0  0  0
  149.2071  141.4055  154.6681 C   0  0  2  0  0  0  0  0  0  0  0  0
  148.9651  142.4443  155.5993 O   0  0  0  0  0  0  0  0  0  0  0  0
  148.0880  141.2247  153.6456 C   0  0  2  0  0  0  0  0  0  0  0  0
  146.8109  141.5016  154.2026 O   0  0  0  0  0  0  0  0  0  0  0  0
  146.4185  138.6118  151.9841 C   0  0  0  0  0  0  0  0  0  0  0  0
  146.9256  138.9465  150.9141 O   0  0  0  0  0  0  0  0  0  0  0  0
  145.2345  137.8775  151.9997 N   0  0  0  0  0  0  0  0  0  0  0  0
  144.5590  137.4493  153.1446 C   0  0  0  0  0  0  0  0  0  0  0  0
  143.5175  136.8053  153.0299 O   0  0  0  0  0  0  0  0  0  0  0  0
  144.8293  137.6345  151.1075 H   0  0  0  0  0  0  0  0  0  0  0  0
  145.0707  137.7335  156.5828 H   0  0  0  0  0  0  0  0  0  0  0  0
  144.4436  136.3105  155.7535 H   0  0  0  0  0  0  0  0  0  0  0  0
  143.5090  137.8116  155.7696 H   0  0  0  0  0  0  0  0  0  0  0  0
  146.7728  138.8018  155.3519 H   0  0  0  0  0  0  0  0  0  0  0  0
  148.7170  139.6100  152.2532 H   0  0  0  0  0  0  0  0  0  0  0  0
  148.4225  139.8800  155.9725 H   0  0  0  0  0  0  0  0  0  0  0  0
  150.5706  138.7193  156.4659 H   0  0  0  0  0  0  0  0  0  0  0  0
  151.4269  139.7725  155.3414 H   0  0  0  0  0  0  0  0  0  0  0  0
  151.0117  143.2435  157.2548 H   0  0  0  0  0  0  0  0  0  0  0  0
  151.1308  145.2365  158.7048 H   0  0  0  0  0  0  0  0  0  0  0  0
  152.1522  145.0840  160.9682 H   0  0  0  0  0  0  0  0  0  0  0  0
  153.0587  142.9131  161.7760 H   0  0  0  0  0  0  0  0  0  0  0  0
  152.9550  140.9119  160.3534 H   0  0  0  0  0  0  0  0  0  0  0  0
  150.1425  141.6110  154.1452 H   0  0  0  0  0  0  0  0  0  0  0  0
  149.0352  143.2736  155.1521 H   0  0  0  0  0  0  0  0  0  0  0  0
  148.2325  141.8637  152.7739 H   0  0  0  0  0  0  0  0  0  0  0  0
  146.7867  142.4121  154.4547 H   0  0  0  0  0  0  0  0  0  0  0  0
  1  2  1  0  0  0  0
  1 28  1  0  0  0  0
  1 29  1  0  0  0  0
  1 30  1  0  0  0  0
  2 25  1  0  0  0  0
  2  3  2  0  0  0  0
  3  4  1  0  0  0  0
  3 31  1  0  0  0  0
  4  5  1  0  0  0  0
  4 22  1  0  0  0  0
  5 20  1  0  0  0  0
  5  6  1  0  0  0  0
  5 32  1  0  0  0  0
  6  7  1  0  0  0  0
  7  8  1  0  0  0  0
  7 18  1  0  0  0  0
  7 33  1  0  0  0  0
  8  9  1  0  0  0  0
  8 34  1  0  0  0  0
  8 35  1  0  0  0  0
  9 10  1  0  0  0  0
 10 11  2  0  0  0  0
 10 12  1  0  0  0  0
 12 17  1  0  0  0  0
 12 13  2  0  0  0  0
 13 14  1  0  0  0  0
 13 36  1  0  0  0  0
 14 15  2  0  0  0  0
 14 37  1  0  0  0  0
 15 16  1  0  0  0  0
 15 38  1  0  0  0  0
 16 17  2  0  0  0  0
 16 39  1  0  0  0  0
 17 40  1  0  0  0  0
 18 19  1  0  0  0  0
 18 20  1  0  0  0  0
 18 41  1  0  0  0  0
 19 42  1  0  0  0  0
 20 21  1  0  0  0  0
 20 43  1  0  0  0  0
 21 44  1  0  0  0  0
 22 23  2  0  0  0  0
 22 24  1  0  0  0  0
 24 27  1  0  0  0  0
 24 25  1  0  0  0  0
 25 26  2  0  0  0  0
M  END
> <s_m_source_file>
AV-unprocessed.smi

> <i_m_source_file_index>
101

> <i_lp_mmshare_version>
43012

> <i_f3d_flags>
0

> <s_epik_input>
Tz1jMVtuSF1jKD1PKW4oW2NIXWMxW0NIM10pW0NAQEhdMk9bQ0BIXShbQ0BASF0oW09IXSlbQ0BIXTJbT0hdKVtDSDJdT0MoPU8pYzNbY0hdW2NIXVtjSF1bY0hdW2NIXTM=

> <s_epik_cmdline>
J2VwaWtfcHl0aG9uJywgJy1waCcsICc3LjAnLCAnLXRuJywgJzgnLCAnLW1hJywgJzIwMCcsICctbWV0YWxfYmluZGluZycsICctaW1hZScsICc8aW5maWxlLm1hZT4nLCAnLW9tYWUnLCAnPG91dGZpbGUubWFlPic=

> <r_lp_tautomer_probability>
0.999537

> <r_epik_Ionization_Penalty>
0.00263537

> <r_epik_Ionization_Penalty_Charging>
0.00263428

> <r_epik_Ionization_Penalty_Neutral>
1.09111e-06

> <r_epik_State_Penalty>
0.00183335

> <r_epik_Charging_Adjusted_Penalty>
0.00446763

> <i_epik_Tot_Q>
0

> <i_epik_Tot_abs_Q>
0

> <r_epik_Metal_State_Penalty>
1.00528

> <b_epik_Metal_Only>
0

> <s_epik_Chemistry_Notes>
This compound has an ester and may undergo hydrolysis at high or low pH. This compound contains an acetal/aminal-like group ( X-CH(R)-Y where X, Y are N, S, or O) that may be acid/base labile, releasing an aldehyde.

> <s_lp_Force_Field>
OPLS_2005

> <r_lp_Energy>
40.9352

> <b_lp_Chiralities_Consistent>
1

> <s_lp_Variant>
AV-unprocessed.smi:101-13

> <Gold.Version>
5.8.1

> <Gold.Id.Protein>
6NUR|6NUR_protein|mol2

> <Gold.PLP.Fitness>
50.2801

> <Gold.PLP.PLP>
-42.9552

> <Gold.PLP.part.hbond>
-4.1357

> <Gold.PLP.part.metal>
0.0000

> <Gold.PLP.part.buried>
-2.6564

> <Gold.PLP.part.nonpolar>
-38.0599

> <Gold.PLP.part.repulsive>
1.2574

> <Gold.PLP.ligand.clash>
0.0000

> <Gold.PLP.ligand.torsion>
0.9285

> <Gold.PLP.Chemscore.Hbond>
3.0216

> <Gold.PLP.Chemscore.CHOScore>
0.0000

> <Gold.PLP.Chemscore.Metal>
0.0000

> <Gold.Chemscore.Hbonds>
donor molecule, donor type, donor heavy atom, donor atom, acceptor molecule, acceptor atom, score
      L1  H    19    42       P1  8028  0.65
      L1  H    24    27       P1 10171  0.69
      P1  H  7954  7966       L1    23  0.80
      P1  H  7997  8009       L1    11  1.00

> <Gold.PLP.Chemscore.Internal.Correction>
0.1172

> <Gold.Rescore>
     Score         DG    S(hbond)    S(metal)    S(lipo)     H(rot)  DE(clash)    DE(int)     intcor
     13.02     -18.30       3.04        0.00      95.42       3.32       2.18       3.09       ----

> <Gold.Chemscore.Fitness>
13.0200

> <Gold.Chemscore.DG>
-18.2974

> <Gold.Chemscore.ZeroCoef>
-5.4800

> <Gold.Chemscore.Hbond>
3.0375

> <Gold.Chemscore.Metal>
0.0000

> <Gold.Chemscore.Lipo>
95.4186

> <Gold.Chemscore.Internal_Hbond>
0.0000

> <Gold.Chemscore.DEClash>
2.1850

> <Gold.Chemscore.DEInternal>
3.0924

> <Gold.Chemscore.Rot>
3.3172

> <Gold.Chemscore.Internal.Correction>
   9.000000E+99

> <Gold.Chemscore.Hbonds>
donor molecule, donor type, donor heavy atom, donor atom, acceptor molecule, acceptor atom, score
      L1  H    19    42       P1  8028  0.61
      L1  H    24    27       P1 10171  0.68
      P1  H  7954  7966       L1    23  0.79
      P1  H  7997  8009       L1    11  0.98

> <Gold.Chemscore.Hbond.Weighted>
-10.1454

> <Gold.Chemscore.Metal.Weighted>
-0.0000

> <Gold.Chemscore.Lipo.Weighted>
-11.1640

> <Gold.Chemscore.Internal_Hbond.Weighted>
0.0000

> <Gold.Chemscore.DEClash.Weighted>
2.1850

> <Gold.Chemscore.DEInternal.Weighted>
3.0924

> <Gold.Chemscore.Rot.Weighted>
8.4920

> <Gold.Chemscore.Internal.Correction.Weighted>
   9.000000E+99

> <Gold.Protein.RotatedTorsions>
[ 6907 6896 6895 6894 ] final -135.85 input  -60.11 | X-H torsion
[ 7974 7965 7964 7962 ] final  -42.93 input  175.53 | X-H torsion
[ 8008 7997 7996 7995 ] final  162.63 input   59.86 | X-H torsion
[ 10167 10162 10161 10158 ] final   38.15 input  -65.29 | X-H torsion
[ 10718 10713 10712 10709 ] final  120.70 input   66.30 | X-H torsion
[ 10763 10752 10751 10750 ] final  162.29 input  -60.55 | X-H torsion
[ 11005 11000 10999 10996 ] final   78.53 input  -57.11 | X-H torsion

> <Gold.Protein.ActiveResidues>
 VAL166  LYS551  ARG553  GLY616  TRP617  ASP618  TYR619  PRO620  LYS621  CYS622 
 ASP623  PHE694  ASN695  SER759  ASP760  ASP761  ALA762  ILE779  LEU786  VAL792 
 PHE793  MET794  SER795  GLU796  ALA797  LYS798  CYS799  TRP800  GLU811  SER814 

> <Gold.Protein.RotatedAtoms>
  151.0029  133.6039  159.2692 H   0  0  0  0  0  0  0  0  0  0  0  0  # atno 6907 bound_to 6896
  151.3218  135.0819  159.9318 H   0  0  0  0  0  0  0  0  0  0  0  0  # atno 6908 bound_to 6896
  152.5279  133.9675  159.7800 H   0  0  0  0  0  0  0  0  0  0  0  0  # atno 6909 bound_to 6896
  146.0068  140.7010  142.9243 H   0  0  0  0  0  0  0  0  0  0  0  0  # atno 7974 bound_to 7965
  156.2017  140.1745  156.7885 H   0  0  0  0  0  0  0  0  0  0  0  0  # atno 8008 bound_to 7997
  154.5601  140.0701  156.8836 H   0  0  0  0  0  0  0  0  0  0  0  0  # atno 8009 bound_to 7997
  155.2865  140.3352  155.4257 H   0  0  0  0  0  0  0  0  0  0  0  0  # atno 8010 bound_to 7997
  140.3964  144.1783  150.6132 H   0  0  0  0  0  0  0  0  0  0  0  0  # atno 10167 bound_to 10162
  157.5872  131.1068  150.8071 H   0  0  0  0  0  0  0  0  0  0  0  0  # atno 10718 bound_to 10713
  154.2760  135.2764  155.2718 H   0  0  0  0  0  0  0  0  0  0  0  0  # atno 10763 bound_to 10752
  154.5260  135.5743  153.6723 H   0  0  0  0  0  0  0  0  0  0  0  0  # atno 10764 bound_to 10752
  152.9937  135.6216  154.2917 H   0  0  0  0  0  0  0  0  0  0  0  0  # atno 10765 bound_to 10752
  139.9209  134.7770  156.1661 H   0  0  0  0  0  0  0  0  0  0  0  0  # atno 11005 bound_to 11000
  144.6938  140.3329  143.7213 LP  0  0  0  0  0  0  0  0  0  0  0  0  # atno 17320 bound_to 7965
  145.7403  139.1762  143.2380 LP  0  0  0  0  0  0  0  0  0  0  0  0  # atno 17321 bound_to 7965
  140.4786  143.2387  151.8988 LP  0  0  0  0  0  0  0  0  0  0  0  0  # atno 17342 bound_to 10162
  139.4786  144.5294  151.8688 LP  0  0  0  0  0  0  0  0  0  0  0  0  # atno 17343 bound_to 10162
  156.8502  130.5078  149.5312 LP  0  0  0  0  0  0  0  0  0  0  0  0  # atno 17370 bound_to 10713
  156.0922  130.5905  150.9753 LP  0  0  0  0  0  0  0  0  0  0  0  0  # atno 17371 bound_to 10713
  141.0728  133.6789  156.2176 LP  0  0  0  0  0  0  0  0  0  0  0  0  # atno 17394 bound_to 11000
  140.6478  134.5099  157.5575 LP  0  0  0  0  0  0  0  0  0  0  0  0  # atno 17395 bound_to 11000

$$$$
