AV-unprocessed.smi:160|AV-procd|sdf|1373|dock8
  -GOLD-   2262019 93D 1   1.00000     0.00000
 Structure written by MMmdl.
 28 29  0  0  0  0  0  0  0  0  2 V2000
  151.9666  137.2799  154.5475 N   0  5  0  0  0  0  0  0  0  0  0  0
  152.5743  138.3278  155.1450 C   0  0  0  0  0  0  0  0  0  0  0  0
  153.7805  138.4430  155.3598 O   0  0  0  0  0  0  0  0  0  0  0  0
  151.6409  139.4368  155.5687 C   0  0  0  0  0  0  0  0  0  0  0  0
  152.0238  140.3441  156.5184 N   0  0  0  0  0  0  0  0  0  0  0  0
  150.9278  141.0894  156.5542 C   0  0  0  0  0  0  0  0  0  0  0  0
  149.9676  140.6944  155.7138 N   0  0  0  0  0  0  0  0  0  0  0  0
  148.6058  141.2767  155.4768 C   0  0  2  0  0  0  0  0  0  0  0  0
  147.6492  140.3426  155.8817 O   0  0  0  0  0  0  0  0  0  0  0  0
  147.0752  139.7142  154.7401 C   0  0  1  0  0  0  0  0  0  0  0  0
  145.7019  139.1282  155.1032 C   0  0  0  0  0  0  0  0  0  0  0  0
  145.0995  138.5568  153.9618 O   0  0  0  0  0  0  0  0  0  0  0  0
  147.0006  140.8852  153.7586 C   0  0  2  0  0  0  0  0  0  0  0  0
  146.8076  140.4739  152.4179 O   0  0  0  0  0  0  0  0  0  0  0  0
  148.3224  141.6151  153.9928 C   0  0  2  0  0  0  0  0  0  0  0  0
  149.3405  141.2071  153.0911 O   0  0  0  0  0  0  0  0  0  0  0  0
  150.4169  139.5964  155.0559 N   0  0  0  0  0  0  0  0  0  0  0  0
  148.5676  142.1483  156.1313 H   0  0  0  0  0  0  0  0  0  0  0  0
  147.7461  138.9446  154.3530 H   0  0  0  0  0  0  0  0  0  0  0  0
  146.1789  141.5436  154.0444 H   0  0  0  0  0  0  0  0  0  0  0  0
  148.1932  142.6929  153.8907 H   0  0  0  0  0  0  0  0  0  0  0  0
  151.5163  137.4303  153.6367 H   0  0  0  0  0  0  0  0  0  0  0  0
  150.8239  141.9442  157.2059 H   0  0  0  0  0  0  0  0  0  0  0  0
  145.7834  138.3888  155.9005 H   0  0  0  0  0  0  0  0  0  0  0  0
  145.0401  139.9176  155.4599 H   0  0  0  0  0  0  0  0  0  0  0  0
  144.5972  139.2239  153.5201 H   0  0  0  0  0  0  0  0  0  0  0  0
  147.6533  140.3984  152.0034 H   0  0  0  0  0  0  0  0  0  0  0  0
  148.9405  140.7446  152.3708 H   0  0  0  0  0  0  0  0  0  0  0  0
  1  2  1  0  0  0  0
  1 22  1  0  0  0  0
  2  3  2  0  0  0  0
  2  4  1  0  0  0  0
  4 17  2  0  0  0  0
  4  5  1  0  0  0  0
  5  6  2  0  0  0  0
  6  7  1  0  0  0  0
  6 23  1  0  0  0  0
  7  8  1  0  0  0  0
  7 17  1  0  0  0  0
  8 18  1  0  0  0  0
  8 15  1  0  0  0  0
  8  9  1  0  0  0  0
  9 10  1  0  0  0  0
 10 19  1  0  0  0  0
 10 11  1  0  0  0  0
 10 13  1  0  0  0  0
 11 12  1  0  0  0  0
 11 24  1  0  0  0  0
 11 25  1  0  0  0  0
 12 26  1  0  0  0  0
 13 20  1  0  0  0  0
 13 14  1  0  0  0  0
 13 15  1  0  0  0  0
 14 27  1  0  0  0  0
 15 21  1  0  0  0  0
 15 16  1  0  0  0  0
 16 28  1  0  0  0  0
M  CHG  1   1  -1
M  END
> <s_m_source_file>
AV-unprocessed.smi

> <i_m_source_file_index>
160

> <i_lp_mmshare_version>
43012

> <i_f3d_flags>
0

> <s_epik_input>
W05IMl1DKD1PKWMxbltjSF1uKG4xKVtDQEBIXTJPW0NASF0oW0NIMl1bT0hdKVtDQEBIXShbT0hdKVtDQEhdMltPSF0=

> <s_epik_cmdline>
J2VwaWtfcHl0aG9uJywgJy1waCcsICc3LjAnLCAnLXRuJywgJzgnLCAnLW1hJywgJzIwMCcsICctbWV0YWxfYmluZGluZycsICctaW1hZScsICc8aW5maWxlLm1hZT4nLCAnLW9tYWUnLCAnPG91dGZpbGUubWFlPic=

> <r_lp_tautomer_probability>
1

> <r_epik_Ionization_Penalty>
6.6993

> <r_epik_Ionization_Penalty_Charging>
6.6993

> <r_epik_Ionization_Penalty_Neutral>
6.01698e-06

> <r_epik_State_Penalty>
6.69929

> <r_epik_Charging_Adjusted_Penalty>
13.3986

> <i_epik_Tot_Q>
-1

> <i_epik_Tot_abs_Q>
1

> <r_epik_Metal_State_Penalty>
2.62798

> <b_epik_Metal_Only>
1

> <s_epik_Chemistry_Notes>
This compound contains an acetal/aminal-like group ( X-CH(R)-Y where X, Y are N, S, or O) that may be acid/base labile, releasing an aldehyde.

> <s_lp_Force_Field>
OPLS_2005

> <r_lp_Energy>
50.1619

> <b_lp_Chiralities_Consistent>
1

> <s_lp_Variant>
AV-unprocessed.smi:160-31

> <Gold.Version>
5.8.1

> <Gold.Id.Protein>
6NUR|6NUR_protein|mol2

> <Gold.PLP.Fitness>
44.3249

> <Gold.PLP.PLP>
-26.6998

> <Gold.PLP.part.hbond>
-6.7464

> <Gold.PLP.part.metal>
0.0000

> <Gold.PLP.part.buried>
-3.3568

> <Gold.PLP.part.nonpolar>
-16.9118

> <Gold.PLP.part.repulsive>
0.0798

> <Gold.PLP.ligand.clash>
0.0000

> <Gold.PLP.ligand.torsion>
0.2375

> <Gold.PLP.Chemscore.Hbond>
6.0279

> <Gold.PLP.Chemscore.CHOScore>
0.0000

> <Gold.PLP.Chemscore.Metal>
0.0000

> <Gold.Chemscore.Hbonds>
donor molecule, donor type, donor heavy atom, donor atom, acceptor molecule, acceptor atom, score
      L1  H    12    26       P1 10175  1.00
      L1  H    14    27       P1  7957  0.75
      L1  H    16    28       P1  7957  0.59
      P1  H  7989  7998       L1    16  0.02
      P1  H  7997  8010       L1     3  0.70
      P1  H  8011  8017       L1    16  0.77
      P1  H 10752 10765       L1     1  1.89

> <Gold.PLP.Chemscore.Internal.Correction>
0.0162

> <Gold.Rescore>
     Score         DG    S(hbond)    S(metal)    S(lipo)     H(rot)  DE(clash)    DE(int)     intcor
      8.84     -10.78       4.01        0.00      19.28       4.04       0.04       1.89       ----

> <Gold.Chemscore.Fitness>
8.8442

> <Gold.Chemscore.DG>
-10.7791

> <Gold.Chemscore.ZeroCoef>
-5.4800

> <Gold.Chemscore.Hbond>
4.0078

> <Gold.Chemscore.Metal>
0.0000

> <Gold.Chemscore.Lipo>
19.2844

> <Gold.Chemscore.Internal_Hbond>
0.0000

> <Gold.Chemscore.DEClash>
0.0435

> <Gold.Chemscore.DEInternal>
1.8913

> <Gold.Chemscore.Rot>
4.0403

> <Gold.Chemscore.Internal.Correction>
   9.000000E+99

> <Gold.Chemscore.Hbonds>
donor molecule, donor type, donor heavy atom, donor atom, acceptor molecule, acceptor atom, score
      L1  H    12    26       P1 10175  1.00
      L1  H    14    27       P1  7957  0.75
      L1  H    16    28       P1  7957  0.57
      P1  H  7989  7998       L1    16  0.03
      P1  H  7997  8010       L1     3  0.67
      P1  H  8011  8017       L1    16  0.08
      P1  H 10752 10765       L1     1  0.43

> <Gold.Chemscore.Hbond.Weighted>
-13.3859

> <Gold.Chemscore.Metal.Weighted>
-0.0000

> <Gold.Chemscore.Lipo.Weighted>
-2.2563

> <Gold.Chemscore.Internal_Hbond.Weighted>
0.0000

> <Gold.Chemscore.DEClash.Weighted>
0.0435

> <Gold.Chemscore.DEInternal.Weighted>
1.8913

> <Gold.Chemscore.Rot.Weighted>
10.3431

> <Gold.Chemscore.Internal.Correction.Weighted>
   9.000000E+99

> <Gold.Protein.RotatedTorsions>
[ 6907 6896 6895 6894 ] final -107.67 input  -60.11 | X-H torsion
[ 7974 7965 7964 7962 ] final  -50.44 input  175.53 | X-H torsion
[ 8008 7997 7996 7995 ] final   99.43 input   59.86 | X-H torsion
[ 10167 10162 10161 10158 ] final  177.94 input  -65.29 | X-H torsion
[ 10718 10713 10712 10709 ] final  -84.67 input   66.30 | X-H torsion
[ 10763 10752 10751 10750 ] final  165.51 input  -60.55 | X-H torsion
[ 11005 11000 10999 10996 ] final  169.88 input  -57.11 | X-H torsion

> <Gold.Protein.ActiveResidues>
 VAL166  LYS551  ARG553  GLY616  TRP617  ASP618  TYR619  PRO620  LYS621  CYS622 
 ASP623  PHE694  ASN695  SER759  ASP760  ASP761  ALA762  ILE779  LEU786  VAL792 
 PHE793  MET794  SER795  GLU796  ALA797  LYS798  CYS799  TRP800  GLU811  SER814 

> <Gold.Protein.RotatedAtoms>
  150.7457  133.9792  159.3570 H   0  0  0  0  0  0  0  0  0  0  0  0  # atno 6907 bound_to 6896
  151.7732  135.0779  160.0372 H   0  0  0  0  0  0  0  0  0  0  0  0  # atno 6908 bound_to 6896
  152.3325  133.5937  159.5855 H   0  0  0  0  0  0  0  0  0  0  0  0  # atno 6909 bound_to 6896
  145.9298  140.7760  142.9605 H   0  0  0  0  0  0  0  0  0  0  0  0  # atno 7974 bound_to 7965
  156.1104  140.3229  155.8065 H   0  0  0  0  0  0  0  0  0  0  0  0  # atno 8008 bound_to 7997
  155.4682  140.0544  157.3000 H   0  0  0  0  0  0  0  0  0  0  0  0  # atno 8009 bound_to 7997
  154.4756  140.2031  155.9900 H   0  0  0  0  0  0  0  0  0  0  0  0  # atno 8010 bound_to 7997
  139.5273  144.2739  152.0604 H   0  0  0  0  0  0  0  0  0  0  0  0  # atno 10167 bound_to 10162
  156.0004  130.4705  150.4445 H   0  0  0  0  0  0  0  0  0  0  0  0  # atno 10718 bound_to 10713
  154.3251  135.2755  155.2500 H   0  0  0  0  0  0  0  0  0  0  0  0  # atno 10763 bound_to 10752
  154.4836  135.5852  153.6411 H   0  0  0  0  0  0  0  0  0  0  0  0  # atno 10764 bound_to 10752
  152.9872  135.6117  154.3439 H   0  0  0  0  0  0  0  0  0  0  0  0  # atno 10765 bound_to 10752
  140.3024  134.7584  157.3927 H   0  0  0  0  0  0  0  0  0  0  0  0  # atno 11005 bound_to 11000
  144.6763  140.2108  143.7377 LP  0  0  0  0  0  0  0  0  0  0  0  0  # atno 17320 bound_to 7965
  145.8441  139.2144  143.1810 LP  0  0  0  0  0  0  0  0  0  0  0  0  # atno 17321 bound_to 7965
  140.2197  144.4479  150.6347 LP  0  0  0  0  0  0  0  0  0  0  0  0  # atno 17342 bound_to 10162
  140.6426  143.2207  151.6256 LP  0  0  0  0  0  0  0  0  0  0  0  0  # atno 17343 bound_to 10162
  157.2483  131.0541  151.2395 LP  0  0  0  0  0  0  0  0  0  0  0  0  # atno 17370 bound_to 10713
  157.3553  130.7103  149.6467 LP  0  0  0  0  0  0  0  0  0  0  0  0  # atno 17371 bound_to 10713
  140.1097  134.5362  155.8277 LP  0  0  0  0  0  0  0  0  0  0  0  0  # atno 17394 bound_to 11000
  141.2125  133.6720  156.6666 LP  0  0  0  0  0  0  0  0  0  0  0  0  # atno 17395 bound_to 11000

$$$$
