AV-unprocessed.smi:2067|AV-procd|sdf|8424|dock4
  -GOLD-   2272011113D 1   1.00000     0.00000
 Structure written by MMmdl.
 47 48  0  0  0  0  0  0  0  0  1 V2000
  151.5137  144.4753  158.9038 C   0  0  0  0  0  0  0  0  0  0  0  0
  152.4420  143.8821  159.9750 C   0  0  1  0  0  0  0  0  0  0  0  0
  151.8167  143.9578  161.3824 C   0  0  0  0  0  0  0  0  0  0  0  0
  152.7683  143.3991  162.4522 C   0  0  0  0  0  0  0  0  0  0  0  0
  153.1979  141.9630  162.1186 C   0  0  0  0  0  0  0  0  0  0  0  0
  153.8238  141.8801  160.7163 C   0  0  0  0  0  0  0  0  0  0  0  0
  152.8767  142.4393  159.6325 C   0  0  1  0  0  0  0  0  0  0  0  0
  151.7144  141.6236  159.5319 O   0  0  0  0  0  0  0  0  0  0  0  0
  151.3521  141.2810  158.2029 C   0  0  0  0  0  0  0  0  0  0  0  0
  150.0625  140.4568  158.2423 C   0  0  0  0  0  0  0  0  0  0  0  0
  149.3641  140.5238  156.9683 N   0  0  0  0  0  0  0  0  0  0  0  0
  148.1120  141.0862  156.7455 C   0  0  0  0  0  0  0  0  0  0  0  0
  147.3885  141.6309  157.7634 C   0  0  0  0  0  0  0  0  0  0  0  0
  147.8310  141.6402  159.1225 C   0  0  0  0  0  0  0  0  0  0  0  0
  148.1732  141.6551  160.2287 N   0  0  0  0  0  0  0  0  0  0  0  0
  146.0678  142.2184  157.5485 C   0  0  0  0  0  0  0  0  0  0  0  0
  145.3825  142.7121  158.4469 O   0  0  0  0  0  0  0  0  0  0  0  0
  145.6115  142.1723  156.2150 N   0  0  0  0  0  0  0  0  0  0  0  0
  144.2992  142.7308  155.9540 C   0  0  0  0  0  0  0  0  0  0  0  0
  146.3273  141.5882  155.1490 C   0  0  0  0  0  0  0  0  0  0  0  0
  145.8619  141.5387  154.0063 O   0  0  0  0  0  0  0  0  0  0  0  0
  147.6057  141.0535  155.4432 N   0  0  0  0  0  0  0  0  0  0  0  0
  148.3050  140.5009  154.3010 C   0  0  0  0  0  0  0  0  0  0  0  0
  150.5729  143.9271  158.8420 H   0  0  0  0  0  0  0  0  0  0  0  0
  151.9812  144.4459  157.9194 H   0  0  0  0  0  0  0  0  0  0  0  0
  151.2760  145.5162  159.1246 H   0  0  0  0  0  0  0  0  0  0  0  0
  153.3427  144.4977  159.9865 H   0  0  0  0  0  0  0  0  0  0  0  0
  151.5656  144.9913  161.6236 H   0  0  0  0  0  0  0  0  0  0  0  0
  150.8786  143.4014  161.4025 H   0  0  0  0  0  0  0  0  0  0  0  0
  153.6501  144.0371  162.5258 H   0  0  0  0  0  0  0  0  0  0  0  0
  152.2854  143.4251  163.4295 H   0  0  0  0  0  0  0  0  0  0  0  0
  153.9080  141.6045  162.8643 H   0  0  0  0  0  0  0  0  0  0  0  0
  152.3322  141.3023  162.1744 H   0  0  0  0  0  0  0  0  0  0  0  0
  154.7533  142.4505  160.7068 H   0  0  0  0  0  0  0  0  0  0  0  0
  154.1029  140.8502  160.4963 H   0  0  0  0  0  0  0  0  0  0  0  0
  153.3967  142.4589  158.6728 H   0  0  0  0  0  0  0  0  0  0  0  0
  151.1858  142.1945  157.6308 H   0  0  0  0  0  0  0  0  0  0  0  0
  152.1407  140.7207  157.6999 H   0  0  0  0  0  0  0  0  0  0  0  0
  150.2758  139.4165  158.4897 H   0  0  0  0  0  0  0  0  0  0  0  0
  149.4222  140.8519  159.0309 H   0  0  0  0  0  0  0  0  0  0  0  0
  150.0031  140.6042  156.1902 H   0  0  0  0  0  0  0  0  0  0  0  0
  144.1586  142.9149  154.8893 H   0  0  0  0  0  0  0  0  0  0  0  0
  144.2223  143.6859  156.4765 H   0  0  0  0  0  0  0  0  0  0  0  0
  143.5683  142.0117  156.3263 H   0  0  0  0  0  0  0  0  0  0  0  0
  147.7198  139.6540  153.9383 H   0  0  0  0  0  0  0  0  0  0  0  0
  149.3020  140.1721  154.5834 H   0  0  0  0  0  0  0  0  0  0  0  0
  148.3873  141.2891  153.5500 H   0  0  0  0  0  0  0  0  0  0  0  0
  1  2  1  0  0  0  0
  1 24  1  0  0  0  0
  1 25  1  0  0  0  0
  1 26  1  0  0  0  0
  2  7  1  0  0  0  0
  2  3  1  0  0  0  0
  2 27  1  0  0  0  0
  3  4  1  0  0  0  0
  3 28  1  0  0  0  0
  3 29  1  0  0  0  0
  4  5  1  0  0  0  0
  4 30  1  0  0  0  0
  4 31  1  0  0  0  0
  5  6  1  0  0  0  0
  5 32  1  0  0  0  0
  5 33  1  0  0  0  0
  6  7  1  0  0  0  0
  6 34  1  0  0  0  0
  6 35  1  0  0  0  0
  7  8  1  0  0  0  0
  7 36  1  0  0  0  0
  8  9  1  0  0  0  0
  9 10  1  0  0  0  0
  9 37  1  0  0  0  0
  9 38  1  0  0  0  0
 10 11  1  0  0  0  0
 10 39  1  0  0  0  0
 10 40  1  0  0  0  0
 11 12  1  0  0  0  0
 11 41  1  0  0  0  0
 12 22  1  0  0  0  0
 12 13  2  0  0  0  0
 13 14  1  0  0  0  0
 13 16  1  0  0  0  0
 14 15  3  0  0  0  0
 16 17  2  0  0  0  0
 16 18  1  0  0  0  0
 18 19  1  0  0  0  0
 18 20  1  0  0  0  0
 19 42  1  0  0  0  0
 19 43  1  0  0  0  0
 19 44  1  0  0  0  0
 20 21  2  0  0  0  0
 20 22  1  0  0  0  0
 22 23  1  0  0  0  0
 23 45  1  0  0  0  0
 23 46  1  0  0  0  0
 23 47  1  0  0  0  0
M  END
> <s_m_source_file>
AV-unprocessed.smi

> <i_m_source_file_index>
2067

> <i_lp_mmshare_version>
43012

> <i_f3d_flags>
0

> <s_epik_input>
W0NIM11bQ0BASF0xW0NIMl1bQ0gyXVtDSDJdW0NIMl1bQ0BIXTFPW0NIMl1bQ0gyXVtOSF1jMmMoQyNOKWMoPU8pbihbQ0gzXSljKD1PKW4yW0NIM10=

> <s_epik_cmdline>
J2VwaWtfcHl0aG9uJywgJy1waCcsICc3LjAnLCAnLXRuJywgJzgnLCAnLW1hJywgJzIwMCcsICctbWV0YWxfYmluZGluZycsICctaW1hZScsICc8aW5maWxlLm1hZT4nLCAnLW9tYWUnLCAnPG91dGZpbGUubWFlPic=

> <r_epik_Ionization_Penalty>
0.00056529

> <r_epik_Ionization_Penalty_Charging>
3.94678e-10

> <r_epik_Ionization_Penalty_Neutral>
0.000565289

> <r_epik_State_Penalty>
0.000354611

> <r_epik_Charging_Adjusted_Penalty>
0.000354611

> <i_epik_Tot_Q>
0

> <i_epik_Tot_abs_Q>
0

> <r_epik_Metal_State_Penalty>
-0

> <b_epik_Metal_Only>
0

> <s_lp_Force_Field>
OPLS_2005

> <r_lp_Energy>
33.1423

> <b_lp_Chiralities_Consistent>
1

> <s_lp_Variant>
AV-unprocessed.smi:2067-2

> <Gold.Version>
5.8.1

> <Gold.Id.Protein>
6NUR|6NUR_protein|mol2

> <Gold.PLP.Fitness>
44.9136

> <Gold.PLP.PLP>
-45.1309

> <Gold.PLP.part.hbond>
-2.0000

> <Gold.PLP.part.metal>
0.0000

> <Gold.PLP.part.buried>
-1.1919

> <Gold.PLP.part.nonpolar>
-41.7518

> <Gold.PLP.part.repulsive>
0.4827

> <Gold.PLP.ligand.clash>
10.2522

> <Gold.PLP.ligand.torsion>
0.7834

> <Gold.PLP.Chemscore.Hbond>
0.4416

> <Gold.PLP.Chemscore.CHOScore>
0.0000

> <Gold.PLP.Chemscore.Metal>
0.0000

> <Gold.PLP.Chemscore.Internal.Correction>
10.2769

> <Gold.Rescore>
     Score         DG    S(hbond)    S(metal)    S(lipo)     H(rot)  DE(clash)    DE(int)     intcor
     11.71     -15.62       0.57        0.00     108.86       1.76       0.55       3.36       ----

> <Gold.Chemscore.Fitness>
11.7094

> <Gold.Chemscore.DG>
-15.6230

> <Gold.Chemscore.ZeroCoef>
-5.4800

> <Gold.Chemscore.Hbond>
0.5712

> <Gold.Chemscore.Metal>
0.0000

> <Gold.Chemscore.Lipo>
108.8591

> <Gold.Chemscore.Internal_Hbond>
0.0000

> <Gold.Chemscore.DEClash>
0.5524

> <Gold.Chemscore.DEInternal>
3.3612

> <Gold.Chemscore.Rot>
1.7583

> <Gold.Chemscore.Internal.Correction>
   9.000000E+99

> <Gold.Chemscore.Hbonds>
donor molecule, donor type, donor heavy atom, donor atom, acceptor molecule, acceptor atom, score
      P1  H  6933  6944       L1    15  0.01

> <Gold.Chemscore.Hbond.Weighted>
-1.9077

> <Gold.Chemscore.Metal.Weighted>
-0.0000

> <Gold.Chemscore.Lipo.Weighted>
-12.7365

> <Gold.Chemscore.Internal_Hbond.Weighted>
0.0000

> <Gold.Chemscore.DEClash.Weighted>
0.5524

> <Gold.Chemscore.DEInternal.Weighted>
3.3612

> <Gold.Chemscore.Rot.Weighted>
4.5012

> <Gold.Chemscore.Internal.Correction.Weighted>
   9.000000E+99

> <Gold.Protein.RotatedTorsions>
[ 6907 6896 6895 6894 ] final -102.06 input  -60.11 | X-H torsion
[ 7974 7965 7964 7962 ] final  118.53 input  175.53 | X-H torsion
[ 8008 7997 7996 7995 ] final -155.90 input   59.86 | X-H torsion
[ 10167 10162 10161 10158 ] final -136.71 input  -65.29 | X-H torsion
[ 10718 10713 10712 10709 ] final   62.63 input   66.30 | X-H torsion
[ 10763 10752 10751 10750 ] final  164.70 input  -60.55 | X-H torsion
[ 11005 11000 10999 10996 ] final  -33.33 input  -57.11 | X-H torsion

> <Gold.Protein.ActiveResidues>
 VAL166  LYS551  ARG553  GLY616  TRP617  ASP618  TYR619  PRO620  LYS621  CYS622 
 ASP623  PHE694  ASN695  SER759  ASP760  ASP761  ALA762  ILE779  LEU786  VAL792 
 PHE793  MET794  SER795  GLU796  ALA797  LYS798  CYS799  TRP800  GLU811  SER814 

> <Gold.Protein.RotatedAtoms>
  150.7180  134.0640  159.3840 H   0  0  0  0  0  0  0  0  0  0  0  0  # atno 6907 bound_to 6896
  151.8620  135.0518  160.0479 H   0  0  0  0  0  0  0  0  0  0  0  0  # atno 6908 bound_to 6896
  152.2710  133.5346  159.5475 H   0  0  0  0  0  0  0  0  0  0  0  0  # atno 6909 bound_to 6896
  145.1540  139.3193  143.4552 H   0  0  0  0  0  0  0  0  0  0  0  0  # atno 7974 bound_to 7965
  155.7089  140.0776  157.2379 H   0  0  0  0  0  0  0  0  0  0  0  0  # atno 8008 bound_to 7997
  154.4061  140.1633  156.2328 H   0  0  0  0  0  0  0  0  0  0  0  0  # atno 8009 bound_to 7997
  155.9300  140.3392  155.6244 H   0  0  0  0  0  0  0  0  0  0  0  0  # atno 8010 bound_to 7997
  139.8651  143.7028  152.2646 H   0  0  0  0  0  0  0  0  0  0  0  0  # atno 10167 bound_to 10162
  157.5914  130.9061  149.9612 H   0  0  0  0  0  0  0  0  0  0  0  0  # atno 10718 bound_to 10713
  154.3129  135.2757  155.2557 H   0  0  0  0  0  0  0  0  0  0  0  0  # atno 10763 bound_to 10752
  154.4944  135.5825  153.6487 H   0  0  0  0  0  0  0  0  0  0  0  0  # atno 10764 bound_to 10752
  152.9886  135.6142  154.3308 H   0  0  0  0  0  0  0  0  0  0  0  0  # atno 10765 bound_to 10752
  140.9626  133.7156  156.1393 H   0  0  0  0  0  0  0  0  0  0  0  0  # atno 11005 bound_to 11000
  146.3491  140.1625  142.8590 LP  0  0  0  0  0  0  0  0  0  0  0  0  # atno 17320 bound_to 7965
  145.0400  140.8938  143.5058 LP  0  0  0  0  0  0  0  0  0  0  0  0  # atno 17321 bound_to 7965
  139.7337  144.7576  151.0761 LP  0  0  0  0  0  0  0  0  0  0  0  0  # atno 17342 bound_to 10162
  140.7769  143.5057  150.9716 LP  0  0  0  0  0  0  0  0  0  0  0  0  # atno 17343 bound_to 10162
  156.0970  130.3658  150.0288 LP  0  0  0  0  0  0  0  0  0  0  0  0  # atno 17370 bound_to 10713
  156.8410  130.9426  151.3632 LP  0  0  0  0  0  0  0  0  0  0  0  0  # atno 17371 bound_to 10713
  140.7446  134.4112  157.5550 LP  0  0  0  0  0  0  0  0  0  0  0  0  # atno 17394 bound_to 11000
  139.8883  134.8859  156.2481 LP  0  0  0  0  0  0  0  0  0  0  0  0  # atno 17395 bound_to 11000

$$$$
