AV-unprocessed.smi:2889|AV-procd|sdf|11109|dock1
  -GOLD-   2272015573D 1   1.00000     0.00000
 Structure written by MMmdl.
 36 37  0  0  0  0  0  0  0  0  1 V2000
  152.1029  144.2849  157.7486 C   0  0  0  0  0  0  0  0  0  0  0  0
  151.2731  144.2521  159.3606 S   0  0  0  0  0  0  0  0  0  0  0  0
  152.6089  143.6474  160.4428 C   0  0  1  0  0  0  0  0  0  0  0  0
  152.2209  143.8106  161.9247 C   0  0  0  0  0  0  0  0  0  0  0  0
  153.3369  143.3288  162.8628 C   0  0  0  0  0  0  0  0  0  0  0  0
  153.7100  141.8693  162.5712 C   0  0  0  0  0  0  0  0  0  0  0  0
  154.1194  141.6792  161.1019 C   0  0  0  0  0  0  0  0  0  0  0  0
  153.0492  142.1977  160.1174 C   0  0  1  0  0  0  0  0  0  0  0  0
  151.8942  141.2901  160.0698 N   0  0  0  0  0  0  0  0  0  0  0  0
  151.6428  140.2980  158.6781 S   0  0  0  0  0  0  0  0  0  0  0  0
  152.9551  139.8079  158.2275 O   0  0  0  0  0  0  0  0  0  0  0  0
  150.5705  139.3488  159.0135 O   0  0  0  0  0  0  0  0  0  0  0  0
  150.9974  141.5094  157.4441 C   0  0  0  0  0  0  0  0  0  0  0  0
  150.5956  140.8007  156.1814 C   0  0  0  0  0  0  0  0  0  0  0  0
  149.3608  140.8816  155.4806 C   0  0  0  0  0  0  0  0  0  0  0  0
  149.5436  140.0496  154.4143 C   0  0  0  0  0  0  0  0  0  0  0  0
  150.7792  139.4907  154.4548 O   0  0  0  0  0  0  0  0  0  0  0  0
  151.4416  139.9721  155.5897 N   0  0  0  0  0  0  0  0  0  0  0  0
  151.4486  144.7380  157.0042 H   0  0  0  0  0  0  0  0  0  0  0  0
  152.3437  143.2755  157.4159 H   0  0  0  0  0  0  0  0  0  0  0  0
  153.0222  144.8682  157.8016 H   0  0  0  0  0  0  0  0  0  0  0  0
  153.4642  144.3000  160.2620 H   0  0  0  0  0  0  0  0  0  0  0  0
  151.9952  144.8565  162.1351 H   0  0  0  0  0  0  0  0  0  0  0  0
  151.3068  143.2521  162.1308 H   0  0  0  0  0  0  0  0  0  0  0  0
  154.2159  143.9637  162.7448 H   0  0  0  0  0  0  0  0  0  0  0  0
  153.0182  143.4302  163.9005 H   0  0  0  0  0  0  0  0  0  0  0  0
  154.5248  141.5569  163.2248 H   0  0  0  0  0  0  0  0  0  0  0  0
  152.8644  141.2206  162.8030 H   0  0  0  0  0  0  0  0  0  0  0  0
  155.0469  142.2259  160.9272 H   0  0  0  0  0  0  0  0  0  0  0  0
  154.3532  140.6322  160.9078 H   0  0  0  0  0  0  0  0  0  0  0  0
  153.5005  142.2059  159.1261 H   0  0  0  0  0  0  0  0  0  0  0  0
  151.8184  140.7461  160.9289 H   0  0  0  0  0  0  0  0  0  0  0  0
  150.1421  142.0178  157.8898 H   0  0  0  0  0  0  0  0  0  0  0  0
  151.7646  142.2601  157.2566 H   0  0  0  0  0  0  0  0  0  0  0  0
  148.4834  141.4646  155.7178 H   0  0  0  0  0  0  0  0  0  0  0  0
  148.9191  139.7629  153.5812 H   0  0  0  0  0  0  0  0  0  0  0  0
  1  2  1  0  0  0  0
  1 19  1  0  0  0  0
  1 20  1  0  0  0  0
  1 21  1  0  0  0  0
  2  3  1  0  0  0  0
  3  8  1  0  0  0  0
  3  4  1  0  0  0  0
  3 22  1  0  0  0  0
  4  5  1  0  0  0  0
  4 23  1  0  0  0  0
  4 24  1  0  0  0  0
  5  6  1  0  0  0  0
  5 25  1  0  0  0  0
  5 26  1  0  0  0  0
  6  7  1  0  0  0  0
  6 27  1  0  0  0  0
  6 28  1  0  0  0  0
  7  8  1  0  0  0  0
  7 29  1  0  0  0  0
  7 30  1  0  0  0  0
  8  9  1  0  0  0  0
  8 31  1  0  0  0  0
  9 10  1  0  0  0  0
  9 32  1  0  0  0  0
 10 11  2  0  0  0  0
 10 12  2  0  0  0  0
 10 13  1  0  0  0  0
 13 14  1  0  0  0  0
 13 33  1  0  0  0  0
 13 34  1  0  0  0  0
 14 18  2  0  0  0  0
 14 15  1  0  0  0  0
 15 16  2  0  0  0  0
 15 35  1  0  0  0  0
 16 17  1  0  0  0  0
 16 36  1  0  0  0  0
 17 18  1  0  0  0  0
M  END
> <s_m_source_file>
AV-unprocessed.smi

> <i_m_source_file_index>
2889

> <i_lp_mmshare_version>
43012

> <i_f3d_flags>
0

> <s_epik_input>
W0NIM11TW0NAQEhdMVtDSDJdW0NIMl1bQ0gyXVtDSDJdW0NASF0xW05IXVMoPU8pKD1PKVtDSDJdYzJbY0hdW2NIXW9uMg==

> <s_epik_cmdline>
J2VwaWtfcHl0aG9uJywgJy1waCcsICc3LjAnLCAnLXRuJywgJzgnLCAnLW1hJywgJzIwMCcsICctbWV0YWxfYmluZGluZycsICctaW1hZScsICc8aW5maWxlLm1hZT4nLCAnLW9tYWUnLCAnPG91dGZpbGUubWFlPic=

> <r_lp_tautomer_probability>
1

> <r_epik_Ionization_Penalty>
0.000229547

> <r_epik_Ionization_Penalty_Charging>
0

> <r_epik_Ionization_Penalty_Neutral>
0.000229547

> <r_epik_State_Penalty>
-0

> <r_epik_Charging_Adjusted_Penalty>
0

> <i_epik_Tot_Q>
0

> <i_epik_Tot_abs_Q>
0

> <r_epik_Metal_State_Penalty>
0.145979

> <b_epik_Metal_Only>
0

> <s_lp_Force_Field>
OPLS_2005

> <r_lp_Energy>
4.05076

> <b_lp_Chiralities_Consistent>
1

> <s_lp_Variant>
AV-unprocessed.smi:2889-2

> <Gold.Version>
5.8.1

> <Gold.Id.Protein>
6NUR|6NUR_protein|mol2

> <Gold.PLP.Fitness>
48.4545

> <Gold.PLP.PLP>
-43.2126

> <Gold.PLP.part.hbond>
-3.4987

> <Gold.PLP.part.metal>
0.0000

> <Gold.PLP.part.buried>
-2.6303

> <Gold.PLP.part.nonpolar>
-37.7995

> <Gold.PLP.part.repulsive>
0.1427

> <Gold.PLP.ligand.clash>
0.0000

> <Gold.PLP.ligand.torsion>
1.1668

> <Gold.PLP.Chemscore.Hbond>
1.5000

> <Gold.PLP.Chemscore.CHOScore>
0.9530

> <Gold.PLP.Chemscore.Metal>
0.0000

> <Gold.Chemscore.Hbonds>
donor molecule, donor type, donor heavy atom, donor atom, acceptor molecule, acceptor atom, score
      P1  H  7989  7998       L1    17  0.28
      P1  H  7997  8008       L1    11  0.94
      L1  C    16    36       P1  7957  0.87

> <Gold.PLP.Chemscore.Internal.Correction>
0.2165

> <Gold.Rescore>
     Score         DG    S(hbond)    S(metal)    S(lipo)     H(rot)  DE(clash)    DE(int)     intcor
     16.83     -18.32       0.98        0.00     121.32       1.81       0.28       1.20       ----

> <Gold.Chemscore.Fitness>
16.8327

> <Gold.Chemscore.DG>
-18.3159

> <Gold.Chemscore.ZeroCoef>
-5.4800

> <Gold.Chemscore.Hbond>
0.9774

> <Gold.Chemscore.Metal>
0.0000

> <Gold.Chemscore.Lipo>
121.3195

> <Gold.Chemscore.Internal_Hbond>
0.0000

> <Gold.Chemscore.DEClash>
0.2805

> <Gold.Chemscore.DEInternal>
1.2027

> <Gold.Chemscore.Rot>
1.8058

> <Gold.Chemscore.Internal.Correction>
   9.000000E+99

> <Gold.Chemscore.Hbonds>
donor molecule, donor type, donor heavy atom, donor atom, acceptor molecule, acceptor atom, score
      P1  H  7997  8008       L1    11  0.89

> <Gold.Chemscore.Hbond.Weighted>
-3.2644

> <Gold.Chemscore.Metal.Weighted>
-0.0000

> <Gold.Chemscore.Lipo.Weighted>
-14.1944

> <Gold.Chemscore.Internal_Hbond.Weighted>
0.0000

> <Gold.Chemscore.DEClash.Weighted>
0.2805

> <Gold.Chemscore.DEInternal.Weighted>
1.2027

> <Gold.Chemscore.Rot.Weighted>
4.6228

> <Gold.Chemscore.Internal.Correction.Weighted>
   9.000000E+99

> <Gold.Protein.RotatedTorsions>
[ 6907 6896 6895 6894 ] final   21.88 input  -60.11 | X-H torsion
[ 7974 7965 7964 7962 ] final   58.57 input  175.53 | X-H torsion
[ 8008 7997 7996 7995 ] final  -74.30 input   59.86 | X-H torsion
[ 10167 10162 10161 10158 ] final  106.40 input  -65.29 | X-H torsion
[ 10718 10713 10712 10709 ] final -164.91 input   66.30 | X-H torsion
[ 10763 10752 10751 10750 ] final -122.59 input  -60.55 | X-H torsion
[ 11005 11000 10999 10996 ] final  111.70 input  -57.11 | X-H torsion

> <Gold.Protein.ActiveResidues>
 VAL166  LYS551  ARG553  GLY616  TRP617  ASP618  TYR619  PRO620  LYS621  CYS622 
 ASP623  PHE694  ASN695  SER759  ASP760  ASP761  ALA762  ILE779  LEU786  VAL792 
 PHE793  MET794  SER795  GLU796  ALA797  LYS798  CYS799  TRP800  GLU811  SER814 

> <Gold.Protein.RotatedAtoms>
  151.9185  135.0308  160.0519 H   0  0  0  0  0  0  0  0  0  0  0  0  # atno 6907 bound_to 6896
  152.2219  133.4986  159.5175 H   0  0  0  0  0  0  0  0  0  0  0  0  # atno 6908 bound_to 6896
  150.7002  134.1247  159.4090 H   0  0  0  0  0  0  0  0  0  0  0  0  # atno 6909 bound_to 6896
  145.9167  139.3697  143.0503 H   0  0  0  0  0  0  0  0  0  0  0  0  # atno 7974 bound_to 7965
  154.5319  140.0764  156.8359 H   0  0  0  0  0  0  0  0  0  0  0  0  # atno 8008 bound_to 7997
  155.3358  140.3404  155.4221 H   0  0  0  0  0  0  0  0  0  0  0  0  # atno 8009 bound_to 7997
  156.1789  140.1645  156.8297 H   0  0  0  0  0  0  0  0  0  0  0  0  # atno 8010 bound_to 7997
  139.7012  144.7094  151.1182 H   0  0  0  0  0  0  0  0  0  0  0  0  # atno 10167 bound_to 10162
  156.6458  130.8987  151.3004 H   0  0  0  0  0  0  0  0  0  0  0  0  # atno 10718 bound_to 10713
  154.8692  135.4128  154.2806 H   0  0  0  0  0  0  0  0  0  0  0  0  # atno 10763 bound_to 10752
  153.3699  135.7007  153.6651 H   0  0  0  0  0  0  0  0  0  0  0  0  # atno 10764 bound_to 10752
  153.5517  135.3627  155.2734 H   0  0  0  0  0  0  0  0  0  0  0  0  # atno 10765 bound_to 10752
  139.8910  134.9514  156.6473 H   0  0  0  0  0  0  0  0  0  0  0  0  # atno 11005 bound_to 11000
  145.8602  140.9479  143.0704 LP  0  0  0  0  0  0  0  0  0  0  0  0  # atno 17320 bound_to 7965
  144.6748  140.0521  143.7478 LP  0  0  0  0  0  0  0  0  0  0  0  0  # atno 17321 bound_to 7965
  140.7710  143.5421  150.9301 LP  0  0  0  0  0  0  0  0  0  0  0  0  # atno 17342 bound_to 10162
  139.9102  143.6729  152.3116 LP  0  0  0  0  0  0  0  0  0  0  0  0  # atno 17343 bound_to 10162
  157.7157  130.9494  150.1245 LP  0  0  0  0  0  0  0  0  0  0  0  0  # atno 17370 bound_to 10713
  156.2123  130.3667  149.8655 LP  0  0  0  0  0  0  0  0  0  0  0  0  # atno 17371 bound_to 10713
  140.7548  133.8867  155.8373 LP  0  0  0  0  0  0  0  0  0  0  0  0  # atno 17394 bound_to 11000
  140.9971  134.1200  157.4353 LP  0  0  0  0  0  0  0  0  0  0  0  0  # atno 17395 bound_to 11000

$$$$
