AV-unprocessed.smi:3306|AV-procd|sdf|12704|dock1
  -GOLD-   2272019 33D 1   1.00000     0.00000
 Structure written by MMmdl.
 44 45  0  0  0  0  0  0  0  0  2 V2000
  145.8011  137.4079  152.0623 C   0  0  0  0  0  0  0  0  0  0  0  0
  146.3015  137.1923  153.5068 C   0  0  0  0  0  0  0  0  0  0  0  0
  145.2421  137.7580  154.4760 C   0  0  0  0  0  0  0  0  0  0  0  0
  147.6586  137.7813  153.7563 N   0  3  2  0  0  0  0  0  0  0  0  0
  148.2720  137.3717  155.0540 C   0  0  0  0  0  0  0  0  0  0  0  0
  149.7016  137.9154  155.2116 C   0  0  0  0  0  0  0  0  0  0  0  0
  149.7383  139.4436  155.0884 C   0  0  1  0  0  0  0  0  0  0  0  0
  151.1288  139.8736  155.1537 N   0  0  0  0  0  0  0  0  0  0  0  0
  151.4683  140.4429  156.4513 C   0  0  0  0  0  0  0  0  0  0  0  0
  150.8176  141.8251  156.6340 C   0  0  0  0  0  0  0  0  0  0  0  0
  151.2689  142.5417  157.8964 C   0  0  0  0  0  0  0  0  0  0  0  0
  151.2377  143.9509  157.9687 C   0  0  0  0  0  0  0  0  0  0  0  0
  151.6813  144.5729  159.1519 C   0  0  0  0  0  0  0  0  0  0  0  0
  152.1379  143.7663  160.2119 C   0  0  0  0  0  0  0  0  0  0  0  0
  152.1303  142.3677  160.0408 C   0  0  0  0  0  0  0  0  0  0  0  0
  151.7079  141.7616  158.9104 N   0  0  0  0  0  0  0  0  0  0  0  0
  149.0996  139.8421  153.7477 C   0  0  0  0  0  0  0  0  0  0  0  0
  147.6804  139.2666  153.6145 C   0  0  0  0  0  0  0  0  0  0  0  0
  144.7685  137.0753  151.9509 H   0  0  0  0  0  0  0  0  0  0  0  0
  146.3783  136.8358  151.3359 H   0  0  0  0  0  0  0  0  0  0  0  0
  145.8375  138.4607  151.7794 H   0  0  0  0  0  0  0  0  0  0  0  0
  146.3676  136.1153  153.6701 H   0  0  0  0  0  0  0  0  0  0  0  0
  144.2435  137.4082  154.2122 H   0  0  0  0  0  0  0  0  0  0  0  0
  145.2234  138.8482  154.4512 H   0  0  0  0  0  0  0  0  0  0  0  0
  145.4042  137.4442  155.5060 H   0  0  0  0  0  0  0  0  0  0  0  0
  147.6443  137.7112  155.8792 H   0  0  0  0  0  0  0  0  0  0  0  0
  148.3420  136.2879  155.1278 H   0  0  0  0  0  0  0  0  0  0  0  0
  150.1035  137.6086  156.1782 H   0  0  0  0  0  0  0  0  0  0  0  0
  150.3432  137.4626  154.4534 H   0  0  0  0  0  0  0  0  0  0  0  0
  149.1790  139.8775  155.9188 H   0  0  0  0  0  0  0  0  0  0  0  0
  151.7377  139.0875  154.9745 H   0  0  0  0  0  0  0  0  0  0  0  0
  151.1516  139.7838  157.2591 H   0  0  0  0  0  0  0  0  0  0  0  0
  152.5523  140.5409  156.5204 H   0  0  0  0  0  0  0  0  0  0  0  0
  151.0608  142.4525  155.7757 H   0  0  0  0  0  0  0  0  0  0  0  0
  149.7305  141.7320  156.6370 H   0  0  0  0  0  0  0  0  0  0  0  0
  150.8851  144.5427  157.1368 H   0  0  0  0  0  0  0  0  0  0  0  0
  151.6728  145.6489  159.2440 H   0  0  0  0  0  0  0  0  0  0  0  0
  152.4856  144.2086  161.1338 H   0  0  0  0  0  0  0  0  0  0  0  0
  152.4743  141.7185  160.8325 H   0  0  0  0  0  0  0  0  0  0  0  0
  149.0508  140.9262  153.6486 H   0  0  0  0  0  0  0  0  0  0  0  0
  149.7151  139.4848  152.9204 H   0  0  0  0  0  0  0  0  0  0  0  0
  147.3014  139.5722  152.6416 H   0  0  0  0  0  0  0  0  0  0  0  0
  147.0248  139.7135  154.3636 H   0  0  0  0  0  0  0  0  0  0  0  0
  148.2627  137.4145  153.0345 H   0  0  0  0  0  0  0  0  0  0  0  0
  1  2  1  0  0  0  0
  1 19  1  0  0  0  0
  1 20  1  0  0  0  0
  1 21  1  0  0  0  0
  2  3  1  0  0  0  0
  2  4  1  0  0  0  0
  2 22  1  0  0  0  0
  3 23  1  0  0  0  0
  3 24  1  0  0  0  0
  3 25  1  0  0  0  0
  4 18  1  0  0  0  0
  4  5  1  0  0  0  0
  4 44  1  0  0  0  0
  5  6  1  0  0  0  0
  5 26  1  0  0  0  0
  5 27  1  0  0  0  0
  6  7  1  0  0  0  0
  6 28  1  0  0  0  0
  6 29  1  0  0  0  0
  7  8  1  0  0  0  0
  7 17  1  0  0  0  0
  7 30  1  0  0  0  0
  8  9  1  0  0  0  0
  8 31  1  0  0  0  0
  9 10  1  0  0  0  0
  9 32  1  0  0  0  0
  9 33  1  0  0  0  0
 10 11  1  0  0  0  0
 10 34  1  0  0  0  0
 10 35  1  0  0  0  0
 11 16  1  0  0  0  0
 11 12  2  0  0  0  0
 12 13  1  0  0  0  0
 12 36  1  0  0  0  0
 13 14  2  0  0  0  0
 13 37  1  0  0  0  0
 14 15  1  0  0  0  0
 14 38  1  0  0  0  0
 15 16  2  0  0  0  0
 15 39  1  0  0  0  0
 17 18  1  0  0  0  0
 17 40  1  0  0  0  0
 17 41  1  0  0  0  0
 18 42  1  0  0  0  0
 18 43  1  0  0  0  0
M  CHG  1   4   1
M  END
> <s_m_source_file>
AV-unprocessed.smi

> <i_m_source_file_index>
3306

> <i_lp_mmshare_version>
43012

> <i_f3d_flags>
0

> <s_epik_input>
W0NIM11bQ0hdKFtDSDNdKU4xW0NIMl1bQ0gyXVtDSF0oW0NIMl1bQ0gyXTEpW05IXVtDSDJdW0NIMl1jMltjSF1bY0hdW2NIXVtjSF1uMg==

> <s_epik_cmdline>
J2VwaWtfcHl0aG9uJywgJy1waCcsICc3LjAnLCAnLXRuJywgJzgnLCAnLW1hJywgJzIwMCcsICctbWV0YWxfYmluZGluZycsICctaW1hZScsICc8aW5maWxlLm1hZT4nLCAnLW9tYWUnLCAnPG91dGZpbGUubWFlPic=

> <r_epik_Ionization_Penalty>
2.29993

> <r_epik_Ionization_Penalty_Charging>
0.000386008

> <r_epik_Ionization_Penalty_Neutral>
2.29954

> <r_epik_State_Penalty>
2.40593

> <r_epik_Charging_Adjusted_Penalty>
2.40631

> <i_epik_Tot_Q>
1

> <i_epik_Tot_abs_Q>
1

> <r_epik_Metal_State_Penalty>
2.31593

> <b_epik_Metal_Only>
0

> <s_lp_Force_Field>
OPLS_2005

> <r_lp_Energy>
25.7367

> <b_lp_Chiralities_Consistent>
1

> <s_lp_Variant>
AV-unprocessed.smi:3306-4

> <Gold.Version>
5.8.1

> <Gold.Id.Protein>
6NUR|6NUR_protein|mol2

> <Gold.PLP.Fitness>
41.2123

> <Gold.PLP.PLP>
-34.2123

> <Gold.PLP.part.hbond>
-2.0000

> <Gold.PLP.part.metal>
0.0000

> <Gold.PLP.part.buried>
-0.1670

> <Gold.PLP.part.nonpolar>
-32.1767

> <Gold.PLP.part.repulsive>
0.0061

> <Gold.PLP.ligand.clash>
0.0000

> <Gold.PLP.ligand.torsion>
1.0638

> <Gold.PLP.Chemscore.Hbond>
3.0000

> <Gold.PLP.Chemscore.CHOScore>
0.0000

> <Gold.PLP.Chemscore.Metal>
0.0000

> <Gold.Chemscore.Hbonds>
donor molecule, donor type, donor heavy atom, donor atom, acceptor molecule, acceptor atom, score
      L1  H     4    44       P1  7948  2.00
      P1  H  7989  7998       L1     8  0.75

> <Gold.PLP.Chemscore.Internal.Correction>
0.1276

> <Gold.Rescore>
     Score         DG    S(hbond)    S(metal)    S(lipo)     H(rot)  DE(clash)    DE(int)     intcor
     16.27     -19.16       1.31        0.00     110.36       1.41       1.99       0.90       ----

> <Gold.Chemscore.Fitness>
16.2744

> <Gold.Chemscore.DG>
-19.1617

> <Gold.Chemscore.ZeroCoef>
-5.4800

> <Gold.Chemscore.Hbond>
1.3094

> <Gold.Chemscore.Metal>
0.0000

> <Gold.Chemscore.Lipo>
110.3622

> <Gold.Chemscore.Internal_Hbond>
0.0000

> <Gold.Chemscore.DEClash>
1.9891

> <Gold.Chemscore.DEInternal>
0.8982

> <Gold.Chemscore.Rot>
1.4078

> <Gold.Chemscore.Internal.Correction>
   9.000000E+99

> <Gold.Chemscore.Hbonds>
donor molecule, donor type, donor heavy atom, donor atom, acceptor molecule, acceptor atom, score
      L1  H     4    44       P1  7948  1.00
      P1  H  7989  7998       L1     8  0.07

> <Gold.Chemscore.Hbond.Weighted>
-4.3734

> <Gold.Chemscore.Metal.Weighted>
-0.0000

> <Gold.Chemscore.Lipo.Weighted>
-12.9124

> <Gold.Chemscore.Internal_Hbond.Weighted>
0.0000

> <Gold.Chemscore.DEClash.Weighted>
1.9891

> <Gold.Chemscore.DEInternal.Weighted>
0.8982

> <Gold.Chemscore.Rot.Weighted>
3.6041

> <Gold.Chemscore.Internal.Correction.Weighted>
   9.000000E+99

> <Gold.Protein.RotatedTorsions>
[ 6907 6896 6895 6894 ] final -128.52 input  -60.11 | X-H torsion
[ 7974 7965 7964 7962 ] final   -3.85 input  175.53 | X-H torsion
[ 8008 7997 7996 7995 ] final -157.84 input   59.86 | X-H torsion
[ 10167 10162 10161 10158 ] final -126.64 input  -65.29 | X-H torsion
[ 10718 10713 10712 10709 ] final  -58.45 input   66.30 | X-H torsion
[ 10763 10752 10751 10750 ] final  -47.21 input  -60.55 | X-H torsion
[ 11005 11000 10999 10996 ] final    9.14 input  -57.11 | X-H torsion

> <Gold.Protein.ActiveResidues>
 VAL166  LYS551  ARG553  GLY616  TRP617  ASP618  TYR619  PRO620  LYS621  CYS622 
 ASP623  PHE694  ASN695  SER759  ASP760  ASP761  ALA762  ILE779  LEU786  VAL792 
 PHE793  MET794  SER795  GLU796  ALA797  LYS798  CYS799  TRP800  GLU811  SER814 

> <Gold.Protein.RotatedAtoms>
  150.9188  133.6906  159.2836 H   0  0  0  0  0  0  0  0  0  0  0  0  # atno 6907 bound_to 6896
  151.4368  135.1014  159.9668 H   0  0  0  0  0  0  0  0  0  0  0  0  # atno 6908 bound_to 6896
  152.4968  133.8605  159.7303 H   0  0  0  0  0  0  0  0  0  0  0  0  # atno 6909 bound_to 6896
  146.2382  140.1783  142.8332 H   0  0  0  0  0  0  0  0  0  0  0  0  # atno 7974 bound_to 7965
  155.7386  140.0811  157.2256 H   0  0  0  0  0  0  0  0  0  0  0  0  # atno 8008 bound_to 7997
  154.4024  140.1582  156.2645 H   0  0  0  0  0  0  0  0  0  0  0  0  # atno 8009 bound_to 7997
  155.9042  140.3408  155.6052 H   0  0  0  0  0  0  0  0  0  0  0  0  # atno 8010 bound_to 7997
  139.9693  143.5863  152.2418 H   0  0  0  0  0  0  0  0  0  0  0  0  # atno 10167 bound_to 10162
  156.1134  130.4173  150.0579 H   0  0  0  0  0  0  0  0  0  0  0  0  # atno 10718 bound_to 10713
  154.0576  135.6622  153.4808 H   0  0  0  0  0  0  0  0  0  0  0  0  # atno 10763 bound_to 10752
  153.0439  135.5127  154.7690 H   0  0  0  0  0  0  0  0  0  0  0  0  # atno 10764 bound_to 10752
  154.6716  135.3030  154.9700 H   0  0  0  0  0  0  0  0  0  0  0  0  # atno 10765 bound_to 10752
  140.5291  134.0484  155.7868 H   0  0  0  0  0  0  0  0  0  0  0  0  # atno 11005 bound_to 11000
  144.9955  140.8585  143.5313 LP  0  0  0  0  0  0  0  0  0  0  0  0  # atno 17320 bound_to 7965
  145.1795  139.2359  143.5300 LP  0  0  0  0  0  0  0  0  0  0  0  0  # atno 17321 bound_to 7965
  139.6494  144.7660  151.2179 LP  0  0  0  0  0  0  0  0  0  0  0  0  # atno 17342 bound_to 10162
  140.7527  143.6186  150.8535 LP  0  0  0  0  0  0  0  0  0  0  0  0  # atno 17343 bound_to 10162
  156.8537  130.9467  151.3623 LP  0  0  0  0  0  0  0  0  0  0  0  0  # atno 17370 bound_to 10713
  157.6316  130.8734  149.9285 LP  0  0  0  0  0  0  0  0  0  0  0  0  # atno 17371 bound_to 10713
  141.1291  133.9332  157.2573 LP  0  0  0  0  0  0  0  0  0  0  0  0  # atno 17394 bound_to 11000
  139.9564  135.0164  156.9139 LP  0  0  0  0  0  0  0  0  0  0  0  0  # atno 17395 bound_to 11000

$$$$
