AV-unprocessed.smi:2215|AV-procd|sdf|8961|dock6
  -GOLD-   2272012183D 1   1.00000     0.00000
 Structure written by MMmdl.
 40 41  0  0  0  0  0  0  0  0  1 V2000
  151.6599  142.0303  156.9963 C   0  0  0  0  0  0  0  0  0  0  0  0
  150.8876  141.1958  155.9958 C   0  0  0  0  0  0  0  0  0  0  0  0
  151.4014  139.9758  155.5177 C   0  0  0  0  0  0  0  0  0  0  0  0
  150.6402  139.2344  154.5935 C   0  0  0  0  0  0  0  0  0  0  0  0
  149.3854  139.7277  154.1702 C   0  0  0  0  0  0  0  0  0  0  0  0
  148.6948  138.8985  153.2463 N   0  0  0  0  0  0  0  0  0  0  0  0
  147.4065  138.9680  152.8669 C   0  0  0  0  0  0  0  0  0  0  0  0
  146.6002  139.8243  153.2318 O   0  0  0  0  0  0  0  0  0  0  0  0
  147.0964  137.9736  152.0224 N   0  0  0  0  0  0  0  0  0  0  0  0
  145.7790  137.7500  151.4349 C   0  0  0  0  0  0  0  0  0  0  0  0
  145.1477  136.4097  151.8763 C   0  0  1  0  0  0  0  0  0  0  0  0
  143.6658  136.5483  152.2952 C   0  0  0  0  0  0  0  0  0  0  0  0
  143.0803  135.2057  152.7623 C   0  0  0  0  0  0  0  0  0  0  0  0
  143.2396  134.1198  151.6881 C   0  0  0  0  0  0  0  0  0  0  0  0
  144.7101  133.9672  151.2629 C   0  0  0  0  0  0  0  0  0  0  0  0
  145.3226  135.3050  150.8048 C   0  0  1  0  0  0  0  0  0  0  0  0
  144.7352  135.6859  149.5742 O   0  0  0  0  0  0  0  0  0  0  0  0
  148.8991  140.9053  154.6362 N   0  0  0  0  0  0  0  0  0  0  0  0
  149.6295  141.6154  155.5217 C   0  0  0  0  0  0  0  0  0  0  0  0
  152.7270  141.8119  156.9462 H   0  0  0  0  0  0  0  0  0  0  0  0
  151.3131  141.8200  158.0081 H   0  0  0  0  0  0  0  0  0  0  0  0
  151.5223  143.0940  156.7990 H   0  0  0  0  0  0  0  0  0  0  0  0
  152.3612  139.6106  155.8522 H   0  0  0  0  0  0  0  0  0  0  0  0
  151.0194  138.2952  154.2176 H   0  0  0  0  0  0  0  0  0  0  0  0
  149.2403  138.1503  152.8445 H   0  0  0  0  0  0  0  0  0  0  0  0
  147.8211  137.3165  151.7730 H   0  0  0  0  0  0  0  0  0  0  0  0
  145.1415  138.5827  151.7326 H   0  0  0  0  0  0  0  0  0  0  0  0
  145.8504  137.7946  150.3469 H   0  0  0  0  0  0  0  0  0  0  0  0
  145.6966  136.0737  152.7577 H   0  0  0  0  0  0  0  0  0  0  0  0
  143.5656  137.2752  153.1014 H   0  0  0  0  0  0  0  0  0  0  0  0
  143.0785  136.9336  151.4607 H   0  0  0  0  0  0  0  0  0  0  0  0
  143.5805  134.8890  153.6783 H   0  0  0  0  0  0  0  0  0  0  0  0
  142.0261  135.3275  153.0129 H   0  0  0  0  0  0  0  0  0  0  0  0
  142.8621  133.1683  152.0633 H   0  0  0  0  0  0  0  0  0  0  0  0
  142.6282  134.3720  150.8206 H   0  0  0  0  0  0  0  0  0  0  0  0
  145.2850  133.5827  152.1061 H   0  0  0  0  0  0  0  0  0  0  0  0
  144.7958  133.2207  150.4723 H   0  0  0  0  0  0  0  0  0  0  0  0
  146.3864  135.1544  150.6168 H   0  0  0  0  0  0  0  0  0  0  0  0
  145.2322  135.2967  148.8711 H   0  0  0  0  0  0  0  0  0  0  0  0
  149.1943  142.5433  155.8630 H   0  0  0  0  0  0  0  0  0  0  0  0
  1  2  1  0  0  0  0
  1 20  1  0  0  0  0
  1 21  1  0  0  0  0
  1 22  1  0  0  0  0
  2 19  1  0  0  0  0
  2  3  2  0  0  0  0
  3  4  1  0  0  0  0
  3 23  1  0  0  0  0
  4  5  2  0  0  0  0
  4 24  1  0  0  0  0
  5  6  1  0  0  0  0
  5 18  1  0  0  0  0
  6  7  1  0  0  0  0
  6 25  1  0  0  0  0
  7  8  2  0  0  0  0
  7  9  1  0  0  0  0
  9 10  1  0  0  0  0
  9 26  1  0  0  0  0
 10 11  1  0  0  0  0
 10 27  1  0  0  0  0
 10 28  1  0  0  0  0
 11 16  1  0  0  0  0
 11 12  1  0  0  0  0
 11 29  1  0  0  0  0
 12 13  1  0  0  0  0
 12 30  1  0  0  0  0
 12 31  1  0  0  0  0
 13 14  1  0  0  0  0
 13 32  1  0  0  0  0
 13 33  1  0  0  0  0
 14 15  1  0  0  0  0
 14 34  1  0  0  0  0
 14 35  1  0  0  0  0
 15 16  1  0  0  0  0
 15 36  1  0  0  0  0
 15 37  1  0  0  0  0
 16 17  1  0  0  0  0
 16 38  1  0  0  0  0
 17 39  1  0  0  0  0
 18 19  2  0  0  0  0
 19 40  1  0  0  0  0
M  END
> <s_m_source_file>
AV-unprocessed.smi

> <i_m_source_file_index>
2215

> <i_lp_mmshare_version>
43012

> <i_f3d_flags>
0

> <s_epik_input>
W0NIM11jMVtjSF1bY0hdYyhuW2NIXTEpW05IXUMoPU8pW05IXVtDSDJdW0NAQEhdMltDSDJdW0NIMl1bQ0gyXVtDSDJdW0NASF0yW09IXQ==

> <s_epik_cmdline>
J2VwaWtfcHl0aG9uJywgJy1waCcsICc3LjAnLCAnLXRuJywgJzgnLCAnLW1hJywgJzIwMCcsICctbWV0YWxfYmluZGluZycsICctaW1hZScsICc8aW5maWxlLm1hZT4nLCAnLW9tYWUnLCAnPG91dGZpbGUubWFlPic=

> <r_lp_tautomer_probability>
1

> <r_epik_Ionization_Penalty>
6.08491e-05

> <r_epik_Ionization_Penalty_Charging>
0

> <r_epik_Ionization_Penalty_Neutral>
6.08491e-05

> <r_epik_State_Penalty>
-0

> <r_epik_Charging_Adjusted_Penalty>
0

> <i_epik_Tot_Q>
0

> <i_epik_Tot_abs_Q>
0

> <r_epik_Metal_State_Penalty>
-0

> <b_epik_Metal_Only>
0

> <s_lp_Force_Field>
OPLS_2005

> <r_lp_Energy>
16.7167

> <b_lp_Chiralities_Consistent>
1

> <s_lp_Variant>
AV-unprocessed.smi:2215-2

> <Gold.Version>
5.8.1

> <Gold.Id.Protein>
6NUR|6NUR_protein|mol2

> <Gold.PLP.Fitness>
45.5479

> <Gold.PLP.PLP>
-36.4166

> <Gold.PLP.part.hbond>
-4.9199

> <Gold.PLP.part.metal>
0.0000

> <Gold.PLP.part.buried>
-1.9225

> <Gold.PLP.part.nonpolar>
-30.1854

> <Gold.PLP.part.repulsive>
0.4470

> <Gold.PLP.ligand.clash>
0.0000

> <Gold.PLP.ligand.torsion>
0.6517

> <Gold.PLP.Chemscore.Hbond>
2.4742

> <Gold.PLP.Chemscore.CHOScore>
1.0000

> <Gold.PLP.Chemscore.Metal>
0.0000

> <Gold.Chemscore.Hbonds>
donor molecule, donor type, donor heavy atom, donor atom, acceptor molecule, acceptor atom, score
      L1  H     6    25       P1  7948  0.60
      L1  H     9    26       P1  7948  1.00
      L1  H    17    39       P1  7921  1.00
      L1  C    19    40       P1  8028  1.00

> <Gold.PLP.Chemscore.Internal.Correction>
0.0121

> <Gold.Rescore>
     Score         DG    S(hbond)    S(metal)    S(lipo)     H(rot)  DE(clash)    DE(int)     intcor
     15.08     -19.27       2.83        0.00      75.12       1.73       2.25       1.93       ----

> <Gold.Chemscore.Fitness>
15.0805

> <Gold.Chemscore.DG>
-19.2674

> <Gold.Chemscore.ZeroCoef>
-5.4800

> <Gold.Chemscore.Hbond>
2.8255

> <Gold.Chemscore.Metal>
0.0000

> <Gold.Chemscore.Lipo>
75.1179

> <Gold.Chemscore.Internal_Hbond>
0.0000

> <Gold.Chemscore.DEClash>
2.2550

> <Gold.Chemscore.DEInternal>
1.9320

> <Gold.Chemscore.Rot>
1.7339

> <Gold.Chemscore.Internal.Correction>
   9.000000E+99

> <Gold.Chemscore.Hbonds>
donor molecule, donor type, donor heavy atom, donor atom, acceptor molecule, acceptor atom, score
      L1  H     6    25       P1  7948  0.57
      L1  H     9    26       P1  7948  0.94
      L1  H    17    39       P1  7921  0.99

> <Gold.Chemscore.Hbond.Weighted>
-9.4373

> <Gold.Chemscore.Metal.Weighted>
-0.0000

> <Gold.Chemscore.Lipo.Weighted>
-8.7888

> <Gold.Chemscore.Internal_Hbond.Weighted>
0.0000

> <Gold.Chemscore.DEClash.Weighted>
2.2550

> <Gold.Chemscore.DEInternal.Weighted>
1.9320

> <Gold.Chemscore.Rot.Weighted>
4.4387

> <Gold.Chemscore.Internal.Correction.Weighted>
   9.000000E+99

> <Gold.Protein.RotatedTorsions>
[ 6907 6896 6895 6894 ] final  126.40 input  -60.11 | X-H torsion
[ 7974 7965 7964 7962 ] final  167.08 input  175.53 | X-H torsion
[ 8008 7997 7996 7995 ] final  -95.65 input   59.86 | X-H torsion
[ 10167 10162 10161 10158 ] final -144.58 input  -65.29 | X-H torsion
[ 10718 10713 10712 10709 ] final  133.36 input   66.30 | X-H torsion
[ 10763 10752 10751 10750 ] final  106.85 input  -60.55 | X-H torsion
[ 11005 11000 10999 10996 ] final   -6.02 input  -57.11 | X-H torsion

> <Gold.Protein.ActiveResidues>
 VAL166  LYS551  ARG553  GLY616  TRP617  ASP618  TYR619  PRO620  LYS621  CYS622 
 ASP623  PHE694  ASN695  SER759  ASP760  ASP761  ALA762  ILE779  LEU786  VAL792 
 PHE793  MET794  SER795  GLU796  ALA797  LYS798  CYS799  TRP800  GLU811  SER814 

> <Gold.Protein.RotatedAtoms>
  152.3907  133.6675  159.6234 H   0  0  0  0  0  0  0  0  0  0  0  0  # atno 6907 bound_to 6896
  150.7816  133.8959  159.3336 H   0  0  0  0  0  0  0  0  0  0  0  0  # atno 6908 bound_to 6896
  151.6746  135.0972  160.0256 H   0  0  0  0  0  0  0  0  0  0  0  0  # atno 6909 bound_to 6896
  144.7437  139.8709  143.6389 H   0  0  0  0  0  0  0  0  0  0  0  0  # atno 7974 bound_to 7965
  154.7642  140.0478  157.0998 H   0  0  0  0  0  0  0  0  0  0  0  0  # atno 8008 bound_to 7997
  154.9900  140.3112  155.4890 H   0  0  0  0  0  0  0  0  0  0  0  0  # atno 8009 bound_to 7997
  156.2909  140.2220  156.5005 H   0  0  0  0  0  0  0  0  0  0  0  0  # atno 8010 bound_to 7997
  139.7885  143.7999  152.2647 H   0  0  0  0  0  0  0  0  0  0  0  0  # atno 10167 bound_to 10162
  157.4780  131.1084  150.9718 H   0  0  0  0  0  0  0  0  0  0  0  0  # atno 10718 bound_to 10713
  153.3987  135.3863  155.1972 H   0  0  0  0  0  0  0  0  0  0  0  0  # atno 10763 bound_to 10752
  154.8727  135.3766  154.4646 H   0  0  0  0  0  0  0  0  0  0  0  0  # atno 10764 bound_to 10752
  153.5141  135.7087  153.5827 H   0  0  0  0  0  0  0  0  0  0  0  0  # atno 10765 bound_to 10752
  140.6975  133.9018  155.8660 H   0  0  0  0  0  0  0  0  0  0  0  0  # atno 11005 bound_to 11000
  146.1280  139.4310  143.0186 LP  0  0  0  0  0  0  0  0  0  0  0  0  # atno 17320 bound_to 7965
  145.7205  141.0076  143.1405 LP  0  0  0  0  0  0  0  0  0  0  0  0  # atno 17321 bound_to 7965
  139.8083  144.7346  150.9731 LP  0  0  0  0  0  0  0  0  0  0  0  0  # atno 17342 bound_to 10162
  140.7820  143.4275  151.0745 LP  0  0  0  0  0  0  0  0  0  0  0  0  # atno 17343 bound_to 10162
  157.0461  130.5768  149.5363 LP  0  0  0  0  0  0  0  0  0  0  0  0  # atno 17370 bound_to 10713
  156.0107  130.5198  150.7978 LP  0  0  0  0  0  0  0  0  0  0  0  0  # atno 17371 bound_to 10713
  141.0191  134.0914  157.4140 LP  0  0  0  0  0  0  0  0  0  0  0  0  # atno 17394 bound_to 11000
  139.8906  135.0113  156.6744 LP  0  0  0  0  0  0  0  0  0  0  0  0  # atno 17395 bound_to 11000

$$$$
