AV-unprocessed.smi:3345|AV-procd|sdf|12899|dock4
  -GOLD-   2272019313D 1   1.00000     0.00000
 Structure written by MMmdl.
 40 41  0  0  0  0  0  0  0  0  1 V2000
  146.6090  141.1699  154.0974 C   0  0  0  0  0  0  0  0  0  0  0  0
  146.6919  139.6502  154.2909 C   0  0  2  0  0  0  0  0  0  0  0  0
  148.0315  139.0820  153.7740 C   0  0  0  0  0  0  0  0  0  0  0  0
  149.1638  139.2044  154.6952 N   0  0  0  0  0  0  0  0  0  0  0  0
  149.4501  140.5893  155.0610 C   0  0  0  0  0  0  0  0  0  0  0  0
  150.6413  140.6882  156.0292 C   0  0  0  0  0  0  0  0  0  0  0  0
  151.7838  140.0684  155.4475 O   0  0  0  0  0  0  0  0  0  0  0  0
  151.5583  138.7029  155.1128 C   0  0  0  0  0  0  0  0  0  0  0  0
  150.3692  138.5989  154.1422 C   0  0  0  0  0  0  0  0  0  0  0  0
  145.5872  139.0071  153.5840 N   0  0  0  0  0  0  0  0  0  0  0  0
  145.2907  137.6977  153.6142 C   0  0  0  0  0  0  0  0  0  0  0  0
  145.8156  136.9005  154.3923 O   0  0  0  0  0  0  0  0  0  0  0  0
  144.2766  137.2199  152.5643 C   0  0  2  0  0  0  0  0  0  0  0  0
  142.8601  137.0223  153.1421 C   0  0  0  0  0  0  0  0  0  0  0  0
  144.7839  136.0169  151.9127 N   0  0  0  0  0  0  0  0  0  0  0  0
  145.1612  135.8229  150.6469 C   0  0  0  0  0  0  0  0  0  0  0  0
  145.6441  134.6123  150.4067 N   0  0  0  0  0  0  0  0  0  0  0  0
  145.5425  134.0750  151.6581 C   0  0  0  0  0  0  0  0  0  0  0  0
  145.0445  134.8764  152.5994 N   0  0  0  0  0  0  0  0  0  0  0  0
  147.4192  141.6754  154.6235 H   0  0  0  0  0  0  0  0  0  0  0  0
  145.6690  141.5640  154.4852 H   0  0  0  0  0  0  0  0  0  0  0  0
  146.6755  141.4423  153.0436 H   0  0  0  0  0  0  0  0  0  0  0  0
  146.6214  139.4610  155.3626 H   0  0  0  0  0  0  0  0  0  0  0  0
  147.8781  138.0246  153.5532 H   0  0  0  0  0  0  0  0  0  0  0  0
  148.2821  139.5500  152.8208 H   0  0  0  0  0  0  0  0  0  0  0  0
  149.6626  141.1731  154.1643 H   0  0  0  0  0  0  0  0  0  0  0  0
  148.5809  141.0459  155.5326 H   0  0  0  0  0  0  0  0  0  0  0  0
  150.8708  141.7319  156.2432 H   0  0  0  0  0  0  0  0  0  0  0  0
  150.4046  140.2104  156.9809 H   0  0  0  0  0  0  0  0  0  0  0  0
  152.4592  138.2945  154.6547 H   0  0  0  0  0  0  0  0  0  0  0  0
  151.3694  138.1257  156.0187 H   0  0  0  0  0  0  0  0  0  0  0  0
  150.1845  137.5488  153.9131 H   0  0  0  0  0  0  0  0  0  0  0  0
  150.6281  139.0838  153.1998 H   0  0  0  0  0  0  0  0  0  0  0  0
  145.0897  139.5815  152.9193 H   0  0  0  0  0  0  0  0  0  0  0  0
  144.2095  137.9954  151.7996 H   0  0  0  0  0  0  0  0  0  0  0  0
  142.4780  137.9498  153.5698 H   0  0  0  0  0  0  0  0  0  0  0  0
  142.8377  136.2640  153.9258 H   0  0  0  0  0  0  0  0  0  0  0  0
  142.1633  136.7116  152.3630 H   0  0  0  0  0  0  0  0  0  0  0  0
  145.0906  136.5872  149.8870 H   0  0  0  0  0  0  0  0  0  0  0  0
  145.8545  133.0660  151.8846 H   0  0  0  0  0  0  0  0  0  0  0  0
  1  2  1  0  0  0  0
  1 20  1  0  0  0  0
  1 21  1  0  0  0  0
  1 22  1  0  0  0  0
  2  3  1  0  0  0  0
  2 10  1  0  0  0  0
  2 23  1  0  0  0  0
  3  4  1  0  0  0  0
  3 24  1  0  0  0  0
  3 25  1  0  0  0  0
  4  9  1  0  0  0  0
  4  5  1  0  0  0  0
  5  6  1  0  0  0  0
  5 26  1  0  0  0  0
  5 27  1  0  0  0  0
  6  7  1  0  0  0  0
  6 28  1  0  0  0  0
  6 29  1  0  0  0  0
  7  8  1  0  0  0  0
  8  9  1  0  0  0  0
  8 30  1  0  0  0  0
  8 31  1  0  0  0  0
  9 32  1  0  0  0  0
  9 33  1  0  0  0  0
 10 11  1  0  0  0  0
 10 34  1  0  0  0  0
 11 12  2  0  0  0  0
 11 13  1  0  0  0  0
 13 14  1  0  0  0  0
 13 15  1  0  0  0  0
 13 35  1  0  0  0  0
 14 36  1  0  0  0  0
 14 37  1  0  0  0  0
 14 38  1  0  0  0  0
 15 19  1  0  0  0  0
 15 16  1  0  0  0  0
 16 17  2  0  0  0  0
 16 39  1  0  0  0  0
 17 18  1  0  0  0  0
 18 19  2  0  0  0  0
 18 40  1  0  0  0  0
M  END
> <s_m_source_file>
AV-unprocessed.smi

> <i_m_source_file_index>
3345

> <i_lp_mmshare_version>
43012

> <i_f3d_flags>
0

> <s_epik_input>
W0NIMl0xW0NIMl1PW0NIMl1bQ0gyXU4xW0NIMl1bQ0BASF0oW0NIM10pW05IXUMoPU8pW0NASF0oW0NIM10pbjJbY0hdbltjSF1uMg==

> <s_epik_cmdline>
J2VwaWtfcHl0aG9uJywgJy1waCcsICc3LjAnLCAnLXRuJywgJzgnLCAnLW1hJywgJzIwMCcsICctbWV0YWxfYmluZGluZycsICctaW1hZScsICc8aW5maWxlLm1hZT4nLCAnLW9tYWUnLCAnPG91dGZpbGUubWFlPic=

> <r_lp_tautomer_probability>
1

> <r_epik_Ionization_Penalty>
0.211373

> <r_epik_Ionization_Penalty_Charging>
0

> <r_epik_Ionization_Penalty_Neutral>
0.211373

> <r_epik_State_Penalty>
0.201459

> <r_epik_Charging_Adjusted_Penalty>
0.201459

> <i_epik_Tot_Q>
0

> <i_epik_Tot_abs_Q>
0

> <r_epik_Metal_State_Penalty>
0.201458

> <b_epik_Metal_Only>
0

> <s_lp_Force_Field>
OPLS_2005

> <r_lp_Energy>
29.1887

> <b_lp_Chiralities_Consistent>
1

> <s_lp_Variant>
AV-unprocessed.smi:3345-1

> <Gold.Version>
5.8.1

> <Gold.Id.Protein>
6NUR|6NUR_protein|mol2

> <Gold.PLP.Fitness>
36.9991

> <Gold.PLP.PLP>
-29.8762

> <Gold.PLP.part.hbond>
-2.0000

> <Gold.PLP.part.metal>
0.0000

> <Gold.PLP.part.buried>
-4.7296

> <Gold.PLP.part.nonpolar>
-25.5358

> <Gold.PLP.part.repulsive>
0.9355

> <Gold.PLP.ligand.clash>
0.0000

> <Gold.PLP.ligand.torsion>
0.7125

> <Gold.PLP.Chemscore.Hbond>
1.7976

> <Gold.PLP.Chemscore.CHOScore>
1.0000

> <Gold.PLP.Chemscore.Metal>
0.0000

> <Gold.Chemscore.Hbonds>
donor molecule, donor type, donor heavy atom, donor atom, acceptor molecule, acceptor atom, score
      L1  H    10    34       P1 10175  1.00
      P1  H  7989  7998       L1     7  0.63
      L1  C    16    39       P1 10171  1.00

> <Gold.PLP.Chemscore.Internal.Correction>
0.1552

> <Gold.Rescore>
     Score         DG    S(hbond)    S(metal)    S(lipo)     H(rot)  DE(clash)    DE(int)     intcor
      6.70      -9.04       1.11        0.00      54.20       2.54       0.18       2.17       ----

> <Gold.Chemscore.Fitness>
6.6965

> <Gold.Chemscore.DG>
-9.0421

> <Gold.Chemscore.ZeroCoef>
-5.4800

> <Gold.Chemscore.Hbond>
1.1110

> <Gold.Chemscore.Metal>
0.0000

> <Gold.Chemscore.Lipo>
54.2027

> <Gold.Chemscore.Internal_Hbond>
0.0000

> <Gold.Chemscore.DEClash>
0.1779

> <Gold.Chemscore.DEInternal>
2.1677

> <Gold.Chemscore.Rot>
2.5353

> <Gold.Chemscore.Internal.Correction>
   9.000000E+99

> <Gold.Chemscore.Hbonds>
donor molecule, donor type, donor heavy atom, donor atom, acceptor molecule, acceptor atom, score
      L1  H    10    34       P1 10175  0.94
      P1  H  7989  7998       L1     7  0.03

> <Gold.Chemscore.Hbond.Weighted>
-3.7108

> <Gold.Chemscore.Metal.Weighted>
-0.0000

> <Gold.Chemscore.Lipo.Weighted>
-6.3417

> <Gold.Chemscore.Internal_Hbond.Weighted>
0.0000

> <Gold.Chemscore.DEClash.Weighted>
0.1779

> <Gold.Chemscore.DEInternal.Weighted>
2.1677

> <Gold.Chemscore.Rot.Weighted>
6.4905

> <Gold.Chemscore.Internal.Correction.Weighted>
   9.000000E+99

> <Gold.Protein.RotatedTorsions>
[ 6907 6896 6895 6894 ] final  -12.94 input  -60.11 | X-H torsion
[ 7974 7965 7964 7962 ] final   -3.00 input  175.53 | X-H torsion
[ 8008 7997 7996 7995 ] final -161.85 input   59.86 | X-H torsion
[ 10167 10162 10161 10158 ] final   31.08 input  -65.29 | X-H torsion
[ 10718 10713 10712 10709 ] final  -19.61 input   66.30 | X-H torsion
[ 10763 10752 10751 10750 ] final  163.08 input  -60.55 | X-H torsion
[ 11005 11000 10999 10996 ] final  -82.97 input  -57.11 | X-H torsion

> <Gold.Protein.ActiveResidues>
 VAL166  LYS551  ARG553  GLY616  TRP617  ASP618  TYR619  PRO620  LYS621  CYS622 
 ASP623  PHE694  ASN695  SER759  ASP760  ASP761  ALA762  ILE779  LEU786  VAL792 
 PHE793  MET794  SER795  GLU796  ALA797  LYS798  CYS799  TRP800  GLU811  SER814 

> <Gold.Protein.RotatedAtoms>
  151.3626  135.0907  159.9439 H   0  0  0  0  0  0  0  0  0  0  0  0  # atno 6907 bound_to 6896
  152.5157  133.9243  159.7560 H   0  0  0  0  0  0  0  0  0  0  0  0  # atno 6908 bound_to 6896
  150.9640  133.6360  159.2778 H   0  0  0  0  0  0  0  0  0  0  0  0  # atno 6909 bound_to 6896
  146.2396  140.1656  142.8332 H   0  0  0  0  0  0  0  0  0  0  0  0  # atno 7974 bound_to 7965
  155.7982  140.0888  157.1971 H   0  0  0  0  0  0  0  0  0  0  0  0  # atno 8008 bound_to 7997
  154.3983  140.1477  156.3302 H   0  0  0  0  0  0  0  0  0  0  0  0  # atno 8009 bound_to 7997
  155.8489  140.3435  155.5683 H   0  0  0  0  0  0  0  0  0  0  0  0  # atno 8010 bound_to 7997
  140.4621  144.0891  150.6215 H   0  0  0  0  0  0  0  0  0  0  0  0  # atno 10167 bound_to 10162
  156.5433  130.4683  149.6488 H   0  0  0  0  0  0  0  0  0  0  0  0  # atno 10718 bound_to 10713
  154.2882  135.2761  155.2666 H   0  0  0  0  0  0  0  0  0  0  0  0  # atno 10763 bound_to 10752
  154.5157  135.5770  153.6644 H   0  0  0  0  0  0  0  0  0  0  0  0  # atno 10764 bound_to 10752
  152.9918  135.6192  154.3045 H   0  0  0  0  0  0  0  0  0  0  0  0  # atno 10765 bound_to 10752
  141.1660  133.7271  156.8651 H   0  0  0  0  0  0  0  0  0  0  0  0  # atno 11005 bound_to 11000
  145.0054  140.8668  143.5256 LP  0  0  0  0  0  0  0  0  0  0  0  0  # atno 17320 bound_to 7965
  145.1681  139.2420  143.5356 LP  0  0  0  0  0  0  0  0  0  0  0  0  # atno 17321 bound_to 7965
  140.4081  143.2670  151.9866 LP  0  0  0  0  0  0  0  0  0  0  0  0  # atno 17342 bound_to 10162
  139.4807  144.5939  151.7723 LP  0  0  0  0  0  0  0  0  0  0  0  0  # atno 17343 bound_to 10162
  156.2951  130.7146  151.2004 LP  0  0  0  0  0  0  0  0  0  0  0  0  # atno 17370 bound_to 10713
  157.7401  131.0521  150.5187 LP  0  0  0  0  0  0  0  0  0  0  0  0  # atno 17371 bound_to 10713
  140.1821  134.9026  157.2961 LP  0  0  0  0  0  0  0  0  0  0  0  0  # atno 17394 bound_to 11000
  140.2383  134.3826  155.7491 LP  0  0  0  0  0  0  0  0  0  0  0  0  # atno 17395 bound_to 11000

$$$$
