AV-unprocessed.smi:2572|AV-procd|sdf|10110|dock1
  -GOLD-   2272014123D 1   1.00000     0.00000
 Structure written by MMmdl.
 38 39  0  0  0  0  0  0  0  0  1 V2000
  155.2894  135.2213  159.0406 C   0  0  0  0  0  0  0  0  0  0  0  0
  154.2376  135.1331  159.9998 O   0  0  0  0  0  0  0  0  0  0  0  0
  154.3832  135.8765  161.1581 C   0  0  0  0  0  0  0  0  0  0  0  0
  154.3575  135.1830  162.4285 C   0  0  0  0  0  0  0  0  0  0  0  0
  154.5014  135.8955  163.5667 C   0  0  0  0  0  0  0  0  0  0  0  0
  154.6844  137.3464  163.5499 C   0  0  0  0  0  0  0  0  0  0  0  0
  154.8253  138.0184  164.5715 O   0  0  0  0  0  0  0  0  0  0  0  0
  154.6861  137.8871  162.2952 N   0  0  0  0  0  0  0  0  0  0  0  0
  154.8696  139.3284  162.0872 C   0  0  0  0  0  0  0  0  0  0  0  0
  155.0640  139.6767  160.5953 C   0  0  2  0  0  0  0  0  0  0  0  0
  156.4334  139.5372  160.2690 O   0  0  0  0  0  0  0  0  0  0  0  0
  154.6506  141.1288  160.2908 C   0  0  0  0  0  0  0  0  0  0  0  0
  153.2207  141.4673  160.7451 C   0  0  0  0  0  0  0  0  0  0  0  0
  152.8480  142.9034  160.4297 C   0  0  0  0  0  0  0  0  0  0  0  0
  152.3311  143.7402  161.4412 C   0  0  0  0  0  0  0  0  0  0  0  0
  151.9932  145.0764  161.1497 C   0  0  0  0  0  0  0  0  0  0  0  0
  152.1719  145.5802  159.8466 C   0  0  0  0  0  0  0  0  0  0  0  0
  152.6871  144.7473  158.8345 C   0  0  0  0  0  0  0  0  0  0  0  0
  153.0244  143.4110  159.1252 C   0  0  0  0  0  0  0  0  0  0  0  0
  154.5390  137.1625  161.1238 N   0  0  0  0  0  0  0  0  0  0  0  0
  155.0460  134.5886  158.1873 H   0  0  0  0  0  0  0  0  0  0  0  0
  156.2397  134.8693  159.4459 H   0  0  0  0  0  0  0  0  0  0  0  0
  155.4140  136.2390  158.6662 H   0  0  0  0  0  0  0  0  0  0  0  0
  154.2244  134.1116  162.4535 H   0  0  0  0  0  0  0  0  0  0  0  0
  154.4817  135.3817  164.5165 H   0  0  0  0  0  0  0  0  0  0  0  0
  153.9732  139.8282  162.4588 H   0  0  0  0  0  0  0  0  0  0  0  0
  155.6820  139.7340  162.6933 H   0  0  0  0  0  0  0  0  0  0  0  0
  154.4771  139.0013  159.9712 H   0  0  0  0  0  0  0  0  0  0  0  0
  156.5811  138.6587  159.9536 H   0  0  0  0  0  0  0  0  0  0  0  0
  155.3388  141.8053  160.7994 H   0  0  0  0  0  0  0  0  0  0  0  0
  154.7601  141.3313  159.2242 H   0  0  0  0  0  0  0  0  0  0  0  0
  152.5012  140.8025  160.2658 H   0  0  0  0  0  0  0  0  0  0  0  0
  153.1212  141.3023  161.8186 H   0  0  0  0  0  0  0  0  0  0  0  0
  152.1953  143.3607  162.4433 H   0  0  0  0  0  0  0  0  0  0  0  0
  151.5989  145.7150  161.9264 H   0  0  0  0  0  0  0  0  0  0  0  0
  151.9146  146.6053  159.6236 H   0  0  0  0  0  0  0  0  0  0  0  0
  152.8247  145.1334  157.8353 H   0  0  0  0  0  0  0  0  0  0  0  0
  153.4214  142.7776  158.3450 H   0  0  0  0  0  0  0  0  0  0  0  0
  1  2  1  0  0  0  0
  1 21  1  0  0  0  0
  1 22  1  0  0  0  0
  1 23  1  0  0  0  0
  2  3  1  0  0  0  0
  3 20  2  0  0  0  0
  3  4  1  0  0  0  0
  4  5  2  0  0  0  0
  4 24  1  0  0  0  0
  5  6  1  0  0  0  0
  5 25  1  0  0  0  0
  6  7  2  0  0  0  0
  6  8  1  0  0  0  0
  8  9  1  0  0  0  0
  8 20  1  0  0  0  0
  9 10  1  0  0  0  0
  9 26  1  0  0  0  0
  9 27  1  0  0  0  0
 10 11  1  0  0  0  0
 10 12  1  0  0  0  0
 10 28  1  0  0  0  0
 11 29  1  0  0  0  0
 12 13  1  0  0  0  0
 12 30  1  0  0  0  0
 12 31  1  0  0  0  0
 13 14  1  0  0  0  0
 13 32  1  0  0  0  0
 13 33  1  0  0  0  0
 14 19  1  0  0  0  0
 14 15  2  0  0  0  0
 15 16  1  0  0  0  0
 15 34  1  0  0  0  0
 16 17  2  0  0  0  0
 16 35  1  0  0  0  0
 17 18  1  0  0  0  0
 17 36  1  0  0  0  0
 18 19  2  0  0  0  0
 18 37  1  0  0  0  0
 19 38  1  0  0  0  0
M  END
> <s_m_source_file>
AV-unprocessed.smi

> <i_m_source_file_index>
2572

> <i_lp_mmshare_version>
43012

> <i_f3d_flags>
0

> <s_epik_input>
W0NIM11PYzFbY0hdW2NIXWMoPU8pbihuMSlbQ0gyXVtDQEhdKFtPSF0pW0NIMl1bQ0gyXWMyW2NIXVtjSF1bY0hdW2NIXVtjSF0y

> <s_epik_cmdline>
J2VwaWtfcHl0aG9uJywgJy1waCcsICc3LjAnLCAnLXRuJywgJzgnLCAnLW1hJywgJzIwMCcsICctbWV0YWxfYmluZGluZycsICctaW1hZScsICc8aW5maWxlLm1hZT4nLCAnLW9tYWUnLCAnPG91dGZpbGUubWFlPic=

> <r_lp_tautomer_probability>
1

> <r_epik_Ionization_Penalty>
8.48543e-06

> <r_epik_Ionization_Penalty_Charging>
6.90219e-06

> <r_epik_Ionization_Penalty_Neutral>
1.58323e-06

> <r_epik_State_Penalty>
-0

> <r_epik_Charging_Adjusted_Penalty>
6.90219e-06

> <i_epik_Tot_Q>
0

> <i_epik_Tot_abs_Q>
0

> <r_epik_Metal_State_Penalty>
-0

> <b_epik_Metal_Only>
0

> <s_lp_Force_Field>
OPLS_2005

> <r_lp_Energy>
29.9707

> <b_lp_Chiralities_Consistent>
1

> <s_lp_Variant>
AV-unprocessed.smi:2572-1

> <Gold.Version>
5.8.1

> <Gold.Id.Protein>
6NUR|6NUR_protein|mol2

> <Gold.PLP.Fitness>
48.6272

> <Gold.PLP.PLP>
-46.4304

> <Gold.PLP.part.hbond>
-1.0000

> <Gold.PLP.part.metal>
0.0000

> <Gold.PLP.part.buried>
-3.5215

> <Gold.PLP.part.nonpolar>
-42.4313

> <Gold.PLP.part.repulsive>
0.0486

> <Gold.PLP.ligand.clash>
0.0000

> <Gold.PLP.ligand.torsion>
0.4469

> <Gold.PLP.Chemscore.Hbond>
1.0000

> <Gold.PLP.Chemscore.CHOScore>
0.0000

> <Gold.PLP.Chemscore.Metal>
0.0000

> <Gold.Chemscore.Hbonds>
donor molecule, donor type, donor heavy atom, donor atom, acceptor molecule, acceptor atom, score
      P1  H  6896  6909       L1     2  1.00

> <Gold.PLP.Chemscore.Internal.Correction>
0.0906

> <Gold.Rescore>
     Score         DG    S(hbond)    S(metal)    S(lipo)     H(rot)  DE(clash)    DE(int)     intcor
     16.48     -17.02       0.96        0.00     126.36       2.52       0.04       0.51       ----

> <Gold.Chemscore.Fitness>
16.4813

> <Gold.Chemscore.DG>
-17.0238

> <Gold.Chemscore.ZeroCoef>
-5.4800

> <Gold.Chemscore.Hbond>
0.9623

> <Gold.Chemscore.Metal>
0.0000

> <Gold.Chemscore.Lipo>
126.3571

> <Gold.Chemscore.Internal_Hbond>
0.0000

> <Gold.Chemscore.DEClash>
0.0370

> <Gold.Chemscore.DEInternal>
0.5055

> <Gold.Chemscore.Rot>
2.5212

> <Gold.Chemscore.Internal.Correction>
   9.000000E+99

> <Gold.Chemscore.Hbonds>
donor molecule, donor type, donor heavy atom, donor atom, acceptor molecule, acceptor atom, score
      P1  H  6896  6909       L1     2  0.82

> <Gold.Chemscore.Hbond.Weighted>
-3.2142

> <Gold.Chemscore.Metal.Weighted>
-0.0000

> <Gold.Chemscore.Lipo.Weighted>
-14.7838

> <Gold.Chemscore.Internal_Hbond.Weighted>
0.0000

> <Gold.Chemscore.DEClash.Weighted>
0.0370

> <Gold.Chemscore.DEInternal.Weighted>
0.5055

> <Gold.Chemscore.Rot.Weighted>
6.4543

> <Gold.Chemscore.Internal.Correction.Weighted>
   9.000000E+99

> <Gold.Protein.RotatedTorsions>
[ 6907 6896 6895 6894 ] final -157.64 input  -60.11 | X-H torsion
[ 7974 7965 7964 7962 ] final  -81.99 input  175.53 | X-H torsion
[ 8008 7997 7996 7995 ] final  166.11 input   59.86 | X-H torsion
[ 10167 10162 10161 10158 ] final  -62.64 input  -65.29 | X-H torsion
[ 10718 10713 10712 10709 ] final  148.73 input   66.30 | X-H torsion
[ 10763 10752 10751 10750 ] final  156.94 input  -60.55 | X-H torsion
[ 11005 11000 10999 10996 ] final  -33.15 input  -57.11 | X-H torsion

> <Gold.Protein.ActiveResidues>
 VAL166  LYS551  ARG553  GLY616  TRP617  ASP618  TYR619  PRO620  LYS621  CYS622 
 ASP623  PHE694  ASN695  SER759  ASP760  ASP761  ALA762  ILE779  LEU786  VAL792 
 PHE793  MET794  SER795  GLU796  ALA797  LYS798  CYS799  TRP800  GLU811  SER814 

> <Gold.Protein.RotatedAtoms>
  151.3059  133.4101  159.2642 H   0  0  0  0  0  0  0  0  0  0  0  0  # atno 6907 bound_to 6896
  151.0155  134.9430  159.8041 H   0  0  0  0  0  0  0  0  0  0  0  0  # atno 6908 bound_to 6896
  152.5311  134.3023  159.9135 H   0  0  0  0  0  0  0  0  0  0  0  0  # atno 6909 bound_to 6896
  145.5393  140.9512  143.1560 H   0  0  0  0  0  0  0  0  0  0  0  0  # atno 7974 bound_to 7965
  156.1745  140.1652  156.8387 H   0  0  0  0  0  0  0  0  0  0  0  0  # atno 8008 bound_to 7997
  154.5292  140.0760  156.8348 H   0  0  0  0  0  0  0  0  0  0  0  0  # atno 8009 bound_to 7997
  155.3442  140.3386  155.4241 H   0  0  0  0  0  0  0  0  0  0  0  0  # atno 8010 bound_to 7997
  140.5925  143.2344  151.6108 H   0  0  0  0  0  0  0  0  0  0  0  0  # atno 10167 bound_to 10162
  157.3050  131.0877  151.1361 H   0  0  0  0  0  0  0  0  0  0  0  0  # atno 10718 bound_to 10713
  154.1923  135.2794  155.3018 H   0  0  0  0  0  0  0  0  0  0  0  0  # atno 10763 bound_to 10752
  154.5919  135.5557  153.7290 H   0  0  0  0  0  0  0  0  0  0  0  0  # atno 10764 bound_to 10752
  153.0109  135.6370  154.2062 H   0  0  0  0  0  0  0  0  0  0  0  0  # atno 10765 bound_to 10752
  140.9611  133.7164  156.1371 H   0  0  0  0  0  0  0  0  0  0  0  0  # atno 11005 bound_to 11000
  144.7585  139.7014  143.7244 LP  0  0  0  0  0  0  0  0  0  0  0  0  # atno 17320 bound_to 7965
  146.1992  139.5276  142.9754 LP  0  0  0  0  0  0  0  0  0  0  0  0  # atno 17321 bound_to 7965
  139.5236  144.3127  152.0979 LP  0  0  0  0  0  0  0  0  0  0  0  0  # atno 17342 bound_to 10162
  140.2293  144.4385  150.6307 LP  0  0  0  0  0  0  0  0  0  0  0  0  # atno 17343 bound_to 10162
  157.2705  130.6702  149.6017 LP  0  0  0  0  0  0  0  0  0  0  0  0  # atno 17370 bound_to 10713
  155.9674  130.4480  150.5605 LP  0  0  0  0  0  0  0  0  0  0  0  0  # atno 17371 bound_to 10713
  140.7466  134.4091  157.5547 LP  0  0  0  0  0  0  0  0  0  0  0  0  # atno 17394 bound_to 11000
  139.8878  134.8872  156.2506 LP  0  0  0  0  0  0  0  0  0  0  0  0  # atno 17395 bound_to 11000

$$$$
