AV-unprocessed.smi:2007|AV-procd|sdf|8139|dock2
  -GOLD-   2272010373D 1   1.00000     0.00000
 Structure written by MMmdl.
 36 37  0  0  0  0  0  0  0  0  3 V2000
  150.6590  134.7680  156.4540 C   0  0  0  0  0  0  0  0  0  0  0  0
  149.3576  135.4924  156.0849 C   0  0  2  0  0  0  0  0  0  0  0  0
  149.5696  136.4787  154.9136 C   0  0  0  0  0  0  0  0  0  0  0  0
  150.1505  137.7718  155.3545 N   0  3  0  0  0  0  0  0  0  0  0  0
  151.6304  137.7760  155.3922 C   0  0  0  0  0  0  0  0  0  0  0  0
  152.1361  139.1110  155.9659 C   0  0  0  0  0  0  0  0  0  0  0  0
  151.6298  140.1904  155.1886 O   0  0  0  0  0  0  0  0  0  0  0  0
  150.2074  140.2376  155.2022 C   0  0  0  0  0  0  0  0  0  0  0  0
  149.6466  138.9410  154.5960 C   0  0  0  0  0  0  0  0  0  0  0  0
  148.8424  136.1934  157.2629 N   0  0  0  0  0  0  0  0  0  0  0  0
  148.4547  135.6372  158.4207 C   0  0  0  0  0  0  0  0  0  0  0  0
  148.5842  134.4238  158.5975 O   0  0  0  0  0  0  0  0  0  0  0  0
  147.9110  136.5170  159.2895 N   0  5  0  0  0  0  0  0  0  0  0  0
  147.6334  136.1314  160.5455 C   0  0  0  0  0  0  0  0  0  0  0  0
  147.5983  136.9811  161.5790 N   0  0  0  0  0  0  0  0  0  0  0  0
  147.2912  136.3644  162.7935 C   0  0  0  0  0  0  0  0  0  0  0  0
  147.0946  135.0134  162.6822 C   0  0  0  0  0  0  0  0  0  0  0  0
  147.2896  134.4722  161.0394 S   0  0  0  0  0  0  0  0  0  0  0  0
  151.0541  134.2140  155.6022 H   0  0  0  0  0  0  0  0  0  0  0  0
  150.4948  134.0547  157.2625 H   0  0  0  0  0  0  0  0  0  0  0  0
  151.4272  135.4698  156.7803 H   0  0  0  0  0  0  0  0  0  0  0  0
  148.6456  134.7254  155.7778 H   0  0  0  0  0  0  0  0  0  0  0  0
  150.2496  136.0110  154.1998 H   0  0  0  0  0  0  0  0  0  0  0  0
  148.6371  136.6526  154.3747 H   0  0  0  0  0  0  0  0  0  0  0  0
  151.9886  136.9541  156.0133 H   0  0  0  0  0  0  0  0  0  0  0  0
  152.0255  137.6198  154.3872 H   0  0  0  0  0  0  0  0  0  0  0  0
  151.8335  139.2255  157.0082 H   0  0  0  0  0  0  0  0  0  0  0  0
  153.2256  139.1404  155.9452 H   0  0  0  0  0  0  0  0  0  0  0  0
  149.8437  140.3802  156.2214 H   0  0  0  0  0  0  0  0  0  0  0  0
  149.8762  141.0987  154.6216 H   0  0  0  0  0  0  0  0  0  0  0  0
  149.9418  138.8572  153.5491 H   0  0  0  0  0  0  0  0  0  0  0  0
  148.5575  138.9684  154.6187 H   0  0  0  0  0  0  0  0  0  0  0  0
  148.7277  137.1932  157.1778 H   0  0  0  0  0  0  0  0  0  0  0  0
  147.2348  136.9648  163.6893 H   0  0  0  0  0  0  0  0  0  0  0  0
  146.8497  134.3071  163.4611 H   0  0  0  0  0  0  0  0  0  0  0  0
  149.8490  137.8944  156.3118 H   0  0  0  0  0  0  0  0  0  0  0  0
  1  2  1  0  0  0  0
  1 19  1  0  0  0  0
  1 20  1  0  0  0  0
  1 21  1  0  0  0  0
  2  3  1  0  0  0  0
  2 10  1  0  0  0  0
  2 22  1  0  0  0  0
  3  4  1  0  0  0  0
  3 23  1  0  0  0  0
  3 24  1  0  0  0  0
  4  9  1  0  0  0  0
  4  5  1  0  0  0  0
  4 36  1  0  0  0  0
  5  6  1  0  0  0  0
  5 25  1  0  0  0  0
  5 26  1  0  0  0  0
  6  7  1  0  0  0  0
  6 27  1  0  0  0  0
  6 28  1  0  0  0  0
  7  8  1  0  0  0  0
  8  9  1  0  0  0  0
  8 29  1  0  0  0  0
  8 30  1  0  0  0  0
  9 31  1  0  0  0  0
  9 32  1  0  0  0  0
 10 11  1  0  0  0  0
 10 33  1  0  0  0  0
 11 12  2  0  0  0  0
 11 13  1  0  0  0  0
 13 14  1  0  0  0  0
 14 18  1  0  0  0  0
 14 15  2  0  0  0  0
 15 16  1  0  0  0  0
 16 17  2  0  0  0  0
 16 34  1  0  0  0  0
 17 18  1  0  0  0  0
 17 35  1  0  0  0  0
M  CHG  1   4   1
M  CHG  1  13  -1
M  END
> <s_m_source_file>
AV-unprocessed.smi

> <i_m_source_file_index>
2007

> <i_lp_mmshare_version>
43012

> <i_f3d_flags>
0

> <s_epik_input>
W0NIMl0xW0NIMl1PW0NIMl1bQ0gyXU4xW0NIMl1bQ0BASF0oW0NIM10pW05IXUMoPU8pW05IXWMybltjSF1bY0hdczI=

> <s_epik_cmdline>
J2VwaWtfcHl0aG9uJywgJy1waCcsICc3LjAnLCAnLXRuJywgJzgnLCAnLW1hJywgJzIwMCcsICctbWV0YWxfYmluZGluZycsICctaW1hZScsICc8aW5maWxlLm1hZT4nLCAnLW9tYWUnLCAnPG91dGZpbGUubWFlPic=

> <r_lp_tautomer_probability>
0.999

> <r_epik_Ionization_Penalty>
6.49226

> <r_epik_Ionization_Penalty_Charging>
5.74393

> <r_epik_Ionization_Penalty_Neutral>
0.748321

> <r_epik_State_Penalty>
5.94164

> <r_epik_Charging_Adjusted_Penalty>
11.6856

> <i_epik_Tot_Q>
0

> <i_epik_Tot_abs_Q>
2

> <r_epik_Metal_State_Penalty>
1.97606

> <b_epik_Metal_Only>
1

> <s_lp_Force_Field>
OPLS_2005

> <r_lp_Energy>
10.1627

> <b_lp_Chiralities_Consistent>
1

> <s_lp_Variant>
AV-unprocessed.smi:2007-7

> <Gold.Version>
5.8.1

> <Gold.Id.Protein>
6NUR|6NUR_protein|mol2

> <Gold.PLP.Fitness>
41.8035

> <Gold.PLP.PLP>
-31.8643

> <Gold.PLP.part.hbond>
-3.8850

> <Gold.PLP.part.metal>
0.0000

> <Gold.PLP.part.buried>
-2.6838

> <Gold.PLP.part.nonpolar>
-25.2328

> <Gold.PLP.part.repulsive>
0.1352

> <Gold.PLP.ligand.clash>
0.0000

> <Gold.PLP.ligand.torsion>
0.7761

> <Gold.PLP.Chemscore.Hbond>
3.7840

> <Gold.PLP.Chemscore.CHOScore>
0.0000

> <Gold.PLP.Chemscore.Metal>
0.0000

> <Gold.Chemscore.Hbonds>
donor molecule, donor type, donor heavy atom, donor atom, acceptor molecule, acceptor atom, score
      P1  H  6896  6909       L1    12  0.52
      P1  H  6931  6943       L1    15  1.00
      P1  H  6934  6947       L1    15  0.53
      P1  H  7989  7998       L1     7  0.52

> <Gold.PLP.Chemscore.Internal.Correction>
0.1394

> <Gold.Rescore>
     Score         DG    S(hbond)    S(metal)    S(lipo)     H(rot)  DE(clash)    DE(int)     intcor
     16.25     -18.42       2.84        0.00      64.43       1.60       0.01       2.16       ----

> <Gold.Chemscore.Fitness>
16.2497

> <Gold.Chemscore.DG>
-18.4208

> <Gold.Chemscore.ZeroCoef>
-5.4800

> <Gold.Chemscore.Hbond>
2.8432

> <Gold.Chemscore.Metal>
0.0000

> <Gold.Chemscore.Lipo>
64.4289

> <Gold.Chemscore.Internal_Hbond>
0.0000

> <Gold.Chemscore.DEClash>
0.0142

> <Gold.Chemscore.DEInternal>
2.1568

> <Gold.Chemscore.Rot>
1.5991

> <Gold.Chemscore.Internal.Correction>
   9.000000E+99

> <Gold.Chemscore.Hbonds>
donor molecule, donor type, donor heavy atom, donor atom, acceptor molecule, acceptor atom, score
      P1  H  6896  6909       L1    12  0.31
      P1  H  6931  6943       L1    15  0.58
      P1  H  6934  6947       L1    15  0.42
      P1  H  7989  7998       L1     7  0.03

> <Gold.Chemscore.Hbond.Weighted>
-9.4962

> <Gold.Chemscore.Metal.Weighted>
-0.0000

> <Gold.Chemscore.Lipo.Weighted>
-7.5382

> <Gold.Chemscore.Internal_Hbond.Weighted>
0.0000

> <Gold.Chemscore.DEClash.Weighted>
0.0142

> <Gold.Chemscore.DEInternal.Weighted>
2.1568

> <Gold.Chemscore.Rot.Weighted>
4.0936

> <Gold.Chemscore.Internal.Correction.Weighted>
   9.000000E+99

> <Gold.Protein.RotatedTorsions>
[ 6907 6896 6895 6894 ] final   20.43 input  -60.11 | X-H torsion
[ 7974 7965 7964 7962 ] final  131.61 input  175.53 | X-H torsion
[ 8008 7997 7996 7995 ] final   40.31 input   59.86 | X-H torsion
[ 10167 10162 10161 10158 ] final   66.27 input  -65.29 | X-H torsion
[ 10718 10713 10712 10709 ] final   91.62 input   66.30 | X-H torsion
[ 10763 10752 10751 10750 ] final   40.18 input  -60.55 | X-H torsion
[ 11005 11000 10999 10996 ] final   49.80 input  -57.11 | X-H torsion

> <Gold.Protein.ActiveResidues>
 VAL166  LYS551  ARG553  GLY616  TRP617  ASP618  TYR619  PRO620  LYS621  CYS622 
 ASP623  PHE694  ASN695  SER759  ASP760  ASP761  ALA762  ILE779  LEU786  VAL792 
 PHE793  MET794  SER795  GLU796  ALA797  LYS798  CYS799  TRP800  GLU811  SER814 

> <Gold.Protein.RotatedAtoms>
  151.8963  135.0396  160.0502 H   0  0  0  0  0  0  0  0  0  0  0  0  # atno 6907 bound_to 6896
  152.2395  133.5119  159.5270 H   0  0  0  0  0  0  0  0  0  0  0  0  # atno 6908 bound_to 6896
  150.7049  134.1025  159.4013 H   0  0  0  0  0  0  0  0  0  0  0  0  # atno 6909 bound_to 6896
  145.0055  139.4271  143.5271 H   0  0  0  0  0  0  0  0  0  0  0  0  # atno 7974 bound_to 7965
  155.2510  140.3352  155.4282 H   0  0  0  0  0  0  0  0  0  0  0  0  # atno 8008 bound_to 7997
  156.2215  140.1811  156.7508 H   0  0  0  0  0  0  0  0  0  0  0  0  # atno 8009 bound_to 7997
  154.5833  140.0650  156.9120 H   0  0  0  0  0  0  0  0  0  0  0  0  # atno 8010 bound_to 7997
  140.1022  144.4893  150.7030 H   0  0  0  0  0  0  0  0  0  0  0  0  # atno 10167 bound_to 10162
  157.6960  131.0414  150.3757 H   0  0  0  0  0  0  0  0  0  0  0  0  # atno 10718 bound_to 10713
  152.9944  135.6199  154.2584 H   0  0  0  0  0  0  0  0  0  0  0  0  # atno 10763 bound_to 10752
  154.2321  135.2792  155.2888 H   0  0  0  0  0  0  0  0  0  0  0  0  # atno 10764 bound_to 10752
  154.5441  135.5752  153.6923 H   0  0  0  0  0  0  0  0  0  0  0  0  # atno 10765 bound_to 10752
  140.1072  134.5002  155.8709 H   0  0  0  0  0  0  0  0  0  0  0  0  # atno 11005 bound_to 11000
  146.3460  139.9468  142.8734 LP  0  0  0  0  0  0  0  0  0  0  0  0  # atno 17320 bound_to 7965
  145.2095  140.9889  143.4109 LP  0  0  0  0  0  0  0  0  0  0  0  0  # atno 17321 bound_to 7965
  140.6971  143.2411  151.4969 LP  0  0  0  0  0  0  0  0  0  0  0  0  # atno 17342 bound_to 10162
  139.5665  144.2030  152.1772 LP  0  0  0  0  0  0  0  0  0  0  0  0  # atno 17343 bound_to 10162
  156.4176  130.3946  149.6847 LP  0  0  0  0  0  0  0  0  0  0  0  0  # atno 17370 bound_to 10713
  156.4109  130.7721  151.2734 LP  0  0  0  0  0  0  0  0  0  0  0  0  # atno 17371 bound_to 10713
  141.2121  133.6715  156.6635 LP  0  0  0  0  0  0  0  0  0  0  0  0  # atno 17394 bound_to 11000
  140.3139  134.8063  157.4198 LP  0  0  0  0  0  0  0  0  0  0  0  0  # atno 17395 bound_to 11000

$$$$
