AV-unprocessed.smi:1591|AV-procd|sdf|6400|dock2
  -GOLD-   22720 7 33D 1   1.00000     0.00000
 Structure written by MMmdl.
 51 54  0  0  0  0  0  0  0  0  2 V2000
  148.6270  139.7125  156.5065 C   0  0  0  0  0  0  0  0  0  0  0  0
  149.2489  141.0521  156.9323 C   0  0  0  0  0  0  0  0  0  0  0  0
  150.3686  140.9207  157.9968 C   0  0  1  0  0  0  0  0  0  0  0  0
  151.4162  140.0372  157.4778 N   0  0  0  0  0  0  0  0  0  0  0  0
  152.0832  139.0997  158.1695 C   0  0  0  0  0  0  0  0  0  0  0  0
  151.9245  138.8955  159.3727 O   0  0  0  0  0  0  0  0  0  0  0  0
  153.0885  138.2663  157.3701 C   0  0  0  0  0  0  0  0  0  0  0  0
  153.7211  137.2437  158.2167 N   0  0  0  0  0  0  0  0  0  0  0  0
  154.4539  137.6938  159.3295 C   0  0  0  0  0  0  0  0  0  0  0  0
  155.0902  136.8414  160.1549 C   0  0  0  0  0  0  0  0  0  0  0  0
  155.0067  135.4148  159.8702 C   0  0  0  0  0  0  0  0  0  0  0  0
  155.5816  134.6216  160.6131 O   0  0  0  0  0  0  0  0  0  0  0  0
  154.2850  135.0266  158.7784 N   0  5  0  0  0  0  0  0  0  0  0  0
  153.6431  135.9054  157.9470 C   0  0  0  0  0  0  0  0  0  0  0  0
  152.9986  135.5318  156.9669 O   0  0  0  0  0  0  0  0  0  0  0  0
  150.9847  142.2712  158.4937 C   0  0  0  0  0  0  0  0  0  0  0  0
  152.1725  141.9800  159.4605 C   0  0  0  0  0  0  0  0  0  0  0  0
  152.7970  143.2892  159.9852 C   0  0  1  0  0  0  0  0  0  0  0  0
  153.3211  144.1196  158.7961 C   0  0  0  0  0  0  0  0  0  0  0  0
  152.1468  144.4493  157.8521 C   0  0  2  0  0  0  0  0  0  0  0  0
  151.0808  145.2592  158.6186 C   0  0  0  0  0  0  0  0  0  0  0  0
  150.5661  144.4223  159.8080 C   0  0  2  0  0  0  0  0  0  0  0  0
  151.7344  144.0945  160.7577 C   0  0  0  0  0  0  0  0  0  0  0  0
  149.9391  143.1134  159.2818 C   0  0  0  0  0  0  0  0  0  0  0  0
  151.5231  143.1404  157.3199 C   0  0  0  0  0  0  0  0  0  0  0  0
  147.7902  139.8744  155.8269 H   0  0  0  0  0  0  0  0  0  0  0  0
  148.2520  139.1612  157.3693 H   0  0  0  0  0  0  0  0  0  0  0  0
  149.3466  139.0774  155.9891 H   0  0  0  0  0  0  0  0  0  0  0  0
  149.6265  141.5572  156.0435 H   0  0  0  0  0  0  0  0  0  0  0  0
  148.4394  141.6708  157.3154 H   0  0  0  0  0  0  0  0  0  0  0  0
  149.9070  140.4513  158.8674 H   0  0  0  0  0  0  0  0  0  0  0  0
  151.6286  140.1254  156.4949 H   0  0  0  0  0  0  0  0  0  0  0  0
  152.5884  137.8004  156.5192 H   0  0  0  0  0  0  0  0  0  0  0  0
  153.8354  138.9294  156.9306 H   0  0  0  0  0  0  0  0  0  0  0  0
  154.4718  138.7654  159.4646 H   0  0  0  0  0  0  0  0  0  0  0  0
  155.6507  137.2047  161.0037 H   0  0  0  0  0  0  0  0  0  0  0  0
  151.8334  141.3709  160.2997 H   0  0  0  0  0  0  0  0  0  0  0  0
  152.9494  141.3991  158.9624 H   0  0  0  0  0  0  0  0  0  0  0  0
  153.6256  143.0520  160.6533 H   0  0  0  0  0  0  0  0  0  0  0  0
  153.7893  145.0377  159.1530 H   0  0  0  0  0  0  0  0  0  0  0  0
  154.0938  143.5673  158.2600 H   0  0  0  0  0  0  0  0  0  0  0  0
  152.5141  145.0404  157.0126 H   0  0  0  0  0  0  0  0  0  0  0  0
  151.5038  146.1999  158.9734 H   0  0  0  0  0  0  0  0  0  0  0  0
  150.2561  145.5225  157.9554 H   0  0  0  0  0  0  0  0  0  0  0  0
  149.8107  144.9922  160.3499 H   0  0  0  0  0  0  0  0  0  0  0  0
  151.3763  143.5248  161.6157 H   0  0  0  0  0  0  0  0  0  0  0  0
  152.1691  145.0125  161.1554 H   0  0  0  0  0  0  0  0  0  0  0  0
  149.0918  143.3767  158.6497 H   0  0  0  0  0  0  0  0  0  0  0  0
  149.5348  142.5339  160.1129 H   0  0  0  0  0  0  0  0  0  0  0  0
  152.2705  142.5942  156.7435 H   0  0  0  0  0  0  0  0  0  0  0  0
  150.7210  143.3853  156.6234 H   0  0  0  0  0  0  0  0  0  0  0  0
  1  2  1  0  0  0  0
  1 26  1  0  0  0  0
  1 27  1  0  0  0  0
  1 28  1  0  0  0  0
  2  3  1  0  0  0  0
  2 29  1  0  0  0  0
  2 30  1  0  0  0  0
  3  4  1  0  0  0  0
  3 16  1  0  0  0  0
  3 31  1  0  0  0  0
  4  5  1  0  0  0  0
  4 32  1  0  0  0  0
  5  6  2  0  0  0  0
  5  7  1  0  0  0  0
  7  8  1  0  0  0  0
  7 33  1  0  0  0  0
  7 34  1  0  0  0  0
  8 14  1  0  0  0  0
  8  9  1  0  0  0  0
  9 10  2  0  0  0  0
  9 35  1  0  0  0  0
 10 11  1  0  0  0  0
 10 36  1  0  0  0  0
 11 12  2  0  0  0  0
 11 13  1  0  0  0  0
 13 14  1  0  0  0  0
 14 15  2  0  0  0  0
 16 24  1  0  0  0  0
 16 25  1  0  0  0  0
 16 17  1  0  0  0  0
 17 18  1  0  0  0  0
 17 37  1  0  0  0  0
 17 38  1  0  0  0  0
 18 23  1  0  0  0  0
 18 19  1  0  0  0  0
 18 39  1  0  0  0  0
 19 20  1  0  0  0  0
 19 40  1  0  0  0  0
 19 41  1  0  0  0  0
 20 21  1  0  0  0  0
 20 25  1  0  0  0  0
 20 42  1  0  0  0  0
 21 22  1  0  0  0  0
 21 43  1  0  0  0  0
 21 44  1  0  0  0  0
 22 23  1  0  0  0  0
 22 24  1  0  0  0  0
 22 45  1  0  0  0  0
 23 46  1  0  0  0  0
 23 47  1  0  0  0  0
 24 48  1  0  0  0  0
 24 49  1  0  0  0  0
 25 50  1  0  0  0  0
 25 51  1  0  0  0  0
M  CHG  1  13  -1
M  END
> <s_m_source_file>
AV-unprocessed.smi

> <i_m_source_file_index>
1591

> <i_lp_mmshare_version>
43012

> <i_f3d_flags>
0

> <s_epik_input>
W0NIMl0xW0NASF0oW0NIMl0yKVtDSDJdW0NASF0oW0NIMl0zKVtDSDJdW0NAQEhdMVtDSDJdQzIzW0NASF0oW0NIMl1bQ0gzXSlbTkhdQyg9TylbQ0gyXW40W2NIXVtjSF1jKD1PKVtuSF1jND1P

> <s_epik_cmdline>
J2VwaWtfcHl0aG9uJywgJy1waCcsICc3LjAnLCAnLXRuJywgJzgnLCAnLW1hJywgJzIwMCcsICctbWV0YWxfYmluZGluZycsICctaW1hZScsICc8aW5maWxlLm1hZT4nLCAnLW9tYWUnLCAnPG91dGZpbGUubWFlPic=

> <r_lp_tautomer_probability>
0.999537

> <r_epik_Ionization_Penalty>
3.13902

> <r_epik_Ionization_Penalty_Charging>
2.97334e-08

> <r_epik_Ionization_Penalty_Neutral>
3.13902

> <r_epik_State_Penalty>
3.13814

> <r_epik_Charging_Adjusted_Penalty>
3.13814

> <i_epik_Tot_Q>
-1

> <i_epik_Tot_abs_Q>
1

> <r_epik_Metal_State_Penalty>
0.465244

> <b_epik_Metal_Only>
1

> <s_lp_Force_Field>
OPLS_2005

> <r_lp_Energy>
49.2124

> <b_lp_Chiralities_Consistent>
1

> <s_lp_Variant>
AV-unprocessed.smi:1591-4

> <Gold.Version>
5.8.1

> <Gold.Id.Protein>
6NUR|6NUR_protein|mol2

> <Gold.PLP.Fitness>
42.4189

> <Gold.PLP.PLP>
-34.1294

> <Gold.PLP.part.hbond>
-2.0000

> <Gold.PLP.part.metal>
0.0000

> <Gold.PLP.part.buried>
-3.8203

> <Gold.PLP.part.nonpolar>
-28.4297

> <Gold.PLP.part.repulsive>
0.0509

> <Gold.PLP.ligand.clash>
0.0000

> <Gold.PLP.ligand.torsion>
0.4190

> <Gold.PLP.Chemscore.Hbond>
3.0000

> <Gold.PLP.Chemscore.CHOScore>
0.0000

> <Gold.PLP.Chemscore.Metal>
0.0000

> <Gold.Chemscore.Hbonds>
donor molecule, donor type, donor heavy atom, donor atom, acceptor molecule, acceptor atom, score
      P1  H  6896  6909       L1    13  1.16
      P1  H 10752 10764       L1    15  1.00

> <Gold.PLP.Chemscore.Internal.Correction>
0.1274

> <Gold.Rescore>
     Score         DG    S(hbond)    S(metal)    S(lipo)     H(rot)  DE(clash)    DE(int)     intcor
     16.70     -18.83       0.97        0.00     129.89       1.99       0.37       1.77       ----

> <Gold.Chemscore.Fitness>
16.6997

> <Gold.Chemscore.DG>
-18.8344

> <Gold.Chemscore.ZeroCoef>
-5.4800

> <Gold.Chemscore.Hbond>
0.9702

> <Gold.Chemscore.Metal>
0.0000

> <Gold.Chemscore.Lipo>
129.8927

> <Gold.Chemscore.Internal_Hbond>
0.0000

> <Gold.Chemscore.DEClash>
0.3654

> <Gold.Chemscore.DEInternal>
1.7693

> <Gold.Chemscore.Rot>
1.9858

> <Gold.Chemscore.Internal.Correction>
   9.000000E+99

> <Gold.Chemscore.Hbonds>
donor molecule, donor type, donor heavy atom, donor atom, acceptor molecule, acceptor atom, score
      P1  H  6896  6909       L1    13  0.02
      P1  H 10752 10764       L1    15  0.96

> <Gold.Chemscore.Hbond.Weighted>
-3.2406

> <Gold.Chemscore.Metal.Weighted>
-0.0000

> <Gold.Chemscore.Lipo.Weighted>
-15.1974

> <Gold.Chemscore.Internal_Hbond.Weighted>
0.0000

> <Gold.Chemscore.DEClash.Weighted>
0.3654

> <Gold.Chemscore.DEInternal.Weighted>
1.7693

> <Gold.Chemscore.Rot.Weighted>
5.0836

> <Gold.Chemscore.Internal.Correction.Weighted>
   9.000000E+99

> <Gold.Protein.RotatedTorsions>
[ 6907 6896 6895 6894 ] final -150.55 input  -60.11 | X-H torsion
[ 7974 7965 7964 7962 ] final -163.16 input  175.53 | X-H torsion
[ 8008 7997 7996 7995 ] final  -89.11 input   59.86 | X-H torsion
[ 10167 10162 10161 10158 ] final   71.57 input  -65.29 | X-H torsion
[ 10718 10713 10712 10709 ] final  -96.01 input   66.30 | X-H torsion
[ 10763 10752 10751 10750 ] final  -19.09 input  -60.55 | X-H torsion
[ 11005 11000 10999 10996 ] final   56.89 input  -57.11 | X-H torsion

> <Gold.Protein.ActiveResidues>
 VAL166  LYS551  ARG553  GLY616  TRP617  ASP618  TYR619  PRO620  LYS621  CYS622 
 ASP623  PHE694  ASN695  SER759  ASP760  ASP761  ALA762  ILE779  LEU786  VAL792 
 PHE793  MET794  SER795  GLU796  ALA797  LYS798  CYS799  TRP800  GLU811  SER814 

> <Gold.Protein.RotatedAtoms>
  151.2001  133.4615  159.2595 H   0  0  0  0  0  0  0  0  0  0  0  0  # atno 6907 bound_to 6896
  151.1077  135.0009  159.8489 H   0  0  0  0  0  0  0  0  0  0  0  0  # atno 6908 bound_to 6896
  152.5448  134.1923  159.8732 H   0  0  0  0  0  0  0  0  0  0  0  0  # atno 6909 bound_to 6896
  144.7334  140.3147  143.6181 H   0  0  0  0  0  0  0  0  0  0  0  0  # atno 7974 bound_to 7965
  154.6828  140.0545  157.0283 H   0  0  0  0  0  0  0  0  0  0  0  0  # atno 8008 bound_to 7997
  155.0928  140.3221  155.4550 H   0  0  0  0  0  0  0  0  0  0  0  0  # atno 8009 bound_to 7997
  156.2700  140.2045  156.6055 H   0  0  0  0  0  0  0  0  0  0  0  0  # atno 8010 bound_to 7997
  140.0446  144.5361  150.7408 H   0  0  0  0  0  0  0  0  0  0  0  0  # atno 10167 bound_to 10162
  156.0054  130.5133  150.6162 H   0  0  0  0  0  0  0  0  0  0  0  0  # atno 10718 bound_to 10713
  153.5995  135.7000  153.5390 H   0  0  0  0  0  0  0  0  0  0  0  0  # atno 10763 bound_to 10752
  153.3109  135.4101  155.1335 H   0  0  0  0  0  0  0  0  0  0  0  0  # atno 10764 bound_to 10752
  154.8585  135.3672  154.5530 H   0  0  0  0  0  0  0  0  0  0  0  0  # atno 10765 bound_to 10752
  140.0494  134.5758  155.9282 H   0  0  0  0  0  0  0  0  0  0  0  0  # atno 11005 bound_to 11000
  145.7629  139.1831  143.2256 LP  0  0  0  0  0  0  0  0  0  0  0  0  # atno 17320 bound_to 7965
  146.0972  140.7587  142.9567 LP  0  0  0  0  0  0  0  0  0  0  0  0  # atno 17321 bound_to 7965
  140.7244  143.2621  151.4169 LP  0  0  0  0  0  0  0  0  0  0  0  0  # atno 17342 bound_to 10162
  139.5991  144.1333  152.2178 LP  0  0  0  0  0  0  0  0  0  0  0  0  # atno 17343 bound_to 10162
  157.3986  131.0806  151.1329 LP  0  0  0  0  0  0  0  0  0  0  0  0  # atno 17370 bound_to 10713
  157.1998  130.6389  149.5734 LP  0  0  0  0  0  0  0  0  0  0  0  0  # atno 17371 bound_to 10713
  141.1923  133.6575  156.5496 LP  0  0  0  0  0  0  0  0  0  0  0  0  # atno 17394 bound_to 11000
  140.3941  134.7414  157.4739 LP  0  0  0  0  0  0  0  0  0  0  0  0  # atno 17395 bound_to 11000

$$$$
