AV-unprocessed.smi:247|AV-procd|sdf|1893|dock4
  -GOLD-   2262020553D 1   1.00000     0.00000
 Structure written by MMmdl.
 61 65  0  0  0  0  0  0  0  0  1 V2000
  150.3549  140.2120  154.2892 O   0  0  0  0  0  0  0  0  0  0  0  0
  151.1290  139.7536  155.3805 C   0  0  0  0  0  0  0  0  0  0  0  0
  150.8341  140.5059  156.7083 C   0  0  0  0  0  0  0  0  0  0  0  0
  149.3673  140.1911  157.1430 C   0  0  0  0  0  0  0  0  0  0  0  0
  148.8071  138.9674  156.5867 N   0  0  0  0  0  0  0  0  0  0  0  0
  149.1207  137.6767  156.9500 C   0  0  0  0  0  0  0  0  0  0  0  0
  148.4808  136.7429  156.3013 N   0  0  0  0  0  0  0  0  0  0  0  0
  147.6437  137.4422  155.4412 C   0  0  0  0  0  0  0  0  0  0  0  0
  146.6950  137.0559  154.4544 C   0  0  0  0  0  0  0  0  0  0  0  0
  146.4394  135.7535  154.1767 N   0  0  0  0  0  0  0  0  0  0  0  0
  146.4822  134.8904  155.3481 C   0  0  0  0  0  0  0  0  0  0  0  0
  145.7809  133.6040  154.9343 C   0  0  0  0  0  0  0  0  0  0  0  0
  144.7277  134.0913  153.9430 C   0  0  0  0  0  0  0  0  0  0  0  0
  145.3263  135.3607  153.3023 C   0  0  2  0  0  0  0  0  0  0  0  0
  145.7262  135.1556  151.8048 C   0  0  2  0  0  0  0  0  0  0  0  0
  144.5392  135.2100  150.8157 C   0  0  0  0  0  0  0  0  0  0  0  0
  143.8095  133.9870  150.8319 O   0  0  0  0  0  0  0  0  0  0  0  0
  144.5748  132.8836  150.3597 C   0  0  0  0  0  0  0  0  0  0  0  0
  145.7828  132.6362  151.2764 C   0  0  0  0  0  0  0  0  0  0  0  0
  146.6020  133.9237  151.4619 C   0  0  2  0  0  0  0  0  0  0  0  0
  147.6459  133.7268  152.3936 O   0  0  0  0  0  0  0  0  0  0  0  0
  146.0492  138.0469  153.7854 N   0  0  0  0  0  0  0  0  0  0  0  0
  146.3151  139.3279  154.0553 C   0  0  0  0  0  0  0  0  0  0  0  0
  147.1768  139.8323  154.9403 N   0  0  0  0  0  0  0  0  0  0  0  0
  147.8295  138.8423  155.6141 C   0  0  0  0  0  0  0  0  0  0  0  0
  151.8640  140.0856  157.7888 C   0  0  0  0  0  0  0  0  0  0  0  0
  151.7740  140.9580  159.0533 C   0  0  0  0  0  0  0  0  0  0  0  0
  151.9591  142.3258  158.7093 O   0  0  0  0  0  0  0  0  0  0  0  0
  150.9577  142.8205  157.8282 C   0  0  0  0  0  0  0  0  0  0  0  0
  150.9802  142.0361  156.5019 C   0  0  0  0  0  0  0  0  0  0  0  0
  149.8250  139.4952  153.9753 H   0  0  0  0  0  0  0  0  0  0  0  0
  150.9422  138.6858  155.5000 H   0  0  0  0  0  0  0  0  0  0  0  0
  152.1759  139.8625  155.0976 H   0  0  0  0  0  0  0  0  0  0  0  0
  149.2790  140.1190  158.2257 H   0  0  0  0  0  0  0  0  0  0  0  0
  148.7141  141.0166  156.8571 H   0  0  0  0  0  0  0  0  0  0  0  0
  149.8521  137.4460  157.7106 H   0  0  0  0  0  0  0  0  0  0  0  0
  147.5058  134.6942  155.6676 H   0  0  0  0  0  0  0  0  0  0  0  0
  145.9510  135.3632  156.1759 H   0  0  0  0  0  0  0  0  0  0  0  0
  146.4887  132.9386  154.4399 H   0  0  0  0  0  0  0  0  0  0  0  0
  145.3531  133.0664  155.7807 H   0  0  0  0  0  0  0  0  0  0  0  0
  144.4488  133.3229  153.2213 H   0  0  0  0  0  0  0  0  0  0  0  0
  143.8232  134.3603  154.4904 H   0  0  0  0  0  0  0  0  0  0  0  0
  144.5308  136.1041  153.3322 H   0  0  0  0  0  0  0  0  0  0  0  0
  146.3553  136.0161  151.5724 H   0  0  0  0  0  0  0  0  0  0  0  0
  143.8668  136.0330  151.0491 H   0  0  0  0  0  0  0  0  0  0  0  0
  144.9001  135.3989  149.8035 H   0  0  0  0  0  0  0  0  0  0  0  0
  143.9385  131.9987  150.3354 H   0  0  0  0  0  0  0  0  0  0  0  0
  144.8989  133.0681  149.3344 H   0  0  0  0  0  0  0  0  0  0  0  0
  145.4412  132.2467  152.2303 H   0  0  0  0  0  0  0  0  0  0  0  0
  146.4120  131.8540  150.8508 H   0  0  0  0  0  0  0  0  0  0  0  0
  147.0861  134.1286  150.5058 H   0  0  0  0  0  0  0  0  0  0  0  0
  148.0927  134.5492  152.5238 H   0  0  0  0  0  0  0  0  0  0  0  0
  145.7605  140.0513  153.4762 H   0  0  0  0  0  0  0  0  0  0  0  0
  151.7601  139.0320  158.0459 H   0  0  0  0  0  0  0  0  0  0  0  0
  152.8754  140.1880  157.3945 H   0  0  0  0  0  0  0  0  0  0  0  0
  150.8237  140.8235  159.5704 H   0  0  0  0  0  0  0  0  0  0  0  0
  152.5543  140.6694  159.7576 H   0  0  0  0  0  0  0  0  0  0  0  0
  149.9801  142.7784  158.3084 H   0  0  0  0  0  0  0  0  0  0  0  0
  151.1590  143.8742  157.6351 H   0  0  0  0  0  0  0  0  0  0  0  0
  151.9266  142.2618  156.0098 H   0  0  0  0  0  0  0  0  0  0  0  0
  150.2007  142.4071  155.8354 H   0  0  0  0  0  0  0  0  0  0  0  0
  1  2  1  0  0  0  0
  1 31  1  0  0  0  0
  2  3  1  0  0  0  0
  2 32  1  0  0  0  0
  2 33  1  0  0  0  0
  3 30  1  0  0  0  0
  3  4  1  0  0  0  0
  3 26  1  0  0  0  0
  4  5  1  0  0  0  0
  4 34  1  0  0  0  0
  4 35  1  0  0  0  0
  5 25  1  0  0  0  0
  5  6  1  0  0  0  0
  6  7  2  0  0  0  0
  6 36  1  0  0  0  0
  7  8  1  0  0  0  0
  8 25  2  0  0  0  0
  8  9  1  0  0  0  0
  9 10  1  0  0  0  0
  9 22  2  0  0  0  0
 10 14  1  0  0  0  0
 10 11  1  0  0  0  0
 11 12  1  0  0  0  0
 11 37  1  0  0  0  0
 11 38  1  0  0  0  0
 12 13  1  0  0  0  0
 12 39  1  0  0  0  0
 12 40  1  0  0  0  0
 13 14  1  0  0  0  0
 13 41  1  0  0  0  0
 13 42  1  0  0  0  0
 14 15  1  0  0  0  0
 14 43  1  0  0  0  0
 15 20  1  0  0  0  0
 15 16  1  0  0  0  0
 15 44  1  0  0  0  0
 16 17  1  0  0  0  0
 16 45  1  0  0  0  0
 16 46  1  0  0  0  0
 17 18  1  0  0  0  0
 18 19  1  0  0  0  0
 18 47  1  0  0  0  0
 18 48  1  0  0  0  0
 19 20  1  0  0  0  0
 19 49  1  0  0  0  0
 19 50  1  0  0  0  0
 20 21  1  0  0  0  0
 20 51  1  0  0  0  0
 21 52  1  0  0  0  0
 22 23  1  0  0  0  0
 23 24  2  0  0  0  0
 23 53  1  0  0  0  0
 24 25  1  0  0  0  0
 26 27  1  0  0  0  0
 26 54  1  0  0  0  0
 26 55  1  0  0  0  0
 27 28  1  0  0  0  0
 27 56  1  0  0  0  0
 27 57  1  0  0  0  0
 28 29  1  0  0  0  0
 29 30  1  0  0  0  0
 29 58  1  0  0  0  0
 29 59  1  0  0  0  0
 30 60  1  0  0  0  0
 30 61  1  0  0  0  0
M  END
> <s_m_source_file>
AV-unprocessed.smi

> <i_m_source_file_index>
247

> <i_lp_mmshare_version>
43012

> <i_f3d_flags>
0

> <s_epik_input>
W0NIMl0xW0NIMl1PW0NIMl1bQ0gyXUMxKFtDSDJdW09IXSlbQ0gyXW4oW2NIXW4yKWMoYzIzKW5bY0hdbmMzTjRbQ0gyXVtDSDJdW0NIMl1bQ0BIXTRbQ0BASF01W0NIMl1PW0NIMl1bQ0gyXVtDQEhdNVtPSF0=

> <s_epik_cmdline>
J2VwaWtfcHl0aG9uJywgJy1waCcsICc3LjAnLCAnLXRuJywgJzgnLCAnLW1hJywgJzIwMCcsICctbWV0YWxfYmluZGluZycsICctaW1hZScsICc8aW5maWxlLm1hZT4nLCAnLW9tYWUnLCAnPG91dGZpbGUubWFlPic=

> <r_lp_tautomer_probability>
1

> <r_epik_Ionization_Penalty>
0.00362597

> <r_epik_Ionization_Penalty_Charging>
0

> <r_epik_Ionization_Penalty_Neutral>
0.00362597

> <r_epik_State_Penalty>
0.00241433

> <r_epik_Charging_Adjusted_Penalty>
0.00241433

> <i_epik_Tot_Q>
0

> <i_epik_Tot_abs_Q>
0

> <r_epik_Metal_State_Penalty>
-0

> <b_epik_Metal_Only>
0

> <s_lp_Force_Field>
OPLS_2005

> <r_lp_Energy>
64.0337

> <b_lp_Chiralities_Consistent>
1

> <s_lp_Variant>
AV-unprocessed.smi:247-6

> <Gold.Version>
5.8.1

> <Gold.Id.Protein>
6NUR|6NUR_protein|mol2

> <Gold.PLP.Fitness>
38.2946

> <Gold.PLP.PLP>
-32.1887

> <Gold.PLP.part.hbond>
-2.3058

> <Gold.PLP.part.metal>
0.0000

> <Gold.PLP.part.buried>
-5.4024

> <Gold.PLP.part.nonpolar>
-25.0024

> <Gold.PLP.part.repulsive>
0.5183

> <Gold.PLP.ligand.clash>
0.0000

> <Gold.PLP.ligand.torsion>
1.6133

> <Gold.PLP.Chemscore.Hbond>
1.9920

> <Gold.PLP.Chemscore.CHOScore>
1.0000

> <Gold.PLP.Chemscore.Metal>
0.0000

> <Gold.Chemscore.Hbonds>
donor molecule, donor type, donor heavy atom, donor atom, acceptor molecule, acceptor atom, score
      L1  H    21    52       P1  7948  1.00
      P1  H  7989  7998       L1     1  0.75
      L1  C    23    53       P1 10175  1.00

> <Gold.PLP.Chemscore.Internal.Correction>
0.3565

> <Gold.Rescore>
     Score         DG    S(hbond)    S(metal)    S(lipo)     H(rot)  DE(clash)    DE(int)     intcor
      8.22     -11.01       1.32        0.00      80.07       3.23       0.02       2.77       ----

> <Gold.Chemscore.Fitness>
8.2204

> <Gold.Chemscore.DG>
-11.0100

> <Gold.Chemscore.ZeroCoef>
-5.4800

> <Gold.Chemscore.Hbond>
1.3249

> <Gold.Chemscore.Metal>
0.0000

> <Gold.Chemscore.Lipo>
80.0704

> <Gold.Chemscore.Internal_Hbond>
0.0000

> <Gold.Chemscore.DEClash>
0.0210

> <Gold.Chemscore.DEInternal>
2.7686

> <Gold.Chemscore.Rot>
3.2278

> <Gold.Chemscore.Internal.Correction>
   9.000000E+99

> <Gold.Chemscore.Hbonds>
donor molecule, donor type, donor heavy atom, donor atom, acceptor molecule, acceptor atom, score
      L1  H    21    52       P1  7948  0.37
      P1  H  7989  7998       L1     1  0.09

> <Gold.Chemscore.Hbond.Weighted>
-4.4251

> <Gold.Chemscore.Metal.Weighted>
-0.0000

> <Gold.Chemscore.Lipo.Weighted>
-9.3682

> <Gold.Chemscore.Internal_Hbond.Weighted>
0.0000

> <Gold.Chemscore.DEClash.Weighted>
0.0210

> <Gold.Chemscore.DEInternal.Weighted>
2.7686

> <Gold.Chemscore.Rot.Weighted>
8.2633

> <Gold.Chemscore.Internal.Correction.Weighted>
   9.000000E+99

> <Gold.Protein.RotatedTorsions>
[ 6907 6896 6895 6894 ] final  137.67 input  -60.11 | X-H torsion
[ 7974 7965 7964 7962 ] final   84.17 input  175.53 | X-H torsion
[ 8008 7997 7996 7995 ] final   27.78 input   59.86 | X-H torsion
[ 10167 10162 10161 10158 ] final   31.81 input  -65.29 | X-H torsion
[ 10718 10713 10712 10709 ] final    1.04 input   66.30 | X-H torsion
[ 10763 10752 10751 10750 ] final   87.80 input  -60.55 | X-H torsion
[ 11005 11000 10999 10996 ] final -145.84 input  -57.11 | X-H torsion

> <Gold.Protein.ActiveResidues>
 VAL166  LYS551  ARG553  GLY616  TRP617  ASP618  TYR619  PRO620  LYS621  CYS622 
 ASP623  PHE694  ASN695  SER759  ASP760  ASP761  ALA762  ILE779  LEU786  VAL792 
 PHE793  MET794  SER795  GLU796  ALA797  LYS798  CYS799  TRP800  GLU811  SER814 

> <Gold.Protein.RotatedAtoms>
  152.2755  133.5421  159.5464 H   0  0  0  0  0  0  0  0  0  0  0  0  # atno 6907 bound_to 6896
  150.7175  134.0638  159.3849 H   0  0  0  0  0  0  0  0  0  0  0  0  # atno 6908 bound_to 6896
  151.8551  135.0544  160.0514 H   0  0  0  0  0  0  0  0  0  0  0  0  # atno 6909 bound_to 6896
  145.6022  139.2354  143.2239 H   0  0  0  0  0  0  0  0  0  0  0  0  # atno 7974 bound_to 7965
  155.0482  140.3177  155.4701 H   0  0  0  0  0  0  0  0  0  0  0  0  # atno 8008 bound_to 7997
  156.2840  140.2150  156.5551 H   0  0  0  0  0  0  0  0  0  0  0  0  # atno 8009 bound_to 7997
  154.7232  140.0488  157.0646 H   0  0  0  0  0  0  0  0  0  0  0  0  # atno 8010 bound_to 7997
  140.4555  144.0984  150.6201 H   0  0  0  0  0  0  0  0  0  0  0  0  # atno 10167 bound_to 10162
  156.8423  130.5525  149.5676 H   0  0  0  0  0  0  0  0  0  0  0  0  # atno 10718 bound_to 10713
  153.1705  135.4530  154.9895 H   0  0  0  0  0  0  0  0  0  0  0  0  # atno 10763 bound_to 10752
  154.7962  135.3238  154.7663 H   0  0  0  0  0  0  0  0  0  0  0  0  # atno 10764 bound_to 10752
  153.8140  135.6952  153.4891 H   0  0  0  0  0  0  0  0  0  0  0  0  # atno 10765 bound_to 10752
  140.7881  134.3000  157.5023 H   0  0  0  0  0  0  0  0  0  0  0  0  # atno 11005 bound_to 11000
  146.1567  140.6847  142.9296 LP  0  0  0  0  0  0  0  0  0  0  0  0  # atno 17320 bound_to 7965
  144.7305  140.4656  143.6941 LP  0  0  0  0  0  0  0  0  0  0  0  0  # atno 17321 bound_to 7965
  140.4156  143.2636  151.9779 LP  0  0  0  0  0  0  0  0  0  0  0  0  # atno 17342 bound_to 10162
  139.4801  144.5877  151.7826 LP  0  0  0  0  0  0  0  0  0  0  0  0  # atno 17343 bound_to 10162
  156.0874  130.5868  150.9672 LP  0  0  0  0  0  0  0  0  0  0  0  0  # atno 17370 bound_to 10713
  157.6349  131.0917  150.8369 LP  0  0  0  0  0  0  0  0  0  0  0  0  # atno 17371 bound_to 10713
  139.8734  134.9358  156.3644 LP  0  0  0  0  0  0  0  0  0  0  0  0  # atno 17394 bound_to 11000
  140.9416  133.7510  156.0154 LP  0  0  0  0  0  0  0  0  0  0  0  0  # atno 17395 bound_to 11000

$$$$
