AV-unprocessed.smi:2451|AV-procd|sdf|9675|dock1
  -GOLD-   2272013313D 1   1.00000     0.00000
 Structure written by MMmdl.
 38 39  0  0  0  0  0  0  0  0  1 V2000
  150.7306  145.3142  159.9925 C   0  0  0  0  0  0  0  0  0  0  0  0
  151.3193  143.9572  160.4123 C   0  0  2  0  0  0  0  0  0  0  0  0
  152.2878  144.0975  161.6063 C   0  0  0  0  0  0  0  0  0  0  0  0
  152.7984  142.7293  162.0892 C   0  0  0  0  0  0  0  0  0  0  0  0
  153.4248  141.9184  160.9440 C   0  0  0  0  0  0  0  0  0  0  0  0
  152.4441  141.7931  159.7646 C   0  0  2  0  0  0  0  0  0  0  0  0
  153.0323  140.9879  158.6906 N   0  0  0  0  0  0  0  0  0  0  0  0
  151.9799  140.1484  157.6141 S   0  0  0  0  0  0  0  0  0  0  0  0
  152.8210  139.3470  156.7119 O   0  0  0  0  0  0  0  0  0  0  0  0
  150.9440  139.4925  158.4272 O   0  0  0  0  0  0  0  0  0  0  0  0
  151.2018  141.5202  156.6627 C   0  0  0  0  0  0  0  0  0  0  0  0
  150.2054  140.9569  155.6902 C   0  0  0  0  0  0  0  0  0  0  0  0
  148.8363  141.3056  155.5238 C   0  0  0  0  0  0  0  0  0  0  0  0
  148.4198  140.4889  154.5125 C   0  0  0  0  0  0  0  0  0  0  0  0
  149.4411  139.7049  154.0840 O   0  0  0  0  0  0  0  0  0  0  0  0
  150.5773  140.0121  154.8409 N   0  0  0  0  0  0  0  0  0  0  0  0
  151.9680  143.1714  159.2411 C   0  0  2  0  0  0  0  0  0  0  0  0
  153.0821  143.9640  158.5176 C   0  0  0  0  0  0  0  0  0  0  0  0
  151.5078  146.0280  159.7193 H   0  0  0  0  0  0  0  0  0  0  0  0
  150.1579  145.7561  160.8084 H   0  0  0  0  0  0  0  0  0  0  0  0
  150.0574  145.2055  159.1418 H   0  0  0  0  0  0  0  0  0  0  0  0
  150.4742  143.3604  160.7594 H   0  0  0  0  0  0  0  0  0  0  0  0
  153.1333  144.7298  161.3336 H   0  0  0  0  0  0  0  0  0  0  0  0
  151.7866  144.6043  162.4316 H   0  0  0  0  0  0  0  0  0  0  0  0
  153.5255  142.8650  162.8903 H   0  0  0  0  0  0  0  0  0  0  0  0
  151.9692  142.1654  162.5183 H   0  0  0  0  0  0  0  0  0  0  0  0
  154.3513  142.3929  160.6194 H   0  0  0  0  0  0  0  0  0  0  0  0
  153.6994  140.9276  161.3077 H   0  0  0  0  0  0  0  0  0  0  0  0
  151.5657  141.2610  160.1337 H   0  0  0  0  0  0  0  0  0  0  0  0
  153.7655  140.3753  159.0468 H   0  0  0  0  0  0  0  0  0  0  0  0
  150.7232  142.2003  157.3670 H   0  0  0  0  0  0  0  0  0  0  0  0
  151.9902  142.0720  156.1501 H   0  0  0  0  0  0  0  0  0  0  0  0
  148.2523  142.0350  156.0651 H   0  0  0  0  0  0  0  0  0  0  0  0
  147.4739  140.3530  154.0095 H   0  0  0  0  0  0  0  0  0  0  0  0
  151.1875  142.9840  158.5019 H   0  0  0  0  0  0  0  0  0  0  0  0
  153.9061  144.2200  159.1825 H   0  0  0  0  0  0  0  0  0  0  0  0
  152.7002  144.8924  158.0940 H   0  0  0  0  0  0  0  0  0  0  0  0
  153.4987  143.3974  157.6848 H   0  0  0  0  0  0  0  0  0  0  0  0
  1  2  1  0  0  0  0
  1 19  1  0  0  0  0
  1 20  1  0  0  0  0
  1 21  1  0  0  0  0
  2 17  1  0  0  0  0
  2  3  1  0  0  0  0
  2 22  1  0  0  0  0
  3  4  1  0  0  0  0
  3 23  1  0  0  0  0
  3 24  1  0  0  0  0
  4  5  1  0  0  0  0
  4 25  1  0  0  0  0
  4 26  1  0  0  0  0
  5  6  1  0  0  0  0
  5 27  1  0  0  0  0
  5 28  1  0  0  0  0
  6  7  1  0  0  0  0
  6 17  1  0  0  0  0
  6 29  1  0  0  0  0
  7  8  1  0  0  0  0
  7 30  1  0  0  0  0
  8  9  2  0  0  0  0
  8 10  2  0  0  0  0
  8 11  1  0  0  0  0
 11 12  1  0  0  0  0
 11 31  1  0  0  0  0
 11 32  1  0  0  0  0
 12 16  2  0  0  0  0
 12 13  1  0  0  0  0
 13 14  2  0  0  0  0
 13 33  1  0  0  0  0
 14 15  1  0  0  0  0
 14 34  1  0  0  0  0
 15 16  1  0  0  0  0
 17 18  1  0  0  0  0
 17 35  1  0  0  0  0
 18 36  1  0  0  0  0
 18 37  1  0  0  0  0
 18 38  1  0  0  0  0
M  END
> <s_m_source_file>
AV-unprocessed.smi

> <i_m_source_file_index>
2451

> <i_lp_mmshare_version>
43012

> <i_f3d_flags>
0

> <s_epik_input>
W0NIM11bQ0BASF0xW0NIMl1bQ0gyXVtDSDJdW0NASF0oW0NASF0xW0NIM10pW05IXVMoPU8pKD1PKVtDSDJdYzJbY0hdW2NIXW9uMg==

> <s_epik_cmdline>
J2VwaWtfcHl0aG9uJywgJy1waCcsICc3LjAnLCAnLXRuJywgJzgnLCAnLW1hJywgJzIwMCcsICctbWV0YWxfYmluZGluZycsICctaW1hZScsICc8aW5maWxlLm1hZT4nLCAnLW9tYWUnLCAnPG91dGZpbGUubWFlPic=

> <r_lp_tautomer_probability>
1

> <r_epik_Ionization_Penalty>
8.73668e-05

> <r_epik_Ionization_Penalty_Charging>
0

> <r_epik_Ionization_Penalty_Neutral>
8.73668e-05

> <r_epik_State_Penalty>
-0

> <r_epik_Charging_Adjusted_Penalty>
0

> <i_epik_Tot_Q>
0

> <i_epik_Tot_abs_Q>
0

> <r_epik_Metal_State_Penalty>
0.0716439

> <b_epik_Metal_Only>
0

> <s_lp_Force_Field>
OPLS_2005

> <r_lp_Energy>
8.89421

> <b_lp_Chiralities_Consistent>
1

> <s_lp_Variant>
AV-unprocessed.smi:2451-7

> <Gold.Version>
5.8.1

> <Gold.Id.Protein>
6NUR|6NUR_protein|mol2

> <Gold.PLP.Fitness>
46.6339

> <Gold.PLP.PLP>
-41.4083

> <Gold.PLP.part.hbond>
-2.4193

> <Gold.PLP.part.metal>
0.0000

> <Gold.PLP.part.buried>
-5.8569

> <Gold.PLP.part.nonpolar>
-34.8046

> <Gold.PLP.part.repulsive>
1.6295

> <Gold.PLP.ligand.clash>
0.0000

> <Gold.PLP.ligand.torsion>
0.4649

> <Gold.PLP.Chemscore.Hbond>
2.0000

> <Gold.PLP.Chemscore.CHOScore>
0.0000

> <Gold.PLP.Chemscore.Metal>
0.0000

> <Gold.Chemscore.Hbonds>
donor molecule, donor type, donor heavy atom, donor atom, acceptor molecule, acceptor atom, score
      P1  H  7989  7998       L1    16  0.95
      P1  H  7997  8009       L1     9  1.00

> <Gold.PLP.Chemscore.Internal.Correction>
0.1553

> <Gold.Rescore>
     Score         DG    S(hbond)    S(metal)    S(lipo)     H(rot)  DE(clash)    DE(int)     intcor
     16.25     -18.06       0.94        0.00     116.94       1.66       0.33       1.48       ----

> <Gold.Chemscore.Fitness>
16.2511

> <Gold.Chemscore.DG>
-18.0610

> <Gold.Chemscore.ZeroCoef>
-5.4800

> <Gold.Chemscore.Hbond>
0.9417

> <Gold.Chemscore.Metal>
0.0000

> <Gold.Chemscore.Lipo>
116.9417

> <Gold.Chemscore.Internal_Hbond>
0.0000

> <Gold.Chemscore.DEClash>
0.3263

> <Gold.Chemscore.DEInternal>
1.4836

> <Gold.Chemscore.Rot>
1.6588

> <Gold.Chemscore.Internal.Correction>
   9.000000E+99

> <Gold.Chemscore.Hbonds>
donor molecule, donor type, donor heavy atom, donor atom, acceptor molecule, acceptor atom, score
      P1  H  7989  7998       L1    16  0.13
      P1  H  7997  8009       L1     9  0.54

> <Gold.Chemscore.Hbond.Weighted>
-3.1454

> <Gold.Chemscore.Metal.Weighted>
-0.0000

> <Gold.Chemscore.Lipo.Weighted>
-13.6822

> <Gold.Chemscore.Internal_Hbond.Weighted>
0.0000

> <Gold.Chemscore.DEClash.Weighted>
0.3263

> <Gold.Chemscore.DEInternal.Weighted>
1.4836

> <Gold.Chemscore.Rot.Weighted>
4.2466

> <Gold.Chemscore.Internal.Correction.Weighted>
   9.000000E+99

> <Gold.Protein.RotatedTorsions>
[ 6907 6896 6895 6894 ] final  112.77 input  -60.11 | X-H torsion
[ 7974 7965 7964 7962 ] final    5.33 input  175.53 | X-H torsion
[ 8008 7997 7996 7995 ] final  169.65 input   59.86 | X-H torsion
[ 10167 10162 10161 10158 ] final -120.68 input  -65.29 | X-H torsion
[ 10718 10713 10712 10709 ] final  -53.89 input   66.30 | X-H torsion
[ 10763 10752 10751 10750 ] final   65.54 input  -60.55 | X-H torsion
[ 11005 11000 10999 10996 ] final   70.52 input  -57.11 | X-H torsion

> <Gold.Protein.ActiveResidues>
 VAL166  LYS551  ARG553  GLY616  TRP617  ASP618  TYR619  PRO620  LYS621  CYS622 
 ASP623  PHE694  ASN695  SER759  ASP760  ASP761  ALA762  ILE779  LEU786  VAL792 
 PHE793  MET794  SER795  GLU796  ALA797  LYS798  CYS799  TRP800  GLU811  SER814 

> <Gold.Protein.RotatedAtoms>
  152.4898  133.8469  159.7181 H   0  0  0  0  0  0  0  0  0  0  0  0  # atno 6907 bound_to 6896
  150.9017  133.7101  159.2884 H   0  0  0  0  0  0  0  0  0  0  0  0  # atno 6908 bound_to 6896
  151.4540  135.1036  159.9758 H   0  0  0  0  0  0  0  0  0  0  0  0  # atno 6909 bound_to 6896
  146.2441  140.0401  142.8383 H   0  0  0  0  0  0  0  0  0  0  0  0  # atno 7974 bound_to 7965
  156.1438  140.1558  156.8879 H   0  0  0  0  0  0  0  0  0  0  0  0  # atno 8008 bound_to 7997
  154.5010  140.0825  156.7836 H   0  0  0  0  0  0  0  0  0  0  0  0  # atno 8009 bound_to 7997
  155.4028  140.3415  155.4260 H   0  0  0  0  0  0  0  0  0  0  0  0  # atno 8010 bound_to 7997
  140.0332  143.5227  152.2166 H   0  0  0  0  0  0  0  0  0  0  0  0  # atno 10167 bound_to 10162
  156.1497  130.4151  149.9966 H   0  0  0  0  0  0  0  0  0  0  0  0  # atno 10718 bound_to 10713
  153.0101  135.5353  154.6683 H   0  0  0  0  0  0  0  0  0  0  0  0  # atno 10763 bound_to 10752
  154.5874  135.2855  155.0673 H   0  0  0  0  0  0  0  0  0  0  0  0  # atno 10764 bound_to 10752
  154.1779  135.6521  153.5079 H   0  0  0  0  0  0  0  0  0  0  0  0  # atno 10765 bound_to 10752
  139.9593  134.7089  156.0682 H   0  0  0  0  0  0  0  0  0  0  0  0  # atno 11005 bound_to 11000
  145.1077  140.9386  143.4675 LP  0  0  0  0  0  0  0  0  0  0  0  0  # atno 17320 bound_to 7965
  145.0608  139.3107  143.5881 LP  0  0  0  0  0  0  0  0  0  0  0  0  # atno 17321 bound_to 7965
  139.6062  144.7597  151.3057 LP  0  0  0  0  0  0  0  0  0  0  0  0  # atno 17342 bound_to 10162
  140.7293  143.6912  150.7920 LP  0  0  0  0  0  0  0  0  0  0  0  0  # atno 17343 bound_to 10162
  156.7827  130.9227  151.3646 LP  0  0  0  0  0  0  0  0  0  0  0  0  # atno 17370 bound_to 10713
  157.6646  130.8996  149.9904 LP  0  0  0  0  0  0  0  0  0  0  0  0  # atno 17371 bound_to 10713
  141.1268  133.6597  156.3359 LP  0  0  0  0  0  0  0  0  0  0  0  0  # atno 17394 bound_to 11000
  140.5537  134.6003  157.5415 LP  0  0  0  0  0  0  0  0  0  0  0  0  # atno 17395 bound_to 11000

$$$$
