AV-unprocessed.smi:264|AV-procd|sdf|2012|dock6
  -GOLD-   2262021213D 1   1.00000     0.00000
 Structure written by MMmdl.
 52 56  0  0  0  0  0  0  0  0  1 V2000
  147.1294  138.6249  155.8035 C   0  0  0  0  0  0  0  0  0  0  0  0
  147.4810  138.4236  154.3205 C   0  0  1  0  0  0  0  0  0  0  0  0
  146.7346  137.3397  153.7674 O   0  0  0  0  0  0  0  0  0  0  0  0
  146.0133  137.7742  152.6228 C   0  0  0  0  0  0  0  0  0  0  0  0
  146.8080  138.9645  152.1025 C   0  0  0  0  0  0  0  0  0  0  0  0
  147.2701  139.6379  153.3867 C   0  0  1  0  0  0  0  0  0  0  0  0
  146.2183  140.4643  153.8617 O   0  0  0  0  0  0  0  0  0  0  0  0
  148.5396  140.5069  153.2222 C   0  0  0  0  0  0  0  0  0  0  0  0
  149.1419  140.8944  154.4887 N   0  0  0  0  0  0  0  0  0  0  0  0
  148.6558  141.8230  155.3812 C   0  0  0  0  0  0  0  0  0  0  0  0
  149.3849  142.0038  156.4482 N   0  0  0  0  0  0  0  0  0  0  0  0
  150.4474  141.1219  156.2881 C   0  0  0  0  0  0  0  0  0  0  0  0
  151.6009  140.7972  157.0577 C   0  0  0  0  0  0  0  0  0  0  0  0
  151.9299  141.3573  158.2407 N   0  0  0  0  0  0  0  0  0  0  0  0
  153.1299  140.7877  158.8325 C   0  0  0  0  0  0  0  0  0  0  0  0
  153.2864  141.2993  160.2718 C   0  0  0  0  0  0  0  0  0  0  0  0
  153.2766  142.7270  160.2915 O   0  0  0  0  0  0  0  0  0  0  0  0
  152.1036  143.3230  159.7260 C   0  0  2  0  0  0  0  0  0  0  0  0
  152.2928  144.8369  159.7573 C   0  0  0  0  0  0  0  0  0  0  0  0
  150.8961  145.3594  160.0569 C   0  0  0  0  0  0  0  0  0  0  0  0
  150.4253  144.4263  161.0109 O   0  0  0  0  0  0  0  0  0  0  0  0
  150.8441  143.1290  160.6035 C   0  0  0  0  0  0  0  0  0  0  0  0
  151.9196  142.8139  158.2767 C   0  0  0  0  0  0  0  0  0  0  0  0
  152.4579  139.8724  156.5605 N   0  0  0  0  0  0  0  0  0  0  0  0
  152.2000  139.2838  155.3889 C   0  0  0  0  0  0  0  0  0  0  0  0
  151.1660  139.4766  154.5672 N   0  0  0  0  0  0  0  0  0  0  0  0
  150.3089  140.4167  155.0592 C   0  0  0  0  0  0  0  0  0  0  0  0
  147.6875  139.4589  156.2296 H   0  0  0  0  0  0  0  0  0  0  0  0
  147.3737  137.7330  156.3809 H   0  0  0  0  0  0  0  0  0  0  0  0
  146.0660  138.8217  155.9426 H   0  0  0  0  0  0  0  0  0  0  0  0
  148.5251  138.1137  154.2603 H   0  0  0  0  0  0  0  0  0  0  0  0
  145.9146  136.9781  151.8848 H   0  0  0  0  0  0  0  0  0  0  0  0
  145.0123  138.0831  152.9277 H   0  0  0  0  0  0  0  0  0  0  0  0
  147.6671  138.5978  151.5395 H   0  0  0  0  0  0  0  0  0  0  0  0
  146.2291  139.6149  151.4452 H   0  0  0  0  0  0  0  0  0  0  0  0
  145.4721  140.3548  153.2925 H   0  0  0  0  0  0  0  0  0  0  0  0
  149.2879  139.9728  152.6349 H   0  0  0  0  0  0  0  0  0  0  0  0
  148.3075  141.4153  152.6648 H   0  0  0  0  0  0  0  0  0  0  0  0
  147.7410  142.3720  155.2099 H   0  0  0  0  0  0  0  0  0  0  0  0
  153.0734  139.6982  158.8270 H   0  0  0  0  0  0  0  0  0  0  0  0
  153.9996  141.0701  158.2374 H   0  0  0  0  0  0  0  0  0  0  0  0
  152.4959  140.8990  160.9067 H   0  0  0  0  0  0  0  0  0  0  0  0
  154.2293  140.9492  160.6916 H   0  0  0  0  0  0  0  0  0  0  0  0
  152.9564  145.1157  160.5775 H   0  0  0  0  0  0  0  0  0  0  0  0
  152.7139  145.2479  158.8391 H   0  0  0  0  0  0  0  0  0  0  0  0
  150.8999  146.3749  160.4533 H   0  0  0  0  0  0  0  0  0  0  0  0
  150.2649  145.3336  159.1673 H   0  0  0  0  0  0  0  0  0  0  0  0
  150.0379  142.6546  160.0425 H   0  0  0  0  0  0  0  0  0  0  0  0
  151.0292  142.5241  161.4905 H   0  0  0  0  0  0  0  0  0  0  0  0
  152.7331  143.1942  157.6592 H   0  0  0  0  0  0  0  0  0  0  0  0
  150.9897  143.1927  157.8497 H   0  0  0  0  0  0  0  0  0  0  0  0
  152.9276  138.5555  155.0617 H   0  0  0  0  0  0  0  0  0  0  0  0
  1  2  1  0  0  0  0
  1 28  1  0  0  0  0
  1 29  1  0  0  0  0
  1 30  1  0  0  0  0
  2  6  1  0  0  0  0
  2  3  1  0  0  0  0
  2 31  1  0  0  0  0
  3  4  1  0  0  0  0
  4  5  1  0  0  0  0
  4 32  1  0  0  0  0
  4 33  1  0  0  0  0
  5  6  1  0  0  0  0
  5 34  1  0  0  0  0
  5 35  1  0  0  0  0
  6  7  1  0  0  0  0
  6  8  1  0  0  0  0
  7 36  1  0  0  0  0
  8  9  1  0  0  0  0
  8 37  1  0  0  0  0
  8 38  1  0  0  0  0
  9 27  1  0  0  0  0
  9 10  1  0  0  0  0
 10 11  2  0  0  0  0
 10 39  1  0  0  0  0
 11 12  1  0  0  0  0
 12 27  2  0  0  0  0
 12 13  1  0  0  0  0
 13 14  1  0  0  0  0
 13 24  2  0  0  0  0
 14 23  1  0  0  0  0
 14 15  1  0  0  0  0
 15 16  1  0  0  0  0
 15 40  1  0  0  0  0
 15 41  1  0  0  0  0
 16 17  1  0  0  0  0
 16 42  1  0  0  0  0
 16 43  1  0  0  0  0
 17 18  1  0  0  0  0
 18 22  1  0  0  0  0
 18 19  1  0  0  0  0
 18 23  1  0  0  0  0
 19 20  1  0  0  0  0
 19 44  1  0  0  0  0
 19 45  1  0  0  0  0
 20 21  1  0  0  0  0
 20 46  1  0  0  0  0
 20 47  1  0  0  0  0
 21 22  1  0  0  0  0
 22 48  1  0  0  0  0
 22 49  1  0  0  0  0
 23 50  1  0  0  0  0
 23 51  1  0  0  0  0
 24 25  1  0  0  0  0
 25 26  2  0  0  0  0
 25 52  1  0  0  0  0
 26 27  1  0  0  0  0
M  END
> <s_m_source_file>
AV-unprocessed.smi

> <i_m_source_file_index>
264

> <i_lp_mmshare_version>
43012

> <i_f3d_flags>
0

> <s_epik_input>
W0NIMl0xW0NIMl1PW0NAQEhdKFtDSDNdKVtDQEBdMShbT0hdKVtDSDJdbihbY0hdbjIpYyhjMjMpbltjSF1uYzNOKFtDSDJdNClbQ0gyXVtDSDJdT1tDQF00NVtDSDJdW0NIMl1PW0NIMl01

> <s_epik_cmdline>
J2VwaWtfcHl0aG9uJywgJy1waCcsICc3LjAnLCAnLXRuJywgJzgnLCAnLW1hJywgJzIwMCcsICctbWV0YWxfYmluZGluZycsICctaW1hZScsICc8aW5maWxlLm1hZT4nLCAnLW9tYWUnLCAnPG91dGZpbGUubWFlPic=

> <r_lp_tautomer_probability>
1

> <r_epik_Ionization_Penalty>
0.00539389

> <r_epik_Ionization_Penalty_Charging>
0

> <r_epik_Ionization_Penalty_Neutral>
0.00539389

> <r_epik_State_Penalty>
0.00375441

> <r_epik_Charging_Adjusted_Penalty>
0.00375441

> <i_epik_Tot_Q>
0

> <i_epik_Tot_abs_Q>
0

> <r_epik_Metal_State_Penalty>
-0

> <b_epik_Metal_Only>
0

> <s_lp_Force_Field>
OPLS_2005

> <r_lp_Energy>
56.7772

> <b_lp_Chiralities_Consistent>
1

> <s_lp_Variant>
AV-unprocessed.smi:264-6

> <Gold.Version>
5.8.1

> <Gold.Id.Protein>
6NUR|6NUR_protein|mol2

> <Gold.PLP.Fitness>
46.6666

> <Gold.PLP.PLP>
-40.1839

> <Gold.PLP.part.hbond>
-3.5366

> <Gold.PLP.part.metal>
0.0000

> <Gold.PLP.part.buried>
6.0554

> <Gold.PLP.part.nonpolar>
-44.0373

> <Gold.PLP.part.repulsive>
2.2232

> <Gold.PLP.ligand.clash>
0.0000

> <Gold.PLP.ligand.torsion>
0.3377

> <Gold.PLP.Chemscore.Hbond>
2.1500

> <Gold.PLP.Chemscore.CHOScore>
0.1807

> <Gold.PLP.Chemscore.Metal>
0.0000

> <Gold.Chemscore.Hbonds>
donor molecule, donor type, donor heavy atom, donor atom, acceptor molecule, acceptor atom, score
      L1  H     7    36       P1 10175  1.00
      P1  H  7989  7998       L1    26  0.10
      P1  H  7997  8008       L1    24  1.00
      L1  C    10    39       P1  8028  0.22

> <Gold.PLP.Chemscore.Internal.Correction>
0.1661

> <Gold.Rescore>
     Score         DG    S(hbond)    S(metal)    S(lipo)     H(rot)  DE(clash)    DE(int)     intcor
     13.71     -17.22       1.32        0.00     108.87       2.11       3.22       0.29       ----

> <Gold.Chemscore.Fitness>
13.7097

> <Gold.Chemscore.DG>
-17.2217

> <Gold.Chemscore.ZeroCoef>
-5.4800

> <Gold.Chemscore.Hbond>
1.3161

> <Gold.Chemscore.Metal>
0.0000

> <Gold.Chemscore.Lipo>
108.8733

> <Gold.Chemscore.Internal_Hbond>
0.0000

> <Gold.Chemscore.DEClash>
3.2194

> <Gold.Chemscore.DEInternal>
0.2927

> <Gold.Chemscore.Rot>
2.1063

> <Gold.Chemscore.Internal.Correction>
   9.000000E+99

> <Gold.Chemscore.Hbonds>
donor molecule, donor type, donor heavy atom, donor atom, acceptor molecule, acceptor atom, score
      L1  H     7    36       P1 10175  0.97
      P1  H  7997  8008       L1    24  0.34

> <Gold.Chemscore.Hbond.Weighted>
-4.3957

> <Gold.Chemscore.Metal.Weighted>
-0.0000

> <Gold.Chemscore.Lipo.Weighted>
-12.7382

> <Gold.Chemscore.Internal_Hbond.Weighted>
0.0000

> <Gold.Chemscore.DEClash.Weighted>
3.2194

> <Gold.Chemscore.DEInternal.Weighted>
0.2927

> <Gold.Chemscore.Rot.Weighted>
5.3921

> <Gold.Chemscore.Internal.Correction.Weighted>
   9.000000E+99

> <Gold.Protein.RotatedTorsions>
[ 6907 6896 6895 6894 ] final  165.39 input  -60.11 | X-H torsion
[ 7974 7965 7964 7962 ] final   12.20 input  175.53 | X-H torsion
[ 8008 7997 7996 7995 ] final  -51.43 input   59.86 | X-H torsion
[ 10167 10162 10161 10158 ] final   94.98 input  -65.29 | X-H torsion
[ 10718 10713 10712 10709 ] final  -11.30 input   66.30 | X-H torsion
[ 10763 10752 10751 10750 ] final   51.73 input  -60.55 | X-H torsion
[ 11005 11000 10999 10996 ] final -123.93 input  -57.11 | X-H torsion

> <Gold.Protein.ActiveResidues>
 VAL166  LYS551  ARG553  GLY616  TRP617  ASP618  TYR619  PRO620  LYS621  CYS622 
 ASP623  PHE694  ASN695  SER759  ASP760  ASP761  ALA762  ILE779  LEU786  VAL792 
 PHE793  MET794  SER795  GLU796  ALA797  LYS798  CYS799  TRP800  GLU811  SER814 

> <Gold.Protein.RotatedAtoms>
  151.8951  133.3525  159.3811 H   0  0  0  0  0  0  0  0  0  0  0  0  # atno 6907 bound_to 6896
  150.7093  134.4885  159.5513 H   0  0  0  0  0  0  0  0  0  0  0  0  # atno 6908 bound_to 6896
  152.2462  134.8179  160.0504 H   0  0  0  0  0  0  0  0  0  0  0  0  # atno 6909 bound_to 6896
  146.2356  139.9372  142.8488 H   0  0  0  0  0  0  0  0  0  0  0  0  # atno 7974 bound_to 7965
  154.4083  140.1248  156.4828 H   0  0  0  0  0  0  0  0  0  0  0  0  # atno 8008 bound_to 7997
  155.7068  140.3494  155.4937 H   0  0  0  0  0  0  0  0  0  0  0  0  # atno 8009 bound_to 7997
  155.9336  140.1074  157.1102 H   0  0  0  0  0  0  0  0  0  0  0  0  # atno 8010 bound_to 7997
  139.8032  144.6805  150.9737 H   0  0  0  0  0  0  0  0  0  0  0  0  # atno 10167 bound_to 10162
  156.6610  130.4982  149.6030 H   0  0  0  0  0  0  0  0  0  0  0  0  # atno 10718 bound_to 10713
  152.9786  135.5836  154.4463 H   0  0  0  0  0  0  0  0  0  0  0  0  # atno 10763 bound_to 10752
  154.4058  135.2769  155.2070 H   0  0  0  0  0  0  0  0  0  0  0  0  # atno 10764 bound_to 10752
  154.3881  135.6131  153.5882 H   0  0  0  0  0  0  0  0  0  0  0  0  # atno 10765 bound_to 10752
  140.9881  134.0578  157.3687 H   0  0  0  0  0  0  0  0  0  0  0  0  # atno 11005 bound_to 11000
  145.1987  140.9845  143.4168 LP  0  0  0  0  0  0  0  0  0  0  0  0  # atno 17320 bound_to 7965
  144.9792  139.3800  143.6270 LP  0  0  0  0  0  0  0  0  0  0  0  0  # atno 17321 bound_to 7965
  140.7820  143.4260  151.0767 LP  0  0  0  0  0  0  0  0  0  0  0  0  # atno 17342 bound_to 10162
  139.7931  143.8190  152.3154 LP  0  0  0  0  0  0  0  0  0  0  0  0  # atno 17343 bound_to 10162
  156.2011  130.6620  151.1168 LP  0  0  0  0  0  0  0  0  0  0  0  0  # atno 17370 bound_to 10713
  157.7109  131.0734  150.6502 LP  0  0  0  0  0  0  0  0  0  0  0  0  # atno 17371 bound_to 10713
  139.8979  135.0152  156.7125 LP  0  0  0  0  0  0  0  0  0  0  0  0  # atno 17394 bound_to 11000
  140.7083  133.9245  155.8068 LP  0  0  0  0  0  0  0  0  0  0  0  0  # atno 17395 bound_to 11000

$$$$
