AV-unprocessed.smi:3232|AV-procd|sdf|12341|dock7
  -GOLD-   2272018203D 1   1.00000     0.00000
 Structure written by MMmdl.
 40 41  0  0  0  0  0  0  0  0  2 V2000
  144.3175  131.9508  150.5339 C   0  0  0  0  0  0  0  0  0  0  0  0
  145.7497  131.7577  150.0159 C   0  0  0  0  0  0  0  0  0  0  0  0
  146.7662  131.9730  151.0756 N   0  3  2  0  0  0  0  0  0  0  0  0
  146.5241  131.2205  152.3272 C   0  0  0  0  0  0  0  0  0  0  0  0
  147.1985  132.0175  153.4528 C   0  0  0  0  0  0  0  0  0  0  0  0
  147.9138  133.1676  152.7448 C   0  0  0  0  0  0  0  0  0  0  0  0
  147.1069  133.3675  151.4553 C   0  0  2  0  0  0  0  0  0  0  0  0
  145.8614  134.2759  151.6383 C   0  0  0  0  0  0  0  0  0  0  0  0
  146.2172  135.6309  152.0491 N   0  0  0  0  0  0  0  0  0  0  0  0
  145.3497  136.5800  152.4368 C   0  0  0  0  0  0  0  0  0  0  0  0
  144.1343  136.3932  152.5039 O   0  0  0  0  0  0  0  0  0  0  0  0
  145.9509  137.9433  152.8083 C   0  0  2  0  0  0  0  0  0  0  0  0
  146.6353  138.6243  151.6060 C   0  0  0  0  0  0  0  0  0  0  0  0
  146.8445  137.8014  153.9512 N   0  0  0  0  0  0  0  0  0  0  0  0
  148.0721  138.2893  154.1442 C   0  0  0  0  0  0  0  0  0  0  0  0
  148.5845  138.0066  155.3336 N   0  0  0  0  0  0  0  0  0  0  0  0
  147.5432  137.3024  155.8683 C   0  0  0  0  0  0  0  0  0  0  0  0
  146.4725  137.1602  155.0875 N   0  0  0  0  0  0  0  0  0  0  0  0
  143.5991  131.8635  149.7186 H   0  0  0  0  0  0  0  0  0  0  0  0
  144.1900  132.9371  150.9811 H   0  0  0  0  0  0  0  0  0  0  0  0
  144.0531  131.2054  151.2839 H   0  0  0  0  0  0  0  0  0  0  0  0
  145.8677  130.7781  149.5519 H   0  0  0  0  0  0  0  0  0  0  0  0
  145.9291  132.4877  149.2254 H   0  0  0  0  0  0  0  0  0  0  0  0
  145.4546  131.1307  152.5246 H   0  0  0  0  0  0  0  0  0  0  0  0
  146.9336  130.2139  152.2390 H   0  0  0  0  0  0  0  0  0  0  0  0
  146.4417  132.4114  154.1330 H   0  0  0  0  0  0  0  0  0  0  0  0
  147.8861  131.4087  154.0406 H   0  0  0  0  0  0  0  0  0  0  0  0
  148.0068  134.0568  153.3668 H   0  0  0  0  0  0  0  0  0  0  0  0
  148.9268  132.8536  152.4886 H   0  0  0  0  0  0  0  0  0  0  0  0
  147.7456  133.8018  150.6850 H   0  0  0  0  0  0  0  0  0  0  0  0
  145.3280  134.3818  150.6945 H   0  0  0  0  0  0  0  0  0  0  0  0
  145.1518  133.8275  152.3359 H   0  0  0  0  0  0  0  0  0  0  0  0
  147.1979  135.8710  152.0249 H   0  0  0  0  0  0  0  0  0  0  0  0
  145.1338  138.5951  153.1230 H   0  0  0  0  0  0  0  0  0  0  0  0
  145.9322  138.7664  150.7845 H   0  0  0  0  0  0  0  0  0  0  0  0
  147.4741  138.0412  151.2236 H   0  0  0  0  0  0  0  0  0  0  0  0
  147.0163  139.6077  151.8819 H   0  0  0  0  0  0  0  0  0  0  0  0
  148.6006  138.8666  153.3998 H   0  0  0  0  0  0  0  0  0  0  0  0
  147.5720  136.8886  156.8655 H   0  0  0  0  0  0  0  0  0  0  0  0
  147.6274  131.5899  150.7125 H   0  0  0  0  0  0  0  0  0  0  0  0
  1  2  1  0  0  0  0
  1 19  1  0  0  0  0
  1 20  1  0  0  0  0
  1 21  1  0  0  0  0
  2  3  1  0  0  0  0
  2 22  1  0  0  0  0
  2 23  1  0  0  0  0
  3  7  1  0  0  0  0
  3  4  1  0  0  0  0
  3 40  1  0  0  0  0
  4  5  1  0  0  0  0
  4 24  1  0  0  0  0
  4 25  1  0  0  0  0
  5  6  1  0  0  0  0
  5 26  1  0  0  0  0
  5 27  1  0  0  0  0
  6  7  1  0  0  0  0
  6 28  1  0  0  0  0
  6 29  1  0  0  0  0
  7  8  1  0  0  0  0
  7 30  1  0  0  0  0
  8  9  1  0  0  0  0
  8 31  1  0  0  0  0
  8 32  1  0  0  0  0
  9 10  1  0  0  0  0
  9 33  1  0  0  0  0
 10 11  2  0  0  0  0
 10 12  1  0  0  0  0
 12 13  1  0  0  0  0
 12 14  1  0  0  0  0
 12 34  1  0  0  0  0
 13 35  1  0  0  0  0
 13 36  1  0  0  0  0
 13 37  1  0  0  0  0
 14 18  1  0  0  0  0
 14 15  1  0  0  0  0
 15 16  2  0  0  0  0
 15 38  1  0  0  0  0
 16 17  1  0  0  0  0
 17 18  2  0  0  0  0
 17 39  1  0  0  0  0
M  CHG  1   3   1
M  END
> <s_m_source_file>
AV-unprocessed.smi

> <i_m_source_file_index>
3232

> <i_lp_mmshare_version>
43012

> <i_f3d_flags>
0

> <s_epik_input>
W0NIM11bQ0gyXU4xW0NIMl1bQ0gyXVtDSDJdW0NASF0xW0NIMl1bTkhdQyg9TylbQ0BIXShbQ0gzXSluMltjSF1uW2NIXW4y

> <s_epik_cmdline>
J2VwaWtfcHl0aG9uJywgJy1waCcsICc3LjAnLCAnLXRuJywgJzgnLCAnLW1hJywgJzIwMCcsICctbWV0YWxfYmluZGluZycsICctaW1hZScsICc8aW5maWxlLm1hZT4nLCAnLW9tYWUnLCAnPG91dGZpbGUubWFlPic=

> <r_lp_tautomer_probability>
1

> <r_epik_Ionization_Penalty>
0.00177695

> <r_epik_Ionization_Penalty_Charging>
0.00176881

> <r_epik_Ionization_Penalty_Neutral>
8.13528e-06

> <r_epik_State_Penalty>
0.00119827

> <r_epik_Charging_Adjusted_Penalty>
0.00296709

> <i_epik_Tot_Q>
1

> <i_epik_Tot_abs_Q>
1

> <r_epik_Metal_State_Penalty>
-0

> <b_epik_Metal_Only>
0

> <s_lp_Force_Field>
OPLS_2005

> <r_lp_Energy>
38.6691

> <b_lp_Chiralities_Consistent>
1

> <s_lp_Variant>
AV-unprocessed.smi:3232-3

> <Gold.Version>
5.8.1

> <Gold.Id.Protein>
6NUR|6NUR_protein|mol2

> <Gold.PLP.Fitness>
36.9113

> <Gold.PLP.PLP>
-28.4145

> <Gold.PLP.part.hbond>
-2.0000

> <Gold.PLP.part.metal>
0.0000

> <Gold.PLP.part.buried>
-1.0594

> <Gold.PLP.part.nonpolar>
-25.2060

> <Gold.PLP.part.repulsive>
0.3956

> <Gold.PLP.ligand.clash>
0.0000

> <Gold.PLP.ligand.torsion>
0.3186

> <Gold.PLP.Chemscore.Hbond>
2.0000

> <Gold.PLP.Chemscore.CHOScore>
1.0000

> <Gold.PLP.Chemscore.Metal>
0.0000

> <Gold.Chemscore.Hbonds>
donor molecule, donor type, donor heavy atom, donor atom, acceptor molecule, acceptor atom, score
      L1  H     3    40       P1 10747  1.00
      L1  H     9    33       P1  7948  1.00
      L1  C    15    38       P1  7957  0.54

> <Gold.PLP.Chemscore.Internal.Correction>
0.1340

> <Gold.Rescore>
     Score         DG    S(hbond)    S(metal)    S(lipo)     H(rot)  DE(clash)    DE(int)     intcor
     13.54     -13.91       2.00        0.00      69.43       2.49       0.07       0.30       ----

> <Gold.Chemscore.Fitness>
13.5403

> <Gold.Chemscore.DG>
-13.9068

> <Gold.Chemscore.ZeroCoef>
-5.4800

> <Gold.Chemscore.Hbond>
1.9981

> <Gold.Chemscore.Metal>
0.0000

> <Gold.Chemscore.Lipo>
69.4262

> <Gold.Chemscore.Internal_Hbond>
0.0000

> <Gold.Chemscore.DEClash>
0.0673

> <Gold.Chemscore.DEInternal>
0.2993

> <Gold.Chemscore.Rot>
2.4882

> <Gold.Chemscore.Internal.Correction>
   9.000000E+99

> <Gold.Chemscore.Hbonds>
donor molecule, donor type, donor heavy atom, donor atom, acceptor molecule, acceptor atom, score
      L1  H     3    40       P1 10747  0.98
      L1  H     9    33       P1  7948  1.00

> <Gold.Chemscore.Hbond.Weighted>
-6.6737

> <Gold.Chemscore.Metal.Weighted>
-0.0000

> <Gold.Chemscore.Lipo.Weighted>
-8.1229

> <Gold.Chemscore.Internal_Hbond.Weighted>
0.0000

> <Gold.Chemscore.DEClash.Weighted>
0.0673

> <Gold.Chemscore.DEInternal.Weighted>
0.2993

> <Gold.Chemscore.Rot.Weighted>
6.3697

> <Gold.Chemscore.Internal.Correction.Weighted>
   9.000000E+99

> <Gold.Protein.RotatedTorsions>
[ 6907 6896 6895 6894 ] final -144.76 input  -60.11 | X-H torsion
[ 7974 7965 7964 7962 ] final  112.10 input  175.53 | X-H torsion
[ 8008 7997 7996 7995 ] final -121.86 input   59.86 | X-H torsion
[ 10167 10162 10161 10158 ] final   68.75 input  -65.29 | X-H torsion
[ 10718 10713 10712 10709 ] final   21.96 input   66.30 | X-H torsion
[ 10763 10752 10751 10750 ] final   52.51 input  -60.55 | X-H torsion
[ 11005 11000 10999 10996 ] final  165.52 input  -57.11 | X-H torsion

> <Gold.Protein.ActiveResidues>
 VAL166  LYS551  ARG553  GLY616  TRP617  ASP618  TYR619  PRO620  LYS621  CYS622 
 ASP623  PHE694  ASN695  SER759  ASP760  ASP761  ALA762  ILE779  LEU786  VAL792 
 PHE793  MET794  SER795  GLU796  ALA797  LYS798  CYS799  TRP800  GLU811  SER814 

> <Gold.Protein.RotatedAtoms>
  151.1185  133.5121  159.2602 H   0  0  0  0  0  0  0  0  0  0  0  0  # atno 6907 bound_to 6896
  151.1888  135.0393  159.8834 H   0  0  0  0  0  0  0  0  0  0  0  0  # atno 6908 bound_to 6896
  152.5454  134.1027  159.8378 H   0  0  0  0  0  0  0  0  0  0  0  0  # atno 6909 bound_to 6896
  145.2338  139.2808  143.4154 H   0  0  0  0  0  0  0  0  0  0  0  0  # atno 7974 bound_to 7965
  155.1548  140.0404  157.2829 H   0  0  0  0  0  0  0  0  0  0  0  0  # atno 8008 bound_to 7997
  154.6378  140.2540  155.7330 H   0  0  0  0  0  0  0  0  0  0  0  0  # atno 8009 bound_to 7997
  156.2517  140.2862  156.0759 H   0  0  0  0  0  0  0  0  0  0  0  0  # atno 8010 bound_to 7997
  140.0752  144.5118  150.7199 H   0  0  0  0  0  0  0  0  0  0  0  0  # atno 10167 bound_to 10162
  157.1458  130.6652  149.5995 H   0  0  0  0  0  0  0  0  0  0  0  0  # atno 10718 bound_to 10713
  152.9789  135.5810  154.4590 H   0  0  0  0  0  0  0  0  0  0  0  0  # atno 10763 bound_to 10752
  154.4169  135.2771  155.2003 H   0  0  0  0  0  0  0  0  0  0  0  0  # atno 10764 bound_to 10752
  154.3768  135.6155  153.5823 H   0  0  0  0  0  0  0  0  0  0  0  0  # atno 10765 bound_to 10752
  140.2569  134.7933  157.3554 H   0  0  0  0  0  0  0  0  0  0  0  0  # atno 11005 bound_to 11000
  146.3346  140.2680  142.8604 LP  0  0  0  0  0  0  0  0  0  0  0  0  # atno 17320 bound_to 7965
  144.9652  140.8315  143.5489 LP  0  0  0  0  0  0  0  0  0  0  0  0  # atno 17321 bound_to 7965
  140.7105  143.2501  151.4594 LP  0  0  0  0  0  0  0  0  0  0  0  0  # atno 17342 bound_to 10162
  139.5812  144.1706  152.1970 LP  0  0  0  0  0  0  0  0  0  0  0  0  # atno 17343 bound_to 10162
  155.9780  130.4762  150.6627 LP  0  0  0  0  0  0  0  0  0  0  0  0  # atno 17370 bound_to 10713
  157.4266  131.0844  151.1080 LP  0  0  0  0  0  0  0  0  0  0  0  0  # atno 17371 bound_to 10713
  140.1502  134.4859  155.7966 LP  0  0  0  0  0  0  0  0  0  0  0  0  # atno 17394 bound_to 11000
  141.2195  133.6859  156.7366 LP  0  0  0  0  0  0  0  0  0  0  0  0  # atno 17395 bound_to 11000

$$$$
