AV-unprocessed.smi:1180|AV-procd|sdf|4962|dock6
  -GOLD-   22720 3553D 1   1.00000     0.00000
 Structure written by MMmdl.
 38 39  0  0  0  0  0  0  0  0  1 V2000
  151.0658  142.6239  157.2356 C   0  0  0  0  0  0  0  0  0  0  0  0
  150.4443  141.7058  156.2057 C   0  0  0  0  0  0  0  0  0  0  0  0
  149.2855  142.2094  155.6377 N   0  0  0  0  0  0  0  0  0  0  0  0
  148.6431  141.4384  154.6851 C   0  0  0  0  0  0  0  0  0  0  0  0
  147.3812  142.0620  154.1150 C   0  0  0  0  0  0  0  0  0  0  0  0
  149.1343  140.2292  154.3124 C   0  0  0  0  0  0  0  0  0  0  0  0
  148.4628  139.3492  153.2585 C   0  0  0  0  0  0  0  0  0  0  0  0
  147.0767  138.8037  153.6139 C   0  0  0  0  0  0  0  0  0  0  0  0
  146.2523  139.5089  154.1967 O   0  0  0  0  0  0  0  0  0  0  0  0
  146.8334  137.5361  153.2497 N   0  0  0  0  0  0  0  0  0  0  0  0
  145.5791  136.8249  153.4720 C   0  0  0  0  0  0  0  0  0  0  0  0
  145.0303  136.1962  152.1765 C   0  0  2  0  0  0  0  0  0  0  0  0
  143.7048  135.4654  152.3555 C   0  0  0  0  0  0  0  0  0  0  0  0
  143.8207  134.2370  151.4462 C   0  0  0  0  0  0  0  0  0  0  0  0
  145.0308  134.4116  150.7224 O   0  0  0  0  0  0  0  0  0  0  0  0
  145.9256  135.1229  151.5595 C   0  0  0  0  0  0  0  0  0  0  0  0
  150.3840  139.7483  154.9475 C   0  0  0  0  0  0  0  0  0  0  0  0
  150.8881  138.6690  154.6394 O   0  0  0  0  0  0  0  0  0  0  0  0
  150.9910  140.5642  155.9163 N   0  0  0  0  0  0  0  0  0  0  0  0
  148.8881  143.1048  155.8828 H   0  0  0  0  0  0  0  0  0  0  0  0
  151.8575  142.1135  157.7854 H   0  0  0  0  0  0  0  0  0  0  0  0
  150.3161  142.9599  157.9528 H   0  0  0  0  0  0  0  0  0  0  0  0
  151.4976  143.4987  156.7486 H   0  0  0  0  0  0  0  0  0  0  0  0
  146.5126  141.4465  154.3502 H   0  0  0  0  0  0  0  0  0  0  0  0
  147.4563  142.1537  153.0313 H   0  0  0  0  0  0  0  0  0  0  0  0
  147.2057  143.0582  154.5233 H   0  0  0  0  0  0  0  0  0  0  0  0
  149.1088  138.4959  153.0521 H   0  0  0  0  0  0  0  0  0  0  0  0
  148.3979  139.8833  152.3095 H   0  0  0  0  0  0  0  0  0  0  0  0
  147.5673  137.0292  152.7762 H   0  0  0  0  0  0  0  0  0  0  0  0
  145.7617  136.0489  154.2161 H   0  0  0  0  0  0  0  0  0  0  0  0
  144.8407  137.5004  153.9071 H   0  0  0  0  0  0  0  0  0  0  0  0
  144.8812  136.9770  151.4288 H   0  0  0  0  0  0  0  0  0  0  0  0
  143.5481  135.1520  153.3885 H   0  0  0  0  0  0  0  0  0  0  0  0
  142.8663  136.1027  152.0721 H   0  0  0  0  0  0  0  0  0  0  0  0
  143.8876  133.3257  152.0421 H   0  0  0  0  0  0  0  0  0  0  0  0
  142.9729  134.1370  150.7681 H   0  0  0  0  0  0  0  0  0  0  0  0
  146.7575  135.5420  150.9929 H   0  0  0  0  0  0  0  0  0  0  0  0
  146.3273  134.4527  152.3214 H   0  0  0  0  0  0  0  0  0  0  0  0
  1 21  1  0  0  0  0
  1 22  1  0  0  0  0
  1 23  1  0  0  0  0
  1  2  1  0  0  0  0
  2  3  1  0  0  0  0
  2 19  2  0  0  0  0
  3  4  1  0  0  0  0
  3 20  1  0  0  0  0
  4  6  2  0  0  0  0
  4  5  1  0  0  0  0
  5 24  1  0  0  0  0
  5 25  1  0  0  0  0
  5 26  1  0  0  0  0
  6 17  1  0  0  0  0
  6  7  1  0  0  0  0
  7  8  1  0  0  0  0
  7 27  1  0  0  0  0
  7 28  1  0  0  0  0
  8  9  2  0  0  0  0
  8 10  1  0  0  0  0
 10 11  1  0  0  0  0
 10 29  1  0  0  0  0
 11 12  1  0  0  0  0
 11 30  1  0  0  0  0
 11 31  1  0  0  0  0
 12 16  1  0  0  0  0
 12 13  1  0  0  0  0
 12 32  1  0  0  0  0
 13 14  1  0  0  0  0
 13 33  1  0  0  0  0
 13 34  1  0  0  0  0
 14 15  1  0  0  0  0
 14 35  1  0  0  0  0
 14 36  1  0  0  0  0
 15 16  1  0  0  0  0
 16 37  1  0  0  0  0
 16 38  1  0  0  0  0
 17 18  2  0  0  0  0
 17 19  1  0  0  0  0
M  END
> <s_m_source_file>
AV-unprocessed.smi

> <i_m_source_file_index>
1180

> <i_lp_mmshare_version>
43012

> <i_f3d_flags>
0

> <s_epik_input>
W0NIM11jMW5jKFtDSDNdKWMoYyg9TylbbkhdMSlbQ0gyXUMoPU8pW05IXVtDSDJdW0NAQEhdMltDSDJdW0NIMl1PW0NIMl0y

> <s_epik_cmdline>
J2VwaWtfcHl0aG9uJywgJy1waCcsICc3LjAnLCAnLXRuJywgJzgnLCAnLW1hJywgJzIwMCcsICctbWV0YWxfYmluZGluZycsICctaW1hZScsICc8aW5maWxlLm1hZT4nLCAnLW9tYWUnLCAnPG91dGZpbGUubWFlPic=

> <r_lp_tautomer_probability>
0.156392

> <r_epik_Ionization_Penalty>
0.014237

> <r_epik_Ionization_Penalty_Charging>
0.0141173

> <r_epik_Ionization_Penalty_Neutral>
0.000119724

> <r_epik_State_Penalty>
1.52876

> <r_epik_Charging_Adjusted_Penalty>
1.54288

> <i_epik_Tot_Q>
0

> <i_epik_Tot_abs_Q>
0

> <r_epik_Metal_State_Penalty>
1.70686

> <b_epik_Metal_Only>
0

> <s_lp_Force_Field>
OPLS_2005

> <r_lp_Energy>
24.076

> <b_lp_Chiralities_Consistent>
1

> <s_lp_Variant>
AV-unprocessed.smi:1180-3

> <Gold.Version>
5.8.1

> <Gold.Id.Protein>
6NUR|6NUR_protein|mol2

> <Gold.PLP.Fitness>
35.0107

> <Gold.PLP.PLP>
-29.6950

> <Gold.PLP.part.hbond>
-2.0000

> <Gold.PLP.part.metal>
0.0000

> <Gold.PLP.part.buried>
-1.1478

> <Gold.PLP.part.nonpolar>
-27.3581

> <Gold.PLP.part.repulsive>
0.6429

> <Gold.PLP.ligand.clash>
0.0000

> <Gold.PLP.ligand.torsion>
0.3333

> <Gold.PLP.Chemscore.Hbond>
1.9920

> <Gold.PLP.Chemscore.CHOScore>
0.0000

> <Gold.PLP.Chemscore.Metal>
0.0000

> <Gold.Chemscore.Hbonds>
donor molecule, donor type, donor heavy atom, donor atom, acceptor molecule, acceptor atom, score
      L1  H     3    20       P1  8028  0.96
      L1  H    10    29       P1  7948  1.00

> <Gold.PLP.Chemscore.Internal.Correction>
0.0062

> <Gold.Rescore>
     Score         DG    S(hbond)    S(metal)    S(lipo)     H(rot)  DE(clash)    DE(int)     intcor
     11.45     -14.61       1.98        0.00      61.04       1.81       1.58       1.57       ----

> <Gold.Chemscore.Fitness>
11.4495

> <Gold.Chemscore.DG>
-14.6064

> <Gold.Chemscore.ZeroCoef>
-5.4800

> <Gold.Chemscore.Hbond>
1.9790

> <Gold.Chemscore.Metal>
0.0000

> <Gold.Chemscore.Lipo>
61.0365

> <Gold.Chemscore.Internal_Hbond>
0.0000

> <Gold.Chemscore.DEClash>
1.5847

> <Gold.Chemscore.DEInternal>
1.5722

> <Gold.Chemscore.Rot>
1.8065

> <Gold.Chemscore.Internal.Correction>
   9.000000E+99

> <Gold.Chemscore.Hbonds>
donor molecule, donor type, donor heavy atom, donor atom, acceptor molecule, acceptor atom, score
      L1  H     3    20       P1  8028  0.92
      L1  H    10    29       P1  7948  1.00

> <Gold.Chemscore.Hbond.Weighted>
-6.6097

> <Gold.Chemscore.Metal.Weighted>
-0.0000

> <Gold.Chemscore.Lipo.Weighted>
-7.1413

> <Gold.Chemscore.Internal_Hbond.Weighted>
0.0000

> <Gold.Chemscore.DEClash.Weighted>
1.5847

> <Gold.Chemscore.DEInternal.Weighted>
1.5722

> <Gold.Chemscore.Rot.Weighted>
4.6246

> <Gold.Chemscore.Internal.Correction.Weighted>
   9.000000E+99

> <Gold.Protein.RotatedTorsions>
[ 6907 6896 6895 6894 ] final  105.50 input  -60.11 | X-H torsion
[ 7974 7965 7964 7962 ] final  151.76 input  175.53 | X-H torsion
[ 8008 7997 7996 7995 ] final  -59.02 input   59.86 | X-H torsion
[ 10167 10162 10161 10158 ] final  113.44 input  -65.29 | X-H torsion
[ 10718 10713 10712 10709 ] final    9.58 input   66.30 | X-H torsion
[ 10763 10752 10751 10750 ] final   73.52 input  -60.55 | X-H torsion
[ 11005 11000 10999 10996 ] final -145.46 input  -57.11 | X-H torsion

> <Gold.Protein.ActiveResidues>
 VAL166  LYS551  ARG553  GLY616  TRP617  ASP618  TYR619  PRO620  LYS621  CYS622 
 ASP623  PHE694  ASN695  SER759  ASP760  ASP761  ALA762  ILE779  LEU786  VAL792 
 PHE793  MET794  SER795  GLU796  ALA797  LYS798  CYS799  TRP800  GLU811  SER814 

> <Gold.Protein.RotatedAtoms>
  152.5228  133.9520  159.7676 H   0  0  0  0  0  0  0  0  0  0  0  0  # atno 6907 bound_to 6896
  150.9828  133.6220  159.2727 H   0  0  0  0  0  0  0  0  0  0  0  0  # atno 6908 bound_to 6896
  151.3391  135.0865  159.9418 H   0  0  0  0  0  0  0  0  0  0  0  0  # atno 6909 bound_to 6896
  144.8270  139.6580  143.6076 H   0  0  0  0  0  0  0  0  0  0  0  0  # atno 7974 bound_to 7965
  154.4334  140.1071  156.6049 H   0  0  0  0  0  0  0  0  0  0  0  0  # atno 8008 bound_to 7997
  155.5871  140.3491  155.4537 H   0  0  0  0  0  0  0  0  0  0  0  0  # atno 8009 bound_to 7997
  156.0274  140.1253  157.0283 H   0  0  0  0  0  0  0  0  0  0  0  0  # atno 8010 bound_to 7997
  139.6461  144.7126  151.2139 H   0  0  0  0  0  0  0  0  0  0  0  0  # atno 10167 bound_to 10162
  156.9685  130.5960  149.5667 H   0  0  0  0  0  0  0  0  0  0  0  0  # atno 10718 bound_to 10713
  153.0527  135.5060  154.7906 H   0  0  0  0  0  0  0  0  0  0  0  0  # atno 10763 bound_to 10752
  154.6756  135.2960  154.9685 H   0  0  0  0  0  0  0  0  0  0  0  0  # atno 10764 bound_to 10752
  154.0489  135.6707  153.4851 H   0  0  0  0  0  0  0  0  0  0  0  0  # atno 10765 bound_to 10752
  140.7920  134.2957  157.5010 H   0  0  0  0  0  0  0  0  0  0  0  0  # atno 11005 bound_to 11000
  146.2574  139.6334  142.9385 LP  0  0  0  0  0  0  0  0  0  0  0  0  # atno 17320 bound_to 7965
  145.4979  141.0438  143.2556 LP  0  0  0  0  0  0  0  0  0  0  0  0  # atno 17321 bound_to 7965
  140.7515  143.6228  150.8497 LP  0  0  0  0  0  0  0  0  0  0  0  0  # atno 17342 bound_to 10162
  139.9871  143.5887  152.2923 LP  0  0  0  0  0  0  0  0  0  0  0  0  # atno 17343 bound_to 10162
  156.0293  130.5385  150.8490 LP  0  0  0  0  0  0  0  0  0  0  0  0  # atno 17370 bound_to 10713
  157.5609  131.0946  150.9560 LP  0  0  0  0  0  0  0  0  0  0  0  0  # atno 17371 bound_to 10713
  139.8730  134.9380  156.3702 LP  0  0  0  0  0  0  0  0  0  0  0  0  # atno 17394 bound_to 11000
  140.9380  133.7534  156.0110 LP  0  0  0  0  0  0  0  0  0  0  0  0  # atno 17395 bound_to 11000

$$$$
