AV-unprocessed.smi:1041|AV-procd|sdf|4530|dock5
  -GOLD-   22720 2553D 1   1.00000     0.00000
 Structure written by MMmdl.
 53 54  0  0  0  0  0  0  0  0  2 V2000
  144.3997  132.3413  149.9372 C   0  0  0  0  0  0  0  0  0  0  0  0
  145.7531  132.3454  150.3573 O   0  0  0  0  0  0  0  0  0  0  0  0
  146.2591  133.6565  150.5450 C   0  0  0  0  0  0  0  0  0  0  0  0
  145.9453  134.1127  151.9783 C   0  0  0  0  0  0  0  0  0  0  0  0
  146.4012  135.5003  152.2482 N   0  3  2  0  0  0  0  0  0  0  0  0
  146.1249  135.9187  153.6464 C   0  0  0  0  0  0  0  0  0  0  0  0
  146.7296  137.3001  153.9459 C   0  0  0  0  0  0  0  0  0  0  0  0
  146.2144  138.3665  152.9585 C   0  0  1  0  0  0  0  0  0  0  0  0
  146.8344  139.7543  153.2079 C   0  0  0  0  0  0  0  0  0  0  0  0
  148.2815  139.6619  153.3448 N   0  0  0  0  0  0  0  0  0  0  0  0
  148.9315  139.2879  154.4556 C   0  0  0  0  0  0  0  0  0  0  0  0
  148.3657  138.9174  155.4836 O   0  0  0  0  0  0  0  0  0  0  0  0
  150.4577  139.3554  154.3959 C   0  0  0  0  0  0  0  0  0  0  0  0
  151.1293  139.9039  155.6539 C   0  0  0  0  0  0  0  0  0  0  0  0
  150.7561  141.0706  156.2387 C   0  0  0  0  0  0  0  0  0  0  0  0
  149.6384  141.9643  155.7306 C   0  0  0  0  0  0  0  0  0  0  0  0
  151.3954  141.5401  157.3722 N   0  0  0  0  0  0  0  0  0  0  0  0
  152.4315  140.7833  157.8931 C   0  0  0  0  0  0  0  0  0  0  0  0
  153.0604  141.3857  159.1304 C   0  0  0  0  0  0  0  0  0  0  0  0
  152.8642  139.6606  157.4049 N   0  0  0  0  0  0  0  0  0  0  0  0
  152.2503  139.1413  156.2536 C   0  0  0  0  0  0  0  0  0  0  0  0
  152.6490  138.0875  155.7592 O   0  0  0  0  0  0  0  0  0  0  0  0
  146.4825  137.8860  151.5221 C   0  0  0  0  0  0  0  0  0  0  0  0
  145.8799  136.4933  151.2719 C   0  0  0  0  0  0  0  0  0  0  0  0
  151.0837  142.4116  157.7765 H   0  0  0  0  0  0  0  0  0  0  0  0
  144.0589  131.3143  149.8064 H   0  0  0  0  0  0  0  0  0  0  0  0
  144.2802  132.8592  148.9846 H   0  0  0  0  0  0  0  0  0  0  0  0
  143.7553  132.8173  150.6773 H   0  0  0  0  0  0  0  0  0  0  0  0
  147.3284  133.6903  150.3371 H   0  0  0  0  0  0  0  0  0  0  0  0
  145.7772  134.3346  149.8390 H   0  0  0  0  0  0  0  0  0  0  0  0
  144.8758  134.0336  152.1780 H   0  0  0  0  0  0  0  0  0  0  0  0
  146.4364  133.4222  152.6655 H   0  0  0  0  0  0  0  0  0  0  0  0
  145.0473  135.9339  153.8177 H   0  0  0  0  0  0  0  0  0  0  0  0
  146.5460  135.1898  154.3399 H   0  0  0  0  0  0  0  0  0  0  0  0
  146.4880  137.5795  154.9720 H   0  0  0  0  0  0  0  0  0  0  0  0
  147.8175  137.2413  153.8918 H   0  0  0  0  0  0  0  0  0  0  0  0
  145.1340  138.4542  153.0863 H   0  0  0  0  0  0  0  0  0  0  0  0
  146.5731  140.4278  152.3894 H   0  0  0  0  0  0  0  0  0  0  0  0
  146.4286  140.1914  154.1212 H   0  0  0  0  0  0  0  0  0  0  0  0
  148.8341  139.9392  152.5464 H   0  0  0  0  0  0  0  0  0  0  0  0
  150.8386  138.3527  154.1999 H   0  0  0  0  0  0  0  0  0  0  0  0
  150.7504  139.9350  153.5196 H   0  0  0  0  0  0  0  0  0  0  0  0
  148.6862  141.4345  155.7527 H   0  0  0  0  0  0  0  0  0  0  0  0
  149.8362  142.2768  154.7050 H   0  0  0  0  0  0  0  0  0  0  0  0
  149.5345  142.8637  156.3390 H   0  0  0  0  0  0  0  0  0  0  0  0
  153.8289  140.7276  159.5377 H   0  0  0  0  0  0  0  0  0  0  0  0
  152.3063  141.5460  159.9017 H   0  0  0  0  0  0  0  0  0  0  0  0
  153.5226  142.3441  158.8923 H   0  0  0  0  0  0  0  0  0  0  0  0
  146.0660  138.5973  150.8079 H   0  0  0  0  0  0  0  0  0  0  0  0
  147.5572  137.8560  151.3359 H   0  0  0  0  0  0  0  0  0  0  0  0
  146.1174  136.1874  150.2539 H   0  0  0  0  0  0  0  0  0  0  0  0
  144.7918  136.5381  151.3412 H   0  0  0  0  0  0  0  0  0  0  0  0
  147.4070  135.4907  152.1524 H   0  0  0  0  0  0  0  0  0  0  0  0
  1  2  1  0  0  0  0
  1 26  1  0  0  0  0
  1 27  1  0  0  0  0
  1 28  1  0  0  0  0
  2  3  1  0  0  0  0
  3  4  1  0  0  0  0
  3 29  1  0  0  0  0
  3 30  1  0  0  0  0
  4  5  1  0  0  0  0
  4 31  1  0  0  0  0
  4 32  1  0  0  0  0
  5 24  1  0  0  0  0
  5  6  1  0  0  0  0
  5 53  1  0  0  0  0
  6  7  1  0  0  0  0
  6 33  1  0  0  0  0
  6 34  1  0  0  0  0
  7  8  1  0  0  0  0
  7 35  1  0  0  0  0
  7 36  1  0  0  0  0
  8  9  1  0  0  0  0
  8 23  1  0  0  0  0
  8 37  1  0  0  0  0
  9 10  1  0  0  0  0
  9 38  1  0  0  0  0
  9 39  1  0  0  0  0
 10 11  1  0  0  0  0
 10 40  1  0  0  0  0
 11 12  2  0  0  0  0
 11 13  1  0  0  0  0
 13 41  1  0  0  0  0
 13 42  1  0  0  0  0
 13 14  1  0  0  0  0
 14 21  1  0  0  0  0
 14 15  2  0  0  0  0
 15 16  1  0  0  0  0
 15 17  1  0  0  0  0
 16 43  1  0  0  0  0
 16 44  1  0  0  0  0
 16 45  1  0  0  0  0
 17 25  1  0  0  0  0
 17 18  1  0  0  0  0
 18 19  1  0  0  0  0
 18 20  2  0  0  0  0
 19 46  1  0  0  0  0
 19 47  1  0  0  0  0
 19 48  1  0  0  0  0
 20 21  1  0  0  0  0
 21 22  2  0  0  0  0
 23 24  1  0  0  0  0
 23 49  1  0  0  0  0
 23 50  1  0  0  0  0
 24 51  1  0  0  0  0
 24 52  1  0  0  0  0
M  CHG  1   5   1
M  END
> <s_m_source_file>
AV-unprocessed.smi

> <i_m_source_file_index>
1041

> <i_lp_mmshare_version>
43012

> <i_f3d_flags>
0

> <s_epik_input>
W0NIM11PW0NIMl1bQ0gyXU4xW0NIMl1bQ0gyXVtDSF0oW0NIMl1bQ0gyXTEpW0NIMl1bTkhdQyg9TylbQ0gyXWMyYyhbQ0gzXSluYyhbQ0gzXSlbbkhdYzI9Tw==

> <s_epik_cmdline>
J2VwaWtfcHl0aG9uJywgJy1waCcsICc3LjAnLCAnLXRuJywgJzgnLCAnLW1hJywgJzIwMCcsICctbWV0YWxfYmluZGluZycsICctaW1hZScsICc8aW5maWxlLm1hZT4nLCAnLW9tYWUnLCAnPG91dGZpbGUubWFlPic=

> <r_lp_tautomer_probability>
0.156392

> <r_epik_Ionization_Penalty>
0.0240251

> <r_epik_Ionization_Penalty_Charging>
0.0239146

> <r_epik_Ionization_Penalty_Neutral>
0.000110474

> <r_epik_State_Penalty>
1.15942

> <r_epik_Charging_Adjusted_Penalty>
1.18333

> <i_epik_Tot_Q>
1

> <i_epik_Tot_abs_Q>
1

> <r_epik_Metal_State_Penalty>
1.33297

> <b_epik_Metal_Only>
0

> <s_lp_Force_Field>
OPLS_2005

> <r_lp_Energy>
24.2188

> <b_lp_Chiralities_Consistent>
1

> <s_lp_Variant>
AV-unprocessed.smi:1041-3

> <Gold.Version>
5.8.1

> <Gold.Id.Protein>
6NUR|6NUR_protein|mol2

> <Gold.PLP.Fitness>
46.3434

> <Gold.PLP.PLP>
-35.7458

> <Gold.PLP.part.hbond>
-3.0000

> <Gold.PLP.part.metal>
0.0000

> <Gold.PLP.part.buried>
1.1973

> <Gold.PLP.part.nonpolar>
-33.8497

> <Gold.PLP.part.repulsive>
0.3417

> <Gold.PLP.ligand.clash>
0.0000

> <Gold.PLP.ligand.torsion>
0.7473

> <Gold.PLP.Chemscore.Hbond>
4.0000

> <Gold.PLP.Chemscore.CHOScore>
0.0000

> <Gold.PLP.Chemscore.Metal>
0.0000

> <Gold.Chemscore.Hbonds>
donor molecule, donor type, donor heavy atom, donor atom, acceptor molecule, acceptor atom, score
      L1  H     5    53       P1  7948  2.00
      L1  H    10    40       P1  7957  1.00
      P1  H  7997  8010       L1    20  1.00

> <Gold.PLP.Chemscore.Internal.Correction>
0.0921

> <Gold.Rescore>
     Score         DG    S(hbond)    S(metal)    S(lipo)     H(rot)  DE(clash)    DE(int)     intcor
     12.62     -17.58       2.35        0.00      89.46       2.43       0.77       4.19       ----

> <Gold.Chemscore.Fitness>
12.6206

> <Gold.Chemscore.DG>
-17.5810

> <Gold.Chemscore.ZeroCoef>
-5.4800

> <Gold.Chemscore.Hbond>
2.3510

> <Gold.Chemscore.Metal>
0.0000

> <Gold.Chemscore.Lipo>
89.4645

> <Gold.Chemscore.Internal_Hbond>
0.0000

> <Gold.Chemscore.DEClash>
0.7730

> <Gold.Chemscore.DEInternal>
4.1874

> <Gold.Chemscore.Rot>
2.4291

> <Gold.Chemscore.Internal.Correction>
   9.000000E+99

> <Gold.Chemscore.Hbonds>
donor molecule, donor type, donor heavy atom, donor atom, acceptor molecule, acceptor atom, score
      L1  H     5    53       P1  7948  0.98
      L1  H    10    40       P1  7957  0.98
      P1  H  7997  8010       L1    20  0.23

> <Gold.Chemscore.Hbond.Weighted>
-7.8522

> <Gold.Chemscore.Metal.Weighted>
-0.0000

> <Gold.Chemscore.Lipo.Weighted>
-10.4673

> <Gold.Chemscore.Internal_Hbond.Weighted>
0.0000

> <Gold.Chemscore.DEClash.Weighted>
0.7730

> <Gold.Chemscore.DEInternal.Weighted>
4.1874

> <Gold.Chemscore.Rot.Weighted>
6.2186

> <Gold.Chemscore.Internal.Correction.Weighted>
   9.000000E+99

> <Gold.Protein.RotatedTorsions>
[ 6907 6896 6895 6894 ] final   58.35 input  -60.11 | X-H torsion
[ 7974 7965 7964 7962 ] final    8.79 input  175.53 | X-H torsion
[ 8008 7997 7996 7995 ] final   37.08 input   59.86 | X-H torsion
[ 10167 10162 10161 10158 ] final   29.47 input  -65.29 | X-H torsion
[ 10718 10713 10712 10709 ] final  -78.62 input   66.30 | X-H torsion
[ 10763 10752 10751 10750 ] final  109.12 input  -60.55 | X-H torsion
[ 11005 11000 10999 10996 ] final   -4.26 input  -57.11 | X-H torsion

> <Gold.Protein.ActiveResidues>
 VAL166  LYS551  ARG553  GLY616  TRP617  ASP618  TYR619  PRO620  LYS621  CYS622 
 ASP623  PHE694  ASN695  SER759  ASP760  ASP761  ALA762  ILE779  LEU786  VAL792 
 PHE793  MET794  SER795  GLU796  ALA797  LYS798  CYS799  TRP800  GLU811  SER814 

> <Gold.Protein.RotatedAtoms>
  152.3816  134.6582  160.0140 H   0  0  0  0  0  0  0  0  0  0  0  0  # atno 6907 bound_to 6896
  151.6843  133.3306  159.3235 H   0  0  0  0  0  0  0  0  0  0  0  0  # atno 6908 bound_to 6896
  150.7752  134.6689  159.6425 H   0  0  0  0  0  0  0  0  0  0  0  0  # atno 6909 bound_to 6896
  146.2412  139.9881  142.8429 H   0  0  0  0  0  0  0  0  0  0  0  0  # atno 7974 bound_to 7965
  155.1979  140.3313  155.4348 H   0  0  0  0  0  0  0  0  0  0  0  0  # atno 8008 bound_to 7997
  156.2418  140.1899  156.7017 H   0  0  0  0  0  0  0  0  0  0  0  0  # atno 8009 bound_to 7997
  154.6161  140.0602  156.9542 H   0  0  0  0  0  0  0  0  0  0  0  0  # atno 8010 bound_to 7997
  140.4763  144.0685  150.6251 H   0  0  0  0  0  0  0  0  0  0  0  0  # atno 10167 bound_to 10162
  156.0113  130.4523  150.3525 H   0  0  0  0  0  0  0  0  0  0  0  0  # atno 10718 bound_to 10713
  153.4303  135.3790  155.2166 H   0  0  0  0  0  0  0  0  0  0  0  0  # atno 10763 bound_to 10752
  154.8749  135.3838  154.4276 H   0  0  0  0  0  0  0  0  0  0  0  0  # atno 10764 bound_to 10752
  153.4808  135.7088  153.6002 H   0  0  0  0  0  0  0  0  0  0  0  0  # atno 10765 bound_to 10752
  140.6783  133.9176  155.8538 H   0  0  0  0  0  0  0  0  0  0  0  0  # atno 11005 bound_to 11000
  145.1529  140.9632  143.4422 LP  0  0  0  0  0  0  0  0  0  0  0  0  # atno 17320 bound_to 7965
  145.0188  139.3443  143.6083 LP  0  0  0  0  0  0  0  0  0  0  0  0  # atno 17321 bound_to 7965
  140.3914  143.2750  152.0055 LP  0  0  0  0  0  0  0  0  0  0  0  0  # atno 17342 bound_to 10162
  139.4826  144.6074  151.7497 LP  0  0  0  0  0  0  0  0  0  0  0  0  # atno 17343 bound_to 10162
  157.1616  131.0346  151.2838 LP  0  0  0  0  0  0  0  0  0  0  0  0  # atno 17370 bound_to 10713
  157.4306  130.7488  149.6987 LP  0  0  0  0  0  0  0  0  0  0  0  0  # atno 17371 bound_to 10713
  141.0338  134.0719  157.3983 LP  0  0  0  0  0  0  0  0  0  0  0  0  # atno 17394 bound_to 11000
  139.8960  135.0143  156.7028 LP  0  0  0  0  0  0  0  0  0  0  0  0  # atno 17395 bound_to 11000

$$$$
