AV-unprocessed.smi:1093|AV-procd|sdf|4745|dock3
  -GOLD-   22720 3283D 1   1.00000     0.00000
 Structure written by MMmdl.
 47 48  0  0  0  0  0  0  0  0  2 V2000
  143.0490  138.1462  154.9363 C   0  0  0  0  0  0  0  0  0  0  0  0
  144.0201  139.0440  155.7167 C   0  0  0  0  0  0  0  0  0  0  0  0
  145.1096  139.5838  154.8644 N   0  3  2  0  0  0  0  0  0  0  0  0
  145.8365  138.5088  154.1398 C   0  0  0  0  0  0  0  0  0  0  0  0
  146.8678  139.0945  153.1610 C   0  0  0  0  0  0  0  0  0  0  0  0
  147.8507  140.0222  153.8863 C   0  0  0  0  0  0  0  0  0  0  0  0
  147.0786  141.1107  154.6471 C   0  0  2  0  0  0  0  0  0  0  0  0
  148.0115  141.9612  155.3805 N   0  0  0  0  0  0  0  0  0  0  0  0
  148.8972  141.5275  156.2887 C   0  0  0  0  0  0  0  0  0  0  0  0
  149.0353  140.3413  156.5868 O   0  0  0  0  0  0  0  0  0  0  0  0
  149.6141  142.5446  156.7959 N   0  0  0  0  0  0  0  0  0  0  0  0
  150.6009  142.5007  157.8168 C   0  0  0  0  0  0  0  0  0  0  0  0
  151.5630  143.5131  158.0346 C   0  0  0  0  0  0  0  0  0  0  0  0
  152.5111  143.3453  159.0621 C   0  0  0  0  0  0  0  0  0  0  0  0
  152.4830  142.1666  159.8487 C   0  0  0  0  0  0  0  0  0  0  0  0
  153.4138  141.9521  160.8910 N   0  0  0  0  0  0  0  0  0  0  0  0
  154.5610  141.0778  160.6814 C   0  0  0  0  0  0  0  0  0  0  0  0
  153.2612  142.6602  162.1578 C   0  0  0  0  0  0  0  0  0  0  0  0
  151.5636  141.1955  159.6266 N   0  0  0  0  0  0  0  0  0  0  0  0
  150.6593  141.3585  158.6388 C   0  0  0  0  0  0  0  0  0  0  0  0
  146.0461  140.4741  155.6015 C   0  0  0  0  0  0  0  0  0  0  0  0
  142.3255  137.6890  155.6117 H   0  0  0  0  0  0  0  0  0  0  0  0
  143.5791  137.3406  154.4276 H   0  0  0  0  0  0  0  0  0  0  0  0
  142.4833  138.7025  154.1896 H   0  0  0  0  0  0  0  0  0  0  0  0
  143.4845  139.8603  156.2034 H   0  0  0  0  0  0  0  0  0  0  0  0
  144.4560  138.4419  156.5150 H   0  0  0  0  0  0  0  0  0  0  0  0
  146.3300  137.8531  154.8592 H   0  0  0  0  0  0  0  0  0  0  0  0
  145.1283  137.8932  153.5839 H   0  0  0  0  0  0  0  0  0  0  0  0
  147.4116  138.2891  152.6665 H   0  0  0  0  0  0  0  0  0  0  0  0
  146.3533  139.6483  152.3743 H   0  0  0  0  0  0  0  0  0  0  0  0
  148.4603  139.4401  154.5792 H   0  0  0  0  0  0  0  0  0  0  0  0
  148.5365  140.4738  153.1682 H   0  0  0  0  0  0  0  0  0  0  0  0
  146.5496  141.7236  153.9143 H   0  0  0  0  0  0  0  0  0  0  0  0
  147.9700  142.9525  155.1933 H   0  0  0  0  0  0  0  0  0  0  0  0
  149.4639  143.4514  156.3780 H   0  0  0  0  0  0  0  0  0  0  0  0
  151.6034  144.4035  157.4266 H   0  0  0  0  0  0  0  0  0  0  0  0
  153.2430  144.1224  159.2214 H   0  0  0  0  0  0  0  0  0  0  0  0
  155.1885  141.4553  159.8735 H   0  0  0  0  0  0  0  0  0  0  0  0
  154.2326  140.0694  160.4280 H   0  0  0  0  0  0  0  0  0  0  0  0
  155.1780  141.0095  161.5776 H   0  0  0  0  0  0  0  0  0  0  0  0
  153.2996  143.7383  161.9988 H   0  0  0  0  0  0  0  0  0  0  0  0
  154.0541  142.3982  162.8583 H   0  0  0  0  0  0  0  0  0  0  0  0
  152.3079  142.4120  162.6256 H   0  0  0  0  0  0  0  0  0  0  0  0
  149.9563  140.5492  158.5049 H   0  0  0  0  0  0  0  0  0  0  0  0
  145.4881  141.2645  156.1026 H   0  0  0  0  0  0  0  0  0  0  0  0
  146.5520  139.9029  156.3820 H   0  0  0  0  0  0  0  0  0  0  0  0
  144.6638  140.1489  154.1554 H   0  0  0  0  0  0  0  0  0  0  0  0
  1  2  1  0  0  0  0
  1 22  1  0  0  0  0
  1 23  1  0  0  0  0
  1 24  1  0  0  0  0
  2  3  1  0  0  0  0
  2 25  1  0  0  0  0
  2 26  1  0  0  0  0
  3 21  1  0  0  0  0
  3  4  1  0  0  0  0
  3 47  1  0  0  0  0
  4  5  1  0  0  0  0
  4 27  1  0  0  0  0
  4 28  1  0  0  0  0
  5  6  1  0  0  0  0
  5 29  1  0  0  0  0
  5 30  1  0  0  0  0
  6  7  1  0  0  0  0
  6 31  1  0  0  0  0
  6 32  1  0  0  0  0
  7  8  1  0  0  0  0
  7 21  1  0  0  0  0
  7 33  1  0  0  0  0
  8  9  1  0  0  0  0
  8 34  1  0  0  0  0
  9 10  2  0  0  0  0
  9 11  1  0  0  0  0
 11 12  1  0  0  0  0
 11 35  1  0  0  0  0
 12 20  1  0  0  0  0
 12 13  2  0  0  0  0
 13 14  1  0  0  0  0
 13 36  1  0  0  0  0
 14 15  2  0  0  0  0
 14 37  1  0  0  0  0
 15 16  1  0  0  0  0
 15 19  1  0  0  0  0
 16 17  1  0  0  0  0
 16 18  1  0  0  0  0
 17 38  1  0  0  0  0
 17 39  1  0  0  0  0
 17 40  1  0  0  0  0
 18 41  1  0  0  0  0
 18 42  1  0  0  0  0
 18 43  1  0  0  0  0
 19 20  2  0  0  0  0
 20 44  1  0  0  0  0
 21 45  1  0  0  0  0
 21 46  1  0  0  0  0
M  CHG  1   3   1
M  END
> <s_m_source_file>
AV-unprocessed.smi

> <i_m_source_file_index>
1093

> <i_lp_mmshare_version>
43012

> <i_f3d_flags>
0

> <s_epik_input>
W0NIM11bQ0gyXU4xW0NIMl1bQ0gyXVtDSDJdW0NASF0oW0NIMl0xKVtOSF1DKD1PKVtOSF1jMltjSF1bY0hdYyhOKFtDSDNdKVtDSDNdKW5bY0hdMg==

> <s_epik_cmdline>
J2VwaWtfcHl0aG9uJywgJy1waCcsICc3LjAnLCAnLXRuJywgJzgnLCAnLW1hJywgJzIwMCcsICctbWV0YWxfYmluZGluZycsICctaW1hZScsICc8aW5maWxlLm1hZT4nLCAnLW9tYWUnLCAnPG91dGZpbGUubWFlPic=

> <r_lp_tautomer_probability>
1

> <r_epik_Ionization_Penalty>
0.489418

> <r_epik_Ionization_Penalty_Charging>
0.00268196

> <r_epik_Ionization_Penalty_Neutral>
0.486736

> <r_epik_State_Penalty>
0.491157

> <r_epik_Charging_Adjusted_Penalty>
0.493839

> <i_epik_Tot_Q>
1

> <i_epik_Tot_abs_Q>
1

> <r_epik_Metal_State_Penalty>
0.266953

> <b_epik_Metal_Only>
0

> <s_lp_Force_Field>
OPLS_2005

> <r_lp_Energy>
20.183

> <b_lp_Chiralities_Consistent>
1

> <s_lp_Variant>
AV-unprocessed.smi:1093-8

> <Gold.Version>
5.8.1

> <Gold.Id.Protein>
6NUR|6NUR_protein|mol2

> <Gold.PLP.Fitness>
46.8613

> <Gold.PLP.PLP>
-38.2944

> <Gold.PLP.part.hbond>
-2.9702

> <Gold.PLP.part.metal>
0.0000

> <Gold.PLP.part.buried>
-2.8726

> <Gold.PLP.part.nonpolar>
-32.2376

> <Gold.PLP.part.repulsive>
0.1641

> <Gold.PLP.ligand.clash>
0.0000

> <Gold.PLP.ligand.torsion>
1.5266

> <Gold.PLP.Chemscore.Hbond>
3.8640

> <Gold.PLP.Chemscore.CHOScore>
0.0000

> <Gold.PLP.Chemscore.Metal>
0.0000

> <Gold.Chemscore.Hbonds>
donor molecule, donor type, donor heavy atom, donor atom, acceptor molecule, acceptor atom, score
      L1  H     3    47       P1 10175  2.00
      L1  H     8    34       P1  8028  0.86
      L1  H    11    35       P1  8028  1.00

> <Gold.PLP.Chemscore.Internal.Correction>
0.0280

> <Gold.Rescore>
     Score         DG    S(hbond)    S(metal)    S(lipo)     H(rot)  DE(clash)    DE(int)     intcor
     16.83     -21.88       2.81        0.00      85.79       1.18       1.17       3.88       ----

> <Gold.Chemscore.Fitness>
16.8332

> <Gold.Chemscore.DG>
-21.8828

> <Gold.Chemscore.ZeroCoef>
-5.4800

> <Gold.Chemscore.Hbond>
2.8135

> <Gold.Chemscore.Metal>
0.0000

> <Gold.Chemscore.Lipo>
85.7908

> <Gold.Chemscore.Internal_Hbond>
0.0000

> <Gold.Chemscore.DEClash>
1.1717

> <Gold.Chemscore.DEInternal>
3.8779

> <Gold.Chemscore.Rot>
1.1842

> <Gold.Chemscore.Internal.Correction>
   9.000000E+99

> <Gold.Chemscore.Hbonds>
donor molecule, donor type, donor heavy atom, donor atom, acceptor molecule, acceptor atom, score
      L1  H     3    47       P1 10175  0.97
      L1  H     8    34       P1  8028  0.72
      L1  H    11    35       P1  8028  0.97

> <Gold.Chemscore.Hbond.Weighted>
-9.3969

> <Gold.Chemscore.Metal.Weighted>
-0.0000

> <Gold.Chemscore.Lipo.Weighted>
-10.0375

> <Gold.Chemscore.Internal_Hbond.Weighted>
0.0000

> <Gold.Chemscore.DEClash.Weighted>
1.1717

> <Gold.Chemscore.DEInternal.Weighted>
3.8779

> <Gold.Chemscore.Rot.Weighted>
3.0317

> <Gold.Chemscore.Internal.Correction.Weighted>
   9.000000E+99

> <Gold.Protein.RotatedTorsions>
[ 6907 6896 6895 6894 ] final  116.55 input  -60.11 | X-H torsion
[ 7974 7965 7964 7962 ] final  -95.01 input  175.53 | X-H torsion
[ 8008 7997 7996 7995 ] final  169.03 input   59.86 | X-H torsion
[ 10167 10162 10161 10158 ] final  139.28 input  -65.29 | X-H torsion
[ 10718 10713 10712 10709 ] final -179.25 input   66.30 | X-H torsion
[ 10763 10752 10751 10750 ] final  106.96 input  -60.55 | X-H torsion
[ 11005 11000 10999 10996 ] final -158.47 input  -57.11 | X-H torsion

> <Gold.Protein.ActiveResidues>
 VAL166  LYS551  ARG553  GLY616  TRP617  ASP618  TYR619  PRO620  LYS621  CYS622 
 ASP623  PHE694  ASN695  SER759  ASP760  ASP761  ALA762  ILE779  LEU786  VAL792 
 PHE793  MET794  SER795  GLU796  ALA797  LYS798  CYS799  TRP800  GLU811  SER814 

> <Gold.Protein.RotatedAtoms>
  152.4671  133.7946  159.6920 H   0  0  0  0  0  0  0  0  0  0  0  0  # atno 6907 bound_to 6896
  150.8641  133.7591  159.2989 H   0  0  0  0  0  0  0  0  0  0  0  0  # atno 6908 bound_to 6896
  151.5147  135.1069  159.9915 H   0  0  0  0  0  0  0  0  0  0  0  0  # atno 6909 bound_to 6896
  145.3657  140.9498  143.2475 H   0  0  0  0  0  0  0  0  0  0  0  0  # atno 7974 bound_to 7965
  156.1494  140.1575  156.8794 H   0  0  0  0  0  0  0  0  0  0  0  0  # atno 8008 bound_to 7997
  154.5057  140.0813  156.7927 H   0  0  0  0  0  0  0  0  0  0  0  0  # atno 8009 bound_to 7997
  155.3926  140.3410  155.4254 H   0  0  0  0  0  0  0  0  0  0  0  0  # atno 8010 bound_to 7997
  139.5084  144.6304  151.5831 H   0  0  0  0  0  0  0  0  0  0  0  0  # atno 10167 bound_to 10162
  156.8563  130.9736  151.3087 H   0  0  0  0  0  0  0  0  0  0  0  0  # atno 10718 bound_to 10713
  153.4001  135.3860  155.1982 H   0  0  0  0  0  0  0  0  0  0  0  0  # atno 10763 bound_to 10752
  154.8728  135.3769  154.4629 H   0  0  0  0  0  0  0  0  0  0  0  0  # atno 10764 bound_to 10752
  153.5125  135.7087  153.5835 H   0  0  0  0  0  0  0  0  0  0  0  0  # atno 10765 bound_to 10752
  140.6533  134.4427  157.5235 H   0  0  0  0  0  0  0  0  0  0  0  0  # atno 11005 bound_to 11000
  144.8613  139.5173  143.6811 LP  0  0  0  0  0  0  0  0  0  0  0  0  # atno 17320 bound_to 7965
  146.2908  139.7133  142.9162 LP  0  0  0  0  0  0  0  0  0  0  0  0  # atno 17321 bound_to 7965
  140.6035  143.9567  150.6402 LP  0  0  0  0  0  0  0  0  0  0  0  0  # atno 17342 bound_to 10162
  140.2786  143.3405  152.1172 LP  0  0  0  0  0  0  0  0  0  0  0  0  # atno 17343 bound_to 10162
  157.6275  130.8703  149.9215 LP  0  0  0  0  0  0  0  0  0  0  0  0  # atno 17370 bound_to 10713
  156.0801  130.3674  150.0599 LP  0  0  0  0  0  0  0  0  0  0  0  0  # atno 17371 bound_to 10713
  139.9038  134.8495  156.1787 LP  0  0  0  0  0  0  0  0  0  0  0  0  # atno 17394 bound_to 11000
  141.0520  133.6884  156.1790 LP  0  0  0  0  0  0  0  0  0  0  0  0  # atno 17395 bound_to 11000

$$$$
