AV-unprocessed.smi:34|AV-procd|sdf|239|dock10
  -GOLD-   2262015583D 1   1.00000     0.00000
 Structure written by MMmdl.
 54 58  0  0  0  0  0  0  0  0  2 V2000
  144.4871  146.1218  155.5153 O   0  0  0  0  0  0  0  0  0  0  0  0
  143.8870  145.6571  154.5438 C   0  0  0  0  0  0  0  0  0  0  0  0
  144.2476  144.6037  153.7677 N   0  5  0  0  0  0  0  0  0  0  0  0
  144.5120  143.4170  154.3352 C   0  0  0  0  0  0  0  0  0  0  0  0
  143.5383  142.7407  154.9971 N   0  0  0  0  0  0  0  0  0  0  0  0
  143.8010  141.5565  155.5627 C   0  0  0  0  0  0  0  0  0  0  0  0
  144.9507  140.8745  155.5908 N   0  0  0  0  0  0  0  0  0  0  0  0
  145.9391  141.5516  154.9378 C   0  0  0  0  0  0  0  0  0  0  0  0
  145.7999  142.8154  154.2956 C   0  0  0  0  0  0  0  0  0  0  0  0
  147.0039  143.2145  153.7342 N   0  0  0  0  0  0  0  0  0  0  0  0
  147.8000  142.1946  154.0501 C   0  0  0  0  0  0  0  0  0  0  0  0
  147.2555  141.1731  154.7453 N   0  0  0  0  0  0  0  0  0  0  0  0
  147.8911  139.9077  155.2416 C   0  0  2  0  0  0  0  0  0  0  0  0
  149.0460  140.2387  155.9536 O   0  0  0  0  0  0  0  0  0  0  0  0
  150.1753  140.0704  155.1069 C   0  0  1  0  0  0  0  0  0  0  0  0
  151.4697  139.9891  155.9233 C   0  0  0  0  0  0  0  0  0  0  0  0
  151.5774  141.1581  156.7188 O   0  0  0  0  0  0  0  0  0  0  0  0
  152.1502  141.0985  157.9355 C   0  0  0  0  0  0  0  0  0  0  0  0
  152.6229  140.0672  158.4176 O   0  0  0  0  0  0  0  0  0  0  0  0
  152.1532  142.4140  158.6386 C   0  0  0  0  0  0  0  0  0  0  0  0
  152.3996  142.4552  160.0308 C   0  0  0  0  0  0  0  0  0  0  0  0
  152.4079  143.6823  160.7221 C   0  0  0  0  0  0  0  0  0  0  0  0
  152.1698  144.8837  160.0294 C   0  0  0  0  0  0  0  0  0  0  0  0
  151.9233  144.8563  158.6444 C   0  0  0  0  0  0  0  0  0  0  0  0
  151.9144  143.6300  157.9514 C   0  0  0  0  0  0  0  0  0  0  0  0
  149.8171  138.7958  154.3453 C   0  0  1  0  0  0  0  0  0  0  0  0
  150.0162  137.7214  155.1119 F   0  0  0  0  0  0  0  0  0  0  0  0
  148.3259  138.9661  154.0896 C   0  0  2  0  0  0  0  0  0  0  0  0
  148.1135  139.4794  152.7860 O   0  0  0  0  0  0  0  0  0  0  0  0
  142.6296  146.3384  154.0748 C   0  0  0  0  0  0  0  0  0  0  0  0
  141.9196  147.1825  154.9589 C   0  0  0  0  0  0  0  0  0  0  0  0
  140.7269  147.8093  154.5481 C   0  0  0  0  0  0  0  0  0  0  0  0
  140.2261  147.5907  153.2511 C   0  0  0  0  0  0  0  0  0  0  0  0
  140.9169  146.7417  152.3665 C   0  0  0  0  0  0  0  0  0  0  0  0
  142.1098  146.1147  152.7764 C   0  0  0  0  0  0  0  0  0  0  0  0
  142.9683  141.0866  156.0646 H   0  0  0  0  0  0  0  0  0  0  0  0
  148.8395  142.1968  153.7572 H   0  0  0  0  0  0  0  0  0  0  0  0
  147.1451  139.4729  155.9079 H   0  0  0  0  0  0  0  0  0  0  0  0
  150.2331  140.8999  154.4000 H   0  0  0  0  0  0  0  0  0  0  0  0
  151.4770  139.0948  156.5479 H   0  0  0  0  0  0  0  0  0  0  0  0
  152.3295  139.9342  155.2541 H   0  0  0  0  0  0  0  0  0  0  0  0
  152.5853  141.5458  160.5842 H   0  0  0  0  0  0  0  0  0  0  0  0
  152.5973  143.7010  161.7850 H   0  0  0  0  0  0  0  0  0  0  0  0
  152.1761  145.8246  160.5595 H   0  0  0  0  0  0  0  0  0  0  0  0
  151.7407  145.7777  158.1113 H   0  0  0  0  0  0  0  0  0  0  0  0
  151.7205  143.6453  156.8887 H   0  0  0  0  0  0  0  0  0  0  0  0
  150.4074  138.6566  153.4387 H   0  0  0  0  0  0  0  0  0  0  0  0
  147.7959  138.0169  154.1771 H   0  0  0  0  0  0  0  0  0  0  0  0
  148.9543  139.5941  152.3688 H   0  0  0  0  0  0  0  0  0  0  0  0
  142.2903  147.3591  155.9583 H   0  0  0  0  0  0  0  0  0  0  0  0
  140.1960  148.4567  155.2302 H   0  0  0  0  0  0  0  0  0  0  0  0
  139.3111  148.0705  152.9366 H   0  0  0  0  0  0  0  0  0  0  0  0
  140.5304  146.5677  151.3733 H   0  0  0  0  0  0  0  0  0  0  0  0
  142.6191  145.4575  152.0862 H   0  0  0  0  0  0  0  0  0  0  0  0
  1  2  2  0  0  0  0
  2  3  1  0  0  0  0
  2 30  1  0  0  0  0
  3  4  1  0  0  0  0
  4  9  1  0  0  0  0
  4  5  2  0  0  0  0
  5  6  1  0  0  0  0
  6  7  2  0  0  0  0
  6 36  1  0  0  0  0
  7  8  1  0  0  0  0
  8 12  1  0  0  0  0
  8  9  2  0  0  0  0
  9 10  1  0  0  0  0
 10 11  2  0  0  0  0
 11 12  1  0  0  0  0
 11 37  1  0  0  0  0
 12 13  1  0  0  0  0
 13 28  1  0  0  0  0
 13 14  1  0  0  0  0
 13 38  1  0  0  0  0
 14 15  1  0  0  0  0
 15 16  1  0  0  0  0
 15 26  1  0  0  0  0
 15 39  1  0  0  0  0
 16 17  1  0  0  0  0
 16 40  1  0  0  0  0
 16 41  1  0  0  0  0
 17 18  1  0  0  0  0
 18 19  2  0  0  0  0
 18 20  1  0  0  0  0
 20 25  1  0  0  0  0
 20 21  2  0  0  0  0
 21 22  1  0  0  0  0
 21 42  1  0  0  0  0
 22 23  2  0  0  0  0
 22 43  1  0  0  0  0
 23 24  1  0  0  0  0
 23 44  1  0  0  0  0
 24 25  2  0  0  0  0
 24 45  1  0  0  0  0
 25 46  1  0  0  0  0
 26 27  1  0  0  0  0
 26 28  1  0  0  0  0
 26 47  1  0  0  0  0
 28 29  1  0  0  0  0
 28 48  1  0  0  0  0
 29 49  1  0  0  0  0
 30 35  1  0  0  0  0
 30 31  2  0  0  0  0
 31 32  1  0  0  0  0
 31 50  1  0  0  0  0
 32 33  2  0  0  0  0
 32 51  1  0  0  0  0
 33 34  1  0  0  0  0
 33 52  1  0  0  0  0
 34 35  2  0  0  0  0
 34 53  1  0  0  0  0
 35 54  1  0  0  0  0
M  CHG  1   3  -1
M  END
> <s_m_source_file>
AV-unprocessed.smi

> <i_m_source_file_index>
34

> <i_lp_mmshare_version>
43012

> <i_f3d_flags>
0

> <s_epik_input>
W2NIXTFbY0hdW2NIXVtjSF1bY0hdYzFDKD1PKVtOSF1jKG5bY0hdbjIpYyhjMjMpbltjSF1uM1tDQEBIXTRPW0NASF0oW0NAQEhdKEYpW0NASF00W09IXSlbQ0gyXU9DKD1PKWM1W2NIXVtjSF1bY0hdW2NIXVtjSF01

> <s_epik_cmdline>
J2VwaWtfcHl0aG9uJywgJy1waCcsICc3LjAnLCAnLXRuJywgJzgnLCAnLW1hJywgJzIwMCcsICctbWV0YWxfYmluZGluZycsICctaW1hZScsICc8aW5maWxlLm1hZT4nLCAnLW9tYWUnLCAnPG91dGZpbGUubWFlPic=

> <r_lp_tautomer_probability>
1

> <r_epik_Ionization_Penalty>
4.33227

> <r_epik_Ionization_Penalty_Charging>
3.41027

> <r_epik_Ionization_Penalty_Neutral>
0.922001

> <r_epik_State_Penalty>
3.41358

> <r_epik_Charging_Adjusted_Penalty>
6.82385

> <i_epik_Tot_Q>
-1

> <i_epik_Tot_abs_Q>
1

> <r_epik_Metal_State_Penalty>
0.496292

> <b_epik_Metal_Only>
1

> <s_epik_Chemistry_Notes>
This compound has an ester and may undergo hydrolysis at high or low pH. This compound contains an acetal/aminal-like group ( X-CH(R)-Y where X, Y are N, S, or O) that may be acid/base labile, releasing an aldehyde.

> <s_lp_Force_Field>
OPLS_2005

> <r_lp_Energy>
47.457

> <b_lp_Chiralities_Consistent>
1

> <s_lp_Variant>
AV-unprocessed.smi:34-25

> <Gold.Version>
5.8.1

> <Gold.Id.Protein>
6NUR|6NUR_protein|mol2

> <Gold.PLP.Fitness>
60.0912

> <Gold.PLP.PLP>
-56.8759

> <Gold.PLP.part.hbond>
-1.6632

> <Gold.PLP.part.metal>
0.0000

> <Gold.PLP.part.buried>
-6.7449

> <Gold.PLP.part.nonpolar>
-49.1555

> <Gold.PLP.part.repulsive>
0.6365

> <Gold.PLP.ligand.clash>
0.0000

> <Gold.PLP.ligand.torsion>
1.6830

> <Gold.PLP.Chemscore.Hbond>
2.0000

> <Gold.PLP.Chemscore.CHOScore>
0.0000

> <Gold.PLP.Chemscore.Metal>
0.0000

> <Gold.Chemscore.Hbonds>
donor molecule, donor type, donor heavy atom, donor atom, acceptor molecule, acceptor atom, score
      L1  H    29    49       P1  7957  0.67
      P1  H  7997  8009       L1    19  0.06
      P1  H  8022  8030       L1    10  0.19

> <Gold.PLP.Chemscore.Internal.Correction>
0.5812

> <Gold.Rescore>
     Score         DG    S(hbond)    S(metal)    S(lipo)     H(rot)  DE(clash)    DE(int)     intcor
     15.40     -18.37       1.02        0.00     140.00       2.69       0.43       2.54       ----

> <Gold.Chemscore.Fitness>
15.3990

> <Gold.Chemscore.DG>
-18.3700

> <Gold.Chemscore.ZeroCoef>
-5.4800

> <Gold.Chemscore.Hbond>
1.0201

> <Gold.Chemscore.Metal>
0.0000

> <Gold.Chemscore.Lipo>
140.0027

> <Gold.Chemscore.Internal_Hbond>
0.0000

> <Gold.Chemscore.DEClash>
0.4311

> <Gold.Chemscore.DEInternal>
2.5399

> <Gold.Chemscore.Rot>
2.6944

> <Gold.Chemscore.Internal.Correction>
   9.000000E+99

> <Gold.Chemscore.Hbonds>
donor molecule, donor type, donor heavy atom, donor atom, acceptor molecule, acceptor atom, score
      L1  H    29    49       P1  7957  0.65
      P1  H  7997  8009       L1    19  0.01
      P1  H  8022  8030       L1    10  0.04

> <Gold.Chemscore.Hbond.Weighted>
-3.4073

> <Gold.Chemscore.Metal.Weighted>
-0.0000

> <Gold.Chemscore.Lipo.Weighted>
-16.3803

> <Gold.Chemscore.Internal_Hbond.Weighted>
0.0000

> <Gold.Chemscore.DEClash.Weighted>
0.4311

> <Gold.Chemscore.DEInternal.Weighted>
2.5399

> <Gold.Chemscore.Rot.Weighted>
6.8975

> <Gold.Chemscore.Internal.Correction.Weighted>
   9.000000E+99

> <Gold.Protein.RotatedTorsions>
[ 6907 6896 6895 6894 ] final   52.52 input  -60.11 | X-H torsion
[ 7974 7965 7964 7962 ] final -107.53 input  175.53 | X-H torsion
[ 8008 7997 7996 7995 ] final  159.11 input   59.86 | X-H torsion
[ 10167 10162 10161 10158 ] final -112.24 input  -65.29 | X-H torsion
[ 10718 10713 10712 10709 ] final   -7.31 input   66.30 | X-H torsion
[ 10763 10752 10751 10750 ] final   17.97 input  -60.55 | X-H torsion
[ 11005 11000 10999 10996 ] final -160.19 input  -57.11 | X-H torsion

> <Gold.Protein.ActiveResidues>
 VAL166  LYS551  ARG553  GLY616  TRP617  ASP618  TYR619  PRO620  LYS621  CYS622 
 ASP623  PHE694  ASN695  SER759  ASP760  ASP761  ALA762  ILE779  LEU786  VAL792 
 PHE793  MET794  SER795  GLU796  ALA797  LYS798  CYS799  TRP800  GLU811  SER814 

> <Gold.Protein.RotatedAtoms>
  152.3242  134.7342  160.0305 H   0  0  0  0  0  0  0  0  0  0  0  0  # atno 6907 bound_to 6896
  151.7781  133.3342  159.3471 H   0  0  0  0  0  0  0  0  0  0  0  0  # atno 6908 bound_to 6896
  150.7386  134.5888  159.6021 H   0  0  0  0  0  0  0  0  0  0  0  0  # atno 6909 bound_to 6896
  145.2041  140.9069  143.3352 H   0  0  0  0  0  0  0  0  0  0  0  0  # atno 7974 bound_to 7965
  156.2260  140.1840  156.7363 H   0  0  0  0  0  0  0  0  0  0  0  0  # atno 8008 bound_to 7997
  154.5941  140.0646  156.9308 H   0  0  0  0  0  0  0  0  0  0  0  0  # atno 8009 bound_to 7997
  155.2285  140.3313  155.4309 H   0  0  0  0  0  0  0  0  0  0  0  0  # atno 8010 bound_to 7997
  140.1249  143.4411  152.1666 H   0  0  0  0  0  0  0  0  0  0  0  0  # atno 10167 bound_to 10162
  156.7190  130.5145  149.5873 H   0  0  0  0  0  0  0  0  0  0  0  0  # atno 10718 bound_to 10713
  153.1291  135.6736  153.9208 H   0  0  0  0  0  0  0  0  0  0  0  0  # atno 10763 bound_to 10752
  153.8700  135.3071  155.3443 H   0  0  0  0  0  0  0  0  0  0  0  0  # atno 10764 bound_to 10752
  154.7691  135.4948  153.9695 H   0  0  0  0  0  0  0  0  0  0  0  0  # atno 10765 bound_to 10752
  140.6342  134.4619  157.5231 H   0  0  0  0  0  0  0  0  0  0  0  0  # atno 11005 bound_to 11000
  144.9919  139.3681  143.6210 LP  0  0  0  0  0  0  0  0  0  0  0  0  # atno 17320 bound_to 7965
  146.3411  139.9105  142.8781 LP  0  0  0  0  0  0  0  0  0  0  0  0  # atno 17321 bound_to 7965
  139.5549  144.7366  151.4323 LP  0  0  0  0  0  0  0  0  0  0  0  0  # atno 17342 bound_to 10162
  140.6851  143.7993  150.7174 LP  0  0  0  0  0  0  0  0  0  0  0  0  # atno 17343 bound_to 10162
  156.1607  130.6372  151.0715 LP  0  0  0  0  0  0  0  0  0  0  0  0  # atno 17370 bound_to 10713
  157.6905  131.0811  150.7120 LP  0  0  0  0  0  0  0  0  0  0  0  0  # atno 17371 bound_to 10713
  139.9104  134.8357  156.1549 LP  0  0  0  0  0  0  0  0  0  0  0  0  # atno 17394 bound_to 11000
  141.0653  133.6822  156.2033 LP  0  0  0  0  0  0  0  0  0  0  0  0  # atno 17395 bound_to 11000

$$$$
