AV-unprocessed.smi:243|AV-procd|sdf|1857|dock5
  -GOLD-   2262020483D 1   1.00000     0.00000
 Structure written by MMmdl.
 58 61  0  0  0  0  0  0  0  0  2 V2000
  143.2140  132.5175  148.3324 C   0  0  0  0  0  0  0  0  0  0  0  0
  144.0017  132.5809  149.6485 C   0  0  0  0  0  0  0  0  0  0  0  0
  145.0534  133.6332  149.6366 N   0  3  1  0  0  0  0  0  0  0  0  0
  144.5073  135.0120  149.5647 C   0  0  0  0  0  0  0  0  0  0  0  0
  143.8859  135.4472  150.9019 C   0  0  0  0  0  0  0  0  0  0  0  0
  144.9051  135.3220  152.0569 C   0  0  1  0  0  0  0  0  0  0  0  0
  144.3679  135.7920  153.3435 N   0  0  0  0  0  0  0  0  0  0  0  0
  143.5010  134.8906  154.0953 C   0  0  0  0  0  0  0  0  0  0  0  0
  145.0046  136.7188  154.1087 C   0  0  0  0  0  0  0  0  0  0  0  0
  144.8777  136.6969  155.4615 N   0  0  0  0  0  0  0  0  0  0  0  0
  145.4915  137.6128  156.2156 C   0  0  0  0  0  0  0  0  0  0  0  0
  146.2702  138.6241  155.8293 N   0  0  0  0  0  0  0  0  0  0  0  0
  146.4057  138.6535  154.4727 C   0  0  0  0  0  0  0  0  0  0  0  0
  145.8081  137.7518  153.5469 C   0  0  0  0  0  0  0  0  0  0  0  0
  146.1744  138.0954  152.2510 N   0  0  0  0  0  0  0  0  0  0  0  0
  146.9388  139.1421  152.4017 C   0  0  0  0  0  0  0  0  0  0  0  0
  147.1410  139.5393  153.7043 N   0  0  0  0  0  0  0  0  0  0  0  0
  147.9490  140.6622  154.1562 C   0  0  0  0  0  0  0  0  0  0  0  0
  149.0060  140.2752  155.2178 C   0  0  1  0  0  0  0  0  0  0  0  0
  148.3469  139.9944  156.4411 O   0  0  0  0  0  0  0  0  0  0  0  0
  149.8244  139.0523  154.8247 C   0  0  0  0  0  0  0  0  0  0  0  0
  151.1424  139.2841  155.5517 C   0  0  0  0  0  0  0  0  0  0  0  0
  151.3463  140.6794  155.4053 O   0  0  0  0  0  0  0  0  0  0  0  0
  150.0878  141.3442  155.4786 C   0  0  0  0  0  0  0  0  0  0  0  0
  145.5396  133.9038  152.1039 C   0  0  2  0  0  0  0  0  0  0  0  0
  146.6672  133.8113  153.1471 C   0  0  0  0  0  0  0  0  0  0  0  0
  146.0786  133.5131  150.7085 C   0  0  0  0  0  0  0  0  0  0  0  0
  142.3827  131.8172  148.4185 H   0  0  0  0  0  0  0  0  0  0  0  0
  143.8321  132.1804  147.5008 H   0  0  0  0  0  0  0  0  0  0  0  0
  142.7980  133.4916  148.0732 H   0  0  0  0  0  0  0  0  0  0  0  0
  143.2924  132.8045  150.4461 H   0  0  0  0  0  0  0  0  0  0  0  0
  144.4241  131.6046  149.8850 H   0  0  0  0  0  0  0  0  0  0  0  0
  145.3180  135.6926  149.3011 H   0  0  0  0  0  0  0  0  0  0  0  0
  143.7751  135.0874  148.7600 H   0  0  0  0  0  0  0  0  0  0  0  0
  143.5412  136.4780  150.8160 H   0  0  0  0  0  0  0  0  0  0  0  0
  142.9961  134.8495  151.0931 H   0  0  0  0  0  0  0  0  0  0  0  0
  145.7207  136.0077  151.8214 H   0  0  0  0  0  0  0  0  0  0  0  0
  143.9177  134.6690  155.0788 H   0  0  0  0  0  0  0  0  0  0  0  0
  143.3643  133.9441  153.5719 H   0  0  0  0  0  0  0  0  0  0  0  0
  142.5158  135.3367  154.2307 H   0  0  0  0  0  0  0  0  0  0  0  0
  145.3361  137.5231  157.2805 H   0  0  0  0  0  0  0  0  0  0  0  0
  147.3860  139.6528  151.5610 H   0  0  0  0  0  0  0  0  0  0  0  0
  148.4334  141.1070  153.2858 H   0  0  0  0  0  0  0  0  0  0  0  0
  147.2793  141.4255  154.5546 H   0  0  0  0  0  0  0  0  0  0  0  0
  147.4765  140.3610  156.4022 H   0  0  0  0  0  0  0  0  0  0  0  0
  149.3515  138.1039  155.0830 H   0  0  0  0  0  0  0  0  0  0  0  0
  150.0087  139.0497  153.7495 H   0  0  0  0  0  0  0  0  0  0  0  0
  151.0559  139.0356  156.6105 H   0  0  0  0  0  0  0  0  0  0  0  0
  151.9664  138.7097  155.1279 H   0  0  0  0  0  0  0  0  0  0  0  0
  150.0833  142.1284  154.7226 H   0  0  0  0  0  0  0  0  0  0  0  0
  149.9690  141.8271  156.4497 H   0  0  0  0  0  0  0  0  0  0  0  0
  144.7887  133.1665  152.3810 H   0  0  0  0  0  0  0  0  0  0  0  0
  147.4572  134.5347  152.9437 H   0  0  0  0  0  0  0  0  0  0  0  0
  147.1182  132.8186  153.1503 H   0  0  0  0  0  0  0  0  0  0  0  0
  146.2979  133.9989  154.1556 H   0  0  0  0  0  0  0  0  0  0  0  0
  146.4930  132.5057  150.7278 H   0  0  0  0  0  0  0  0  0  0  0  0
  146.9115  134.1680  150.4477 H   0  0  0  0  0  0  0  0  0  0  0  0
  145.5458  133.4964  148.7651 H   0  0  0  0  0  0  0  0  0  0  0  0
  1  2  1  0  0  0  0
  1 28  1  0  0  0  0
  1 29  1  0  0  0  0
  1 30  1  0  0  0  0
  2  3  1  0  0  0  0
  2 31  1  0  0  0  0
  2 32  1  0  0  0  0
  3 27  1  0  0  0  0
  3  4  1  0  0  0  0
  3 58  1  0  0  0  0
  4  5  1  0  0  0  0
  4 33  1  0  0  0  0
  4 34  1  0  0  0  0
  5  6  1  0  0  0  0
  5 35  1  0  0  0  0
  5 36  1  0  0  0  0
  6  7  1  0  0  0  0
  6 25  1  0  0  0  0
  6 37  1  0  0  0  0
  7  8  1  0  0  0  0
  7  9  1  0  0  0  0
  8 38  1  0  0  0  0
  8 39  1  0  0  0  0
  8 40  1  0  0  0  0
  9 14  1  0  0  0  0
  9 10  2  0  0  0  0
 10 11  1  0  0  0  0
 11 12  2  0  0  0  0
 11 41  1  0  0  0  0
 12 13  1  0  0  0  0
 13 17  1  0  0  0  0
 13 14  2  0  0  0  0
 14 15  1  0  0  0  0
 15 16  2  0  0  0  0
 16 17  1  0  0  0  0
 16 42  1  0  0  0  0
 17 18  1  0  0  0  0
 18 19  1  0  0  0  0
 18 43  1  0  0  0  0
 18 44  1  0  0  0  0
 19 24  1  0  0  0  0
 19 20  1  0  0  0  0
 19 21  1  0  0  0  0
 20 45  1  0  0  0  0
 21 22  1  0  0  0  0
 21 46  1  0  0  0  0
 21 47  1  0  0  0  0
 22 23  1  0  0  0  0
 22 48  1  0  0  0  0
 22 49  1  0  0  0  0
 23 24  1  0  0  0  0
 24 50  1  0  0  0  0
 24 51  1  0  0  0  0
 25 26  1  0  0  0  0
 25 27  1  0  0  0  0
 25 52  1  0  0  0  0
 26 53  1  0  0  0  0
 26 54  1  0  0  0  0
 26 55  1  0  0  0  0
 27 56  1  0  0  0  0
 27 57  1  0  0  0  0
M  CHG  1   3   1
M  END
> <s_m_source_file>
AV-unprocessed.smi

> <i_m_source_file_index>
243

> <i_lp_mmshare_version>
43012

> <i_f3d_flags>
0

> <s_epik_input>
W0NIM11bQ0gyXU4xW0NIMl1bQ0gyXVtDQEhdKFtDQEBIXShbQ0gzXSlbQ0gyXTEpTihbQ0gzXSljKG5bY0hdbjIpYyhjMjMpbltjSF1uM1tDSDJdW0NAQF00KFtPSF0pW0NIMl1bQ0gyXU9bQ0gyXTQ=

> <s_epik_cmdline>
J2VwaWtfcHl0aG9uJywgJy1waCcsICc3LjAnLCAnLXRuJywgJzgnLCAnLW1hJywgJzIwMCcsICctbWV0YWxfYmluZGluZycsICctaW1hZScsICc8aW5maWxlLm1hZT4nLCAnLW9tYWUnLCAnPG91dGZpbGUubWFlPic=

> <r_lp_tautomer_probability>
1

> <r_epik_Ionization_Penalty>
0.00253099

> <r_epik_Ionization_Penalty_Charging>
0.00137877

> <r_epik_Ionization_Penalty_Neutral>
0.00115221

> <r_epik_State_Penalty>
-0

> <r_epik_Charging_Adjusted_Penalty>
0.00137877

> <i_epik_Tot_Q>
1

> <i_epik_Tot_abs_Q>
1

> <r_epik_Metal_State_Penalty>
-0

> <b_epik_Metal_Only>
0

> <s_lp_Force_Field>
OPLS_2005

> <r_lp_Energy>
46.501

> <b_lp_Chiralities_Consistent>
1

> <s_lp_Variant>
AV-unprocessed.smi:243-10

> <Gold.Version>
5.8.1

> <Gold.Id.Protein>
6NUR|6NUR_protein|mol2

> <Gold.PLP.Fitness>
39.0475

> <Gold.PLP.PLP>
-32.8882

> <Gold.PLP.part.hbond>
-2.0000

> <Gold.PLP.part.metal>
0.0000

> <Gold.PLP.part.buried>
2.1573

> <Gold.PLP.part.nonpolar>
-35.4585

> <Gold.PLP.part.repulsive>
0.4780

> <Gold.PLP.ligand.clash>
0.0000

> <Gold.PLP.ligand.torsion>
0.7499

> <Gold.PLP.Chemscore.Hbond>
1.3280

> <Gold.PLP.Chemscore.CHOScore>
0.9306

> <Gold.PLP.Chemscore.Metal>
0.0000

> <Gold.Chemscore.Hbonds>
donor molecule, donor type, donor heavy atom, donor atom, acceptor molecule, acceptor atom, score
      L1  H     3    58       P1  7921  0.52
      P1  H  7989  7998       L1    23  0.71
      L1  C    16    42       P1  7957  0.99

> <Gold.PLP.Chemscore.Internal.Correction>
0.8833

> <Gold.Rescore>
     Score         DG    S(hbond)    S(metal)    S(lipo)     H(rot)  DE(clash)    DE(int)     intcor
     10.01     -13.35       0.79        0.00      93.57       2.24       1.54       1.81       ----

> <Gold.Chemscore.Fitness>
10.0052

> <Gold.Chemscore.DG>
-13.3525

> <Gold.Chemscore.ZeroCoef>
-5.4800

> <Gold.Chemscore.Hbond>
0.7947

> <Gold.Chemscore.Metal>
0.0000

> <Gold.Chemscore.Lipo>
93.5679

> <Gold.Chemscore.Internal_Hbond>
0.0000

> <Gold.Chemscore.DEClash>
1.5413

> <Gold.Chemscore.DEInternal>
1.8060

> <Gold.Chemscore.Rot>
2.2379

> <Gold.Chemscore.Internal.Correction>
   9.000000E+99

> <Gold.Chemscore.Hbonds>
donor molecule, donor type, donor heavy atom, donor atom, acceptor molecule, acceptor atom, score
      L1  H     3    58       P1  7921  0.12
      P1  H  7989  7998       L1    23  0.06

> <Gold.Chemscore.Hbond.Weighted>
-2.6542

> <Gold.Chemscore.Metal.Weighted>
-0.0000

> <Gold.Chemscore.Lipo.Weighted>
-10.9474

> <Gold.Chemscore.Internal_Hbond.Weighted>
0.0000

> <Gold.Chemscore.DEClash.Weighted>
1.5413

> <Gold.Chemscore.DEInternal.Weighted>
1.8060

> <Gold.Chemscore.Rot.Weighted>
5.7291

> <Gold.Chemscore.Internal.Correction.Weighted>
   9.000000E+99

> <Gold.Protein.RotatedTorsions>
[ 6907 6896 6895 6894 ] final  -80.13 input  -60.11 | X-H torsion
[ 7974 7965 7964 7962 ] final  -79.92 input  175.53 | X-H torsion
[ 8008 7997 7996 7995 ] final  -18.42 input   59.86 | X-H torsion
[ 10167 10162 10161 10158 ] final  -32.61 input  -65.29 | X-H torsion
[ 10718 10713 10712 10709 ] final  -73.20 input   66.30 | X-H torsion
[ 10763 10752 10751 10750 ] final    2.22 input  -60.55 | X-H torsion
[ 11005 11000 10999 10996 ] final   13.18 input  -57.11 | X-H torsion

> <Gold.Protein.ActiveResidues>
 VAL166  LYS551  ARG553  GLY616  TRP617  ASP618  TYR619  PRO620  LYS621  CYS622 
 ASP623  PHE694  ASN695  SER759  ASP760  ASP761  ALA762  ILE779  LEU786  VAL792 
 PHE793  MET794  SER795  GLU796  ALA797  LYS798  CYS799  TRP800  GLU811  SER814 

> <Gold.Protein.RotatedAtoms>
  150.6935  134.4015  159.5120 H   0  0  0  0  0  0  0  0  0  0  0  0  # atno 6907 bound_to 6896
  152.1788  134.8769  160.0537 H   0  0  0  0  0  0  0  0  0  0  0  0  # atno 6908 bound_to 6896
  151.9767  133.3709  159.4129 H   0  0  0  0  0  0  0  0  0  0  0  0  # atno 6909 bound_to 6896
  145.5669  140.9473  143.1417 H   0  0  0  0  0  0  0  0  0  0  0  0  # atno 7974 bound_to 7965
  154.4908  140.2116  155.9554 H   0  0  0  0  0  0  0  0  0  0  0  0  # atno 8008 bound_to 7997
  156.1302  140.3198  155.8306 H   0  0  0  0  0  0  0  0  0  0  0  0  # atno 8009 bound_to 7997
  155.4311  140.0503  157.3009 H   0  0  0  0  0  0  0  0  0  0  0  0  # atno 8010 bound_to 7997
  140.7218  143.3682  151.1830 H   0  0  0  0  0  0  0  0  0  0  0  0  # atno 10167 bound_to 10162
  156.0290  130.4389  150.2706 H   0  0  0  0  0  0  0  0  0  0  0  0  # atno 10718 bound_to 10713
  153.2982  135.6954  153.7228 H   0  0  0  0  0  0  0  0  0  0  0  0  # atno 10763 bound_to 10752
  153.6152  135.3437  155.2993 H   0  0  0  0  0  0  0  0  0  0  0  0  # atno 10764 bound_to 10752
  154.8543  135.4373  154.2086 H   0  0  0  0  0  0  0  0  0  0  0  0  # atno 10765 bound_to 10752
  140.4837  134.0910  155.7756 H   0  0  0  0  0  0  0  0  0  0  0  0  # atno 11005 bound_to 11000
  144.7456  139.7329  143.7293 LP  0  0  0  0  0  0  0  0  0  0  0  0  # atno 17320 bound_to 7965
  146.1812  139.5005  142.9865 LP  0  0  0  0  0  0  0  0  0  0  0  0  # atno 17321 bound_to 7965
  139.7248  143.9166  152.2998 LP  0  0  0  0  0  0  0  0  0  0  0  0  # atno 17342 bound_to 10162
  139.8935  144.6952  150.8744 LP  0  0  0  0  0  0  0  0  0  0  0  0  # atno 17343 bound_to 10162
  157.0809  131.0143  151.3157 LP  0  0  0  0  0  0  0  0  0  0  0  0  # atno 17370 bound_to 10713
  157.4928  130.7832  149.7525 LP  0  0  0  0  0  0  0  0  0  0  0  0  # atno 17371 bound_to 10713
  141.1519  133.8954  157.2077 LP  0  0  0  0  0  0  0  0  0  0  0  0  # atno 17394 bound_to 11000
  139.9811  135.0098  156.9751 LP  0  0  0  0  0  0  0  0  0  0  0  0  # atno 17395 bound_to 11000

$$$$
