AV-unprocessed.smi:20|AV-procd|sdf|118|dock1
  -GOLD-   2262015283D 1   1.00000     0.00000
 Structure written by MMmdl.
 57 61  0  0  0  0  0  0  0  0  1 V2000
  155.1574  139.7662  166.5525 O   0  0  0  0  0  0  0  0  0  0  0  0
  155.3805  138.9069  165.7028 C   0  0  0  0  0  0  0  0  0  0  0  0
  154.6198  137.5946  165.6089 C   0  0  0  0  0  0  0  0  0  0  0  0
  154.9901  137.0659  164.2060 C   0  0  1  0  0  0  0  0  0  0  0  0
  155.1237  135.5262  164.1884 C   0  0  0  0  0  0  0  0  0  0  0  0
  155.3848  134.9986  162.7689 C   0  0  0  0  0  0  0  0  0  0  0  0
  154.2989  135.4776  161.7954 C   0  0  0  0  0  0  0  0  0  0  0  0
  154.1565  136.9323  161.8533 N   0  0  0  0  0  0  0  0  0  0  0  0
  153.5867  137.5209  160.7698 C   0  0  0  0  0  0  0  0  0  0  0  0
  153.0463  136.7010  159.8306 N   0  0  0  0  0  0  0  0  0  0  0  0
  152.4753  137.2057  158.7338 C   0  0  0  0  0  0  0  0  0  0  0  0
  152.3363  138.4834  158.3795 N   0  0  0  0  0  0  0  0  0  0  0  0
  152.8723  139.3155  159.3170 C   0  0  0  0  0  0  0  0  0  0  0  0
  153.5115  138.9270  160.5301 C   0  0  0  0  0  0  0  0  0  0  0  0
  153.9141  140.0640  161.2249 N   0  0  0  0  0  0  0  0  0  0  0  0
  153.5438  141.0588  160.4664 C   0  0  0  0  0  0  0  0  0  0  0  0
  152.9142  140.6975  159.2984 N   0  0  0  0  0  0  0  0  0  0  0  0
  152.3959  141.5869  158.2740 C   0  0  0  0  0  0  0  0  0  0  0  0
  150.9153  141.9808  158.5015 C   0  0  2  0  0  0  0  0  0  0  0  0
  150.0561  141.8288  157.2230 C   0  0  0  0  0  0  0  0  0  0  0  0
  148.8600  142.5761  157.3124 O   0  0  0  0  0  0  0  0  0  0  0  0
  150.7927  143.3898  159.1344 C   0  0  1  0  0  0  0  0  0  0  0  0
  151.4305  143.5344  160.5049 C   0  0  0  0  0  0  0  0  0  0  0  0
  151.5722  145.0465  160.6353 C   0  0  0  0  0  0  0  0  0  0  0  0
  151.8139  145.5217  159.3165 O   0  0  0  0  0  0  0  0  0  0  0  0
  151.5262  144.4976  158.3692 C   0  0  0  0  0  0  0  0  0  0  0  0
  153.9109  137.4989  163.1792 C   0  0  0  0  0  0  0  0  0  0  0  0
  156.3315  137.7852  163.9150 C   0  0  0  0  0  0  0  0  0  0  0  0
  156.3036  138.9732  164.7462 N   0  0  0  0  0  0  0  0  0  0  0  0
  154.9758  136.9313  166.3982 H   0  0  0  0  0  0  0  0  0  0  0  0
  153.5472  137.7390  165.7428 H   0  0  0  0  0  0  0  0  0  0  0  0
  155.9222  135.2028  164.8573 H   0  0  0  0  0  0  0  0  0  0  0  0
  154.2058  135.0780  164.5710 H   0  0  0  0  0  0  0  0  0  0  0  0
  156.3618  135.3374  162.4220 H   0  0  0  0  0  0  0  0  0  0  0  0
  155.4217  133.9090  162.7759 H   0  0  0  0  0  0  0  0  0  0  0  0
  154.5458  135.1344  160.7905 H   0  0  0  0  0  0  0  0  0  0  0  0
  153.3408  135.0251  162.0540 H   0  0  0  0  0  0  0  0  0  0  0  0
  152.0722  136.4817  158.0407 H   0  0  0  0  0  0  0  0  0  0  0  0
  153.7240  142.0891  160.7376 H   0  0  0  0  0  0  0  0  0  0  0  0
  153.0320  142.4719  158.2564 H   0  0  0  0  0  0  0  0  0  0  0  0
  152.5149  141.1039  157.3033 H   0  0  0  0  0  0  0  0  0  0  0  0
  150.5086  141.2728  159.2252 H   0  0  0  0  0  0  0  0  0  0  0  0
  150.6074  142.1539  156.3407 H   0  0  0  0  0  0  0  0  0  0  0  0
  149.8034  140.7835  157.0468 H   0  0  0  0  0  0  0  0  0  0  0  0
  149.0665  143.4902  157.1895 H   0  0  0  0  0  0  0  0  0  0  0  0
  149.7397  143.6658  159.2135 H   0  0  0  0  0  0  0  0  0  0  0  0
  150.8319  143.1033  161.3077 H   0  0  0  0  0  0  0  0  0  0  0  0
  152.4149  143.0642  160.5203 H   0  0  0  0  0  0  0  0  0  0  0  0
  150.6420  145.4855  160.9979 H   0  0  0  0  0  0  0  0  0  0  0  0
  152.3722  145.3347  161.3178 H   0  0  0  0  0  0  0  0  0  0  0  0
  152.4721  144.1310  157.9676 H   0  0  0  0  0  0  0  0  0  0  0  0
  150.9380  144.8890  157.5389 H   0  0  0  0  0  0  0  0  0  0  0  0
  152.9280  137.1665  163.5157 H   0  0  0  0  0  0  0  0  0  0  0  0
  153.8791  138.5876  163.1196 H   0  0  0  0  0  0  0  0  0  0  0  0
  157.1867  137.1777  164.2145 H   0  0  0  0  0  0  0  0  0  0  0  0
  156.4605  138.0448  162.8638 H   0  0  0  0  0  0  0  0  0  0  0  0
  156.9309  139.7529  164.6113 H   0  0  0  0  0  0  0  0  0  0  0  0
  1  2  2  0  0  0  0
  2 29  1  0  0  0  0
  2  3  1  0  0  0  0
  3  4  1  0  0  0  0
  3 30  1  0  0  0  0
  3 31  1  0  0  0  0
  4 27  1  0  0  0  0
  4  5  1  0  0  0  0
  4 28  1  0  0  0  0
  5  6  1  0  0  0  0
  5 32  1  0  0  0  0
  5 33  1  0  0  0  0
  6  7  1  0  0  0  0
  6 34  1  0  0  0  0
  6 35  1  0  0  0  0
  7  8  1  0  0  0  0
  7 36  1  0  0  0  0
  7 37  1  0  0  0  0
  8  9  1  0  0  0  0
  8 27  1  0  0  0  0
  9 14  1  0  0  0  0
  9 10  2  0  0  0  0
 10 11  1  0  0  0  0
 11 12  2  0  0  0  0
 11 38  1  0  0  0  0
 12 13  1  0  0  0  0
 13 17  1  0  0  0  0
 13 14  2  0  0  0  0
 14 15  1  0  0  0  0
 15 16  2  0  0  0  0
 16 17  1  0  0  0  0
 16 39  1  0  0  0  0
 17 18  1  0  0  0  0
 18 19  1  0  0  0  0
 18 40  1  0  0  0  0
 18 41  1  0  0  0  0
 19 20  1  0  0  0  0
 19 22  1  0  0  0  0
 19 42  1  0  0  0  0
 20 21  1  0  0  0  0
 20 43  1  0  0  0  0
 20 44  1  0  0  0  0
 21 45  1  0  0  0  0
 22 26  1  0  0  0  0
 22 23  1  0  0  0  0
 22 46  1  0  0  0  0
 23 24  1  0  0  0  0
 23 47  1  0  0  0  0
 23 48  1  0  0  0  0
 24 25  1  0  0  0  0
 24 49  1  0  0  0  0
 24 50  1  0  0  0  0
 25 26  1  0  0  0  0
 26 51  1  0  0  0  0
 26 52  1  0  0  0  0
 27 53  1  0  0  0  0
 27 54  1  0  0  0  0
 28 29  1  0  0  0  0
 28 55  1  0  0  0  0
 28 56  1  0  0  0  0
 29 57  1  0  0  0  0
M  END
> <s_m_source_file>
AV-unprocessed.smi

> <i_m_source_file_index>
20

> <i_lp_mmshare_version>
43012

> <i_f3d_flags>
0

> <s_epik_input>
W0NIMl0xW05IXUMoPU8pW0NIMl1bQ0BAXTEyW0NIMl1bQ0gyXVtDSDJdTihbQ0gyXTIpYyhuW2NIXW4zKWMoYzM0KW5bY0hdbjRbQ0gyXVtDQEhdKFtDSDJdW09IXSlbQ0BASF01W0NIMl1bQ0gyXU9bQ0gyXTU=

> <s_epik_cmdline>
J2VwaWtfcHl0aG9uJywgJy1waCcsICc3LjAnLCAnLXRuJywgJzgnLCAnLW1hJywgJzIwMCcsICctbWV0YWxfYmluZGluZycsICctaW1hZScsICc8aW5maWxlLm1hZT4nLCAnLW9tYWUnLCAnPG91dGZpbGUubWFlPic=

> <r_lp_tautomer_probability>
1

> <r_epik_Ionization_Penalty>
0.0019697

> <r_epik_Ionization_Penalty_Charging>
0

> <r_epik_Ionization_Penalty_Neutral>
0.0019697

> <r_epik_State_Penalty>
0.00113613

> <r_epik_Charging_Adjusted_Penalty>
0.00113613

> <i_epik_Tot_Q>
0

> <i_epik_Tot_abs_Q>
0

> <r_epik_Metal_State_Penalty>
-0

> <b_epik_Metal_Only>
0

> <s_lp_Force_Field>
OPLS_2005

> <r_lp_Energy>
59.1367

> <b_lp_Chiralities_Consistent>
1

> <s_lp_Variant>
AV-unprocessed.smi:20-6

> <Gold.Version>
5.8.1

> <Gold.Id.Protein>
6NUR|6NUR_protein|mol2

> <Gold.PLP.Fitness>
48.9394

> <Gold.PLP.PLP>
-46.2834

> <Gold.PLP.part.hbond>
-2.9160

> <Gold.PLP.part.metal>
0.0000

> <Gold.PLP.part.buried>
-7.3760

> <Gold.PLP.part.nonpolar>
-36.4033

> <Gold.PLP.part.repulsive>
0.1171

> <Gold.PLP.ligand.clash>
0.0000

> <Gold.PLP.ligand.torsion>
1.6741

> <Gold.PLP.Chemscore.Hbond>
1.7753

> <Gold.PLP.Chemscore.CHOScore>
0.0000

> <Gold.PLP.Chemscore.Metal>
0.0000

> <Gold.Chemscore.Hbonds>
donor molecule, donor type, donor heavy atom, donor atom, acceptor molecule, acceptor atom, score
      L1  H    21    45       P1  8028  0.69
      P1  H  6896  6908       L1    10  1.00

> <Gold.PLP.Chemscore.Internal.Correction>
0.6785

> <Gold.Rescore>
     Score         DG    S(hbond)    S(metal)    S(lipo)     H(rot)  DE(clash)    DE(int)     intcor
     14.76     -16.55       1.49        0.00     105.23       2.43       0.23       1.56       ----

> <Gold.Chemscore.Fitness>
14.7551

> <Gold.Chemscore.DG>
-16.5471

> <Gold.Chemscore.ZeroCoef>
-5.4800

> <Gold.Chemscore.Hbond>
1.4904

> <Gold.Chemscore.Metal>
0.0000

> <Gold.Chemscore.Lipo>
105.2326

> <Gold.Chemscore.Internal_Hbond>
0.0000

> <Gold.Chemscore.DEClash>
0.2296

> <Gold.Chemscore.DEInternal>
1.5624

> <Gold.Chemscore.Rot>
2.4309

> <Gold.Chemscore.Internal.Correction>
   9.000000E+99

> <Gold.Chemscore.Hbonds>
donor molecule, donor type, donor heavy atom, donor atom, acceptor molecule, acceptor atom, score
      L1  H    21    45       P1  8028  0.37
      P1  H  6896  6908       L1    10  0.44

> <Gold.Chemscore.Hbond.Weighted>
-4.9780

> <Gold.Chemscore.Metal.Weighted>
-0.0000

> <Gold.Chemscore.Lipo.Weighted>
-12.3122

> <Gold.Chemscore.Internal_Hbond.Weighted>
0.0000

> <Gold.Chemscore.DEClash.Weighted>
0.2296

> <Gold.Chemscore.DEInternal.Weighted>
1.5624

> <Gold.Chemscore.Rot.Weighted>
6.2231

> <Gold.Chemscore.Internal.Correction.Weighted>
   9.000000E+99

> <Gold.Protein.RotatedTorsions>
[ 6907 6896 6895 6894 ] final  -79.30 input  -60.11 | X-H torsion
[ 7974 7965 7964 7962 ] final -163.84 input  175.53 | X-H torsion
[ 8008 7997 7996 7995 ] final -108.73 input   59.86 | X-H torsion
[ 10167 10162 10161 10158 ] final -109.27 input  -65.29 | X-H torsion
[ 10718 10713 10712 10709 ] final -109.63 input   66.30 | X-H torsion
[ 10763 10752 10751 10750 ] final  -39.68 input  -60.55 | X-H torsion
[ 11005 11000 10999 10996 ] final  -56.67 input  -57.11 | X-H torsion

> <Gold.Protein.ActiveResidues>
 VAL166  LYS551  ARG553  GLY616  TRP617  ASP618  TYR619  PRO620  LYS621  CYS622 
 ASP623  PHE694  ASN695  SER759  ASP760  ASP761  ALA762  ILE779  LEU786  VAL792 
 PHE793  MET794  SER795  GLU796  ALA797  LYS798  CYS799  TRP800  GLU811  SER814 

> <Gold.Protein.RotatedAtoms>
  150.6953  134.4143  159.5175 H   0  0  0  0  0  0  0  0  0  0  0  0  # atno 6907 bound_to 6896
  152.1896  134.8681  160.0528 H   0  0  0  0  0  0  0  0  0  0  0  0  # atno 6908 bound_to 6896
  151.9641  133.3670  159.4083 H   0  0  0  0  0  0  0  0  0  0  0  0  # atno 6909 bound_to 6896
  144.7314  140.3048  143.6198 H   0  0  0  0  0  0  0  0  0  0  0  0  # atno 7974 bound_to 7965
  154.9487  140.0401  157.2133 H   0  0  0  0  0  0  0  0  0  0  0  0  # atno 8008 bound_to 7997
  154.7999  140.2850  155.5907 H   0  0  0  0  0  0  0  0  0  0  0  0  # atno 8009 bound_to 7997
  156.2960  140.2557  156.2865 H   0  0  0  0  0  0  0  0  0  0  0  0  # atno 8010 bound_to 7997
  140.1571  143.4150  152.1452 H   0  0  0  0  0  0  0  0  0  0  0  0  # atno 10167 bound_to 10162
  156.0547  130.5773  150.8126 H   0  0  0  0  0  0  0  0  0  0  0  0  # atno 10718 bound_to 10713
  153.9334  135.6769  153.4745 H   0  0  0  0  0  0  0  0  0  0  0  0  # atno 10763 bound_to 10752
  153.0968  135.4847  154.8790 H   0  0  0  0  0  0  0  0  0  0  0  0  # atno 10764 bound_to 10752
  154.7416  135.3162  154.8676 H   0  0  0  0  0  0  0  0  0  0  0  0  # atno 10765 bound_to 10752
  141.1130  133.6610  156.4654 H   0  0  0  0  0  0  0  0  0  0  0  0  # atno 11005 bound_to 11000
  145.7724  139.1862  143.2205 LP  0  0  0  0  0  0  0  0  0  0  0  0  # atno 17320 bound_to 7965
  146.0900  140.7667  142.9600 LP  0  0  0  0  0  0  0  0  0  0  0  0  # atno 17321 bound_to 7965
  139.5398  144.7245  151.4771 LP  0  0  0  0  0  0  0  0  0  0  0  0  # atno 17342 bound_to 10162
  140.6666  143.8384  150.6949 LP  0  0  0  0  0  0  0  0  0  0  0  0  # atno 17343 bound_to 10162
  157.5506  131.0943  150.9701 LP  0  0  0  0  0  0  0  0  0  0  0  0  # atno 17370 bound_to 10713
  156.9962  130.5582  149.5307 LP  0  0  0  0  0  0  0  0  0  0  0  0  # atno 17371 bound_to 10713
  140.4722  134.6742  157.5134 LP  0  0  0  0  0  0  0  0  0  0  0  0  # atno 17394 bound_to 11000
  140.0036  134.6799  155.9491 LP  0  0  0  0  0  0  0  0  0  0  0  0  # atno 17395 bound_to 11000

$$$$
