AV-unprocessed.smi:447|AV-procd|sdf|2602|dock6
  -GOLD-   2262022593D 1   1.00000     0.00000
 Structure written by MMmdl.
 46 48  0  0  0  0  0  0  0  0  2 V2000
  149.3528  137.2937  155.6004 C   0  0  0  0  0  0  0  0  0  0  0  0
  147.9026  137.5155  155.1867 C   0  0  0  0  0  0  0  0  0  0  0  0
  147.0731  137.8797  156.0176 O   0  0  0  0  0  0  0  0  0  0  0  0
  147.6094  137.2872  153.8974 N   0  0  0  0  0  0  0  0  0  0  0  0
  146.3049  137.4962  153.2705 C   0  0  1  0  0  0  0  0  0  0  0  0
  146.4246  138.6137  152.2246 C   0  0  0  0  0  0  0  0  0  0  0  0
  145.7332  136.2539  152.6451 C   0  0  0  0  0  0  0  0  0  0  0  0
  146.3363  135.4755  151.6999 N   0  3  0  0  0  0  0  0  0  0  0  0
  145.4947  134.4238  151.3404 C   0  0  0  0  0  0  0  0  0  0  0  0
  145.6721  133.3834  150.4338 C   0  0  0  0  0  0  0  0  0  0  0  0
  144.6020  132.4751  150.2959 C   0  0  0  0  0  0  0  0  0  0  0  0
  143.4136  132.6224  151.0404 C   0  0  0  0  0  0  0  0  0  0  0  0
  143.2458  133.6823  151.9556 C   0  0  0  0  0  0  0  0  0  0  0  0
  144.3115  134.5719  152.0911 C   0  0  0  0  0  0  0  0  0  0  0  0
  144.5039  135.7080  152.8855 N   0  0  0  0  0  0  0  0  0  0  0  0
  143.4212  136.1385  153.7854 C   0  0  0  0  0  0  0  0  0  0  0  0
  142.7874  137.4860  153.3811 C   0  0  2  0  0  0  0  0  0  0  0  0
  143.4603  138.5090  154.0841 O   0  0  0  0  0  0  0  0  0  0  0  0
  141.2849  137.5295  153.6159 C   0  0  0  0  0  0  0  0  0  0  0  0
  140.6310  136.4269  154.2068 C   0  0  0  0  0  0  0  0  0  0  0  0
  139.2378  136.4538  154.4105 C   0  0  0  0  0  0  0  0  0  0  0  0
  138.4919  137.5873  154.0345 C   0  0  0  0  0  0  0  0  0  0  0  0
  139.1399  138.6937  153.4529 C   0  0  0  0  0  0  0  0  0  0  0  0
  140.5316  138.6635  153.2406 C   0  0  0  0  0  0  0  0  0  0  0  0
  149.6903  136.3012  155.3008 H   0  0  0  0  0  0  0  0  0  0  0  0
  149.4649  137.3800  156.6817 H   0  0  0  0  0  0  0  0  0  0  0  0
  149.9979  138.0364  155.1304 H   0  0  0  0  0  0  0  0  0  0  0  0
  148.3587  136.9851  153.2917 H   0  0  0  0  0  0  0  0  0  0  0  0
  145.6191  137.8314  154.0490 H   0  0  0  0  0  0  0  0  0  0  0  0
  145.4576  138.8458  151.7783 H   0  0  0  0  0  0  0  0  0  0  0  0
  147.1013  138.3309  151.4174 H   0  0  0  0  0  0  0  0  0  0  0  0
  146.8056  139.5320  152.6725 H   0  0  0  0  0  0  0  0  0  0  0  0
  146.5802  133.2711  149.8597 H   0  0  0  0  0  0  0  0  0  0  0  0
  144.6933  131.6506  149.6036 H   0  0  0  0  0  0  0  0  0  0  0  0
  142.6139  131.9083  150.9065 H   0  0  0  0  0  0  0  0  0  0  0  0
  142.3307  133.7875  152.5193 H   0  0  0  0  0  0  0  0  0  0  0  0
  142.6650  135.3541  153.8132 H   0  0  0  0  0  0  0  0  0  0  0  0
  143.8348  136.1957  154.7934 H   0  0  0  0  0  0  0  0  0  0  0  0
  142.9756  137.6730  152.3241 H   0  0  0  0  0  0  0  0  0  0  0  0
  143.1560  139.3439  153.7620 H   0  0  0  0  0  0  0  0  0  0  0  0
  141.1944  135.5544  154.5032 H   0  0  0  0  0  0  0  0  0  0  0  0
  138.7418  135.6072  154.8613 H   0  0  0  0  0  0  0  0  0  0  0  0
  137.4245  137.6097  154.1969 H   0  0  0  0  0  0  0  0  0  0  0  0
  138.5692  139.5648  153.1670 H   0  0  0  0  0  0  0  0  0  0  0  0
  141.0202  139.5154  152.7905 H   0  0  0  0  0  0  0  0  0  0  0  0
  147.2627  135.6537  151.3342 H   0  0  0  0  0  0  0  0  0  0  0  0
  1  2  1  0  0  0  0
  1 25  1  0  0  0  0
  1 26  1  0  0  0  0
  1 27  1  0  0  0  0
  2  3  2  0  0  0  0
  2  4  1  0  0  0  0
  4  5  1  0  0  0  0
  4 28  1  0  0  0  0
  5  6  1  0  0  0  0
  5  7  1  0  0  0  0
  5 29  1  0  0  0  0
  6 30  1  0  0  0  0
  6 31  1  0  0  0  0
  6 32  1  0  0  0  0
  7 15  1  0  0  0  0
  7  8  2  0  0  0  0
  8  9  1  0  0  0  0
  8 46  1  0  0  0  0
  9 14  2  0  0  0  0
  9 10  1  0  0  0  0
 10 11  2  0  0  0  0
 10 33  1  0  0  0  0
 11 12  1  0  0  0  0
 11 34  1  0  0  0  0
 12 13  2  0  0  0  0
 12 35  1  0  0  0  0
 13 14  1  0  0  0  0
 13 36  1  0  0  0  0
 14 15  1  0  0  0  0
 15 16  1  0  0  0  0
 16 17  1  0  0  0  0
 16 37  1  0  0  0  0
 16 38  1  0  0  0  0
 17 18  1  0  0  0  0
 17 19  1  0  0  0  0
 17 39  1  0  0  0  0
 18 40  1  0  0  0  0
 19 24  1  0  0  0  0
 19 20  2  0  0  0  0
 20 21  1  0  0  0  0
 20 41  1  0  0  0  0
 21 22  2  0  0  0  0
 21 42  1  0  0  0  0
 22 23  1  0  0  0  0
 22 43  1  0  0  0  0
 23 24  2  0  0  0  0
 23 44  1  0  0  0  0
 24 45  1  0  0  0  0
M  CHG  1   8   1
M  END
> <s_m_source_file>
AV-unprocessed.smi

> <i_m_source_file_index>
447

> <i_lp_mmshare_version>
43012

> <i_f3d_flags>
0

> <s_epik_input>
W0NIM11DKD1PKVtOSF1bQ0BIXShbQ0gzXSljKG4xKW4oYyhjMTIpW2NIXVtjSF1bY0hdW2NIXTIpW0NIMl1bQ0BIXShbT0hdKWMzW2NIXVtjSF1bY0hdW2NIXVtjSF0z

> <s_epik_cmdline>
J2VwaWtfcHl0aG9uJywgJy1waCcsICc3LjAnLCAnLXRuJywgJzgnLCAnLW1hJywgJzIwMCcsICctbWV0YWxfYmluZGluZycsICctaW1hZScsICc8aW5maWxlLm1hZT4nLCAnLW9tYWUnLCAnPG91dGZpbGUubWFlPic=

> <r_epik_Ionization_Penalty>
0.950381

> <r_epik_Ionization_Penalty_Charging>
0.950379

> <r_epik_Ionization_Penalty_Neutral>
1.42115e-06

> <r_epik_State_Penalty>
0.994584

> <r_epik_Charging_Adjusted_Penalty>
1.94496

> <i_epik_Tot_Q>
1

> <i_epik_Tot_abs_Q>
1

> <r_epik_Metal_State_Penalty>
1.10485

> <b_epik_Metal_Only>
0

> <s_lp_Force_Field>
OPLS_2005

> <r_lp_Energy>
11.3805

> <b_lp_Chiralities_Consistent>
1

> <s_lp_Variant>
AV-unprocessed.smi:447-6

> <Gold.Version>
5.8.1

> <Gold.Id.Protein>
6NUR|6NUR_protein|mol2

> <Gold.PLP.Fitness>
51.9750

> <Gold.PLP.PLP>
-42.2196

> <Gold.PLP.part.hbond>
-2.6243

> <Gold.PLP.part.metal>
0.0000

> <Gold.PLP.part.buried>
-2.1806

> <Gold.PLP.part.nonpolar>
-37.3487

> <Gold.PLP.part.repulsive>
0.0628

> <Gold.PLP.ligand.clash>
0.0000

> <Gold.PLP.ligand.torsion>
0.6238

> <Gold.PLP.Chemscore.Hbond>
3.6560

> <Gold.PLP.Chemscore.CHOScore>
0.0000

> <Gold.PLP.Chemscore.Metal>
0.0000

> <Gold.Chemscore.Hbonds>
donor molecule, donor type, donor heavy atom, donor atom, acceptor molecule, acceptor atom, score
      L1  H     4    28       P1  7948  1.00
      L1  H     8    46       P1  7948  1.73
      L1  H    18    40       P1 10175  0.74

> <Gold.PLP.Chemscore.Internal.Correction>
0.0350

> <Gold.Rescore>
     Score         DG    S(hbond)    S(metal)    S(lipo)     H(rot)  DE(clash)    DE(int)     intcor
     19.07     -20.03       2.55        0.00     104.43       2.41       0.05       0.90       ----

> <Gold.Chemscore.Fitness>
19.0733

> <Gold.Chemscore.DG>
-20.0295

> <Gold.Chemscore.ZeroCoef>
-5.4800

> <Gold.Chemscore.Hbond>
2.5461

> <Gold.Chemscore.Metal>
0.0000

> <Gold.Chemscore.Lipo>
104.4285

> <Gold.Chemscore.Internal_Hbond>
0.0000

> <Gold.Chemscore.DEClash>
0.0516

> <Gold.Chemscore.DEInternal>
0.9047

> <Gold.Chemscore.Rot>
2.4112

> <Gold.Chemscore.Internal.Correction>
   9.000000E+99

> <Gold.Chemscore.Hbonds>
donor molecule, donor type, donor heavy atom, donor atom, acceptor molecule, acceptor atom, score
      L1  H     4    28       P1  7948  0.97
      L1  H     8    46       P1  7948  0.83
      L1  H    18    40       P1 10175  0.74

> <Gold.Chemscore.Hbond.Weighted>
-8.5040

> <Gold.Chemscore.Metal.Weighted>
-0.0000

> <Gold.Chemscore.Lipo.Weighted>
-12.2181

> <Gold.Chemscore.Internal_Hbond.Weighted>
0.0000

> <Gold.Chemscore.DEClash.Weighted>
0.0516

> <Gold.Chemscore.DEInternal.Weighted>
0.9047

> <Gold.Chemscore.Rot.Weighted>
6.1727

> <Gold.Chemscore.Internal.Correction.Weighted>
   9.000000E+99

> <Gold.Protein.RotatedTorsions>
[ 6907 6896 6895 6894 ] final  -55.21 input  -60.11 | X-H torsion
[ 7974 7965 7964 7962 ] final -139.74 input  175.53 | X-H torsion
[ 8008 7997 7996 7995 ] final  -96.33 input   59.86 | X-H torsion
[ 10167 10162 10161 10158 ] final  131.79 input  -65.29 | X-H torsion
[ 10718 10713 10712 10709 ] final  -97.44 input   66.30 | X-H torsion
[ 10763 10752 10751 10750 ] final   98.57 input  -60.55 | X-H torsion
[ 11005 11000 10999 10996 ] final  139.54 input  -57.11 | X-H torsion

> <Gold.Protein.ActiveResidues>
 VAL166  LYS551  ARG553  GLY616  TRP617  ASP618  TYR619  PRO620  LYS621  CYS622 
 ASP623  PHE694  ASN695  SER759  ASP760  ASP761  ALA762  ILE779  LEU786  VAL792 
 PHE793  MET794  SER795  GLU796  ALA797  LYS798  CYS799  TRP800  GLU811  SER814 

> <Gold.Protein.RotatedAtoms>
  150.8271  134.7507  159.6821 H   0  0  0  0  0  0  0  0  0  0  0  0  # atno 6907 bound_to 6896
  152.4380  134.5644  159.9913 H   0  0  0  0  0  0  0  0  0  0  0  0  # atno 6908 bound_to 6896
  151.5814  133.3340  159.3045 H   0  0  0  0  0  0  0  0  0  0  0  0  # atno 6909 bound_to 6896
  144.8653  140.6283  143.5302 H   0  0  0  0  0  0  0  0  0  0  0  0  # atno 7974 bound_to 7965
  154.7731  140.0472  157.1067 H   0  0  0  0  0  0  0  0  0  0  0  0  # atno 8008 bound_to 7997
  154.9796  140.3100  155.4932 H   0  0  0  0  0  0  0  0  0  0  0  0  # atno 8009 bound_to 7997
  156.2924  140.2238  156.4895 H   0  0  0  0  0  0  0  0  0  0  0  0  # atno 8010 bound_to 7997
  139.5368  144.6691  151.4758 H   0  0  0  0  0  0  0  0  0  0  0  0  # atno 10167 bound_to 10162
  156.0084  130.5194  150.6375 H   0  0  0  0  0  0  0  0  0  0  0  0  # atno 10718 bound_to 10713
  153.2907  135.4143  155.1164 H   0  0  0  0  0  0  0  0  0  0  0  0  # atno 10763 bound_to 10752
  154.8519  135.3517  154.5985 H   0  0  0  0  0  0  0  0  0  0  0  0  # atno 10764 bound_to 10752
  153.6407  135.7057  153.5300 H   0  0  0  0  0  0  0  0  0  0  0  0  # atno 10765 bound_to 10752
  140.0262  134.9373  157.0573 H   0  0  0  0  0  0  0  0  0  0  0  0  # atno 11005 bound_to 11000
  145.4234  139.1560  143.4062 LP  0  0  0  0  0  0  0  0  0  0  0  0  # atno 17320 bound_to 7965
  146.2891  140.4346  142.8746 LP  0  0  0  0  0  0  0  0  0  0  0  0  # atno 17321 bound_to 7965
  140.6579  143.8561  150.6855 LP  0  0  0  0  0  0  0  0  0  0  0  0  # atno 17342 bound_to 10162
  140.1946  143.4008  152.1837 LP  0  0  0  0  0  0  0  0  0  0  0  0  # atno 17343 bound_to 10162
  157.4162  131.0830  151.1175 LP  0  0  0  0  0  0  0  0  0  0  0  0  # atno 17370 bound_to 10713
  157.1791  130.6301  149.5666 LP  0  0  0  0  0  0  0  0  0  0  0  0  # atno 17371 bound_to 10713
  140.4302  134.1788  155.7168 LP  0  0  0  0  0  0  0  0  0  0  0  0  # atno 17394 bound_to 11000
  141.1804  133.8426  157.1277 LP  0  0  0  0  0  0  0  0  0  0  0  0  # atno 17395 bound_to 11000

$$$$
