AV-unprocessed.smi:1965|AV-procd|sdf|7942|dock10
  -GOLD-   2272010113D 1   1.00000     0.00000
 Structure written by MMmdl.
 36 38  0  0  0  0  0  0  0  0  3 V2000
  144.7900  134.0867  153.1441 O   0  0  0  0  0  0  0  0  0  0  0  0
  145.7627  134.8397  153.1234 C   0  0  0  0  0  0  0  0  0  0  0  0
  145.8177  136.0119  153.8076 N   0  5  0  0  0  0  0  0  0  0  0  0
  146.2022  137.1676  153.2348 C   0  0  0  0  0  0  0  0  0  0  0  0
  145.9298  137.4823  151.9630 N   0  0  0  0  0  0  0  0  0  0  0  0
  146.4214  138.7324  151.5830 C   0  0  0  0  0  0  0  0  0  0  0  0
  147.0859  139.3834  152.5883 C   0  0  0  0  0  0  0  0  0  0  0  0
  147.1170  138.4390  154.0498 S   0  0  0  0  0  0  0  0  0  0  0  0
  146.8359  134.4942  152.3881 N   0  0  0  0  0  0  0  0  0  0  0  0
  146.9603  133.3010  151.5611 C   0  0  2  0  0  0  0  0  0  0  0  0
  145.8435  133.1349  150.5124 C   0  0  0  0  0  0  0  0  0  0  0  0
  145.5441  131.6230  150.4733 C   0  0  0  0  0  0  0  0  0  0  0  0
  146.5188  131.0077  151.3950 N   0  3  2  0  0  0  0  0  0  0  0  0
  146.1534  129.7066  151.9960 C   0  0  0  0  0  0  0  0  0  0  0  0
  147.3231  129.1999  152.8647 C   0  0  0  0  0  0  0  0  0  0  0  0
  147.7685  130.2541  153.8996 C   0  0  0  0  0  0  0  0  0  0  0  0
  148.0492  131.6106  153.2246 C   0  0  0  0  0  0  0  0  0  0  0  0
  146.8224  132.0348  152.4018 C   0  0  1  0  0  0  0  0  0  0  0  0
  146.2530  139.0800  150.5745 H   0  0  0  0  0  0  0  0  0  0  0  0
  147.5593  140.3533  152.5588 H   0  0  0  0  0  0  0  0  0  0  0  0
  147.6233  135.1260  152.3989 H   0  0  0  0  0  0  0  0  0  0  0  0
  147.9315  133.2978  151.0618 H   0  0  0  0  0  0  0  0  0  0  0  0
  144.9441  133.6818  150.8003 H   0  0  0  0  0  0  0  0  0  0  0  0
  146.1594  133.5137  149.5397 H   0  0  0  0  0  0  0  0  0  0  0  0
  144.5268  131.4349  150.8202 H   0  0  0  0  0  0  0  0  0  0  0  0
  145.6436  131.2049  149.4713 H   0  0  0  0  0  0  0  0  0  0  0  0
  145.2497  129.8159  152.5975 H   0  0  0  0  0  0  0  0  0  0  0  0
  145.9316  128.9880  151.2062 H   0  0  0  0  0  0  0  0  0  0  0  0
  147.0407  128.2760  153.3701 H   0  0  0  0  0  0  0  0  0  0  0  0
  148.1680  128.9518  152.2208 H   0  0  0  0  0  0  0  0  0  0  0  0
  146.9869  130.3778  154.6505 H   0  0  0  0  0  0  0  0  0  0  0  0
  148.6554  129.9082  154.4315 H   0  0  0  0  0  0  0  0  0  0  0  0
  148.2788  132.3655  153.9775 H   0  0  0  0  0  0  0  0  0  0  0  0
  148.9263  131.5315  152.5808 H   0  0  0  0  0  0  0  0  0  0  0  0
  145.9591  132.1373  153.0640 H   0  0  0  0  0  0  0  0  0  0  0  0
  147.3677  130.8704  150.8655 H   0  0  0  0  0  0  0  0  0  0  0  0
  1  2  2  0  0  0  0
  2  3  1  0  0  0  0
  2  9  1  0  0  0  0
  3  4  1  0  0  0  0
  4  8  1  0  0  0  0
  4  5  2  0  0  0  0
  5  6  1  0  0  0  0
  6  7  2  0  0  0  0
  6 19  1  0  0  0  0
  7  8  1  0  0  0  0
  7 20  1  0  0  0  0
  9 10  1  0  0  0  0
  9 21  1  0  0  0  0
 10 18  1  0  0  0  0
 10 11  1  0  0  0  0
 10 22  1  0  0  0  0
 11 12  1  0  0  0  0
 11 23  1  0  0  0  0
 11 24  1  0  0  0  0
 12 13  1  0  0  0  0
 12 25  1  0  0  0  0
 12 26  1  0  0  0  0
 13 18  1  0  0  0  0
 13 14  1  0  0  0  0
 13 36  1  0  0  0  0
 14 15  1  0  0  0  0
 14 27  1  0  0  0  0
 14 28  1  0  0  0  0
 15 16  1  0  0  0  0
 15 29  1  0  0  0  0
 15 30  1  0  0  0  0
 16 17  1  0  0  0  0
 16 31  1  0  0  0  0
 16 32  1  0  0  0  0
 17 18  1  0  0  0  0
 17 33  1  0  0  0  0
 17 34  1  0  0  0  0
 18 35  1  0  0  0  0
M  CHG  1   3  -1
M  CHG  1  13   1
M  END
> <s_m_source_file>
AV-unprocessed.smi

> <i_m_source_file_index>
1965

> <i_lp_mmshare_version>
43012

> <i_f3d_flags>
0

> <s_epik_input>
czFbY0hdW2NIXW5jMVtOSF1DKD1PKVtOSF1bQ0BIXShbQ0gyXVtDSDJdMilbQ0BASF0oTjIzKVtDSDJdW0NIMl1bQ0gyXVtDSDJdMw==

> <s_epik_cmdline>
J2VwaWtfcHl0aG9uJywgJy1waCcsICc3LjAnLCAnLXRuJywgJzgnLCAnLW1hJywgJzIwMCcsICctbWV0YWxfYmluZGluZycsICctaW1hZScsICc8aW5maWxlLm1hZT4nLCAnLW9tYWUnLCAnPG91dGZpbGUubWFlPic=

> <r_lp_tautomer_probability>
1

> <r_epik_Ionization_Penalty>
7.4116

> <r_epik_Ionization_Penalty_Charging>
6.13869

> <r_epik_Ionization_Penalty_Neutral>
1.27291

> <r_epik_State_Penalty>
6.13761

> <r_epik_Charging_Adjusted_Penalty>
12.2763

> <i_epik_Tot_Q>
0

> <i_epik_Tot_abs_Q>
2

> <r_epik_Metal_State_Penalty>
2.08142

> <b_epik_Metal_Only>
1

> <s_lp_Force_Field>
OPLS_2005

> <r_lp_Energy>
26.2692

> <b_lp_Chiralities_Consistent>
1

> <s_lp_Variant>
AV-unprocessed.smi:1965-11

> <Gold.Version>
5.8.1

> <Gold.Id.Protein>
6NUR|6NUR_protein|mol2

> <Gold.PLP.Fitness>
35.5692

> <Gold.PLP.PLP>
-27.4658

> <Gold.PLP.part.hbond>
-2.0000

> <Gold.PLP.part.metal>
0.0000

> <Gold.PLP.part.buried>
-0.1377

> <Gold.PLP.part.nonpolar>
-26.2844

> <Gold.PLP.part.repulsive>
0.4694

> <Gold.PLP.ligand.clash>
0.0000

> <Gold.PLP.ligand.torsion>
0.6824

> <Gold.PLP.Chemscore.Hbond>
2.0000

> <Gold.PLP.Chemscore.CHOScore>
1.1526

> <Gold.PLP.Chemscore.Metal>
0.0000

> <Gold.Chemscore.Hbonds>
donor molecule, donor type, donor heavy atom, donor atom, acceptor molecule, acceptor atom, score
      L1  H     9    21       P1  7948  1.00
      L1  H    13    36       P1 10747  1.00
      L1  C     6    19       P1 10171  0.65
      L1  C     7    20       P1  7957  0.50

> <Gold.PLP.Chemscore.Internal.Correction>
0.0103

> <Gold.Rescore>
     Score         DG    S(hbond)    S(metal)    S(lipo)     H(rot)  DE(clash)    DE(int)     intcor
     16.25     -19.10       1.99        0.00      81.34       1.00       0.18       2.67       ----

> <Gold.Chemscore.Fitness>
16.2460

> <Gold.Chemscore.DG>
-19.0961

> <Gold.Chemscore.ZeroCoef>
-5.4800

> <Gold.Chemscore.Hbond>
1.9937

> <Gold.Chemscore.Metal>
0.0000

> <Gold.Chemscore.Lipo>
81.3416

> <Gold.Chemscore.Internal_Hbond>
0.0000

> <Gold.Chemscore.DEClash>
0.1771

> <Gold.Chemscore.DEInternal>
2.6729

> <Gold.Chemscore.Rot>
1.0000

> <Gold.Chemscore.Internal.Correction>
   9.000000E+99

> <Gold.Chemscore.Hbonds>
donor molecule, donor type, donor heavy atom, donor atom, acceptor molecule, acceptor atom, score
      L1  H     9    21       P1  7948  0.99
      L1  H    13    36       P1 10747  1.00

> <Gold.Chemscore.Hbond.Weighted>
-6.6591

> <Gold.Chemscore.Metal.Weighted>
-0.0000

> <Gold.Chemscore.Lipo.Weighted>
-9.5170

> <Gold.Chemscore.Internal_Hbond.Weighted>
0.0000

> <Gold.Chemscore.DEClash.Weighted>
0.1771

> <Gold.Chemscore.DEInternal.Weighted>
2.6729

> <Gold.Chemscore.Rot.Weighted>
2.5600

> <Gold.Chemscore.Internal.Correction.Weighted>
   9.000000E+99

> <Gold.Protein.RotatedTorsions>
[ 6907 6896 6895 6894 ] final  -50.28 input  -60.11 | X-H torsion
[ 7974 7965 7964 7962 ] final   -7.81 input  175.53 | X-H torsion
[ 8008 7997 7996 7995 ] final  103.00 input   59.86 | X-H torsion
[ 10167 10162 10161 10158 ] final  -50.66 input  -65.29 | X-H torsion
[ 10718 10713 10712 10709 ] final   96.54 input   66.30 | X-H torsion
[ 10763 10752 10751 10750 ] final   -7.17 input  -60.55 | X-H torsion
[ 11005 11000 10999 10996 ] final  123.26 input  -57.11 | X-H torsion

> <Gold.Protein.ActiveResidues>
 VAL166  LYS551  ARG553  GLY616  TRP617  ASP618  TYR619  PRO620  LYS621  CYS622 
 ASP623  PHE694  ASN695  SER759  ASP760  ASP761  ALA762  ILE779  LEU786  VAL792 
 PHE793  MET794  SER795  GLU796  ALA797  LYS798  CYS799  TRP800  GLU811  SER814 

> <Gold.Protein.RotatedAtoms>
  150.8723  134.8099  159.7163 H   0  0  0  0  0  0  0  0  0  0  0  0  # atno 6907 bound_to 6896
  152.4723  134.4927  159.9710 H   0  0  0  0  0  0  0  0  0  0  0  0  # atno 6908 bound_to 6896
  151.5014  133.3465  159.2905 H   0  0  0  0  0  0  0  0  0  0  0  0  # atno 6909 bound_to 6896
  146.2297  140.2375  142.8342 H   0  0  0  0  0  0  0  0  0  0  0  0  # atno 7974 bound_to 7965
  156.1444  140.3172  155.8547 H   0  0  0  0  0  0  0  0  0  0  0  0  # atno 8008 bound_to 7997
  155.4092  140.0505  157.3050 H   0  0  0  0  0  0  0  0  0  0  0  0  # atno 8009 bound_to 7997
  154.5004  140.2127  155.9371 H   0  0  0  0  0  0  0  0  0  0  0  0  # atno 8010 bound_to 7997
  140.6626  143.2649  151.4392 H   0  0  0  0  0  0  0  0  0  0  0  0  # atno 10167 bound_to 10162
  157.6925  131.0581  150.4507 H   0  0  0  0  0  0  0  0  0  0  0  0  # atno 10718 bound_to 10713
  153.4227  135.7010  153.6283 H   0  0  0  0  0  0  0  0  0  0  0  0  # atno 10763 bound_to 10752
  153.4731  135.3710  155.2402 H   0  0  0  0  0  0  0  0  0  0  0  0  # atno 10764 bound_to 10752
  154.8722  135.4048  154.3597 H   0  0  0  0  0  0  0  0  0  0  0  0  # atno 10765 bound_to 10752
  139.9305  134.9641  156.8233 H   0  0  0  0  0  0  0  0  0  0  0  0  # atno 11005 bound_to 11000
  144.9510  140.8178  143.5572 LP  0  0  0  0  0  0  0  0  0  0  0  0  # atno 17320 bound_to 7965
  145.2335  139.2104  143.5030 LP  0  0  0  0  0  0  0  0  0  0  0  0  # atno 17321 bound_to 7965
  139.5865  144.1593  152.2035 LP  0  0  0  0  0  0  0  0  0  0  0  0  # atno 17342 bound_to 10162
  140.0934  144.5601  150.7038 LP  0  0  0  0  0  0  0  0  0  0  0  0  # atno 17343 bound_to 10162
  156.4858  130.4084  149.6435 LP  0  0  0  0  0  0  0  0  0  0  0  0  # atno 17370 bound_to 10713
  156.3463  130.7409  151.2361 LP  0  0  0  0  0  0  0  0  0  0  0  0  # atno 17371 bound_to 10713
  140.6216  133.9988  155.7621 LP  0  0  0  0  0  0  0  0  0  0  0  0  # atno 17394 bound_to 11000
  141.0890  133.9946  157.3268 LP  0  0  0  0  0  0  0  0  0  0  0  0  # atno 17395 bound_to 11000

$$$$
