AV-unprocessed.smi:1803|AV-procd|sdf|7294|dock3
  -GOLD-   22720 8553D 1   1.00000     0.00000
 Structure written by MMmdl.
 35 37  0  0  0  0  0  0  0  0  3 V2000
  147.8321  133.5685  158.4868 O   0  0  0  0  0  0  0  0  0  0  0  0
  148.1804  134.7483  158.4891 C   0  0  0  0  0  0  0  0  0  0  0  0
  148.7914  135.3460  159.5450 N   0  5  0  0  0  0  0  0  0  0  0  0
  148.1984  135.4795  160.7460 C   0  0  0  0  0  0  0  0  0  0  0  0
  148.4151  136.5377  161.5437 N   0  0  0  0  0  0  0  0  0  0  0  0
  147.7130  136.4725  162.7393 N   0  0  0  0  0  0  0  0  0  0  0  0
  146.9686  135.3690  162.8063 C   0  0  0  0  0  0  0  0  0  0  0  0
  147.0672  134.3036  161.4204 S   0  0  0  0  0  0  0  0  0  0  0  0
  147.9479  135.4963  157.3942 N   0  0  0  0  0  0  0  0  0  0  0  0
  147.3172  135.0355  156.1634 C   0  0  1  0  0  0  0  0  0  0  0  0
  146.0768  135.8456  155.7545 C   0  0  0  0  0  0  0  0  0  0  0  0
  146.1646  135.9798  154.2216 C   0  0  0  0  0  0  0  0  0  0  0  0
  147.3402  135.1883  153.7914 N   0  3  2  0  0  0  0  0  0  0  0  0
  146.9580  133.8292  153.3191 C   0  0  0  0  0  0  0  0  0  0  0  0
  148.1805  132.9284  153.0999 C   0  0  0  0  0  0  0  0  0  0  0  0
  148.9894  132.8110  154.3942 C   0  0  0  0  0  0  0  0  0  0  0  0
  149.4249  134.2068  154.8533 C   0  0  0  0  0  0  0  0  0  0  0  0
  148.2500  135.2043  154.9618 C   0  0  2  0  0  0  0  0  0  0  0  0
  146.3594  135.1806  163.6777 H   0  0  0  0  0  0  0  0  0  0  0  0
  148.2360  136.4634  157.4255 H   0  0  0  0  0  0  0  0  0  0  0  0
  147.0434  133.9841  156.2659 H   0  0  0  0  0  0  0  0  0  0  0  0
  145.1628  135.3382  156.0648 H   0  0  0  0  0  0  0  0  0  0  0  0
  146.0740  136.8349  156.2146 H   0  0  0  0  0  0  0  0  0  0  0  0
  145.2452  135.6712  153.7217 H   0  0  0  0  0  0  0  0  0  0  0  0
  146.3404  137.0231  153.9569 H   0  0  0  0  0  0  0  0  0  0  0  0
  146.2884  133.3593  154.0414 H   0  0  0  0  0  0  0  0  0  0  0  0
  146.3957  133.9228  152.3894 H   0  0  0  0  0  0  0  0  0  0  0  0
  147.8594  131.9394  152.7715 H   0  0  0  0  0  0  0  0  0  0  0  0
  148.8056  133.3338  152.3032 H   0  0  0  0  0  0  0  0  0  0  0  0
  148.3917  132.3280  155.1680 H   0  0  0  0  0  0  0  0  0  0  0  0
  149.8639  132.1789  154.2367 H   0  0  0  0  0  0  0  0  0  0  0  0
  149.9535  134.1419  155.8051 H   0  0  0  0  0  0  0  0  0  0  0  0
  150.1479  134.5961  154.1354 H   0  0  0  0  0  0  0  0  0  0  0  0
  148.6762  136.2088  155.0100 H   0  0  0  0  0  0  0  0  0  0  0  0
  147.7958  135.6567  153.0214 H   0  0  0  0  0  0  0  0  0  0  0  0
  1  2  2  0  0  0  0
  2  3  1  0  0  0  0
  2  9  1  0  0  0  0
  3  4  1  0  0  0  0
  4  8  1  0  0  0  0
  4  5  2  0  0  0  0
  5  6  1  0  0  0  0
  6  7  2  0  0  0  0
  7  8  1  0  0  0  0
  7 19  1  0  0  0  0
  9 10  1  0  0  0  0
  9 20  1  0  0  0  0
 10 18  1  0  0  0  0
 10 11  1  0  0  0  0
 10 21  1  0  0  0  0
 11 12  1  0  0  0  0
 11 22  1  0  0  0  0
 11 23  1  0  0  0  0
 12 13  1  0  0  0  0
 12 24  1  0  0  0  0
 12 25  1  0  0  0  0
 13 18  1  0  0  0  0
 13 14  1  0  0  0  0
 13 35  1  0  0  0  0
 14 15  1  0  0  0  0
 14 26  1  0  0  0  0
 14 27  1  0  0  0  0
 15 16  1  0  0  0  0
 15 28  1  0  0  0  0
 15 29  1  0  0  0  0
 16 17  1  0  0  0  0
 16 30  1  0  0  0  0
 16 31  1  0  0  0  0
 17 18  1  0  0  0  0
 17 32  1  0  0  0  0
 17 33  1  0  0  0  0
 18 34  1  0  0  0  0
M  CHG  1   3  -1
M  CHG  1  13   1
M  END
> <s_m_source_file>
AV-unprocessed.smi

> <i_m_source_file_index>
1803

> <i_lp_mmshare_version>
43012

> <i_f3d_flags>
0

> <s_epik_input>
czFbY0hdbm5jMVtOSF1DKD1PKVtOSF1bQ0BIXShbQ0gyXVtDSDJdMilbQ0BASF0oTjIzKVtDSDJdW0NIMl1bQ0gyXVtDSDJdMw==

> <s_epik_cmdline>
J2VwaWtfcHl0aG9uJywgJy1waCcsICc3LjAnLCAnLXRuJywgJzgnLCAnLW1hJywgJzIwMCcsICctbWV0YWxfYmluZGluZycsICctaW1hZScsICc8aW5maWxlLm1hZT4nLCAnLW9tYWUnLCAnPG91dGZpbGUubWFlPic=

> <r_lp_tautomer_probability>
1

> <r_epik_Ionization_Penalty>
3.78828

> <r_epik_Ionization_Penalty_Charging>
3.7591

> <r_epik_Ionization_Penalty_Neutral>
0.0291838

> <r_epik_State_Penalty>
3.757

> <r_epik_Charging_Adjusted_Penalty>
7.51609

> <i_epik_Tot_Q>
0

> <i_epik_Tot_abs_Q>
2

> <r_epik_Metal_State_Penalty>
0.558016

> <b_epik_Metal_Only>
1

> <s_lp_Force_Field>
OPLS_2005

> <r_lp_Energy>
31.4395

> <b_lp_Chiralities_Consistent>
1

> <s_lp_Variant>
AV-unprocessed.smi:1803-16

> <Gold.Version>
5.8.1

> <Gold.Id.Protein>
6NUR|6NUR_protein|mol2

> <Gold.PLP.Fitness>
38.8426

> <Gold.PLP.PLP>
-25.4834

> <Gold.PLP.part.hbond>
-3.0000

> <Gold.PLP.part.metal>
0.0000

> <Gold.PLP.part.buried>
-4.8720

> <Gold.PLP.part.nonpolar>
-18.1611

> <Gold.PLP.part.repulsive>
0.0270

> <Gold.PLP.ligand.clash>
0.0000

> <Gold.PLP.ligand.torsion>
0.8252

> <Gold.PLP.Chemscore.Hbond>
5.0000

> <Gold.PLP.Chemscore.CHOScore>
0.0000

> <Gold.PLP.Chemscore.Metal>
0.0000

> <Gold.Chemscore.Hbonds>
donor molecule, donor type, donor heavy atom, donor atom, acceptor molecule, acceptor atom, score
      L1  H    13    35       P1  7948  2.00
      P1  H  6896  6908       L1     3  1.68
      P1  H  6931  6943       L1     5  0.65

> <Gold.PLP.Chemscore.Internal.Correction>
0.0095

> <Gold.Rescore>
     Score         DG    S(hbond)    S(metal)    S(lipo)     H(rot)  DE(clash)    DE(int)     intcor
     14.07     -14.82       1.96        0.00      45.89       1.00       0.05       0.71       ----

> <Gold.Chemscore.Fitness>
14.0653

> <Gold.Chemscore.DG>
-14.8228

> <Gold.Chemscore.ZeroCoef>
-5.4800

> <Gold.Chemscore.Hbond>
1.9563

> <Gold.Chemscore.Metal>
0.0000

> <Gold.Chemscore.Lipo>
45.8879

> <Gold.Chemscore.Internal_Hbond>
0.0000

> <Gold.Chemscore.DEClash>
0.0485

> <Gold.Chemscore.DEInternal>
0.7091

> <Gold.Chemscore.Rot>
1.0000

> <Gold.Chemscore.Internal.Correction>
   9.000000E+99

> <Gold.Chemscore.Hbonds>
donor molecule, donor type, donor heavy atom, donor atom, acceptor molecule, acceptor atom, score
      L1  H    13    35       P1  7948  1.00
      P1  H  6896  6908       L1     3  0.53
      P1  H  6931  6943       L1     5  0.06

> <Gold.Chemscore.Hbond.Weighted>
-6.5340

> <Gold.Chemscore.Metal.Weighted>
-0.0000

> <Gold.Chemscore.Lipo.Weighted>
-5.3689

> <Gold.Chemscore.Internal_Hbond.Weighted>
0.0000

> <Gold.Chemscore.DEClash.Weighted>
0.0485

> <Gold.Chemscore.DEInternal.Weighted>
0.7091

> <Gold.Chemscore.Rot.Weighted>
2.5600

> <Gold.Chemscore.Internal.Correction.Weighted>
   9.000000E+99

> <Gold.Protein.RotatedTorsions>
[ 6907 6896 6895 6894 ] final -171.89 input  -60.11 | X-H torsion
[ 7974 7965 7964 7962 ] final   62.80 input  175.53 | X-H torsion
[ 8008 7997 7996 7995 ] final   66.97 input   59.86 | X-H torsion
[ 10167 10162 10161 10158 ] final  -40.26 input  -65.29 | X-H torsion
[ 10718 10713 10712 10709 ] final  -95.34 input   66.30 | X-H torsion
[ 10763 10752 10751 10750 ] final  140.29 input  -60.55 | X-H torsion
[ 11005 11000 10999 10996 ] final  -23.63 input  -57.11 | X-H torsion

> <Gold.Protein.ActiveResidues>
 VAL166  LYS551  ARG553  GLY616  TRP617  ASP618  TYR619  PRO620  LYS621  CYS622 
 ASP623  PHE694  ASN695  SER759  ASP760  ASP761  ALA762  ILE779  LEU786  VAL792 
 PHE793  MET794  SER795  GLU796  ALA797  LYS798  CYS799  TRP800  GLU811  SER814 

> <Gold.Protein.RotatedAtoms>
  151.5311  133.3449  159.2918 H   0  0  0  0  0  0  0  0  0  0  0  0  # atno 6907 bound_to 6896
  150.8593  134.7943  159.7081 H   0  0  0  0  0  0  0  0  0  0  0  0  # atno 6908 bound_to 6896
  152.4617  134.5177  159.9825 H   0  0  0  0  0  0  0  0  0  0  0  0  # atno 6909 bound_to 6896
  145.8692  139.3366  143.0773 H   0  0  0  0  0  0  0  0  0  0  0  0  # atno 7974 bound_to 7965
  155.6857  140.3496  155.4873 H   0  0  0  0  0  0  0  0  0  0  0  0  # atno 8008 bound_to 7997
  155.9568  140.1129  157.0952 H   0  0  0  0  0  0  0  0  0  0  0  0  # atno 8009 bound_to 7997
  154.4134  140.1183  156.5112 H   0  0  0  0  0  0  0  0  0  0  0  0  # atno 8010 bound_to 7997
  140.7039  143.3164  151.2899 H   0  0  0  0  0  0  0  0  0  0  0  0  # atno 10167 bound_to 10162
  156.0042  130.5105  150.6062 H   0  0  0  0  0  0  0  0  0  0  0  0  # atno 10718 bound_to 10713
  153.9203  135.3001  155.3448 H   0  0  0  0  0  0  0  0  0  0  0  0  # atno 10763 bound_to 10752
  154.7579  135.4948  153.9412 H   0  0  0  0  0  0  0  0  0  0  0  0  # atno 10764 bound_to 10752
  153.1145  135.6767  153.9544 H   0  0  0  0  0  0  0  0  0  0  0  0  # atno 10765 bound_to 10752
  140.8770  133.7680  156.0255 H   0  0  0  0  0  0  0  0  0  0  0  0  # atno 11005 bound_to 11000
  145.9157  140.9150  143.0431 LP  0  0  0  0  0  0  0  0  0  0  0  0  # atno 17320 bound_to 7965
  144.6726  140.1220  143.7449 LP  0  0  0  0  0  0  0  0  0  0  0  0  # atno 17321 bound_to 7965
  139.6604  144.0200  152.2688 LP  0  0  0  0  0  0  0  0  0  0  0  0  # atno 17342 bound_to 10162
  139.9765  144.6458  150.7940 LP  0  0  0  0  0  0  0  0  0  0  0  0  # atno 17343 bound_to 10162
  157.3902  131.0794  151.1400 LP  0  0  0  0  0  0  0  0  0  0  0  0  # atno 17370 bound_to 10713
  157.2095  130.6431  149.5768 LP  0  0  0  0  0  0  0  0  0  0  0  0  # atno 17371 bound_to 10713
  140.8506  134.2958  157.5277 LP  0  0  0  0  0  0  0  0  0  0  0  0  # atno 17394 bound_to 11000
  139.8716  134.9466  156.3942 LP  0  0  0  0  0  0  0  0  0  0  0  0  # atno 17395 bound_to 11000

$$$$
