AV-unprocessed.smi:2639|AV-procd|sdf|10266|dock2
  -GOLD-   2272014273D 1   1.00000     0.00000
 Structure written by MMmdl.
 44 45  0  0  0  0  0  0  0  0  2 V2000
  144.8807  134.7595  153.9912 C   0  0  0  0  0  0  0  0  0  0  0  0
  145.0118  135.6265  152.7127 C   0  0  1  0  0  0  0  0  0  0  0  0
  143.7150  136.4747  152.5555 C   0  0  0  0  0  0  0  0  0  0  0  0
  142.5489  135.7363  152.8598 O   0  0  0  0  0  0  0  0  0  0  0  0
  146.1699  136.5258  152.8387 N   0  0  0  0  0  0  0  0  0  0  0  0
  146.2391  137.7396  153.4111 C   0  0  0  0  0  0  0  0  0  0  0  0
  145.2888  138.3028  153.9529 O   0  0  0  0  0  0  0  0  0  0  0  0
  147.4841  138.2392  153.3263 N   0  0  0  0  0  0  0  0  0  0  0  0
  147.9666  139.4962  153.7823 C   0  0  0  0  0  0  0  0  0  0  0  0
  147.1120  140.6131  153.6469 C   0  0  0  0  0  0  0  0  0  0  0  0
  147.5422  141.8771  154.0992 C   0  0  0  0  0  0  0  0  0  0  0  0
  148.7603  142.0097  154.6667 N   0  3  0  0  0  0  0  0  0  0  0  0
  149.6053  140.9695  154.8322 C   0  0  0  0  0  0  0  0  0  0  0  0
  149.2303  139.6814  154.3991 C   0  0  0  0  0  0  0  0  0  0  0  0
  145.2622  134.7147  151.4588 C   0  0  0  0  0  0  0  0  0  0  0  0
  144.0404  133.8351  151.0761 C   0  0  0  0  0  0  0  0  0  0  0  0
  144.2977  132.9963  149.8141 C   0  0  0  0  0  0  0  0  0  0  0  0
  145.5426  132.1152  149.9729 C   0  0  0  0  0  0  0  0  0  0  0  0
  146.7657  132.9681  150.3300 C   0  0  0  0  0  0  0  0  0  0  0  0
  146.5142  133.8060  151.5938 C   0  0  0  0  0  0  0  0  0  0  0  0
  144.1620  133.9519  153.8484 H   0  0  0  0  0  0  0  0  0  0  0  0
  144.5344  135.3422  154.8449 H   0  0  0  0  0  0  0  0  0  0  0  0
  145.8293  134.3100  154.2841 H   0  0  0  0  0  0  0  0  0  0  0  0
  143.7292  137.3425  153.2147 H   0  0  0  0  0  0  0  0  0  0  0  0
  143.6202  136.8705  151.5443 H   0  0  0  0  0  0  0  0  0  0  0  0
  142.7019  135.2475  153.6540 H   0  0  0  0  0  0  0  0  0  0  0  0
  147.0246  136.1705  152.4359 H   0  0  0  0  0  0  0  0  0  0  0  0
  148.1813  137.6237  152.9338 H   0  0  0  0  0  0  0  0  0  0  0  0
  146.1362  140.5067  153.1952 H   0  0  0  0  0  0  0  0  0  0  0  0
  146.9517  142.7790  154.0264 H   0  0  0  0  0  0  0  0  0  0  0  0
  150.5482  141.1947  155.3091 H   0  0  0  0  0  0  0  0  0  0  0  0
  149.9130  138.8611  154.5601 H   0  0  0  0  0  0  0  0  0  0  0  0
  145.4411  135.3731  150.6075 H   0  0  0  0  0  0  0  0  0  0  0  0
  143.7805  133.1675  151.8981 H   0  0  0  0  0  0  0  0  0  0  0  0
  143.1623  134.4521  150.8916 H   0  0  0  0  0  0  0  0  0  0  0  0
  143.4285  132.3737  149.5995 H   0  0  0  0  0  0  0  0  0  0  0  0
  144.4236  133.6571  148.9554 H   0  0  0  0  0  0  0  0  0  0  0  0
  145.3714  131.3717  150.7524 H   0  0  0  0  0  0  0  0  0  0  0  0
  145.7290  131.5628  149.0514 H   0  0  0  0  0  0  0  0  0  0  0  0
  147.6347  132.3263  150.4775 H   0  0  0  0  0  0  0  0  0  0  0  0
  147.0076  133.6287  149.4964 H   0  0  0  0  0  0  0  0  0  0  0  0
  147.4070  134.4014  151.7796 H   0  0  0  0  0  0  0  0  0  0  0  0
  146.4067  133.1380  152.4491 H   0  0  0  0  0  0  0  0  0  0  0  0
  149.0522  142.9331  154.9884 H   0  0  0  0  0  0  0  0  0  0  0  0
  1  2  1  0  0  0  0
  1 21  1  0  0  0  0
  1 22  1  0  0  0  0
  1 23  1  0  0  0  0
  2  3  1  0  0  0  0
  2  5  1  0  0  0  0
  2 15  1  0  0  0  0
  3  4  1  0  0  0  0
  3 24  1  0  0  0  0
  3 25  1  0  0  0  0
  4 26  1  0  0  0  0
  5  6  1  0  0  0  0
  5 27  1  0  0  0  0
  6  7  2  0  0  0  0
  6  8  1  0  0  0  0
  8  9  1  0  0  0  0
  8 28  1  0  0  0  0
  9 14  1  0  0  0  0
  9 10  2  0  0  0  0
 10 11  1  0  0  0  0
 10 29  1  0  0  0  0
 11 12  2  0  0  0  0
 11 30  1  0  0  0  0
 12 13  1  0  0  0  0
 12 44  1  0  0  0  0
 13 14  2  0  0  0  0
 13 31  1  0  0  0  0
 14 32  1  0  0  0  0
 15 20  1  0  0  0  0
 15 16  1  0  0  0  0
 15 33  1  0  0  0  0
 16 17  1  0  0  0  0
 16 34  1  0  0  0  0
 16 35  1  0  0  0  0
 17 18  1  0  0  0  0
 17 36  1  0  0  0  0
 17 37  1  0  0  0  0
 18 19  1  0  0  0  0
 18 38  1  0  0  0  0
 18 39  1  0  0  0  0
 19 20  1  0  0  0  0
 19 40  1  0  0  0  0
 19 41  1  0  0  0  0
 20 42  1  0  0  0  0
 20 43  1  0  0  0  0
M  CHG  1  12   1
M  END
> <s_m_source_file>
AV-unprocessed.smi

> <i_m_source_file_index>
2639

> <i_lp_mmshare_version>
43012

> <i_f3d_flags>
0

> <s_epik_input>
W0NIMl0xW0NIMl1bQ0gyXVtDSDJdW0NIMl1bQ0hdMVtDQF0oW0NIM10pKFtDSDJdW09IXSlbTkhdQyg9TylbTkhdYzJbY0hdW2NIXW5bY0hdW2NIXTI=

> <s_epik_cmdline>
J2VwaWtfcHl0aG9uJywgJy1waCcsICc3LjAnLCAnLXRuJywgJzgnLCAnLW1hJywgJzIwMCcsICctbWV0YWxfYmluZGluZycsICctaW1hZScsICc8aW5maWxlLm1hZT4nLCAnLW9tYWUnLCAnPG91dGZpbGUubWFlPic=

> <r_epik_Ionization_Penalty>
1.0096

> <r_epik_Ionization_Penalty_Charging>
1.00958

> <r_epik_Ionization_Penalty_Neutral>
2.00022e-05

> <r_epik_State_Penalty>
1.05889

> <r_epik_Charging_Adjusted_Penalty>
2.06847

> <i_epik_Tot_Q>
1

> <i_epik_Tot_abs_Q>
1

> <r_epik_Metal_State_Penalty>
1.15945

> <b_epik_Metal_Only>
0

> <s_lp_Force_Field>
OPLS_2005

> <r_lp_Energy>
30.6605

> <b_lp_Chiralities_Consistent>
1

> <s_lp_Variant>
AV-unprocessed.smi:2639-3

> <Gold.Version>
5.8.1

> <Gold.Id.Protein>
6NUR|6NUR_protein|mol2

> <Gold.PLP.Fitness>
44.7448

> <Gold.PLP.PLP>
-34.9904

> <Gold.PLP.part.hbond>
-3.0000

> <Gold.PLP.part.metal>
0.0000

> <Gold.PLP.part.buried>
-3.6245

> <Gold.PLP.part.nonpolar>
-28.3576

> <Gold.PLP.part.repulsive>
0.5379

> <Gold.PLP.ligand.clash>
0.0000

> <Gold.PLP.ligand.torsion>
1.1523

> <Gold.PLP.Chemscore.Hbond>
4.0000

> <Gold.PLP.Chemscore.CHOScore>
0.0000

> <Gold.PLP.Chemscore.Metal>
0.0000

> <Gold.Chemscore.Hbonds>
donor molecule, donor type, donor heavy atom, donor atom, acceptor molecule, acceptor atom, score
      L1  H     5    27       P1  7948  1.00
      L1  H     8    28       P1  7948  1.00
      L1  H    12    44       P1  8028  2.00

> <Gold.PLP.Chemscore.Internal.Correction>
0.0589

> <Gold.Rescore>
     Score         DG    S(hbond)    S(metal)    S(lipo)     H(rot)  DE(clash)    DE(int)     intcor
     16.34     -20.72       2.96        0.00      89.96       2.02       0.57       3.81       ----

> <Gold.Chemscore.Fitness>
16.3359

> <Gold.Chemscore.DG>
-20.7201

> <Gold.Chemscore.ZeroCoef>
-5.4800

> <Gold.Chemscore.Hbond>
2.9571

> <Gold.Chemscore.Metal>
0.0000

> <Gold.Chemscore.Lipo>
89.9636

> <Gold.Chemscore.Internal_Hbond>
0.0000

> <Gold.Chemscore.DEClash>
0.5693

> <Gold.Chemscore.DEInternal>
3.8148

> <Gold.Chemscore.Rot>
2.0165

> <Gold.Chemscore.Internal.Correction>
   9.000000E+99

> <Gold.Chemscore.Hbonds>
donor molecule, donor type, donor heavy atom, donor atom, acceptor molecule, acceptor atom, score
      L1  H     5    27       P1  7948  0.95
      L1  H     8    28       P1  7948  0.99
      L1  H    12    44       P1  8028  0.99

> <Gold.Chemscore.Hbond.Weighted>
-9.8766

> <Gold.Chemscore.Metal.Weighted>
-0.0000

> <Gold.Chemscore.Lipo.Weighted>
-10.5257

> <Gold.Chemscore.Internal_Hbond.Weighted>
0.0000

> <Gold.Chemscore.DEClash.Weighted>
0.5693

> <Gold.Chemscore.DEInternal.Weighted>
3.8148

> <Gold.Chemscore.Rot.Weighted>
5.1622

> <Gold.Chemscore.Internal.Correction.Weighted>
   9.000000E+99

> <Gold.Protein.RotatedTorsions>
[ 6907 6896 6895 6894 ] final  -98.21 input  -60.11 | X-H torsion
[ 7974 7965 7964 7962 ] final    9.13 input  175.53 | X-H torsion
[ 8008 7997 7996 7995 ] final -106.35 input   59.86 | X-H torsion
[ 10167 10162 10161 10158 ] final  -46.47 input  -65.29 | X-H torsion
[ 10718 10713 10712 10709 ] final  133.10 input   66.30 | X-H torsion
[ 10763 10752 10751 10750 ] final  131.41 input  -60.55 | X-H torsion
[ 11005 11000 10999 10996 ] final   27.51 input  -57.11 | X-H torsion

> <Gold.Protein.ActiveResidues>
 VAL166  LYS551  ARG553  GLY616  TRP617  ASP618  TYR619  PRO620  LYS621  CYS622 
 ASP623  PHE694  ASN695  SER759  ASP760  ASP761  ALA762  ILE779  LEU786  VAL792 
 PHE793  MET794  SER795  GLU796  ALA797  LYS798  CYS799  TRP800  GLU811  SER814 

> <Gold.Protein.RotatedAtoms>
  150.7039  134.1230  159.4041 H   0  0  0  0  0  0  0  0  0  0  0  0  # atno 6907 bound_to 6896
  151.9216  135.0293  160.0532 H   0  0  0  0  0  0  0  0  0  0  0  0  # atno 6908 bound_to 6896
  152.2251  133.4979  159.5221 H   0  0  0  0  0  0  0  0  0  0  0  0  # atno 6909 bound_to 6896
  146.2407  139.9829  142.8434 H   0  0  0  0  0  0  0  0  0  0  0  0  # atno 7974 bound_to 7965
  154.9133  140.0409  157.1958 H   0  0  0  0  0  0  0  0  0  0  0  0  # atno 8008 bound_to 7997
  154.8327  140.2901  155.5690 H   0  0  0  0  0  0  0  0  0  0  0  0  # atno 8009 bound_to 7997
  156.2988  140.2498  156.3255 H   0  0  0  0  0  0  0  0  0  0  0  0  # atno 8010 bound_to 7997
  140.6816  143.2829  151.3787 H   0  0  0  0  0  0  0  0  0  0  0  0  # atno 10167 bound_to 10162
  157.4806  131.1085  150.9686 H   0  0  0  0  0  0  0  0  0  0  0  0  # atno 10718 bound_to 10713
  153.7738  135.3178  155.3356 H   0  0  0  0  0  0  0  0  0  0  0  0  # atno 10763 bound_to 10752
  154.8186  135.4619  154.0718 H   0  0  0  0  0  0  0  0  0  0  0  0  # atno 10764 bound_to 10752
  153.1986  135.6919  153.8345 H   0  0  0  0  0  0  0  0  0  0  0  0  # atno 10765 bound_to 10752
  140.3255  134.2496  155.7710 H   0  0  0  0  0  0  0  0  0  0  0  0  # atno 11005 bound_to 11000
  145.1575  140.9655  143.4397 LP  0  0  0  0  0  0  0  0  0  0  0  0  # atno 17320 bound_to 7965
  145.0147  139.3477  143.6102 LP  0  0  0  0  0  0  0  0  0  0  0  0  # atno 17321 bound_to 7965
  139.6142  144.1036  152.2329 LP  0  0  0  0  0  0  0  0  0  0  0  0  # atno 17342 bound_to 10162
  140.0459  144.5970  150.7374 LP  0  0  0  0  0  0  0  0  0  0  0  0  # atno 17343 bound_to 10162
  157.0420  130.5753  149.5357 LP  0  0  0  0  0  0  0  0  0  0  0  0  # atno 17370 bound_to 10713
  156.0120  130.5212  150.8017 LP  0  0  0  0  0  0  0  0  0  0  0  0  # atno 17371 bound_to 10713
  141.2076  133.7801  157.0108 LP  0  0  0  0  0  0  0  0  0  0  0  0  # atno 17394 bound_to 11000
  140.0905  134.9595  157.1768 LP  0  0  0  0  0  0  0  0  0  0  0  0  # atno 17395 bound_to 11000

$$$$
