AV-unprocessed.smi:2063|AV-procd|sdf|8414|dock1
  -GOLD-   2272011103D 1   1.00000     0.00000
 Structure written by MMmdl.
 38 39  0  0  0  0  0  0  0  0  2 V2000
  146.8728  140.4772  152.5630 C   0  0  0  0  0  0  0  0  0  0  0  0
  147.4423  139.4629  153.5655 C   0  0  0  0  0  0  0  0  0  0  0  0
  146.4013  138.9679  154.5797 C   0  0  0  0  0  0  0  0  0  0  0  0
  148.6846  139.9650  154.2326 C   0  0  0  0  0  0  0  0  0  0  0  0
  149.8828  139.3948  154.0706 N   0  0  0  0  0  0  0  0  0  0  0  0
  150.8748  140.0445  154.7902 N   0  0  0  0  0  0  0  0  0  0  0  0
  150.4191  141.1006  155.4780 C   0  0  0  0  0  0  0  0  0  0  0  0
  151.2196  141.8623  156.2418 N   0  5  0  0  0  0  0  0  0  0  0  0
  150.7693  142.3452  157.4222 C   0  0  0  0  0  0  0  0  0  0  0  0
  149.6433  142.1797  157.8973 O   0  0  0  0  0  0  0  0  0  0  0  0
  151.6811  143.0645  158.0927 N   0  0  0  0  0  0  0  0  0  0  0  0
  151.4945  143.7008  159.3950 C   0  0  2  0  0  0  0  0  0  0  0  0
  151.4226  145.2286  159.2206 C   0  0  0  0  0  0  0  0  0  0  0  0
  152.6433  143.2760  160.3298 C   0  0  1  0  0  0  0  0  0  0  0  0
  152.4085  143.5697  161.8132 C   0  0  0  0  0  0  0  0  0  0  0  0
  153.2475  142.5230  162.5311 C   0  0  0  0  0  0  0  0  0  0  0  0
  153.6316  141.5315  161.4303 C   0  0  0  0  0  0  0  0  0  0  0  0
  152.7949  141.8642  160.3329 O   0  0  0  0  0  0  0  0  0  0  0  0
  148.6845  141.3611  155.2983 S   0  0  0  0  0  0  0  0  0  0  0  0
  147.6152  140.7420  151.8096 H   0  0  0  0  0  0  0  0  0  0  0  0
  146.5615  141.3958  153.0615 H   0  0  0  0  0  0  0  0  0  0  0  0
  146.0049  140.0709  152.0435 H   0  0  0  0  0  0  0  0  0  0  0  0
  147.7388  138.5906  152.9816 H   0  0  0  0  0  0  0  0  0  0  0  0
  146.8171  138.1886  155.2190 H   0  0  0  0  0  0  0  0  0  0  0  0
  145.5288  138.5515  154.0756 H   0  0  0  0  0  0  0  0  0  0  0  0
  146.0580  139.7785  155.2231 H   0  0  0  0  0  0  0  0  0  0  0  0
  152.5894  143.1676  157.6652 H   0  0  0  0  0  0  0  0  0  0  0  0
  150.5555  143.3532  159.8294 H   0  0  0  0  0  0  0  0  0  0  0  0
  151.2418  145.7294  160.1715 H   0  0  0  0  0  0  0  0  0  0  0  0
  150.6121  145.5124  158.5486 H   0  0  0  0  0  0  0  0  0  0  0  0
  152.3509  145.6238  158.8064 H   0  0  0  0  0  0  0  0  0  0  0  0
  153.5833  143.7290  160.0081 H   0  0  0  0  0  0  0  0  0  0  0  0
  152.6832  144.5889  162.0860 H   0  0  0  0  0  0  0  0  0  0  0  0
  151.3567  143.4267  162.0651 H   0  0  0  0  0  0  0  0  0  0  0  0
  154.1369  142.9599  162.9865 H   0  0  0  0  0  0  0  0  0  0  0  0
  152.6685  142.0406  163.3191 H   0  0  0  0  0  0  0  0  0  0  0  0
  154.6741  141.6663  161.1386 H   0  0  0  0  0  0  0  0  0  0  0  0
  153.4937  140.4931  161.7320 H   0  0  0  0  0  0  0  0  0  0  0  0
  1  2  1  0  0  0  0
  1 20  1  0  0  0  0
  1 21  1  0  0  0  0
  1 22  1  0  0  0  0
  2  3  1  0  0  0  0
  2  4  1  0  0  0  0
  2 23  1  0  0  0  0
  3 24  1  0  0  0  0
  3 25  1  0  0  0  0
  3 26  1  0  0  0  0
  4 19  1  0  0  0  0
  4  5  2  0  0  0  0
  5  6  1  0  0  0  0
  6  7  2  0  0  0  0
  7  8  1  0  0  0  0
  7 19  1  0  0  0  0
  8  9  1  0  0  0  0
  9 10  2  0  0  0  0
  9 11  1  0  0  0  0
 11 12  1  0  0  0  0
 11 27  1  0  0  0  0
 12 13  1  0  0  0  0
 12 14  1  0  0  0  0
 12 28  1  0  0  0  0
 13 29  1  0  0  0  0
 13 30  1  0  0  0  0
 13 31  1  0  0  0  0
 14 18  1  0  0  0  0
 14 15  1  0  0  0  0
 14 32  1  0  0  0  0
 15 16  1  0  0  0  0
 15 33  1  0  0  0  0
 15 34  1  0  0  0  0
 16 17  1  0  0  0  0
 16 35  1  0  0  0  0
 16 36  1  0  0  0  0
 17 18  1  0  0  0  0
 17 37  1  0  0  0  0
 17 38  1  0  0  0  0
M  CHG  1   8  -1
M  END
> <s_m_source_file>
AV-unprocessed.smi

> <i_m_source_file_index>
2063

> <i_lp_mmshare_version>
43012

> <i_f3d_flags>
0

> <s_epik_input>
W0NIM11bQ0hdKFtDSDNdKWMxbm5jKHMxKVtOSF1DKD1PKVtOSF1bQ0BIXShbQ0gzXSlbQ0BASF0yW0NIMl1bQ0gyXVtDSDJdTzI=

> <s_epik_cmdline>
J2VwaWtfcHl0aG9uJywgJy1waCcsICc3LjAnLCAnLXRuJywgJzgnLCAnLW1hJywgJzIwMCcsICctbWV0YWxfYmluZGluZycsICctaW1hZScsICc8aW5maWxlLm1hZT4nLCAnLW9tYWUnLCAnPG91dGZpbGUubWFlPic=

> <r_lp_tautomer_probability>
1

> <r_epik_Ionization_Penalty>
4.37022

> <r_epik_Ionization_Penalty_Charging>
4.21437

> <r_epik_Ionization_Penalty_Neutral>
0.15585

> <r_epik_State_Penalty>
4.21389

> <r_epik_Charging_Adjusted_Penalty>
8.42826

> <i_epik_Tot_Q>
-1

> <i_epik_Tot_abs_Q>
1

> <r_epik_Metal_State_Penalty>
0.693772

> <b_epik_Metal_Only>
1

> <s_lp_Force_Field>
OPLS_2005

> <r_lp_Energy>
10.221

> <b_lp_Chiralities_Consistent>
1

> <s_lp_Variant>
AV-unprocessed.smi:2063-7

> <Gold.Version>
5.8.1

> <Gold.Id.Protein>
6NUR|6NUR_protein|mol2

> <Gold.PLP.Fitness>
41.2772

> <Gold.PLP.PLP>
-39.1883

> <Gold.PLP.part.hbond>
-1.0361

> <Gold.PLP.part.metal>
0.0000

> <Gold.PLP.part.buried>
-3.3938

> <Gold.PLP.part.nonpolar>
-34.1512

> <Gold.PLP.part.repulsive>
1.0132

> <Gold.PLP.ligand.clash>
0.0000

> <Gold.PLP.ligand.torsion>
0.5364

> <Gold.PLP.Chemscore.Hbond>
1.0000

> <Gold.PLP.Chemscore.CHOScore>
0.0000

> <Gold.PLP.Chemscore.Metal>
0.0000

> <Gold.Chemscore.Hbonds>
donor molecule, donor type, donor heavy atom, donor atom, acceptor molecule, acceptor atom, score
      P1  H  7989  7998       L1     6  0.90

> <Gold.PLP.Chemscore.Internal.Correction>
0.1618

> <Gold.Rescore>
     Score         DG    S(hbond)    S(metal)    S(lipo)     H(rot)  DE(clash)    DE(int)     intcor
     11.31     -13.39       0.04        0.00      96.92       1.39       0.21       1.87       ----

> <Gold.Chemscore.Fitness>
11.3062

> <Gold.Chemscore.DG>
-13.3877

> <Gold.Chemscore.ZeroCoef>
-5.4800

> <Gold.Chemscore.Hbond>
0.0375

> <Gold.Chemscore.Metal>
0.0000

> <Gold.Chemscore.Lipo>
96.9169

> <Gold.Chemscore.Internal_Hbond>
0.0000

> <Gold.Chemscore.DEClash>
0.2116

> <Gold.Chemscore.DEInternal>
1.8699

> <Gold.Chemscore.Rot>
1.3893

> <Gold.Chemscore.Internal.Correction>
   9.000000E+99

> <Gold.Chemscore.Hbonds>
donor molecule, donor type, donor heavy atom, donor atom, acceptor molecule, acceptor atom, score
      P1  H  7989  7998       L1     6  0.05

> <Gold.Chemscore.Hbond.Weighted>
-0.1251

> <Gold.Chemscore.Metal.Weighted>
-0.0000

> <Gold.Chemscore.Lipo.Weighted>
-11.3393

> <Gold.Chemscore.Internal_Hbond.Weighted>
0.0000

> <Gold.Chemscore.DEClash.Weighted>
0.2116

> <Gold.Chemscore.DEInternal.Weighted>
1.8699

> <Gold.Chemscore.Rot.Weighted>
3.5567

> <Gold.Chemscore.Internal.Correction.Weighted>
   9.000000E+99

> <Gold.Protein.RotatedTorsions>
[ 6907 6896 6895 6894 ] final  163.26 input  -60.11 | X-H torsion
[ 7974 7965 7964 7962 ] final  -70.77 input  175.53 | X-H torsion
[ 8008 7997 7996 7995 ] final  -25.80 input   59.86 | X-H torsion
[ 10167 10162 10161 10158 ] final  179.77 input  -65.29 | X-H torsion
[ 10718 10713 10712 10709 ] final  175.73 input   66.30 | X-H torsion
[ 10763 10752 10751 10750 ] final  -15.05 input  -60.55 | X-H torsion
[ 11005 11000 10999 10996 ] final   71.61 input  -57.11 | X-H torsion

> <Gold.Protein.ActiveResidues>
 VAL166  LYS551  ARG553  GLY616  TRP617  ASP618  TYR619  PRO620  LYS621  CYS622 
 ASP623  PHE694  ASN695  SER759  ASP760  ASP761  ALA762  ILE779  LEU786  VAL792 
 PHE793  MET794  SER795  GLU796  ALA797  LYS798  CYS799  TRP800  GLU811  SER814 

> <Gold.Protein.RotatedAtoms>
  151.9279  133.3603  159.3919 H   0  0  0  0  0  0  0  0  0  0  0  0  # atno 6907 bound_to 6896
  150.7023  134.4568  159.5371 H   0  0  0  0  0  0  0  0  0  0  0  0  # atno 6908 bound_to 6896
  152.2203  134.8419  160.0537 H   0  0  0  0  0  0  0  0  0  0  0  0  # atno 6909 bound_to 6896
  145.6867  140.9168  143.0803 H   0  0  0  0  0  0  0  0  0  0  0  0  # atno 7974 bound_to 7965
  154.4457  140.1916  156.0676 H   0  0  0  0  0  0  0  0  0  0  0  0  # atno 8008 bound_to 7997
  156.0535  140.3305  155.7352 H   0  0  0  0  0  0  0  0  0  0  0  0  # atno 8009 bound_to 7997
  155.5520  140.0596  157.2838 H   0  0  0  0  0  0  0  0  0  0  0  0  # atno 8010 bound_to 7997
  139.5351  144.2521  152.0776 H   0  0  0  0  0  0  0  0  0  0  0  0  # atno 10167 bound_to 10162
  156.9305  130.9969  151.2988 H   0  0  0  0  0  0  0  0  0  0  0  0  # atno 10718 bound_to 10713
  153.5375  135.7014  153.5653 H   0  0  0  0  0  0  0  0  0  0  0  0  # atno 10763 bound_to 10752
  153.3633  135.3964  155.1734 H   0  0  0  0  0  0  0  0  0  0  0  0  # atno 10764 bound_to 10752
  154.8677  135.3794  154.4877 H   0  0  0  0  0  0  0  0  0  0  0  0  # atno 10765 bound_to 10752
  139.9534  134.7187  156.0809 H   0  0  0  0  0  0  0  0  0  0  0  0  # atno 11005 bound_to 11000
  144.7009  139.8767  143.7444 LP  0  0  0  0  0  0  0  0  0  0  0  0  # atno 17320 bound_to 7965
  146.0918  139.3908  143.0401 LP  0  0  0  0  0  0  0  0  0  0  0  0  # atno 17321 bound_to 7965
  140.1990  144.4677  150.6441 LP  0  0  0  0  0  0  0  0  0  0  0  0  # atno 17342 bound_to 10162
  140.6553  143.2236  151.5984 LP  0  0  0  0  0  0  0  0  0  0  0  0  # atno 17343 bound_to 10162
  157.5850  130.8403  149.8576 LP  0  0  0  0  0  0  0  0  0  0  0  0  # atno 17370 bound_to 10713
  156.0449  130.3730  150.1342 LP  0  0  0  0  0  0  0  0  0  0  0  0  # atno 17371 bound_to 10713
  141.1201  133.6615  156.3194 LP  0  0  0  0  0  0  0  0  0  0  0  0  # atno 17394 bound_to 11000
  140.5665  134.5882  157.5447 LP  0  0  0  0  0  0  0  0  0  0  0  0  # atno 17395 bound_to 11000

$$$$
