AV-unprocessed.smi:2227|AV-procd|sdf|9022|dock5
  -GOLD-   2272012223D 1   1.00000     0.00000
 Structure written by MMmdl.
 42 44  0  0  0  0  0  0  0  0  1 V2000
  147.3431  141.1766  155.1878 C   0  0  0  0  0  0  0  0  0  0  0  0
  148.1013  140.5985  153.9845 C   0  0  0  0  0  0  0  0  0  0  0  0
  147.2480  139.5961  153.1937 C   0  0  0  0  0  0  0  0  0  0  0  0
  149.4189  140.0026  154.4015 C   0  0  0  0  0  0  0  0  0  0  0  0
  149.7634  138.7445  154.1366 N   0  0  0  0  0  0  0  0  0  0  0  0
  151.0208  138.5852  154.7057 C   0  0  0  0  0  0  0  0  0  0  0  0
  151.3973  139.7598  155.3079 C   0  0  0  0  0  0  0  0  0  0  0  0
  150.3591  140.6633  155.1137 N   0  0  0  0  0  0  0  0  0  0  0  0
  150.3428  142.0340  155.6048 C   0  0  0  0  0  0  0  0  0  0  0  0
  150.4754  142.0874  157.1291 C   0  0  0  0  0  0  0  0  0  0  0  0
  149.5988  141.5996  157.8423 O   0  0  0  0  0  0  0  0  0  0  0  0
  151.5727  142.6920  157.6103 N   0  0  0  0  0  0  0  0  0  0  0  0
  151.8903  142.8883  159.0203 C   0  0  0  0  0  0  0  0  0  0  0  0
  151.8083  144.3542  159.4055 C   0  0  0  0  0  0  0  0  0  0  0  0
  151.7193  144.7879  160.8497 C   0  0  0  0  0  0  0  0  0  0  0  0
  150.5270  144.9522  159.9346 C   0  0  0  0  0  0  0  0  0  0  0  0
  153.2490  142.3204  159.3984 C   0  0  0  0  0  0  0  0  0  0  0  0
  153.3974  140.9169  159.9379 C   0  0  0  0  0  0  0  0  0  0  0  0
  153.6358  142.1030  160.8428 C   0  0  0  0  0  0  0  0  0  0  0  0
  147.9406  141.9329  155.6982 H   0  0  0  0  0  0  0  0  0  0  0  0
  147.0981  140.4008  155.9139 H   0  0  0  0  0  0  0  0  0  0  0  0
  146.4105  141.6472  154.8761 H   0  0  0  0  0  0  0  0  0  0  0  0
  148.2911  141.4295  153.3084 H   0  0  0  0  0  0  0  0  0  0  0  0
  147.7792  139.2419  152.3098 H   0  0  0  0  0  0  0  0  0  0  0  0
  146.3166  140.0526  152.8576 H   0  0  0  0  0  0  0  0  0  0  0  0
  146.9906  138.7264  153.7993 H   0  0  0  0  0  0  0  0  0  0  0  0
  151.5509  137.6465  154.6403 H   0  0  0  0  0  0  0  0  0  0  0  0
  152.2938  140.0197  155.8513 H   0  0  0  0  0  0  0  0  0  0  0  0
  151.1771  142.5783  155.1610 H   0  0  0  0  0  0  0  0  0  0  0  0
  149.4323  142.5277  155.2632 H   0  0  0  0  0  0  0  0  0  0  0  0
  152.2362  143.0602  156.9444 H   0  0  0  0  0  0  0  0  0  0  0  0
  151.1371  142.3635  159.6120 H   0  0  0  0  0  0  0  0  0  0  0  0
  152.3964  145.0033  158.7589 H   0  0  0  0  0  0  0  0  0  0  0  0
  151.6554  144.0160  161.6139 H   0  0  0  0  0  0  0  0  0  0  0  0
  152.2605  145.6866  161.1383 H   0  0  0  0  0  0  0  0  0  0  0  0
  150.2726  145.9596  159.6119 H   0  0  0  0  0  0  0  0  0  0  0  0
  149.6821  144.2858  160.0940 H   0  0  0  0  0  0  0  0  0  0  0  0
  154.0533  142.6621  158.7495 H   0  0  0  0  0  0  0  0  0  0  0  0
  152.4934  140.3356  160.1075 H   0  0  0  0  0  0  0  0  0  0  0  0
  154.2654  140.3449  159.6163 H   0  0  0  0  0  0  0  0  0  0  0  0
  154.6630  142.3235  161.1254 H   0  0  0  0  0  0  0  0  0  0  0  0
  152.8886  142.2998  161.6086 H   0  0  0  0  0  0  0  0  0  0  0  0
  1  2  1  0  0  0  0
  1 20  1  0  0  0  0
  1 21  1  0  0  0  0
  1 22  1  0  0  0  0
  2  3  1  0  0  0  0
  2  4  1  0  0  0  0
  2 23  1  0  0  0  0
  3 24  1  0  0  0  0
  3 25  1  0  0  0  0
  3 26  1  0  0  0  0
  4  8  1  0  0  0  0
  4  5  2  0  0  0  0
  5  6  1  0  0  0  0
  6  7  2  0  0  0  0
  6 27  1  0  0  0  0
  7  8  1  0  0  0  0
  7 28  1  0  0  0  0
  8  9  1  0  0  0  0
  9 10  1  0  0  0  0
  9 29  1  0  0  0  0
  9 30  1  0  0  0  0
 10 11  2  0  0  0  0
 10 12  1  0  0  0  0
 12 13  1  0  0  0  0
 12 31  1  0  0  0  0
 13 14  1  0  0  0  0
 13 17  1  0  0  0  0
 13 32  1  0  0  0  0
 14 16  1  0  0  0  0
 14 15  1  0  0  0  0
 14 33  1  0  0  0  0
 15 16  1  0  0  0  0
 15 34  1  0  0  0  0
 15 35  1  0  0  0  0
 16 36  1  0  0  0  0
 16 37  1  0  0  0  0
 17 19  1  0  0  0  0
 17 18  1  0  0  0  0
 17 38  1  0  0  0  0
 18 19  1  0  0  0  0
 18 39  1  0  0  0  0
 18 40  1  0  0  0  0
 19 41  1  0  0  0  0
 19 42  1  0  0  0  0
M  END
> <s_m_source_file>
AV-unprocessed.smi

> <i_m_source_file_index>
2227

> <i_lp_mmshare_version>
43012

> <i_f3d_flags>
0

> <s_epik_input>
W0NIM11bQ0hdKFtDSDNdKWMxbltjSF1bY0hdbjFbQ0gyXUMoPU8pW05IXVtDSF0oW0NIXTJbQ0gyXVtDSDJdMilbQ0hdM1tDSDJdW0NIMl0z

> <s_epik_cmdline>
J2VwaWtfcHl0aG9uJywgJy1waCcsICc3LjAnLCAnLXRuJywgJzgnLCAnLW1hJywgJzIwMCcsICctbWV0YWxfYmluZGluZycsICctaW1hZScsICc8aW5maWxlLm1hZT4nLCAnLW9tYWUnLCAnPG91dGZpbGUubWFlPic=

> <r_lp_tautomer_probability>
1

> <r_epik_Ionization_Penalty>
0.615412

> <r_epik_Ionization_Penalty_Charging>
0.615412

> <r_epik_Ionization_Penalty_Neutral>
4.7269e-08

> <r_epik_State_Penalty>
0.630977

> <r_epik_Charging_Adjusted_Penalty>
1.24639

> <i_epik_Tot_Q>
0

> <i_epik_Tot_abs_Q>
0

> <r_epik_Metal_State_Penalty>
0.305199

> <b_epik_Metal_Only>
0

> <s_lp_Force_Field>
OPLS_2005

> <r_lp_Energy>
23.5493

> <b_lp_Chiralities_Consistent>
1

> <s_lp_Variant>
AV-unprocessed.smi:2227-2

> <Gold.Version>
5.8.1

> <Gold.Id.Protein>
6NUR|6NUR_protein|mol2

> <Gold.PLP.Fitness>
43.6797

> <Gold.PLP.PLP>
-43.9219

> <Gold.PLP.part.hbond>
0.0000

> <Gold.PLP.part.metal>
0.0000

> <Gold.PLP.part.buried>
-2.3852

> <Gold.PLP.part.nonpolar>
-41.8841

> <Gold.PLP.part.repulsive>
0.3311

> <Gold.PLP.ligand.clash>
0.0000

> <Gold.PLP.ligand.torsion>
1.2164

> <Gold.PLP.Chemscore.Hbond>
0.0000

> <Gold.PLP.Chemscore.CHOScore>
0.0000

> <Gold.PLP.Chemscore.Metal>
0.0000

> <Gold.PLP.Chemscore.Internal.Correction>
2.1906

> <Gold.Rescore>
     Score         DG    S(hbond)    S(metal)    S(lipo)     H(rot)  DE(clash)    DE(int)     intcor
     13.23     -14.69       0.00        0.00     115.07       1.66       0.14       1.32       ----

> <Gold.Chemscore.Fitness>
13.2256

> <Gold.Chemscore.DG>
-14.6866

> <Gold.Chemscore.ZeroCoef>
-5.4800

> <Gold.Chemscore.Hbond>
0.0000

> <Gold.Chemscore.Metal>
0.0000

> <Gold.Chemscore.Lipo>
115.0689

> <Gold.Chemscore.Internal_Hbond>
0.0000

> <Gold.Chemscore.DEClash>
0.1364

> <Gold.Chemscore.DEInternal>
1.3245

> <Gold.Chemscore.Rot>
1.6627

> <Gold.Chemscore.Internal.Correction>
   9.000000E+99

> <Gold.Chemscore.Hbond.Weighted>
-0.0000

> <Gold.Chemscore.Metal.Weighted>
-0.0000

> <Gold.Chemscore.Lipo.Weighted>
-13.4631

> <Gold.Chemscore.Internal_Hbond.Weighted>
0.0000

> <Gold.Chemscore.DEClash.Weighted>
0.1364

> <Gold.Chemscore.DEInternal.Weighted>
1.3245

> <Gold.Chemscore.Rot.Weighted>
4.2565

> <Gold.Chemscore.Internal.Correction.Weighted>
   9.000000E+99

> <Gold.Protein.RotatedTorsions>
[ 6907 6896 6895 6894 ] final -124.45 input  -60.11 | X-H torsion
[ 7974 7965 7964 7962 ] final   -3.75 input  175.53 | X-H torsion
[ 8008 7997 7996 7995 ] final  134.84 input   59.86 | X-H torsion
[ 10167 10162 10161 10158 ] final  123.24 input  -65.29 | X-H torsion
[ 10718 10713 10712 10709 ] final    1.39 input   66.30 | X-H torsion
[ 10763 10752 10751 10750 ] final   -6.77 input  -60.55 | X-H torsion
[ 11005 11000 10999 10996 ] final   89.94 input  -57.11 | X-H torsion

> <Gold.Protein.ActiveResidues>
 VAL166  LYS551  ARG553  GLY616  TRP617  ASP618  TYR619  PRO620  LYS621  CYS622 
 ASP623  PHE694  ASN695  SER759  ASP760  ASP761  ALA762  ILE779  LEU786  VAL792 
 PHE793  MET794  SER795  GLU796  ALA797  LYS798  CYS799  TRP800  GLU811  SER814 

> <Gold.Protein.RotatedAtoms>
  150.8769  133.7426  159.2943 H   0  0  0  0  0  0  0  0  0  0  0  0  # atno 6907 bound_to 6896
  151.5020  135.1060  159.9841 H   0  0  0  0  0  0  0  0  0  0  0  0  # atno 6908 bound_to 6896
  152.4734  133.8036  159.7021 H   0  0  0  0  0  0  0  0  0  0  0  0  # atno 6909 bound_to 6896
  146.2384  140.1767  142.8332 H   0  0  0  0  0  0  0  0  0  0  0  0  # atno 7974 bound_to 7965
  156.3001  140.2486  156.3483 H   0  0  0  0  0  0  0  0  0  0  0  0  # atno 8008 bound_to 7997
  154.8990  140.0407  157.1901 H   0  0  0  0  0  0  0  0  0  0  0  0  # atno 8009 bound_to 7997
  154.8520  140.2907  155.5596 H   0  0  0  0  0  0  0  0  0  0  0  0  # atno 8010 bound_to 7997
  139.5811  144.6986  151.3526 H   0  0  0  0  0  0  0  0  0  0  0  0  # atno 10167 bound_to 10162
  156.8475  130.5542  149.5672 H   0  0  0  0  0  0  0  0  0  0  0  0  # atno 10718 bound_to 10713
  153.4170  135.7009  153.6320 H   0  0  0  0  0  0  0  0  0  0  0  0  # atno 10763 bound_to 10752
  153.4790  135.3698  155.2432 H   0  0  0  0  0  0  0  0  0  0  0  0  # atno 10764 bound_to 10752
  154.8720  135.4061  154.3532 H   0  0  0  0  0  0  0  0  0  0  0  0  # atno 10765 bound_to 10752
  139.8865  134.8583  156.3213 H   0  0  0  0  0  0  0  0  0  0  0  0  # atno 11005 bound_to 11000
  144.9967  140.8596  143.5306 LP  0  0  0  0  0  0  0  0  0  0  0  0  # atno 17320 bound_to 7965
  145.1781  139.2367  143.5307 LP  0  0  0  0  0  0  0  0  0  0  0  0  # atno 17321 bound_to 7965
  140.7089  143.7442  150.7531 LP  0  0  0  0  0  0  0  0  0  0  0  0  # atno 17342 bound_to 10162
  140.0975  143.4819  152.2444 LP  0  0  0  0  0  0  0  0  0  0  0  0  # atno 17343 bound_to 10162
  156.0847  130.5848  150.9626 LP  0  0  0  0  0  0  0  0  0  0  0  0  # atno 17370 bound_to 10713
  157.6322  131.0920  150.8419 LP  0  0  0  0  0  0  0  0  0  0  0  0  # atno 17371 bound_to 10713
  140.9784  133.7282  156.0636 LP  0  0  0  0  0  0  0  0  0  0  0  0  # atno 17394 bound_to 11000
  140.7781  134.3757  157.5493 LP  0  0  0  0  0  0  0  0  0  0  0  0  # atno 17395 bound_to 11000

$$$$
