AV-unprocessed.smi:1952|AV-procd|sdf|7886|dock2
  -GOLD-   2272010 33D 1   1.00000     0.00000
 Structure written by MMmdl.
 40 41  0  0  0  0  0  0  0  0  2 V2000
  137.8503  137.4333  154.5386 C   0  0  0  0  0  0  0  0  0  0  0  0
  139.3266  137.3283  154.3637 C   0  0  0  0  0  0  0  0  0  0  0  0
  140.2764  138.2055  153.9203 C   0  0  0  0  0  0  0  0  0  0  0  0
  141.4753  137.4490  154.0067 C   0  0  0  0  0  0  0  0  0  0  0  0
  142.7220  138.0118  153.6308 N   0  0  0  0  0  0  0  0  0  0  0  0
  143.9095  137.3877  153.5549 C   0  0  0  0  0  0  0  0  0  0  0  0
  144.0989  136.1931  153.7856 O   0  0  0  0  0  0  0  0  0  0  0  0
  144.8867  138.2362  153.2002 N   0  0  0  0  0  0  0  0  0  0  0  0
  146.2919  137.8883  152.9823 C   0  0  1  0  0  0  0  0  0  0  0  0
  146.7343  138.4433  151.6214 C   0  0  0  0  0  0  0  0  0  0  0  0
  147.1942  138.4191  154.1212 C   0  0  0  0  0  0  0  0  0  0  0  0
  148.4662  137.6657  154.2613 N   0  3  0  0  0  0  0  0  0  0  0  0
  149.6488  138.5352  154.4740 C   0  0  0  0  0  0  0  0  0  0  0  0
  150.9289  137.6854  154.5267 C   0  0  0  0  0  0  0  0  0  0  0  0
  150.8122  136.7160  155.5614 O   0  0  0  0  0  0  0  0  0  0  0  0
  149.7278  135.8236  155.3355 C   0  0  0  0  0  0  0  0  0  0  0  0
  148.4067  136.6115  155.3006 C   0  0  0  0  0  0  0  0  0  0  0  0
  141.2769  136.2234  154.4670 N   0  0  0  0  0  0  0  0  0  0  0  0
  139.8985  136.1392  154.6965 O   0  0  0  0  0  0  0  0  0  0  0  0
  137.5214  138.4700  154.4639 H   0  0  0  0  0  0  0  0  0  0  0  0
  137.5470  137.0530  155.5143 H   0  0  0  0  0  0  0  0  0  0  0  0
  137.3296  136.8571  153.7736 H   0  0  0  0  0  0  0  0  0  0  0  0
  140.1317  139.2221  153.5862 H   0  0  0  0  0  0  0  0  0  0  0  0
  142.7061  138.9936  153.3969 H   0  0  0  0  0  0  0  0  0  0  0  0
  144.6336  139.1996  153.0342 H   0  0  0  0  0  0  0  0  0  0  0  0
  146.3836  136.8028  152.9235 H   0  0  0  0  0  0  0  0  0  0  0  0
  147.7664  138.1685  151.4022 H   0  0  0  0  0  0  0  0  0  0  0  0
  146.6674  139.5316  151.5935 H   0  0  0  0  0  0  0  0  0  0  0  0
  146.1131  138.0509  150.8154 H   0  0  0  0  0  0  0  0  0  0  0  0
  147.4143  139.4779  153.9773 H   0  0  0  0  0  0  0  0  0  0  0  0
  146.6340  138.3522  155.0553 H   0  0  0  0  0  0  0  0  0  0  0  0
  149.7338  139.2672  153.6716 H   0  0  0  0  0  0  0  0  0  0  0  0
  149.5330  139.0935  155.4045 H   0  0  0  0  0  0  0  0  0  0  0  0
  151.1116  137.1953  153.5689 H   0  0  0  0  0  0  0  0  0  0  0  0
  151.7927  138.3185  154.7308 H   0  0  0  0  0  0  0  0  0  0  0  0
  149.8800  135.2773  154.4031 H   0  0  0  0  0  0  0  0  0  0  0  0
  149.7050  135.0853  156.1373 H   0  0  0  0  0  0  0  0  0  0  0  0
  148.2130  137.0660  156.2735 H   0  0  0  0  0  0  0  0  0  0  0  0
  147.5808  135.9302  155.0927 H   0  0  0  0  0  0  0  0  0  0  0  0
  148.6110  137.1871  153.3832 H   0  0  0  0  0  0  0  0  0  0  0  0
  1  2  1  0  0  0  0
  1 20  1  0  0  0  0
  1 21  1  0  0  0  0
  1 22  1  0  0  0  0
  2 19  1  0  0  0  0
  2  3  2  0  0  0  0
  3  4  1  0  0  0  0
  3 23  1  0  0  0  0
  4  5  1  0  0  0  0
  4 18  2  0  0  0  0
  5  6  1  0  0  0  0
  5 24  1  0  0  0  0
  6  7  2  0  0  0  0
  6  8  1  0  0  0  0
  8  9  1  0  0  0  0
  8 25  1  0  0  0  0
  9 10  1  0  0  0  0
  9 11  1  0  0  0  0
  9 26  1  0  0  0  0
 10 27  1  0  0  0  0
 10 28  1  0  0  0  0
 10 29  1  0  0  0  0
 11 12  1  0  0  0  0
 11 30  1  0  0  0  0
 11 31  1  0  0  0  0
 12 17  1  0  0  0  0
 12 13  1  0  0  0  0
 12 40  1  0  0  0  0
 13 14  1  0  0  0  0
 13 32  1  0  0  0  0
 13 33  1  0  0  0  0
 14 15  1  0  0  0  0
 14 34  1  0  0  0  0
 14 35  1  0  0  0  0
 15 16  1  0  0  0  0
 16 17  1  0  0  0  0
 16 36  1  0  0  0  0
 16 37  1  0  0  0  0
 17 38  1  0  0  0  0
 17 39  1  0  0  0  0
 18 19  1  0  0  0  0
M  CHG  1  12   1
M  END
> <s_m_source_file>
AV-unprocessed.smi

> <i_m_source_file_index>
1952

> <i_lp_mmshare_version>
43012

> <i_f3d_flags>
0

> <s_epik_input>
W0NIM11jMVtjSF1jKG5vMSlbTkhdQyg9TylbTkhdW0NASF0oW0NIM10pW0NIMl1OMltDSDJdW0NIMl1PW0NIMl1bQ0gyXTI=

> <s_epik_cmdline>
J2VwaWtfcHl0aG9uJywgJy1waCcsICc3LjAnLCAnLXRuJywgJzgnLCAnLW1hJywgJzIwMCcsICctbWV0YWxfYmluZGluZycsICctaW1hZScsICc8aW5maWxlLm1hZT4nLCAnLW9tYWUnLCAnPG91dGZpbGUubWFlPic=

> <r_epik_Ionization_Penalty>
0.707079

> <r_epik_Ionization_Penalty_Charging>
0.707039

> <r_epik_Ionization_Penalty_Neutral>
4.01892e-05

> <r_epik_State_Penalty>
0.730276

> <r_epik_Charging_Adjusted_Penalty>
1.43732

> <i_epik_Tot_Q>
1

> <i_epik_Tot_abs_Q>
1

> <r_epik_Metal_State_Penalty>
0.744847

> <b_epik_Metal_Only>
0

> <s_lp_Force_Field>
OPLS_2005

> <r_lp_Energy>
19.2195

> <b_lp_Chiralities_Consistent>
1

> <s_lp_Variant>
AV-unprocessed.smi:1952-4

> <Gold.Version>
5.8.1

> <Gold.Id.Protein>
6NUR|6NUR_protein|mol2

> <Gold.PLP.Fitness>
43.3162

> <Gold.PLP.PLP>
-30.3889

> <Gold.PLP.part.hbond>
-3.9557

> <Gold.PLP.part.metal>
0.0000

> <Gold.PLP.part.buried>
-1.8356

> <Gold.PLP.part.nonpolar>
-24.7188

> <Gold.PLP.part.repulsive>
0.3733

> <Gold.PLP.ligand.clash>
0.0000

> <Gold.PLP.ligand.torsion>
0.9075

> <Gold.PLP.Chemscore.Hbond>
4.8960

> <Gold.PLP.Chemscore.CHOScore>
0.0000

> <Gold.PLP.Chemscore.Metal>
0.0000

> <Gold.Chemscore.Hbonds>
donor molecule, donor type, donor heavy atom, donor atom, acceptor molecule, acceptor atom, score
      L1  H     5    24       P1 10175  0.93
      L1  H     8    25       P1 10175  1.00
      L1  H    12    40       P1  7948  2.00
      P1  H 11000 11005       L1    19  0.60

> <Gold.PLP.Chemscore.Internal.Correction>
0.0544

> <Gold.Rescore>
     Score         DG    S(hbond)    S(metal)    S(lipo)     H(rot)  DE(clash)    DE(int)     intcor
     18.59     -21.12       3.72        0.00      62.60       1.61       0.28       2.24       ----

> <Gold.Chemscore.Fitness>
18.5904

> <Gold.Chemscore.DG>
-21.1155

> <Gold.Chemscore.ZeroCoef>
-5.4800

> <Gold.Chemscore.Hbond>
3.7205

> <Gold.Chemscore.Metal>
0.0000

> <Gold.Chemscore.Lipo>
62.6042

> <Gold.Chemscore.Internal_Hbond>
0.0000

> <Gold.Chemscore.DEClash>
0.2836

> <Gold.Chemscore.DEInternal>
2.2415

> <Gold.Chemscore.Rot>
1.6078

> <Gold.Chemscore.Internal.Correction>
   9.000000E+99

> <Gold.Chemscore.Hbonds>
donor molecule, donor type, donor heavy atom, donor atom, acceptor molecule, acceptor atom, score
      L1  H     5    24       P1 10175  0.89
      L1  H     8    25       P1 10175  0.98
      L1  H    12    40       P1  7948  1.00
      P1  H 11000 11005       L1    19  0.04

> <Gold.Chemscore.Hbond.Weighted>
-12.4266

> <Gold.Chemscore.Metal.Weighted>
-0.0000

> <Gold.Chemscore.Lipo.Weighted>
-7.3247

> <Gold.Chemscore.Internal_Hbond.Weighted>
0.0000

> <Gold.Chemscore.DEClash.Weighted>
0.2836

> <Gold.Chemscore.DEInternal.Weighted>
2.2415

> <Gold.Chemscore.Rot.Weighted>
4.1158

> <Gold.Chemscore.Internal.Correction.Weighted>
   9.000000E+99

> <Gold.Protein.RotatedTorsions>
[ 6907 6896 6895 6894 ] final   97.36 input  -60.11 | X-H torsion
[ 7974 7965 7964 7962 ] final   62.53 input  175.53 | X-H torsion
[ 8008 7997 7996 7995 ] final -163.63 input   59.86 | X-H torsion
[ 10167 10162 10161 10158 ] final -168.61 input  -65.29 | X-H torsion
[ 10718 10713 10712 10709 ] final -123.39 input   66.30 | X-H torsion
[ 10763 10752 10751 10750 ] final  174.59 input  -60.55 | X-H torsion
[ 11005 11000 10999 10996 ] final   49.94 input  -57.11 | X-H torsion

> <Gold.Protein.ActiveResidues>
 VAL166  LYS551  ARG553  GLY616  TRP617  ASP618  TYR619  PRO620  LYS621  CYS622 
 ASP623  PHE694  ASN695  SER759  ASP760  ASP761  ALA762  ILE779  LEU786  VAL792 
 PHE793  MET794  SER795  GLU796  ALA797  LYS798  CYS799  TRP800  GLU811  SER814 

> <Gold.Protein.RotatedAtoms>
  152.5424  134.0745  159.8208 H   0  0  0  0  0  0  0  0  0  0  0  0  # atno 6907 bound_to 6896
  151.0855  133.5349  159.2625 H   0  0  0  0  0  0  0  0  0  0  0  0  # atno 6908 bound_to 6896
  151.2160  135.0508  159.8984 H   0  0  0  0  0  0  0  0  0  0  0  0  # atno 6909 bound_to 6896
  145.8723  139.3386  143.0755 H   0  0  0  0  0  0  0  0  0  0  0  0  # atno 7974 bound_to 7965
  155.8240  140.0924  157.1832 H   0  0  0  0  0  0  0  0  0  0  0  0  # atno 8008 bound_to 7997
  154.3979  140.1431  156.3594 H   0  0  0  0  0  0  0  0  0  0  0  0  # atno 8009 bound_to 7997
  155.8236  140.3445  155.5532 H   0  0  0  0  0  0  0  0  0  0  0  0  # atno 8010 bound_to 7997
  139.5974  144.1082  152.1705 H   0  0  0  0  0  0  0  0  0  0  0  0  # atno 10167 bound_to 10162
  156.1498  130.6526  150.9897 H   0  0  0  0  0  0  0  0  0  0  0  0  # atno 10718 bound_to 10713
  154.4559  135.2766  155.1747 H   0  0  0  0  0  0  0  0  0  0  0  0  # atno 10763 bound_to 10752
  154.3555  135.6141  153.5668 H   0  0  0  0  0  0  0  0  0  0  0  0  # atno 10764 bound_to 10752
  152.9851  135.5822  154.4913 H   0  0  0  0  0  0  0  0  0  0  0  0  # atno 10765 bound_to 10752
  140.1060  134.5018  155.8720 H   0  0  0  0  0  0  0  0  0  0  0  0  # atno 11005 bound_to 11000
  145.9122  140.9172  143.0448 LP  0  0  0  0  0  0  0  0  0  0  0  0  # atno 17320 bound_to 7965
  144.6726  140.1176  143.7452 LP  0  0  0  0  0  0  0  0  0  0  0  0  # atno 17321 bound_to 7965
  140.0671  144.5810  150.7219 LP  0  0  0  0  0  0  0  0  0  0  0  0  # atno 17342 bound_to 10162
  140.7223  143.2601  151.4238 LP  0  0  0  0  0  0  0  0  0  0  0  0  # atno 17343 bound_to 10162
  157.6647  131.0874  150.7755 LP  0  0  0  0  0  0  0  0  0  0  0  0  # atno 17370 bound_to 10713
  156.7824  130.4863  149.5398 LP  0  0  0  0  0  0  0  0  0  0  0  0  # atno 17371 bound_to 10713
  141.2118  133.6711  156.6611 LP  0  0  0  0  0  0  0  0  0  0  0  0  # atno 17394 bound_to 11000
  140.3156  134.8050  157.4211 LP  0  0  0  0  0  0  0  0  0  0  0  0  # atno 17395 bound_to 11000

$$$$
