AV-unprocessed.smi:2675|AV-procd|sdf|10361|dock8
  -GOLD-   2272014383D 1   1.00000     0.00000
 Structure written by MMmdl.
 37 38  0  0  0  0  0  0  0  0  2 V2000
  150.9996  145.0905  158.3181 C   0  0  0  0  0  0  0  0  0  0  0  0
  151.2650  143.6308  158.1585 C   0  0  0  0  0  0  0  0  0  0  0  0
  150.7538  142.9175  157.1068 N   0  3  0  0  0  0  0  0  0  0  0  0
  151.1245  141.6390  157.1816 C   0  0  0  0  0  0  0  0  0  0  0  0
  151.8777  141.5183  158.2805 N   0  0  0  0  0  0  0  0  0  0  0  0
  152.4539  140.2274  158.6828 C   0  0  0  0  0  0  0  0  0  0  0  0
  152.2929  139.1826  157.5784 C   0  0  0  0  0  0  0  0  0  0  0  0
  153.2464  138.9155  156.8496 O   0  0  0  0  0  0  0  0  0  0  0  0
  151.0829  138.6047  157.4779 N   0  0  0  0  0  0  0  0  0  0  0  0
  150.6511  137.5454  156.5562 C   0  0  2  0  0  0  0  0  0  0  0  0
  149.2030  137.2075  156.9481 C   0  0  0  0  0  0  0  0  0  0  0  0
  151.4553  136.3183  156.7201 C   0  0  0  0  0  0  0  0  0  0  0  0
  152.0878  135.3574  156.8476 N   0  0  0  0  0  0  0  0  0  0  0  0
  150.6759  137.9209  155.0732 C   0  0  0  0  0  0  0  0  0  0  0  0
  151.7986  138.6877  154.4094 C   0  0  0  0  0  0  0  0  0  0  0  0
  150.4450  139.3368  154.5946 C   0  0  0  0  0  0  0  0  0  0  0  0
  151.9886  142.7365  158.9155 C   0  0  0  0  0  0  0  0  0  0  0  0
  152.7676  142.9284  160.1771 C   0  0  0  0  0  0  0  0  0  0  0  0
  151.4663  145.4739  159.2249 H   0  0  0  0  0  0  0  0  0  0  0  0
  149.9265  145.2732  158.3795 H   0  0  0  0  0  0  0  0  0  0  0  0
  151.3986  145.6410  157.4658 H   0  0  0  0  0  0  0  0  0  0  0  0
  150.8624  140.8573  156.4910 H   0  0  0  0  0  0  0  0  0  0  0  0
  153.5082  140.3718  158.9250 H   0  0  0  0  0  0  0  0  0  0  0  0
  151.9606  139.8918  159.5955 H   0  0  0  0  0  0  0  0  0  0  0  0
  150.3771  138.9221  158.1257 H   0  0  0  0  0  0  0  0  0  0  0  0
  148.8057  136.3975  156.3351 H   0  0  0  0  0  0  0  0  0  0  0  0
  148.5449  138.0680  156.8213 H   0  0  0  0  0  0  0  0  0  0  0  0
  149.1367  136.8889  157.9894 H   0  0  0  0  0  0  0  0  0  0  0  0
  150.2361  137.1470  154.4458 H   0  0  0  0  0  0  0  0  0  0  0  0
  152.6161  139.0658  155.0166 H   0  0  0  0  0  0  0  0  0  0  0  0
  152.0763  138.3902  153.4002 H   0  0  0  0  0  0  0  0  0  0  0  0
  149.8258  139.4707  153.7099 H   0  0  0  0  0  0  0  0  0  0  0  0
  150.3685  140.1280  155.3374 H   0  0  0  0  0  0  0  0  0  0  0  0
  152.7379  143.9698  160.4960 H   0  0  0  0  0  0  0  0  0  0  0  0
  153.8101  142.6477  160.0263 H   0  0  0  0  0  0  0  0  0  0  0  0
  152.3511  142.3160  160.9769 H   0  0  0  0  0  0  0  0  0  0  0  0
  150.1733  143.3049  156.3734 H   0  0  0  0  0  0  0  0  0  0  0  0
  1  2  1  0  0  0  0
  1 19  1  0  0  0  0
  1 20  1  0  0  0  0
  1 21  1  0  0  0  0
  2 17  2  0  0  0  0
  2  3  1  0  0  0  0
  3  4  2  0  0  0  0
  3 37  1  0  0  0  0
  4  5  1  0  0  0  0
  4 22  1  0  0  0  0
  5  6  1  0  0  0  0
  5 17  1  0  0  0  0
  6  7  1  0  0  0  0
  6 23  1  0  0  0  0
  6 24  1  0  0  0  0
  7  8  2  0  0  0  0
  7  9  1  0  0  0  0
  9 10  1  0  0  0  0
  9 25  1  0  0  0  0
 10 11  1  0  0  0  0
 10 12  1  0  0  0  0
 10 14  1  0  0  0  0
 11 26  1  0  0  0  0
 11 27  1  0  0  0  0
 11 28  1  0  0  0  0
 12 13  3  0  0  0  0
 14 16  1  0  0  0  0
 14 15  1  0  0  0  0
 14 29  1  0  0  0  0
 15 16  1  0  0  0  0
 15 30  1  0  0  0  0
 15 31  1  0  0  0  0
 16 32  1  0  0  0  0
 16 33  1  0  0  0  0
 17 18  1  0  0  0  0
 18 34  1  0  0  0  0
 18 35  1  0  0  0  0
 18 36  1  0  0  0  0
M  CHG  1   3   1
M  END
> <s_m_source_file>
AV-unprocessed.smi

> <i_m_source_file_index>
2675

> <i_lp_mmshare_version>
43012

> <i_f3d_flags>
0

> <s_epik_input>
W0NIM11jMW5bY0hdbihjMVtDSDNdKVtDSDJdQyg9TylbTkhdW0NAQF0oW0NIM10pKEMjTilbQ0hdMltDSDJdW0NIMl0y

> <s_epik_cmdline>
J2VwaWtfcHl0aG9uJywgJy1waCcsICc3LjAnLCAnLXRuJywgJzgnLCAnLW1hJywgJzIwMCcsICctbWV0YWxfYmluZGluZycsICctaW1hZScsICc8aW5maWxlLm1hZT4nLCAnLW9tYWUnLCAnPG91dGZpbGUubWFlPic=

> <r_lp_tautomer_probability>
1

> <r_epik_Ionization_Penalty>
0.153253

> <r_epik_Ionization_Penalty_Charging>
0

> <r_epik_Ionization_Penalty_Neutral>
0.153253

> <r_epik_State_Penalty>
0.14254

> <r_epik_Charging_Adjusted_Penalty>
0.14254

> <i_epik_Tot_Q>
1

> <i_epik_Tot_abs_Q>
1

> <r_epik_Metal_State_Penalty>
0.466899

> <b_epik_Metal_Only>
0

> <s_lp_Force_Field>
OPLS_2005

> <r_lp_Energy>
18.2942

> <b_lp_Chiralities_Consistent>
1

> <s_lp_Variant>
AV-unprocessed.smi:2675-2

> <Gold.Version>
5.8.1

> <Gold.Id.Protein>
6NUR|6NUR_protein|mol2

> <Gold.PLP.Fitness>
43.2955

> <Gold.PLP.PLP>
-32.1440

> <Gold.PLP.part.hbond>
-3.0000

> <Gold.PLP.part.metal>
0.0000

> <Gold.PLP.part.buried>
-4.3770

> <Gold.PLP.part.nonpolar>
-23.9413

> <Gold.PLP.part.repulsive>
0.0370

> <Gold.PLP.ligand.clash>
0.0398

> <Gold.PLP.ligand.torsion>
1.1262

> <Gold.PLP.Chemscore.Hbond>
3.9825

> <Gold.PLP.Chemscore.CHOScore>
0.0000

> <Gold.PLP.Chemscore.Metal>
0.0000

> <Gold.Chemscore.Hbonds>
donor molecule, donor type, donor heavy atom, donor atom, acceptor molecule, acceptor atom, score
      L1  H     3    37       P1  8028  1.98
      P1  H  7997  8010       L1     8  1.00
      P1  H 10752 10763       L1    13  0.99

> <Gold.PLP.Chemscore.Internal.Correction>
1.4962

> <Gold.Rescore>
     Score         DG    S(hbond)    S(metal)    S(lipo)     H(rot)  DE(clash)    DE(int)     intcor
     16.80     -19.36       2.84        0.00      76.84       1.80       0.25       2.32       ----

> <Gold.Chemscore.Fitness>
16.7977

> <Gold.Chemscore.DG>
-19.3646

> <Gold.Chemscore.ZeroCoef>
-5.4800

> <Gold.Chemscore.Hbond>
2.8415

> <Gold.Chemscore.Metal>
0.0000

> <Gold.Chemscore.Lipo>
76.8417

> <Gold.Chemscore.Internal_Hbond>
0.0000

> <Gold.Chemscore.DEClash>
0.2492

> <Gold.Chemscore.DEInternal>
2.3177

> <Gold.Chemscore.Rot>
1.7955

> <Gold.Chemscore.Internal.Correction>
   9.000000E+99

> <Gold.Chemscore.Hbonds>
donor molecule, donor type, donor heavy atom, donor atom, acceptor molecule, acceptor atom, score
      L1  H     3    37       P1  8028  0.88
      P1  H  7997  8010       L1     8  0.95
      P1  H 10752 10763       L1    13  0.37

> <Gold.Chemscore.Hbond.Weighted>
-9.4906

> <Gold.Chemscore.Metal.Weighted>
-0.0000

> <Gold.Chemscore.Lipo.Weighted>
-8.9905

> <Gold.Chemscore.Internal_Hbond.Weighted>
0.0000

> <Gold.Chemscore.DEClash.Weighted>
0.2492

> <Gold.Chemscore.DEInternal.Weighted>
2.3177

> <Gold.Chemscore.Rot.Weighted>
4.5965

> <Gold.Chemscore.Internal.Correction.Weighted>
   9.000000E+99

> <Gold.Protein.RotatedTorsions>
[ 6907 6896 6895 6894 ] final  -82.54 input  -60.11 | X-H torsion
[ 7974 7965 7964 7962 ] final   48.04 input  175.53 | X-H torsion
[ 8008 7997 7996 7995 ] final   57.30 input   59.86 | X-H torsion
[ 10167 10162 10161 10158 ] final  -85.75 input  -65.29 | X-H torsion
[ 10718 10713 10712 10709 ] final -169.31 input   66.30 | X-H torsion
[ 10763 10752 10751 10750 ] final  103.86 input  -60.55 | X-H torsion
[ 11005 11000 10999 10996 ] final -165.92 input  -57.11 | X-H torsion

> <Gold.Protein.ActiveResidues>
 VAL166  LYS551  ARG553  GLY616  TRP617  ASP618  TYR619  PRO620  LYS621  CYS622 
 ASP623  PHE694  ASN695  SER759  ASP760  ASP761  ALA762  ILE779  LEU786  VAL792 
 PHE793  MET794  SER795  GLU796  ALA797  LYS798  CYS799  TRP800  GLU811  SER814 

> <Gold.Protein.RotatedAtoms>
  150.6896  134.3649  159.4966 H   0  0  0  0  0  0  0  0  0  0  0  0  # atno 6907 bound_to 6896
  152.1473  134.9013  160.0559 H   0  0  0  0  0  0  0  0  0  0  0  0  # atno 6908 bound_to 6896
  152.0124  133.3832  159.4262 H   0  0  0  0  0  0  0  0  0  0  0  0  # atno 6909 bound_to 6896
  146.0241  139.4686  142.9879 H   0  0  0  0  0  0  0  0  0  0  0  0  # atno 7974 bound_to 7965
  155.5314  140.3482  155.4427 H   0  0  0  0  0  0  0  0  0  0  0  0  # atno 8008 bound_to 7997
  156.0715  140.1364  156.9849 H   0  0  0  0  0  0  0  0  0  0  0  0  # atno 8009 bound_to 7997
  154.4531  140.0964  156.6651 H   0  0  0  0  0  0  0  0  0  0  0  0  # atno 8010 bound_to 7997
  140.4007  143.2664  151.9146 H   0  0  0  0  0  0  0  0  0  0  0  0  # atno 10167 bound_to 10162
  156.7097  130.9229  151.3088 H   0  0  0  0  0  0  0  0  0  0  0  0  # atno 10718 bound_to 10713
  153.3582  135.3962  155.1698 H   0  0  0  0  0  0  0  0  0  0  0  0  # atno 10763 bound_to 10752
  154.8674  135.3673  154.5133 H   0  0  0  0  0  0  0  0  0  0  0  0  # atno 10764 bound_to 10752
  153.5590  135.7081  153.5616 H   0  0  0  0  0  0  0  0  0  0  0  0  # atno 10765 bound_to 10752
  140.5702  134.5245  157.5160 H   0  0  0  0  0  0  0  0  0  0  0  0  # atno 11005 bound_to 11000
  145.7146  141.0095  143.1435 LP  0  0  0  0  0  0  0  0  0  0  0  0  # atno 17320 bound_to 7965
  144.7002  139.8798  143.7446 LP  0  0  0  0  0  0  0  0  0  0  0  0  # atno 17321 bound_to 7965
  139.4785  144.5636  151.8200 LP  0  0  0  0  0  0  0  0  0  0  0  0  # atno 17342 bound_to 10162
  140.4742  144.1543  150.5922 LP  0  0  0  0  0  0  0  0  0  0  0  0  # atno 17343 bound_to 10162
  157.6941  130.9263  150.0594 LP  0  0  0  0  0  0  0  0  0  0  0  0  # atno 17370 bound_to 10713
  156.1669  130.3645  149.9219 LP  0  0  0  0  0  0  0  0  0  0  0  0  # atno 17371 bound_to 10713
  139.9365  134.7865  156.0789 LP  0  0  0  0  0  0  0  0  0  0  0  0  # atno 17394 bound_to 11000
  141.1060  133.6660  156.2866 LP  0  0  0  0  0  0  0  0  0  0  0  0  # atno 17395 bound_to 11000

$$$$
