AV-unprocessed.smi:2336|AV-procd|sdf|9327|dock5
  -GOLD-   2272012543D 1   1.00000     0.00000
 Structure written by MMmdl.
 50 51  0  0  0  0  0  0  0  0  2 V2000
  150.8911  139.0314  155.2967 C   0  0  0  0  0  0  0  0  0  0  0  0
  149.3787  138.7462  155.3265 C   0  0  0  0  0  0  0  0  0  0  0  0
  148.7474  138.9681  153.9404 C   0  0  0  0  0  0  0  0  0  0  0  0
  148.6157  139.4801  156.4841 C   0  0  2  0  0  0  0  0  0  0  0  0
  147.4002  138.6673  157.0361 C   0  0  0  0  0  0  0  0  0  0  0  0
  147.7897  137.5490  157.8866 N   0  0  0  0  0  0  0  0  0  0  0  0
  147.2971  137.3156  159.1120 C   0  0  0  0  0  0  0  0  0  0  0  0
  146.4501  138.0327  159.6454 O   0  0  0  0  0  0  0  0  0  0  0  0
  147.8649  136.2294  159.6633 N   0  0  0  0  0  0  0  0  0  0  0  0
  147.6577  135.6636  160.9517 C   0  0  0  0  0  0  0  0  0  0  0  0
  147.3721  136.4126  162.1195 C   0  0  0  0  0  0  0  0  0  0  0  0
  147.1785  135.7226  163.3331 C   0  0  0  0  0  0  0  0  0  0  0  0
  147.2420  134.3790  163.4444 N   0  0  0  0  0  0  0  0  0  0  0  0
  147.5009  133.6675  162.3273 C   0  0  0  0  0  0  0  0  0  0  0  0
  147.7120  134.2581  161.0653 C   0  0  0  0  0  0  0  0  0  0  0  0
  147.9642  133.4837  159.9822 F   0  0  0  0  0  0  0  0  0  0  0  0
  148.2459  140.8468  156.0412 N   0  0  0  0  0  0  0  0  0  0  0  0
  147.6647  141.7544  157.0419 C   0  0  0  0  0  0  0  0  0  0  0  0
  148.7013  142.1751  158.1055 C   0  0  0  0  0  0  0  0  0  0  0  0
  149.8256  142.8894  157.4612 N   0  3  0  0  0  0  0  0  0  0  0  0
  150.8282  143.3744  158.4335 C   0  0  0  0  0  0  0  0  0  0  0  0
  150.4215  142.0595  156.3898 C   0  0  0  0  0  0  0  0  0  0  0  0
  149.3366  141.5967  155.3906 C   0  0  0  0  0  0  0  0  0  0  0  0
  151.1067  140.0603  155.0089 H   0  0  0  0  0  0  0  0  0  0  0  0
  151.3936  138.3837  154.5777 H   0  0  0  0  0  0  0  0  0  0  0  0
  151.3455  138.8511  156.2712 H   0  0  0  0  0  0  0  0  0  0  0  0
  149.3011  137.6723  155.4723 H   0  0  0  0  0  0  0  0  0  0  0  0
  148.9243  139.9713  153.5568 H   0  0  0  0  0  0  0  0  0  0  0  0
  147.6703  138.8005  153.9639 H   0  0  0  0  0  0  0  0  0  0  0  0
  149.1675  138.2743  153.2116 H   0  0  0  0  0  0  0  0  0  0  0  0
  149.3062  139.5950  157.3176 H   0  0  0  0  0  0  0  0  0  0  0  0
  146.7379  139.2831  157.6429 H   0  0  0  0  0  0  0  0  0  0  0  0
  146.7832  138.2874  156.2218 H   0  0  0  0  0  0  0  0  0  0  0  0
  148.4860  136.9162  157.5199 H   0  0  0  0  0  0  0  0  0  0  0  0
  148.5866  135.7838  159.1156 H   0  0  0  0  0  0  0  0  0  0  0  0
  147.2866  137.4876  162.1131 H   0  0  0  0  0  0  0  0  0  0  0  0
  146.9596  136.2672  164.2397 H   0  0  0  0  0  0  0  0  0  0  0  0
  147.5398  132.5942  162.4416 H   0  0  0  0  0  0  0  0  0  0  0  0
  147.2984  142.6448  156.5288 H   0  0  0  0  0  0  0  0  0  0  0  0
  146.7786  141.3200  157.5030 H   0  0  0  0  0  0  0  0  0  0  0  0
  148.2273  142.8349  158.8328 H   0  0  0  0  0  0  0  0  0  0  0  0
  149.0779  141.3138  158.6588 H   0  0  0  0  0  0  0  0  0  0  0  0
  151.2975  142.5422  158.9601 H   0  0  0  0  0  0  0  0  0  0  0  0
  150.3627  144.0282  159.1718 H   0  0  0  0  0  0  0  0  0  0  0  0
  151.6087  143.9442  157.9285 H   0  0  0  0  0  0  0  0  0  0  0  0
  151.1685  142.6507  155.8591 H   0  0  0  0  0  0  0  0  0  0  0  0
  150.9535  141.2118  156.8225 H   0  0  0  0  0  0  0  0  0  0  0  0
  149.8069  141.0310  154.5901 H   0  0  0  0  0  0  0  0  0  0  0  0
  148.9054  142.4724  154.9034 H   0  0  0  0  0  0  0  0  0  0  0  0
  149.4315  143.7041  157.0127 H   0  0  0  0  0  0  0  0  0  0  0  0
  1  2  1  0  0  0  0
  1 24  1  0  0  0  0
  1 25  1  0  0  0  0
  1 26  1  0  0  0  0
  2  3  1  0  0  0  0
  2  4  1  0  0  0  0
  2 27  1  0  0  0  0
  3 28  1  0  0  0  0
  3 29  1  0  0  0  0
  3 30  1  0  0  0  0
  4  5  1  0  0  0  0
  4 17  1  0  0  0  0
  4 31  1  0  0  0  0
  5  6  1  0  0  0  0
  5 32  1  0  0  0  0
  5 33  1  0  0  0  0
  6  7  1  0  0  0  0
  6 34  1  0  0  0  0
  7  8  2  0  0  0  0
  7  9  1  0  0  0  0
  9 10  1  0  0  0  0
  9 35  1  0  0  0  0
 10 15  1  0  0  0  0
 10 11  2  0  0  0  0
 11 12  1  0  0  0  0
 11 36  1  0  0  0  0
 12 13  2  0  0  0  0
 12 37  1  0  0  0  0
 13 14  1  0  0  0  0
 14 15  2  0  0  0  0
 14 38  1  0  0  0  0
 15 16  1  0  0  0  0
 17 23  1  0  0  0  0
 17 18  1  0  0  0  0
 18 19  1  0  0  0  0
 18 39  1  0  0  0  0
 18 40  1  0  0  0  0
 19 20  1  0  0  0  0
 19 41  1  0  0  0  0
 19 42  1  0  0  0  0
 20 21  1  0  0  0  0
 20 22  1  0  0  0  0
 20 50  1  0  0  0  0
 21 43  1  0  0  0  0
 21 44  1  0  0  0  0
 21 45  1  0  0  0  0
 22 23  1  0  0  0  0
 22 46  1  0  0  0  0
 22 47  1  0  0  0  0
 23 48  1  0  0  0  0
 23 49  1  0  0  0  0
M  CHG  1  20   1
M  END
> <s_m_source_file>
AV-unprocessed.smi

> <i_m_source_file_index>
2336

> <i_lp_mmshare_version>
43012

> <i_f3d_flags>
0

> <s_epik_input>
W0NIMl0xW0NIMl1OKFtDSDNdKVtDSDJdW0NIMl1OMVtDQEhdKFtDSF0oW0NIM10pW0NIM10pW0NIMl1bTkhdQyg9TylbTkhdYzJbY0hdW2NIXW5bY0hdYzJG

> <s_epik_cmdline>
J2VwaWtfcHl0aG9uJywgJy1waCcsICc3LjAnLCAnLXRuJywgJzgnLCAnLW1hJywgJzIwMCcsICctbWV0YWxfYmluZGluZycsICctaW1hZScsICc8aW5maWxlLm1hZT4nLCAnLW9tYWUnLCAnPG91dGZpbGUubWFlPic=

> <r_epik_Ionization_Penalty>
0.0313013

> <r_epik_Ionization_Penalty_Charging>
0.0272987

> <r_epik_Ionization_Penalty_Neutral>
0.00400259

> <r_epik_State_Penalty>
0.0776825

> <r_epik_Charging_Adjusted_Penalty>
0.104981

> <i_epik_Tot_Q>
1

> <i_epik_Tot_abs_Q>
1

> <r_epik_Metal_State_Penalty>
0.0776139

> <b_epik_Metal_Only>
0

> <s_lp_Force_Field>
OPLS_2005

> <r_lp_Energy>
31.6665

> <b_lp_Chiralities_Consistent>
1

> <s_lp_Variant>
AV-unprocessed.smi:2336-1

> <Gold.Version>
5.8.1

> <Gold.Id.Protein>
6NUR|6NUR_protein|mol2

> <Gold.PLP.Fitness>
41.9715

> <Gold.PLP.PLP>
-35.7651

> <Gold.PLP.part.hbond>
-3.6022

> <Gold.PLP.part.metal>
0.0000

> <Gold.PLP.part.buried>
-3.6492

> <Gold.PLP.part.nonpolar>
-29.3549

> <Gold.PLP.part.repulsive>
0.2732

> <Gold.PLP.ligand.clash>
0.0000

> <Gold.PLP.ligand.torsion>
1.0549

> <Gold.PLP.Chemscore.Hbond>
2.7200

> <Gold.PLP.Chemscore.CHOScore>
0.0000

> <Gold.PLP.Chemscore.Metal>
0.0000

> <Gold.Chemscore.Hbonds>
donor molecule, donor type, donor heavy atom, donor atom, acceptor molecule, acceptor atom, score
      L1  H    20    50       P1  8028  2.00
      P1  H  6934  6947       L1     8  0.80

> <Gold.PLP.Chemscore.Internal.Correction>
0.1562

> <Gold.Rescore>
     Score         DG    S(hbond)    S(metal)    S(lipo)     H(rot)  DE(clash)    DE(int)     intcor
     14.79     -17.13       1.72        0.00      86.99       1.67       0.36       1.97       ----

> <Gold.Chemscore.Fitness>
14.7940

> <Gold.Chemscore.DG>
-17.1275

> <Gold.Chemscore.ZeroCoef>
-5.4800

> <Gold.Chemscore.Hbond>
1.7231

> <Gold.Chemscore.Metal>
0.0000

> <Gold.Chemscore.Lipo>
86.9856

> <Gold.Chemscore.Internal_Hbond>
0.0000

> <Gold.Chemscore.DEClash>
0.3628

> <Gold.Chemscore.DEInternal>
1.9707

> <Gold.Chemscore.Rot>
1.6739

> <Gold.Chemscore.Internal.Correction>
   9.000000E+99

> <Gold.Chemscore.Hbonds>
donor molecule, donor type, donor heavy atom, donor atom, acceptor molecule, acceptor atom, score
      L1  H    20    50       P1  8028  0.81
      P1  H  6934  6947       L1     8  0.65

> <Gold.Chemscore.Hbond.Weighted>
-5.7553

> <Gold.Chemscore.Metal.Weighted>
-0.0000

> <Gold.Chemscore.Lipo.Weighted>
-10.1773

> <Gold.Chemscore.Internal_Hbond.Weighted>
0.0000

> <Gold.Chemscore.DEClash.Weighted>
0.3628

> <Gold.Chemscore.DEInternal.Weighted>
1.9707

> <Gold.Chemscore.Rot.Weighted>
4.2851

> <Gold.Chemscore.Internal.Correction.Weighted>
   9.000000E+99

> <Gold.Protein.RotatedTorsions>
[ 6907 6896 6895 6894 ] final  -86.08 input  -60.11 | X-H torsion
[ 7974 7965 7964 7962 ] final -152.10 input  175.53 | X-H torsion
[ 8008 7997 7996 7995 ] final  105.11 input   59.86 | X-H torsion
[ 10167 10162 10161 10158 ] final  -57.46 input  -65.29 | X-H torsion
[ 10718 10713 10712 10709 ] final -107.32 input   66.30 | X-H torsion
[ 10763 10752 10751 10750 ] final   59.19 input  -60.55 | X-H torsion
[ 11005 11000 10999 10996 ] final   26.15 input  -57.11 | X-H torsion

> <Gold.Protein.ActiveResidues>
 VAL166  LYS551  ARG553  GLY616  TRP617  ASP618  TYR619  PRO620  LYS621  CYS622 
 ASP623  PHE694  ASN695  SER759  ASP760  ASP761  ALA762  ILE779  LEU786  VAL792 
 PHE793  MET794  SER795  GLU796  ALA797  LYS798  CYS799  TRP800  GLU811  SER814 

> <Gold.Protein.RotatedAtoms>
  150.6868  134.3105  159.4744 H   0  0  0  0  0  0  0  0  0  0  0  0  # atno 6907 bound_to 6896
  152.0992  134.9351  160.0579 H   0  0  0  0  0  0  0  0  0  0  0  0  # atno 6908 bound_to 6896
  152.0637  133.4039  159.4466 H   0  0  0  0  0  0  0  0  0  0  0  0  # atno 6909 bound_to 6896
  144.7813  140.4708  143.5837 H   0  0  0  0  0  0  0  0  0  0  0  0  # atno 7974 bound_to 7965
  156.1631  140.3136  155.8841 H   0  0  0  0  0  0  0  0  0  0  0  0  # atno 8008 bound_to 7997
  155.3742  140.0484  157.3062 H   0  0  0  0  0  0  0  0  0  0  0  0  # atno 8009 bound_to 7997
  154.5166  140.2183  155.9066 H   0  0  0  0  0  0  0  0  0  0  0  0  # atno 8010 bound_to 7997
  140.6256  143.2437  151.5370 H   0  0  0  0  0  0  0  0  0  0  0  0  # atno 10167 bound_to 10162
  156.0431  130.5656  150.7805 H   0  0  0  0  0  0  0  0  0  0  0  0  # atno 10718 bound_to 10713
  152.9888  135.5580  154.5673 H   0  0  0  0  0  0  0  0  0  0  0  0  # atno 10763 bound_to 10752
  154.5081  135.2801  155.1368 H   0  0  0  0  0  0  0  0  0  0  0  0  # atno 10764 bound_to 10752
  154.2771  135.6352  153.5385 H   0  0  0  0  0  0  0  0  0  0  0  0  # atno 10765 bound_to 10752
  140.3401  134.2342  155.7691 H   0  0  0  0  0  0  0  0  0  0  0  0  # atno 11005 bound_to 11000
  145.6043  139.1507  143.3111 LP  0  0  0  0  0  0  0  0  0  0  0  0  # atno 17320 bound_to 7965
  146.2022  140.6163  142.9097 LP  0  0  0  0  0  0  0  0  0  0  0  0  # atno 17321 bound_to 7965
  139.5477  144.2476  152.1473 LP  0  0  0  0  0  0  0  0  0  0  0  0  # atno 17342 bound_to 10162
  140.1707  144.4938  150.6581 LP  0  0  0  0  0  0  0  0  0  0  0  0  # atno 17343 bound_to 10162
  157.5274  131.0935  151.0000 LP  0  0  0  0  0  0  0  0  0  0  0  0  # atno 17370 bound_to 10713
  157.0315  130.5713  149.5344 LP  0  0  0  0  0  0  0  0  0  0  0  0  # atno 17371 bound_to 10713
  141.2040  133.7896  157.0307 LP  0  0  0  0  0  0  0  0  0  0  0  0  # atno 17394 bound_to 11000
  140.0788  134.9660  157.1590 LP  0  0  0  0  0  0  0  0  0  0  0  0  # atno 17395 bound_to 11000

$$$$
