AV-unprocessed.smi:223|AV-procd|sdf|1703|dock3
  -GOLD-   2262020163D 1   1.00000     0.00000
 Structure written by MMmdl.
 47 50  0  0  0  0  0  0  0  0  1 V2000
  153.1228  142.4283  159.5492 C   0  0  0  0  0  0  0  0  0  0  0  0
  152.4540  141.4079  158.6203 C   0  0  2  0  0  0  0  0  0  0  0  0
  153.2106  140.1444  158.6322 C   0  0  0  0  0  0  0  0  0  0  0  0
  153.8048  139.1515  158.6411 N   0  0  0  0  0  0  0  0  0  0  0  0
  152.2876  141.9830  157.1987 C   0  0  0  0  0  0  0  0  0  0  0  0
  151.2453  141.3217  156.4131 N   0  0  0  0  0  0  0  0  0  0  0  0
  151.3149  139.9673  156.3096 C   0  0  0  0  0  0  0  0  0  0  0  0
  152.1496  139.4123  155.3896 N   0  0  0  0  0  0  0  0  0  0  0  0
  152.2181  138.0861  155.2479 C   0  0  0  0  0  0  0  0  0  0  0  0
  151.5541  137.1414  155.9149 N   0  0  0  0  0  0  0  0  0  0  0  0
  150.7235  137.6865  156.8485 C   0  0  0  0  0  0  0  0  0  0  0  0
  150.5429  139.0755  157.1096 C   0  0  0  0  0  0  0  0  0  0  0  0
  149.6206  139.2420  158.1364 N   0  0  0  0  0  0  0  0  0  0  0  0
  149.2673  138.0265  158.4525 C   0  0  0  0  0  0  0  0  0  0  0  0
  149.8889  137.0294  157.7360 N   0  0  0  0  0  0  0  0  0  0  0  0
  149.6872  135.5953  157.8821 C   0  0  0  0  0  0  0  0  0  0  0  0
  148.3168  135.1051  157.3575 C   0  0  1  0  0  0  0  0  0  0  0  0
  147.2875  135.8118  158.0289 O   0  0  0  0  0  0  0  0  0  0  0  0
  148.1434  135.3185  155.8591 C   0  0  0  0  0  0  0  0  0  0  0  0
  147.1804  134.2047  155.4712 C   0  0  0  0  0  0  0  0  0  0  0  0
  147.6284  133.1104  156.2529 O   0  0  0  0  0  0  0  0  0  0  0  0
  148.0605  133.5923  157.5225 C   0  0  0  0  0  0  0  0  0  0  0  0
  149.9194  141.9346  156.4298 C   0  0  0  0  0  0  0  0  0  0  0  0
  148.8093  141.3116  155.6129 C   0  0  0  0  0  0  0  0  0  0  0  0
  149.4236  142.6221  155.1795 C   0  0  0  0  0  0  0  0  0  0  0  0
  153.2184  142.0316  160.5603 H   0  0  0  0  0  0  0  0  0  0  0  0
  152.5402  143.3480  159.6092 H   0  0  0  0  0  0  0  0  0  0  0  0
  154.1220  142.6864  159.1969 H   0  0  0  0  0  0  0  0  0  0  0  0
  151.4703  141.1799  159.0309 H   0  0  0  0  0  0  0  0  0  0  0  0
  152.0116  143.0353  157.2735 H   0  0  0  0  0  0  0  0  0  0  0  0
  153.2440  141.9746  156.6799 H   0  0  0  0  0  0  0  0  0  0  0  0
  152.9009  137.7313  154.4901 H   0  0  0  0  0  0  0  0  0  0  0  0
  148.5431  137.8218  159.2277 H   0  0  0  0  0  0  0  0  0  0  0  0
  150.4969  135.0820  157.3621 H   0  0  0  0  0  0  0  0  0  0  0  0
  149.7958  135.3420  158.9374 H   0  0  0  0  0  0  0  0  0  0  0  0
  146.9619  136.4855  157.4516 H   0  0  0  0  0  0  0  0  0  0  0  0
  147.7798  136.3125  155.5947 H   0  0  0  0  0  0  0  0  0  0  0  0
  149.0912  135.1629  155.3418 H   0  0  0  0  0  0  0  0  0  0  0  0
  146.1558  134.4578  155.7475 H   0  0  0  0  0  0  0  0  0  0  0  0
  147.2052  133.9754  154.4057 H   0  0  0  0  0  0  0  0  0  0  0  0
  148.9630  133.0471  157.7960 H   0  0  0  0  0  0  0  0  0  0  0  0
  147.3082  133.3800  158.2835 H   0  0  0  0  0  0  0  0  0  0  0  0
  149.6171  142.3842  157.3740 H   0  0  0  0  0  0  0  0  0  0  0  0
  149.0454  140.4275  155.0236 H   0  0  0  0  0  0  0  0  0  0  0  0
  147.8054  141.3388  156.0309 H   0  0  0  0  0  0  0  0  0  0  0  0
  148.8277  143.5235  155.3061 H   0  0  0  0  0  0  0  0  0  0  0  0
  150.0658  142.6067  154.3010 H   0  0  0  0  0  0  0  0  0  0  0  0
  1  2  1  0  0  0  0
  1 26  1  0  0  0  0
  1 27  1  0  0  0  0
  1 28  1  0  0  0  0
  2  3  1  0  0  0  0
  2  5  1  0  0  0  0
  2 29  1  0  0  0  0
  3  4  3  0  0  0  0
  5  6  1  0  0  0  0
  5 30  1  0  0  0  0
  5 31  1  0  0  0  0
  6  7  1  0  0  0  0
  6 23  1  0  0  0  0
  7 12  1  0  0  0  0
  7  8  2  0  0  0  0
  8  9  1  0  0  0  0
  9 10  2  0  0  0  0
  9 32  1  0  0  0  0
 10 11  1  0  0  0  0
 11 15  1  0  0  0  0
 11 12  2  0  0  0  0
 12 13  1  0  0  0  0
 13 14  2  0  0  0  0
 14 15  1  0  0  0  0
 14 33  1  0  0  0  0
 15 16  1  0  0  0  0
 16 17  1  0  0  0  0
 16 34  1  0  0  0  0
 16 35  1  0  0  0  0
 17 22  1  0  0  0  0
 17 18  1  0  0  0  0
 17 19  1  0  0  0  0
 18 36  1  0  0  0  0
 19 20  1  0  0  0  0
 19 37  1  0  0  0  0
 19 38  1  0  0  0  0
 20 21  1  0  0  0  0
 20 39  1  0  0  0  0
 20 40  1  0  0  0  0
 21 22  1  0  0  0  0
 22 41  1  0  0  0  0
 22 42  1  0  0  0  0
 23 25  1  0  0  0  0
 23 24  1  0  0  0  0
 23 43  1  0  0  0  0
 24 25  1  0  0  0  0
 24 44  1  0  0  0  0
 24 45  1  0  0  0  0
 25 46  1  0  0  0  0
 25 47  1  0  0  0  0
M  END
> <s_m_source_file>
AV-unprocessed.smi

> <i_m_source_file_index>
223

> <i_lp_mmshare_version>
43012

> <i_f3d_flags>
0

> <s_epik_input>
TiNDW0NAQEhdKFtDSDNdKVtDSDJdTihbQ0hdMVtDSDJdW0NIMl0xKWMobltjSF1uMiljKGMyMyluW2NIXW4zW0NIMl1bQ0BAXTQoW09IXSlbQ0gyXVtDSDJdT1tDSDJdNA==

> <s_epik_cmdline>
J2VwaWtfcHl0aG9uJywgJy1waCcsICc3LjAnLCAnLXRuJywgJzgnLCAnLW1hJywgJzIwMCcsICctbWV0YWxfYmluZGluZycsICctaW1hZScsICc8aW5maWxlLm1hZT4nLCAnLW9tYWUnLCAnPG91dGZpbGUubWFlPic=

> <r_lp_tautomer_probability>
1

> <r_epik_Ionization_Penalty>
0.000756152

> <r_epik_Ionization_Penalty_Charging>
0

> <r_epik_Ionization_Penalty_Neutral>
0.000756152

> <r_epik_State_Penalty>
0.00038036

> <r_epik_Charging_Adjusted_Penalty>
0.00038036

> <i_epik_Tot_Q>
0

> <i_epik_Tot_abs_Q>
0

> <r_epik_Metal_State_Penalty>
-0

> <b_epik_Metal_Only>
0

> <s_lp_Force_Field>
OPLS_2005

> <r_lp_Energy>
37.204

> <b_lp_Chiralities_Consistent>
1

> <s_lp_Variant>
AV-unprocessed.smi:223-1

> <Gold.Version>
5.8.1

> <Gold.Id.Protein>
6NUR|6NUR_protein|mol2

> <Gold.PLP.Fitness>
44.0443

> <Gold.PLP.PLP>
-38.5912

> <Gold.PLP.part.hbond>
-3.0000

> <Gold.PLP.part.metal>
0.0000

> <Gold.PLP.part.buried>
-4.9482

> <Gold.PLP.part.nonpolar>
-30.4377

> <Gold.PLP.part.repulsive>
0.1593

> <Gold.PLP.ligand.clash>
0.0000

> <Gold.PLP.ligand.torsion>
2.0163

> <Gold.PLP.Chemscore.Hbond>
2.7120

> <Gold.PLP.Chemscore.CHOScore>
0.0000

> <Gold.PLP.Chemscore.Metal>
0.0000

> <Gold.Chemscore.Hbonds>
donor molecule, donor type, donor heavy atom, donor atom, acceptor molecule, acceptor atom, score
      P1  H  7997  8009       L1     4  0.20

> <Gold.PLP.Chemscore.Internal.Correction>
1.3497

> <Gold.Rescore>
     Score         DG    S(hbond)    S(metal)    S(lipo)     H(rot)  DE(clash)    DE(int)     intcor
     12.08     -14.97       2.64        0.00      65.35       2.72       0.58       2.32       ----

> <Gold.Chemscore.Fitness>
12.0805

> <Gold.Chemscore.DG>
-14.9743

> <Gold.Chemscore.ZeroCoef>
-5.4800

> <Gold.Chemscore.Hbond>
2.6359

> <Gold.Chemscore.Metal>
0.0000

> <Gold.Chemscore.Lipo>
65.3507

> <Gold.Chemscore.Internal_Hbond>
0.0000

> <Gold.Chemscore.DEClash>
0.5775

> <Gold.Chemscore.DEInternal>
2.3162

> <Gold.Chemscore.Rot>
2.7171

> <Gold.Chemscore.Internal.Correction>
   9.000000E+99

> <Gold.Chemscore.Hbonds>
donor molecule, donor type, donor heavy atom, donor atom, acceptor molecule, acceptor atom, score
      P1  H  7989  7998       L1     8  0.01

> <Gold.Chemscore.Hbond.Weighted>
-8.8040

> <Gold.Chemscore.Metal.Weighted>
-0.0000

> <Gold.Chemscore.Lipo.Weighted>
-7.6460

> <Gold.Chemscore.Internal_Hbond.Weighted>
0.0000

> <Gold.Chemscore.DEClash.Weighted>
0.5775

> <Gold.Chemscore.DEInternal.Weighted>
2.3162

> <Gold.Chemscore.Rot.Weighted>
6.9558

> <Gold.Chemscore.Internal.Correction.Weighted>
   9.000000E+99

> <Gold.Protein.RotatedTorsions>
[ 6907 6896 6895 6894 ] final  171.22 input  -60.11 | X-H torsion
[ 7974 7965 7964 7962 ] final  -57.58 input  175.53 | X-H torsion
[ 8008 7997 7996 7995 ] final  136.27 input   59.86 | X-H torsion
[ 10167 10162 10161 10158 ] final   25.45 input  -65.29 | X-H torsion
[ 10718 10713 10712 10709 ] final  138.31 input   66.30 | X-H torsion
[ 10763 10752 10751 10750 ] final  176.83 input  -60.55 | X-H torsion
[ 11005 11000 10999 10996 ] final -102.05 input  -57.11 | X-H torsion

> <Gold.Protein.ActiveResidues>
 VAL166  LYS551  ARG553  GLY616  TRP617  ASP618  TYR619  PRO620  LYS621  CYS622 
 ASP623  PHE694  ASN695  SER759  ASP760  ASP761  ALA762  ILE779  LEU786  VAL792 
 PHE793  MET794  SER795  GLU796  ALA797  LYS798  CYS799  TRP800  GLU811  SER814 

> <Gold.Protein.RotatedAtoms>
  151.8037  133.3373  159.3534 H   0  0  0  0  0  0  0  0  0  0  0  0  # atno 6907 bound_to 6896
  150.7349  134.5729  159.5909 H   0  0  0  0  0  0  0  0  0  0  0  0  # atno 6908 bound_to 6896
  152.3125  134.7482  160.0384 H   0  0  0  0  0  0  0  0  0  0  0  0  # atno 6909 bound_to 6896
  145.8494  140.8363  142.9993 H   0  0  0  0  0  0  0  0  0  0  0  0  # atno 7974 bound_to 7965
  156.3004  140.2449  156.3718 H   0  0  0  0  0  0  0  0  0  0  0  0  # atno 8008 bound_to 7997
  154.8782  140.0413  157.1785 H   0  0  0  0  0  0  0  0  0  0  0  0  # atno 8009 bound_to 7997
  154.8724  140.2937  155.5477 H   0  0  0  0  0  0  0  0  0  0  0  0  # atno 8010 bound_to 7997
  140.5105  144.0168  150.6370 H   0  0  0  0  0  0  0  0  0  0  0  0  # atno 10167 bound_to 10162
  157.4267  131.1044  151.0295 H   0  0  0  0  0  0  0  0  0  0  0  0  # atno 10718 bound_to 10713
  154.4864  135.2777  155.1531 H   0  0  0  0  0  0  0  0  0  0  0  0  # atno 10763 bound_to 10752
  154.3221  135.6207  153.5516 H   0  0  0  0  0  0  0  0  0  0  0  0  # atno 10764 bound_to 10752
  152.9882  135.5745  154.5275 H   0  0  0  0  0  0  0  0  0  0  0  0  # atno 10765 bound_to 10752
  141.1205  133.8527  157.1310 H   0  0  0  0  0  0  0  0  0  0  0  0  # atno 11005 bound_to 11000
  144.6730  140.0930  143.7464 LP  0  0  0  0  0  0  0  0  0  0  0  0  # atno 17320 bound_to 7965
  145.9375  139.2647  143.1288 LP  0  0  0  0  0  0  0  0  0  0  0  0  # atno 17321 bound_to 7965
  140.3489  143.2975  152.0508 LP  0  0  0  0  0  0  0  0  0  0  0  0  # atno 17342 bound_to 10162
  139.4895  144.6388  151.6920 LP  0  0  0  0  0  0  0  0  0  0  0  0  # atno 17343 bound_to 10162
  157.1206  130.6060  149.5504 LP  0  0  0  0  0  0  0  0  0  0  0  0  # atno 17370 bound_to 10713
  155.9899  130.4948  150.7233 LP  0  0  0  0  0  0  0  0  0  0  0  0  # atno 17371 bound_to 10713
  140.0159  134.9967  157.0492 LP  0  0  0  0  0  0  0  0  0  0  0  0  # atno 17394 bound_to 11000
  140.4520  134.1572  155.7182 LP  0  0  0  0  0  0  0  0  0  0  0  0  # atno 17395 bound_to 11000

$$$$
