AV-unprocessed.smi:911|AV-procd|sdf|4136|dock1
  -GOLD-   22720 2 43D 1   1.00000     0.00000
 Structure written by MMmdl.
 47 49  0  0  0  0  0  0  0  0  3 V2000
  148.3891  141.6504  153.8637 C   0  0  0  0  0  0  0  0  0  0  0  0
  148.0045  140.3516  154.6262 C   0  0  0  0  0  0  0  0  0  0  0  0
  146.4521  140.2874  154.5742 C   0  0  0  0  0  0  0  0  0  0  0  0
  148.7043  139.0791  154.1079 C   0  0  2  0  0  0  0  0  0  0  0  0
  148.2589  137.9855  155.1043 C   0  0  0  0  0  0  0  0  0  0  0  0
  148.1823  138.7574  156.4363 C   0  0  0  0  0  0  0  0  0  0  0  0
  148.6436  140.1855  156.0322 C   0  0  2  0  0  0  0  0  0  0  0  0
  148.2618  141.2575  157.0673 C   0  0  0  0  0  0  0  0  0  0  0  0
  150.1718  140.1351  155.7109 C   0  0  1  0  0  0  0  0  0  0  0  0
  150.9852  139.4722  156.7310 N   0  0  0  0  0  0  0  0  0  0  0  0
  152.2926  139.1930  156.6228 C   0  0  0  0  0  0  0  0  0  0  0  0
  152.9648  139.4764  155.6302 O   0  0  0  0  0  0  0  0  0  0  0  0
  152.9363  138.5105  157.8377 C   0  0  0  0  0  0  0  0  0  0  0  0
  153.4228  139.4661  158.8468 N   0  0  0  0  0  0  0  0  0  0  0  0
  152.5633  140.5288  159.1899 C   0  0  0  0  0  0  0  0  0  0  0  0
  152.9107  141.4680  160.0915 C   0  0  0  0  0  0  0  0  0  0  0  0
  152.0191  142.5565  160.4259 N   0  3  0  0  0  0  0  0  0  0  0  0
  152.3331  143.3153  161.3373 O   0  0  0  0  0  0  0  0  0  0  0  0
  150.9771  142.6891  159.7911 O   0  5  0  0  0  0  0  0  0  0  0  0
  154.2155  141.3549  160.7141 C   0  0  0  0  0  0  0  0  0  0  0  0
  155.0431  140.3430  160.3876 C   0  0  0  0  0  0  0  0  0  0  0  0
  154.6653  139.3251  159.4019 C   0  0  0  0  0  0  0  0  0  0  0  0
  155.4200  138.4024  159.0939 O   0  0  0  0  0  0  0  0  0  0  0  0
  150.2004  139.3502  154.3796 C   0  0  0  0  0  0  0  0  0  0  0  0
  148.0071  141.6228  152.8428 H   0  0  0  0  0  0  0  0  0  0  0  0
  149.4563  141.8440  153.7843 H   0  0  0  0  0  0  0  0  0  0  0  0
  147.9505  142.5249  154.3453 H   0  0  0  0  0  0  0  0  0  0  0  0
  146.0071  139.4222  155.0601 H   0  0  0  0  0  0  0  0  0  0  0  0
  146.1050  140.2694  153.5407 H   0  0  0  0  0  0  0  0  0  0  0  0
  146.0118  141.1681  155.0427 H   0  0  0  0  0  0  0  0  0  0  0  0
  148.4933  138.8279  153.0679 H   0  0  0  0  0  0  0  0  0  0  0  0
  147.2896  137.5655  154.8341 H   0  0  0  0  0  0  0  0  0  0  0  0
  148.9656  137.1562  155.1509 H   0  0  0  0  0  0  0  0  0  0  0  0
  147.1633  138.7624  156.8236 H   0  0  0  0  0  0  0  0  0  0  0  0
  148.7918  138.2993  157.2148 H   0  0  0  0  0  0  0  0  0  0  0  0
  148.7161  141.0479  158.0356 H   0  0  0  0  0  0  0  0  0  0  0  0
  147.1830  141.3008  157.2162 H   0  0  0  0  0  0  0  0  0  0  0  0
  148.5946  142.2471  156.7545 H   0  0  0  0  0  0  0  0  0  0  0  0
  150.5636  141.1395  155.5441 H   0  0  0  0  0  0  0  0  0  0  0  0
  150.5144  139.2086  157.5844 H   0  0  0  0  0  0  0  0  0  0  0  0
  152.2002  137.8352  158.2759 H   0  0  0  0  0  0  0  0  0  0  0  0
  153.7506  137.8643  157.5039 H   0  0  0  0  0  0  0  0  0  0  0  0
  151.6187  140.5285  158.6650 H   0  0  0  0  0  0  0  0  0  0  0  0
  154.5388  142.0806  161.4460 H   0  0  0  0  0  0  0  0  0  0  0  0
  156.0108  140.2782  160.8629 H   0  0  0  0  0  0  0  0  0  0  0  0
  150.7770  138.4258  154.4386 H   0  0  0  0  0  0  0  0  0  0  0  0
  150.6487  139.9447  153.5835 H   0  0  0  0  0  0  0  0  0  0  0  0
  1  2  1  0  0  0  0
  1 25  1  0  0  0  0
  1 26  1  0  0  0  0
  1 27  1  0  0  0  0
  2  7  1  0  0  0  0
  2  3  1  0  0  0  0
  2  4  1  0  0  0  0
  3 28  1  0  0  0  0
  3 29  1  0  0  0  0
  3 30  1  0  0  0  0
  4 24  1  0  0  0  0
  4  5  1  0  0  0  0
  4 31  1  0  0  0  0
  5  6  1  0  0  0  0
  5 32  1  0  0  0  0
  5 33  1  0  0  0  0
  6  7  1  0  0  0  0
  6 34  1  0  0  0  0
  6 35  1  0  0  0  0
  7  8  1  0  0  0  0
  7  9  1  0  0  0  0
  8 36  1  0  0  0  0
  8 37  1  0  0  0  0
  8 38  1  0  0  0  0
  9 10  1  0  0  0  0
  9 24  1  0  0  0  0
  9 39  1  0  0  0  0
 10 11  1  0  0  0  0
 10 40  1  0  0  0  0
 11 12  2  0  0  0  0
 11 13  1  0  0  0  0
 13 14  1  0  0  0  0
 13 41  1  0  0  0  0
 13 42  1  0  0  0  0
 14 22  1  0  0  0  0
 14 15  1  0  0  0  0
 15 16  2  0  0  0  0
 15 43  1  0  0  0  0
 16 17  1  0  0  0  0
 16 20  1  0  0  0  0
 17 18  2  0  0  0  0
 17 19  1  0  0  0  0
 20 21  2  0  0  0  0
 20 44  1  0  0  0  0
 21 22  1  0  0  0  0
 21 45  1  0  0  0  0
 22 23  2  0  0  0  0
 24 46  1  0  0  0  0
 24 47  1  0  0  0  0
M  CHG  1  17   1
M  CHG  1  19  -1
M  END
> <s_m_source_file>
AV-unprocessed.smi

> <i_m_source_file_index>
911

> <i_lp_mmshare_version>
43012

> <i_f3d_flags>
0

> <s_epik_input>
W0NIM11bQ0BdMTJDKFtDSDNdKShbQ0gzXSlbQ0BIXShbQ0gyXVtDSDJdMSlbQ0gyXVtDQEBIXTJbTkhdQyg9TylbQ0gyXW4zW2NIXWMoW04rXSg9TylbTy1dKVtjSF1bY0hdYzM9Tw==

> <s_epik_cmdline>
J2VwaWtfcHl0aG9uJywgJy1waCcsICc3LjAnLCAnLXRuJywgJzgnLCAnLW1hJywgJzIwMCcsICctbWV0YWxfYmluZGluZycsICctaW1hZScsICc8aW5maWxlLm1hZT4nLCAnLW9tYWUnLCAnPG91dGZpbGUubWFlPic=

> <r_lp_tautomer_probability>
1

> <r_epik_Ionization_Penalty>
2.04092e-08

> <r_epik_Ionization_Penalty_Charging>
8.54191e-11

> <r_epik_Ionization_Penalty_Neutral>
2.03238e-08

> <r_epik_State_Penalty>
-0

> <r_epik_Charging_Adjusted_Penalty>
8.54191e-11

> <i_epik_Tot_Q>
0

> <i_epik_Tot_abs_Q>
2

> <r_epik_Metal_State_Penalty>
-0

> <b_epik_Metal_Only>
0

> <s_lp_Force_Field>
OPLS_2005

> <r_lp_Energy>
67.3082

> <b_lp_Chiralities_Consistent>
1

> <s_lp_Variant>
AV-unprocessed.smi:911-1

> <Gold.Version>
5.8.1

> <Gold.Id.Protein>
6NUR|6NUR_protein|mol2

> <Gold.PLP.Fitness>
36.6695

> <Gold.PLP.PLP>
-34.8211

> <Gold.PLP.part.hbond>
-1.5919

> <Gold.PLP.part.metal>
0.0000

> <Gold.PLP.part.buried>
-2.3976

> <Gold.PLP.part.nonpolar>
-30.2477

> <Gold.PLP.part.repulsive>
0.1545

> <Gold.PLP.ligand.clash>
0.0000

> <Gold.PLP.ligand.torsion>
0.5898

> <Gold.PLP.Chemscore.Hbond>
1.0000

> <Gold.PLP.Chemscore.CHOScore>
0.0000

> <Gold.PLP.Chemscore.Metal>
0.0000

> <Gold.Chemscore.Hbonds>
donor molecule, donor type, donor heavy atom, donor atom, acceptor molecule, acceptor atom, score
      P1  H  7997  8010       L1    12  1.00

> <Gold.PLP.Chemscore.Internal.Correction>
0.0280

> <Gold.Rescore>
     Score         DG    S(hbond)    S(metal)    S(lipo)     H(rot)  DE(clash)    DE(int)     intcor
     12.86     -14.62       0.96        0.00      84.07       1.53       1.31       0.46       ----

> <Gold.Chemscore.Fitness>
12.8555

> <Gold.Chemscore.DG>
-14.6250

> <Gold.Chemscore.ZeroCoef>
-5.4800

> <Gold.Chemscore.Hbond>
0.9639

> <Gold.Chemscore.Metal>
0.0000

> <Gold.Chemscore.Lipo>
84.0725

> <Gold.Chemscore.Internal_Hbond>
0.0000

> <Gold.Chemscore.DEClash>
1.3127

> <Gold.Chemscore.DEInternal>
0.4567

> <Gold.Chemscore.Rot>
1.5277

> <Gold.Chemscore.Internal.Correction>
   9.000000E+99

> <Gold.Chemscore.Hbonds>
donor molecule, donor type, donor heavy atom, donor atom, acceptor molecule, acceptor atom, score
      P1  H  7997  8010       L1    12  0.82

> <Gold.Chemscore.Hbond.Weighted>
-3.2195

> <Gold.Chemscore.Metal.Weighted>
-0.0000

> <Gold.Chemscore.Lipo.Weighted>
-9.8365

> <Gold.Chemscore.Internal_Hbond.Weighted>
0.0000

> <Gold.Chemscore.DEClash.Weighted>
1.3127

> <Gold.Chemscore.DEInternal.Weighted>
0.4567

> <Gold.Chemscore.Rot.Weighted>
3.9110

> <Gold.Chemscore.Internal.Correction.Weighted>
   9.000000E+99

> <Gold.Protein.RotatedTorsions>
[ 6907 6896 6895 6894 ] final -105.04 input  -60.11 | X-H torsion
[ 7974 7965 7964 7962 ] final  -42.32 input  175.53 | X-H torsion
[ 8008 7997 7996 7995 ] final   95.77 input   59.86 | X-H torsion
[ 10167 10162 10161 10158 ] final -135.09 input  -65.29 | X-H torsion
[ 10718 10713 10712 10709 ] final -100.07 input   66.30 | X-H torsion
[ 10763 10752 10751 10750 ] final   78.06 input  -60.55 | X-H torsion
[ 11005 11000 10999 10996 ] final  155.62 input  -57.11 | X-H torsion

> <Gold.Protein.ActiveResidues>
 VAL166  LYS551  ARG553  GLY616  TRP617  ASP618  TYR619  PRO620  LYS621  CYS622 
 ASP623  PHE694  ASN695  SER759  ASP760  ASP761  ALA762  ILE779  LEU786  VAL792 
 PHE793  MET794  SER795  GLU796  ALA797  LYS798  CYS799  TRP800  GLU811  SER814 

> <Gold.Protein.RotatedAtoms>
  150.7317  134.0186  159.3693 H   0  0  0  0  0  0  0  0  0  0  0  0  # atno 6907 bound_to 6896
  151.8150  135.0667  160.0427 H   0  0  0  0  0  0  0  0  0  0  0  0  # atno 6908 bound_to 6896
  152.3045  133.5653  159.5676 H   0  0  0  0  0  0  0  0  0  0  0  0  # atno 6909 bound_to 6896
  146.0127  140.6944  142.9216 H   0  0  0  0  0  0  0  0  0  0  0  0  # atno 7974 bound_to 7965
  156.0725  140.3282  155.7593 H   0  0  0  0  0  0  0  0  0  0  0  0  # atno 8008 bound_to 7997
  155.5283  140.0591  157.2911 H   0  0  0  0  0  0  0  0  0  0  0  0  # atno 8009 bound_to 7997
  154.4538  140.1932  156.0458 H   0  0  0  0  0  0  0  0  0  0  0  0  # atno 8010 bound_to 7997
  139.8814  143.6835  152.2626 H   0  0  0  0  0  0  0  0  0  0  0  0  # atno 10167 bound_to 10162
  156.0152  130.5311  150.6763 H   0  0  0  0  0  0  0  0  0  0  0  0  # atno 10718 bound_to 10713
  153.0845  135.4891  154.8570 H   0  0  0  0  0  0  0  0  0  0  0  0  # atno 10763 bound_to 10752
  154.7193  135.3036  154.9075 H   0  0  0  0  0  0  0  0  0  0  0  0  # atno 10764 bound_to 10752
  153.9744  135.6797  153.4801 H   0  0  0  0  0  0  0  0  0  0  0  0  # atno 10765 bound_to 10752
  140.1598  134.8617  157.2560 H   0  0  0  0  0  0  0  0  0  0  0  0  # atno 11005 bound_to 11000
  144.6959  140.3427  143.7196 LP  0  0  0  0  0  0  0  0  0  0  0  0  # atno 17320 bound_to 7965
  145.7316  139.1738  143.2427 LP  0  0  0  0  0  0  0  0  0  0  0  0  # atno 17321 bound_to 7965
  139.7193  144.7606  151.0982 LP  0  0  0  0  0  0  0  0  0  0  0  0  # atno 17342 bound_to 10162
  140.7744  143.5229  150.9515 LP  0  0  0  0  0  0  0  0  0  0  0  0  # atno 17343 bound_to 10162
  157.4475  131.0868  151.0880 LP  0  0  0  0  0  0  0  0  0  0  0  0  # atno 17370 bound_to 10713
  157.1406  130.6141  149.5554 LP  0  0  0  0  0  0  0  0  0  0  0  0  # atno 17371 bound_to 10713
  140.2503  134.3690  155.7445 LP  0  0  0  0  0  0  0  0  0  0  0  0  # atno 17394 bound_to 11000
  141.2208  133.7313  156.8926 LP  0  0  0  0  0  0  0  0  0  0  0  0  # atno 17395 bound_to 11000

$$$$
