AV-unprocessed.smi:3089|AV-procd|sdf|11771|dock8
  -GOLD-   2272017153D 1   1.00000     0.00000
 Structure written by MMmdl.
 25 25  0  0  0  0  0  0  0  0  2 V2000
  144.9195  143.7982  154.0996 C   0  0  0  0  0  0  0  0  0  0  0  0
  145.8614  142.7836  154.5223 N   0  0  0  0  0  0  0  0  0  0  0  0
  147.0349  142.3918  153.9162 C   0  0  0  0  0  0  0  0  0  0  0  0
  147.5869  141.3999  154.6805 C   0  0  0  0  0  0  0  0  0  0  0  0
  148.8775  140.6408  154.4532 C   0  0  2  0  0  0  0  0  0  0  0  0
  149.8409  140.8778  155.6289 C   0  0  0  0  0  0  0  0  0  0  0  0
  149.5593  141.0923  153.2975 O   0  0  0  0  0  0  0  0  0  0  0  0
  148.6114  139.1303  154.2689 C   0  0  0  0  0  0  0  0  0  0  0  0
  148.1475  138.8068  152.9066 N   0  3  0  0  0  0  0  0  0  0  0  0
  146.6497  141.2562  155.7464 C   0  0  0  0  0  0  0  0  0  0  0  0
  145.6249  142.0869  155.6514 N   0  0  0  0  0  0  0  0  0  0  0  0
  145.2602  144.2636  153.1744 H   0  0  0  0  0  0  0  0  0  0  0  0
  144.8312  144.5649  154.8700 H   0  0  0  0  0  0  0  0  0  0  0  0
  143.9418  143.3468  153.9294 H   0  0  0  0  0  0  0  0  0  0  0  0
  147.3792  142.8472  152.9992 H   0  0  0  0  0  0  0  0  0  0  0  0
  149.4155  140.5259  156.5695 H   0  0  0  0  0  0  0  0  0  0  0  0
  150.0677  141.9382  155.7484 H   0  0  0  0  0  0  0  0  0  0  0  0
  150.7866  140.3539  155.4838 H   0  0  0  0  0  0  0  0  0  0  0  0
  149.5030  140.4245  152.6308 H   0  0  0  0  0  0  0  0  0  0  0  0
  149.5105  138.5499  154.4801 H   0  0  0  0  0  0  0  0  0  0  0  0
  147.8488  138.7928  154.9719 H   0  0  0  0  0  0  0  0  0  0  0  0
  147.1381  138.8080  152.8801 H   0  0  0  0  0  0  0  0  0  0  0  0
  148.4931  137.8942  152.6453 H   0  0  0  0  0  0  0  0  0  0  0  0
  146.6864  140.5778  156.5862 H   0  0  0  0  0  0  0  0  0  0  0  0
  148.5044  139.4959  152.2599 H   0  0  0  0  0  0  0  0  0  0  0  0
  1  2  1  0  0  0  0
  1 12  1  0  0  0  0
  1 13  1  0  0  0  0
  1 14  1  0  0  0  0
  2 11  1  0  0  0  0
  2  3  1  0  0  0  0
  3  4  2  0  0  0  0
  3 15  1  0  0  0  0
  4  5  1  0  0  0  0
  4 10  1  0  0  0  0
  5  6  1  0  0  0  0
  5  7  1  0  0  0  0
  5  8  1  0  0  0  0
  6 16  1  0  0  0  0
  6 17  1  0  0  0  0
  6 18  1  0  0  0  0
  7 19  1  0  0  0  0
  8  9  1  0  0  0  0
  8 20  1  0  0  0  0
  8 21  1  0  0  0  0
  9 22  1  0  0  0  0
  9 23  1  0  0  0  0
  9 25  1  0  0  0  0
 10 11  2  0  0  0  0
 10 24  1  0  0  0  0
M  CHG  1   9   1
M  END
> <s_m_source_file>
AV-unprocessed.smi

> <i_m_source_file_index>
3089

> <i_lp_mmshare_version>
43012

> <i_f3d_flags>
0

> <s_epik_input>
W0NIM11uMVtjSF1jKFtjSF1uMSlbQ0BAXShbQ0gzXSkoW09IXSlbQ0gyXVtOSDJd

> <s_epik_cmdline>
J2VwaWtfcHl0aG9uJywgJy1waCcsICc3LjAnLCAnLXRuJywgJzgnLCAnLW1hJywgJzIwMCcsICctbWV0YWxfYmluZGluZycsICctaW1hZScsICc8aW5maWxlLm1hZT4nLCAnLW9tYWUnLCAnPG91dGZpbGUubWFlPic=

> <r_lp_tautomer_probability>
1

> <r_epik_Ionization_Penalty>
0.0140512

> <r_epik_Ionization_Penalty_Charging>
0.0140431

> <r_epik_Ionization_Penalty_Neutral>
8.10489e-06

> <r_epik_State_Penalty>
0.0109628

> <r_epik_Charging_Adjusted_Penalty>
0.0250059

> <i_epik_Tot_Q>
1

> <i_epik_Tot_abs_Q>
1

> <r_epik_Metal_State_Penalty>
0.0109638

> <b_epik_Metal_Only>
0

> <s_lp_Force_Field>
OPLS_2005

> <r_lp_Energy>
3.27267

> <b_lp_Chiralities_Consistent>
1

> <s_lp_Variant>
AV-unprocessed.smi:3089-2

> <Gold.Version>
5.8.1

> <Gold.Id.Protein>
6NUR|6NUR_protein|mol2

> <Gold.PLP.Fitness>
38.8521

> <Gold.PLP.PLP>
-24.3025

> <Gold.PLP.part.hbond>
-4.4493

> <Gold.PLP.part.metal>
0.0000

> <Gold.PLP.part.buried>
-4.2024

> <Gold.PLP.part.nonpolar>
-16.6683

> <Gold.PLP.part.repulsive>
0.1936

> <Gold.PLP.ligand.clash>
0.0000

> <Gold.PLP.ligand.torsion>
0.2751

> <Gold.PLP.Chemscore.Hbond>
5.0278

> <Gold.PLP.Chemscore.CHOScore>
0.0000

> <Gold.PLP.Chemscore.Metal>
0.0000

> <Gold.Chemscore.Hbonds>
donor molecule, donor type, donor heavy atom, donor atom, acceptor molecule, acceptor atom, score
      L1  H     7    19       P1  7957  0.94
      L1  H     9    23       P1  7948  2.00
      L1  H     9    25       P1  7957  1.00
      P1  H  7989  7998       L1     7  0.09
      P1  H  8011  8017       L1     7  0.95

> <Gold.PLP.Chemscore.Internal.Correction>
0.0165

> <Gold.Rescore>
     Score         DG    S(hbond)    S(metal)    S(lipo)     H(rot)  DE(clash)    DE(int)     intcor
     16.25     -16.58       3.36        0.00      40.32       1.89      -0.00       0.32       ----

> <Gold.Chemscore.Fitness>
16.2521

> <Gold.Chemscore.DG>
-16.5752

> <Gold.Chemscore.ZeroCoef>
-5.4800

> <Gold.Chemscore.Hbond>
3.3567

> <Gold.Chemscore.Metal>
0.0000

> <Gold.Chemscore.Lipo>
40.3232

> <Gold.Chemscore.Internal_Hbond>
0.0000

> <Gold.Chemscore.DEClash>
-0.0000

> <Gold.Chemscore.DEInternal>
0.3231

> <Gold.Chemscore.Rot>
1.8883

> <Gold.Chemscore.Internal.Correction>
   9.000000E+99

> <Gold.Chemscore.Hbonds>
donor molecule, donor type, donor heavy atom, donor atom, acceptor molecule, acceptor atom, score
      L1  H     7    19       P1  7957  0.84
      L1  H     9    23       P1  7948  1.00
      L1  H     9    25       P1  7957  0.96
      P1  H  7989  7998       L1     7  0.01
      P1  H  8011  8017       L1     7  0.21

> <Gold.Chemscore.Hbond.Weighted>
-11.2114

> <Gold.Chemscore.Metal.Weighted>
-0.0000

> <Gold.Chemscore.Lipo.Weighted>
-4.7178

> <Gold.Chemscore.Internal_Hbond.Weighted>
0.0000

> <Gold.Chemscore.DEClash.Weighted>
-0.0000

> <Gold.Chemscore.DEInternal.Weighted>
0.3231

> <Gold.Chemscore.Rot.Weighted>
4.8341

> <Gold.Chemscore.Internal.Correction.Weighted>
   9.000000E+99

> <Gold.Protein.RotatedTorsions>
[ 6907 6896 6895 6894 ] final   97.13 input  -60.11 | X-H torsion
[ 7974 7965 7964 7962 ] final  171.70 input  175.53 | X-H torsion
[ 8008 7997 7996 7995 ] final   64.21 input   59.86 | X-H torsion
[ 10167 10162 10161 10158 ] final  -63.95 input  -65.29 | X-H torsion
[ 10718 10713 10712 10709 ] final  118.59 input   66.30 | X-H torsion
[ 10763 10752 10751 10750 ] final  157.61 input  -60.55 | X-H torsion
[ 11005 11000 10999 10996 ] final -121.53 input  -57.11 | X-H torsion

> <Gold.Protein.ActiveResidues>
 VAL166  LYS551  ARG553  GLY616  TRP617  ASP618  TYR619  PRO620  LYS621  CYS622 
 ASP623  PHE694  ASN695  SER759  ASP760  ASP761  ALA762  ILE779  LEU786  VAL792 
 PHE793  MET794  SER795  GLU796  ALA797  LYS798  CYS799  TRP800  GLU811  SER814 

> <Gold.Protein.RotatedAtoms>
  152.5427  134.0780  159.8222 H   0  0  0  0  0  0  0  0  0  0  0  0  # atno 6907 bound_to 6896
  151.0886  133.5326  159.2623 H   0  0  0  0  0  0  0  0  0  0  0  0  # atno 6908 bound_to 6896
  151.2126  135.0496  159.8971 H   0  0  0  0  0  0  0  0  0  0  0  0  # atno 6909 bound_to 6896
  144.7287  139.9389  143.6428 H   0  0  0  0  0  0  0  0  0  0  0  0  # atno 7974 bound_to 7965
  155.6424  140.3497  155.4719 H   0  0  0  0  0  0  0  0  0  0  0  0  # atno 8008 bound_to 7997
  155.9915  140.1194  157.0657 H   0  0  0  0  0  0  0  0  0  0  0  0  # atno 8009 bound_to 7997
  154.4220  140.1118  156.5558 H   0  0  0  0  0  0  0  0  0  0  0  0  # atno 8010 bound_to 7997
  140.5835  143.2330  151.6292 H   0  0  0  0  0  0  0  0  0  0  0  0  # atno 10167 bound_to 10162
  157.6020  131.1049  150.7777 H   0  0  0  0  0  0  0  0  0  0  0  0  # atno 10718 bound_to 10713
  154.2030  135.2789  155.2984 H   0  0  0  0  0  0  0  0  0  0  0  0  # atno 10763 bound_to 10752
  154.5839  135.5581  153.7215 H   0  0  0  0  0  0  0  0  0  0  0  0  # atno 10764 bound_to 10752
  153.0083  135.6351  154.2169 H   0  0  0  0  0  0  0  0  0  0  0  0  # atno 10765 bound_to 10752
  141.0063  134.0329  157.3472 H   0  0  0  0  0  0  0  0  0  0  0  0  # atno 11005 bound_to 11000
  146.0800  139.3788  143.0470 LP  0  0  0  0  0  0  0  0  0  0  0  0  # atno 17320 bound_to 7965
  145.7854  140.9838  143.1077 LP  0  0  0  0  0  0  0  0  0  0  0  0  # atno 17321 bound_to 7965
  139.5184  144.3286  152.0846 LP  0  0  0  0  0  0  0  0  0  0  0  0  # atno 17342 bound_to 10162
  140.2440  144.4239  150.6248 LP  0  0  0  0  0  0  0  0  0  0  0  0  # atno 17343 bound_to 10162
  156.8174  130.4972  149.5347 LP  0  0  0  0  0  0  0  0  0  0  0  0  # atno 17370 bound_to 10713
  156.1096  130.6030  151.0025 LP  0  0  0  0  0  0  0  0  0  0  0  0  # atno 17371 bound_to 10713
  139.9065  135.0181  156.7509 LP  0  0  0  0  0  0  0  0  0  0  0  0  # atno 17394 bound_to 11000
  140.6806  133.9477  155.7908 LP  0  0  0  0  0  0  0  0  0  0  0  0  # atno 17395 bound_to 11000

$$$$
