AV-unprocessed.smi:21|AV-procd|sdf|134|dock10
  -GOLD-   2262015323D 1   1.00000     0.00000
 Structure written by MMmdl.
 62 65  0  0  0  0  0  0  0  0  2 V2000
  145.5156  131.9824  151.4847 C   0  0  0  0  0  0  0  0  0  0  0  0
  146.6551  131.9590  152.3295 O   0  0  0  0  0  0  0  0  0  0  0  0
  147.3409  133.2014  152.3953 C   0  0  2  0  0  0  0  0  0  0  0  0
  148.6016  133.0614  153.2576 C   0  0  0  0  0  0  0  0  0  0  0  0
  148.4725  134.0980  154.3863 C   0  0  1  0  0  0  0  0  0  0  0  0
  149.8064  134.7855  154.7532 C   0  0  0  0  0  0  0  0  0  0  0  0
  150.0560  134.8013  156.1972 N   0  0  0  0  0  0  0  0  0  0  0  0
  149.7848  133.5889  156.9608 C   0  0  0  0  0  0  0  0  0  0  0  0
  150.2672  135.9873  156.8416 C   0  0  0  0  0  0  0  0  0  0  0  0
  150.0370  136.0393  158.1822 N   0  0  0  0  0  0  0  0  0  0  0  0
  150.2261  137.1669  158.8713 C   0  0  0  0  0  0  0  0  0  0  0  0
  150.6424  138.3521  158.4282 N   0  0  0  0  0  0  0  0  0  0  0  0
  150.8813  138.3190  157.0872 C   0  0  0  0  0  0  0  0  0  0  0  0
  150.7192  137.1959  156.2228 C   0  0  0  0  0  0  0  0  0  0  0  0
  151.0656  137.5658  154.9259 N   0  0  0  0  0  0  0  0  0  0  0  0
  151.4073  138.8209  155.0187 C   0  0  0  0  0  0  0  0  0  0  0  0
  151.3364  139.3502  156.2854 N   0  0  0  0  0  0  0  0  0  0  0  0
  151.6623  140.7088  156.6832 C   0  0  0  0  0  0  0  0  0  0  0  0
  150.6760  141.7568  156.1038 C   0  0  1  0  0  0  0  0  0  0  0  0
  149.3699  141.0907  155.6121 C   0  0  0  0  0  0  0  0  0  0  0  0
  148.4710  142.0471  155.0908 O   0  0  0  0  0  0  0  0  0  0  0  0
  150.3943  142.9415  157.0688 C   0  0  1  0  0  0  0  0  0  0  0  0
  149.7278  142.5957  158.3947 C   0  0  0  0  0  0  0  0  0  0  0  0
  150.1619  143.7571  159.2769 C   0  0  0  0  0  0  0  0  0  0  0  0
  151.5145  143.9506  158.8976 O   0  0  0  0  0  0  0  0  0  0  0  0
  151.6219  143.7698  157.4888 C   0  0  0  0  0  0  0  0  0  0  0  0
  147.4596  135.0622  153.9078 N   0  3  2  0  0  0  0  0  0  0  0  0
  146.8075  135.8583  154.9714 C   0  0  0  0  0  0  0  0  0  0  0  0
  146.5092  134.2876  153.0881 C   0  0  0  0  0  0  0  0  0  0  0  0
  147.6361  133.5297  151.3969 H   0  0  0  0  0  0  0  0  0  0  0  0
  148.0561  133.5960  155.2617 H   0  0  0  0  0  0  0  0  0  0  0  0
  145.0567  130.9940  151.4659 H   0  0  0  0  0  0  0  0  0  0  0  0
  145.7886  132.2436  150.4617 H   0  0  0  0  0  0  0  0  0  0  0  0
  144.7668  132.6914  151.8390 H   0  0  0  0  0  0  0  0  0  0  0  0
  148.7184  132.0557  153.6634 H   0  0  0  0  0  0  0  0  0  0  0  0
  149.4777  133.2600  152.6395 H   0  0  0  0  0  0  0  0  0  0  0  0
  150.6295  134.2748  154.2520 H   0  0  0  0  0  0  0  0  0  0  0  0
  149.8370  135.8053  154.3701 H   0  0  0  0  0  0  0  0  0  0  0  0
  150.5870  133.3936  157.6727 H   0  0  0  0  0  0  0  0  0  0  0  0
  149.7127  132.7194  156.3072 H   0  0  0  0  0  0  0  0  0  0  0  0
  148.8427  133.6759  157.5026 H   0  0  0  0  0  0  0  0  0  0  0  0
  150.0139  137.1117  159.9289 H   0  0  0  0  0  0  0  0  0  0  0  0
  151.7311  139.3943  154.1624 H   0  0  0  0  0  0  0  0  0  0  0  0
  151.6688  140.7476  157.7723 H   0  0  0  0  0  0  0  0  0  0  0  0
  152.6851  140.9042  156.3638 H   0  0  0  0  0  0  0  0  0  0  0  0
  151.1561  142.1910  155.2253 H   0  0  0  0  0  0  0  0  0  0  0  0
  149.5704  140.3735  154.8165 H   0  0  0  0  0  0  0  0  0  0  0  0
  148.8856  140.5414  156.4197 H   0  0  0  0  0  0  0  0  0  0  0  0
  148.8744  142.9001  155.1440 H   0  0  0  0  0  0  0  0  0  0  0  0
  149.7303  143.6412  156.5593 H   0  0  0  0  0  0  0  0  0  0  0  0
  148.6438  142.5074  158.3154 H   0  0  0  0  0  0  0  0  0  0  0  0
  150.1135  141.6679  158.8144 H   0  0  0  0  0  0  0  0  0  0  0  0
  149.5850  144.6563  159.0540 H   0  0  0  0  0  0  0  0  0  0  0  0
  150.0677  143.5386  160.3408 H   0  0  0  0  0  0  0  0  0  0  0  0
  152.5735  143.2963  157.2506 H   0  0  0  0  0  0  0  0  0  0  0  0
  151.6132  144.7423  156.9947 H   0  0  0  0  0  0  0  0  0  0  0  0
  146.2990  135.2156  155.6913 H   0  0  0  0  0  0  0  0  0  0  0  0
  146.0698  136.5347  154.5384 H   0  0  0  0  0  0  0  0  0  0  0  0
  147.5355  136.4638  155.5107 H   0  0  0  0  0  0  0  0  0  0  0  0
  145.9747  134.9214  152.3797 H   0  0  0  0  0  0  0  0  0  0  0  0
  145.7717  133.8222  153.7447 H   0  0  0  0  0  0  0  0  0  0  0  0
  147.9332  135.6996  153.2836 H   0  0  0  0  0  0  0  0  0  0  0  0
  1  2  1  0  0  0  0
  1 32  1  0  0  0  0
  1 33  1  0  0  0  0
  1 34  1  0  0  0  0
  2  3  1  0  0  0  0
  3 30  1  0  0  0  0
  3 29  1  0  0  0  0
  3  4  1  0  0  0  0
  4  5  1  0  0  0  0
  4 35  1  0  0  0  0
  4 36  1  0  0  0  0
  5 31  1  0  0  0  0
  5  6  1  0  0  0  0
  5 27  1  0  0  0  0
  6  7  1  0  0  0  0
  6 37  1  0  0  0  0
  6 38  1  0  0  0  0
  7  8  1  0  0  0  0
  7  9  1  0  0  0  0
  8 39  1  0  0  0  0
  8 40  1  0  0  0  0
  8 41  1  0  0  0  0
  9 14  1  0  0  0  0
  9 10  2  0  0  0  0
 10 11  1  0  0  0  0
 11 12  2  0  0  0  0
 11 42  1  0  0  0  0
 12 13  1  0  0  0  0
 13 17  1  0  0  0  0
 13 14  2  0  0  0  0
 14 15  1  0  0  0  0
 15 16  2  0  0  0  0
 16 17  1  0  0  0  0
 16 43  1  0  0  0  0
 17 18  1  0  0  0  0
 18 19  1  0  0  0  0
 18 44  1  0  0  0  0
 18 45  1  0  0  0  0
 19 20  1  0  0  0  0
 19 22  1  0  0  0  0
 19 46  1  0  0  0  0
 20 21  1  0  0  0  0
 20 47  1  0  0  0  0
 20 48  1  0  0  0  0
 21 49  1  0  0  0  0
 22 26  1  0  0  0  0
 22 23  1  0  0  0  0
 22 50  1  0  0  0  0
 23 24  1  0  0  0  0
 23 51  1  0  0  0  0
 23 52  1  0  0  0  0
 24 25  1  0  0  0  0
 24 53  1  0  0  0  0
 24 54  1  0  0  0  0
 25 26  1  0  0  0  0
 26 55  1  0  0  0  0
 26 56  1  0  0  0  0
 27 28  1  0  0  0  0
 27 29  1  0  0  0  0
 27 62  1  0  0  0  0
 28 57  1  0  0  0  0
 28 58  1  0  0  0  0
 28 59  1  0  0  0  0
 29 60  1  0  0  0  0
 29 61  1  0  0  0  0
M  CHG  1  27   1
M  END
> <s_m_source_file>
AV-unprocessed.smi

> <i_m_source_file_index>
21

> <i_lp_mmshare_version>
43012

> <i_f3d_flags>
0

> <s_epik_input>
W0NIM11PW0NASF0xW0NIMl1bQ0BIXShOKFtDSDNdKVtDSDJdMSlbQ0gyXU4oW0NIM10pYyhuW2NIXW4yKWMoYzIzKW5bY0hdbjNbQ0gyXVtDQEhdKFtDSDJdW09IXSlbQ0BASF00W0NIMl1bQ0gyXU9bQ0gyXTQ=

> <s_epik_cmdline>
J2VwaWtfcHl0aG9uJywgJy1waCcsICc3LjAnLCAnLXRuJywgJzgnLCAnLW1hJywgJzIwMCcsICctbWV0YWxfYmluZGluZycsICctaW1hZScsICc8aW5maWxlLm1hZT4nLCAnLW9tYWUnLCAnPG91dGZpbGUubWFlPic=

> <r_lp_tautomer_probability>
1

> <r_epik_Ionization_Penalty>
0.0157465

> <r_epik_Ionization_Penalty_Charging>
0.015354

> <r_epik_Ionization_Penalty_Neutral>
0.000392529

> <r_epik_State_Penalty>
0.0120612

> <r_epik_Charging_Adjusted_Penalty>
0.0274152

> <i_epik_Tot_Q>
1

> <i_epik_Tot_abs_Q>
1

> <r_epik_Metal_State_Penalty>
0.0121253

> <b_epik_Metal_Only>
0

> <s_lp_Force_Field>
OPLS_2005

> <r_lp_Energy>
60.5183

> <b_lp_Chiralities_Consistent>
1

> <s_lp_Variant>
AV-unprocessed.smi:21-14

> <Gold.Version>
5.8.1

> <Gold.Id.Protein>
6NUR|6NUR_protein|mol2

> <Gold.PLP.Fitness>
50.0172

> <Gold.PLP.PLP>
-41.3094

> <Gold.PLP.part.hbond>
-3.0000

> <Gold.PLP.part.metal>
0.0000

> <Gold.PLP.part.buried>
-4.9083

> <Gold.PLP.part.nonpolar>
-34.9682

> <Gold.PLP.part.repulsive>
0.5678

> <Gold.PLP.ligand.clash>
0.0000

> <Gold.PLP.ligand.torsion>
1.5828

> <Gold.PLP.Chemscore.Hbond>
3.8151

> <Gold.PLP.Chemscore.CHOScore>
0.0000

> <Gold.PLP.Chemscore.Metal>
0.0000

> <Gold.Chemscore.Hbonds>
donor molecule, donor type, donor heavy atom, donor atom, acceptor molecule, acceptor atom, score
      L1  H    21    49       P1  8028  1.00
      L1  H    27    62       P1  7948  2.00
      P1  H  6896  6908       L1    10  0.84

> <Gold.PLP.Chemscore.Internal.Correction>
0.4282

> <Gold.Rescore>
     Score         DG    S(hbond)    S(metal)    S(lipo)     H(rot)  DE(clash)    DE(int)     intcor
     12.64     -15.87       2.25        0.00      91.72       3.08       0.81       2.42       ----

> <Gold.Chemscore.Fitness>
12.6385

> <Gold.Chemscore.DG>
-15.8683

> <Gold.Chemscore.ZeroCoef>
-5.4800

> <Gold.Chemscore.Hbond>
2.2547

> <Gold.Chemscore.Metal>
0.0000

> <Gold.Chemscore.Lipo>
91.7231

> <Gold.Chemscore.Internal_Hbond>
0.0000

> <Gold.Chemscore.DEClash>
0.8061

> <Gold.Chemscore.DEInternal>
2.4237

> <Gold.Chemscore.Rot>
3.0758

> <Gold.Chemscore.Internal.Correction>
   9.000000E+99

> <Gold.Chemscore.Hbonds>
donor molecule, donor type, donor heavy atom, donor atom, acceptor molecule, acceptor atom, score
      L1  H    21    49       P1  8028  0.96
      L1  H    27    62       P1  7948  0.99
      P1  H  6896  6908       L1    10  0.20

> <Gold.Chemscore.Hbond.Weighted>
-7.5309

> <Gold.Chemscore.Metal.Weighted>
-0.0000

> <Gold.Chemscore.Lipo.Weighted>
-10.7316

> <Gold.Chemscore.Internal_Hbond.Weighted>
0.0000

> <Gold.Chemscore.DEClash.Weighted>
0.8061

> <Gold.Chemscore.DEInternal.Weighted>
2.4237

> <Gold.Chemscore.Rot.Weighted>
7.8741

> <Gold.Chemscore.Internal.Correction.Weighted>
   9.000000E+99

> <Gold.Protein.RotatedTorsions>
[ 6907 6896 6895 6894 ] final  174.77 input  -60.11 | X-H torsion
[ 7974 7965 7964 7962 ] final   31.29 input  175.53 | X-H torsion
[ 8008 7997 7996 7995 ] final -166.17 input   59.86 | X-H torsion
[ 10167 10162 10161 10158 ] final    7.28 input  -65.29 | X-H torsion
[ 10718 10713 10712 10709 ] final -101.26 input   66.30 | X-H torsion
[ 10763 10752 10751 10750 ] final  173.50 input  -60.55 | X-H torsion
[ 11005 11000 10999 10996 ] final  133.50 input  -57.11 | X-H torsion

> <Gold.Protein.ActiveResidues>
 VAL166  LYS551  ARG553  GLY616  TRP617  ASP618  TYR619  PRO620  LYS621  CYS622 
 ASP623  PHE694  ASN695  SER759  ASP760  ASP761  ALA762  ILE779  LEU786  VAL792 
 PHE793  MET794  SER795  GLU796  ALA797  LYS798  CYS799  TRP800  GLU811  SER814 

> <Gold.Protein.RotatedAtoms>
  151.7470  133.3325  159.3380 H   0  0  0  0  0  0  0  0  0  0  0  0  # atno 6907 bound_to 6896
  150.7550  134.6227  159.6154 H   0  0  0  0  0  0  0  0  0  0  0  0  # atno 6908 bound_to 6896
  152.3493  134.7029  160.0292 H   0  0  0  0  0  0  0  0  0  0  0  0  # atno 6909 bound_to 6896
  146.1559  139.6676  142.9067 H   0  0  0  0  0  0  0  0  0  0  0  0  # atno 7974 bound_to 7965
  155.8601  140.0977  157.1619 H   0  0  0  0  0  0  0  0  0  0  0  0  # atno 8008 bound_to 7997
  154.3990  140.1367  156.4012 H   0  0  0  0  0  0  0  0  0  0  0  0  # atno 8009 bound_to 7997
  155.7866  140.3457  155.5329 H   0  0  0  0  0  0  0  0  0  0  0  0  # atno 8010 bound_to 7997
  140.6380  143.7840  150.7388 H   0  0  0  0  0  0  0  0  0  0  0  0  # atno 10167 bound_to 10162
  156.0189  130.5365  150.6937 H   0  0  0  0  0  0  0  0  0  0  0  0  # atno 10718 bound_to 10713
  154.4409  135.2762  155.1848 H   0  0  0  0  0  0  0  0  0  0  0  0  # atno 10763 bound_to 10752
  154.3715  135.6107  153.5746 H   0  0  0  0  0  0  0  0  0  0  0  0  # atno 10764 bound_to 10752
  152.9841  135.5858  154.4737 H   0  0  0  0  0  0  0  0  0  0  0  0  # atno 10765 bound_to 10752
  139.9856  134.9533  156.9734 H   0  0  0  0  0  0  0  0  0  0  0  0  # atno 11005 bound_to 11000
  145.4709  141.0436  143.2699 LP  0  0  0  0  0  0  0  0  0  0  0  0  # atno 17320 bound_to 7965
  144.7963  139.6228  143.7091 LP  0  0  0  0  0  0  0  0  0  0  0  0  # atno 17321 bound_to 7965
  140.1465  143.4395  152.2159 LP  0  0  0  0  0  0  0  0  0  0  0  0  # atno 17342 bound_to 10162
  139.5590  144.7393  151.4209 LP  0  0  0  0  0  0  0  0  0  0  0  0  # atno 17343 bound_to 10162
  157.4613  131.0883  151.0742 LP  0  0  0  0  0  0  0  0  0  0  0  0  # atno 17370 bound_to 10713
  157.1229  130.6069  149.5509 LP  0  0  0  0  0  0  0  0  0  0  0  0  # atno 17371 bound_to 10713
  140.5009  134.1098  155.7250 LP  0  0  0  0  0  0  0  0  0  0  0  0  # atno 17394 bound_to 11000
  141.1521  133.8949  157.2071 LP  0  0  0  0  0  0  0  0  0  0  0  0  # atno 17395 bound_to 11000

$$$$
