AV-unprocessed.smi:694|AV-procd|sdf|3383|dock3
  -GOLD-   22720 0363D 1   1.00000     0.00000
 Structure written by MMmdl.
 42 43  0  0  0  0  0  0  0  0  1 V2000
  145.8969  132.0745  149.1383 C   0  0  0  0  0  0  0  0  0  0  0  0
  145.3745  132.1116  150.5007 N   0  0  0  0  0  0  0  0  0  0  0  0
  145.3796  130.9017  151.3133 C   0  0  0  0  0  0  0  0  0  0  0  0
  144.8212  133.3088  151.0100 C   0  0  0  0  0  0  0  0  0  0  0  0
  143.8242  133.2936  152.0168 C   0  0  0  0  0  0  0  0  0  0  0  0
  143.3089  134.5142  152.4924 C   0  0  0  0  0  0  0  0  0  0  0  0
  143.8007  135.7234  151.9656 C   0  0  0  0  0  0  0  0  0  0  0  0
  143.2512  136.9391  152.4541 N   0  0  0  0  0  0  0  0  0  0  0  0
  142.2781  137.1080  153.3656 C   0  0  0  0  0  0  0  0  0  0  0  0
  141.6722  136.2007  153.9355 O   0  0  0  0  0  0  0  0  0  0  0  0
  142.0227  138.4090  153.5645 N   0  0  0  0  0  0  0  0  0  0  0  0
  141.0006  138.9445  154.4589 C   0  0  0  0  0  0  0  0  0  0  0  0
  139.8212  139.5581  153.6783 C   0  0  1  0  0  0  0  0  0  0  0  0
  138.4676  138.8745  153.9242 C   0  0  0  0  0  0  0  0  0  0  0  0
  137.3925  139.9350  153.6427 C   0  0  0  0  0  0  0  0  0  0  0  0
  138.1317  141.2707  153.4893 C   0  0  0  0  0  0  0  0  0  0  0  0
  139.5386  141.0198  154.0371 C   0  0  2  0  0  0  0  0  0  0  0  0
  140.4808  141.9030  153.4649 O   0  0  0  0  0  0  0  0  0  0  0  0
  144.7857  135.6432  150.9536 C   0  0  0  0  0  0  0  0  0  0  0  0
  145.2804  134.4749  150.4939 N   0  0  0  0  0  0  0  0  0  0  0  0
  145.0967  132.2499  148.4186 H   0  0  0  0  0  0  0  0  0  0  0  0
  146.3472  131.1084  148.9103 H   0  0  0  0  0  0  0  0  0  0  0  0
  146.6628  132.8380  148.9983 H   0  0  0  0  0  0  0  0  0  0  0  0
  145.9791  131.0472  152.2124 H   0  0  0  0  0  0  0  0  0  0  0  0
  145.8000  130.0580  150.7661 H   0  0  0  0  0  0  0  0  0  0  0  0
  144.3649  130.6327  151.6086 H   0  0  0  0  0  0  0  0  0  0  0  0
  143.4456  132.3732  152.4344 H   0  0  0  0  0  0  0  0  0  0  0  0
  142.5474  134.5175  153.2588 H   0  0  0  0  0  0  0  0  0  0  0  0
  143.5960  137.7785  152.0122 H   0  0  0  0  0  0  0  0  0  0  0  0
  142.5690  139.0832  153.0488 H   0  0  0  0  0  0  0  0  0  0  0  0
  140.6464  138.1801  155.1528 H   0  0  0  0  0  0  0  0  0  0  0  0
  141.4712  139.7134  155.0721 H   0  0  0  0  0  0  0  0  0  0  0  0
  140.0359  139.5020  152.6093 H   0  0  0  0  0  0  0  0  0  0  0  0
  138.3404  137.9844  153.3073 H   0  0  0  0  0  0  0  0  0  0  0  0
  138.3919  138.5605  154.9662 H   0  0  0  0  0  0  0  0  0  0  0  0
  136.8317  139.7009  152.7372 H   0  0  0  0  0  0  0  0  0  0  0  0
  136.6787  139.9757  154.4662 H   0  0  0  0  0  0  0  0  0  0  0  0
  138.1833  141.5269  152.4299 H   0  0  0  0  0  0  0  0  0  0  0  0
  137.6258  142.0903  154.0004 H   0  0  0  0  0  0  0  0  0  0  0  0
  139.5372  141.1444  155.1210 H   0  0  0  0  0  0  0  0  0  0  0  0
  140.5698  141.6932  152.5478 H   0  0  0  0  0  0  0  0  0  0  0  0
  145.1858  136.5217  150.4721 H   0  0  0  0  0  0  0  0  0  0  0  0
  1  2  1  0  0  0  0
  1 21  1  0  0  0  0
  1 22  1  0  0  0  0
  1 23  1  0  0  0  0
  2  3  1  0  0  0  0
  2  4  1  0  0  0  0
  3 24  1  0  0  0  0
  3 25  1  0  0  0  0
  3 26  1  0  0  0  0
  4 20  1  0  0  0  0
  4  5  2  0  0  0  0
  5  6  1  0  0  0  0
  5 27  1  0  0  0  0
  6  7  2  0  0  0  0
  6 28  1  0  0  0  0
  7  8  1  0  0  0  0
  7 19  1  0  0  0  0
  8  9  1  0  0  0  0
  8 29  1  0  0  0  0
  9 10  2  0  0  0  0
  9 11  1  0  0  0  0
 11 12  1  0  0  0  0
 11 30  1  0  0  0  0
 12 13  1  0  0  0  0
 12 31  1  0  0  0  0
 12 32  1  0  0  0  0
 13 17  1  0  0  0  0
 13 14  1  0  0  0  0
 13 33  1  0  0  0  0
 14 15  1  0  0  0  0
 14 34  1  0  0  0  0
 14 35  1  0  0  0  0
 15 16  1  0  0  0  0
 15 36  1  0  0  0  0
 15 37  1  0  0  0  0
 16 17  1  0  0  0  0
 16 38  1  0  0  0  0
 16 39  1  0  0  0  0
 17 18  1  0  0  0  0
 17 40  1  0  0  0  0
 18 41  1  0  0  0  0
 19 20  2  0  0  0  0
 19 42  1  0  0  0  0
M  END
> <s_m_source_file>
AV-unprocessed.smi

> <i_m_source_file_index>
694

> <i_lp_mmshare_version>
43012

> <i_f3d_flags>
0

> <s_epik_input>
W0NIM11OKFtDSDNdKWMxW2NIXVtjSF1jKFtjSF1uMSlbTkhdQyg9TylbTkhdW0NIMl1bQ0BASF0yW0NIMl1bQ0gyXVtDSDJdW0NASF0yW09IXQ==

> <s_epik_cmdline>
J2VwaWtfcHl0aG9uJywgJy1waCcsICc3LjAnLCAnLXRuJywgJzgnLCAnLW1hJywgJzIwMCcsICctbWV0YWxfYmluZGluZycsICctaW1hZScsICc8aW5maWxlLm1hZT4nLCAnLW9tYWUnLCAnPG91dGZpbGUubWFlPic=

> <r_lp_tautomer_probability>
1

> <r_epik_Ionization_Penalty>
0.60335

> <r_epik_Ionization_Penalty_Charging>
0

> <r_epik_Ionization_Penalty_Neutral>
0.60335

> <r_epik_State_Penalty>
0.616805

> <r_epik_Charging_Adjusted_Penalty>
0.616805

> <i_epik_Tot_Q>
0

> <i_epik_Tot_abs_Q>
0

> <r_epik_Metal_State_Penalty>
0.301709

> <b_epik_Metal_Only>
0

> <s_lp_Force_Field>
OPLS_2005

> <r_lp_Energy>
25.3577

> <b_lp_Chiralities_Consistent>
1

> <s_lp_Variant>
AV-unprocessed.smi:694-8

> <Gold.Version>
5.8.1

> <Gold.Id.Protein>
6NUR|6NUR_protein|mol2

> <Gold.PLP.Fitness>
44.2372

> <Gold.PLP.PLP>
-37.2088

> <Gold.PLP.part.hbond>
-4.5580

> <Gold.PLP.part.metal>
0.0000

> <Gold.PLP.part.buried>
-4.5808

> <Gold.PLP.part.nonpolar>
-27.9706

> <Gold.PLP.part.repulsive>
1.1325

> <Gold.PLP.ligand.clash>
0.0000

> <Gold.PLP.ligand.torsion>
1.1024

> <Gold.PLP.Chemscore.Hbond>
2.1501

> <Gold.PLP.Chemscore.CHOScore>
0.9251

> <Gold.PLP.Chemscore.Metal>
0.0000

> <Gold.Chemscore.Hbonds>
donor molecule, donor type, donor heavy atom, donor atom, acceptor molecule, acceptor atom, score
      L1  H     8    29       P1 10171  0.16
      L1  H    11    30       P1 10175  1.00
      L1  H    18    41       P1 10160  1.00
      L1  C    19    42       P1 10171  0.92

> <Gold.PLP.Chemscore.Internal.Correction>
0.0077

> <Gold.Rescore>
     Score         DG    S(hbond)    S(metal)    S(lipo)     H(rot)  DE(clash)    DE(int)     intcor
     14.45     -17.21       1.91        0.00      83.52       1.73       0.22       2.55       ----

> <Gold.Chemscore.Fitness>
14.4458

> <Gold.Chemscore.DG>
-17.2137

> <Gold.Chemscore.ZeroCoef>
-5.4800

> <Gold.Chemscore.Hbond>
1.9104

> <Gold.Chemscore.Metal>
0.0000

> <Gold.Chemscore.Lipo>
83.5168

> <Gold.Chemscore.Internal_Hbond>
0.0000

> <Gold.Chemscore.DEClash>
0.2156

> <Gold.Chemscore.DEInternal>
2.5524

> <Gold.Chemscore.Rot>
1.7259

> <Gold.Chemscore.Internal.Correction>
   9.000000E+99

> <Gold.Chemscore.Hbonds>
donor molecule, donor type, donor heavy atom, donor atom, acceptor molecule, acceptor atom, score
      L1  H     8    29       P1 10171  0.15
      L1  H    11    30       P1 10175  1.00
      L1  H    18    41       P1 10160  0.51

> <Gold.Chemscore.Hbond.Weighted>
-6.3806

> <Gold.Chemscore.Metal.Weighted>
-0.0000

> <Gold.Chemscore.Lipo.Weighted>
-9.7715

> <Gold.Chemscore.Internal_Hbond.Weighted>
0.0000

> <Gold.Chemscore.DEClash.Weighted>
0.2156

> <Gold.Chemscore.DEInternal.Weighted>
2.5524

> <Gold.Chemscore.Rot.Weighted>
4.4184

> <Gold.Chemscore.Internal.Correction.Weighted>
   9.000000E+99

> <Gold.Protein.RotatedTorsions>
[ 6907 6896 6895 6894 ] final -175.01 input  -60.11 | X-H torsion
[ 7974 7965 7964 7962 ] final   37.28 input  175.53 | X-H torsion
[ 8008 7997 7996 7995 ] final  152.29 input   59.86 | X-H torsion
[ 10167 10162 10161 10158 ] final  112.06 input  -65.29 | X-H torsion
[ 10718 10713 10712 10709 ] final  148.11 input   66.30 | X-H torsion
[ 10763 10752 10751 10750 ] final  -60.67 input  -60.55 | X-H torsion
[ 11005 11000 10999 10996 ] final  121.05 input  -57.11 | X-H torsion

> <Gold.Protein.ActiveResidues>
 VAL166  LYS551  ARG553  GLY616  TRP617  ASP618  TYR619  PRO620  LYS621  CYS622 
 ASP623  PHE694  ASN695  SER759  ASP760  ASP761  ALA762  ILE779  LEU786  VAL792 
 PHE793  MET794  SER795  GLU796  ALA797  LYS798  CYS799  TRP800  GLU811  SER814 

> <Gold.Protein.RotatedAtoms>
  151.5816  133.3377  159.3009 H   0  0  0  0  0  0  0  0  0  0  0  0  # atno 6907 bound_to 6896
  150.8310  134.7566  159.6865 H   0  0  0  0  0  0  0  0  0  0  0  0  # atno 6908 bound_to 6896
  152.4393  134.5629  159.9951 H   0  0  0  0  0  0  0  0  0  0  0  0  # atno 6909 bound_to 6896
  146.1149  139.5914  142.9328 H   0  0  0  0  0  0  0  0  0  0  0  0  # atno 7974 bound_to 7965
  156.2636  140.2025  156.6310 H   0  0  0  0  0  0  0  0  0  0  0  0  # atno 8008 bound_to 7997
  154.6683  140.0553  157.0162 H   0  0  0  0  0  0  0  0  0  0  0  0  # atno 8009 bound_to 7997
  155.1175  140.3221  155.4508 H   0  0  0  0  0  0  0  0  0  0  0  0  # atno 8010 bound_to 7997
  139.6564  144.7129  151.1949 H   0  0  0  0  0  0  0  0  0  0  0  0  # atno 10167 bound_to 10162
  157.3126  131.0890  151.1304 H   0  0  0  0  0  0  0  0  0  0  0  0  # atno 10718 bound_to 10713
  154.2727  135.6287  153.5316 H   0  0  0  0  0  0  0  0  0  0  0  0  # atno 10763 bound_to 10752
  152.9877  135.5614  154.5582 H   0  0  0  0  0  0  0  0  0  0  0  0  # atno 10764 bound_to 10752
  154.5156  135.2879  155.1282 H   0  0  0  0  0  0  0  0  0  0  0  0  # atno 10765 bound_to 10752
  139.9210  134.9637  156.7899 H   0  0  0  0  0  0  0  0  0  0  0  0  # atno 11005 bound_to 11000
  145.5587  141.0406  143.2238 LP  0  0  0  0  0  0  0  0  0  0  0  0  # atno 17320 bound_to 7965
  144.7544  139.7111  143.7260 LP  0  0  0  0  0  0  0  0  0  0  0  0  # atno 17321 bound_to 7965
  140.7561  143.6065  150.8647 LP  0  0  0  0  0  0  0  0  0  0  0  0  # atno 17342 bound_to 10162
  139.9719  143.6048  152.2971 LP  0  0  0  0  0  0  0  0  0  0  0  0  # atno 17343 bound_to 10162
  157.2620  130.6663  149.5979 LP  0  0  0  0  0  0  0  0  0  0  0  0  # atno 17370 bound_to 10713
  155.9679  130.4506  150.5702 LP  0  0  0  0  0  0  0  0  0  0  0  0  # atno 17371 bound_to 10713
  140.6475  133.9762  155.7738 LP  0  0  0  0  0  0  0  0  0  0  0  0  # atno 17394 bound_to 11000
  141.0730  134.0177  157.3498 LP  0  0  0  0  0  0  0  0  0  0  0  0  # atno 17395 bound_to 11000

$$$$
