AV-unprocessed.smi:1027|AV-procd|sdf|4470|dock3
  -GOLD-   22720 2443D 1   1.00000     0.00000
 Structure written by MMmdl.
 35 36  0  0  0  0  0  0  0  0  1 V2000
  143.9811  135.7160  150.9809 C   0  0  0  0  0  0  0  0  0  0  0  0
  145.4340  136.0551  151.3688 C   0  0  0  0  0  0  0  0  0  0  0  0
  146.0241  134.9000  152.1978 C   0  0  0  0  0  0  0  0  0  0  0  0
  145.5467  137.4213  152.0964 C   0  0  1  0  0  0  0  0  0  0  0  0
  144.5893  137.5528  153.2964 C   0  0  0  0  0  0  0  0  0  0  0  0
  146.9171  137.6356  152.5612 N   0  0  0  0  0  0  0  0  0  0  0  0
  147.3320  138.6617  153.3189 C   0  0  0  0  0  0  0  0  0  0  0  0
  146.5837  139.5472  153.7334 O   0  0  0  0  0  0  0  0  0  0  0  0
  148.6534  138.5866  153.5565 N   0  0  0  0  0  0  0  0  0  0  0  0
  149.4640  139.4784  154.3073 C   0  0  0  0  0  0  0  0  0  0  0  0
  150.7929  139.3550  154.4280 N   0  0  0  0  0  0  0  0  0  0  0  0
  151.3371  140.3603  155.2145 N   0  0  0  0  0  0  0  0  0  0  0  0
  150.4081  141.2112  155.6661 C   0  0  0  0  0  0  0  0  0  0  0  0
  150.7510  142.3757  156.5340 C   0  0  0  0  0  0  0  0  0  0  0  0
  151.5207  142.1798  157.8199 C   0  0  0  0  0  0  0  0  0  0  0  0
  150.0733  142.5970  157.8686 C   0  0  0  0  0  0  0  0  0  0  0  0
  148.7631  140.8454  155.1557 S   0  0  0  0  0  0  0  0  0  0  0  0
  143.3347  135.6871  151.8585 H   0  0  0  0  0  0  0  0  0  0  0  0
  143.9216  134.7418  150.4948 H   0  0  0  0  0  0  0  0  0  0  0  0
  143.5640  136.4428  150.2838 H   0  0  0  0  0  0  0  0  0  0  0  0
  146.0084  136.1167  150.4432 H   0  0  0  0  0  0  0  0  0  0  0  0
  145.5375  134.8216  153.1706 H   0  0  0  0  0  0  0  0  0  0  0  0
  147.0931  135.0245  152.3661 H   0  0  0  0  0  0  0  0  0  0  0  0
  145.8958  133.9453  151.6869 H   0  0  0  0  0  0  0  0  0  0  0  0
  145.2965  138.2021  151.3756 H   0  0  0  0  0  0  0  0  0  0  0  0
  143.5454  137.5236  152.9861 H   0  0  0  0  0  0  0  0  0  0  0  0
  144.7353  138.5008  153.8152 H   0  0  0  0  0  0  0  0  0  0  0  0
  144.7474  136.7525  154.0198 H   0  0  0  0  0  0  0  0  0  0  0  0
  147.6029  136.9543  152.2707 H   0  0  0  0  0  0  0  0  0  0  0  0
  149.1374  137.7986  153.1523 H   0  0  0  0  0  0  0  0  0  0  0  0
  150.9819  143.2506  155.9290 H   0  0  0  0  0  0  0  0  0  0  0  0
  151.7586  141.1600  158.1168 H   0  0  0  0  0  0  0  0  0  0  0  0
  152.2693  142.9269  158.0750 H   0  0  0  0  0  0  0  0  0  0  0  0
  149.8561  143.6236  158.1570 H   0  0  0  0  0  0  0  0  0  0  0  0
  149.3552  141.8553  158.2121 H   0  0  0  0  0  0  0  0  0  0  0  0
  1  2  1  0  0  0  0
  1 18  1  0  0  0  0
  1 19  1  0  0  0  0
  1 20  1  0  0  0  0
  2  3  1  0  0  0  0
  2  4  1  0  0  0  0
  2 21  1  0  0  0  0
  3 22  1  0  0  0  0
  3 23  1  0  0  0  0
  3 24  1  0  0  0  0
  4  5  1  0  0  0  0
  4  6  1  0  0  0  0
  4 25  1  0  0  0  0
  5 26  1  0  0  0  0
  5 27  1  0  0  0  0
  5 28  1  0  0  0  0
  6  7  1  0  0  0  0
  6 29  1  0  0  0  0
  7  8  2  0  0  0  0
  7  9  1  0  0  0  0
  9 10  1  0  0  0  0
  9 30  1  0  0  0  0
 10 17  1  0  0  0  0
 10 11  2  0  0  0  0
 11 12  1  0  0  0  0
 12 13  2  0  0  0  0
 13 14  1  0  0  0  0
 13 17  1  0  0  0  0
 14 16  1  0  0  0  0
 14 15  1  0  0  0  0
 14 31  1  0  0  0  0
 15 16  1  0  0  0  0
 15 32  1  0  0  0  0
 15 33  1  0  0  0  0
 16 34  1  0  0  0  0
 16 35  1  0  0  0  0
M  END
> <s_m_source_file>
AV-unprocessed.smi

> <i_m_source_file_index>
1027

> <i_lp_mmshare_version>
43012

> <i_f3d_flags>
0

> <s_epik_input>
W0NIM11bQ0hdKFtDSDNdKVtDQEhdKFtDSDNdKVtOSF1DKD1PKVtOSF1jMW5uYyhzMSlbQ0hdMltDSDJdW0NIMl0y

> <s_epik_cmdline>
J2VwaWtfcHl0aG9uJywgJy1waCcsICc3LjAnLCAnLXRuJywgJzgnLCAnLW1hJywgJzIwMCcsICctbWV0YWxfYmluZGluZycsICctaW1hZScsICc8aW5maWxlLm1hZT4nLCAnLW9tYWUnLCAnPG91dGZpbGUubWFlPic=

> <r_lp_tautomer_probability>
1

> <r_epik_Ionization_Penalty>
0.000943246

> <r_epik_Ionization_Penalty_Charging>
0

> <r_epik_Ionization_Penalty_Neutral>
0.000943246

> <r_epik_State_Penalty>
-0

> <r_epik_Charging_Adjusted_Penalty>
0

> <i_epik_Tot_Q>
0

> <i_epik_Tot_abs_Q>
0

> <r_epik_Metal_State_Penalty>
0.281646

> <b_epik_Metal_Only>
0

> <s_lp_Force_Field>
OPLS_2005

> <r_lp_Energy>
3.72906

> <b_lp_Chiralities_Consistent>
1

> <s_lp_Variant>
AV-unprocessed.smi:1027-2

> <Gold.Version>
5.8.1

> <Gold.Id.Protein>
6NUR|6NUR_protein|mol2

> <Gold.PLP.Fitness>
33.3031

> <Gold.PLP.PLP>
-27.8456

> <Gold.PLP.part.hbond>
-5.0000

> <Gold.PLP.part.metal>
0.0000

> <Gold.PLP.part.buried>
-2.4397

> <Gold.PLP.part.nonpolar>
-21.8288

> <Gold.PLP.part.repulsive>
0.4204

> <Gold.PLP.ligand.clash>
0.0000

> <Gold.PLP.ligand.torsion>
0.2143

> <Gold.PLP.Chemscore.Hbond>
1.9120

> <Gold.PLP.Chemscore.CHOScore>
0.0000

> <Gold.PLP.Chemscore.Metal>
0.0000

> <Gold.Chemscore.Hbonds>
donor molecule, donor type, donor heavy atom, donor atom, acceptor molecule, acceptor atom, score
      L1  H     6    29       P1  7948  1.00
      L1  H     9    30       P1  7948  0.90

> <Gold.PLP.Chemscore.Internal.Correction>
0.1502

> <Gold.Rescore>
     Score         DG    S(hbond)    S(metal)    S(lipo)     H(rot)  DE(clash)    DE(int)     intcor
     13.11     -15.44       1.94        0.00      60.17       1.39       0.26       2.07       ----

> <Gold.Chemscore.Fitness>
13.1121

> <Gold.Chemscore.DG>
-15.4442

> <Gold.Chemscore.ZeroCoef>
-5.4800

> <Gold.Chemscore.Hbond>
1.9402

> <Gold.Chemscore.Metal>
0.0000

> <Gold.Chemscore.Lipo>
60.1689

> <Gold.Chemscore.Internal_Hbond>
0.0000

> <Gold.Chemscore.DEClash>
0.2617

> <Gold.Chemscore.DEInternal>
2.0703

> <Gold.Chemscore.Rot>
1.3890

> <Gold.Chemscore.Internal.Correction>
   9.000000E+99

> <Gold.Chemscore.Hbonds>
donor molecule, donor type, donor heavy atom, donor atom, acceptor molecule, acceptor atom, score
      L1  H     6    29       P1  7948  0.97
      L1  H     9    30       P1  7948  0.84

> <Gold.Chemscore.Hbond.Weighted>
-6.4802

> <Gold.Chemscore.Metal.Weighted>
-0.0000

> <Gold.Chemscore.Lipo.Weighted>
-7.0398

> <Gold.Chemscore.Internal_Hbond.Weighted>
0.0000

> <Gold.Chemscore.DEClash.Weighted>
0.2617

> <Gold.Chemscore.DEInternal.Weighted>
2.0703

> <Gold.Chemscore.Rot.Weighted>
3.5559

> <Gold.Chemscore.Internal.Correction.Weighted>
   9.000000E+99

> <Gold.Protein.RotatedTorsions>
[ 6907 6896 6895 6894 ] final   18.10 input  -60.11 | X-H torsion
[ 7974 7965 7964 7962 ] final -173.83 input  175.53 | X-H torsion
[ 8008 7997 7996 7995 ] final  137.23 input   59.86 | X-H torsion
[ 10167 10162 10161 10158 ] final   71.97 input  -65.29 | X-H torsion
[ 10718 10713 10712 10709 ] final  170.38 input   66.30 | X-H torsion
[ 10763 10752 10751 10750 ] final  106.24 input  -60.55 | X-H torsion
[ 11005 11000 10999 10996 ] final  123.50 input  -57.11 | X-H torsion

> <Gold.Protein.ActiveResidues>
 VAL166  LYS551  ARG553  GLY616  TRP617  ASP618  TYR619  PRO620  LYS621  CYS622 
 ASP623  PHE694  ASN695  SER759  ASP760  ASP761  ALA762  ILE779  LEU786  VAL792 
 PHE793  MET794  SER795  GLU796  ALA797  LYS798  CYS799  TRP800  GLU811  SER814 

> <Gold.Protein.RotatedAtoms>
  151.8600  135.0527  160.0468 H   0  0  0  0  0  0  0  0  0  0  0  0  # atno 6907 bound_to 6896
  152.2670  133.5344  159.5424 H   0  0  0  0  0  0  0  0  0  0  0  0  # atno 6908 bound_to 6896
  150.7137  134.0667  159.3892 H   0  0  0  0  0  0  0  0  0  0  0  0  # atno 6909 bound_to 6896
  144.7135  140.1562  143.6380 H   0  0  0  0  0  0  0  0  0  0  0  0  # atno 7974 bound_to 7965
  156.3002  140.2425  156.3875 H   0  0  0  0  0  0  0  0  0  0  0  0  # atno 8008 bound_to 7997
  154.8644  140.0418  157.1705 H   0  0  0  0  0  0  0  0  0  0  0  0  # atno 8009 bound_to 7997
  154.8861  140.2956  155.5401 H   0  0  0  0  0  0  0  0  0  0  0  0  # atno 8010 bound_to 7997
  140.0403  144.5394  150.7439 H   0  0  0  0  0  0  0  0  0  0  0  0  # atno 10167 bound_to 10162
  157.0090  131.0198  151.2809 H   0  0  0  0  0  0  0  0  0  0  0  0  # atno 10718 bound_to 10713
  153.3902  135.3883  155.1918 H   0  0  0  0  0  0  0  0  0  0  0  0  # atno 10763 bound_to 10752
  154.8718  135.3746  154.4746 H   0  0  0  0  0  0  0  0  0  0  0  0  # atno 10764 bound_to 10752
  153.5232  135.7086  153.5782 H   0  0  0  0  0  0  0  0  0  0  0  0  # atno 10765 bound_to 10752
  139.9315  134.9641  156.8268 H   0  0  0  0  0  0  0  0  0  0  0  0  # atno 11005 bound_to 11000
  145.9071  139.2465  143.1459 LP  0  0  0  0  0  0  0  0  0  0  0  0  # atno 17320 bound_to 7965
  145.9753  140.8727  143.0142 LP  0  0  0  0  0  0  0  0  0  0  0  0  # atno 17321 bound_to 7965
  140.7263  143.2639  151.4109 LP  0  0  0  0  0  0  0  0  0  0  0  0  # atno 17342 bound_to 10162
  139.6018  144.1280  152.2206 LP  0  0  0  0  0  0  0  0  0  0  0  0  # atno 17343 bound_to 10162
  157.5335  130.8073  149.7944 LP  0  0  0  0  0  0  0  0  0  0  0  0  # atno 17370 bound_to 10713
  156.0143  130.3820  150.2161 LP  0  0  0  0  0  0  0  0  0  0  0  0  # atno 17371 bound_to 10713
  140.6188  134.0013  155.7609 LP  0  0  0  0  0  0  0  0  0  0  0  0  # atno 17394 bound_to 11000
  141.0907  133.9922  157.3242 LP  0  0  0  0  0  0  0  0  0  0  0  0  # atno 17395 bound_to 11000

$$$$
