AV-unprocessed.smi:1|AV-procd|sdf|3|dock6
  -GOLD-   2262015 83D 1   1.00000     0.00000
 Structure written by MMmdl.
 57 62  0  0  0  0  0  0  0  0  1 V2000
  147.5561  130.7623  153.1286 O   0  0  0  0  0  0  0  0  0  0  0  0
  148.6398  130.7395  153.7128 C   0  0  0  0  0  0  0  0  0  0  0  0
  149.1886  131.9117  154.3710 N   0  0  0  0  0  0  0  0  0  0  0  0
  148.6930  133.1711  154.3848 C   0  0  0  0  0  0  0  0  0  0  0  0
  147.4843  133.4845  153.8488 N   0  0  0  0  0  0  0  0  0  0  0  0
  147.0404  134.7440  153.8825 C   0  0  0  0  0  0  0  0  0  0  0  0
  147.6365  135.8235  154.3911 N   0  0  0  0  0  0  0  0  0  0  0  0
  148.8551  135.5204  154.9275 C   0  0  0  0  0  0  0  0  0  0  0  0
  149.4465  134.2265  154.9614 C   0  0  0  0  0  0  0  0  0  0  0  0
  150.6882  134.2919  155.5796 N   0  0  0  0  0  0  0  0  0  0  0  0
  150.8232  135.5544  155.8841 C   0  0  0  0  0  0  0  0  0  0  0  0
  149.7722  136.3671  155.5216 N   0  0  0  0  0  0  0  0  0  0  0  0
  149.6629  137.8474  155.7212 C   0  0  2  0  0  0  0  0  0  0  0  0
  150.9077  138.3296  156.1248 O   0  0  0  0  0  0  0  0  0  0  0  0
  150.7522  139.2906  157.1593 C   0  0  2  0  0  0  0  0  0  0  0  0
  152.0164  139.3719  158.0231 C   0  0  0  0  0  0  0  0  0  0  0  0
  151.8153  140.3263  159.0521 O   0  0  0  0  0  0  0  0  0  0  0  0
  152.8737  140.8747  159.6796 C   0  0  0  0  0  0  0  0  0  0  0  0
  153.9552  140.3005  159.8231 O   0  0  0  0  0  0  0  0  0  0  0  0
  152.5991  142.2509  160.1846 C   0  0  0  0  0  0  0  0  0  0  0  0
  152.1894  143.2542  159.2755 C   0  0  0  0  0  0  0  0  0  0  0  0
  151.9237  144.5629  159.7230 C   0  0  0  0  0  0  0  0  0  0  0  0
  152.0651  144.8848  161.0852 C   0  0  0  0  0  0  0  0  0  0  0  0
  152.4712  143.8957  161.9999 C   0  0  0  0  0  0  0  0  0  0  0  0
  152.7369  142.5862  161.5545 C   0  0  0  0  0  0  0  0  0  0  0  0
  149.5039  138.8313  157.9096 C   0  0  2  0  0  0  0  0  0  0  0  0
  149.7902  137.8216  158.8616 O   0  0  0  0  0  0  0  0  0  0  0  0
  148.5189  136.7407  158.8508 S   0  0  0  0  0  0  0  0  0  0  0  0
  149.0581  135.3727  158.8488 O   0  0  0  0  0  0  0  0  0  0  0  0
  147.5260  137.1953  159.8363 O   0  0  0  0  0  0  0  0  0  0  0  0
  147.9293  137.0900  157.3263 O   0  0  0  0  0  0  0  0  0  0  0  0
  148.6313  138.2145  156.8091 C   0  0  2  0  0  0  0  0  0  0  0  0
  149.4275  129.4712  153.8657 C   0  0  0  0  0  0  0  0  0  0  0  0
  148.8955  128.2479  153.3994 C   0  0  0  0  0  0  0  0  0  0  0  0
  149.6335  127.0550  153.5263 C   0  0  0  0  0  0  0  0  0  0  0  0
  150.9129  127.0765  154.1128 C   0  0  0  0  0  0  0  0  0  0  0  0
  151.4558  128.2927  154.5686 C   0  0  0  0  0  0  0  0  0  0  0  0
  150.7184  129.4862  154.4430 C   0  0  0  0  0  0  0  0  0  0  0  0
  150.0519  131.7713  154.8751 H   0  0  0  0  0  0  0  0  0  0  0  0
  146.0708  134.9110  153.4372 H   0  0  0  0  0  0  0  0  0  0  0  0
  151.7064  135.9342  156.3766 H   0  0  0  0  0  0  0  0  0  0  0  0
  149.4002  138.2381  154.7374 H   0  0  0  0  0  0  0  0  0  0  0  0
  150.5450  140.2579  156.6981 H   0  0  0  0  0  0  0  0  0  0  0  0
  152.2212  138.4017  158.4772 H   0  0  0  0  0  0  0  0  0  0  0  0
  152.8791  139.6389  157.4109 H   0  0  0  0  0  0  0  0  0  0  0  0
  152.0750  143.0309  158.2244 H   0  0  0  0  0  0  0  0  0  0  0  0
  151.6115  145.3203  159.0192 H   0  0  0  0  0  0  0  0  0  0  0  0
  151.8623  145.8886  161.4283 H   0  0  0  0  0  0  0  0  0  0  0  0
  152.5796  144.1411  163.0458 H   0  0  0  0  0  0  0  0  0  0  0  0
  153.0463  141.8513  162.2833 H   0  0  0  0  0  0  0  0  0  0  0  0
  149.0048  139.6572  158.4177 H   0  0  0  0  0  0  0  0  0  0  0  0
  147.9389  138.9506  156.4001 H   0  0  0  0  0  0  0  0  0  0  0  0
  147.9149  128.2151  152.9463 H   0  0  0  0  0  0  0  0  0  0  0  0
  149.2170  126.1233  153.1728 H   0  0  0  0  0  0  0  0  0  0  0  0
  151.4788  126.1617  154.2095 H   0  0  0  0  0  0  0  0  0  0  0  0
  152.4402  128.3114  155.0127 H   0  0  0  0  0  0  0  0  0  0  0  0
  151.1576  130.4099  154.7913 H   0  0  0  0  0  0  0  0  0  0  0  0
  1  2  2  0  0  0  0
  2  3  1  0  0  0  0
  2 33  1  0  0  0  0
  3  4  1  0  0  0  0
  3 39  1  0  0  0  0
  4  9  1  0  0  0  0
  4  5  2  0  0  0  0
  5  6  1  0  0  0  0
  6  7  2  0  0  0  0
  6 40  1  0  0  0  0
  7  8  1  0  0  0  0
  8 12  1  0  0  0  0
  8  9  2  0  0  0  0
  9 10  1  0  0  0  0
 10 11  2  0  0  0  0
 11 12  1  0  0  0  0
 11 41  1  0  0  0  0
 12 13  1  0  0  0  0
 13 32  1  0  0  0  0
 13 14  1  0  0  0  0
 13 42  1  0  0  0  0
 14 15  1  0  0  0  0
 15 16  1  0  0  0  0
 15 26  1  0  0  0  0
 15 43  1  0  0  0  0
 16 17  1  0  0  0  0
 16 44  1  0  0  0  0
 16 45  1  0  0  0  0
 17 18  1  0  0  0  0
 18 19  2  0  0  0  0
 18 20  1  0  0  0  0
 20 25  1  0  0  0  0
 20 21  2  0  0  0  0
 21 22  1  0  0  0  0
 21 46  1  0  0  0  0
 22 23  2  0  0  0  0
 22 47  1  0  0  0  0
 23 24  1  0  0  0  0
 23 48  1  0  0  0  0
 24 25  2  0  0  0  0
 24 49  1  0  0  0  0
 25 50  1  0  0  0  0
 26 32  1  0  0  0  0
 26 27  1  0  0  0  0
 26 51  1  0  0  0  0
 27 28  1  0  0  0  0
 28 29  2  0  0  0  0
 28 30  2  0  0  0  0
 28 31  1  0  0  0  0
 31 32  1  0  0  0  0
 32 52  1  0  0  0  0
 33 38  1  0  0  0  0
 33 34  2  0  0  0  0
 34 35  1  0  0  0  0
 34 53  1  0  0  0  0
 35 36  2  0  0  0  0
 35 54  1  0  0  0  0
 36 37  1  0  0  0  0
 36 55  1  0  0  0  0
 37 38  2  0  0  0  0
 37 56  1  0  0  0  0
 38 57  1  0  0  0  0
M  END
> <s_m_source_file>
AV-unprocessed.smi

> <i_m_source_file_index>
1

> <i_lp_mmshare_version>
43012

> <i_f3d_flags>
0

> <s_epik_input>
W2NIXTFbY0hdW2NIXVtjSF1bY0hdYzFDKD1PKVtOSF1jKG5bY0hdbjIpYyhjMjMpbltjSF1uM1tDQEBIXShbQ0BIXShbQ0BIXTQ1KU9TKE81KSg9Tyk9TylPW0NASF00W0NIMl1PQyg9TyljNltjSF1bY0hdW2NIXVtjSF1bY0hdNg==

> <s_epik_cmdline>
J2VwaWtfcHl0aG9uJywgJy1waCcsICc3LjAnLCAnLXRuJywgJzgnLCAnLW1hJywgJzIwMCcsICctbWV0YWxfYmluZGluZycsICctaW1hZScsICc8aW5maWxlLm1hZT4nLCAnLW9tYWUnLCAnPG91dGZpbGUubWFlPic=

> <r_lp_tautomer_probability>
1

> <r_epik_Ionization_Penalty>
0.00195722

> <r_epik_Ionization_Penalty_Charging>
0

> <r_epik_Ionization_Penalty_Neutral>
0.00195722

> <r_epik_State_Penalty>
0.00633741

> <r_epik_Charging_Adjusted_Penalty>
0.00633741

> <i_epik_Tot_Q>
0

> <i_epik_Tot_abs_Q>
0

> <r_epik_Metal_State_Penalty>
0.341185

> <b_epik_Metal_Only>
0

> <s_epik_Chemistry_Notes>
This compound has an ester and may undergo hydrolysis at high or low pH. This compound contains an acetal/aminal-like group ( X-CH(R)-Y where X, Y are N, S, or O) that may be acid/base labile, releasing an aldehyde.

> <s_lp_Force_Field>
OPLS_2005

> <r_lp_Energy>
44.5828

> <b_lp_Chiralities_Consistent>
1

> <s_lp_Variant>
AV-unprocessed.smi:1-3

> <Gold.Version>
5.8.1

> <Gold.Id.Protein>
6NUR|6NUR_protein|mol2

> <Gold.PLP.Fitness>
54.8788

> <Gold.PLP.PLP>
-52.8118

> <Gold.PLP.part.hbond>
-2.4558

> <Gold.PLP.part.metal>
0.0000

> <Gold.PLP.part.buried>
-6.3303

> <Gold.PLP.part.nonpolar>
-44.1695

> <Gold.PLP.part.repulsive>
1.1268

> <Gold.PLP.ligand.clash>
0.0000

> <Gold.PLP.ligand.torsion>
1.8071

> <Gold.PLP.Chemscore.Hbond>
1.8268

> <Gold.PLP.Chemscore.CHOScore>
0.0000

> <Gold.PLP.Chemscore.Metal>
0.0000

> <Gold.Chemscore.Hbonds>
donor molecule, donor type, donor heavy atom, donor atom, acceptor molecule, acceptor atom, score
      P1  H  6896  6908       L1    29  1.00
      P1  H  6934  6947       L1    30  0.64

> <Gold.PLP.Chemscore.Internal.Correction>
0.2007

> <Gold.Rescore>
     Score         DG    S(hbond)    S(metal)    S(lipo)     H(rot)  DE(clash)    DE(int)     intcor
     14.21     -18.83       1.74        0.00     111.15       2.13       0.61       4.01       ----

> <Gold.Chemscore.Fitness>
14.2078

> <Gold.Chemscore.DG>
-18.8273

> <Gold.Chemscore.ZeroCoef>
-5.4800

> <Gold.Chemscore.Hbond>
1.7379

> <Gold.Chemscore.Metal>
0.0000

> <Gold.Chemscore.Lipo>
111.1472

> <Gold.Chemscore.Internal_Hbond>
0.0000

> <Gold.Chemscore.DEClash>
0.6130

> <Gold.Chemscore.DEInternal>
4.0066

> <Gold.Chemscore.Rot>
2.1333

> <Gold.Chemscore.Internal.Correction>
   9.000000E+99

> <Gold.Chemscore.Hbonds>
donor molecule, donor type, donor heavy atom, donor atom, acceptor molecule, acceptor atom, score
      P1  H  6896  6908       L1    29  0.99
      P1  H  6934  6947       L1    30  0.62

> <Gold.Chemscore.Hbond.Weighted>
-5.8045

> <Gold.Chemscore.Metal.Weighted>
-0.0000

> <Gold.Chemscore.Lipo.Weighted>
-13.0042

> <Gold.Chemscore.Internal_Hbond.Weighted>
0.0000

> <Gold.Chemscore.DEClash.Weighted>
0.6130

> <Gold.Chemscore.DEInternal.Weighted>
4.0066

> <Gold.Chemscore.Rot.Weighted>
5.4614

> <Gold.Chemscore.Internal.Correction.Weighted>
   9.000000E+99

> <Gold.Protein.RotatedTorsions>
[ 6907 6896 6895 6894 ] final  176.33 input  -60.11 | X-H torsion
[ 7974 7965 7964 7962 ] final   49.11 input  175.53 | X-H torsion
[ 8008 7997 7996 7995 ] final  167.33 input   59.86 | X-H torsion
[ 10167 10162 10161 10158 ] final  110.94 input  -65.29 | X-H torsion
[ 10718 10713 10712 10709 ] final   -1.93 input   66.30 | X-H torsion
[ 10763 10752 10751 10750 ] final -142.61 input  -60.55 | X-H torsion
[ 11005 11000 10999 10996 ] final -134.50 input  -57.11 | X-H torsion

> <Gold.Protein.ActiveResidues>
 VAL166  LYS551  ARG553  GLY616  TRP617  ASP618  TYR619  PRO620  LYS621  CYS622 
 ASP623  PHE694  ASN695  SER759  ASP760  ASP761  ALA762  ILE779  LEU786  VAL792 
 PHE793  MET794  SER795  GLU796  ALA797  LYS798  CYS799  TRP800  GLU811  SER814 

> <Gold.Protein.RotatedAtoms>
  151.7219  133.3315  159.3317 H   0  0  0  0  0  0  0  0  0  0  0  0  # atno 6907 bound_to 6896
  150.7649  134.6440  159.6262 H   0  0  0  0  0  0  0  0  0  0  0  0  # atno 6908 bound_to 6896
  152.3646  134.6824  160.0248 H   0  0  0  0  0  0  0  0  0  0  0  0  # atno 6909 bound_to 6896
  146.0140  139.4575  142.9938 H   0  0  0  0  0  0  0  0  0  0  0  0  # atno 7974 bound_to 7965
  156.1642  140.1619  156.8559 H   0  0  0  0  0  0  0  0  0  0  0  0  # atno 8008 bound_to 7997
  154.5191  140.0782  156.8173 H   0  0  0  0  0  0  0  0  0  0  0  0  # atno 8009 bound_to 7997
  155.3645  140.3397  155.4244 H   0  0  0  0  0  0  0  0  0  0  0  0  # atno 8010 bound_to 7997
  139.6649  144.7128  151.1795 H   0  0  0  0  0  0  0  0  0  0  0  0  # atno 10167 bound_to 10162
  156.7983  130.5384  149.5725 H   0  0  0  0  0  0  0  0  0  0  0  0  # atno 10718 bound_to 10713
  154.8502  135.3491  154.6055 H   0  0  0  0  0  0  0  0  0  0  0  0  # atno 10763 bound_to 10752
  153.6664  135.6987  153.5166 H   0  0  0  0  0  0  0  0  0  0  0  0  # atno 10764 bound_to 10752
  153.2777  135.4273  155.1006 H   0  0  0  0  0  0  0  0  0  0  0  0  # atno 10765 bound_to 10752
  140.8984  134.1722  157.4478 H   0  0  0  0  0  0  0  0  0  0  0  0  # atno 11005 bound_to 11000
  145.7297  141.0046  143.1358 LP  0  0  0  0  0  0  0  0  0  0  0  0  # atno 17320 bound_to 7965
  144.6964  139.8970  143.7456 LP  0  0  0  0  0  0  0  0  0  0  0  0  # atno 17321 bound_to 7965
  140.7595  143.5934  150.8772 LP  0  0  0  0  0  0  0  0  0  0  0  0  # atno 17342 bound_to 10162
  139.9595  143.6180  152.3006 LP  0  0  0  0  0  0  0  0  0  0  0  0  # atno 17343 bound_to 10162
  156.1117  130.6045  151.0057 LP  0  0  0  0  0  0  0  0  0  0  0  0  # atno 17370 bound_to 10713
  157.6566  131.0888  150.7933 LP  0  0  0  0  0  0  0  0  0  0  0  0  # atno 17371 bound_to 10713
  139.8739  134.9888  156.5428 LP  0  0  0  0  0  0  0  0  0  0  0  0  # atno 17394 bound_to 11000
  140.8260  133.8316  155.8940 LP  0  0  0  0  0  0  0  0  0  0  0  0  # atno 17395 bound_to 11000

$$$$
