AV-unprocessed.smi:2022|AV-procd|sdf|8187|dock4
  -GOLD-   2272010443D 1   1.00000     0.00000
 Structure written by MMmdl.
 34 35  0  0  0  0  0  0  0  0  1 V2000
  147.0087  142.1807  154.4948 C   0  0  0  0  0  0  0  0  0  0  0  0
  146.8210  140.7099  154.3447 C   0  0  0  0  0  0  0  0  0  0  0  0
  147.1586  139.8261  153.3587 C   0  0  0  0  0  0  0  0  0  0  0  0
  146.6776  138.5878  153.8611 C   0  0  0  0  0  0  0  0  0  0  0  0
  146.8325  137.3918  153.1150 N   0  0  0  0  0  0  0  0  0  0  0  0
  145.9101  136.4409  152.8899 C   0  0  0  0  0  0  0  0  0  0  0  0
  144.7568  136.4544  153.3214 O   0  0  0  0  0  0  0  0  0  0  0  0
  146.4042  135.4580  152.1230 N   0  0  0  0  0  0  0  0  0  0  0  0
  145.6620  134.2910  151.6466 C   0  0  2  0  0  0  0  0  0  0  0  0
  146.6154  133.2705  150.9728 C   0  0  0  0  0  0  0  0  0  0  0  0
  145.9726  132.3220  149.9393 C   0  0  0  0  0  0  0  0  0  0  0  0
  144.7442  131.5332  150.4367 C   0  0  0  0  0  0  0  0  0  0  0  0
  143.5738  132.3615  151.0185 C   0  0  0  0  0  0  0  0  0  0  0  0
  143.5179  133.7443  150.5456 N   0  0  0  0  0  0  0  0  0  0  0  0
  144.4300  134.6947  150.8136 C   0  0  0  0  0  0  0  0  0  0  0  0
  144.3021  135.8442  150.3935 O   0  0  0  0  0  0  0  0  0  0  0  0
  146.1006  138.7044  155.0473 N   0  0  0  0  0  0  0  0  0  0  0  0
  146.1891  140.0654  155.3631 O   0  0  0  0  0  0  0  0  0  0  0  0
  147.7470  142.5529  153.7844 H   0  0  0  0  0  0  0  0  0  0  0  0
  147.3527  142.4283  155.4992 H   0  0  0  0  0  0  0  0  0  0  0  0
  146.0717  142.7087  154.3173 H   0  0  0  0  0  0  0  0  0  0  0  0
  147.6651  140.0356  152.4283 H   0  0  0  0  0  0  0  0  0  0  0  0
  147.7402  137.2509  152.6968 H   0  0  0  0  0  0  0  0  0  0  0  0
  147.3621  135.5332  151.8128 H   0  0  0  0  0  0  0  0  0  0  0  0
  145.2536  133.8141  152.5388 H   0  0  0  0  0  0  0  0  0  0  0  0
  147.4203  133.8067  150.4678 H   0  0  0  0  0  0  0  0  0  0  0  0
  147.1011  132.6778  151.7491 H   0  0  0  0  0  0  0  0  0  0  0  0
  145.7002  132.8887  149.0478 H   0  0  0  0  0  0  0  0  0  0  0  0
  146.7284  131.6127  149.6007 H   0  0  0  0  0  0  0  0  0  0  0  0
  144.3664  130.9512  149.5953 H   0  0  0  0  0  0  0  0  0  0  0  0
  145.0593  130.7988  151.1790 H   0  0  0  0  0  0  0  0  0  0  0  0
  142.6289  131.8765  150.7730 H   0  0  0  0  0  0  0  0  0  0  0  0
  143.6207  132.3601  152.1081 H   0  0  0  0  0  0  0  0  0  0  0  0
  142.7162  134.0045  149.9895 H   0  0  0  0  0  0  0  0  0  0  0  0
  1  2  1  0  0  0  0
  1 19  1  0  0  0  0
  1 20  1  0  0  0  0
  1 21  1  0  0  0  0
  2 18  1  0  0  0  0
  2  3  2  0  0  0  0
  3  4  1  0  0  0  0
  3 22  1  0  0  0  0
  4  5  1  0  0  0  0
  4 17  2  0  0  0  0
  5  6  1  0  0  0  0
  5 23  1  0  0  0  0
  6  7  2  0  0  0  0
  6  8  1  0  0  0  0
  8  9  1  0  0  0  0
  8 24  1  0  0  0  0
  9 15  1  0  0  0  0
  9 10  1  0  0  0  0
  9 25  1  0  0  0  0
 10 11  1  0  0  0  0
 10 26  1  0  0  0  0
 10 27  1  0  0  0  0
 11 12  1  0  0  0  0
 11 28  1  0  0  0  0
 11 29  1  0  0  0  0
 12 13  1  0  0  0  0
 12 30  1  0  0  0  0
 12 31  1  0  0  0  0
 13 14  1  0  0  0  0
 13 32  1  0  0  0  0
 13 33  1  0  0  0  0
 14 15  1  0  0  0  0
 14 34  1  0  0  0  0
 15 16  2  0  0  0  0
 17 18  1  0  0  0  0
M  END
> <s_m_source_file>
AV-unprocessed.smi

> <i_m_source_file_index>
2022

> <i_lp_mmshare_version>
43012

> <i_f3d_flags>
0

> <s_epik_input>
W0NIM11jMVtjSF1jKG5vMSlbTkhdQyg9TylbTkhdW0NAQEhdMltDSDJdW0NIMl1bQ0gyXVtDSDJdW05IXUMyPU8=

> <s_epik_cmdline>
J2VwaWtfcHl0aG9uJywgJy1waCcsICc3LjAnLCAnLXRuJywgJzgnLCAnLW1hJywgJzIwMCcsICctbWV0YWxfYmluZGluZycsICctaW1hZScsICc8aW5maWxlLm1hZT4nLCAnLW9tYWUnLCAnPG91dGZpbGUubWFlPic=

> <r_lp_tautomer_probability>
1

> <r_epik_Ionization_Penalty>
2.27343e-05

> <r_epik_Ionization_Penalty_Charging>
0

> <r_epik_Ionization_Penalty_Neutral>
2.27343e-05

> <r_epik_State_Penalty>
-0

> <r_epik_Charging_Adjusted_Penalty>
0

> <i_epik_Tot_Q>
0

> <i_epik_Tot_abs_Q>
0

> <r_epik_Metal_State_Penalty>
-0

> <b_epik_Metal_Only>
0

> <s_lp_Force_Field>
OPLS_2005

> <r_lp_Energy>
12.0489

> <b_lp_Chiralities_Consistent>
1

> <s_lp_Variant>
AV-unprocessed.smi:2022-1

> <Gold.Version>
5.8.1

> <Gold.Id.Protein>
6NUR|6NUR_protein|mol2

> <Gold.PLP.Fitness>
37.2760

> <Gold.PLP.PLP>
-29.0577

> <Gold.PLP.part.hbond>
-3.0000

> <Gold.PLP.part.metal>
0.0000

> <Gold.PLP.part.buried>
-4.9433

> <Gold.PLP.part.nonpolar>
-23.9552

> <Gold.PLP.part.repulsive>
2.5910

> <Gold.PLP.ligand.clash>
0.0000

> <Gold.PLP.ligand.torsion>
0.4175

> <Gold.PLP.Chemscore.Hbond>
3.0000

> <Gold.PLP.Chemscore.CHOScore>
0.0000

> <Gold.PLP.Chemscore.Metal>
0.0000

> <Gold.Chemscore.Hbonds>
donor molecule, donor type, donor heavy atom, donor atom, acceptor molecule, acceptor atom, score
      L1  H     5    23       P1  7948  1.00
      L1  H     8    24       P1  7948  1.00
      L1  H    14    34       P1 10186  1.00

> <Gold.PLP.Chemscore.Internal.Correction>
0.0533

> <Gold.Rescore>
     Score         DG    S(hbond)    S(metal)    S(lipo)     H(rot)  DE(clash)    DE(int)     intcor
     19.09     -19.59       2.90        0.00      59.78       1.00       0.00       0.49       ----

> <Gold.Chemscore.Fitness>
19.0934

> <Gold.Chemscore.DG>
-19.5879

> <Gold.Chemscore.ZeroCoef>
-5.4800

> <Gold.Chemscore.Hbond>
2.8963

> <Gold.Chemscore.Metal>
0.0000

> <Gold.Chemscore.Lipo>
59.7792

> <Gold.Chemscore.Internal_Hbond>
0.0000

> <Gold.Chemscore.DEClash>
0.0048

> <Gold.Chemscore.DEInternal>
0.4896

> <Gold.Chemscore.Rot>
1.0000

> <Gold.Chemscore.Internal.Correction>
   9.000000E+99

> <Gold.Chemscore.Hbonds>
donor molecule, donor type, donor heavy atom, donor atom, acceptor molecule, acceptor atom, score
      L1  H     5    23       P1  7948  0.96
      L1  H     8    24       P1  7948  0.98
      L1  H    14    34       P1 10186  0.99

> <Gold.Chemscore.Hbond.Weighted>
-9.6737

> <Gold.Chemscore.Metal.Weighted>
-0.0000

> <Gold.Chemscore.Lipo.Weighted>
-6.9942

> <Gold.Chemscore.Internal_Hbond.Weighted>
0.0000

> <Gold.Chemscore.DEClash.Weighted>
0.0048

> <Gold.Chemscore.DEInternal.Weighted>
0.4896

> <Gold.Chemscore.Rot.Weighted>
2.5600

> <Gold.Chemscore.Internal.Correction.Weighted>
   9.000000E+99

> <Gold.Protein.RotatedTorsions>
[ 6907 6896 6895 6894 ] final  167.37 input  -60.11 | X-H torsion
[ 7974 7965 7964 7962 ] final   58.33 input  175.53 | X-H torsion
[ 8008 7997 7996 7995 ] final   87.26 input   59.86 | X-H torsion
[ 10167 10162 10161 10158 ] final  -63.50 input  -65.29 | X-H torsion
[ 10718 10713 10712 10709 ] final   88.06 input   66.30 | X-H torsion
[ 10763 10752 10751 10750 ] final   22.33 input  -60.55 | X-H torsion
[ 11005 11000 10999 10996 ] final  116.01 input  -57.11 | X-H torsion

> <Gold.Protein.ActiveResidues>
 VAL166  LYS551  ARG553  GLY616  TRP617  ASP618  TYR619  PRO620  LYS621  CYS622 
 ASP623  PHE694  ASN695  SER759  ASP760  ASP761  ALA762  ILE779  LEU786  VAL792 
 PHE793  MET794  SER795  GLU796  ALA797  LYS798  CYS799  TRP800  GLU811  SER814 

> <Gold.Protein.RotatedAtoms>
  151.8643  133.3463  159.3713 H   0  0  0  0  0  0  0  0  0  0  0  0  # atno 6907 bound_to 6896
  150.7170  134.5175  159.5647 H   0  0  0  0  0  0  0  0  0  0  0  0  # atno 6908 bound_to 6896
  152.2695  134.7949  160.0467 H   0  0  0  0  0  0  0  0  0  0  0  0  # atno 6909 bound_to 6896
  145.9193  139.3716  143.0488 H   0  0  0  0  0  0  0  0  0  0  0  0  # atno 7974 bound_to 7965
  155.9731  140.3384  155.6594 H   0  0  0  0  0  0  0  0  0  0  0  0  # atno 8008 bound_to 7997
  155.6648  140.0720  157.2559 H   0  0  0  0  0  0  0  0  0  0  0  0  # atno 8009 bound_to 7997
  154.4172  140.1702  156.1803 H   0  0  0  0  0  0  0  0  0  0  0  0  # atno 8010 bound_to 7997
  140.5866  143.2335  151.6229 H   0  0  0  0  0  0  0  0  0  0  0  0  # atno 10167 bound_to 10162
  157.6946  131.0280  150.3217 H   0  0  0  0  0  0  0  0  0  0  0  0  # atno 10718 bound_to 10713
  153.0924  135.6650  153.9829 H   0  0  0  0  0  0  0  0  0  0  0  0  # atno 10763 bound_to 10752
  153.9422  135.2992  155.3443 H   0  0  0  0  0  0  0  0  0  0  0  0  # atno 10764 bound_to 10752
  154.7339  135.5110  153.9083 H   0  0  0  0  0  0  0  0  0  0  0  0  # atno 10765 bound_to 10752
  139.9027  134.9592  156.7132 H   0  0  0  0  0  0  0  0  0  0  0  0  # atno 11005 bound_to 11000
  145.8570  140.9496  143.0719 LP  0  0  0  0  0  0  0  0  0  0  0  0  # atno 17320 bound_to 7965
  144.6751  140.0481  143.7479 LP  0  0  0  0  0  0  0  0  0  0  0  0  # atno 17321 bound_to 7965
  139.5201  144.3231  152.0892 LP  0  0  0  0  0  0  0  0  0  0  0  0  # atno 17342 bound_to 10162
  140.2389  144.4290  150.6268 LP  0  0  0  0  0  0  0  0  0  0  0  0  # atno 17343 bound_to 10162
  156.3704  130.3862  149.7180 LP  0  0  0  0  0  0  0  0  0  0  0  0  # atno 17370 bound_to 10713
  156.4597  130.7946  151.2966 LP  0  0  0  0  0  0  0  0  0  0  0  0  # atno 17371 bound_to 10713
  140.7059  133.9265  155.8053 LP  0  0  0  0  0  0  0  0  0  0  0  0  # atno 17394 bound_to 11000
  141.0337  134.0720  157.3985 LP  0  0  0  0  0  0  0  0  0  0  0  0  # atno 17395 bound_to 11000

$$$$
