AV-unprocessed.smi:891|AV-procd|sdf|4063|dock10
  -GOLD-   22720 1553D 1   1.00000     0.00000
 Structure written by MMmdl.
 38 38  0  0  0  0  0  0  0  0  1 V2000
  154.0572  140.3616  160.5064 C   0  0  0  0  0  0  0  0  0  0  0  0
  153.2425  141.5356  160.0479 C   0  0  0  0  0  0  0  0  0  0  0  0
  152.7904  141.5898  158.8044 N   0  0  0  0  0  0  0  0  0  0  0  0
  152.1203  142.7674  158.7119 N   0  0  0  0  0  0  0  0  0  0  0  0
  151.5535  143.1497  157.4255 C   0  0  0  0  0  0  0  0  0  0  0  0
  150.7530  141.9869  156.8376 C   0  0  0  0  0  0  0  0  0  0  0  0
  150.8558  140.8594  157.3195 O   0  0  0  0  0  0  0  0  0  0  0  0
  150.0081  142.2727  155.7591 N   0  0  0  0  0  0  0  0  0  0  0  0
  149.4207  141.2977  154.8471 C   0  0  0  0  0  0  0  0  0  0  0  0
  148.0710  141.8040  154.2902 C   0  0  2  0  0  0  0  0  0  0  0  0
  147.0486  141.9393  155.4314 C   0  0  0  0  0  0  0  0  0  0  0  0
  147.5321  140.9163  153.1411 C   0  0  0  0  0  0  0  0  0  0  0  0
  147.3824  139.4329  153.5122 C   0  0  0  0  0  0  0  0  0  0  0  0
  147.2682  138.6599  152.3367 O   0  0  0  0  0  0  0  0  0  0  0  0
  152.1271  143.4656  159.9117 C   0  0  0  0  0  0  0  0  0  0  0  0
  151.4732  144.7955  160.1062 C   0  0  0  0  0  0  0  0  0  0  0  0
  152.8471  142.6897  160.7708 C   0  0  0  0  0  0  0  0  0  0  0  0
  153.2237  143.0496  162.4163 Cl  0  0  0  0  0  0  0  0  0  0  0  0
  153.4374  139.6449  161.0452 H   0  0  0  0  0  0  0  0  0  0  0  0
  154.8574  140.6788  161.1751 H   0  0  0  0  0  0  0  0  0  0  0  0
  154.5175  139.8401  159.6666 H   0  0  0  0  0  0  0  0  0  0  0  0
  150.9084  144.0195  157.5594 H   0  0  0  0  0  0  0  0  0  0  0  0
  152.3510  143.4458  156.7438 H   0  0  0  0  0  0  0  0  0  0  0  0
  149.9708  143.2374  155.4639 H   0  0  0  0  0  0  0  0  0  0  0  0
  150.0974  141.0542  154.0263 H   0  0  0  0  0  0  0  0  0  0  0  0
  149.2707  140.3733  155.4058 H   0  0  0  0  0  0  0  0  0  0  0  0
  148.2447  142.8026  153.8865 H   0  0  0  0  0  0  0  0  0  0  0  0
  146.8031  140.9671  155.8597 H   0  0  0  0  0  0  0  0  0  0  0  0
  146.1209  142.3980  155.0903 H   0  0  0  0  0  0  0  0  0  0  0  0
  147.4382  142.5655  156.2345 H   0  0  0  0  0  0  0  0  0  0  0  0
  146.5489  141.2672  152.8308 H   0  0  0  0  0  0  0  0  0  0  0  0
  148.1730  141.0192  152.2644 H   0  0  0  0  0  0  0  0  0  0  0  0
  148.2400  139.0777  154.0828 H   0  0  0  0  0  0  0  0  0  0  0  0
  146.4916  139.2770  154.1215 H   0  0  0  0  0  0  0  0  0  0  0  0
  147.9896  138.0501  152.3057 H   0  0  0  0  0  0  0  0  0  0  0  0
  151.3941  145.0396  161.1654 H   0  0  0  0  0  0  0  0  0  0  0  0
  150.4662  144.8060  159.6904 H   0  0  0  0  0  0  0  0  0  0  0  0
  152.0510  145.5853  159.6270 H   0  0  0  0  0  0  0  0  0  0  0  0
  1  2  1  0  0  0  0
  1 19  1  0  0  0  0
  1 20  1  0  0  0  0
  1 21  1  0  0  0  0
  2 17  1  0  0  0  0
  2  3  2  0  0  0  0
  3  4  1  0  0  0  0
  4  5  1  0  0  0  0
  4 15  1  0  0  0  0
  5  6  1  0  0  0  0
  5 22  1  0  0  0  0
  5 23  1  0  0  0  0
  6  7  2  0  0  0  0
  6  8  1  0  0  0  0
  8  9  1  0  0  0  0
  8 24  1  0  0  0  0
  9 10  1  0  0  0  0
  9 25  1  0  0  0  0
  9 26  1  0  0  0  0
 10 11  1  0  0  0  0
 10 12  1  0  0  0  0
 10 27  1  0  0  0  0
 11 28  1  0  0  0  0
 11 29  1  0  0  0  0
 11 30  1  0  0  0  0
 12 13  1  0  0  0  0
 12 31  1  0  0  0  0
 12 32  1  0  0  0  0
 13 14  1  0  0  0  0
 13 33  1  0  0  0  0
 13 34  1  0  0  0  0
 14 35  1  0  0  0  0
 15 16  1  0  0  0  0
 15 17  2  0  0  0  0
 16 36  1  0  0  0  0
 16 37  1  0  0  0  0
 16 38  1  0  0  0  0
 17 18  1  0  0  0  0
M  END
> <s_m_source_file>
AV-unprocessed.smi

> <i_m_source_file_index>
891

> <i_lp_mmshare_version>
43012

> <i_f3d_flags>
0

> <s_epik_input>
W0NIM11jMW5uKGMoW0NIM10pYzFDbClbQ0gyXUMoPU8pW05IXVtDSDJdW0NASF0oW0NIM10pW0NIMl1bQ0gyXVtPSF0=

> <s_epik_cmdline>
J2VwaWtfcHl0aG9uJywgJy1waCcsICc3LjAnLCAnLXRuJywgJzgnLCAnLW1hJywgJzIwMCcsICctbWV0YWxfYmluZGluZycsICctaW1hZScsICc8aW5maWxlLm1hZT4nLCAnLW9tYWUnLCAnPG91dGZpbGUubWFlPic=

> <r_lp_tautomer_probability>
1

> <r_epik_Ionization_Penalty>
4.9564e-06

> <r_epik_Ionization_Penalty_Charging>
0

> <r_epik_Ionization_Penalty_Neutral>
4.9564e-06

> <r_epik_State_Penalty>
-0

> <r_epik_Charging_Adjusted_Penalty>
0

> <i_epik_Tot_Q>
0

> <i_epik_Tot_abs_Q>
0

> <r_epik_Metal_State_Penalty>
-0

> <b_epik_Metal_Only>
0

> <s_lp_Force_Field>
OPLS_2005

> <r_lp_Energy>
6.31297

> <b_lp_Chiralities_Consistent>
1

> <s_lp_Variant>
AV-unprocessed.smi:891-1

> <Gold.Version>
5.8.1

> <Gold.Id.Protein>
6NUR|6NUR_protein|mol2

> <Gold.PLP.Fitness>
50.6410

> <Gold.PLP.PLP>
-45.6721

> <Gold.PLP.part.hbond>
-3.0000

> <Gold.PLP.part.metal>
0.0000

> <Gold.PLP.part.buried>
-5.7054

> <Gold.PLP.part.nonpolar>
-37.6926

> <Gold.PLP.part.repulsive>
0.1544

> <Gold.PLP.ligand.clash>
0.0000

> <Gold.PLP.ligand.torsion>
0.5543

> <Gold.PLP.Chemscore.Hbond>
1.9920

> <Gold.PLP.Chemscore.CHOScore>
0.0000

> <Gold.PLP.Chemscore.Metal>
0.0000

> <Gold.Chemscore.Hbonds>
donor molecule, donor type, donor heavy atom, donor atom, acceptor molecule, acceptor atom, score
      L1  H     8    24       P1  8028  0.80
      L1  H    14    35       P1  7948  0.88

> <Gold.PLP.Chemscore.Internal.Correction>
0.1016

> <Gold.Rescore>
     Score         DG    S(hbond)    S(metal)    S(lipo)     H(rot)  DE(clash)    DE(int)     intcor
     15.32     -17.55       1.89        0.00     106.57       2.62       0.22       2.01       ----

> <Gold.Chemscore.Fitness>
15.3210

> <Gold.Chemscore.DG>
-17.5533

> <Gold.Chemscore.ZeroCoef>
-5.4800

> <Gold.Chemscore.Hbond>
1.8932

> <Gold.Chemscore.Metal>
0.0000

> <Gold.Chemscore.Lipo>
106.5744

> <Gold.Chemscore.Internal_Hbond>
0.0000

> <Gold.Chemscore.DEClash>
0.2243

> <Gold.Chemscore.DEInternal>
2.0080

> <Gold.Chemscore.Rot>
2.6247

> <Gold.Chemscore.Internal.Correction>
   9.000000E+99

> <Gold.Chemscore.Hbonds>
donor molecule, donor type, donor heavy atom, donor atom, acceptor molecule, acceptor atom, score
      L1  H     8    24       P1  8028  0.80
      L1  H    14    35       P1  7948  0.84

> <Gold.Chemscore.Hbond.Weighted>
-6.3232

> <Gold.Chemscore.Metal.Weighted>
-0.0000

> <Gold.Chemscore.Lipo.Weighted>
-12.4692

> <Gold.Chemscore.Internal_Hbond.Weighted>
0.0000

> <Gold.Chemscore.DEClash.Weighted>
0.2243

> <Gold.Chemscore.DEInternal.Weighted>
2.0080

> <Gold.Chemscore.Rot.Weighted>
6.7192

> <Gold.Chemscore.Internal.Correction.Weighted>
   9.000000E+99

> <Gold.Protein.RotatedTorsions>
[ 6907 6896 6895 6894 ] final   72.15 input  -60.11 | X-H torsion
[ 7974 7965 7964 7962 ] final   69.61 input  175.53 | X-H torsion
[ 8008 7997 7996 7995 ] final  -27.05 input   59.86 | X-H torsion
[ 10167 10162 10161 10158 ] final  125.44 input  -65.29 | X-H torsion
[ 10718 10713 10712 10709 ] final -176.32 input   66.30 | X-H torsion
[ 10763 10752 10751 10750 ] final  -37.42 input  -60.55 | X-H torsion
[ 11005 11000 10999 10996 ] final  157.18 input  -57.11 | X-H torsion

> <Gold.Protein.ActiveResidues>
 VAL166  LYS551  ARG553  GLY616  TRP617  ASP618  TYR619  PRO620  LYS621  CYS622 
 ASP623  PHE694  ASN695  SER759  ASP760  ASP761  ALA762  ILE779  LEU786  VAL792 
 PHE793  MET794  SER795  GLU796  ALA797  LYS798  CYS799  TRP800  GLU811  SER814 

> <Gold.Protein.RotatedAtoms>
  152.4851  134.4614  159.9606 H   0  0  0  0  0  0  0  0  0  0  0  0  # atno 6907 bound_to 6896
  151.4612  133.3586  159.2817 H   0  0  0  0  0  0  0  0  0  0  0  0  # atno 6908 bound_to 6896
  150.8955  134.8388  159.7384 H   0  0  0  0  0  0  0  0  0  0  0  0  # atno 6909 bound_to 6896
  145.7883  139.2921  143.1225 H   0  0  0  0  0  0  0  0  0  0  0  0  # atno 7974 bound_to 7965
  154.4395  140.1883  156.0872 H   0  0  0  0  0  0  0  0  0  0  0  0  # atno 8008 bound_to 7997
  156.0394  140.3321  155.7200 H   0  0  0  0  0  0  0  0  0  0  0  0  # atno 8009 bound_to 7997
  155.5722  140.0613  157.2794 H   0  0  0  0  0  0  0  0  0  0  0  0  # atno 8010 bound_to 7997
  139.5686  144.6925  151.3842 H   0  0  0  0  0  0  0  0  0  0  0  0  # atno 10167 bound_to 10162
  156.8130  130.9593  151.3115 H   0  0  0  0  0  0  0  0  0  0  0  0  # atno 10718 bound_to 10713
  153.8960  135.6807  153.4758 H   0  0  0  0  0  0  0  0  0  0  0  0  # atno 10763 bound_to 10752
  153.1155  135.4763  154.9106 H   0  0  0  0  0  0  0  0  0  0  0  0  # atno 10764 bound_to 10752
  154.7599  135.3208  154.8352 H   0  0  0  0  0  0  0  0  0  0  0  0  # atno 10765 bound_to 10752
  140.1745  134.8520  157.2730 H   0  0  0  0  0  0  0  0  0  0  0  0  # atno 11005 bound_to 11000
  146.0003  140.8526  143.0022 LP  0  0  0  0  0  0  0  0  0  0  0  0  # atno 17320 bound_to 7965
  144.6785  140.2342  143.7351 LP  0  0  0  0  0  0  0  0  0  0  0  0  # atno 17321 bound_to 7965
  140.6970  143.7725  150.7342 LP  0  0  0  0  0  0  0  0  0  0  0  0  # atno 17342 bound_to 10162
  140.1225  143.4599  152.2304 LP  0  0  0  0  0  0  0  0  0  0  0  0  # atno 17343 bound_to 10162
  157.6496  130.8873  149.9606 LP  0  0  0  0  0  0  0  0  0  0  0  0  # atno 17370 bound_to 10713
  156.1033  130.3654  150.0178 LP  0  0  0  0  0  0  0  0  0  0  0  0  # atno 17371 bound_to 10713
  140.2339  134.3876  155.7510 LP  0  0  0  0  0  0  0  0  0  0  0  0  # atno 17394 bound_to 11000
  141.2219  133.7229  156.8683 LP  0  0  0  0  0  0  0  0  0  0  0  0  # atno 17395 bound_to 11000

$$$$
