AV-unprocessed.smi:2557|AV-procd|sdf|10030|dock8
  -GOLD-   2272014 73D 1   1.00000     0.00000
 Structure written by MMmdl.
 38 40  0  0  0  0  0  0  0  0  2 V2000
  150.9483  132.4870  157.3050 O   0  5  0  0  0  0  0  0  0  0  0  0
  150.6329  131.8814  156.2534 C   0  0  0  0  0  0  0  0  0  0  0  0
  149.7404  132.1840  155.2210 C   0  0  0  0  0  0  0  0  0  0  0  0
  148.9596  133.4487  155.2193 C   0  0  0  0  0  0  0  0  0  0  0  0
  149.0388  134.2725  156.1299 O   0  0  0  0  0  0  0  0  0  0  0  0
  148.1052  133.7029  154.1353 N   0  0  0  0  0  0  0  0  0  0  0  0
  148.0066  132.8391  153.1703 C   0  0  0  0  0  0  0  0  0  0  0  0
  147.0809  133.0732  151.9736 C   0  0  0  0  0  0  0  0  0  0  0  0
  146.3726  134.4495  151.9951 C   0  0  0  0  0  0  0  0  0  0  0  0
  145.4906  134.6506  150.7523 C   0  0  0  0  0  0  0  0  0  0  0  0
  144.4607  133.5194  150.6145 C   0  0  0  0  0  0  0  0  0  0  0  0
  145.1492  132.1464  150.5872 C   0  0  0  0  0  0  0  0  0  0  0  0
  146.0401  131.9403  151.8238 C   0  0  0  0  0  0  0  0  0  0  0  0
  148.6843  131.6350  153.1100 N   0  0  0  0  0  0  0  0  0  0  0  0
  149.5589  131.3189  154.1428 N   0  0  0  0  0  0  0  0  0  0  0  0
  151.3520  130.5932  156.2142 C   0  0  0  0  0  0  0  0  0  0  0  0
  152.1908  130.2611  155.1276 C   0  0  0  0  0  0  0  0  0  0  0  0
  152.8492  129.0160  155.1350 C   0  0  0  0  0  0  0  0  0  0  0  0
  152.7197  128.1133  156.1307 N   0  0  0  0  0  0  0  0  0  0  0  0
  151.9108  128.4300  157.1645 C   0  0  0  0  0  0  0  0  0  0  0  0
  151.2082  129.6476  157.2534 C   0  0  0  0  0  0  0  0  0  0  0  0
  147.7119  133.0582  151.0831 H   0  0  0  0  0  0  0  0  0  0  0  0
  145.7519  134.5404  152.8880 H   0  0  0  0  0  0  0  0  0  0  0  0
  147.1099  135.2521  152.0464 H   0  0  0  0  0  0  0  0  0  0  0  0
  144.9805  135.6123  150.8107 H   0  0  0  0  0  0  0  0  0  0  0  0
  146.1173  134.6860  149.8602 H   0  0  0  0  0  0  0  0  0  0  0  0
  143.7583  133.5603  151.4479 H   0  0  0  0  0  0  0  0  0  0  0  0
  143.8729  133.6597  149.7070 H   0  0  0  0  0  0  0  0  0  0  0  0
  144.3995  131.3564  150.5340 H   0  0  0  0  0  0  0  0  0  0  0  0
  145.7534  132.0594  149.6833 H   0  0  0  0  0  0  0  0  0  0  0  0
  146.5343  130.9711  151.7462 H   0  0  0  0  0  0  0  0  0  0  0  0
  145.4146  131.8953  152.7168 H   0  0  0  0  0  0  0  0  0  0  0  0
  148.5959  130.9684  152.3569 H   0  0  0  0  0  0  0  0  0  0  0  0
  150.0699  130.4493  154.0888 H   0  0  0  0  0  0  0  0  0  0  0  0
  152.3244  130.9493  154.3057 H   0  0  0  0  0  0  0  0  0  0  0  0
  153.4983  128.7373  154.3182 H   0  0  0  0  0  0  0  0  0  0  0  0
  151.8211  127.6905  157.9463 H   0  0  0  0  0  0  0  0  0  0  0  0
  150.5726  129.8546  158.1016 H   0  0  0  0  0  0  0  0  0  0  0  0
  1  2  1  0  0  0  0
  2  3  2  0  0  0  0
  2 16  1  0  0  0  0
  3 15  1  0  0  0  0
  3  4  1  0  0  0  0
  4  5  2  0  0  0  0
  4  6  1  0  0  0  0
  6  7  2  0  0  0  0
  7  8  1  0  0  0  0
  7 14  1  0  0  0  0
  8 13  1  0  0  0  0
  8  9  1  0  0  0  0
  8 22  1  0  0  0  0
  9 10  1  0  0  0  0
  9 23  1  0  0  0  0
  9 24  1  0  0  0  0
 10 11  1  0  0  0  0
 10 25  1  0  0  0  0
 10 26  1  0  0  0  0
 11 12  1  0  0  0  0
 11 27  1  0  0  0  0
 11 28  1  0  0  0  0
 12 13  1  0  0  0  0
 12 29  1  0  0  0  0
 12 30  1  0  0  0  0
 13 31  1  0  0  0  0
 13 32  1  0  0  0  0
 14 15  1  0  0  0  0
 14 33  1  0  0  0  0
 15 34  1  0  0  0  0
 16 21  1  0  0  0  0
 16 17  2  0  0  0  0
 17 18  1  0  0  0  0
 17 35  1  0  0  0  0
 18 19  2  0  0  0  0
 18 36  1  0  0  0  0
 19 20  1  0  0  0  0
 20 21  2  0  0  0  0
 20 37  1  0  0  0  0
 21 38  1  0  0  0  0
M  CHG  1   1  -1
M  END
> <s_m_source_file>
AV-unprocessed.smi

> <i_m_source_file_index>
2557

> <i_lp_mmshare_version>
43012

> <i_f3d_flags>
0

> <s_epik_input>
W2NIXTFbY0hdbltjSF1bY0hdYzFDKD1PKUMyPUMoW09IXSlOPUMoW05IXVtOSF0yKVtDSF0zW0NIMl1bQ0gyXVtDSDJdW0NIMl1bQ0gyXTM=

> <s_epik_cmdline>
J2VwaWtfcHl0aG9uJywgJy1waCcsICc3LjAnLCAnLXRuJywgJzgnLCAnLW1hJywgJzIwMCcsICctbWV0YWxfYmluZGluZycsICctaW1hZScsICc8aW5maWxlLm1hZT4nLCAnLW9tYWUnLCAnPG91dGZpbGUubWFlPic=

> <r_epik_Ionization_Penalty>
0.904364

> <r_epik_Ionization_Penalty_Charging>
0.00179702

> <r_epik_Ionization_Penalty_Neutral>
0.902567

> <r_epik_State_Penalty>
2.26092

> <r_epik_Charging_Adjusted_Penalty>
2.26271

> <i_epik_Tot_Q>
-1

> <i_epik_Tot_abs_Q>
1

> <r_epik_Metal_State_Penalty>
1.86017

> <b_epik_Metal_Only>
0

> <s_epik_Chemistry_Notes>
This compound has an imine and may undergo hydrolysis.

> <s_lp_Force_Field>
OPLS_2005

> <r_lp_Energy>
33.3792

> <b_lp_Chiralities_Consistent>
1

> <s_lp_Variant>
AV-unprocessed.smi:2557-4

> <Gold.Version>
5.8.1

> <Gold.Id.Protein>
6NUR|6NUR_protein|mol2

> <Gold.PLP.Fitness>
38.0188

> <Gold.PLP.PLP>
-29.0895

> <Gold.PLP.part.hbond>
-2.0000

> <Gold.PLP.part.metal>
0.0000

> <Gold.PLP.part.buried>
-4.2623

> <Gold.PLP.part.nonpolar>
-23.0971

> <Gold.PLP.part.repulsive>
0.1358

> <Gold.PLP.ligand.clash>
0.0000

> <Gold.PLP.ligand.torsion>
1.1029

> <Gold.PLP.Chemscore.Hbond>
2.9920

> <Gold.PLP.Chemscore.CHOScore>
0.0000

> <Gold.PLP.Chemscore.Metal>
0.0000

> <Gold.Chemscore.Hbonds>
donor molecule, donor type, donor heavy atom, donor atom, acceptor molecule, acceptor atom, score
      L1  H    14    33       P1 10747  0.65
      P1  H  6896  6907       L1     1  1.53

> <Gold.PLP.Chemscore.Internal.Correction>
2.1590

> <Gold.Rescore>
     Score         DG    S(hbond)    S(metal)    S(lipo)     H(rot)  DE(clash)    DE(int)     intcor
     15.84     -17.20       1.66        0.00      74.74       1.00       0.03       1.32       ----

> <Gold.Chemscore.Fitness>
15.8411

> <Gold.Chemscore.DG>
-17.1992

> <Gold.Chemscore.ZeroCoef>
-5.4800

> <Gold.Chemscore.Hbond>
1.6569

> <Gold.Chemscore.Metal>
0.0000

> <Gold.Chemscore.Lipo>
74.7440

> <Gold.Chemscore.Internal_Hbond>
0.0000

> <Gold.Chemscore.DEClash>
0.0341

> <Gold.Chemscore.DEInternal>
1.3240

> <Gold.Chemscore.Rot>
1.0000

> <Gold.Chemscore.Internal.Correction>
   9.000000E+99

> <Gold.Chemscore.Hbonds>
donor molecule, donor type, donor heavy atom, donor atom, acceptor molecule, acceptor atom, score
      L1  H    14    33       P1 10747  0.56
      P1  H  6896  6907       L1     1  0.75

> <Gold.Chemscore.Hbond.Weighted>
-5.5341

> <Gold.Chemscore.Metal.Weighted>
-0.0000

> <Gold.Chemscore.Lipo.Weighted>
-8.7450

> <Gold.Chemscore.Internal_Hbond.Weighted>
0.0000

> <Gold.Chemscore.DEClash.Weighted>
0.0341

> <Gold.Chemscore.DEInternal.Weighted>
1.3240

> <Gold.Chemscore.Rot.Weighted>
2.5600

> <Gold.Chemscore.Internal.Correction.Weighted>
   9.000000E+99

> <Gold.Protein.RotatedTorsions>
[ 6907 6896 6895 6894 ] final -153.69 input  -60.11 | X-H torsion
[ 7974 7965 7964 7962 ] final  149.57 input  175.53 | X-H torsion
[ 8008 7997 7996 7995 ] final  117.47 input   59.86 | X-H torsion
[ 10167 10162 10161 10158 ] final -168.83 input  -65.29 | X-H torsion
[ 10718 10713 10712 10709 ] final   70.42 input   66.30 | X-H torsion
[ 10763 10752 10751 10750 ] final -155.78 input  -60.55 | X-H torsion
[ 11005 11000 10999 10996 ] final -106.82 input  -57.11 | X-H torsion

> <Gold.Protein.ActiveResidues>
 VAL166  LYS551  ARG553  GLY616  TRP617  ASP618  TYR619  PRO620  LYS621  CYS622 
 ASP623  PHE694  ASN695  SER759  ASP760  ASP761  ALA762  ILE779  LEU786  VAL792 
 PHE793  MET794  SER795  GLU796  ALA797  LYS798  CYS799  TRP800  GLU811  SER814 

> <Gold.Protein.RotatedAtoms>
  151.2464  133.4373  159.2609 H   0  0  0  0  0  0  0  0  0  0  0  0  # atno 6907 bound_to 6896
  151.0658  134.9766  159.8294 H   0  0  0  0  0  0  0  0  0  0  0  0  # atno 6908 bound_to 6896
  152.5405  134.2412  159.8915 H   0  0  0  0  0  0  0  0  0  0  0  0  # atno 6909 bound_to 6896
  144.8428  139.6298  143.6009 H   0  0  0  0  0  0  0  0  0  0  0  0  # atno 7974 bound_to 7965
  156.2495  140.2895  156.0683 H   0  0  0  0  0  0  0  0  0  0  0  0  # atno 8008 bound_to 7997
  155.1699  140.0401  157.2878 H   0  0  0  0  0  0  0  0  0  0  0  0  # atno 8009 bound_to 7997
  154.6333  140.2504  155.7415 H   0  0  0  0  0  0  0  0  0  0  0  0  # atno 8010 bound_to 7997
  139.5960  144.1111  152.1690 H   0  0  0  0  0  0  0  0  0  0  0  0  # atno 10167 bound_to 10162
  157.6399  130.9476  150.0648 H   0  0  0  0  0  0  0  0  0  0  0  0  # atno 10718 bound_to 10713
  154.7762  135.3160  154.8088 H   0  0  0  0  0  0  0  0  0  0  0  0  # atno 10763 bound_to 10752
  153.8811  135.6835  153.4771 H   0  0  0  0  0  0  0  0  0  0  0  0  # atno 10764 bound_to 10752
  153.1386  135.4749  154.9397 H   0  0  0  0  0  0  0  0  0  0  0  0  # atno 10765 bound_to 10752
  141.0985  133.8926  157.1901 H   0  0  0  0  0  0  0  0  0  0  0  0  # atno 11005 bound_to 11000
  146.2718  139.6653  142.9291 LP  0  0  0  0  0  0  0  0  0  0  0  0  # atno 17320 bound_to 7965
  145.4659  141.0434  143.2726 LP  0  0  0  0  0  0  0  0  0  0  0  0  # atno 17321 bound_to 7965
  140.0696  144.5790  150.7201 LP  0  0  0  0  0  0  0  0  0  0  0  0  # atno 17342 bound_to 10162
  140.7212  143.2591  151.4271 LP  0  0  0  0  0  0  0  0  0  0  0  0  # atno 17343 bound_to 10162
  156.1670  130.3645  149.9219 LP  0  0  0  0  0  0  0  0  0  0  0  0  # atno 17370 bound_to 10713
  156.7203  130.9004  151.3617 LP  0  0  0  0  0  0  0  0  0  0  0  0  # atno 17371 bound_to 10713
  139.9829  135.0092  156.9794 LP  0  0  0  0  0  0  0  0  0  0  0  0  # atno 17394 bound_to 11000
  140.5080  134.1031  155.7264 LP  0  0  0  0  0  0  0  0  0  0  0  0  # atno 17395 bound_to 11000

$$$$
