AV-unprocessed.smi:752|AV-procd|sdf|3596|dock7
  -GOLD-   22720 0593D 1   1.00000     0.00000
 Structure written by MMmdl.
 41 42  0  0  0  0  0  0  0  0  1 V2000
  150.1468  141.8504  156.4490 C   0  0  0  0  0  0  0  0  0  0  0  0
  150.3654  140.7387  155.4174 C   0  0  0  0  0  0  0  0  0  0  0  0
  149.0843  140.1993  154.8754 C   0  0  0  0  0  0  0  0  0  0  0  0
  148.7408  138.9107  154.9444 N   0  0  0  0  0  0  0  0  0  0  0  0
  147.5058  138.6479  154.3429 C   0  0  0  0  0  0  0  0  0  0  0  0
  146.9578  137.2492  154.3391 C   0  0  0  0  0  0  0  0  0  0  0  0
  145.9058  137.0728  153.2393 C   0  0  0  0  0  0  0  0  0  0  0  0
  144.8456  137.6980  153.2832 O   0  0  0  0  0  0  0  0  0  0  0  0
  146.2084  136.2030  152.2625 N   0  0  0  0  0  0  0  0  0  0  0  0
  145.3598  135.8781  151.1193 C   0  0  0  0  0  0  0  0  0  0  0  0
  145.4348  134.3859  150.7304 C   0  0  1  0  0  0  0  0  0  0  0  0
  145.7188  133.4615  151.9365 C   0  0  0  0  0  0  0  0  0  0  0  0
  145.7572  131.9794  151.5293 C   0  0  0  0  0  0  0  0  0  0  0  0
  144.4619  131.5601  150.8195 C   0  0  0  0  0  0  0  0  0  0  0  0
  144.1867  132.4647  149.6077 C   0  0  1  0  0  0  0  0  0  0  0  0
  142.9579  132.0994  149.0158 O   0  0  0  0  0  0  0  0  0  0  0  0
  144.1369  133.9458  150.0219 C   0  0  0  0  0  0  0  0  0  0  0  0
  146.9263  139.7639  153.7905 C   0  0  0  0  0  0  0  0  0  0  0  0
  147.9059  141.1862  154.0192 S   0  0  0  0  0  0  0  0  0  0  0  0
  151.0992  142.2201  156.8290 H   0  0  0  0  0  0  0  0  0  0  0  0
  149.5659  141.4894  157.2983 H   0  0  0  0  0  0  0  0  0  0  0  0
  149.6129  142.6942  156.0110 H   0  0  0  0  0  0  0  0  0  0  0  0
  150.9688  141.1126  154.5893 H   0  0  0  0  0  0  0  0  0  0  0  0
  150.9264  139.9193  155.8672 H   0  0  0  0  0  0  0  0  0  0  0  0
  147.7669  136.5306  154.2011 H   0  0  0  0  0  0  0  0  0  0  0  0
  146.4951  137.0100  155.2974 H   0  0  0  0  0  0  0  0  0  0  0  0
  147.1000  135.7314  152.3120 H   0  0  0  0  0  0  0  0  0  0  0  0
  144.3249  136.1725  151.3019 H   0  0  0  0  0  0  0  0  0  0  0  0
  145.7017  136.4894  150.2836 H   0  0  0  0  0  0  0  0  0  0  0  0
  146.2545  134.2690  150.0194 H   0  0  0  0  0  0  0  0  0  0  0  0
  146.6711  133.7195  152.3991 H   0  0  0  0  0  0  0  0  0  0  0  0
  144.9549  133.6101  152.7011 H   0  0  0  0  0  0  0  0  0  0  0  0
  146.6083  131.8043  150.8700 H   0  0  0  0  0  0  0  0  0  0  0  0
  145.9156  131.3570  152.4103 H   0  0  0  0  0  0  0  0  0  0  0  0
  144.5337  130.5185  150.5040 H   0  0  0  0  0  0  0  0  0  0  0  0
  143.6295  131.6159  151.5228 H   0  0  0  0  0  0  0  0  0  0  0  0
  144.9722  132.3232  148.8641 H   0  0  0  0  0  0  0  0  0  0  0  0
  142.3414  132.8044  149.1429 H   0  0  0  0  0  0  0  0  0  0  0  0
  143.2857  134.1146  150.6834 H   0  0  0  0  0  0  0  0  0  0  0  0
  143.9691  134.5654  149.1398 H   0  0  0  0  0  0  0  0  0  0  0  0
  145.9848  139.8350  153.2666 H   0  0  0  0  0  0  0  0  0  0  0  0
  1  2  1  0  0  0  0
  1 20  1  0  0  0  0
  1 21  1  0  0  0  0
  1 22  1  0  0  0  0
  2  3  1  0  0  0  0
  2 23  1  0  0  0  0
  2 24  1  0  0  0  0
  3 19  1  0  0  0  0
  3  4  2  0  0  0  0
  4  5  1  0  0  0  0
  5  6  1  0  0  0  0
  5 18  2  0  0  0  0
  6  7  1  0  0  0  0
  6 25  1  0  0  0  0
  6 26  1  0  0  0  0
  7  8  2  0  0  0  0
  7  9  1  0  0  0  0
  9 10  1  0  0  0  0
  9 27  1  0  0  0  0
 10 11  1  0  0  0  0
 10 28  1  0  0  0  0
 10 29  1  0  0  0  0
 11 17  1  0  0  0  0
 11 12  1  0  0  0  0
 11 30  1  0  0  0  0
 12 13  1  0  0  0  0
 12 31  1  0  0  0  0
 12 32  1  0  0  0  0
 13 14  1  0  0  0  0
 13 33  1  0  0  0  0
 13 34  1  0  0  0  0
 14 15  1  0  0  0  0
 14 35  1  0  0  0  0
 14 36  1  0  0  0  0
 15 16  1  0  0  0  0
 15 17  1  0  0  0  0
 15 37  1  0  0  0  0
 16 38  1  0  0  0  0
 17 39  1  0  0  0  0
 17 40  1  0  0  0  0
 18 19  1  0  0  0  0
 18 41  1  0  0  0  0
M  END
> <s_m_source_file>
AV-unprocessed.smi

> <i_m_source_file_index>
752

> <i_lp_mmshare_version>
43012

> <i_f3d_flags>
0

> <s_epik_input>
W0NIM11bQ0gyXWMxbmMoW2NIXXMxKVtDSDJdQyg9TylbTkhdW0NIMl1bQ0BASF0yW0NIMl1bQ0gyXVtDSDJdW0NAQEhdKFtPSF0pW0NIMl0y

> <s_epik_cmdline>
J2VwaWtfcHl0aG9uJywgJy1waCcsICc3LjAnLCAnLXRuJywgJzgnLCAnLW1hJywgJzIwMCcsICctbWV0YWxfYmluZGluZycsICctaW1hZScsICc8aW5maWxlLm1hZT4nLCAnLW9tYWUnLCAnPG91dGZpbGUubWFlPic=

> <r_lp_tautomer_probability>
1

> <r_epik_Ionization_Penalty>
5.44903e-05

> <r_epik_Ionization_Penalty_Charging>
0

> <r_epik_Ionization_Penalty_Neutral>
5.44903e-05

> <r_epik_State_Penalty>
-0

> <r_epik_Charging_Adjusted_Penalty>
0

> <i_epik_Tot_Q>
0

> <i_epik_Tot_abs_Q>
0

> <r_epik_Metal_State_Penalty>
-0

> <b_epik_Metal_Only>
0

> <s_lp_Force_Field>
OPLS_2005

> <r_lp_Energy>
4.53549

> <b_lp_Chiralities_Consistent>
1

> <s_lp_Variant>
AV-unprocessed.smi:752-2

> <Gold.Version>
5.8.1

> <Gold.Id.Protein>
6NUR|6NUR_protein|mol2

> <Gold.PLP.Fitness>
44.8415

> <Gold.PLP.PLP>
-35.8318

> <Gold.PLP.part.hbond>
-4.0000

> <Gold.PLP.part.metal>
0.0000

> <Gold.PLP.part.buried>
-3.9069

> <Gold.PLP.part.nonpolar>
-29.3432

> <Gold.PLP.part.repulsive>
0.4125

> <Gold.PLP.ligand.clash>
0.0000

> <Gold.PLP.ligand.torsion>
0.8053

> <Gold.PLP.Chemscore.Hbond>
2.6468

> <Gold.PLP.Chemscore.CHOScore>
0.8740

> <Gold.PLP.Chemscore.Metal>
0.0000

> <Gold.Chemscore.Hbonds>
donor molecule, donor type, donor heavy atom, donor atom, acceptor molecule, acceptor atom, score
      L1  H     9    27       P1  7948  0.69
      L1  H    16    38       P1 10186  0.76
      P1  H 10785 10796       L1    16  1.00
      L1  C    18    41       P1 10175  1.00

> <Gold.PLP.Chemscore.Internal.Correction>
0.0580

> <Gold.Rescore>
     Score         DG    S(hbond)    S(metal)    S(lipo)     H(rot)  DE(clash)    DE(int)     intcor
     15.91     -17.39       1.96        0.00      91.49       2.08       0.00       1.48       ----

> <Gold.Chemscore.Fitness>
15.9137

> <Gold.Chemscore.DG>
-17.3924

> <Gold.Chemscore.ZeroCoef>
-5.4800

> <Gold.Chemscore.Hbond>
1.9591

> <Gold.Chemscore.Metal>
0.0000

> <Gold.Chemscore.Lipo>
91.4863

> <Gold.Chemscore.Internal_Hbond>
0.0000

> <Gold.Chemscore.DEClash>
0.0004

> <Gold.Chemscore.DEInternal>
1.4783

> <Gold.Chemscore.Rot>
2.0840

> <Gold.Chemscore.Internal.Correction>
   9.000000E+99

> <Gold.Chemscore.Hbonds>
donor molecule, donor type, donor heavy atom, donor atom, acceptor molecule, acceptor atom, score
      L1  H     9    27       P1  7948  0.69
      L1  H    16    38       P1 10186  0.77
      P1  H 10785 10796       L1    16  0.33

> <Gold.Chemscore.Hbond.Weighted>
-6.5435

> <Gold.Chemscore.Metal.Weighted>
-0.0000

> <Gold.Chemscore.Lipo.Weighted>
-10.7039

> <Gold.Chemscore.Internal_Hbond.Weighted>
0.0000

> <Gold.Chemscore.DEClash.Weighted>
0.0004

> <Gold.Chemscore.DEInternal.Weighted>
1.4783

> <Gold.Chemscore.Rot.Weighted>
5.3350

> <Gold.Chemscore.Internal.Correction.Weighted>
   9.000000E+99

> <Gold.Protein.RotatedTorsions>
[ 6907 6896 6895 6894 ] final  124.32 input  -60.11 | X-H torsion
[ 7974 7965 7964 7962 ] final  -12.15 input  175.53 | X-H torsion
[ 8008 7997 7996 7995 ] final  -98.87 input   59.86 | X-H torsion
[ 10167 10162 10161 10158 ] final   53.32 input  -65.29 | X-H torsion
[ 10718 10713 10712 10709 ] final -176.66 input   66.30 | X-H torsion
[ 10763 10752 10751 10750 ] final  114.90 input  -60.55 | X-H torsion
[ 11005 11000 10999 10996 ] final -136.61 input  -57.11 | X-H torsion

> <Gold.Protein.ActiveResidues>
 VAL166  LYS551  ARG553  GLY616  TRP617  ASP618  TYR619  PRO620  LYS621  CYS622 
 ASP623  PHE694  ASN695  SER759  ASP760  ASP761  ALA762  ILE779  LEU786  VAL792 
 PHE793  MET794  SER795  GLU796  ALA797  LYS798  CYS799  TRP800  GLU811  SER814 

> <Gold.Protein.RotatedAtoms>
  152.4088  133.6930  159.6379 H   0  0  0  0  0  0  0  0  0  0  0  0  # atno 6907 bound_to 6896
  150.7970  133.8662  159.3254 H   0  0  0  0  0  0  0  0  0  0  0  0  # atno 6908 bound_to 6896
  151.6409  135.1014  160.0192 H   0  0  0  0  0  0  0  0  0  0  0  0  # atno 6909 bound_to 6896
  146.2162  140.3015  142.8375 H   0  0  0  0  0  0  0  0  0  0  0  0  # atno 7974 bound_to 7965
  154.8070  140.0452  157.1315 H   0  0  0  0  0  0  0  0  0  0  0  0  # atno 8008 bound_to 7997
  154.9412  140.3053  155.5100 H   0  0  0  0  0  0  0  0  0  0  0  0  # atno 8009 bound_to 7997
  156.2968  140.2305  156.4481 H   0  0  0  0  0  0  0  0  0  0  0  0  # atno 8010 bound_to 7997
  140.2420  144.3573  150.6377 H   0  0  0  0  0  0  0  0  0  0  0  0  # atno 10167 bound_to 10162
  156.8179  130.9609  151.3113 H   0  0  0  0  0  0  0  0  0  0  0  0  # atno 10718 bound_to 10713
  153.5142  135.3611  155.2601 H   0  0  0  0  0  0  0  0  0  0  0  0  # atno 10763 bound_to 10752
  154.8740  135.4030  154.3334 H   0  0  0  0  0  0  0  0  0  0  0  0  # atno 10764 bound_to 10752
  153.3992  135.7074  153.6505 H   0  0  0  0  0  0  0  0  0  0  0  0  # atno 10765 bound_to 10752
  140.8789  134.1957  157.4604 H   0  0  0  0  0  0  0  0  0  0  0  0  # atno 11005 bound_to 11000
  144.9053  140.7693  143.5841 LP  0  0  0  0  0  0  0  0  0  0  0  0  # atno 17320 bound_to 7965
  145.2943  139.1872  143.4723 LP  0  0  0  0  0  0  0  0  0  0  0  0  # atno 17321 bound_to 7965
  140.6106  143.2169  151.6894 LP  0  0  0  0  0  0  0  0  0  0  0  0  # atno 17342 bound_to 10162
  139.5074  144.3647  152.0528 LP  0  0  0  0  0  0  0  0  0  0  0  0  # atno 17343 bound_to 10162
  157.6472  130.8854  149.9561 LP  0  0  0  0  0  0  0  0  0  0  0  0  # atno 17370 bound_to 10713
  156.1006  130.3656  150.0226 LP  0  0  0  0  0  0  0  0  0  0  0  0  # atno 17371 bound_to 10713
  139.8718  134.9808  156.5091 LP  0  0  0  0  0  0  0  0  0  0  0  0  # atno 17394 bound_to 11000
  140.8485  133.8150  155.9145 LP  0  0  0  0  0  0  0  0  0  0  0  0  # atno 17395 bound_to 11000

$$$$
