AV-unprocessed.smi:281|AV-procd|sdf|2111|dock7
  -GOLD-   2262021403D 1   1.00000     0.00000
 Structure written by MMmdl.
 55 59  0  0  0  0  0  0  0  0  1 V2000
  150.3856  136.3012  158.8969 C   0  0  0  0  0  0  0  0  0  0  0  0
  149.7400  136.7781  157.5923 C   0  0  2  0  0  0  0  0  0  0  0  0
  149.0791  135.6204  156.8240 C   0  0  0  0  0  0  0  0  0  0  0  0
  148.5878  136.0894  155.5343 N   0  0  0  0  0  0  0  0  0  0  0  0
  147.7211  135.2501  154.9133 C   0  0  0  0  0  0  0  0  0  0  0  0
  147.7414  133.9195  155.1940 N   0  0  0  0  0  0  0  0  0  0  0  0
  146.8834  133.0897  154.5937 C   0  0  0  0  0  0  0  0  0  0  0  0
  145.9386  133.3732  153.6953 N   0  0  0  0  0  0  0  0  0  0  0  0
  145.9160  134.7053  153.4045 C   0  0  0  0  0  0  0  0  0  0  0  0
  146.7671  135.7028  153.9588 C   0  0  0  0  0  0  0  0  0  0  0  0
  146.4659  136.9415  153.4053 N   0  0  0  0  0  0  0  0  0  0  0  0
  145.4863  136.6922  152.5805 C   0  0  0  0  0  0  0  0  0  0  0  0
  145.0791  135.3780  152.5304 N   0  0  0  0  0  0  0  0  0  0  0  0
  144.0079  134.8282  151.7130 C   0  0  0  0  0  0  0  0  0  0  0  0
  144.4883  134.0026  150.4898 C   0  0  2  0  0  0  0  0  0  0  0  0
  144.3101  134.8061  149.3398 O   0  0  0  0  0  0  0  0  0  0  0  0
  143.7572  132.6732  150.3026 C   0  0  0  0  0  0  0  0  0  0  0  0
  144.7037  131.6179  150.8872 C   0  0  0  0  0  0  0  0  0  0  0  0
  145.8756  132.3137  151.2928 O   0  0  0  0  0  0  0  0  0  0  0  0
  145.9455  133.5382  150.5800 C   0  0  0  0  0  0  0  0  0  0  0  0
  149.6251  136.7279  154.7294 C   0  0  0  0  0  0  0  0  0  0  0  0
  150.3054  137.8712  155.5241 C   0  0  2  0  0  0  0  0  0  0  0  0
  149.4027  139.0893  155.6995 C   0  0  0  0  0  0  0  0  0  0  0  0
  149.6141  139.8654  154.4051 C   0  0  0  0  0  0  0  0  0  0  0  0
  150.9547  139.5968  154.0141 O   0  0  0  0  0  0  0  0  0  0  0  0
  151.4921  138.5312  154.7933 C   0  0  2  0  0  0  0  0  0  0  0  0
  152.3736  137.6155  153.9316 C   0  0  0  0  0  0  0  0  0  0  0  0
  150.7583  137.3711  156.7859 O   0  0  0  0  0  0  0  0  0  0  0  0
  149.6455  135.8527  159.5596 H   0  0  0  0  0  0  0  0  0  0  0  0
  150.8494  137.1323  159.4290 H   0  0  0  0  0  0  0  0  0  0  0  0
  151.1582  135.5561  158.7049 H   0  0  0  0  0  0  0  0  0  0  0  0
  148.9871  137.5276  157.8396 H   0  0  0  0  0  0  0  0  0  0  0  0
  149.8020  134.8213  156.6541 H   0  0  0  0  0  0  0  0  0  0  0  0
  148.2767  135.1956  157.4263 H   0  0  0  0  0  0  0  0  0  0  0  0
  146.9644  132.0501  154.8749 H   0  0  0  0  0  0  0  0  0  0  0  0
  145.0260  137.4687  151.9872 H   0  0  0  0  0  0  0  0  0  0  0  0
  143.3804  134.2092  152.3561 H   0  0  0  0  0  0  0  0  0  0  0  0
  143.3765  135.6538  151.3814 H   0  0  0  0  0  0  0  0  0  0  0  0
  145.1323  134.8529  148.8763 H   0  0  0  0  0  0  0  0  0  0  0  0
  142.7732  132.6613  150.7710 H   0  0  0  0  0  0  0  0  0  0  0  0
  143.6049  132.4565  149.2437 H   0  0  0  0  0  0  0  0  0  0  0  0
  144.2646  131.1020  151.7414 H   0  0  0  0  0  0  0  0  0  0  0  0
  144.9609  130.8704  150.1360 H   0  0  0  0  0  0  0  0  0  0  0  0
  146.3525  133.3307  149.5885 H   0  0  0  0  0  0  0  0  0  0  0  0
  146.6026  134.2603  151.0641 H   0  0  0  0  0  0  0  0  0  0  0  0
  150.3578  135.9655  154.4627 H   0  0  0  0  0  0  0  0  0  0  0  0
  149.2035  137.1094  153.7985 H   0  0  0  0  0  0  0  0  0  0  0  0
  148.3547  138.8446  155.8765 H   0  0  0  0  0  0  0  0  0  0  0  0
  149.7501  139.6909  156.5408 H   0  0  0  0  0  0  0  0  0  0  0  0
  148.9429  139.5025  153.6259 H   0  0  0  0  0  0  0  0  0  0  0  0
  149.4416  140.9348  154.5284 H   0  0  0  0  0  0  0  0  0  0  0  0
  152.1267  139.0059  155.5439 H   0  0  0  0  0  0  0  0  0  0  0  0
  152.7675  136.7853  154.5185 H   0  0  0  0  0  0  0  0  0  0  0  0
  153.2220  138.1680  153.5276 H   0  0  0  0  0  0  0  0  0  0  0  0
  151.8217  137.2037  153.0866 H   0  0  0  0  0  0  0  0  0  0  0  0
  1  2  1  0  0  0  0
  1 29  1  0  0  0  0
  1 30  1  0  0  0  0
  1 31  1  0  0  0  0
  2 28  1  0  0  0  0
  2  3  1  0  0  0  0
  2 32  1  0  0  0  0
  3  4  1  0  0  0  0
  3 33  1  0  0  0  0
  3 34  1  0  0  0  0
  4  5  1  0  0  0  0
  4 21  1  0  0  0  0
  5 10  1  0  0  0  0
  5  6  2  0  0  0  0
  6  7  1  0  0  0  0
  7  8  2  0  0  0  0
  7 35  1  0  0  0  0
  8  9  1  0  0  0  0
  9 13  1  0  0  0  0
  9 10  2  0  0  0  0
 10 11  1  0  0  0  0
 11 12  2  0  0  0  0
 12 13  1  0  0  0  0
 12 36  1  0  0  0  0
 13 14  1  0  0  0  0
 14 15  1  0  0  0  0
 14 37  1  0  0  0  0
 14 38  1  0  0  0  0
 15 20  1  0  0  0  0
 15 16  1  0  0  0  0
 15 17  1  0  0  0  0
 16 39  1  0  0  0  0
 17 18  1  0  0  0  0
 17 40  1  0  0  0  0
 17 41  1  0  0  0  0
 18 19  1  0  0  0  0
 18 42  1  0  0  0  0
 18 43  1  0  0  0  0
 19 20  1  0  0  0  0
 20 44  1  0  0  0  0
 20 45  1  0  0  0  0
 21 22  1  0  0  0  0
 21 46  1  0  0  0  0
 21 47  1  0  0  0  0
 22 26  1  0  0  0  0
 22 23  1  0  0  0  0
 22 28  1  0  0  0  0
 23 24  1  0  0  0  0
 23 48  1  0  0  0  0
 23 49  1  0  0  0  0
 24 25  1  0  0  0  0
 24 50  1  0  0  0  0
 24 51  1  0  0  0  0
 25 26  1  0  0  0  0
 26 27  1  0  0  0  0
 26 52  1  0  0  0  0
 27 53  1  0  0  0  0
 27 54  1  0  0  0  0
 27 55  1  0  0  0  0
M  END
> <s_m_source_file>
AV-unprocessed.smi

> <i_m_source_file_index>
281

> <i_lp_mmshare_version>
43012

> <i_f3d_flags>
0

> <s_epik_input>
W0NIM11bQ0BASF0xT1tDSDJdW0NIMl1bQ0BAXTEyW0NIMl1OKFtDSDJdW0NASF0oTzIpW0NIM10pYyhuW2NIXW4zKWMoYzM0KW5bY0hdbjRbQ0gyXVtDQEBdNShbT0hdKVtDSDJdW0NIMl1PW0NIMl01

> <s_epik_cmdline>
J2VwaWtfcHl0aG9uJywgJy1waCcsICc3LjAnLCAnLXRuJywgJzgnLCAnLW1hJywgJzIwMCcsICctbWV0YWxfYmluZGluZycsICctaW1hZScsICc8aW5maWxlLm1hZT4nLCAnLW9tYWUnLCAnPG91dGZpbGUubWFlPic=

> <r_lp_tautomer_probability>
1

> <r_epik_Ionization_Penalty>
0.00571331

> <r_epik_Ionization_Penalty_Charging>
0

> <r_epik_Ionization_Penalty_Neutral>
0.00571331

> <r_epik_State_Penalty>
0.00399586

> <r_epik_Charging_Adjusted_Penalty>
0.00399586

> <i_epik_Tot_Q>
0

> <i_epik_Tot_abs_Q>
0

> <r_epik_Metal_State_Penalty>
-0

> <b_epik_Metal_Only>
0

> <s_lp_Force_Field>
OPLS_2005

> <r_lp_Energy>
56.9308

> <b_lp_Chiralities_Consistent>
1

> <s_lp_Variant>
AV-unprocessed.smi:281-11

> <Gold.Version>
5.8.1

> <Gold.Id.Protein>
6NUR|6NUR_protein|mol2

> <Gold.PLP.Fitness>
39.2350

> <Gold.PLP.PLP>
-32.9435

> <Gold.PLP.part.hbond>
-1.8255

> <Gold.PLP.part.metal>
0.0000

> <Gold.PLP.part.buried>
-7.9977

> <Gold.PLP.part.nonpolar>
-24.2993

> <Gold.PLP.part.repulsive>
0.9510

> <Gold.PLP.ligand.clash>
0.0000

> <Gold.PLP.ligand.torsion>
1.5018

> <Gold.PLP.Chemscore.Hbond>
2.0000

> <Gold.PLP.Chemscore.CHOScore>
1.0000

> <Gold.PLP.Chemscore.Metal>
0.0000

> <Gold.Chemscore.Hbonds>
donor molecule, donor type, donor heavy atom, donor atom, acceptor molecule, acceptor atom, score
      L1  H    16    39       P1  7921  1.00
      P1  H  7989  7998       L1    25  0.98
      L1  C    12    36       P1 10171  0.56

> <Gold.PLP.Chemscore.Internal.Correction>
0.2951

> <Gold.Rescore>
     Score         DG    S(hbond)    S(metal)    S(lipo)     H(rot)  DE(clash)    DE(int)     intcor
     12.77     -15.92       1.97        0.00      78.69       2.09       0.03       3.13       ----

> <Gold.Chemscore.Fitness>
12.7720

> <Gold.Chemscore.DG>
-15.9243

> <Gold.Chemscore.ZeroCoef>
-5.4800

> <Gold.Chemscore.Hbond>
1.9746

> <Gold.Chemscore.Metal>
0.0000

> <Gold.Chemscore.Lipo>
78.6864

> <Gold.Chemscore.Internal_Hbond>
0.0000

> <Gold.Chemscore.DEClash>
0.0266

> <Gold.Chemscore.DEInternal>
3.1257

> <Gold.Chemscore.Rot>
2.0927

> <Gold.Chemscore.Internal.Correction>
   9.000000E+99

> <Gold.Chemscore.Hbonds>
donor molecule, donor type, donor heavy atom, donor atom, acceptor molecule, acceptor atom, score
      L1  H    16    39       P1  7921  0.97
      P1  H  7989  7998       L1    25  0.72

> <Gold.Chemscore.Hbond.Weighted>
-6.5953

> <Gold.Chemscore.Metal.Weighted>
-0.0000

> <Gold.Chemscore.Lipo.Weighted>
-9.2063

> <Gold.Chemscore.Internal_Hbond.Weighted>
0.0000

> <Gold.Chemscore.DEClash.Weighted>
0.0266

> <Gold.Chemscore.DEInternal.Weighted>
3.1257

> <Gold.Chemscore.Rot.Weighted>
5.3573

> <Gold.Chemscore.Internal.Correction.Weighted>
   9.000000E+99

> <Gold.Protein.RotatedTorsions>
[ 6907 6896 6895 6894 ] final   22.11 input  -60.11 | X-H torsion
[ 7974 7965 7964 7962 ] final  103.09 input  175.53 | X-H torsion
[ 8008 7997 7996 7995 ] final   33.41 input   59.86 | X-H torsion
[ 10167 10162 10161 10158 ] final  -49.11 input  -65.29 | X-H torsion
[ 10718 10713 10712 10709 ] final   38.62 input   66.30 | X-H torsion
[ 10763 10752 10751 10750 ] final  -77.59 input  -60.55 | X-H torsion
[ 11005 11000 10999 10996 ] final   16.37 input  -57.11 | X-H torsion

> <Gold.Protein.ActiveResidues>
 VAL166  LYS551  ARG553  GLY616  TRP617  ASP618  TYR619  PRO620  LYS621  CYS622 
 ASP623  PHE694  ASN695  SER759  ASP760  ASP761  ALA762  ILE779  LEU786  VAL792 
 PHE793  MET794  SER795  GLU796  ALA797  LYS798  CYS799  TRP800  GLU811  SER814 

> <Gold.Protein.RotatedAtoms>
  151.9221  135.0294  160.0522 H   0  0  0  0  0  0  0  0  0  0  0  0  # atno 6907 bound_to 6896
  152.2191  133.4965  159.5160 H   0  0  0  0  0  0  0  0  0  0  0  0  # atno 6908 bound_to 6896
  150.6995  134.1283  159.4103 H   0  0  0  0  0  0  0  0  0  0  0  0  # atno 6909 bound_to 6896
  145.3505  139.2440  143.3561 H   0  0  0  0  0  0  0  0  0  0  0  0  # atno 7974 bound_to 7965
  155.1382  140.3263  155.4458 H   0  0  0  0  0  0  0  0  0  0  0  0  # atno 8008 bound_to 7997
  156.2613  140.1998  156.6448 H   0  0  0  0  0  0  0  0  0  0  0  0  # atno 8009 bound_to 7997
  154.6562  140.0552  156.9998 H   0  0  0  0  0  0  0  0  0  0  0  0  # atno 8010 bound_to 7997
  140.6700  143.2711  151.4168 H   0  0  0  0  0  0  0  0  0  0  0  0  # atno 10167 bound_to 10162
  157.3610  130.7649  149.7048 H   0  0  0  0  0  0  0  0  0  0  0  0  # atno 10718 bound_to 10713
  154.5149  135.5759  153.6634 H   0  0  0  0  0  0  0  0  0  0  0  0  # atno 10763 bound_to 10752
  152.9905  135.6167  154.2830 H   0  0  0  0  0  0  0  0  0  0  0  0  # atno 10764 bound_to 10752
  154.2747  135.2852  155.2702 H   0  0  0  0  0  0  0  0  0  0  0  0  # atno 10765 bound_to 10752
  140.4479  134.1255  155.7698 H   0  0  0  0  0  0  0  0  0  0  0  0  # atno 11005 bound_to 11000
  146.2970  140.4120  142.8718 LP  0  0  0  0  0  0  0  0  0  0  0  0  # atno 17320 bound_to 7965
  144.8721  140.7287  143.6040 LP  0  0  0  0  0  0  0  0  0  0  0  0  # atno 17321 bound_to 7965
  139.5964  144.1387  152.2149 LP  0  0  0  0  0  0  0  0  0  0  0  0  # atno 17342 bound_to 10162
  140.0758  144.5741  150.7158 LP  0  0  0  0  0  0  0  0  0  0  0  0  # atno 17343 bound_to 10162
  155.9737  130.4114  150.3977 LP  0  0  0  0  0  0  0  0  0  0  0  0  # atno 17370 bound_to 10713
  157.2055  131.0448  151.2628 LP  0  0  0  0  0  0  0  0  0  0  0  0  # atno 17371 bound_to 10713
  141.1677  133.8670  157.1665 LP  0  0  0  0  0  0  0  0  0  0  0  0  # atno 17394 bound_to 11000
  140.0026  135.0021  157.0224 LP  0  0  0  0  0  0  0  0  0  0  0  0  # atno 17395 bound_to 11000

$$$$
