AV-unprocessed.smi:662|AV-procd|sdf|3245|dock7
  -GOLD-   22720 0193D 1   1.00000     0.00000
 Structure written by MMmdl.
 33 34  0  0  0  0  0  0  0  0  1 V2000
  146.2807  135.6705  152.3537 O   0  0  0  0  0  0  0  0  0  0  0  0
  145.5464  136.1043  151.4650 C   0  0  0  0  0  0  0  0  0  0  0  0
  145.5666  137.3811  151.0532 N   0  0  0  0  0  0  0  0  0  0  0  0
  146.4334  138.4218  151.5933 C   0  0  0  0  0  0  0  0  0  0  0  0
  146.3894  138.4564  153.1298 C   0  0  0  0  0  0  0  0  0  0  0  0
  147.3519  139.4396  153.7054 C   0  0  0  0  0  0  0  0  0  0  0  0
  148.4518  139.0890  154.3768 N   0  0  0  0  0  0  0  0  0  0  0  0
  149.1762  140.1913  154.8437 C   0  0  0  0  0  0  0  0  0  0  0  0
  150.4519  139.9771  155.6055 C   0  0  0  0  0  0  0  0  0  0  0  0
  151.3537  139.3180  154.8775 F   0  0  0  0  0  0  0  0  0  0  0  0
  150.9982  141.1383  155.9656 F   0  0  0  0  0  0  0  0  0  0  0  0
  150.2353  139.2692  156.7136 F   0  0  0  0  0  0  0  0  0  0  0  0
  148.5913  141.3923  154.5226 C   0  0  0  0  0  0  0  0  0  0  0  0
  147.1133  141.1806  153.6251 S   0  0  0  0  0  0  0  0  0  0  0  0
  144.5422  135.1793  150.7671 C   0  0  2  0  0  0  0  0  0  0  0  0
  143.6079  134.4636  151.7565 C   0  0  0  0  0  0  0  0  0  0  0  0
  143.6779  132.9989  151.3420 C   0  0  0  0  0  0  0  0  0  0  0  0
  144.2516  133.0421  149.9274 C   0  0  0  0  0  0  0  0  0  0  0  0
  145.2120  134.1310  149.9866 N   0  0  0  0  0  0  0  0  0  0  0  0
  144.9326  137.6517  150.3156 H   0  0  0  0  0  0  0  0  0  0  0  0
  147.4561  138.2736  151.2423 H   0  0  0  0  0  0  0  0  0  0  0  0
  146.1026  139.3796  151.1906 H   0  0  0  0  0  0  0  0  0  0  0  0
  145.3843  138.7079  153.4716 H   0  0  0  0  0  0  0  0  0  0  0  0
  146.6203  137.4728  153.5402 H   0  0  0  0  0  0  0  0  0  0  0  0
  148.9390  142.3866  154.7609 H   0  0  0  0  0  0  0  0  0  0  0  0
  143.9304  135.7645  150.0776 H   0  0  0  0  0  0  0  0  0  0  0  0
  143.8998  134.5859  152.8011 H   0  0  0  0  0  0  0  0  0  0  0  0
  142.5914  134.8454  151.6546 H   0  0  0  0  0  0  0  0  0  0  0  0
  144.3602  132.4598  152.0008 H   0  0  0  0  0  0  0  0  0  0  0  0
  142.7080  132.5026  151.3872 H   0  0  0  0  0  0  0  0  0  0  0  0
  144.7227  132.1042  149.6325 H   0  0  0  0  0  0  0  0  0  0  0  0
  143.4733  133.2807  149.2007 H   0  0  0  0  0  0  0  0  0  0  0  0
  145.4868  134.4398  149.0652 H   0  0  0  0  0  0  0  0  0  0  0  0
  1  2  2  0  0  0  0
  2  3  1  0  0  0  0
  2 15  1  0  0  0  0
  3  4  1  0  0  0  0
  3 20  1  0  0  0  0
  4  5  1  0  0  0  0
  4 21  1  0  0  0  0
  4 22  1  0  0  0  0
  5  6  1  0  0  0  0
  5 23  1  0  0  0  0
  5 24  1  0  0  0  0
  6 14  1  0  0  0  0
  6  7  2  0  0  0  0
  7  8  1  0  0  0  0
  8  9  1  0  0  0  0
  8 13  2  0  0  0  0
  9 10  1  0  0  0  0
  9 11  1  0  0  0  0
  9 12  1  0  0  0  0
 13 14  1  0  0  0  0
 13 25  1  0  0  0  0
 15 19  1  0  0  0  0
 15 16  1  0  0  0  0
 15 26  1  0  0  0  0
 16 17  1  0  0  0  0
 16 27  1  0  0  0  0
 16 28  1  0  0  0  0
 17 18  1  0  0  0  0
 17 29  1  0  0  0  0
 17 30  1  0  0  0  0
 18 19  1  0  0  0  0
 18 31  1  0  0  0  0
 18 32  1  0  0  0  0
 19 33  1  0  0  0  0
M  END
> <s_m_source_file>
AV-unprocessed.smi

> <i_m_source_file_index>
662

> <i_lp_mmshare_version>
43012

> <i_f3d_flags>
0

> <s_epik_input>
W05IXTFbQ0gyXVtDSDJdW0NIMl1bQ0BIXTFDKD1PKVtOSF1bQ0gyXVtDSDJdYzJuYyhDKEYpKEYpRilbY0hdczI=

> <s_epik_cmdline>
J2VwaWtfcHl0aG9uJywgJy1waCcsICc3LjAnLCAnLXRuJywgJzgnLCAnLW1hJywgJzIwMCcsICctbWV0YWxfYmluZGluZycsICctaW1hZScsICc8aW5maWxlLm1hZT4nLCAnLW9tYWUnLCAnPG91dGZpbGUubWFlPic=

> <r_epik_Ionization_Penalty>
1.64272

> <r_epik_Ionization_Penalty_Charging>
0

> <r_epik_Ionization_Penalty_Neutral>
1.64272

> <r_epik_State_Penalty>
1.74416

> <r_epik_Charging_Adjusted_Penalty>
1.74416

> <i_epik_Tot_Q>
0

> <i_epik_Tot_abs_Q>
0

> <r_epik_Metal_State_Penalty>
1.74416

> <b_epik_Metal_Only>
0

> <s_lp_Force_Field>
OPLS_2005

> <r_lp_Energy>
16.594

> <b_lp_Chiralities_Consistent>
1

> <s_lp_Variant>
AV-unprocessed.smi:662-3

> <Gold.Version>
5.8.1

> <Gold.Id.Protein>
6NUR|6NUR_protein|mol2

> <Gold.PLP.Fitness>
47.3383

> <Gold.PLP.PLP>
-39.1043

> <Gold.PLP.part.hbond>
-1.7005

> <Gold.PLP.part.metal>
0.0000

> <Gold.PLP.part.buried>
-5.0651

> <Gold.PLP.part.nonpolar>
-34.8754

> <Gold.PLP.part.repulsive>
2.4904

> <Gold.PLP.ligand.clash>
0.0000

> <Gold.PLP.ligand.torsion>
0.2402

> <Gold.PLP.Chemscore.Hbond>
1.8960

> <Gold.PLP.Chemscore.CHOScore>
1.0000

> <Gold.PLP.Chemscore.Metal>
0.0000

> <Gold.Chemscore.Hbonds>
donor molecule, donor type, donor heavy atom, donor atom, acceptor molecule, acceptor atom, score
      L1  H     3    20       P1 10171  0.90
      L1  H    19    33       P1  7921  1.00
      L1  C    13    25       P1  8028  1.00

> <Gold.PLP.Chemscore.Internal.Correction>
0.0263

> <Gold.Rescore>
     Score         DG    S(hbond)    S(metal)    S(lipo)     H(rot)  DE(clash)    DE(int)     intcor
     14.79     -15.39       1.93        0.00      71.26       1.91       0.21       0.40       ----

> <Gold.Chemscore.Fitness>
14.7852

> <Gold.Chemscore.DG>
-15.3915

> <Gold.Chemscore.ZeroCoef>
-5.4800

> <Gold.Chemscore.Hbond>
1.9350

> <Gold.Chemscore.Metal>
0.0000

> <Gold.Chemscore.Lipo>
71.2567

> <Gold.Chemscore.Internal_Hbond>
0.0000

> <Gold.Chemscore.DEClash>
0.2078

> <Gold.Chemscore.DEInternal>
0.3985

> <Gold.Chemscore.Rot>
1.9095

> <Gold.Chemscore.Internal.Correction>
   9.000000E+99

> <Gold.Chemscore.Hbonds>
donor molecule, donor type, donor heavy atom, donor atom, acceptor molecule, acceptor atom, score
      L1  H     3    20       P1 10171  0.82
      L1  H    19    33       P1  7921  0.96

> <Gold.Chemscore.Hbond.Weighted>
-6.4628

> <Gold.Chemscore.Metal.Weighted>
-0.0000

> <Gold.Chemscore.Lipo.Weighted>
-8.3370

> <Gold.Chemscore.Internal_Hbond.Weighted>
0.0000

> <Gold.Chemscore.DEClash.Weighted>
0.2078

> <Gold.Chemscore.DEInternal.Weighted>
0.3985

> <Gold.Chemscore.Rot.Weighted>
4.8883

> <Gold.Chemscore.Internal.Correction.Weighted>
   9.000000E+99

> <Gold.Protein.RotatedTorsions>
[ 6907 6896 6895 6894 ] final -174.96 input  -60.11 | X-H torsion
[ 7974 7965 7964 7962 ] final  -84.51 input  175.53 | X-H torsion
[ 8008 7997 7996 7995 ] final  -54.53 input   59.86 | X-H torsion
[ 10167 10162 10161 10158 ] final  122.22 input  -65.29 | X-H torsion
[ 10718 10713 10712 10709 ] final  145.83 input   66.30 | X-H torsion
[ 10763 10752 10751 10750 ] final   80.79 input  -60.55 | X-H torsion
[ 11005 11000 10999 10996 ] final -159.51 input  -57.11 | X-H torsion

> <Gold.Protein.ActiveResidues>
 VAL166  LYS551  ARG553  GLY616  TRP617  ASP618  TYR619  PRO620  LYS621  CYS622 
 ASP623  PHE694  ASN695  SER759  ASP760  ASP761  ALA762  ILE779  LEU786  VAL792 
 PHE793  MET794  SER795  GLU796  ALA797  LYS798  CYS799  TRP800  GLU811  SER814 

> <Gold.Protein.RotatedAtoms>
  151.5809  133.3378  159.3007 H   0  0  0  0  0  0  0  0  0  0  0  0  # atno 6907 bound_to 6896
  150.8314  134.7572  159.6868 H   0  0  0  0  0  0  0  0  0  0  0  0  # atno 6908 bound_to 6896
  152.4397  134.5622  159.9949 H   0  0  0  0  0  0  0  0  0  0  0  0  # atno 6909 bound_to 6896
  145.5056  140.9544  143.1735 H   0  0  0  0  0  0  0  0  0  0  0  0  # atno 7974 bound_to 7965
  154.4165  140.1174  156.5330 H   0  0  0  0  0  0  0  0  0  0  0  0  # atno 8008 bound_to 7997
  155.6586  140.3496  155.4755 H   0  0  0  0  0  0  0  0  0  0  0  0  # atno 8009 bound_to 7997
  155.9732  140.1145  157.0783 H   0  0  0  0  0  0  0  0  0  0  0  0  # atno 8010 bound_to 7997
  139.5872  144.7011  151.3380 H   0  0  0  0  0  0  0  0  0  0  0  0  # atno 10167 bound_to 10162
  157.3405  131.0935  151.1086 H   0  0  0  0  0  0  0  0  0  0  0  0  # atno 10718 bound_to 10713
  153.1063  135.4789  154.8956 H   0  0  0  0  0  0  0  0  0  0  0  0  # atno 10763 bound_to 10752
  154.7433  135.3087  154.8692 H   0  0  0  0  0  0  0  0  0  0  0  0  # atno 10764 bound_to 10752
  153.9293  135.6846  153.4799 H   0  0  0  0  0  0  0  0  0  0  0  0  # atno 10765 bound_to 10752
  140.6418  134.4543  157.5233 H   0  0  0  0  0  0  0  0  0  0  0  0  # atno 11005 bound_to 11000
  144.7755  139.6639  143.7176 LP  0  0  0  0  0  0  0  0  0  0  0  0  # atno 17320 bound_to 7965
  146.2198  139.5616  142.9625 LP  0  0  0  0  0  0  0  0  0  0  0  0  # atno 17321 bound_to 7965
  140.7141  143.7312  150.7622 LP  0  0  0  0  0  0  0  0  0  0  0  0  # atno 17342 bound_to 10162
  140.0859  143.4924  152.2505 LP  0  0  0  0  0  0  0  0  0  0  0  0  # atno 17343 bound_to 10162
  157.2300  130.6521  149.5846 LP  0  0  0  0  0  0  0  0  0  0  0  0  # atno 17370 bound_to 10713
  155.9707  130.4602  150.6063 LP  0  0  0  0  0  0  0  0  0  0  0  0  # atno 17371 bound_to 10713
  139.9077  134.8412  156.1642 LP  0  0  0  0  0  0  0  0  0  0  0  0  # atno 17394 bound_to 11000
  141.0601  133.6846  156.1936 LP  0  0  0  0  0  0  0  0  0  0  0  0  # atno 17395 bound_to 11000

$$$$
