AV-unprocessed.smi:2264|AV-procd|sdf|9142|dock10
  -GOLD-   2272012353D 1   1.00000     0.00000
 Structure written by MMmdl.
 44 45  0  0  0  0  0  0  0  0  1 V2000
  153.8673  141.6529  161.2006 C   0  0  0  0  0  0  0  0  0  0  0  0
  153.0080  141.7757  159.9590 C   0  0  0  0  0  0  0  0  0  0  0  0
  152.3493  140.6486  159.4309 C   0  0  0  0  0  0  0  0  0  0  0  0
  151.5523  140.7697  158.2768 C   0  0  0  0  0  0  0  0  0  0  0  0
  151.4026  142.0239  157.6332 C   0  0  0  0  0  0  0  0  0  0  0  0
  150.6404  142.2175  156.5009 O   0  0  0  0  0  0  0  0  0  0  0  0
  149.8332  141.1464  156.0307 C   0  0  0  0  0  0  0  0  0  0  0  0
  148.9126  141.6909  154.9283 C   0  0  1  0  0  0  0  0  0  0  0  0
  149.4000  141.2044  153.6945 O   0  0  0  0  0  0  0  0  0  0  0  0
  147.4471  141.2304  155.1101 C   0  0  0  0  0  0  0  0  0  0  0  0
  146.4972  142.3388  154.9251 N   0  0  0  0  0  0  0  0  0  0  0  0
  146.3896  142.8560  153.6229 C   0  0  0  0  0  0  0  0  0  0  0  0
  145.5847  143.8281  153.3428 N   0  0  0  0  0  0  0  0  0  0  0  0
  144.7928  144.3887  154.3492 C   0  0  0  0  0  0  0  0  0  0  0  0
  143.8895  145.5292  153.9138 C   0  0  0  0  0  0  0  0  0  0  0  0
  144.8437  143.9274  155.6287 C   0  0  0  0  0  0  0  0  0  0  0  0
  144.0067  144.5004  156.7655 C   0  0  0  0  0  0  0  0  0  0  0  0
  145.7493  142.8154  155.9611 C   0  0  0  0  0  0  0  0  0  0  0  0
  145.8364  142.3408  157.0952 O   0  0  0  0  0  0  0  0  0  0  0  0
  152.0690  143.1506  158.1674 C   0  0  0  0  0  0  0  0  0  0  0  0
  151.9245  144.5054  157.4990 C   0  0  0  0  0  0  0  0  0  0  0  0
  152.8663  143.0245  159.3242 C   0  0  0  0  0  0  0  0  0  0  0  0
  153.7906  140.6585  161.6414 H   0  0  0  0  0  0  0  0  0  0  0  0
  153.5566  142.3814  161.9500 H   0  0  0  0  0  0  0  0  0  0  0  0
  154.9134  141.8374  160.9551 H   0  0  0  0  0  0  0  0  0  0  0  0
  152.4526  139.6847  159.9079 H   0  0  0  0  0  0  0  0  0  0  0  0
  151.0669  139.8816  157.9021 H   0  0  0  0  0  0  0  0  0  0  0  0
  150.4734  140.3606  155.6261 H   0  0  0  0  0  0  0  0  0  0  0  0
  149.2392  140.7205  156.8414 H   0  0  0  0  0  0  0  0  0  0  0  0
  148.9839  142.7796  154.9203 H   0  0  0  0  0  0  0  0  0  0  0  0
  149.6271  140.2930  153.7985 H   0  0  0  0  0  0  0  0  0  0  0  0
  147.2198  140.3858  154.4566 H   0  0  0  0  0  0  0  0  0  0  0  0
  147.3099  140.8211  156.1130 H   0  0  0  0  0  0  0  0  0  0  0  0
  147.0241  142.3779  152.8742 H   0  0  0  0  0  0  0  0  0  0  0  0
  144.1503  146.4459  154.4433 H   0  0  0  0  0  0  0  0  0  0  0  0
  142.8456  145.2914  154.1200 H   0  0  0  0  0  0  0  0  0  0  0  0
  143.9822  145.7228  152.8444 H   0  0  0  0  0  0  0  0  0  0  0  0
  143.3534  143.7302  157.1764 H   0  0  0  0  0  0  0  0  0  0  0  0
  143.3780  145.3346  156.4580 H   0  0  0  0  0  0  0  0  0  0  0  0
  144.6550  144.8576  157.5663 H   0  0  0  0  0  0  0  0  0  0  0  0
  152.4643  145.2800  158.0442 H   0  0  0  0  0  0  0  0  0  0  0  0
  150.8743  144.7948  157.4517 H   0  0  0  0  0  0  0  0  0  0  0  0
  152.3168  144.4692  156.4824 H   0  0  0  0  0  0  0  0  0  0  0  0
  153.3724  143.8889  159.7291 H   0  0  0  0  0  0  0  0  0  0  0  0
  1  2  1  0  0  0  0
  1 23  1  0  0  0  0
  1 24  1  0  0  0  0
  1 25  1  0  0  0  0
  2 22  1  0  0  0  0
  2  3  2  0  0  0  0
  3  4  1  0  0  0  0
  3 26  1  0  0  0  0
  4  5  2  0  0  0  0
  4 27  1  0  0  0  0
  5  6  1  0  0  0  0
  5 20  1  0  0  0  0
  6  7  1  0  0  0  0
  7  8  1  0  0  0  0
  7 28  1  0  0  0  0
  7 29  1  0  0  0  0
  8  9  1  0  0  0  0
  8 10  1  0  0  0  0
  8 30  1  0  0  0  0
  9 31  1  0  0  0  0
 10 11  1  0  0  0  0
 10 32  1  0  0  0  0
 10 33  1  0  0  0  0
 11 18  1  0  0  0  0
 11 12  1  0  0  0  0
 12 13  2  0  0  0  0
 12 34  1  0  0  0  0
 13 14  1  0  0  0  0
 14 15  1  0  0  0  0
 14 16  2  0  0  0  0
 15 35  1  0  0  0  0
 15 36  1  0  0  0  0
 15 37  1  0  0  0  0
 16 17  1  0  0  0  0
 16 18  1  0  0  0  0
 17 38  1  0  0  0  0
 17 39  1  0  0  0  0
 17 40  1  0  0  0  0
 18 19  2  0  0  0  0
 20 21  1  0  0  0  0
 20 22  2  0  0  0  0
 21 41  1  0  0  0  0
 21 42  1  0  0  0  0
 21 43  1  0  0  0  0
 22 44  1  0  0  0  0
M  END
> <s_m_source_file>
AV-unprocessed.smi

> <i_m_source_file_index>
2264

> <i_lp_mmshare_version>
43012

> <i_f3d_flags>
0

> <s_epik_input>
W0NIM11jMVtjSF1bY0hdYyhjKFtDSDNdKVtjSF0xKU9bQ0gyXVtDQEhdKFtPSF0pW0NIMl1uMltjSF1uYyhbQ0gzXSljKFtDSDNdKWMyPU8=

> <s_epik_cmdline>
J2VwaWtfcHl0aG9uJywgJy1waCcsICc3LjAnLCAnLXRuJywgJzgnLCAnLW1hJywgJzIwMCcsICctbWV0YWxfYmluZGluZycsICctaW1hZScsICc8aW5maWxlLm1hZT4nLCAnLW9tYWUnLCAnPG91dGZpbGUubWFlPic=

> <r_lp_tautomer_probability>
1

> <r_epik_Ionization_Penalty>
3.7476e-05

> <r_epik_Ionization_Penalty_Charging>
8.44705e-08

> <r_epik_Ionization_Penalty_Neutral>
3.73915e-05

> <r_epik_State_Penalty>
-0

> <r_epik_Charging_Adjusted_Penalty>
8.44705e-08

> <i_epik_Tot_Q>
0

> <i_epik_Tot_abs_Q>
0

> <r_epik_Metal_State_Penalty>
-0

> <b_epik_Metal_Only>
0

> <s_lp_Force_Field>
OPLS_2005

> <r_lp_Energy>
22.0846

> <b_lp_Chiralities_Consistent>
1

> <s_lp_Variant>
AV-unprocessed.smi:2264-2

> <Gold.Version>
5.8.1

> <Gold.Id.Protein>
6NUR|6NUR_protein|mol2

> <Gold.PLP.Fitness>
48.6366

> <Gold.PLP.PLP>
-48.7654

> <Gold.PLP.part.hbond>
-3.1571

> <Gold.PLP.part.metal>
0.0000

> <Gold.PLP.part.buried>
-6.6937

> <Gold.PLP.part.nonpolar>
-39.0133

> <Gold.PLP.part.repulsive>
0.4219

> <Gold.PLP.ligand.clash>
0.0000

> <Gold.PLP.ligand.torsion>
1.4489

> <Gold.PLP.Chemscore.Hbond>
0.9120

> <Gold.PLP.Chemscore.CHOScore>
0.0000

> <Gold.PLP.Chemscore.Metal>
0.0000

> <Gold.Chemscore.Hbonds>
donor molecule, donor type, donor heavy atom, donor atom, acceptor molecule, acceptor atom, score
      P1  H  8011  8017       L1     9  0.93

> <Gold.PLP.Chemscore.Internal.Correction>
0.0330

> <Gold.Rescore>
     Score         DG    S(hbond)    S(metal)    S(lipo)     H(rot)  DE(clash)    DE(int)     intcor
     14.12     -16.39       0.86        0.00     119.54       2.32       0.79       1.48       ----

> <Gold.Chemscore.Fitness>
14.1225

> <Gold.Chemscore.DG>
-16.3928

> <Gold.Chemscore.ZeroCoef>
-5.4800

> <Gold.Chemscore.Hbond>
0.8609

> <Gold.Chemscore.Metal>
0.0000

> <Gold.Chemscore.Lipo>
119.5381

> <Gold.Chemscore.Internal_Hbond>
0.0000

> <Gold.Chemscore.DEClash>
0.7869

> <Gold.Chemscore.DEInternal>
1.4835

> <Gold.Chemscore.Rot>
2.3236

> <Gold.Chemscore.Internal.Correction>
   9.000000E+99

> <Gold.Chemscore.Hbonds>
donor molecule, donor type, donor heavy atom, donor atom, acceptor molecule, acceptor atom, score
      P1  H  8011  8017       L1     9  0.87

> <Gold.Chemscore.Hbond.Weighted>
-2.8753

> <Gold.Chemscore.Metal.Weighted>
-0.0000

> <Gold.Chemscore.Lipo.Weighted>
-13.9860

> <Gold.Chemscore.Internal_Hbond.Weighted>
0.0000

> <Gold.Chemscore.DEClash.Weighted>
0.7869

> <Gold.Chemscore.DEInternal.Weighted>
1.4835

> <Gold.Chemscore.Rot.Weighted>
5.9484

> <Gold.Chemscore.Internal.Correction.Weighted>
   9.000000E+99

> <Gold.Protein.RotatedTorsions>
[ 6907 6896 6895 6894 ] final -169.56 input  -60.11 | X-H torsion
[ 7974 7965 7964 7962 ] final  136.01 input  175.53 | X-H torsion
[ 8008 7997 7996 7995 ] final  138.09 input   59.86 | X-H torsion
[ 10167 10162 10161 10158 ] final   -6.51 input  -65.29 | X-H torsion
[ 10718 10713 10712 10709 ] final -174.71 input   66.30 | X-H torsion
[ 10763 10752 10751 10750 ] final  -17.77 input  -60.55 | X-H torsion
[ 11005 11000 10999 10996 ] final   -1.19 input  -57.11 | X-H torsion

> <Gold.Protein.ActiveResidues>
 VAL166  LYS551  ARG553  GLY616  TRP617  ASP618  TYR619  PRO620  LYS621  CYS622 
 ASP623  PHE694  ASN695  SER759  ASP760  ASP761  ALA762  ILE779  LEU786  VAL792 
 PHE793  MET794  SER795  GLU796  ALA797  LYS798  CYS799  TRP800  GLU811  SER814 

> <Gold.Protein.RotatedAtoms>
  151.4936  133.3519  159.2857 H   0  0  0  0  0  0  0  0  0  0  0  0  # atno 6907 bound_to 6896
  150.8818  134.8212  159.7241 H   0  0  0  0  0  0  0  0  0  0  0  0  # atno 6908 bound_to 6896
  152.4768  134.4835  159.9725 H   0  0  0  0  0  0  0  0  0  0  0  0  # atno 6909 bound_to 6896
  144.9607  139.4713  143.5481 H   0  0  0  0  0  0  0  0  0  0  0  0  # atno 7974 bound_to 7965
  156.2999  140.2402  156.4017 H   0  0  0  0  0  0  0  0  0  0  0  0  # atno 8008 bound_to 7997
  154.8521  140.0423  157.1631 H   0  0  0  0  0  0  0  0  0  0  0  0  # atno 8009 bound_to 7997
  154.8987  140.2974  155.5333 H   0  0  0  0  0  0  0  0  0  0  0  0  # atno 8010 bound_to 7997
  140.6999  143.6186  150.8634 H   0  0  0  0  0  0  0  0  0  0  0  0  # atno 10167 bound_to 10162
  156.7891  130.9511  151.3120 H   0  0  0  0  0  0  0  0  0  0  0  0  # atno 10718 bound_to 10713
  153.5790  135.7005  153.5471 H   0  0  0  0  0  0  0  0  0  0  0  0  # atno 10763 bound_to 10752
  153.3278  135.4056  155.1470 H   0  0  0  0  0  0  0  0  0  0  0  0  # atno 10764 bound_to 10752
  154.8620  135.3711  154.5316 H   0  0  0  0  0  0  0  0  0  0  0  0  # atno 10765 bound_to 10752
  140.6446  133.9459  155.8345 H   0  0  0  0  0  0  0  0  0  0  0  0  # atno 11005 bound_to 11000
  146.3352  139.8755  142.8833 LP  0  0  0  0  0  0  0  0  0  0  0  0  # atno 17320 bound_to 7965
  145.2704  141.0107  143.3775 LP  0  0  0  0  0  0  0  0  0  0  0  0  # atno 17321 bound_to 7965
  139.9907  143.5850  152.2911 LP  0  0  0  0  0  0  0  0  0  0  0  0  # atno 17342 bound_to 10162
  139.6504  144.7660  151.2159 LP  0  0  0  0  0  0  0  0  0  0  0  0  # atno 17343 bound_to 10162
  157.6609  130.8965  149.9828 LP  0  0  0  0  0  0  0  0  0  0  0  0  # atno 17370 bound_to 10713
  156.1170  130.3647  149.9951 LP  0  0  0  0  0  0  0  0  0  0  0  0  # atno 17371 bound_to 10713
  141.0582  134.0385  157.3694 LP  0  0  0  0  0  0  0  0  0  0  0  0  # atno 17394 bound_to 11000
  139.9068  135.0181  156.7519 LP  0  0  0  0  0  0  0  0  0  0  0  0  # atno 17395 bound_to 11000

$$$$
