AV-unprocessed.smi:910|AV-procd|sdf|4129|dock4
  -GOLD-   22720 2 33D 1   1.00000     0.00000
 Structure written by MMmdl.
 47 48  0  0  0  0  0  0  0  0  2 V2000
  145.5098  136.0765  151.6267 C   0  0  0  0  0  0  0  0  0  0  0  0
  145.9033  136.9147  152.8020 C   0  0  0  0  0  0  0  0  0  0  0  0
  147.1634  137.2645  153.2243 N   0  3  0  0  0  0  0  0  0  0  0  0
  147.0776  138.0232  154.3178 C   0  0  0  0  0  0  0  0  0  0  0  0
  148.1494  138.5833  155.0576 N   0  0  0  0  0  0  0  0  0  0  0  0
  148.0777  139.5702  155.9660 C   0  0  0  0  0  0  0  0  0  0  0  0
  147.0410  140.1417  156.3057 O   0  0  0  0  0  0  0  0  0  0  0  0
  149.2867  139.8717  156.4605 N   0  0  0  0  0  0  0  0  0  0  0  0
  149.5603  140.9402  157.4163 C   0  0  0  0  0  0  0  0  0  0  0  0
  151.0580  141.2743  157.4766 C   0  0  0  0  0  0  0  0  0  0  0  0
  151.2900  142.0957  158.6111 O   0  0  0  0  0  0  0  0  0  0  0  0
  152.5747  142.7065  158.6543 C   0  0  1  0  0  0  0  0  0  0  0  0
  152.5281  144.1109  158.0167 C   0  0  0  0  0  0  0  0  0  0  0  0
  151.6337  145.0700  158.8191 C   0  0  0  0  0  0  0  0  0  0  0  0
  152.0760  145.1451  160.2884 C   0  0  0  0  0  0  0  0  0  0  0  0
  152.1218  143.7499  160.9321 C   0  0  0  0  0  0  0  0  0  0  0  0
  153.0208  142.7864  160.1312 C   0  0  1  0  0  0  0  0  0  0  0  0
  153.0968  141.3970  160.7846 C   0  0  0  0  0  0  0  0  0  0  0  0
  145.7762  138.2075  154.6624 O   0  0  0  0  0  0  0  0  0  0  0  0
  145.0574  137.5103  153.7116 C   0  0  0  0  0  0  0  0  0  0  0  0
  143.5710  137.5280  153.8325 C   0  0  0  0  0  0  0  0  0  0  0  0
  145.1187  135.1108  151.9472 H   0  0  0  0  0  0  0  0  0  0  0  0
  146.3606  135.8878  150.9716 H   0  0  0  0  0  0  0  0  0  0  0  0
  144.7382  136.5663  151.0325 H   0  0  0  0  0  0  0  0  0  0  0  0
  148.0089  136.9710  152.7503 H   0  0  0  0  0  0  0  0  0  0  0  0
  150.0858  139.3524  156.1266 H   0  0  0  0  0  0  0  0  0  0  0  0
  148.9829  141.8295  157.1592 H   0  0  0  0  0  0  0  0  0  0  0  0
  149.2146  140.6171  158.3985 H   0  0  0  0  0  0  0  0  0  0  0  0
  151.6461  140.3578  157.5416 H   0  0  0  0  0  0  0  0  0  0  0  0
  151.3581  141.7888  156.5639 H   0  0  0  0  0  0  0  0  0  0  0  0
  153.2954  142.0891  158.1152 H   0  0  0  0  0  0  0  0  0  0  0  0
  153.5393  144.5176  157.9750 H   0  0  0  0  0  0  0  0  0  0  0  0
  152.1853  144.0578  156.9838 H   0  0  0  0  0  0  0  0  0  0  0  0
  151.6614  146.0642  158.3724 H   0  0  0  0  0  0  0  0  0  0  0  0
  150.5967  144.7366  158.7650 H   0  0  0  0  0  0  0  0  0  0  0  0
  153.0622  145.6074  160.3491 H   0  0  0  0  0  0  0  0  0  0  0  0
  151.3979  145.7903  160.8477 H   0  0  0  0  0  0  0  0  0  0  0  0
  152.4861  143.8345  161.9563 H   0  0  0  0  0  0  0  0  0  0  0  0
  151.1108  143.3461  160.9984 H   0  0  0  0  0  0  0  0  0  0  0  0
  154.0312  143.1977  160.1441 H   0  0  0  0  0  0  0  0  0  0  0  0
  152.1159  140.9233  160.8332 H   0  0  0  0  0  0  0  0  0  0  0  0
  153.4829  141.4642  161.8020 H   0  0  0  0  0  0  0  0  0  0  0  0
  153.7584  140.7357  160.2244 H   0  0  0  0  0  0  0  0  0  0  0  0
  143.1346  138.2296  153.1215 H   0  0  0  0  0  0  0  0  0  0  0  0
  143.2621  137.8258  154.8347 H   0  0  0  0  0  0  0  0  0  0  0  0
  143.1542  136.5409  153.6321 H   0  0  0  0  0  0  0  0  0  0  0  0
  149.0642  138.2015  154.8673 H   0  0  0  0  0  0  0  0  0  0  0  0
  1 22  1  0  0  0  0
  1 23  1  0  0  0  0
  1 24  1  0  0  0  0
  1  2  1  0  0  0  0
  2  3  1  0  0  0  0
  2 20  2  0  0  0  0
  3 25  1  0  0  0  0
  3  4  2  0  0  0  0
  4 19  1  0  0  0  0
  4  5  1  0  0  0  0
  5  6  1  0  0  0  0
  5 47  1  0  0  0  0
  6  8  1  0  0  0  0
  6  7  2  0  0  0  0
  8  9  1  0  0  0  0
  8 26  1  0  0  0  0
  9 10  1  0  0  0  0
  9 27  1  0  0  0  0
  9 28  1  0  0  0  0
 10 11  1  0  0  0  0
 10 29  1  0  0  0  0
 10 30  1  0  0  0  0
 11 12  1  0  0  0  0
 12 17  1  0  0  0  0
 12 13  1  0  0  0  0
 12 31  1  0  0  0  0
 13 14  1  0  0  0  0
 13 32  1  0  0  0  0
 13 33  1  0  0  0  0
 14 15  1  0  0  0  0
 14 34  1  0  0  0  0
 14 35  1  0  0  0  0
 15 16  1  0  0  0  0
 15 36  1  0  0  0  0
 15 37  1  0  0  0  0
 16 17  1  0  0  0  0
 16 38  1  0  0  0  0
 16 39  1  0  0  0  0
 17 18  1  0  0  0  0
 17 40  1  0  0  0  0
 18 41  1  0  0  0  0
 18 42  1  0  0  0  0
 18 43  1  0  0  0  0
 19 20  1  0  0  0  0
 20 21  1  0  0  0  0
 21 44  1  0  0  0  0
 21 45  1  0  0  0  0
 21 46  1  0  0  0  0
M  CHG  1   3   1
M  END
> <s_m_source_file>
AV-unprocessed.smi

> <i_m_source_file_index>
910

> <i_lp_mmshare_version>
43012

> <i_f3d_flags>
0

> <s_epik_input>
W0NIM11jMW5jKG9jMVtDSDNdKVtOSF1DKD1PKVtOSF1bQ0gyXVtDSDJdT1tDQEBIXTJbQ0gyXVtDSDJdW0NIMl1bQ0gyXVtDQEhdMltDSDNd

> <s_epik_cmdline>
J2VwaWtfcHl0aG9uJywgJy1waCcsICc3LjAnLCAnLXRuJywgJzgnLCAnLW1hJywgJzIwMCcsICctbWV0YWxfYmluZGluZycsICctaW1hZScsICc8aW5maWxlLm1hZT4nLCAnLW9tYWUnLCAnPG91dGZpbGUubWFlPic=

> <r_epik_Ionization_Penalty>
7.32931

> <r_epik_Ionization_Penalty_Charging>
7.12214

> <r_epik_Ionization_Penalty_Neutral>
0.207166

> <r_epik_State_Penalty>
2.61278

> <r_epik_Charging_Adjusted_Penalty>
9.73492

> <i_epik_Tot_Q>
1

> <i_epik_Tot_abs_Q>
1

> <r_epik_Metal_State_Penalty>
2.64585

> <b_epik_Metal_Only>
0

> <s_lp_Force_Field>
OPLS_2005

> <r_lp_Energy>
17.2334

> <b_lp_Chiralities_Consistent>
1

> <s_lp_Variant>
AV-unprocessed.smi:910-14

> <Gold.Version>
5.8.1

> <Gold.Id.Protein>
6NUR|6NUR_protein|mol2

> <Gold.PLP.Fitness>
44.0340

> <Gold.PLP.PLP>
-39.3021

> <Gold.PLP.part.hbond>
-0.8959

> <Gold.PLP.part.metal>
0.0000

> <Gold.PLP.part.buried>
-4.3795

> <Gold.PLP.part.nonpolar>
-33.9895

> <Gold.PLP.part.repulsive>
0.1619

> <Gold.PLP.ligand.clash>
0.0000

> <Gold.PLP.ligand.torsion>
0.6809

> <Gold.PLP.Chemscore.Hbond>
2.0000

> <Gold.PLP.Chemscore.CHOScore>
0.0000

> <Gold.PLP.Chemscore.Metal>
0.0000

> <Gold.Chemscore.Hbonds>
donor molecule, donor type, donor heavy atom, donor atom, acceptor molecule, acceptor atom, score
      L1  H     3    25       P1  7948  1.79

> <Gold.PLP.Chemscore.Internal.Correction>
0.0939

> <Gold.Rescore>
     Score         DG    S(hbond)    S(metal)    S(lipo)     H(rot)  DE(clash)    DE(int)     intcor
     15.10     -17.34       1.00        0.00     109.94       1.69       0.12       2.12       ----

> <Gold.Chemscore.Fitness>
15.0997

> <Gold.Chemscore.DG>
-17.3387

> <Gold.Chemscore.ZeroCoef>
-5.4800

> <Gold.Chemscore.Hbond>
0.9986

> <Gold.Chemscore.Metal>
0.0000

> <Gold.Chemscore.Lipo>
109.9365

> <Gold.Chemscore.Internal_Hbond>
0.0000

> <Gold.Chemscore.DEClash>
0.1229

> <Gold.Chemscore.DEInternal>
2.1162

> <Gold.Chemscore.Rot>
1.6949

> <Gold.Chemscore.Internal.Correction>
   9.000000E+99

> <Gold.Chemscore.Hbonds>
donor molecule, donor type, donor heavy atom, donor atom, acceptor molecule, acceptor atom, score
      L1  H     3    25       P1  7948  0.87

> <Gold.Chemscore.Hbond.Weighted>
-3.3352

> <Gold.Chemscore.Metal.Weighted>
-0.0000

> <Gold.Chemscore.Lipo.Weighted>
-12.8626

> <Gold.Chemscore.Internal_Hbond.Weighted>
0.0000

> <Gold.Chemscore.DEClash.Weighted>
0.1229

> <Gold.Chemscore.DEInternal.Weighted>
2.1162

> <Gold.Chemscore.Rot.Weighted>
4.3390

> <Gold.Chemscore.Internal.Correction.Weighted>
   9.000000E+99

> <Gold.Protein.RotatedTorsions>
[ 6907 6896 6895 6894 ] final  -37.31 input  -60.11 | X-H torsion
[ 7974 7965 7964 7962 ] final   26.03 input  175.53 | X-H torsion
[ 8008 7997 7996 7995 ] final  -37.87 input   59.86 | X-H torsion
[ 10167 10162 10161 10158 ] final   -2.21 input  -65.29 | X-H torsion
[ 10718 10713 10712 10709 ] final  -71.73 input   66.30 | X-H torsion
[ 10763 10752 10751 10750 ] final  -67.23 input  -60.55 | X-H torsion
[ 11005 11000 10999 10996 ] final  140.67 input  -57.11 | X-H torsion

> <Gold.Protein.ActiveResidues>
 VAL166  LYS551  ARG553  GLY616  TRP617  ASP618  TYR619  PRO620  LYS621  CYS622 
 ASP623  PHE694  ASN695  SER759  ASP760  ASP761  ALA762  ILE779  LEU786  VAL792 
 PHE793  MET794  SER795  GLU796  ALA797  LYS798  CYS799  TRP800  GLU811  SER814 

> <Gold.Protein.RotatedAtoms>
  151.0163  134.9435  159.8034 H   0  0  0  0  0  0  0  0  0  0  0  0  # atno 6907 bound_to 6896
  152.5314  134.2962  159.9071 H   0  0  0  0  0  0  0  0  0  0  0  0  # atno 6908 bound_to 6896
  151.2969  133.4098  159.2671 H   0  0  0  0  0  0  0  0  0  0  0  0  # atno 6909 bound_to 6896
  146.1858  139.7384  142.8867 H   0  0  0  0  0  0  0  0  0  0  0  0  # atno 7974 bound_to 7965
  154.4046  140.1593  156.2607 H   0  0  0  0  0  0  0  0  0  0  0  0  # atno 8008 bound_to 7997
  155.9039  140.3431  155.6025 H   0  0  0  0  0  0  0  0  0  0  0  0  # atno 8009 bound_to 7997
  155.7415  140.0793  157.2234 H   0  0  0  0  0  0  0  0  0  0  0  0  # atno 8010 bound_to 7997
  140.6842  143.6684  150.8206 H   0  0  0  0  0  0  0  0  0  0  0  0  # atno 10167 bound_to 10162
  156.0350  130.4357  150.2487 H   0  0  0  0  0  0  0  0  0  0  0  0  # atno 10718 bound_to 10713
  154.3715  135.6094  153.5742 H   0  0  0  0  0  0  0  0  0  0  0  0  # atno 10763 bound_to 10752
  152.9790  135.5839  154.4516 H   0  0  0  0  0  0  0  0  0  0  0  0  # atno 10764 bound_to 10752
  154.4271  135.2847  155.1915 H   0  0  0  0  0  0  0  0  0  0  0  0  # atno 10765 bound_to 10752
  140.0344  134.9336  157.0725 H   0  0  0  0  0  0  0  0  0  0  0  0  # atno 11005 bound_to 11000
  145.3941  141.0376  143.3107 LP  0  0  0  0  0  0  0  0  0  0  0  0  # atno 17320 bound_to 7965
  144.8396  139.5494  143.6906 LP  0  0  0  0  0  0  0  0  0  0  0  0  # atno 17321 bound_to 7965
  140.0389  143.5367  152.2727 LP  0  0  0  0  0  0  0  0  0  0  0  0  # atno 17342 bound_to 10162
  139.6186  144.7624  151.2789 LP  0  0  0  0  0  0  0  0  0  0  0  0  # atno 17343 bound_to 10162
  157.0587  131.0083  151.3230 LP  0  0  0  0  0  0  0  0  0  0  0  0  # atno 17370 bound_to 10713
  157.5087  130.7925  149.7681 LP  0  0  0  0  0  0  0  0  0  0  0  0  # atno 17371 bound_to 10713
  140.4171  134.1920  155.7163 LP  0  0  0  0  0  0  0  0  0  0  0  0  # atno 17394 bound_to 11000
  141.1849  133.8334  157.1122 LP  0  0  0  0  0  0  0  0  0  0  0  0  # atno 17395 bound_to 11000

$$$$
