AV-unprocessed.smi:3006|AV-procd|sdf|11445|dock5
  -GOLD-   2272016373D 1   1.00000     0.00000
 Structure written by MMmdl.
 44 45  0  0  0  0  0  0  0  0  1 V2000
  153.7213  142.2142  160.2788 C   0  0  0  0  0  0  0  0  0  0  0  0
  152.6446  142.3133  159.2533 C   0  0  0  0  0  0  0  0  0  0  0  0
  151.8034  141.3150  158.9726 N   0  0  0  0  0  0  0  0  0  0  0  0
  150.8894  141.6472  157.9675 C   0  0  0  0  0  0  0  0  0  0  0  0
  149.8733  140.6421  157.5169 C   0  0  0  0  0  0  0  0  0  0  0  0
  150.3350  139.1975  157.7688 C   0  0  0  0  0  0  0  0  0  0  0  0
  149.2120  138.3244  158.0905 N   0  0  0  0  0  0  0  0  0  0  0  0
  149.2949  137.0003  158.3038 C   0  0  0  0  0  0  0  0  0  0  0  0
  150.3677  136.3958  158.2660 O   0  0  0  0  0  0  0  0  0  0  0  0
  148.1177  136.4040  158.6147 N   0  0  0  0  0  0  0  0  0  0  0  0
  147.8715  134.9645  158.7545 C   0  0  0  0  0  0  0  0  0  0  0  0
  147.6853  134.6363  160.2487 C   0  0  0  0  0  0  0  0  0  0  0  0
  146.5561  135.3853  160.8272 N   0  0  0  0  0  0  0  0  0  0  0  0
  146.3729  135.0658  162.2579 C   0  0  0  0  0  0  0  0  0  0  0  0
  147.6023  135.4803  163.0959 C   0  0  0  0  0  0  0  0  0  0  0  0
  146.1144  133.5602  162.4862 C   0  0  0  0  0  0  0  0  0  0  0  0
  146.7802  136.8258  160.6153 C   0  0  0  0  0  0  0  0  0  0  0  0
  146.9647  137.1476  159.1204 C   0  0  0  0  0  0  0  0  0  0  0  0
  151.0504  142.9245  157.4908 C   0  0  0  0  0  0  0  0  0  0  0  0
  152.3598  143.7549  158.2853 S   0  0  0  0  0  0  0  0  0  0  0  0
  153.3347  141.7552  161.1889 H   0  0  0  0  0  0  0  0  0  0  0  0
  154.1035  143.2053  160.5236 H   0  0  0  0  0  0  0  0  0  0  0  0
  154.5422  141.6058  159.8991 H   0  0  0  0  0  0  0  0  0  0  0  0
  148.9269  140.8165  158.0302 H   0  0  0  0  0  0  0  0  0  0  0  0
  149.6662  140.7798  156.4549 H   0  0  0  0  0  0  0  0  0  0  0  0
  150.8751  138.8124  156.9021 H   0  0  0  0  0  0  0  0  0  0  0  0
  151.0334  139.1698  158.6058 H   0  0  0  0  0  0  0  0  0  0  0  0
  148.3024  138.7574  158.1578 H   0  0  0  0  0  0  0  0  0  0  0  0
  146.9739  134.6946  158.1957 H   0  0  0  0  0  0  0  0  0  0  0  0
  148.6669  134.3412  158.3465 H   0  0  0  0  0  0  0  0  0  0  0  0
  147.5148  133.5640  160.3228 H   0  0  0  0  0  0  0  0  0  0  0  0
  148.6012  134.8564  160.8000 H   0  0  0  0  0  0  0  0  0  0  0  0
  145.5070  135.6162  162.6292 H   0  0  0  0  0  0  0  0  0  0  0  0
  147.5211  135.1112  164.1187 H   0  0  0  0  0  0  0  0  0  0  0  0
  147.7067  136.5616  163.1781 H   0  0  0  0  0  0  0  0  0  0  0  0
  148.5248  135.0777  162.6761 H   0  0  0  0  0  0  0  0  0  0  0  0
  146.1316  133.3169  163.5490 H   0  0  0  0  0  0  0  0  0  0  0  0
  146.8721  132.9459  161.9983 H   0  0  0  0  0  0  0  0  0  0  0  0
  145.1347  133.2474  162.1260 H   0  0  0  0  0  0  0  0  0  0  0  0
  145.9262  137.4036  160.9645 H   0  0  0  0  0  0  0  0  0  0  0  0
  147.6507  137.1575  161.1836 H   0  0  0  0  0  0  0  0  0  0  0  0
  147.0703  138.2248  158.9841 H   0  0  0  0  0  0  0  0  0  0  0  0
  146.0724  136.8654  158.5591 H   0  0  0  0  0  0  0  0  0  0  0  0
  150.4813  143.4245  156.7211 H   0  0  0  0  0  0  0  0  0  0  0  0
  1  2  1  0  0  0  0
  1 21  1  0  0  0  0
  1 22  1  0  0  0  0
  1 23  1  0  0  0  0
  2 20  1  0  0  0  0
  2  3  2  0  0  0  0
  3  4  1  0  0  0  0
  4  5  1  0  0  0  0
  4 19  2  0  0  0  0
  5  6  1  0  0  0  0
  5 24  1  0  0  0  0
  5 25  1  0  0  0  0
  6  7  1  0  0  0  0
  6 26  1  0  0  0  0
  6 27  1  0  0  0  0
  7  8  1  0  0  0  0
  7 28  1  0  0  0  0
  8  9  2  0  0  0  0
  8 10  1  0  0  0  0
 10 18  1  0  0  0  0
 10 11  1  0  0  0  0
 11 12  1  0  0  0  0
 11 29  1  0  0  0  0
 11 30  1  0  0  0  0
 12 13  1  0  0  0  0
 12 31  1  0  0  0  0
 12 32  1  0  0  0  0
 13 14  1  0  0  0  0
 13 17  1  0  0  0  0
 14 15  1  0  0  0  0
 14 16  1  0  0  0  0
 14 33  1  0  0  0  0
 15 34  1  0  0  0  0
 15 35  1  0  0  0  0
 15 36  1  0  0  0  0
 16 37  1  0  0  0  0
 16 38  1  0  0  0  0
 16 39  1  0  0  0  0
 17 18  1  0  0  0  0
 17 40  1  0  0  0  0
 17 41  1  0  0  0  0
 18 42  1  0  0  0  0
 18 43  1  0  0  0  0
 19 20  1  0  0  0  0
 19 44  1  0  0  0  0
M  END
> <s_m_source_file>
AV-unprocessed.smi

> <i_m_source_file_index>
3006

> <i_lp_mmshare_version>
43012

> <i_f3d_flags>
0

> <s_epik_input>
W0NIM11jMW5jKFtjSF1zMSlbQ0gyXVtDSDJdW05IXUMoPU8pTjJbQ0gyXVtDSDJdTihbQ0hdKFtDSDNdKVtDSDNdKVtDSDJdW0NIMl0y

> <s_epik_cmdline>
J2VwaWtfcHl0aG9uJywgJy1waCcsICc3LjAnLCAnLXRuJywgJzgnLCAnLW1hJywgJzIwMCcsICctbWV0YWxfYmluZGluZycsICctaW1hZScsICc8aW5maWxlLm1hZT4nLCAnLW9tYWUnLCAnPG91dGZpbGUubWFlPic=

> <r_epik_Ionization_Penalty>
0.875753

> <r_epik_Ionization_Penalty_Charging>
0

> <r_epik_Ionization_Penalty_Neutral>
0.875753

> <r_epik_State_Penalty>
0.930306

> <r_epik_Charging_Adjusted_Penalty>
0.930306

> <i_epik_Tot_Q>
0

> <i_epik_Tot_abs_Q>
0

> <r_epik_Metal_State_Penalty>
0.928801

> <b_epik_Metal_Only>
0

> <s_lp_Force_Field>
OPLS_2005

> <r_lp_Energy>
38.048

> <b_lp_Chiralities_Consistent>
1

> <s_lp_Variant>
AV-unprocessed.smi:3006-2

> <Gold.Version>
5.8.1

> <Gold.Id.Protein>
6NUR|6NUR_protein|mol2

> <Gold.PLP.Fitness>
41.1116

> <Gold.PLP.PLP>
-37.1237

> <Gold.PLP.part.hbond>
-1.0000

> <Gold.PLP.part.metal>
0.0000

> <Gold.PLP.part.buried>
-5.3533

> <Gold.PLP.part.nonpolar>
-32.0163

> <Gold.PLP.part.repulsive>
0.1161

> <Gold.PLP.ligand.clash>
0.4382

> <Gold.PLP.ligand.torsion>
0.6931

> <Gold.PLP.Chemscore.Hbond>
0.9120

> <Gold.PLP.Chemscore.CHOScore>
1.0000

> <Gold.PLP.Chemscore.Metal>
0.0000

> <Gold.Chemscore.Hbonds>
donor molecule, donor type, donor heavy atom, donor atom, acceptor molecule, acceptor atom, score
      P1  H  6896  6907       L1     9  0.63
      L1  C    19    44       P1  8028  1.00

> <Gold.PLP.Chemscore.Internal.Correction>
0.0762

> <Gold.Rescore>
     Score         DG    S(hbond)    S(metal)    S(lipo)     H(rot)  DE(clash)    DE(int)     intcor
     16.74     -17.24       0.93        0.00     104.41       1.39       0.01       0.49       ----

> <Gold.Chemscore.Fitness>
16.7436

> <Gold.Chemscore.DG>
-17.2434

> <Gold.Chemscore.ZeroCoef>
-5.4800

> <Gold.Chemscore.Hbond>
0.9270

> <Gold.Chemscore.Metal>
0.0000

> <Gold.Chemscore.Lipo>
104.4075

> <Gold.Chemscore.Internal_Hbond>
0.0000

> <Gold.Chemscore.DEClash>
0.0069

> <Gold.Chemscore.DEInternal>
0.4929

> <Gold.Chemscore.Rot>
1.3861

> <Gold.Chemscore.Internal.Correction>
   9.000000E+99

> <Gold.Chemscore.Hbonds>
donor molecule, donor type, donor heavy atom, donor atom, acceptor molecule, acceptor atom, score
      P1  H  6896  6907       L1     9  0.61

> <Gold.Chemscore.Hbond.Weighted>
-3.0961

> <Gold.Chemscore.Metal.Weighted>
-0.0000

> <Gold.Chemscore.Lipo.Weighted>
-12.2157

> <Gold.Chemscore.Internal_Hbond.Weighted>
0.0000

> <Gold.Chemscore.DEClash.Weighted>
0.0069

> <Gold.Chemscore.DEInternal.Weighted>
0.4929

> <Gold.Chemscore.Rot.Weighted>
3.5484

> <Gold.Chemscore.Internal.Correction.Weighted>
   9.000000E+99

> <Gold.Protein.RotatedTorsions>
[ 6907 6896 6895 6894 ] final  -35.48 input  -60.11 | X-H torsion
[ 7974 7965 7964 7962 ] final   76.12 input  175.53 | X-H torsion
[ 8008 7997 7996 7995 ] final   45.23 input   59.86 | X-H torsion
[ 10167 10162 10161 10158 ] final  147.36 input  -65.29 | X-H torsion
[ 10718 10713 10712 10709 ] final -115.63 input   66.30 | X-H torsion
[ 10763 10752 10751 10750 ] final -143.99 input  -60.55 | X-H torsion
[ 11005 11000 10999 10996 ] final  128.07 input  -57.11 | X-H torsion

> <Gold.Protein.ActiveResidues>
 VAL166  LYS551  ARG553  GLY616  TRP617  ASP618  TYR619  PRO620  LYS621  CYS622 
 ASP623  PHE694  ASN695  SER759  ASP760  ASP761  ALA762  ILE779  LEU786  VAL792 
 PHE793  MET794  SER795  GLU796  ALA797  LYS798  CYS799  TRP800  GLU811  SER814 

> <Gold.Protein.RotatedAtoms>
  151.0393  134.9595  159.8152 H   0  0  0  0  0  0  0  0  0  0  0  0  # atno 6907 bound_to 6896
  152.5361  134.2679  159.8970 H   0  0  0  0  0  0  0  0  0  0  0  0  # atno 6908 bound_to 6896
  151.2691  133.4222  159.2654 H   0  0  0  0  0  0  0  0  0  0  0  0  # atno 6909 bound_to 6896
  145.7069  139.2601  143.1673 H   0  0  0  0  0  0  0  0  0  0  0  0  # atno 7974 bound_to 7965
  155.3325  140.3403  155.4239 H   0  0  0  0  0  0  0  0  0  0  0  0  # atno 8008 bound_to 7997
  156.1854  140.1679  156.8231 H   0  0  0  0  0  0  0  0  0  0  0  0  # atno 8009 bound_to 7997
  154.5381  140.0731  156.8445 H   0  0  0  0  0  0  0  0  0  0  0  0  # atno 8010 bound_to 7997
  139.4891  144.5761  151.6962 H   0  0  0  0  0  0  0  0  0  0  0  0  # atno 10167 bound_to 10162
  156.0908  130.6091  150.8930 H   0  0  0  0  0  0  0  0  0  0  0  0  # atno 10718 bound_to 10713
  154.8447  135.3452  154.6275 H   0  0  0  0  0  0  0  0  0  0  0  0  # atno 10763 bound_to 10752
  153.6884  135.6976  153.5101 H   0  0  0  0  0  0  0  0  0  0  0  0  # atno 10764 bound_to 10752
  153.2614  135.4322  155.0853 H   0  0  0  0  0  0  0  0  0  0  0  0  # atno 10765 bound_to 10752
  139.9541  134.9616  156.8947 H   0  0  0  0  0  0  0  0  0  0  0  0  # atno 11005 bound_to 11000
  146.0748  140.7829  142.9670 LP  0  0  0  0  0  0  0  0  0  0  0  0  # atno 17320 bound_to 7965
  144.6953  140.3397  143.7201 LP  0  0  0  0  0  0  0  0  0  0  0  0  # atno 17321 bound_to 7965
  140.5358  144.0658  150.6070 LP  0  0  0  0  0  0  0  0  0  0  0  0  # atno 17342 bound_to 10162
  140.3664  143.2879  152.0327 LP  0  0  0  0  0  0  0  0  0  0  0  0  # atno 17343 bound_to 10162
  157.6057  131.0939  150.8883 LP  0  0  0  0  0  0  0  0  0  0  0  0  # atno 17370 bound_to 10713
  156.9032  130.5254  149.5282 LP  0  0  0  0  0  0  0  0  0  0  0  0  # atno 17371 bound_to 10713
  140.5651  134.0497  155.7411 LP  0  0  0  0  0  0  0  0  0  0  0  0  # atno 17394 bound_to 11000
  141.1209  133.9463  157.2731 LP  0  0  0  0  0  0  0  0  0  0  0  0  # atno 17395 bound_to 11000

$$$$
