AV-unprocessed.smi:2162|AV-procd|sdf|8802|dock5
  -GOLD-   2272011583D 1   1.00000     0.00000
 Structure written by MMmdl.
 41 42  0  0  0  0  0  0  0  0  1 V2000
  146.2798  129.3511  152.3958 C   0  0  0  0  0  0  0  0  0  0  0  0
  147.2769  130.2535  153.0379 C   0  0  0  0  0  0  0  0  0  0  0  0
  147.1947  131.5863  153.0100 N   0  0  0  0  0  0  0  0  0  0  0  0
  148.2506  132.2048  153.6864 C   0  0  0  0  0  0  0  0  0  0  0  0
  148.3152  133.7028  153.7673 C   0  0  0  0  0  0  0  0  0  0  0  0
  149.4556  134.2196  154.6617 C   0  0  0  0  0  0  0  0  0  0  0  0
  149.9271  135.5301  154.2250 N   0  0  0  0  0  0  0  0  0  0  0  0
  150.8748  136.2598  154.8302 C   0  0  0  0  0  0  0  0  0  0  0  0
  151.4664  135.8947  155.8467 O   0  0  0  0  0  0  0  0  0  0  0  0
  151.2029  137.6171  154.1879 C   0  0  2  0  0  0  0  0  0  0  0  0
  152.4282  138.2759  154.8481 C   0  0  0  0  0  0  0  0  0  0  0  0
  151.8450  139.4583  155.6038 C   0  0  0  0  0  0  0  0  0  0  0  0
  152.5162  140.1523  156.3662 O   0  0  0  0  0  0  0  0  0  0  0  0
  150.5398  139.6079  155.3415 N   0  0  0  0  0  0  0  0  0  0  0  0
  149.6564  140.6093  155.9544 C   0  0  0  0  0  0  0  0  0  0  0  0
  148.6589  139.9252  156.9029 C   0  0  0  0  0  0  0  0  0  0  0  0
  148.9436  141.4911  154.9131 C   0  0  0  0  0  0  0  0  0  0  0  0
  150.0611  138.6393  154.3630 C   0  0  0  0  0  0  0  0  0  0  0  0
  149.1419  131.3128  154.2290 C   0  0  0  0  0  0  0  0  0  0  0  0
  148.6837  129.6624  153.9133 S   0  0  0  0  0  0  0  0  0  0  0  0
  145.5099  129.9297  151.8840 H   0  0  0  0  0  0  0  0  0  0  0  0
  145.8032  128.7260  153.1510 H   0  0  0  0  0  0  0  0  0  0  0  0
  146.7745  128.7071  151.6686 H   0  0  0  0  0  0  0  0  0  0  0  0
  148.4383  134.1175  152.7660 H   0  0  0  0  0  0  0  0  0  0  0  0
  147.3664  134.0974  154.1327 H   0  0  0  0  0  0  0  0  0  0  0  0
  149.1194  134.2412  155.6995 H   0  0  0  0  0  0  0  0  0  0  0  0
  150.2991  133.5296  154.6193 H   0  0  0  0  0  0  0  0  0  0  0  0
  149.5000  135.9085  153.3918 H   0  0  0  0  0  0  0  0  0  0  0  0
  151.3957  137.4679  153.1238 H   0  0  0  0  0  0  0  0  0  0  0  0
  152.9701  137.6155  155.5273 H   0  0  0  0  0  0  0  0  0  0  0  0
  153.1318  138.6373  154.0977 H   0  0  0  0  0  0  0  0  0  0  0  0
  150.2758  141.2783  156.5544 H   0  0  0  0  0  0  0  0  0  0  0  0
  148.0208  140.6587  157.3961 H   0  0  0  0  0  0  0  0  0  0  0  0
  149.1748  139.3635  157.6824 H   0  0  0  0  0  0  0  0  0  0  0  0
  148.0135  139.2304  156.3643 H   0  0  0  0  0  0  0  0  0  0  0  0
  148.3679  142.2772  155.4024 H   0  0  0  0  0  0  0  0  0  0  0  0
  148.2499  140.9167  154.2984 H   0  0  0  0  0  0  0  0  0  0  0  0
  149.6601  141.9772  154.2505 H   0  0  0  0  0  0  0  0  0  0  0  0
  149.8584  139.1442  153.4176 H   0  0  0  0  0  0  0  0  0  0  0  0
  149.1302  138.1788  154.6985 H   0  0  0  0  0  0  0  0  0  0  0  0
  150.0353  131.5262  154.7970 H   0  0  0  0  0  0  0  0  0  0  0  0
  1  2  1  0  0  0  0
  1 21  1  0  0  0  0
  1 22  1  0  0  0  0
  1 23  1  0  0  0  0
  2 20  1  0  0  0  0
  2  3  2  0  0  0  0
  3  4  1  0  0  0  0
  4  5  1  0  0  0  0
  4 19  2  0  0  0  0
  5  6  1  0  0  0  0
  5 24  1  0  0  0  0
  5 25  1  0  0  0  0
  6  7  1  0  0  0  0
  6 26  1  0  0  0  0
  6 27  1  0  0  0  0
  7  8  1  0  0  0  0
  7 28  1  0  0  0  0
  8  9  2  0  0  0  0
  8 10  1  0  0  0  0
 10 18  1  0  0  0  0
 10 11  1  0  0  0  0
 10 29  1  0  0  0  0
 11 12  1  0  0  0  0
 11 30  1  0  0  0  0
 11 31  1  0  0  0  0
 12 13  2  0  0  0  0
 12 14  1  0  0  0  0
 14 15  1  0  0  0  0
 14 18  1  0  0  0  0
 15 16  1  0  0  0  0
 15 17  1  0  0  0  0
 15 32  1  0  0  0  0
 16 33  1  0  0  0  0
 16 34  1  0  0  0  0
 16 35  1  0  0  0  0
 17 36  1  0  0  0  0
 17 37  1  0  0  0  0
 17 38  1  0  0  0  0
 18 39  1  0  0  0  0
 18 40  1  0  0  0  0
 19 20  1  0  0  0  0
 19 41  1  0  0  0  0
M  END
> <s_m_source_file>
AV-unprocessed.smi

> <i_m_source_file_index>
2162

> <i_lp_mmshare_version>
43012

> <i_f3d_flags>
0

> <s_epik_input>
W0NIM11jMW5jKFtjSF1zMSlbQ0gyXVtDSDJdW05IXUMoPU8pW0NAQEhdMltDSDJdQyg9TylOKFtDSDJdMilbQ0hdKFtDSDNdKVtDSDNd

> <s_epik_cmdline>
J2VwaWtfcHl0aG9uJywgJy1waCcsICc3LjAnLCAnLXRuJywgJzgnLCAnLW1hJywgJzIwMCcsICctbWV0YWxfYmluZGluZycsICctaW1hZScsICc8aW5maWxlLm1hZT4nLCAnLW9tYWUnLCAnPG91dGZpbGUubWFlPic=

> <r_epik_Ionization_Penalty>
0.000973993

> <r_epik_Ionization_Penalty_Charging>
0

> <r_epik_Ionization_Penalty_Neutral>
0.000973993

> <r_epik_State_Penalty>
0.000633765

> <r_epik_Charging_Adjusted_Penalty>
0.000633765

> <i_epik_Tot_Q>
0

> <i_epik_Tot_abs_Q>
0

> <r_epik_Metal_State_Penalty>
-0

> <b_epik_Metal_Only>
0

> <s_lp_Force_Field>
OPLS_2005

> <r_lp_Energy>
15.0968

> <b_lp_Chiralities_Consistent>
1

> <s_lp_Variant>
AV-unprocessed.smi:2162-1

> <Gold.Version>
5.8.1

> <Gold.Id.Protein>
6NUR|6NUR_protein|mol2

> <Gold.PLP.Fitness>
44.1164

> <Gold.PLP.PLP>
-35.9825

> <Gold.PLP.part.hbond>
-3.9995

> <Gold.PLP.part.metal>
0.0000

> <Gold.PLP.part.buried>
3.4943

> <Gold.PLP.part.nonpolar>
-35.5323

> <Gold.PLP.part.repulsive>
0.2133

> <Gold.PLP.ligand.clash>
0.0000

> <Gold.PLP.ligand.torsion>
0.4709

> <Gold.PLP.Chemscore.Hbond>
3.0000

> <Gold.PLP.Chemscore.CHOScore>
0.0000

> <Gold.PLP.Chemscore.Metal>
0.0000

> <Gold.Chemscore.Hbonds>
donor molecule, donor type, donor heavy atom, donor atom, acceptor molecule, acceptor atom, score
      L1  H     7    28       P1  7948  1.00
      P1  H  7997  8008       L1    13  1.00
      P1  H 10752 10765       L1     9  0.85

> <Gold.PLP.Chemscore.Internal.Correction>
0.0757

> <Gold.Rescore>
     Score         DG    S(hbond)    S(metal)    S(lipo)     H(rot)  DE(clash)    DE(int)     intcor
     17.88     -18.39       2.62        0.00      71.83       1.66       0.06       0.45       ----

> <Gold.Chemscore.Fitness>
17.8825

> <Gold.Chemscore.DG>
-18.3920

> <Gold.Chemscore.ZeroCoef>
-5.4800

> <Gold.Chemscore.Hbond>
2.6208

> <Gold.Chemscore.Metal>
0.0000

> <Gold.Chemscore.Lipo>
71.8299

> <Gold.Chemscore.Internal_Hbond>
0.0000

> <Gold.Chemscore.DEClash>
0.0610

> <Gold.Chemscore.DEInternal>
0.4485

> <Gold.Chemscore.Rot>
1.6585

> <Gold.Chemscore.Internal.Correction>
   9.000000E+99

> <Gold.Chemscore.Hbonds>
donor molecule, donor type, donor heavy atom, donor atom, acceptor molecule, acceptor atom, score
      L1  H     7    28       P1  7948  0.30
      P1  H  7997  8008       L1    13  0.98
      P1  H 10752 10765       L1     9  0.15

> <Gold.Chemscore.Hbond.Weighted>
-8.7536

> <Gold.Chemscore.Metal.Weighted>
-0.0000

> <Gold.Chemscore.Lipo.Weighted>
-8.4041

> <Gold.Chemscore.Internal_Hbond.Weighted>
0.0000

> <Gold.Chemscore.DEClash.Weighted>
0.0610

> <Gold.Chemscore.DEInternal.Weighted>
0.4485

> <Gold.Chemscore.Rot.Weighted>
4.2457

> <Gold.Chemscore.Internal.Correction.Weighted>
   9.000000E+99

> <Gold.Protein.RotatedTorsions>
[ 6907 6896 6895 6894 ] final   52.53 input  -60.11 | X-H torsion
[ 7974 7965 7964 7962 ] final  -90.25 input  175.53 | X-H torsion
[ 8008 7997 7996 7995 ] final  -40.58 input   59.86 | X-H torsion
[ 10167 10162 10161 10158 ] final  150.18 input  -65.29 | X-H torsion
[ 10718 10713 10712 10709 ] final  -57.21 input   66.30 | X-H torsion
[ 10763 10752 10751 10750 ] final -152.18 input  -60.55 | X-H torsion
[ 11005 11000 10999 10996 ] final  171.05 input  -57.11 | X-H torsion

> <Gold.Protein.ActiveResidues>
 VAL166  LYS551  ARG553  GLY616  TRP617  ASP618  TYR619  PRO620  LYS621  CYS622 
 ASP623  PHE694  ASN695  SER759  ASP760  ASP761  ALA762  ILE779  LEU786  VAL792 
 PHE793  MET794  SER795  GLU796  ALA797  LYS798  CYS799  TRP800  GLU811  SER814 

> <Gold.Protein.RotatedAtoms>
  152.3242  134.7342  160.0305 H   0  0  0  0  0  0  0  0  0  0  0  0  # atno 6907 bound_to 6896
  151.7780  133.3342  159.3471 H   0  0  0  0  0  0  0  0  0  0  0  0  # atno 6908 bound_to 6896
  150.7386  134.5888  159.6021 H   0  0  0  0  0  0  0  0  0  0  0  0  # atno 6909 bound_to 6896
  145.4289  140.9555  143.2139 H   0  0  0  0  0  0  0  0  0  0  0  0  # atno 7974 bound_to 7965
  154.4011  140.1521  156.3051 H   0  0  0  0  0  0  0  0  0  0  0  0  # atno 8008 bound_to 7997
  155.8666  140.3451  155.5770 H   0  0  0  0  0  0  0  0  0  0  0  0  # atno 8009 bound_to 7997
  155.7821  140.0845  157.2044 H   0  0  0  0  0  0  0  0  0  0  0  0  # atno 8010 bound_to 7997
  139.4853  144.5542  151.7346 H   0  0  0  0  0  0  0  0  0  0  0  0  # atno 10167 bound_to 10162
  156.1228  130.4165  150.0410 H   0  0  0  0  0  0  0  0  0  0  0  0  # atno 10718 bound_to 10713
  154.8011  135.3242  154.7548 H   0  0  0  0  0  0  0  0  0  0  0  0  # atno 10763 bound_to 10752
  153.8216  135.6887  153.4831 H   0  0  0  0  0  0  0  0  0  0  0  0  # atno 10764 bound_to 10752
  153.1728  135.4616  154.9868 H   0  0  0  0  0  0  0  0  0  0  0  0  # atno 10765 bound_to 10752
  140.3148  134.7486  157.4019 H   0  0  0  0  0  0  0  0  0  0  0  0  # atno 11005 bound_to 11000
  144.8196  139.5816  143.6993 LP  0  0  0  0  0  0  0  0  0  0  0  0  # atno 17320 bound_to 7965
  146.2617  139.6426  142.9357 LP  0  0  0  0  0  0  0  0  0  0  0  0  # atno 17321 bound_to 7965
  140.5101  144.1038  150.5993 LP  0  0  0  0  0  0  0  0  0  0  0  0  # atno 17342 bound_to 10162
  140.3960  143.2728  152.0004 LP  0  0  0  0  0  0  0  0  0  0  0  0  # atno 17343 bound_to 10162
  156.8344  130.9403  151.3635 LP  0  0  0  0  0  0  0  0  0  0  0  0  # atno 17370 bound_to 10713
  157.6411  130.8806  149.9450 LP  0  0  0  0  0  0  0  0  0  0  0  0  # atno 17371 bound_to 10713
  140.0993  134.5495  155.8368 LP  0  0  0  0  0  0  0  0  0  0  0  0  # atno 17394 bound_to 11000
  141.2100  133.6690  156.6478 LP  0  0  0  0  0  0  0  0  0  0  0  0  # atno 17395 bound_to 11000

$$$$
