AV-unprocessed.smi:2124|AV-procd|sdf|8654|dock4
  -GOLD-   2272011403D 1   1.00000     0.00000
 Structure written by MMmdl.
 47 49  0  0  0  0  0  0  0  0  1 V2000
  146.5356  138.1347  151.9370 C   0  0  0  0  0  0  0  0  0  0  0  0
  146.6406  138.8899  153.2448 C   0  0  0  0  0  0  0  0  0  0  0  0
  145.8972  138.6535  154.2753 N   0  0  0  0  0  0  0  0  0  0  0  0
  146.0905  139.4166  155.4353 C   0  0  0  0  0  0  0  0  0  0  0  0
  145.1838  139.0726  156.6043 C   0  0  0  0  0  0  0  0  0  0  0  0
  147.0346  140.4012  155.4945 C   0  0  0  0  0  0  0  0  0  0  0  0
  147.2814  141.2488  156.7412 C   0  0  0  0  0  0  0  0  0  0  0  0
  148.6847  141.1564  157.3469 C   0  0  0  0  0  0  0  0  0  0  0  0
  148.9182  140.3777  158.2715 O   0  0  0  0  0  0  0  0  0  0  0  0
  149.6131  141.9595  156.8056 N   0  0  0  0  0  0  0  0  0  0  0  0
  151.0215  142.0173  157.1935 C   0  0  2  0  0  0  0  0  0  0  0  0
  151.6001  140.5910  157.1794 C   0  0  0  0  0  0  0  0  0  0  0  0
  151.1455  142.7063  158.5751 C   0  0  2  0  0  0  0  0  0  0  0  0
  150.6451  144.1736  158.5845 C   0  0  0  0  0  0  0  0  0  0  0  0
  151.8354  144.9525  159.1702 C   0  0  1  0  0  0  0  0  0  0  0  0
  152.0005  144.6014  160.6597 C   0  0  0  0  0  0  0  0  0  0  0  0
  152.5548  143.1656  160.6081 C   0  0  0  0  0  0  0  0  0  0  0  0
  152.5961  142.8701  159.0960 C   0  0  2  0  0  0  0  0  0  0  0  0
  153.0140  144.2264  158.5367 C   0  0  0  0  0  0  0  0  0  0  0  0
  147.8779  140.6625  154.3124 C   0  0  0  0  0  0  0  0  0  0  0  0
  148.7611  141.5172  154.2625 O   0  0  0  0  0  0  0  0  0  0  0  0
  147.6250  139.8769  153.2417 N   0  0  0  0  0  0  0  0  0  0  0  0
  148.1780  140.0144  152.4084 H   0  0  0  0  0  0  0  0  0  0  0  0
  146.6961  137.0696  152.1058 H   0  0  0  0  0  0  0  0  0  0  0  0
  147.2735  138.4797  151.2113 H   0  0  0  0  0  0  0  0  0  0  0  0
  145.5435  138.2682  151.5054 H   0  0  0  0  0  0  0  0  0  0  0  0
  144.4881  139.8891  156.7978 H   0  0  0  0  0  0  0  0  0  0  0  0
  145.7669  138.8916  157.5074 H   0  0  0  0  0  0  0  0  0  0  0  0
  144.5996  138.1743  156.4012 H   0  0  0  0  0  0  0  0  0  0  0  0
  147.0510  142.2931  156.5238 H   0  0  0  0  0  0  0  0  0  0  0  0
  146.5712  140.9650  157.5173 H   0  0  0  0  0  0  0  0  0  0  0  0
  149.3276  142.5651  156.0498 H   0  0  0  0  0  0  0  0  0  0  0  0
  151.5677  142.6152  156.4619 H   0  0  0  0  0  0  0  0  0  0  0  0
  152.6711  140.5849  157.3779 H   0  0  0  0  0  0  0  0  0  0  0  0
  151.4566  140.1195  156.2066 H   0  0  0  0  0  0  0  0  0  0  0  0
  151.1185  139.9597  157.9267 H   0  0  0  0  0  0  0  0  0  0  0  0
  150.5667  142.1222  159.2928 H   0  0  0  0  0  0  0  0  0  0  0  0
  150.4345  144.5327  157.5758 H   0  0  0  0  0  0  0  0  0  0  0  0
  149.7356  144.2982  159.1732 H   0  0  0  0  0  0  0  0  0  0  0  0
  151.7946  146.0244  158.9743 H   0  0  0  0  0  0  0  0  0  0  0  0
  152.7139  145.2709  161.1417 H   0  0  0  0  0  0  0  0  0  0  0  0
  151.0583  144.6653  161.2056 H   0  0  0  0  0  0  0  0  0  0  0  0
  153.5575  143.1283  161.0358 H   0  0  0  0  0  0  0  0  0  0  0  0
  151.9334  142.4571  161.1569 H   0  0  0  0  0  0  0  0  0  0  0  0
  153.2682  142.0500  158.8470 H   0  0  0  0  0  0  0  0  0  0  0  0
  153.0149  144.2690  157.4464 H   0  0  0  0  0  0  0  0  0  0  0  0
  153.9823  144.5677  158.9073 H   0  0  0  0  0  0  0  0  0  0  0  0
  1  2  1  0  0  0  0
  1 24  1  0  0  0  0
  1 25  1  0  0  0  0
  1 26  1  0  0  0  0
  2 22  1  0  0  0  0
  2  3  2  0  0  0  0
  3  4  1  0  0  0  0
  4  5  1  0  0  0  0
  4  6  2  0  0  0  0
  5 27  1  0  0  0  0
  5 28  1  0  0  0  0
  5 29  1  0  0  0  0
  6  7  1  0  0  0  0
  6 20  1  0  0  0  0
  7  8  1  0  0  0  0
  7 30  1  0  0  0  0
  7 31  1  0  0  0  0
  8  9  2  0  0  0  0
  8 10  1  0  0  0  0
 10 11  1  0  0  0  0
 10 32  1  0  0  0  0
 11 12  1  0  0  0  0
 11 13  1  0  0  0  0
 11 33  1  0  0  0  0
 12 34  1  0  0  0  0
 12 35  1  0  0  0  0
 12 36  1  0  0  0  0
 13 18  1  0  0  0  0
 13 14  1  0  0  0  0
 13 37  1  0  0  0  0
 14 15  1  0  0  0  0
 14 38  1  0  0  0  0
 14 39  1  0  0  0  0
 15 19  1  0  0  0  0
 15 16  1  0  0  0  0
 15 40  1  0  0  0  0
 16 17  1  0  0  0  0
 16 41  1  0  0  0  0
 16 42  1  0  0  0  0
 17 18  1  0  0  0  0
 17 43  1  0  0  0  0
 17 44  1  0  0  0  0
 18 19  1  0  0  0  0
 18 45  1  0  0  0  0
 19 46  1  0  0  0  0
 19 47  1  0  0  0  0
 20 21  2  0  0  0  0
 20 22  1  0  0  0  0
 22 23  1  0  0  0  0
M  END
> <s_m_source_file>
AV-unprocessed.smi

> <i_m_source_file_index>
2124

> <i_lp_mmshare_version>
43012

> <i_f3d_flags>
0

> <s_epik_input>
W0NIM11jMW5jKFtDSDNdKWMoYyg9TylbbkhdMSlbQ0gyXUMoPU8pW05IXVtDQEhdKFtDSDNdKVtDQEhdKFtDSDJdW0NASF0yMylbQ0BIXShbQ0gyXTMpW0NIMl1bQ0gyXTI=

> <s_epik_cmdline>
J2VwaWtfcHl0aG9uJywgJy1waCcsICc3LjAnLCAnLXRuJywgJzgnLCAnLW1hJywgJzIwMCcsICctbWV0YWxfYmluZGluZycsICctaW1hZScsICc8aW5maWxlLm1hZT4nLCAnLW9tYWUnLCAnPG91dGZpbGUubWFlPic=

> <r_lp_tautomer_probability>
0.839158

> <r_epik_Ionization_Penalty>
0.000383628

> <r_epik_Ionization_Penalty_Charging>
0.00035045

> <r_epik_Ionization_Penalty_Neutral>
3.31781e-05

> <r_epik_State_Penalty>
0.09125

> <r_epik_Charging_Adjusted_Penalty>
0.0916005

> <i_epik_Tot_Q>
0

> <i_epik_Tot_abs_Q>
0

> <r_epik_Metal_State_Penalty>
0.255229

> <b_epik_Metal_Only>
0

> <s_lp_Force_Field>
OPLS_2005

> <r_lp_Energy>
52.554

> <b_lp_Chiralities_Consistent>
1

> <s_lp_Variant>
AV-unprocessed.smi:2124-5

> <Gold.Version>
5.8.1

> <Gold.Id.Protein>
6NUR|6NUR_protein|mol2

> <Gold.PLP.Fitness>
51.4424

> <Gold.PLP.PLP>
-45.4851

> <Gold.PLP.part.hbond>
-3.0114

> <Gold.PLP.part.metal>
0.0000

> <Gold.PLP.part.buried>
-6.2672

> <Gold.PLP.part.nonpolar>
-37.8756

> <Gold.PLP.part.repulsive>
0.9587

> <Gold.PLP.ligand.clash>
0.0000

> <Gold.PLP.ligand.torsion>
0.4566

> <Gold.PLP.Chemscore.Hbond>
2.2800

> <Gold.PLP.Chemscore.CHOScore>
0.0000

> <Gold.PLP.Chemscore.Metal>
0.0000

> <Gold.Chemscore.Hbonds>
donor molecule, donor type, donor heavy atom, donor atom, acceptor molecule, acceptor atom, score
      L1  H    10    32       P1  8028  0.39
      L1  H    22    23       P1  7957  1.00
      P1  H  8011  8017       L1    21  0.10

> <Gold.PLP.Chemscore.Internal.Correction>
0.0306

> <Gold.Rescore>
     Score         DG    S(hbond)    S(metal)    S(lipo)     H(rot)  DE(clash)    DE(int)     intcor
     15.26     -16.55       0.98        0.00     102.80       1.65       0.00       1.29       ----

> <Gold.Chemscore.Fitness>
15.2630

> <Gold.Chemscore.DG>
-16.5501

> <Gold.Chemscore.ZeroCoef>
-5.4800

> <Gold.Chemscore.Hbond>
0.9805

> <Gold.Chemscore.Metal>
0.0000

> <Gold.Chemscore.Lipo>
102.8007

> <Gold.Chemscore.Internal_Hbond>
0.0000

> <Gold.Chemscore.DEClash>
0.0009

> <Gold.Chemscore.DEInternal>
1.2862

> <Gold.Chemscore.Rot>
1.6534

> <Gold.Chemscore.Internal.Correction>
   9.000000E+99

> <Gold.Chemscore.Hbonds>
donor molecule, donor type, donor heavy atom, donor atom, acceptor molecule, acceptor atom, score
      L1  H    10    32       P1  8028  0.40
      L1  H    22    23       P1  7957  1.00
      P1  H  8011  8017       L1    21  0.12

> <Gold.Chemscore.Hbond.Weighted>
-3.2750

> <Gold.Chemscore.Metal.Weighted>
-0.0000

> <Gold.Chemscore.Lipo.Weighted>
-12.0277

> <Gold.Chemscore.Internal_Hbond.Weighted>
0.0000

> <Gold.Chemscore.DEClash.Weighted>
0.0009

> <Gold.Chemscore.DEInternal.Weighted>
1.2862

> <Gold.Chemscore.Rot.Weighted>
4.2326

> <Gold.Chemscore.Internal.Correction.Weighted>
   9.000000E+99

> <Gold.Protein.RotatedTorsions>
[ 6907 6896 6895 6894 ] final   57.40 input  -60.11 | X-H torsion
[ 7974 7965 7964 7962 ] final   70.83 input  175.53 | X-H torsion
[ 8008 7997 7996 7995 ] final   -1.85 input   59.86 | X-H torsion
[ 10167 10162 10161 10158 ] final   -0.31 input  -65.29 | X-H torsion
[ 10718 10713 10712 10709 ] final  -30.70 input   66.30 | X-H torsion
[ 10763 10752 10751 10750 ] final   96.98 input  -60.55 | X-H torsion
[ 11005 11000 10999 10996 ] final -140.06 input  -57.11 | X-H torsion

> <Gold.Protein.ActiveResidues>
 VAL166  LYS551  ARG553  GLY616  TRP617  ASP618  TYR619  PRO620  LYS621  CYS622 
 ASP623  PHE694  ASN695  SER759  ASP760  ASP761  ALA762  ILE779  LEU786  VAL792 
 PHE793  MET794  SER795  GLU796  ALA797  LYS798  CYS799  TRP800  GLU811  SER814 

> <Gold.Protein.RotatedAtoms>
  152.3728  134.6708  160.0169 H   0  0  0  0  0  0  0  0  0  0  0  0  # atno 6907 bound_to 6896
  151.6996  133.3305  159.3271 H   0  0  0  0  0  0  0  0  0  0  0  0  # atno 6908 bound_to 6896
  150.7686  134.6563  159.6360 H   0  0  0  0  0  0  0  0  0  0  0  0  # atno 6909 bound_to 6896
  145.7733  139.2853  143.1308 H   0  0  0  0  0  0  0  0  0  0  0  0  # atno 7974 bound_to 7965
  154.6422  140.2549  155.7309 H   0  0  0  0  0  0  0  0  0  0  0  0  # atno 8008 bound_to 7997
  156.2534  140.2885  156.0741 H   0  0  0  0  0  0  0  0  0  0  0  0  # atno 8009 bound_to 7997
  155.1579  140.0383  157.2826 H   0  0  0  0  0  0  0  0  0  0  0  0  # atno 8010 bound_to 7997
  140.6762  143.6909  150.8028 H   0  0  0  0  0  0  0  0  0  0  0  0  # atno 10167 bound_to 10162
  156.3965  130.4382  149.7355 H   0  0  0  0  0  0  0  0  0  0  0  0  # atno 10718 bound_to 10713
  153.2715  135.4199  155.0992 H   0  0  0  0  0  0  0  0  0  0  0  0  # atno 10763 bound_to 10752
  154.8457  135.3473  154.6238 H   0  0  0  0  0  0  0  0  0  0  0  0  # atno 10764 bound_to 10752
  153.6658  135.7046  153.5220 H   0  0  0  0  0  0  0  0  0  0  0  0  # atno 10765 bound_to 10752
  140.8459  134.2345  157.4786 H   0  0  0  0  0  0  0  0  0  0  0  0  # atno 11005 bound_to 11000
  146.0148  140.8403  142.9953 LP  0  0  0  0  0  0  0  0  0  0  0  0  # atno 17320 bound_to 7965
  144.6809  140.2542  143.7327 LP  0  0  0  0  0  0  0  0  0  0  0  0  # atno 17321 bound_to 7965
  140.0603  143.5162  152.2631 LP  0  0  0  0  0  0  0  0  0  0  0  0  # atno 17342 bound_to 10162
  139.6056  144.7595  151.3071 LP  0  0  0  0  0  0  0  0  0  0  0  0  # atno 17343 bound_to 10162
  156.4387  130.7851  151.2871 LP  0  0  0  0  0  0  0  0  0  0  0  0  # atno 17370 bound_to 10713
  157.7502  131.0131  150.3412 LP  0  0  0  0  0  0  0  0  0  0  0  0  # atno 17371 bound_to 10713
  139.8703  134.9659  156.4543 LP  0  0  0  0  0  0  0  0  0  0  0  0  # atno 17394 bound_to 11000
  140.8844  133.7894  155.9502 LP  0  0  0  0  0  0  0  0  0  0  0  0  # atno 17395 bound_to 11000

$$$$
