AV-unprocessed.smi:1966|AV-procd|sdf|7951|dock3
  -GOLD-   2272010123D 1   1.00000     0.00000
 Structure written by MMmdl.
 53 54  0  0  0  0  0  0  0  0  1 V2000
  145.8696  134.8277  153.3317 C   0  0  0  0  0  0  0  0  0  0  0  0
  147.0651  134.3536  154.1506 C   0  0  0  0  0  0  0  0  0  0  0  0
  146.9025  133.9256  155.2929 O   0  0  0  0  0  0  0  0  0  0  0  0
  148.2639  134.4372  153.5522 N   0  0  0  0  0  0  0  0  0  0  0  0
  149.5407  134.0292  154.1438 C   0  0  1  0  0  0  0  0  0  0  0  0
  149.9801  135.0940  155.1692 C   0  0  0  0  0  0  0  0  0  0  0  0
  150.2102  134.7657  156.3336 O   0  0  0  0  0  0  0  0  0  0  0  0
  150.0857  136.3479  154.6909 N   0  0  0  0  0  0  0  0  0  0  0  0
  150.4718  137.5396  155.3632 C   0  0  0  0  0  0  0  0  0  0  0  0
  150.6446  138.7987  154.7420 C   0  0  0  0  0  0  0  0  0  0  0  0
  151.0166  139.9041  155.5315 C   0  0  0  0  0  0  0  0  0  0  0  0
  151.1989  139.7327  156.9240 C   0  0  0  0  0  0  0  0  0  0  0  0
  151.5734  140.8283  157.7324 N   0  0  0  0  0  0  0  0  0  0  0  0
  152.4705  140.5792  158.8575 C   0  0  0  0  0  0  0  0  0  0  0  0
  153.0426  141.9042  159.3912 C   0  0  2  0  0  0  0  0  0  0  0  0
  153.8834  141.6953  160.6551 C   0  0  0  0  0  0  0  0  0  0  0  0
  151.9733  142.7926  159.7135 O   0  0  0  0  0  0  0  0  0  0  0  0
  151.0892  143.0840  158.6287 C   0  0  1  0  0  0  0  0  0  0  0  0
  151.7442  143.9898  157.5707 C   0  0  0  0  0  0  0  0  0  0  0  0
  150.5106  141.7796  158.0454 C   0  0  0  0  0  0  0  0  0  0  0  0
  151.0262  138.5259  157.5163 N   0  0  0  0  0  0  0  0  0  0  0  0
  150.6701  137.4695  156.7563 C   0  0  0  0  0  0  0  0  0  0  0  0
  149.3517  132.6540  154.8505 C   0  0  0  0  0  0  0  0  0  0  0  0
  150.6442  132.1301  155.5105 C   0  0  0  0  0  0  0  0  0  0  0  0
  148.8112  131.5807  153.8849 C   0  0  0  0  0  0  0  0  0  0  0  0
  145.8098  134.2793  152.3910 H   0  0  0  0  0  0  0  0  0  0  0  0
  145.9599  135.8907  153.1075 H   0  0  0  0  0  0  0  0  0  0  0  0
  144.9386  134.6707  153.8774 H   0  0  0  0  0  0  0  0  0  0  0  0
  148.2969  134.7953  152.6089 H   0  0  0  0  0  0  0  0  0  0  0  0
  150.2937  133.9324  153.3585 H   0  0  0  0  0  0  0  0  0  0  0  0
  149.8092  136.4705  153.7275 H   0  0  0  0  0  0  0  0  0  0  0  0
  150.4939  138.9478  153.6849 H   0  0  0  0  0  0  0  0  0  0  0  0
  151.1683  140.8628  155.0586 H   0  0  0  0  0  0  0  0  0  0  0  0
  151.9214  140.0602  159.6446 H   0  0  0  0  0  0  0  0  0  0  0  0
  153.2919  139.9306  158.5500 H   0  0  0  0  0  0  0  0  0  0  0  0
  153.6815  142.3582  158.6334 H   0  0  0  0  0  0  0  0  0  0  0  0
  154.7224  141.0264  160.4623 H   0  0  0  0  0  0  0  0  0  0  0  0
  153.2873  141.2618  161.4587 H   0  0  0  0  0  0  0  0  0  0  0  0
  154.2885  142.6417  161.0141 H   0  0  0  0  0  0  0  0  0  0  0  0
  150.2614  143.6499  159.0569 H   0  0  0  0  0  0  0  0  0  0  0  0
  151.0132  144.3011  156.8241 H   0  0  0  0  0  0  0  0  0  0  0  0
  152.5529  143.4886  157.0393 H   0  0  0  0  0  0  0  0  0  0  0  0
  152.1514  144.8912  158.0288 H   0  0  0  0  0  0  0  0  0  0  0  0
  149.8985  142.0136  157.1756 H   0  0  0  0  0  0  0  0  0  0  0  0
  149.8467  141.3167  158.7766 H   0  0  0  0  0  0  0  0  0  0  0  0
  150.5422  136.5344  157.2817 H   0  0  0  0  0  0  0  0  0  0  0  0
  148.6101  132.7715  155.6429 H   0  0  0  0  0  0  0  0  0  0  0  0
  151.4503  132.0401  154.7816 H   0  0  0  0  0  0  0  0  0  0  0  0
  150.4875  131.1456  155.9521 H   0  0  0  0  0  0  0  0  0  0  0  0
  150.9905  132.7811  156.3132 H   0  0  0  0  0  0  0  0  0  0  0  0
  149.4861  131.4345  153.0409 H   0  0  0  0  0  0  0  0  0  0  0  0
  147.8316  131.8445  153.4862 H   0  0  0  0  0  0  0  0  0  0  0  0
  148.6987  130.6203  154.3886 H   0  0  0  0  0  0  0  0  0  0  0  0
  1  2  1  0  0  0  0
  1 26  1  0  0  0  0
  1 27  1  0  0  0  0
  1 28  1  0  0  0  0
  2  3  2  0  0  0  0
  2  4  1  0  0  0  0
  4  5  1  0  0  0  0
  4 29  1  0  0  0  0
  5  6  1  0  0  0  0
  5 23  1  0  0  0  0
  5 30  1  0  0  0  0
  6  7  2  0  0  0  0
  6  8  1  0  0  0  0
  8  9  1  0  0  0  0
  8 31  1  0  0  0  0
  9 22  1  0  0  0  0
  9 10  2  0  0  0  0
 10 11  1  0  0  0  0
 10 32  1  0  0  0  0
 11 12  2  0  0  0  0
 11 33  1  0  0  0  0
 12 13  1  0  0  0  0
 12 21  1  0  0  0  0
 13 20  1  0  0  0  0
 13 14  1  0  0  0  0
 14 15  1  0  0  0  0
 14 34  1  0  0  0  0
 14 35  1  0  0  0  0
 15 16  1  0  0  0  0
 15 17  1  0  0  0  0
 15 36  1  0  0  0  0
 16 37  1  0  0  0  0
 16 38  1  0  0  0  0
 16 39  1  0  0  0  0
 17 18  1  0  0  0  0
 18 19  1  0  0  0  0
 18 20  1  0  0  0  0
 18 40  1  0  0  0  0
 19 41  1  0  0  0  0
 19 42  1  0  0  0  0
 19 43  1  0  0  0  0
 20 44  1  0  0  0  0
 20 45  1  0  0  0  0
 21 22  2  0  0  0  0
 22 46  1  0  0  0  0
 23 24  1  0  0  0  0
 23 25  1  0  0  0  0
 23 47  1  0  0  0  0
 24 48  1  0  0  0  0
 24 49  1  0  0  0  0
 24 50  1  0  0  0  0
 25 51  1  0  0  0  0
 25 52  1  0  0  0  0
 25 53  1  0  0  0  0
M  END
> <s_m_source_file>
AV-unprocessed.smi

> <i_m_source_file_index>
1966

> <i_lp_mmshare_version>
43012

> <i_f3d_flags>
0

> <s_epik_input>
W0NIM11DKD1PKVtOSF1bQ0BASF0oW0NIXShbQ0gzXSlbQ0gzXSlDKD1PKVtOSF1jMVtjSF1bY0hdYyhuW2NIXTEpTjJbQ0gyXVtDQEBIXShbQ0gzXSlPW0NAQEhdKFtDSDNdKVtDSDJdMg==

> <s_epik_cmdline>
J2VwaWtfcHl0aG9uJywgJy1waCcsICc3LjAnLCAnLXRuJywgJzgnLCAnLW1hJywgJzIwMCcsICctbWV0YWxfYmluZGluZycsICctaW1hZScsICc8aW5maWxlLm1hZT4nLCAnLW9tYWUnLCAnPG91dGZpbGUubWFlPic=

> <r_lp_tautomer_probability>
1

> <r_epik_Ionization_Penalty>
0.000679699

> <r_epik_Ionization_Penalty_Charging>
0

> <r_epik_Ionization_Penalty_Neutral>
0.000679699

> <r_epik_State_Penalty>
0.000430485

> <r_epik_Charging_Adjusted_Penalty>
0.000430485

> <i_epik_Tot_Q>
0

> <i_epik_Tot_abs_Q>
0

> <r_epik_Metal_State_Penalty>
-0

> <b_epik_Metal_Only>
0

> <s_lp_Force_Field>
OPLS_2005

> <r_lp_Energy>
28.9115

> <b_lp_Chiralities_Consistent>
1

> <s_lp_Variant>
AV-unprocessed.smi:1966-4

> <Gold.Version>
5.8.1

> <Gold.Id.Protein>
6NUR|6NUR_protein|mol2

> <Gold.PLP.Fitness>
44.0089

> <Gold.PLP.PLP>
-40.0902

> <Gold.PLP.part.hbond>
-1.8809

> <Gold.PLP.part.metal>
0.0000

> <Gold.PLP.part.buried>
-4.5480

> <Gold.PLP.part.nonpolar>
-33.7358

> <Gold.PLP.part.repulsive>
0.0923

> <Gold.PLP.ligand.clash>
0.0000

> <Gold.PLP.ligand.torsion>
0.8188

> <Gold.PLP.Chemscore.Hbond>
1.7200

> <Gold.PLP.Chemscore.CHOScore>
0.0000

> <Gold.PLP.Chemscore.Metal>
0.0000

> <Gold.Chemscore.Hbonds>
donor molecule, donor type, donor heavy atom, donor atom, acceptor molecule, acceptor atom, score
      L1  H     4    29       P1  7948  0.72
      L1  H     8    31       P1  7948  1.00

> <Gold.PLP.Chemscore.Internal.Correction>
0.3963

> <Gold.Rescore>
     Score         DG    S(hbond)    S(metal)    S(lipo)     H(rot)  DE(clash)    DE(int)     intcor
     11.28     -16.41       0.91        0.00     104.17       1.68       0.15       4.98       ----

> <Gold.Chemscore.Fitness>
11.2830

> <Gold.Chemscore.DG>
-16.4090

> <Gold.Chemscore.ZeroCoef>
-5.4800

> <Gold.Chemscore.Hbond>
0.9074

> <Gold.Chemscore.Metal>
0.0000

> <Gold.Chemscore.Lipo>
104.1750

> <Gold.Chemscore.Internal_Hbond>
0.0000

> <Gold.Chemscore.DEClash>
0.1505

> <Gold.Chemscore.DEInternal>
4.9755

> <Gold.Chemscore.Rot>
1.6759

> <Gold.Chemscore.Internal.Correction>
   9.000000E+99

> <Gold.Chemscore.Hbonds>
donor molecule, donor type, donor heavy atom, donor atom, acceptor molecule, acceptor atom, score
      L1  H     4    29       P1  7948  0.32
      L1  H     8    31       P1  7948  0.37

> <Gold.Chemscore.Hbond.Weighted>
-3.0307

> <Gold.Chemscore.Metal.Weighted>
-0.0000

> <Gold.Chemscore.Lipo.Weighted>
-12.1885

> <Gold.Chemscore.Internal_Hbond.Weighted>
0.0000

> <Gold.Chemscore.DEClash.Weighted>
0.1505

> <Gold.Chemscore.DEInternal.Weighted>
4.9755

> <Gold.Chemscore.Rot.Weighted>
4.2902

> <Gold.Chemscore.Internal.Correction.Weighted>
   9.000000E+99

> <Gold.Protein.RotatedTorsions>
[ 6907 6896 6895 6894 ] final  108.46 input  -60.11 | X-H torsion
[ 7974 7965 7964 7962 ] final  101.19 input  175.53 | X-H torsion
[ 8008 7997 7996 7995 ] final   -9.03 input   59.86 | X-H torsion
[ 10167 10162 10161 10158 ] final  140.08 input  -65.29 | X-H torsion
[ 10718 10713 10712 10709 ] final  130.66 input   66.30 | X-H torsion
[ 10763 10752 10751 10750 ] final  119.14 input  -60.55 | X-H torsion
[ 11005 11000 10999 10996 ] final  -16.66 input  -57.11 | X-H torsion

> <Gold.Protein.ActiveResidues>
 VAL166  LYS551  ARG553  GLY616  TRP617  ASP618  TYR619  PRO620  LYS621  CYS622 
 ASP623  PHE694  ASN695  SER759  ASP760  ASP761  ALA762  ILE779  LEU786  VAL792 
 PHE793  MET794  SER795  GLU796  ALA797  LYS798  CYS799  TRP800  GLU811  SER814 

> <Gold.Protein.RotatedAtoms>
  152.5111  133.9086  159.7476 H   0  0  0  0  0  0  0  0  0  0  0  0  # atno 6907 bound_to 6896
  150.9485  133.6568  159.2783 H   0  0  0  0  0  0  0  0  0  0  0  0  # atno 6908 bound_to 6896
  151.3854  135.0952  159.9562 H   0  0  0  0  0  0  0  0  0  0  0  0  # atno 6909 bound_to 6896
  145.3757  139.2389  143.3431 H   0  0  0  0  0  0  0  0  0  0  0  0  # atno 7974 bound_to 7965
  154.5685  140.2365  155.8228 H   0  0  0  0  0  0  0  0  0  0  0  0  # atno 8008 bound_to 7997
  156.2087  140.3032  155.9643 H   0  0  0  0  0  0  0  0  0  0  0  0  # atno 8009 bound_to 7997
  155.2757  140.0420  157.3001 H   0  0  0  0  0  0  0  0  0  0  0  0  # atno 8010 bound_to 7997
  139.5059  144.6256  151.5945 H   0  0  0  0  0  0  0  0  0  0  0  0  # atno 10167 bound_to 10162
  157.5040  131.1095  150.9386 H   0  0  0  0  0  0  0  0  0  0  0  0  # atno 10718 bound_to 10713
  153.5784  135.3488  155.2865 H   0  0  0  0  0  0  0  0  0  0  0  0  # atno 10763 bound_to 10752
  154.8671  135.4176  154.2647 H   0  0  0  0  0  0  0  0  0  0  0  0  # atno 10764 bound_to 10752
  153.3428  135.7051  153.6923 H   0  0  0  0  0  0  0  0  0  0  0  0  # atno 10765 bound_to 10752
  140.8091  133.8155  155.9545 H   0  0  0  0  0  0  0  0  0  0  0  0  # atno 11005 bound_to 11000
  146.2865  140.4415  142.8756 LP  0  0  0  0  0  0  0  0  0  0  0  0  # atno 17320 bound_to 7965
  144.8544  140.7049  143.6147 LP  0  0  0  0  0  0  0  0  0  0  0  0  # atno 17321 bound_to 7965
  140.5972  143.9675  150.6362 LP  0  0  0  0  0  0  0  0  0  0  0  0  # atno 17342 bound_to 10162
  140.2875  143.3347  152.1094 LP  0  0  0  0  0  0  0  0  0  0  0  0  # atno 17343 bound_to 10162
  157.0048  130.5614  149.5315 LP  0  0  0  0  0  0  0  0  0  0  0  0  # atno 17370 bound_to 10713
  156.0247  130.5341  150.8373 LP  0  0  0  0  0  0  0  0  0  0  0  0  # atno 17371 bound_to 10713
  140.9217  134.2134  157.4922 LP  0  0  0  0  0  0  0  0  0  0  0  0  # atno 17394 bound_to 11000
  139.8715  134.9795  156.5038 LP  0  0  0  0  0  0  0  0  0  0  0  0  # atno 17395 bound_to 11000

$$$$
