AV-unprocessed.smi:2854|AV-procd|sdf|10975|dock2
  -GOLD-   2272015433D 1   1.00000     0.00000
 Structure written by MMmdl.
 27 28  0  0  0  0  0  0  0  0  2 V2000
  148.6900  137.6899  153.7405 N   0  0  0  0  0  0  0  0  0  0  0  0
  148.1932  138.9934  153.8041 C   0  0  0  0  0  0  0  0  0  0  0  0
  147.0304  139.3269  153.0778 C   0  0  0  0  0  0  0  0  0  0  0  0
  146.5376  140.5829  153.1284 N   0  3  0  0  0  0  0  0  0  0  0  0
  147.1118  141.5644  153.8557 C   0  0  0  0  0  0  0  0  0  0  0  0
  148.2753  141.2945  154.6031 C   0  0  0  0  0  0  0  0  0  0  0  0
  148.8315  139.9923  154.5834 C   0  0  0  0  0  0  0  0  0  0  0  0
  149.9913  139.6898  155.3157 N   0  0  0  0  0  0  0  0  0  0  0  0
  151.1377  139.3512  154.4817 C   0  0  0  0  0  0  0  0  0  0  0  0
  152.3150  138.9021  155.3645 C   0  0  0  0  0  0  0  0  0  0  0  0
  152.6129  139.9207  156.3152 O   0  0  0  0  0  0  0  0  0  0  0  0
  151.5103  140.1873  157.1774 C   0  0  0  0  0  0  0  0  0  0  0  0
  150.3115  140.6721  156.3438 C   0  0  0  0  0  0  0  0  0  0  0  0
  149.5190  137.4088  154.2443 H   0  0  0  0  0  0  0  0  0  0  0  0
  148.2284  136.9809  153.1879 H   0  0  0  0  0  0  0  0  0  0  0  0
  146.4810  138.6313  152.4600 H   0  0  0  0  0  0  0  0  0  0  0  0
  146.6275  142.5294  153.8181 H   0  0  0  0  0  0  0  0  0  0  0  0
  148.7334  142.0819  155.1837 H   0  0  0  0  0  0  0  0  0  0  0  0
  150.8674  138.5562  153.7857 H   0  0  0  0  0  0  0  0  0  0  0  0
  151.4329  140.2165  153.8867 H   0  0  0  0  0  0  0  0  0  0  0  0
  152.0828  137.9675  155.8779 H   0  0  0  0  0  0  0  0  0  0  0  0
  153.1969  138.7183  154.7509 H   0  0  0  0  0  0  0  0  0  0  0  0
  151.2538  139.2911  157.7447 H   0  0  0  0  0  0  0  0  0  0  0  0
  151.7995  140.9503  157.9003 H   0  0  0  0  0  0  0  0  0  0  0  0
  150.5491  141.6311  155.8817 H   0  0  0  0  0  0  0  0  0  0  0  0
  149.4460  140.8284  156.9888 H   0  0  0  0  0  0  0  0  0  0  0  0
  145.6956  140.7988  152.5939 H   0  0  0  0  0  0  0  0  0  0  0  0
  1  2  1  0  0  0  0
  1 14  1  0  0  0  0
  1 15  1  0  0  0  0
  2  7  1  0  0  0  0
  2  3  2  0  0  0  0
  3  4  1  0  0  0  0
  3 16  1  0  0  0  0
  4  5  2  0  0  0  0
  4 27  1  0  0  0  0
  5  6  1  0  0  0  0
  5 17  1  0  0  0  0
  6  7  2  0  0  0  0
  6 18  1  0  0  0  0
  7  8  1  0  0  0  0
  8 13  1  0  0  0  0
  8  9  1  0  0  0  0
  9 10  1  0  0  0  0
  9 19  1  0  0  0  0
  9 20  1  0  0  0  0
 10 11  1  0  0  0  0
 10 21  1  0  0  0  0
 10 22  1  0  0  0  0
 11 12  1  0  0  0  0
 12 13  1  0  0  0  0
 12 23  1  0  0  0  0
 12 24  1  0  0  0  0
 13 25  1  0  0  0  0
 13 26  1  0  0  0  0
M  CHG  1   4   1
M  END
> <s_m_source_file>
AV-unprocessed.smi

> <i_m_source_file_index>
2854

> <i_lp_mmshare_version>
43012

> <i_f3d_flags>
0

> <s_epik_input>
W05IMl1jMVtjSF1uW2NIXVtjSF1jMU4yW0NIMl1bQ0gyXU9bQ0gyXVtDSDJdMg==

> <s_epik_cmdline>
J2VwaWtfcHl0aG9uJywgJy1waCcsICc3LjAnLCAnLXRuJywgJzgnLCAnLW1hJywgJzIwMCcsICctbWV0YWxfYmluZGluZycsICctaW1hZScsICc8aW5maWxlLm1hZT4nLCAnLW9tYWUnLCAnPG91dGZpbGUubWFlPic=

> <r_lp_tautomer_probability>
0.999846

> <r_epik_Ionization_Penalty>
0.0229726

> <r_epik_Ionization_Penalty_Charging>
0.0229724

> <r_epik_Ionization_Penalty_Neutral>
1.97994e-07

> <r_epik_State_Penalty>
0.0185659

> <r_epik_Charging_Adjusted_Penalty>
0.0415384

> <i_epik_Tot_Q>
1

> <i_epik_Tot_abs_Q>
1

> <r_epik_Metal_State_Penalty>
2.0686

> <b_epik_Metal_Only>
0

> <s_lp_Force_Field>
OPLS_2005

> <r_lp_Energy>
29.6275

> <b_lp_Chiralities_Consistent>
1

> <s_lp_Variant>
AV-unprocessed.smi:2854-1

> <Gold.Version>
5.8.1

> <Gold.Id.Protein>
6NUR|6NUR_protein|mol2

> <Gold.PLP.Fitness>
32.7489

> <Gold.PLP.PLP>
-23.5044

> <Gold.PLP.part.hbond>
-2.7344

> <Gold.PLP.part.metal>
0.0000

> <Gold.PLP.part.buried>
-1.3443

> <Gold.PLP.part.nonpolar>
-19.6704

> <Gold.PLP.part.repulsive>
0.0706

> <Gold.PLP.ligand.clash>
0.0000

> <Gold.PLP.ligand.torsion>
0.2509

> <Gold.PLP.Chemscore.Hbond>
3.2080

> <Gold.PLP.Chemscore.CHOScore>
0.0000

> <Gold.PLP.Chemscore.Metal>
0.0000

> <Gold.Chemscore.Hbonds>
donor molecule, donor type, donor heavy atom, donor atom, acceptor molecule, acceptor atom, score
      L1  H     1    15       P1  7948  0.45
      L1  H     4    27       P1 10175  1.82
      P1  H  7997  8009       L1    11  1.00

> <Gold.PLP.Chemscore.Internal.Correction>
0.1224

> <Gold.Rescore>
     Score         DG    S(hbond)    S(metal)    S(lipo)     H(rot)  DE(clash)    DE(int)     intcor
     15.61     -16.93       2.45        0.00      49.85       1.00       0.00       1.32       ----

> <Gold.Chemscore.Fitness>
15.6129

> <Gold.Chemscore.DG>
-16.9329

> <Gold.Chemscore.ZeroCoef>
-5.4800

> <Gold.Chemscore.Hbond>
2.4491

> <Gold.Chemscore.Metal>
0.0000

> <Gold.Chemscore.Lipo>
49.8535

> <Gold.Chemscore.Internal_Hbond>
0.0000

> <Gold.Chemscore.DEClash>
0.0038

> <Gold.Chemscore.DEInternal>
1.3162

> <Gold.Chemscore.Rot>
1.0000

> <Gold.Chemscore.Internal.Correction>
   9.000000E+99

> <Gold.Chemscore.Hbonds>
donor molecule, donor type, donor heavy atom, donor atom, acceptor molecule, acceptor atom, score
      L1  H     1    15       P1  7948  0.44
      L1  H     4    27       P1 10175  0.21
      P1  H  7997  8009       L1    11  0.70

> <Gold.Chemscore.Hbond.Weighted>
-8.1801

> <Gold.Chemscore.Metal.Weighted>
-0.0000

> <Gold.Chemscore.Lipo.Weighted>
-5.8329

> <Gold.Chemscore.Internal_Hbond.Weighted>
0.0000

> <Gold.Chemscore.DEClash.Weighted>
0.0038

> <Gold.Chemscore.DEInternal.Weighted>
1.3162

> <Gold.Chemscore.Rot.Weighted>
2.5600

> <Gold.Chemscore.Internal.Correction.Weighted>
   9.000000E+99

> <Gold.Protein.RotatedTorsions>
[ 6907 6896 6895 6894 ] final   22.29 input  -60.11 | X-H torsion
[ 7974 7965 7964 7962 ] final  125.64 input  175.53 | X-H torsion
[ 8008 7997 7996 7995 ] final -165.94 input   59.86 | X-H torsion
[ 10167 10162 10161 10158 ] final -143.10 input  -65.29 | X-H torsion
[ 10718 10713 10712 10709 ] final -110.13 input   66.30 | X-H torsion
[ 10763 10752 10751 10750 ] final  135.36 input  -60.55 | X-H torsion
[ 11005 11000 10999 10996 ] final   74.93 input  -57.11 | X-H torsion

> <Gold.Protein.ActiveResidues>
 VAL166  LYS551  ARG553  GLY616  TRP617  ASP618  TYR619  PRO620  LYS621  CYS622 
 ASP623  PHE694  ASN695  SER759  ASP760  ASP761  ALA762  ILE779  LEU786  VAL792 
 PHE793  MET794  SER795  GLU796  ALA797  LYS798  CYS799  TRP800  GLU811  SER814 

> <Gold.Protein.RotatedAtoms>
  151.9249  135.0282  160.0524 H   0  0  0  0  0  0  0  0  0  0  0  0  # atno 6907 bound_to 6896
  152.2168  133.4948  159.5149 H   0  0  0  0  0  0  0  0  0  0  0  0  # atno 6908 bound_to 6896
  150.6989  134.1311  159.4113 H   0  0  0  0  0  0  0  0  0  0  0  0  # atno 6909 bound_to 6896
  145.0707  139.3732  143.4959 H   0  0  0  0  0  0  0  0  0  0  0  0  # atno 7974 bound_to 7965
  155.8569  140.0972  157.1639 H   0  0  0  0  0  0  0  0  0  0  0  0  # atno 8008 bound_to 7997
  154.3988  140.1372  156.3975 H   0  0  0  0  0  0  0  0  0  0  0  0  # atno 8009 bound_to 7997
  155.7900  140.3456  155.5346 H   0  0  0  0  0  0  0  0  0  0  0  0  # atno 8010 bound_to 7997
  139.8025  143.7814  152.2659 H   0  0  0  0  0  0  0  0  0  0  0  0  # atno 10167 bound_to 10162
  156.0574  130.5799  150.8195 H   0  0  0  0  0  0  0  0  0  0  0  0  # atno 10718 bound_to 10713
  153.8388  135.3094  155.3424 H   0  0  0  0  0  0  0  0  0  0  0  0  # atno 10763 bound_to 10752
  154.7942  135.4765  154.0124 H   0  0  0  0  0  0  0  0  0  0  0  0  # atno 10764 bound_to 10752
  153.1589  135.6857  153.8864 H   0  0  0  0  0  0  0  0  0  0  0  0  # atno 10765 bound_to 10752
  139.9367  134.7475  156.1209 H   0  0  0  0  0  0  0  0  0  0  0  0  # atno 11005 bound_to 11000
  146.3528  140.0450  142.8640 LP  0  0  0  0  0  0  0  0  0  0  0  0  # atno 17320 bound_to 7965
  145.1296  140.9510  143.4552 LP  0  0  0  0  0  0  0  0  0  0  0  0  # atno 17321 bound_to 7965
  139.7938  144.7400  150.9918 LP  0  0  0  0  0  0  0  0  0  0  0  0  # atno 17342 bound_to 10162
  140.7820  143.4415  151.0545 LP  0  0  0  0  0  0  0  0  0  0  0  0  # atno 17343 bound_to 10162
  157.5555  131.0945  150.9634 LP  0  0  0  0  0  0  0  0  0  0  0  0  # atno 17370 bound_to 10713
  156.9884  130.5553  149.5301 LP  0  0  0  0  0  0  0  0  0  0  0  0  # atno 17371 bound_to 10713
  141.0984  133.6686  156.2698 LP  0  0  0  0  0  0  0  0  0  0  0  0  # atno 17394 bound_to 11000
  140.6056  134.5510  157.5525 LP  0  0  0  0  0  0  0  0  0  0  0  0  # atno 17395 bound_to 11000

$$$$
