AV-unprocessed.smi:3280|AV-procd|sdf|12555|dock10
  -GOLD-   2272018473D 1   1.00000     0.00000
 Structure written by MMmdl.
 38 39  0  0  0  0  0  0  0  0  1 V2000
  146.8677  137.1281  162.8208 C   0  0  0  0  0  0  0  0  0  0  0  0
  147.0502  135.8492  161.9904 C   0  0  0  0  0  0  0  0  0  0  0  0
  147.4362  134.6313  162.8428 C   0  0  0  0  0  0  0  0  0  0  0  0
  148.0043  136.0569  160.8541 C   0  0  0  0  0  0  0  0  0  0  0  0
  148.2458  135.0923  159.9737 N   0  0  0  0  0  0  0  0  0  0  0  0
  149.1595  135.6808  159.0881 O   0  0  0  0  0  0  0  0  0  0  0  0
  149.3729  136.9338  159.5559 C   0  0  0  0  0  0  0  0  0  0  0  0
  150.2784  137.8427  158.7941 C   0  0  0  0  0  0  0  0  0  0  0  0
  149.5238  139.0178  158.1595 C   0  0  0  0  0  0  0  0  0  0  0  0
  150.4708  139.9057  157.4988 N   0  0  0  0  0  0  0  0  0  0  0  0
  150.6251  141.1701  158.2097 C   0  0  1  0  0  0  0  0  0  0  0  0
  151.9405  141.0950  159.0099 C   0  0  0  0  0  0  0  0  0  0  0  0
  152.1868  142.3505  159.8617 C   0  0  0  0  0  0  0  0  0  0  0  0
  152.3041  143.6208  159.0085 C   0  0  0  0  0  0  0  0  0  0  0  0
  150.7698  143.9415  158.0978 S   0  0  0  0  0  0  0  0  0  0  0  0
  150.6332  142.3579  157.2236 C   0  0  0  0  0  0  0  0  0  0  0  0
  148.6644  137.2305  160.6423 N   0  0  0  0  0  0  0  0  0  0  0  0
  146.5213  137.9536  162.1982 H   0  0  0  0  0  0  0  0  0  0  0  0
  147.8033  137.4338  163.2902 H   0  0  0  0  0  0  0  0  0  0  0  0
  146.1323  136.9803  163.6119 H   0  0  0  0  0  0  0  0  0  0  0  0
  146.0745  135.6227  161.5571 H   0  0  0  0  0  0  0  0  0  0  0  0
  147.4861  133.7273  162.2352 H   0  0  0  0  0  0  0  0  0  0  0  0
  146.7053  134.4577  163.6329 H   0  0  0  0  0  0  0  0  0  0  0  0
  148.4091  134.7697  163.3155 H   0  0  0  0  0  0  0  0  0  0  0  0
  151.0519  138.2098  159.4702 H   0  0  0  0  0  0  0  0  0  0  0  0
  150.7851  137.2590  158.0242 H   0  0  0  0  0  0  0  0  0  0  0  0
  148.7924  138.6399  157.4459 H   0  0  0  0  0  0  0  0  0  0  0  0
  148.9792  139.5665  158.9290 H   0  0  0  0  0  0  0  0  0  0  0  0
  151.3682  139.4442  157.4536 H   0  0  0  0  0  0  0  0  0  0  0  0
  149.8007  141.2820  158.9157 H   0  0  0  0  0  0  0  0  0  0  0  0
  151.9198  140.2253  159.6683 H   0  0  0  0  0  0  0  0  0  0  0  0
  152.7831  140.9449  158.3329 H   0  0  0  0  0  0  0  0  0  0  0  0
  151.3834  142.4678  160.5899 H   0  0  0  0  0  0  0  0  0  0  0  0
  153.1036  142.2197  160.4373 H   0  0  0  0  0  0  0  0  0  0  0  0
  152.5213  144.4821  159.6405 H   0  0  0  0  0  0  0  0  0  0  0  0
  153.1271  143.5288  158.2989 H   0  0  0  0  0  0  0  0  0  0  0  0
  151.4641  142.2696  156.5223 H   0  0  0  0  0  0  0  0  0  0  0  0
  149.7197  142.3927  156.6312 H   0  0  0  0  0  0  0  0  0  0  0  0
  1  2  1  0  0  0  0
  1 18  1  0  0  0  0
  1 19  1  0  0  0  0
  1 20  1  0  0  0  0
  2  3  1  0  0  0  0
  2  4  1  0  0  0  0
  2 21  1  0  0  0  0
  3 22  1  0  0  0  0
  3 23  1  0  0  0  0
  3 24  1  0  0  0  0
  4 17  1  0  0  0  0
  4  5  2  0  0  0  0
  5  6  1  0  0  0  0
  6  7  1  0  0  0  0
  7  8  1  0  0  0  0
  7 17  2  0  0  0  0
  8  9  1  0  0  0  0
  8 25  1  0  0  0  0
  8 26  1  0  0  0  0
  9 10  1  0  0  0  0
  9 27  1  0  0  0  0
  9 28  1  0  0  0  0
 10 11  1  0  0  0  0
 10 29  1  0  0  0  0
 11 16  1  0  0  0  0
 11 12  1  0  0  0  0
 11 30  1  0  0  0  0
 12 13  1  0  0  0  0
 12 31  1  0  0  0  0
 12 32  1  0  0  0  0
 13 14  1  0  0  0  0
 13 33  1  0  0  0  0
 13 34  1  0  0  0  0
 14 15  1  0  0  0  0
 14 35  1  0  0  0  0
 14 36  1  0  0  0  0
 15 16  1  0  0  0  0
 16 37  1  0  0  0  0
 16 38  1  0  0  0  0
M  END
> <s_m_source_file>
AV-unprocessed.smi

> <i_m_source_file_index>
3280

> <i_lp_mmshare_version>
43012

> <i_f3d_flags>
0

> <s_epik_input>
W0NIM11bQ0hdKFtDSDNdKWMxbm9jKG4xKVtDSDJdW0NIMl1bTkhdW0NAQEhdMltDSDJdW0NIMl1bQ0gyXVNbQ0gyXTI=

> <s_epik_cmdline>
J2VwaWtfcHl0aG9uJywgJy1waCcsICc3LjAnLCAnLXRuJywgJzgnLCAnLW1hJywgJzIwMCcsICctbWV0YWxfYmluZGluZycsICctaW1hZScsICc8aW5maWxlLm1hZT4nLCAnLW9tYWUnLCAnPG91dGZpbGUubWFlPic=

> <r_lp_tautomer_probability>
1

> <r_epik_Ionization_Penalty>
2.40576

> <r_epik_Ionization_Penalty_Charging>
0

> <r_epik_Ionization_Penalty_Neutral>
2.40576

> <r_epik_State_Penalty>
2.56401

> <r_epik_Charging_Adjusted_Penalty>
2.56401

> <i_epik_Tot_Q>
0

> <i_epik_Tot_abs_Q>
0

> <r_epik_Metal_State_Penalty>
2.56401

> <b_epik_Metal_Only>
0

> <s_lp_Force_Field>
OPLS_2005

> <r_lp_Energy>
1.02241

> <b_lp_Chiralities_Consistent>
1

> <s_lp_Variant>
AV-unprocessed.smi:3280-4

> <Gold.Version>
5.8.1

> <Gold.Id.Protein>
6NUR|6NUR_protein|mol2

> <Gold.PLP.Fitness>
41.8199

> <Gold.PLP.PLP>
-38.7192

> <Gold.PLP.part.hbond>
-2.6001

> <Gold.PLP.part.metal>
0.0000

> <Gold.PLP.part.buried>
-3.9254

> <Gold.PLP.part.nonpolar>
-32.3973

> <Gold.PLP.part.repulsive>
0.0000

> <Gold.PLP.ligand.clash>
0.0000

> <Gold.PLP.ligand.torsion>
1.0197

> <Gold.PLP.Chemscore.Hbond>
1.6860

> <Gold.PLP.Chemscore.CHOScore>
0.0000

> <Gold.PLP.Chemscore.Metal>
0.0000

> <Gold.Chemscore.Hbonds>
donor molecule, donor type, donor heavy atom, donor atom, acceptor molecule, acceptor atom, score
      P1  H  6896  6908       L1     6  0.80
      P1  H  6931  6943       L1    17  0.74
      P1  H  6934  6947       L1    17  0.12

> <Gold.PLP.Chemscore.Internal.Correction>
0.0821

> <Gold.Rescore>
     Score         DG    S(hbond)    S(metal)    S(lipo)     H(rot)  DE(clash)    DE(int)     intcor
     16.12     -17.28       1.83        0.00      85.40       1.68       0.08       1.08       ----

> <Gold.Chemscore.Fitness>
16.1198

> <Gold.Chemscore.DG>
-17.2780

> <Gold.Chemscore.ZeroCoef>
-5.4800

> <Gold.Chemscore.Hbond>
1.8308

> <Gold.Chemscore.Metal>
0.0000

> <Gold.Chemscore.Lipo>
85.4047

> <Gold.Chemscore.Internal_Hbond>
0.0000

> <Gold.Chemscore.DEClash>
0.0811

> <Gold.Chemscore.DEInternal>
1.0772

> <Gold.Chemscore.Rot>
1.6833

> <Gold.Chemscore.Internal.Correction>
   9.000000E+99

> <Gold.Chemscore.Hbonds>
donor molecule, donor type, donor heavy atom, donor atom, acceptor molecule, acceptor atom, score
      P1  H  6896  6908       L1     6  0.10
      P1  H  6931  6943       L1    17  0.73
      P1  H  6934  6947       L1    17  0.09

> <Gold.Chemscore.Hbond.Weighted>
-6.1149

> <Gold.Chemscore.Metal.Weighted>
-0.0000

> <Gold.Chemscore.Lipo.Weighted>
-9.9923

> <Gold.Chemscore.Internal_Hbond.Weighted>
0.0000

> <Gold.Chemscore.DEClash.Weighted>
0.0811

> <Gold.Chemscore.DEInternal.Weighted>
1.0772

> <Gold.Chemscore.Rot.Weighted>
4.3092

> <Gold.Chemscore.Internal.Correction.Weighted>
   9.000000E+99

> <Gold.Protein.RotatedTorsions>
[ 6907 6896 6895 6894 ] final  161.46 input  -60.11 | X-H torsion
[ 7974 7965 7964 7962 ] final  144.00 input  175.53 | X-H torsion
[ 8008 7997 7996 7995 ] final  127.81 input   59.86 | X-H torsion
[ 10167 10162 10161 10158 ] final  130.47 input  -65.29 | X-H torsion
[ 10718 10713 10712 10709 ] final   59.69 input   66.30 | X-H torsion
[ 10763 10752 10751 10750 ] final    0.88 input  -60.55 | X-H torsion
[ 11005 11000 10999 10996 ] final   27.33 input  -57.11 | X-H torsion

> <Gold.Protein.ActiveResidues>
 VAL166  LYS551  ARG553  GLY616  TRP617  ASP618  TYR619  PRO620  LYS621  CYS622 
 ASP623  PHE694  ASN695  SER759  ASP760  ASP761  ALA762  ILE779  LEU786  VAL792 
 PHE793  MET794  SER795  GLU796  ALA797  LYS798  CYS799  TRP800  GLU811  SER814 

> <Gold.Protein.RotatedAtoms>
  151.9552  133.3678  159.4014 H   0  0  0  0  0  0  0  0  0  0  0  0  # atno 6907 bound_to 6896
  150.6973  134.4298  159.5252 H   0  0  0  0  0  0  0  0  0  0  0  0  # atno 6908 bound_to 6896
  152.1978  134.8615  160.0562 H   0  0  0  0  0  0  0  0  0  0  0  0  # atno 6909 bound_to 6896
  144.8873  139.5610  143.5815 H   0  0  0  0  0  0  0  0  0  0  0  0  # atno 7974 bound_to 7965
  156.2900  140.2660  156.2333 H   0  0  0  0  0  0  0  0  0  0  0  0  # atno 8008 bound_to 7997
  155.0050  140.0387  157.2394 H   0  0  0  0  0  0  0  0  0  0  0  0  # atno 8009 bound_to 7997
  154.7568  140.2753  155.6252 H   0  0  0  0  0  0  0  0  0  0  0  0  # atno 8010 bound_to 7997
  139.5428  144.6746  151.4568 H   0  0  0  0  0  0  0  0  0  0  0  0  # atno 10167 bound_to 10162
  157.5695  130.8897  149.9243 H   0  0  0  0  0  0  0  0  0  0  0  0  # atno 10718 bound_to 10713
  153.3150  135.6965  153.7081 H   0  0  0  0  0  0  0  0  0  0  0  0  # atno 10763 bound_to 10752
  153.5943  135.3474  155.2923 H   0  0  0  0  0  0  0  0  0  0  0  0  # atno 10764 bound_to 10752
  154.8584  135.4325  154.2299 H   0  0  0  0  0  0  0  0  0  0  0  0  # atno 10765 bound_to 10752
  140.3275  134.2475  155.7707 H   0  0  0  0  0  0  0  0  0  0  0  0  # atno 11005 bound_to 11000
  146.3032  139.7494  142.9076 LP  0  0  0  0  0  0  0  0  0  0  0  0  # atno 17320 bound_to 7965
  145.3847  141.0363  143.3158 LP  0  0  0  0  0  0  0  0  0  0  0  0  # atno 17321 bound_to 7965
  140.6665  143.8386  150.6948 LP  0  0  0  0  0  0  0  0  0  0  0  0  # atno 17342 bound_to 10162
  140.1797  143.4125  152.1942 LP  0  0  0  0  0  0  0  0  0  0  0  0  # atno 17343 bound_to 10162
  156.0741  130.3681  150.0713 LP  0  0  0  0  0  0  0  0  0  0  0  0  # atno 17370 bound_to 10713
  156.8868  130.9575  151.3593 LP  0  0  0  0  0  0  0  0  0  0  0  0  # atno 17371 bound_to 10713
  141.2071  133.7813  157.0135 LP  0  0  0  0  0  0  0  0  0  0  0  0  # atno 17394 bound_to 11000
  140.0889  134.9604  157.1744 LP  0  0  0  0  0  0  0  0  0  0  0  0  # atno 17395 bound_to 11000

$$$$
