AV-unprocessed.smi:671|AV-procd|sdf|3276|dock3
  -GOLD-   22720 0233D 1   1.00000     0.00000
 Structure written by MMmdl.
 49 50  0  0  0  0  0  0  0  0  1 V2000
  152.7611  138.3680  154.7818 C   0  0  0  0  0  0  0  0  0  0  0  0
  151.9671  139.3677  155.5729 C   0  0  0  0  0  0  0  0  0  0  0  0
  152.5271  139.9693  156.6095 N   0  0  0  0  0  0  0  0  0  0  0  0
  151.5708  140.7889  157.0908 N   0  0  0  0  0  0  0  0  0  0  0  0
  151.8568  141.6151  158.2475 C   0  0  0  0  0  0  0  0  0  0  0  0
  150.4037  140.7031  156.3573 C   0  0  0  0  0  0  0  0  0  0  0  0
  149.1897  141.5101  156.6852 C   0  0  0  0  0  0  0  0  0  0  0  0
  150.6236  139.7939  155.3583 C   0  0  0  0  0  0  0  0  0  0  0  0
  149.6734  139.3433  154.2789 C   0  0  0  0  0  0  0  0  0  0  0  0
  148.3891  138.7060  154.8530 C   0  0  1  0  0  0  0  0  0  0  0  0
  147.2807  139.7409  155.1040 C   0  0  0  0  0  0  0  0  0  0  0  0
  147.8798  137.6809  153.9394 N   0  0  0  0  0  0  0  0  0  0  0  0
  146.7134  137.0124  154.0001 C   0  0  0  0  0  0  0  0  0  0  0  0
  145.9003  137.2106  154.9008 O   0  0  0  0  0  0  0  0  0  0  0  0
  146.5224  136.1229  153.0100 N   0  0  0  0  0  0  0  0  0  0  0  0
  145.3351  135.2870  152.8277 C   0  0  1  0  0  0  0  0  0  0  0  0
  144.3754  135.9665  151.8415 C   0  0  0  0  0  0  0  0  0  0  0  0
  144.6834  135.3314  150.4891 C   0  0  0  0  0  0  0  0  0  0  0  0
  145.0035  133.8763  150.8205 C   0  0  0  0  0  0  0  0  0  0  0  0
  145.6354  133.8856  152.2247 C   0  0  1  0  0  0  0  0  0  0  0  0
  147.1140  133.4525  152.2052 C   0  0  0  0  0  0  0  0  0  0  0  0
  152.2595  137.4004  154.7624 H   0  0  0  0  0  0  0  0  0  0  0  0
  153.7560  138.2156  155.2022 H   0  0  0  0  0  0  0  0  0  0  0  0
  152.8848  138.6985  153.7503 H   0  0  0  0  0  0  0  0  0  0  0  0
  151.1718  141.3621  159.0571 H   0  0  0  0  0  0  0  0  0  0  0  0
  151.7290  142.6660  157.9873 H   0  0  0  0  0  0  0  0  0  0  0  0
  152.8805  141.4582  158.5906 H   0  0  0  0  0  0  0  0  0  0  0  0
  148.3251  141.1584  156.1235 H   0  0  0  0  0  0  0  0  0  0  0  0
  149.3453  142.5607  156.4398 H   0  0  0  0  0  0  0  0  0  0  0  0
  148.9460  141.4402  157.7454 H   0  0  0  0  0  0  0  0  0  0  0  0
  149.4010  140.1765  153.6302 H   0  0  0  0  0  0  0  0  0  0  0  0
  150.1761  138.6293  153.6259 H   0  0  0  0  0  0  0  0  0  0  0  0
  148.6177  138.2418  155.8138 H   0  0  0  0  0  0  0  0  0  0  0  0
  147.5906  140.4886  155.8345 H   0  0  0  0  0  0  0  0  0  0  0  0
  146.3803  139.2641  155.4927 H   0  0  0  0  0  0  0  0  0  0  0  0
  147.0105  140.2646  154.1865 H   0  0  0  0  0  0  0  0  0  0  0  0
  148.4893  137.4428  153.1703 H   0  0  0  0  0  0  0  0  0  0  0  0
  147.2529  136.0254  152.3202 H   0  0  0  0  0  0  0  0  0  0  0  0
  144.8269  135.1771  153.7875 H   0  0  0  0  0  0  0  0  0  0  0  0
  143.3467  135.7332  152.1196 H   0  0  0  0  0  0  0  0  0  0  0  0
  144.4667  137.0537  151.8258 H   0  0  0  0  0  0  0  0  0  0  0  0
  143.8605  135.4299  149.7807 H   0  0  0  0  0  0  0  0  0  0  0  0
  145.5605  135.8053  150.0481 H   0  0  0  0  0  0  0  0  0  0  0  0
  144.0770  133.3010  150.8448 H   0  0  0  0  0  0  0  0  0  0  0  0
  145.6437  133.4196  150.0647 H   0  0  0  0  0  0  0  0  0  0  0  0
  145.1015  133.1472  152.8247 H   0  0  0  0  0  0  0  0  0  0  0  0
  147.7219  134.1198  151.5932 H   0  0  0  0  0  0  0  0  0  0  0  0
  147.2177  132.4474  151.7957 H   0  0  0  0  0  0  0  0  0  0  0  0
  147.5341  133.4364  153.2111 H   0  0  0  0  0  0  0  0  0  0  0  0
  1  2  1  0  0  0  0
  1 22  1  0  0  0  0
  1 23  1  0  0  0  0
  1 24  1  0  0  0  0
  2  8  1  0  0  0  0
  2  3  2  0  0  0  0
  3  4  1  0  0  0  0
  4  5  1  0  0  0  0
  4  6  1  0  0  0  0
  5 25  1  0  0  0  0
  5 26  1  0  0  0  0
  5 27  1  0  0  0  0
  6  7  1  0  0  0  0
  6  8  2  0  0  0  0
  7 28  1  0  0  0  0
  7 29  1  0  0  0  0
  7 30  1  0  0  0  0
  8  9  1  0  0  0  0
  9 10  1  0  0  0  0
  9 31  1  0  0  0  0
  9 32  1  0  0  0  0
 10 11  1  0  0  0  0
 10 12  1  0  0  0  0
 10 33  1  0  0  0  0
 11 34  1  0  0  0  0
 11 35  1  0  0  0  0
 11 36  1  0  0  0  0
 12 13  1  0  0  0  0
 12 37  1  0  0  0  0
 13 14  2  0  0  0  0
 13 15  1  0  0  0  0
 15 16  1  0  0  0  0
 15 38  1  0  0  0  0
 16 20  1  0  0  0  0
 16 17  1  0  0  0  0
 16 39  1  0  0  0  0
 17 18  1  0  0  0  0
 17 40  1  0  0  0  0
 17 41  1  0  0  0  0
 18 19  1  0  0  0  0
 18 42  1  0  0  0  0
 18 43  1  0  0  0  0
 19 20  1  0  0  0  0
 19 44  1  0  0  0  0
 19 45  1  0  0  0  0
 20 21  1  0  0  0  0
 20 46  1  0  0  0  0
 21 47  1  0  0  0  0
 21 48  1  0  0  0  0
 21 49  1  0  0  0  0
M  END
> <s_m_source_file>
AV-unprocessed.smi

> <i_m_source_file_index>
671

> <i_lp_mmshare_version>
43012

> <i_f3d_flags>
0

> <s_epik_input>
W0NIM11jMW5uKFtDSDNdKWMoW0NIM10pYzFbQ0gyXVtDQEhdKFtDSDNdKVtOSF1DKD1PKVtOSF1bQ0BASF0yW0NIMl1bQ0gyXVtDSDJdW0NASF0yW0NIM10=

> <s_epik_cmdline>
J2VwaWtfcHl0aG9uJywgJy1waCcsICc3LjAnLCAnLXRuJywgJzgnLCAnLW1hJywgJzIwMCcsICctbWV0YWxfYmluZGluZycsICctaW1hZScsICc8aW5maWxlLm1hZT4nLCAnLW9tYWUnLCAnPG91dGZpbGUubWFlPic=

> <r_lp_tautomer_probability>
1

> <r_epik_Ionization_Penalty>
0.0126855

> <r_epik_Ionization_Penalty_Charging>
0

> <r_epik_Ionization_Penalty_Neutral>
0.0126855

> <r_epik_State_Penalty>
0.00977547

> <r_epik_Charging_Adjusted_Penalty>
0.00977547

> <i_epik_Tot_Q>
0

> <i_epik_Tot_abs_Q>
0

> <r_epik_Metal_State_Penalty>
0.00957132

> <b_epik_Metal_Only>
0

> <s_lp_Force_Field>
OPLS_2005

> <r_lp_Energy>
24.0852

> <b_lp_Chiralities_Consistent>
1

> <s_lp_Variant>
AV-unprocessed.smi:671-4

> <Gold.Version>
5.8.1

> <Gold.Id.Protein>
6NUR|6NUR_protein|mol2

> <Gold.PLP.Fitness>
41.4760

> <Gold.PLP.PLP>
-34.2685

> <Gold.PLP.part.hbond>
-3.0000

> <Gold.PLP.part.metal>
0.0000

> <Gold.PLP.part.buried>
-2.8115

> <Gold.PLP.part.nonpolar>
-28.4488

> <Gold.PLP.part.repulsive>
0.0487

> <Gold.PLP.ligand.clash>
0.0000

> <Gold.PLP.ligand.torsion>
0.8331

> <Gold.PLP.Chemscore.Hbond>
2.9520

> <Gold.PLP.Chemscore.CHOScore>
0.0000

> <Gold.PLP.Chemscore.Metal>
0.0000

> <Gold.Chemscore.Hbonds>
donor molecule, donor type, donor heavy atom, donor atom, acceptor molecule, acceptor atom, score
      L1  H    12    37       P1  7948  0.98
      L1  H    15    38       P1  7948  1.00
      P1  H  7997  8009       L1     3  1.00

> <Gold.PLP.Chemscore.Internal.Correction>
0.0176

> <Gold.Rescore>
     Score         DG    S(hbond)    S(metal)    S(lipo)     H(rot)  DE(clash)    DE(int)     intcor
     18.96     -21.25       2.87        0.00      84.67       1.45       0.16       2.13       ----

> <Gold.Chemscore.Fitness>
18.9594

> <Gold.Chemscore.DG>
-21.2468

> <Gold.Chemscore.ZeroCoef>
-5.4800

> <Gold.Chemscore.Hbond>
2.8660

> <Gold.Chemscore.Metal>
0.0000

> <Gold.Chemscore.Lipo>
84.6678

> <Gold.Chemscore.Internal_Hbond>
0.0000

> <Gold.Chemscore.DEClash>
0.1587

> <Gold.Chemscore.DEInternal>
2.1287

> <Gold.Chemscore.Rot>
1.4499

> <Gold.Chemscore.Internal.Correction>
   9.000000E+99

> <Gold.Chemscore.Hbonds>
donor molecule, donor type, donor heavy atom, donor atom, acceptor molecule, acceptor atom, score
      L1  H    12    37       P1  7948  0.93
      L1  H    15    38       P1  7948  0.95
      P1  H  7997  8009       L1     3  0.69

> <Gold.Chemscore.Hbond.Weighted>
-9.5725

> <Gold.Chemscore.Metal.Weighted>
-0.0000

> <Gold.Chemscore.Lipo.Weighted>
-9.9061

> <Gold.Chemscore.Internal_Hbond.Weighted>
0.0000

> <Gold.Chemscore.DEClash.Weighted>
0.1587

> <Gold.Chemscore.DEInternal.Weighted>
2.1287

> <Gold.Chemscore.Rot.Weighted>
3.7118

> <Gold.Chemscore.Internal.Correction.Weighted>
   9.000000E+99

> <Gold.Protein.RotatedTorsions>
[ 6907 6896 6895 6894 ] final -121.97 input  -60.11 | X-H torsion
[ 7974 7965 7964 7962 ] final   60.63 input  175.53 | X-H torsion
[ 8008 7997 7996 7995 ] final -159.50 input   59.86 | X-H torsion
[ 10167 10162 10161 10158 ] final  152.64 input  -65.29 | X-H torsion
[ 10718 10713 10712 10709 ] final   54.57 input   66.30 | X-H torsion
[ 10763 10752 10751 10750 ] final  -48.64 input  -60.55 | X-H torsion
[ 11005 11000 10999 10996 ] final  127.79 input  -57.11 | X-H torsion

> <Gold.Protein.ActiveResidues>
 VAL166  LYS551  ARG553  GLY616  TRP617  ASP618  TYR619  PRO620  LYS621  CYS622 
 ASP623  PHE694  ASN695  SER759  ASP760  ASP761  ALA762  ILE779  LEU786  VAL792 
 PHE793  MET794  SER795  GLU796  ALA797  LYS798  CYS799  TRP800  GLU811  SER814 

> <Gold.Protein.RotatedAtoms>
  150.8533  133.7754  159.3017 H   0  0  0  0  0  0  0  0  0  0  0  0  # atno 6907 bound_to 6896
  151.5420  135.1067  159.9938 H   0  0  0  0  0  0  0  0  0  0  0  0  # atno 6908 bound_to 6896
  152.4569  133.7699  159.6849 H   0  0  0  0  0  0  0  0  0  0  0  0  # atno 6909 bound_to 6896
  145.8938  139.3530  143.0633 H   0  0  0  0  0  0  0  0  0  0  0  0  # atno 7974 bound_to 7965
  155.7635  140.0842  157.2143 H   0  0  0  0  0  0  0  0  0  0  0  0  # atno 8008 bound_to 7997
  154.4001  140.1538  156.2917 H   0  0  0  0  0  0  0  0  0  0  0  0  # atno 8009 bound_to 7997
  155.8816  140.3420  155.5894 H   0  0  0  0  0  0  0  0  0  0  0  0  # atno 8010 bound_to 7997
  139.4831  144.5341  151.7674 H   0  0  0  0  0  0  0  0  0  0  0  0  # atno 10167 bound_to 10162
  157.5268  130.8603  149.8633 H   0  0  0  0  0  0  0  0  0  0  0  0  # atno 10718 bound_to 10713
  154.0811  135.6591  153.4838 H   0  0  0  0  0  0  0  0  0  0  0  0  # atno 10763 bound_to 10752
  153.0355  135.5180  154.7473 H   0  0  0  0  0  0  0  0  0  0  0  0  # atno 10764 bound_to 10752
  154.6568  135.3009  154.9885 H   0  0  0  0  0  0  0  0  0  0  0  0  # atno 10765 bound_to 10752
  139.9526  134.9619  156.8907 H   0  0  0  0  0  0  0  0  0  0  0  0  # atno 11005 bound_to 11000
  145.8875  140.9324  143.0569 LP  0  0  0  0  0  0  0  0  0  0  0  0  # atno 17320 bound_to 7965
  144.6732  140.0862  143.7467 LP  0  0  0  0  0  0  0  0  0  0  0  0  # atno 17321 bound_to 7965
  140.4871  144.1365  150.5943 LP  0  0  0  0  0  0  0  0  0  0  0  0  # atno 17342 bound_to 10162
  140.4213  143.2610  151.9712 LP  0  0  0  0  0  0  0  0  0  0  0  0  # atno 17343 bound_to 10162
  156.0393  130.3743  150.1477 LP  0  0  0  0  0  0  0  0  0  0  0  0  # atno 17370 bound_to 10713
  156.9663  130.9820  151.3468 LP  0  0  0  0  0  0  0  0  0  0  0  0  # atno 17371 bound_to 10713
  140.5683  134.0468  155.7422 LP  0  0  0  0  0  0  0  0  0  0  0  0  # atno 17394 bound_to 11000
  141.1192  133.9490  157.2763 LP  0  0  0  0  0  0  0  0  0  0  0  0  # atno 17395 bound_to 11000

$$$$
