AV-unprocessed.smi:36|AV-procd|sdf|294|dock10
  -GOLD-   2262016 93D 1   1.00000     0.00000
 Structure written by MMmdl.
 64 67  0  0  0  0  0  0  0  0  1 V2000
  152.7760  127.6775  169.3636 C   0  0  0  0  0  0  0  0  0  0  0  0
  152.6719  128.8982  168.4344 C   0  0  0  0  0  0  0  0  0  0  0  0
  152.6266  128.4374  166.9681 C   0  0  0  0  0  0  0  0  0  0  0  0
  151.4019  129.7023  168.7637 C   0  0  0  0  0  0  0  0  0  0  0  0
  154.1949  130.0232  168.6901 Si  0  0  0  0  0  0  0  0  0  0  0  0
  154.1702  130.7922  170.4302 C   0  0  0  0  0  0  0  0  0  0  0  0
  155.8124  129.0574  168.4496 C   0  0  0  0  0  0  0  0  0  0  0  0
  154.1326  131.2339  167.5056 O   0  0  0  0  0  0  0  0  0  0  0  0
  154.9962  132.3510  167.4396 C   0  0  0  0  0  0  0  0  0  0  0  0
  154.8751  132.9754  166.0439 C   0  0  1  0  0  0  0  0  0  0  0  0
  155.5462  134.2327  166.0132 O   0  0  0  0  0  0  0  0  0  0  0  0
  156.1338  134.4403  164.7656 C   0  0  2  0  0  0  0  0  0  0  0  0
  155.6295  135.7319  164.2067 N   0  0  0  0  0  0  0  0  0  0  0  0
  155.3436  136.8418  164.9119 C   0  0  0  0  0  0  0  0  0  0  0  0
  154.8920  137.8709  164.2001 N   0  0  0  0  0  0  0  0  0  0  0  0
  154.8858  137.3646  162.9046 C   0  0  0  0  0  0  0  0  0  0  0  0
  154.4852  138.0040  161.6324 C   0  0  0  0  0  0  0  0  0  0  0  0
  154.0741  139.2347  161.6801 N   0  0  0  0  0  0  0  0  0  0  0  0
  153.6967  139.8908  160.5154 C   0  0  0  0  0  0  0  0  0  0  0  0
  153.6951  139.4668  159.3563 O   0  0  0  0  0  0  0  0  0  0  0  0
  153.1674  141.2680  160.7574 C   0  0  0  0  0  0  0  0  0  0  0  0
  152.1396  141.7876  159.9413 C   0  0  0  0  0  0  0  0  0  0  0  0
  151.6456  143.0871  160.1686 C   0  0  0  0  0  0  0  0  0  0  0  0
  152.1754  143.8703  161.2120 C   0  0  0  0  0  0  0  0  0  0  0  0
  153.2006  143.3548  162.0282 C   0  0  0  0  0  0  0  0  0  0  0  0
  153.6975  142.0564  161.8009 C   0  0  0  0  0  0  0  0  0  0  0  0
  154.6424  137.0992  160.5746 N   0  0  0  0  0  0  0  0  0  0  0  0
  155.1126  135.7817  160.6823 C   0  0  0  0  0  0  0  0  0  0  0  0
  155.4754  135.2082  161.7980 N   0  0  0  0  0  0  0  0  0  0  0  0
  155.3341  136.0611  162.8841 C   0  0  0  0  0  0  0  0  0  0  0  0
  155.7429  133.2595  163.8792 C   0  0  0  0  0  0  0  0  0  0  0  0
  155.5451  132.1791  164.9222 C   0  0  2  0  0  0  0  0  0  0  0  0
  154.7215  131.1438  164.4275 O   0  0  0  0  0  0  0  0  0  0  0  0
  151.9194  127.0137  169.2425 H   0  0  0  0  0  0  0  0  0  0  0  0
  152.8124  127.9774  170.4113 H   0  0  0  0  0  0  0  0  0  0  0  0
  153.6747  127.0959  169.1559 H   0  0  0  0  0  0  0  0  0  0  0  0
  153.5102  127.8549  166.7064 H   0  0  0  0  0  0  0  0  0  0  0  0
  152.5797  129.2878  166.2873 H   0  0  0  0  0  0  0  0  0  0  0  0
  151.7538  127.8126  166.7756 H   0  0  0  0  0  0  0  0  0  0  0  0
  150.5026  129.1033  168.6166 H   0  0  0  0  0  0  0  0  0  0  0  0
  151.3169  130.5848  168.1286 H   0  0  0  0  0  0  0  0  0  0  0  0
  151.4014  130.0444  169.7989 H   0  0  0  0  0  0  0  0  0  0  0  0
  154.2991  130.0329  171.2009 H   0  0  0  0  0  0  0  0  0  0  0  0
  153.2276  131.2982  170.6360 H   0  0  0  0  0  0  0  0  0  0  0  0
  154.9684  131.5221  170.5618 H   0  0  0  0  0  0  0  0  0  0  0  0
  155.8982  128.2357  169.1600 H   0  0  0  0  0  0  0  0  0  0  0  0
  156.6828  129.6984  168.5876 H   0  0  0  0  0  0  0  0  0  0  0  0
  155.8803  128.6318  167.4488 H   0  0  0  0  0  0  0  0  0  0  0  0
  154.7790  133.0756  168.2249 H   0  0  0  0  0  0  0  0  0  0  0  0
  156.0129  131.9934  167.6038 H   0  0  0  0  0  0  0  0  0  0  0  0
  153.8244  133.1336  165.7954 H   0  0  0  0  0  0  0  0  0  0  0  0
  157.2120  134.5655  164.8757 H   0  0  0  0  0  0  0  0  0  0  0  0
  155.4689  136.8966  165.9832 H   0  0  0  0  0  0  0  0  0  0  0  0
  151.7282  141.1935  159.1379 H   0  0  0  0  0  0  0  0  0  0  0  0
  150.8600  143.4830  159.5422 H   0  0  0  0  0  0  0  0  0  0  0  0
  151.7953  144.8661  161.3860 H   0  0  0  0  0  0  0  0  0  0  0  0
  153.6074  143.9557  162.8282 H   0  0  0  0  0  0  0  0  0  0  0  0
  154.4852  141.6690  162.4309 H   0  0  0  0  0  0  0  0  0  0  0  0
  155.1562  135.2467  159.7324 H   0  0  0  0  0  0  0  0  0  0  0  0
  154.8088  133.4790  163.3585 H   0  0  0  0  0  0  0  0  0  0  0  0
  156.5196  133.0361  163.1474 H   0  0  0  0  0  0  0  0  0  0  0  0
  156.5075  131.7803  165.2465 H   0  0  0  0  0  0  0  0  0  0  0  0
  153.8225  131.4332  164.4625 H   0  0  0  0  0  0  0  0  0  0  0  0
  154.3943  137.4262  159.6518 H   0  0  0  0  0  0  0  0  0  0  0  0
  1  2  1  0  0  0  0
  1 34  1  0  0  0  0
  1 35  1  0  0  0  0
  1 36  1  0  0  0  0
  2  3  1  0  0  0  0
  2  4  1  0  0  0  0
  2  5  1  0  0  0  0
  3 37  1  0  0  0  0
  3 38  1  0  0  0  0
  3 39  1  0  0  0  0
  4 40  1  0  0  0  0
  4 41  1  0  0  0  0
  4 42  1  0  0  0  0
  5  6  1  0  0  0  0
  5  7  1  0  0  0  0
  5  8  1  0  0  0  0
  6 43  1  0  0  0  0
  6 44  1  0  0  0  0
  6 45  1  0  0  0  0
  7 46  1  0  0  0  0
  7 47  1  0  0  0  0
  7 48  1  0  0  0  0
  8  9  1  0  0  0  0
  9 10  1  0  0  0  0
  9 49  1  0  0  0  0
  9 50  1  0  0  0  0
 10 32  1  0  0  0  0
 10 11  1  0  0  0  0
 10 51  1  0  0  0  0
 11 12  1  0  0  0  0
 12 13  1  0  0  0  0
 12 31  1  0  0  0  0
 12 52  1  0  0  0  0
 13 30  1  0  0  0  0
 13 14  1  0  0  0  0
 14 15  2  0  0  0  0
 14 53  1  0  0  0  0
 15 16  1  0  0  0  0
 16 30  2  0  0  0  0
 16 17  1  0  0  0  0
 17 18  2  0  0  0  0
 17 27  1  0  0  0  0
 18 19  1  0  0  0  0
 19 20  2  0  0  0  0
 19 21  1  0  0  0  0
 21 26  1  0  0  0  0
 21 22  2  0  0  0  0
 22 23  1  0  0  0  0
 22 54  1  0  0  0  0
 23 24  2  0  0  0  0
 23 55  1  0  0  0  0
 24 25  1  0  0  0  0
 24 56  1  0  0  0  0
 25 26  2  0  0  0  0
 25 57  1  0  0  0  0
 26 58  1  0  0  0  0
 27 28  1  0  0  0  0
 27 64  1  0  0  0  0
 28 29  2  0  0  0  0
 28 59  1  0  0  0  0
 29 30  1  0  0  0  0
 31 32  1  0  0  0  0
 31 60  1  0  0  0  0
 31 61  1  0  0  0  0
 32 33  1  0  0  0  0
 32 62  1  0  0  0  0
 33 63  1  0  0  0  0
M  END
> <s_m_source_file>
AV-unprocessed.smi

> <i_m_source_file_index>
36

> <i_lp_mmshare_version>
43012

> <i_f3d_flags>
0

> <s_epik_input>
W0NIM11DKFtDSDNdKShbQ0gzXSlbU2ldKFtDSDNdKShbQ0gzXSlPW0NIMl1bQ0BASF0xT1tDQEhdKFtDSDJdW0NASF0xW09IXSluKFtjSF1uMiljKGMyMyluW2NIXW5jM1tOSF1DKD1PKWM0W2NIXVtjSF1bY0hdW2NIXVtjSF00

> <s_epik_cmdline>
J2VwaWtfcHl0aG9uJywgJy1waCcsICc3LjAnLCAnLXRuJywgJzgnLCAnLW1hJywgJzIwMCcsICctbWV0YWxfYmluZGluZycsICctaW1hZScsICc8aW5maWxlLm1hZT4nLCAnLW9tYWUnLCAnPG91dGZpbGUubWFlPic=

> <r_epik_Ionization_Penalty>
0.0850405

> <r_epik_Ionization_Penalty_Charging>
0.0850403

> <r_epik_Ionization_Penalty_Neutral>
1.47497e-07

> <r_epik_State_Penalty>
2.6133

> <r_epik_Charging_Adjusted_Penalty>
2.69834

> <i_epik_Tot_Q>
0

> <i_epik_Tot_abs_Q>
0

> <r_epik_Metal_State_Penalty>
2.92945

> <b_epik_Metal_Only>
0

> <s_epik_Chemistry_Notes>
This compound contains an acetal/aminal-like group ( X-CH(R)-Y where X, Y are N, S, or O) that may be acid/base labile, releasing an aldehyde.

> <s_lp_Force_Field>
OPLS_2005

> <r_lp_Energy>
45.0835

> <b_lp_Chiralities_Consistent>
1

> <s_lp_Variant>
AV-unprocessed.smi:36-16

> <Gold.Version>
5.8.1

> <Gold.Id.Protein>
6NUR|6NUR_protein|mol2

> <Gold.PLP.Fitness>
59.1388

> <Gold.PLP.PLP>
-58.7328

> <Gold.PLP.part.hbond>
-1.0000

> <Gold.PLP.part.metal>
0.0000

> <Gold.PLP.part.buried>
-8.2374

> <Gold.PLP.part.nonpolar>
-49.5436

> <Gold.PLP.part.repulsive>
0.2376

> <Gold.PLP.ligand.clash>
0.0000

> <Gold.PLP.ligand.torsion>
1.4092

> <Gold.PLP.Chemscore.Hbond>
1.0000

> <Gold.PLP.Chemscore.CHOScore>
0.0000

> <Gold.PLP.Chemscore.Metal>
0.0000

> <Gold.PLP.Chemscore.Internal.Correction>
0.2243

> <Gold.Rescore>
     Score         DG    S(hbond)    S(metal)    S(lipo)     H(rot)  DE(clash)    DE(int)     intcor
     13.92     -16.65       0.95        0.00     127.60       2.70       0.11       2.63       ----

> <Gold.Chemscore.Fitness>
13.9191

> <Gold.Chemscore.DG>
-16.6548

> <Gold.Chemscore.ZeroCoef>
-5.4800

> <Gold.Chemscore.Hbond>
0.9484

> <Gold.Chemscore.Metal>
0.0000

> <Gold.Chemscore.Lipo>
127.6042

> <Gold.Chemscore.Internal_Hbond>
0.0000

> <Gold.Chemscore.DEClash>
0.1054

> <Gold.Chemscore.DEInternal>
2.6304

> <Gold.Chemscore.Rot>
2.7041

> <Gold.Chemscore.Internal.Correction>
   9.000000E+99

> <Gold.Chemscore.Hbonds>
donor molecule, donor type, donor heavy atom, donor atom, acceptor molecule, acceptor atom, score
      P1  H  7997  8010       L1    20  0.02

> <Gold.Chemscore.Hbond.Weighted>
-3.1676

> <Gold.Chemscore.Metal.Weighted>
-0.0000

> <Gold.Chemscore.Lipo.Weighted>
-14.9297

> <Gold.Chemscore.Internal_Hbond.Weighted>
0.0000

> <Gold.Chemscore.DEClash.Weighted>
0.1054

> <Gold.Chemscore.DEInternal.Weighted>
2.6304

> <Gold.Chemscore.Rot.Weighted>
6.9225

> <Gold.Chemscore.Internal.Correction.Weighted>
   9.000000E+99

> <Gold.Protein.RotatedTorsions>
[ 6907 6896 6895 6894 ] final -117.82 input  -60.11 | X-H torsion
[ 7974 7965 7964 7962 ] final  178.35 input  175.53 | X-H torsion
[ 8008 7997 7996 7995 ] final   23.64 input   59.86 | X-H torsion
[ 10167 10162 10161 10158 ] final  102.85 input  -65.29 | X-H torsion
[ 10718 10713 10712 10709 ] final  158.42 input   66.30 | X-H torsion
[ 10763 10752 10751 10750 ] final  -36.59 input  -60.55 | X-H torsion
[ 11005 11000 10999 10996 ] final   92.39 input  -57.11 | X-H torsion

> <Gold.Protein.ActiveResidues>
 VAL166  LYS551  ARG553  GLY616  TRP617  ASP618  TYR619  PRO620  LYS621  CYS622 
 ASP623  PHE694  ASN695  SER759  ASP760  ASP761  ALA762  ILE779  LEU786  VAL792 
 PHE793  MET794  SER795  GLU796  ALA797  LYS798  CYS799  TRP800  GLU811  SER814 

> <Gold.Protein.RotatedAtoms>
  150.8168  133.8322  159.3156 H   0  0  0  0  0  0  0  0  0  0  0  0  # atno 6907 bound_to 6896
  151.6092  135.1040  160.0087 H   0  0  0  0  0  0  0  0  0  0  0  0  # atno 6908 bound_to 6896
  152.4259  133.7154  159.6559 H   0  0  0  0  0  0  0  0  0  0  0  0  # atno 6909 bound_to 6896
  144.7157  140.0384  143.6438 H   0  0  0  0  0  0  0  0  0  0  0  0  # atno 7974 bound_to 7965
  154.9840  140.3105  155.4934 H   0  0  0  0  0  0  0  0  0  0  0  0  # atno 8008 bound_to 7997
  156.2949  140.2261  156.4881 H   0  0  0  0  0  0  0  0  0  0  0  0  # atno 8009 bound_to 7997
  154.7763  140.0449  157.1080 H   0  0  0  0  0  0  0  0  0  0  0  0  # atno 8010 bound_to 7997
  139.7314  144.7035  151.0717 H   0  0  0  0  0  0  0  0  0  0  0  0  # atno 10167 bound_to 10162
  157.1781  131.0626  151.2146 H   0  0  0  0  0  0  0  0  0  0  0  0  # atno 10718 bound_to 10713
  153.8823  135.6820  153.4766 H   0  0  0  0  0  0  0  0  0  0  0  0  # atno 10763 bound_to 10752
  153.1227  135.4733  154.9219 H   0  0  0  0  0  0  0  0  0  0  0  0  # atno 10764 bound_to 10752
  154.7663  135.3225  154.8232 H   0  0  0  0  0  0  0  0  0  0  0  0  # atno 10765 bound_to 10752
  139.8824  134.8730  156.3566 H   0  0  0  0  0  0  0  0  0  0  0  0  # atno 11005 bound_to 11000
  146.0044  139.3117  143.0908 LP  0  0  0  0  0  0  0  0  0  0  0  0  # atno 17320 bound_to 7965
  145.8756  140.9394  143.0628 LP  0  0  0  0  0  0  0  0  0  0  0  0  # atno 17321 bound_to 7965
  140.7772  143.5039  150.9737 LP  0  0  0  0  0  0  0  0  0  0  0  0  # atno 17342 bound_to 10162
  139.8727  143.7172  152.3165 LP  0  0  0  0  0  0  0  0  0  0  0  0  # atno 17343 bound_to 10162
  157.3979  130.7317  149.6745 LP  0  0  0  0  0  0  0  0  0  0  0  0  # atno 17370 bound_to 10713
  155.9728  130.4129  150.4054 LP  0  0  0  0  0  0  0  0  0  0  0  0  # atno 17371 bound_to 10713
  140.9558  133.7421  156.0334 LP  0  0  0  0  0  0  0  0  0  0  0  0  # atno 17394 bound_to 11000
  140.8050  134.3465  157.5428 LP  0  0  0  0  0  0  0  0  0  0  0  0  # atno 17395 bound_to 11000

$$$$
