AV-unprocessed.smi:990|AV-procd|sdf|4327|dock5
  -GOLD-   22720 2233D 1   1.00000     0.00000
 Structure written by MMmdl.
 45 46  0  0  0  0  0  0  0  0  2 V2000
  152.3873  144.9662  158.6287 C   0  0  0  0  0  0  0  0  0  0  0  0
  151.4521  144.2551  159.2761 C   0  0  0  0  0  0  0  0  0  0  0  0
  150.4927  144.8300  160.3001 C   0  0  0  0  0  0  0  0  0  0  0  0
  149.1836  145.0996  159.7168 N   0  0  0  0  0  0  0  0  0  0  0  0
  148.0083  144.8332  160.3046 C   0  0  0  0  0  0  0  0  0  0  0  0
  147.9081  144.3124  161.4155 O   0  0  0  0  0  0  0  0  0  0  0  0
  146.9767  145.1916  159.5202 N   0  0  0  0  0  0  0  0  0  0  0  0
  145.5851  145.0900  159.7907 C   0  0  0  0  0  0  0  0  0  0  0  0
  145.0433  144.4119  160.9117 C   0  0  0  0  0  0  0  0  0  0  0  0
  143.6459  144.3792  161.0950 C   0  0  0  0  0  0  0  0  0  0  0  0
  142.8063  145.0305  160.1625 C   0  0  0  0  0  0  0  0  0  0  0  0
  141.4082  145.0433  160.2580 N   0  0  0  0  0  0  0  0  0  0  0  0
  140.9145  145.9125  161.3183 C   0  0  0  0  0  0  0  0  0  0  0  0
  139.3798  146.0137  161.2727 C   0  0  0  0  0  0  0  0  0  0  0  0
  138.7590  144.6743  161.3070 N   0  0  0  0  0  0  0  0  0  0  0  0
  137.0601  144.5853  161.6421 S   0  0  0  0  0  0  0  0  0  0  0  0
  136.5111  146.3363  161.5015 C   0  0  0  0  0  0  0  0  0  0  0  0
  136.4271  143.8296  160.5505 O   0  0  0  0  0  0  0  0  0  0  0  0
  136.9012  144.1384  163.0343 O   0  0  0  0  0  0  0  0  0  0  0  0
  139.3028  143.7591  160.2839 C   0  0  0  0  0  0  0  0  0  0  0  0
  140.8389  143.7051  160.3498 C   0  0  0  0  0  0  0  0  0  0  0  0
  143.3634  145.6796  159.1169 N   0  3  0  0  0  0  0  0  0  0  0  0
  144.6965  145.7360  158.9057 C   0  0  0  0  0  0  0  0  0  0  0  0
  152.5157  146.0231  158.8103 H   0  0  0  0  0  0  0  0  0  0  0  0
  153.0382  144.4970  157.9058 H   0  0  0  0  0  0  0  0  0  0  0  0
  151.3525  143.2006  159.0622 H   0  0  0  0  0  0  0  0  0  0  0  0
  150.3696  144.1329  161.1295 H   0  0  0  0  0  0  0  0  0  0  0  0
  150.9186  145.7439  160.7172 H   0  0  0  0  0  0  0  0  0  0  0  0
  149.1748  145.5229  158.8002 H   0  0  0  0  0  0  0  0  0  0  0  0
  147.2167  145.5285  158.5993 H   0  0  0  0  0  0  0  0  0  0  0  0
  145.6706  143.9256  161.6424 H   0  0  0  0  0  0  0  0  0  0  0  0
  143.2300  143.8591  161.9454 H   0  0  0  0  0  0  0  0  0  0  0  0
  141.2269  145.5260  162.2895 H   0  0  0  0  0  0  0  0  0  0  0  0
  141.3537  146.9054  161.2141 H   0  0  0  0  0  0  0  0  0  0  0  0
  139.0341  146.6060  162.1195 H   0  0  0  0  0  0  0  0  0  0  0  0
  139.0568  146.5313  160.3683 H   0  0  0  0  0  0  0  0  0  0  0  0
  135.4282  146.3824  161.6150 H   0  0  0  0  0  0  0  0  0  0  0  0
  136.7864  146.7274  160.5224 H   0  0  0  0  0  0  0  0  0  0  0  0
  136.9741  146.9398  162.2808 H   0  0  0  0  0  0  0  0  0  0  0  0
  138.8975  142.7584  160.4260 H   0  0  0  0  0  0  0  0  0  0  0  0
  138.9773  144.0953  159.2984 H   0  0  0  0  0  0  0  0  0  0  0  0
  141.2217  143.0867  159.5367 H   0  0  0  0  0  0  0  0  0  0  0  0
  141.1507  143.2339  161.2832 H   0  0  0  0  0  0  0  0  0  0  0  0
  145.0089  146.2889  158.0312 H   0  0  0  0  0  0  0  0  0  0  0  0
  142.7471  146.1502  158.4534 H   0  0  0  0  0  0  0  0  0  0  0  0
  1  2  2  0  0  0  0
  1 24  1  0  0  0  0
  1 25  1  0  0  0  0
  2  3  1  0  0  0  0
  2 26  1  0  0  0  0
  3  4  1  0  0  0  0
  3 27  1  0  0  0  0
  3 28  1  0  0  0  0
  4  5  1  0  0  0  0
  4 29  1  0  0  0  0
  5  6  2  0  0  0  0
  5  7  1  0  0  0  0
  7  8  1  0  0  0  0
  7 30  1  0  0  0  0
  8 23  1  0  0  0  0
  8  9  2  0  0  0  0
  9 10  1  0  0  0  0
  9 31  1  0  0  0  0
 10 11  2  0  0  0  0
 10 32  1  0  0  0  0
 11 12  1  0  0  0  0
 11 22  1  0  0  0  0
 12 21  1  0  0  0  0
 12 13  1  0  0  0  0
 13 14  1  0  0  0  0
 13 33  1  0  0  0  0
 13 34  1  0  0  0  0
 14 15  1  0  0  0  0
 14 35  1  0  0  0  0
 14 36  1  0  0  0  0
 15 16  1  0  0  0  0
 15 20  1  0  0  0  0
 16 17  1  0  0  0  0
 16 18  2  0  0  0  0
 16 19  2  0  0  0  0
 17 37  1  0  0  0  0
 17 38  1  0  0  0  0
 17 39  1  0  0  0  0
 20 21  1  0  0  0  0
 20 40  1  0  0  0  0
 20 41  1  0  0  0  0
 21 42  1  0  0  0  0
 21 43  1  0  0  0  0
 22 23  2  0  0  0  0
 22 45  1  0  0  0  0
 23 44  1  0  0  0  0
M  CHG  1  22   1
M  END
> <s_m_source_file>
AV-unprocessed.smi

> <i_m_source_file_index>
990

> <i_lp_mmshare_version>
43012

> <i_f3d_flags>
0

> <s_epik_input>
W0NIMl09W0NIXVtDSDJdW05IXUMoPU8pW05IXWMxW2NIXVtjSF1jKG5bY0hdMSlOMltDSDJdW0NIMl1OKFMoPU8pKD1PKVtDSDNdKVtDSDJdW0NIMl0y

> <s_epik_cmdline>
J2VwaWtfcHl0aG9uJywgJy1waCcsICc3LjAnLCAnLXRuJywgJzgnLCAnLW1hJywgJzIwMCcsICctbWV0YWxfYmluZGluZycsICctaW1hZScsICc8aW5maWxlLm1hZT4nLCAnLW9tYWUnLCAnPG91dGZpbGUubWFlPic=

> <r_lp_tautomer_probability>
0.999994

> <r_epik_Ionization_Penalty>
0.881759

> <r_epik_Ionization_Penalty_Charging>
0.881739

> <r_epik_Ionization_Penalty_Neutral>
2.00436e-05

> <r_epik_State_Penalty>
0.920006

> <r_epik_Charging_Adjusted_Penalty>
1.80175

> <i_epik_Tot_Q>
1

> <i_epik_Tot_abs_Q>
1

> <r_epik_Metal_State_Penalty>
1.04263

> <b_epik_Metal_Only>
0

> <s_lp_Force_Field>
OPLS_2005

> <r_lp_Energy>
28.5026

> <b_lp_Chiralities_Consistent>
1

> <s_lp_Variant>
AV-unprocessed.smi:990-2

> <Gold.Version>
5.8.1

> <Gold.Id.Protein>
6NUR|6NUR_protein|mol2

> <Gold.PLP.Fitness>
38.8411

> <Gold.PLP.PLP>
-31.2325

> <Gold.PLP.part.hbond>
-4.9737

> <Gold.PLP.part.metal>
0.0000

> <Gold.PLP.part.buried>
-6.1441

> <Gold.PLP.part.nonpolar>
-21.5042

> <Gold.PLP.part.repulsive>
0.5138

> <Gold.PLP.ligand.clash>
0.0000

> <Gold.PLP.ligand.torsion>
0.7888

> <Gold.PLP.Chemscore.Hbond>
2.8233

> <Gold.PLP.Chemscore.CHOScore>
0.0000

> <Gold.PLP.Chemscore.Metal>
0.0000

> <Gold.Chemscore.Hbonds>
donor molecule, donor type, donor heavy atom, donor atom, acceptor molecule, acceptor atom, score
      L1  H     4    29       P1  8029  0.83
      L1  H     7    30       P1  8029  0.98
      P1  H  6933  6944       L1     6  1.00

> <Gold.PLP.Chemscore.Internal.Correction>
0.7165

> <Gold.Rescore>
     Score         DG    S(hbond)    S(metal)    S(lipo)     H(rot)  DE(clash)    DE(int)     intcor
     17.01     -18.93       2.84        0.00      72.79       1.77       0.00       1.92       ----

> <Gold.Chemscore.Fitness>
17.0051

> <Gold.Chemscore.DG>
-18.9304

> <Gold.Chemscore.ZeroCoef>
-5.4800

> <Gold.Chemscore.Hbond>
2.8357

> <Gold.Chemscore.Metal>
0.0000

> <Gold.Chemscore.Lipo>
72.7895

> <Gold.Chemscore.Internal_Hbond>
0.0000

> <Gold.Chemscore.DEClash>
0.0021

> <Gold.Chemscore.DEInternal>
1.9231

> <Gold.Chemscore.Rot>
1.7723

> <Gold.Chemscore.Internal.Correction>
   9.000000E+99

> <Gold.Chemscore.Hbonds>
donor molecule, donor type, donor heavy atom, donor atom, acceptor molecule, acceptor atom, score
      L1  H     4    29       P1  8029  0.76
      L1  H     7    30       P1  8029  0.92
      P1  H  6933  6944       L1     6  0.81

> <Gold.Chemscore.Hbond.Weighted>
-9.4711

> <Gold.Chemscore.Metal.Weighted>
-0.0000

> <Gold.Chemscore.Lipo.Weighted>
-8.5164

> <Gold.Chemscore.Internal_Hbond.Weighted>
0.0000

> <Gold.Chemscore.DEClash.Weighted>
0.0021

> <Gold.Chemscore.DEInternal.Weighted>
1.9231

> <Gold.Chemscore.Rot.Weighted>
4.5371

> <Gold.Chemscore.Internal.Correction.Weighted>
   9.000000E+99

> <Gold.Protein.RotatedTorsions>
[ 6907 6896 6895 6894 ] final -169.73 input  -60.11 | X-H torsion
[ 7974 7965 7964 7962 ] final   -5.09 input  175.53 | X-H torsion
[ 8008 7997 7996 7995 ] final   88.06 input   59.86 | X-H torsion
[ 10167 10162 10161 10158 ] final   38.89 input  -65.29 | X-H torsion
[ 10718 10713 10712 10709 ] final  -29.95 input   66.30 | X-H torsion
[ 10763 10752 10751 10750 ] final  -21.32 input  -60.55 | X-H torsion
[ 11005 11000 10999 10996 ] final -107.28 input  -57.11 | X-H torsion

> <Gold.Protein.ActiveResidues>
 VAL166  LYS551  ARG553  GLY616  TRP617  ASP618  TYR619  PRO620  LYS621  CYS622 
 ASP623  PHE694  ASN695  SER759  ASP760  ASP761  ALA762  ILE779  LEU786  VAL792 
 PHE793  MET794  SER795  GLU796  ALA797  LYS798  CYS799  TRP800  GLU811  SER814 

> <Gold.Protein.RotatedAtoms>
  151.4964  133.3514  159.2861 H   0  0  0  0  0  0  0  0  0  0  0  0  # atno 6907 bound_to 6896
  150.8801  134.8193  159.7230 H   0  0  0  0  0  0  0  0  0  0  0  0  # atno 6908 bound_to 6896
  152.4757  134.4860  159.9732 H   0  0  0  0  0  0  0  0  0  0  0  0  # atno 6909 bound_to 6896
  146.2360  140.1968  142.8333 H   0  0  0  0  0  0  0  0  0  0  0  0  # atno 7974 bound_to 7965
  155.9831  140.3375  155.6682 H   0  0  0  0  0  0  0  0  0  0  0  0  # atno 8008 bound_to 7997
  155.6521  140.0707  157.2601 H   0  0  0  0  0  0  0  0  0  0  0  0  # atno 8009 bound_to 7997
  154.4197  140.1723  156.1674 H   0  0  0  0  0  0  0  0  0  0  0  0  # atno 8010 bound_to 7997
  140.3893  144.1874  150.6130 H   0  0  0  0  0  0  0  0  0  0  0  0  # atno 10167 bound_to 10162
  156.4059  130.4399  149.7287 H   0  0  0  0  0  0  0  0  0  0  0  0  # atno 10718 bound_to 10713
  153.6343  135.6987  153.5264 H   0  0  0  0  0  0  0  0  0  0  0  0  # atno 10763 bound_to 10752
  153.2834  135.4179  155.1099 H   0  0  0  0  0  0  0  0  0  0  0  0  # atno 10764 bound_to 10752
  154.8514  135.3607  154.5886 H   0  0  0  0  0  0  0  0  0  0  0  0  # atno 10765 bound_to 10752
  141.0962  133.8967  157.1957 H   0  0  0  0  0  0  0  0  0  0  0  0  # atno 11005 bound_to 11000
  144.9813  140.8462  143.5395 LP  0  0  0  0  0  0  0  0  0  0  0  0  # atno 17320 bound_to 7965
  145.1962  139.2275  143.5217 LP  0  0  0  0  0  0  0  0  0  0  0  0  # atno 17321 bound_to 7965
  140.4856  143.2364  151.8892 LP  0  0  0  0  0  0  0  0  0  0  0  0  # atno 17342 bound_to 10162
  139.4790  144.5222  151.8786 LP  0  0  0  0  0  0  0  0  0  0  0  0  # atno 17343 bound_to 10162
  156.4285  130.7803  151.2823 LP  0  0  0  0  0  0  0  0  0  0  0  0  # atno 17370 bound_to 10713
  157.7505  131.0161  150.3531 LP  0  0  0  0  0  0  0  0  0  0  0  0  # atno 17371 bound_to 10713
  139.9799  135.0101  156.9724 LP  0  0  0  0  0  0  0  0  0  0  0  0  # atno 17394 bound_to 11000
  140.5135  134.0979  155.7275 LP  0  0  0  0  0  0  0  0  0  0  0  0  # atno 17395 bound_to 11000

$$$$
