AV-unprocessed.smi:3132|AV-procd|sdf|11931|dock9
  -GOLD-   2272017323D 1   1.00000     0.00000
 Structure written by MMmdl.
 34 35  0  0  0  0  0  0  0  0  2 V2000
  148.0555  131.7474  154.0595 C   0  0  0  0  0  0  0  0  0  0  0  0
  147.2639  131.6251  152.7507 C   0  0  2  0  0  0  0  0  0  0  0  0
  145.7916  132.0466  152.9467 C   0  0  0  0  0  0  0  0  0  0  0  0
  145.1020  132.3318  151.6840 N   0  0  0  0  0  0  0  0  0  0  0  0
  145.5883  132.1622  150.4130 C   0  0  0  0  0  0  0  0  0  0  0  0
  144.5971  132.5700  149.5581 C   0  0  0  0  0  0  0  0  0  0  0  0
  143.5466  132.9651  150.3425 N   0  3  0  0  0  0  0  0  0  0  0  0
  143.8538  132.8151  151.6348 C   0  0  0  0  0  0  0  0  0  0  0  0
  147.3578  130.2474  152.2697 N   0  0  0  0  0  0  0  0  0  0  0  0
  147.1634  129.1391  153.0038 C   0  0  0  0  0  0  0  0  0  0  0  0
  146.9057  129.1683  154.2076 O   0  0  0  0  0  0  0  0  0  0  0  0
  147.3078  127.7898  152.2852 C   0  0  1  0  0  0  0  0  0  0  0  0
  147.6352  127.9037  150.7838 C   0  0  0  0  0  0  0  0  0  0  0  0
  148.9149  127.1001  150.6213 C   0  0  0  0  0  0  0  0  0  0  0  0
  148.9014  126.1910  151.8424 C   0  0  0  0  0  0  0  0  0  0  0  0
  148.3835  127.0419  152.8500 O   0  0  0  0  0  0  0  0  0  0  0  0
  148.0380  132.7712  154.4345 H   0  0  0  0  0  0  0  0  0  0  0  0
  149.1001  131.4691  153.9150 H   0  0  0  0  0  0  0  0  0  0  0  0
  147.6433  131.1021  154.8362 H   0  0  0  0  0  0  0  0  0  0  0  0
  147.7321  132.2983  152.0302 H   0  0  0  0  0  0  0  0  0  0  0  0
  145.2324  131.2711  153.4722 H   0  0  0  0  0  0  0  0  0  0  0  0
  145.7322  132.9478  153.5588 H   0  0  0  0  0  0  0  0  0  0  0  0
  146.5800  131.7811  150.2167 H   0  0  0  0  0  0  0  0  0  0  0  0
  144.5618  132.6084  148.4790 H   0  0  0  0  0  0  0  0  0  0  0  0
  143.2221  133.0486  152.4735 H   0  0  0  0  0  0  0  0  0  0  0  0
  147.5666  130.1221  151.2892 H   0  0  0  0  0  0  0  0  0  0  0  0
  146.3862  127.2213  152.4182 H   0  0  0  0  0  0  0  0  0  0  0  0
  146.8304  127.4628  150.1948 H   0  0  0  0  0  0  0  0  0  0  0  0
  147.7722  128.9287  150.4361 H   0  0  0  0  0  0  0  0  0  0  0  0
  148.9585  126.5503  149.6809 H   0  0  0  0  0  0  0  0  0  0  0  0
  149.7783  127.7650  150.6672 H   0  0  0  0  0  0  0  0  0  0  0  0
  148.2323  125.3417  151.6950 H   0  0  0  0  0  0  0  0  0  0  0  0
  149.8912  125.8146  152.1005 H   0  0  0  0  0  0  0  0  0  0  0  0
  142.6645  133.3219  149.9969 H   0  0  0  0  0  0  0  0  0  0  0  0
  1  2  1  0  0  0  0
  1 17  1  0  0  0  0
  1 18  1  0  0  0  0
  1 19  1  0  0  0  0
  2  3  1  0  0  0  0
  2  9  1  0  0  0  0
  2 20  1  0  0  0  0
  3  4  1  0  0  0  0
  3 21  1  0  0  0  0
  3 22  1  0  0  0  0
  4  8  1  0  0  0  0
  4  5  1  0  0  0  0
  5  6  2  0  0  0  0
  5 23  1  0  0  0  0
  6  7  1  0  0  0  0
  6 24  1  0  0  0  0
  7  8  2  0  0  0  0
  7 34  1  0  0  0  0
  8 25  1  0  0  0  0
  9 10  1  0  0  0  0
  9 26  1  0  0  0  0
 10 11  2  0  0  0  0
 10 12  1  0  0  0  0
 12 16  1  0  0  0  0
 12 13  1  0  0  0  0
 12 27  1  0  0  0  0
 13 14  1  0  0  0  0
 13 28  1  0  0  0  0
 13 29  1  0  0  0  0
 14 15  1  0  0  0  0
 14 30  1  0  0  0  0
 14 31  1  0  0  0  0
 15 16  1  0  0  0  0
 15 32  1  0  0  0  0
 15 33  1  0  0  0  0
M  CHG  1   7   1
M  END
> <s_m_source_file>
AV-unprocessed.smi

> <i_m_source_file_index>
3132

> <i_lp_mmshare_version>
43012

> <i_f3d_flags>
0

> <s_epik_input>
W2NIXTFuW2NIXVtjSF1uMVtDSDJdW0NAQEhdKFtDSDNdKVtOSF1DKD1PKVtDQEBIXTJbQ0gyXVtDSDJdW0NIMl1PMg==

> <s_epik_cmdline>
J2VwaWtfcHl0aG9uJywgJy1waCcsICc3LjAnLCAnLXRuJywgJzgnLCAnLW1hJywgJzIwMCcsICctbWV0YWxfYmluZGluZycsICctaW1hZScsICc8aW5maWxlLm1hZT4nLCAnLW9tYWUnLCAnPG91dGZpbGUubWFlPic=

> <r_lp_tautomer_probability>
1

> <r_epik_Ionization_Penalty>
0.250802

> <r_epik_Ionization_Penalty_Charging>
0

> <r_epik_Ionization_Penalty_Neutral>
0.250802

> <r_epik_State_Penalty>
0.242139

> <r_epik_Charging_Adjusted_Penalty>
0.242139

> <i_epik_Tot_Q>
1

> <i_epik_Tot_abs_Q>
1

> <r_epik_Metal_State_Penalty>
0.533361

> <b_epik_Metal_Only>
0

> <s_lp_Force_Field>
OPLS_2005

> <r_lp_Energy>
20.312

> <b_lp_Chiralities_Consistent>
1

> <s_lp_Variant>
AV-unprocessed.smi:3132-3

> <Gold.Version>
5.8.1

> <Gold.Id.Protein>
6NUR|6NUR_protein|mol2

> <Gold.PLP.Fitness>
44.0269

> <Gold.PLP.PLP>
-32.0417

> <Gold.PLP.part.hbond>
-2.0000

> <Gold.PLP.part.metal>
0.0000

> <Gold.PLP.part.buried>
-4.6934

> <Gold.PLP.part.nonpolar>
-26.2982

> <Gold.PLP.part.repulsive>
0.2179

> <Gold.PLP.ligand.clash>
0.0000

> <Gold.PLP.ligand.torsion>
0.3280

> <Gold.PLP.Chemscore.Hbond>
2.5600

> <Gold.PLP.Chemscore.CHOScore>
1.6485

> <Gold.PLP.Chemscore.Metal>
0.0000

> <Gold.Chemscore.Hbonds>
donor molecule, donor type, donor heavy atom, donor atom, acceptor molecule, acceptor atom, score
      L1  H     7    34       P1 10186  1.95
      L1  H     9    26       P1 10747  0.59
      L1  C     5    23       P1 10747  0.93
      L1  C     8    25       P1 10957  0.62

> <Gold.PLP.Chemscore.Internal.Correction>
0.0158

> <Gold.Rescore>
     Score         DG    S(hbond)    S(metal)    S(lipo)     H(rot)  DE(clash)    DE(int)     intcor
     12.61     -14.38       1.61        0.00      72.41       1.93       0.12       1.65       ----

> <Gold.Chemscore.Fitness>
12.6087

> <Gold.Chemscore.DG>
-14.3833

> <Gold.Chemscore.ZeroCoef>
-5.4800

> <Gold.Chemscore.Hbond>
1.6089

> <Gold.Chemscore.Metal>
0.0000

> <Gold.Chemscore.Lipo>
72.4140

> <Gold.Chemscore.Internal_Hbond>
0.0000

> <Gold.Chemscore.DEClash>
0.1229

> <Gold.Chemscore.DEInternal>
1.6516

> <Gold.Chemscore.Rot>
1.9308

> <Gold.Chemscore.Internal.Correction>
   9.000000E+99

> <Gold.Chemscore.Hbonds>
donor molecule, donor type, donor heavy atom, donor atom, acceptor molecule, acceptor atom, score
      L1  H     7    34       P1 10186  0.92
      L1  H     9    26       P1 10747  0.60

> <Gold.Chemscore.Hbond.Weighted>
-5.3738

> <Gold.Chemscore.Metal.Weighted>
-0.0000

> <Gold.Chemscore.Lipo.Weighted>
-8.4724

> <Gold.Chemscore.Internal_Hbond.Weighted>
0.0000

> <Gold.Chemscore.DEClash.Weighted>
0.1229

> <Gold.Chemscore.DEInternal.Weighted>
1.6516

> <Gold.Chemscore.Rot.Weighted>
4.9429

> <Gold.Chemscore.Internal.Correction.Weighted>
   9.000000E+99

> <Gold.Protein.RotatedTorsions>
[ 6907 6896 6895 6894 ] final -136.50 input  -60.11 | X-H torsion
[ 7974 7965 7964 7962 ] final  -17.15 input  175.53 | X-H torsion
[ 8008 7997 7996 7995 ] final   89.00 input   59.86 | X-H torsion
[ 10167 10162 10161 10158 ] final -169.86 input  -65.29 | X-H torsion
[ 10718 10713 10712 10709 ] final   89.73 input   66.30 | X-H torsion
[ 10763 10752 10751 10750 ] final  -95.05 input  -60.55 | X-H torsion
[ 11005 11000 10999 10996 ] final   38.05 input  -57.11 | X-H torsion

> <Gold.Protein.ActiveResidues>
 VAL166  LYS551  ARG553  GLY616  TRP617  ASP618  TYR619  PRO620  LYS621  CYS622 
 ASP623  PHE694  ASN695  SER759  ASP760  ASP761  ALA762  ILE779  LEU786  VAL792 
 PHE793  MET794  SER795  GLU796  ALA797  LYS798  CYS799  TRP800  GLU811  SER814 

> <Gold.Protein.RotatedAtoms>
  151.0108  133.5967  159.2682 H   0  0  0  0  0  0  0  0  0  0  0  0  # atno 6907 bound_to 6896
  151.3119  135.0795  159.9285 H   0  0  0  0  0  0  0  0  0  0  0  0  # atno 6908 bound_to 6896
  152.5299  133.9771  159.7843 H   0  0  0  0  0  0  0  0  0  0  0  0  # atno 6909 bound_to 6896
  146.1954  140.3738  142.8442 H   0  0  0  0  0  0  0  0  0  0  0  0  # atno 7974 bound_to 7965
  155.9946  140.3365  155.6786 H   0  0  0  0  0  0  0  0  0  0  0  0  # atno 8008 bound_to 7997
  155.6373  140.0691  157.2648 H   0  0  0  0  0  0  0  0  0  0  0  0  # atno 8009 bound_to 7997
  154.4230  140.1749  156.1523 H   0  0  0  0  0  0  0  0  0  0  0  0  # atno 8010 bound_to 7997
  139.5897  144.1240  152.1619 H   0  0  0  0  0  0  0  0  0  0  0  0  # atno 10167 bound_to 10162
  157.6956  131.0344  150.3471 H   0  0  0  0  0  0  0  0  0  0  0  0  # atno 10718 bound_to 10713
  154.7113  135.5135  153.8670 H   0  0  0  0  0  0  0  0  0  0  0  0  # atno 10763 bound_to 10752
  153.0782  135.6623  154.0109 H   0  0  0  0  0  0  0  0  0  0  0  0  # atno 10764 bound_to 10752
  153.9950  135.3016  155.3388 H   0  0  0  0  0  0  0  0  0  0  0  0  # atno 10765 bound_to 10752
  140.2164  134.3693  155.8025 H   0  0  0  0  0  0  0  0  0  0  0  0  # atno 11005 bound_to 11000
  144.8570  140.7085  143.6131 LP  0  0  0  0  0  0  0  0  0  0  0  0  # atno 17320 bound_to 7965
  145.3659  139.1670  143.4358 LP  0  0  0  0  0  0  0  0  0  0  0  0  # atno 17321 bound_to 7965
  140.0812  144.5699  150.7121 LP  0  0  0  0  0  0  0  0  0  0  0  0  # atno 17342 bound_to 10162
  140.7162  143.2547  151.4426 LP  0  0  0  0  0  0  0  0  0  0  0  0  # atno 17343 bound_to 10162
  156.3924  130.3900  149.7020 LP  0  0  0  0  0  0  0  0  0  0  0  0  # atno 17370 bound_to 10713
  156.4365  130.7840  151.2861 LP  0  0  0  0  0  0  0  0  0  0  0  0  # atno 17371 bound_to 10713
  141.2224  133.7170  156.8503 LP  0  0  0  0  0  0  0  0  0  0  0  0  # atno 17394 bound_to 11000
  140.1896  134.8975  157.3044 LP  0  0  0  0  0  0  0  0  0  0  0  0  # atno 17395 bound_to 11000

$$$$
