AV-unprocessed.smi:249|AV-procd|sdf|1898|dock6
  -GOLD-   2262020573D 1   1.00000     0.00000
 Structure written by MMmdl.
 64 67  0  0  0  0  0  0  0  0  2 V2000
  151.8655  145.3741  159.4037 C   0  0  0  0  0  0  0  0  0  0  0  0
  150.8981  144.4311  160.1378 C   0  0  0  0  0  0  0  0  0  0  0  0
  151.4869  143.0949  160.4435 N   0  3  2  0  0  0  0  0  0  0  0  0
  152.8322  143.2134  161.0766 C   0  0  0  0  0  0  0  0  0  0  0  0
  153.3872  141.8522  161.5166 C   0  0  0  0  0  0  0  0  0  0  0  0
  153.4732  140.8906  160.3205 C   0  0  1  0  0  0  0  0  0  0  0  0
  154.0764  139.5935  160.6562 N   0  0  0  0  0  0  0  0  0  0  0  0
  153.6817  138.4441  159.8495 C   0  0  0  0  0  0  0  0  0  0  0  0
  155.3834  139.5851  161.0117 C   0  0  0  0  0  0  0  0  0  0  0  0
  155.7479  139.1313  162.2398 N   0  0  0  0  0  0  0  0  0  0  0  0
  157.0377  139.1143  162.5903 C   0  0  0  0  0  0  0  0  0  0  0  0
  158.1005  139.4986  161.8804 N   0  0  0  0  0  0  0  0  0  0  0  0
  157.7353  139.9634  160.6513 C   0  0  0  0  0  0  0  0  0  0  0  0
  156.4094  140.0428  160.1422 C   0  0  0  0  0  0  0  0  0  0  0  0
  156.4219  140.5712  158.8573 N   0  0  0  0  0  0  0  0  0  0  0  0
  157.6864  140.7900  158.6180 C   0  0  0  0  0  0  0  0  0  0  0  0
  158.5447  140.4457  159.6378 N   0  0  0  0  0  0  0  0  0  0  0  0
  159.9910  140.5799  159.6337 C   0  0  0  0  0  0  0  0  0  0  0  0
  160.4687  142.0390  159.4297 C   0  0  2  0  0  0  0  0  0  0  0  0
  160.0709  142.6142  158.0479 C   0  0  0  0  0  0  0  0  0  0  0  0
  160.8633  142.0696  157.0128 O   0  0  0  0  0  0  0  0  0  0  0  0
  161.9856  142.1865  159.7105 C   0  0  2  0  0  0  0  0  0  0  0  0
  162.4545  141.5804  161.0216 C   0  0  0  0  0  0  0  0  0  0  0  0
  163.7995  142.2675  161.2257 C   0  0  0  0  0  0  0  0  0  0  0  0
  163.6405  143.5755  160.6900 O   0  0  0  0  0  0  0  0  0  0  0  0
  162.4693  143.6313  159.8811 C   0  0  0  0  0  0  0  0  0  0  0  0
  152.0760  140.7817  159.6837 C   0  0  0  0  0  0  0  0  0  0  0  0
  151.5143  142.1592  159.2716 C   0  0  1  0  0  0  0  0  0  0  0  0
  150.1291  141.9487  158.6249 C   0  0  0  0  0  0  0  0  0  0  0  0
  151.4502  146.3811  159.3561 H   0  0  0  0  0  0  0  0  0  0  0  0
  152.0507  145.0635  158.3759 H   0  0  0  0  0  0  0  0  0  0  0  0
  152.8238  145.4387  159.9202 H   0  0  0  0  0  0  0  0  0  0  0  0
  150.6285  144.9458  161.0570 H   0  0  0  0  0  0  0  0  0  0  0  0
  149.9765  144.3109  159.5668 H   0  0  0  0  0  0  0  0  0  0  0  0
  153.5225  143.6909  160.3791 H   0  0  0  0  0  0  0  0  0  0  0  0
  152.7893  143.8486  161.9595 H   0  0  0  0  0  0  0  0  0  0  0  0
  154.3710  141.9958  161.9637 H   0  0  0  0  0  0  0  0  0  0  0  0
  152.7470  141.4385  162.2965 H   0  0  0  0  0  0  0  0  0  0  0  0
  154.1325  141.3418  159.5778 H   0  0  0  0  0  0  0  0  0  0  0  0
  154.0124  137.5151  160.3157 H   0  0  0  0  0  0  0  0  0  0  0  0
  154.1079  138.4942  158.8472 H   0  0  0  0  0  0  0  0  0  0  0  0
  152.5965  138.4013  159.7555 H   0  0  0  0  0  0  0  0  0  0  0  0
  157.2487  138.7399  163.5812 H   0  0  0  0  0  0  0  0  0  0  0  0
  158.0320  141.2072  157.6831 H   0  0  0  0  0  0  0  0  0  0  0  0
  160.3582  140.1852  160.5813 H   0  0  0  0  0  0  0  0  0  0  0  0
  160.4005  139.9359  158.8545 H   0  0  0  0  0  0  0  0  0  0  0  0
  159.9469  142.6453  160.1718 H   0  0  0  0  0  0  0  0  0  0  0  0
  159.0218  142.4172  157.8271 H   0  0  0  0  0  0  0  0  0  0  0  0
  160.1796  143.6986  158.0341 H   0  0  0  0  0  0  0  0  0  0  0  0
  160.7324  142.5828  156.2302 H   0  0  0  0  0  0  0  0  0  0  0  0
  162.5533  141.7241  158.9011 H   0  0  0  0  0  0  0  0  0  0  0  0
  161.7721  141.8434  161.8313 H   0  0  0  0  0  0  0  0  0  0  0  0
  162.5439  140.4941  160.9882 H   0  0  0  0  0  0  0  0  0  0  0  0
  164.1009  142.2970  162.2730 H   0  0  0  0  0  0  0  0  0  0  0  0
  164.5786  141.7529  160.6617 H   0  0  0  0  0  0  0  0  0  0  0  0
  162.6770  144.1142  158.9260 H   0  0  0  0  0  0  0  0  0  0  0  0
  161.7240  144.2306  160.4058 H   0  0  0  0  0  0  0  0  0  0  0  0
  152.1305  140.1342  158.8077 H   0  0  0  0  0  0  0  0  0  0  0  0
  151.3781  140.3101  160.3775 H   0  0  0  0  0  0  0  0  0  0  0  0
  152.1777  142.5855  158.5171 H   0  0  0  0  0  0  0  0  0  0  0  0
  150.1619  141.1450  157.8883 H   0  0  0  0  0  0  0  0  0  0  0  0
  149.7814  142.8308  158.0885 H   0  0  0  0  0  0  0  0  0  0  0  0
  149.3783  141.6789  159.3685 H   0  0  0  0  0  0  0  0  0  0  0  0
  150.8810  142.6685  161.1301 H   0  0  0  0  0  0  0  0  0  0  0  0
  1  2  1  0  0  0  0
  1 30  1  0  0  0  0
  1 31  1  0  0  0  0
  1 32  1  0  0  0  0
  2  3  1  0  0  0  0
  2 33  1  0  0  0  0
  2 34  1  0  0  0  0
  3 28  1  0  0  0  0
  3  4  1  0  0  0  0
  3 64  1  0  0  0  0
  4  5  1  0  0  0  0
  4 35  1  0  0  0  0
  4 36  1  0  0  0  0
  5  6  1  0  0  0  0
  5 37  1  0  0  0  0
  5 38  1  0  0  0  0
  6  7  1  0  0  0  0
  6 27  1  0  0  0  0
  6 39  1  0  0  0  0
  7  8  1  0  0  0  0
  7  9  1  0  0  0  0
  8 40  1  0  0  0  0
  8 41  1  0  0  0  0
  8 42  1  0  0  0  0
  9 14  1  0  0  0  0
  9 10  2  0  0  0  0
 10 11  1  0  0  0  0
 11 12  2  0  0  0  0
 11 43  1  0  0  0  0
 12 13  1  0  0  0  0
 13 17  1  0  0  0  0
 13 14  2  0  0  0  0
 14 15  1  0  0  0  0
 15 16  2  0  0  0  0
 16 17  1  0  0  0  0
 16 44  1  0  0  0  0
 17 18  1  0  0  0  0
 18 19  1  0  0  0  0
 18 45  1  0  0  0  0
 18 46  1  0  0  0  0
 19 20  1  0  0  0  0
 19 22  1  0  0  0  0
 19 47  1  0  0  0  0
 20 21  1  0  0  0  0
 20 48  1  0  0  0  0
 20 49  1  0  0  0  0
 21 50  1  0  0  0  0
 22 26  1  0  0  0  0
 22 23  1  0  0  0  0
 22 51  1  0  0  0  0
 23 24  1  0  0  0  0
 23 52  1  0  0  0  0
 23 53  1  0  0  0  0
 24 25  1  0  0  0  0
 24 54  1  0  0  0  0
 24 55  1  0  0  0  0
 25 26  1  0  0  0  0
 26 56  1  0  0  0  0
 26 57  1  0  0  0  0
 27 28  1  0  0  0  0
 27 58  1  0  0  0  0
 27 59  1  0  0  0  0
 28 29  1  0  0  0  0
 28 60  1  0  0  0  0
 29 61  1  0  0  0  0
 29 62  1  0  0  0  0
 29 63  1  0  0  0  0
M  CHG  1   3   1
M  END
> <s_m_source_file>
AV-unprocessed.smi

> <i_m_source_file_index>
249

> <i_lp_mmshare_version>
43012

> <i_f3d_flags>
0

> <s_epik_input>
W0NIM11bQ0gyXU4xW0NIMl1bQ0gyXVtDQEhdKFtDSDJdW0NASF0xW0NIM10pTihbQ0gzXSljKG5bY0hdbjIpYyhjMjMpbltjSF1uM1tDSDJdW0NASF0oW0NIMl1bT0hdKVtDQEBIXTRbQ0gyXVtDSDJdT1tDSDJdNA==

> <s_epik_cmdline>
J2VwaWtfcHl0aG9uJywgJy1waCcsICc3LjAnLCAnLXRuJywgJzgnLCAnLW1hJywgJzIwMCcsICctbWV0YWxfYmluZGluZycsICctaW1hZScsICc8aW5maWxlLm1hZT4nLCAnLW9tYWUnLCAnPG91dGZpbGUubWFlPic=

> <r_lp_tautomer_probability>
1

> <r_epik_Ionization_Penalty>
0.00294688

> <r_epik_Ionization_Penalty_Charging>
0.00169971

> <r_epik_Ionization_Penalty_Neutral>
0.00124717

> <r_epik_State_Penalty>
-0

> <r_epik_Charging_Adjusted_Penalty>
0.00169971

> <i_epik_Tot_Q>
1

> <i_epik_Tot_abs_Q>
1

> <r_epik_Metal_State_Penalty>
-0

> <b_epik_Metal_Only>
0

> <s_lp_Force_Field>
OPLS_2005

> <r_lp_Energy>
53.6814

> <b_lp_Chiralities_Consistent>
1

> <s_lp_Variant>
AV-unprocessed.smi:249-1

> <Gold.Version>
5.8.1

> <Gold.Id.Protein>
6NUR|6NUR_protein|mol2

> <Gold.PLP.Fitness>
47.7454

> <Gold.PLP.PLP>
-43.3132

> <Gold.PLP.part.hbond>
-4.3942

> <Gold.PLP.part.metal>
0.0000

> <Gold.PLP.part.buried>
-3.9040

> <Gold.PLP.part.nonpolar>
-34.4455

> <Gold.PLP.part.repulsive>
0.1304

> <Gold.PLP.ligand.clash>
0.0000

> <Gold.PLP.ligand.torsion>
1.0259

> <Gold.PLP.Chemscore.Hbond>
1.8792

> <Gold.PLP.Chemscore.CHOScore>
0.0000

> <Gold.PLP.Chemscore.Metal>
0.0000

> <Gold.Chemscore.Hbonds>
donor molecule, donor type, donor heavy atom, donor atom, acceptor molecule, acceptor atom, score
      L1  H    21    50       P1   811  0.29
      P1  H  7997  8009       L1    15  0.77

> <Gold.PLP.Chemscore.Internal.Correction>
0.8464

> <Gold.Rescore>
     Score         DG    S(hbond)    S(metal)    S(lipo)     H(rot)  DE(clash)    DE(int)     intcor
     12.27     -14.67       1.31        0.00     104.61       2.90       1.75       0.64       ----

> <Gold.Chemscore.Fitness>
12.2699

> <Gold.Chemscore.DG>
-14.6689

> <Gold.Chemscore.ZeroCoef>
-5.4800

> <Gold.Chemscore.Hbond>
1.3098

> <Gold.Chemscore.Metal>
0.0000

> <Gold.Chemscore.Lipo>
104.6134

> <Gold.Chemscore.Internal_Hbond>
0.0000

> <Gold.Chemscore.DEClash>
1.7549

> <Gold.Chemscore.DEInternal>
0.6442

> <Gold.Chemscore.Rot>
2.9006

> <Gold.Chemscore.Internal.Correction>
   9.000000E+99

> <Gold.Chemscore.Hbonds>
donor molecule, donor type, donor heavy atom, donor atom, acceptor molecule, acceptor atom, score
      L1  H    21    50       P1   811  0.06
      P1  H  7997  8009       L1    15  0.30

> <Gold.Chemscore.Hbond.Weighted>
-4.3748

> <Gold.Chemscore.Metal.Weighted>
-0.0000

> <Gold.Chemscore.Lipo.Weighted>
-12.2398

> <Gold.Chemscore.Internal_Hbond.Weighted>
0.0000

> <Gold.Chemscore.DEClash.Weighted>
1.7549

> <Gold.Chemscore.DEInternal.Weighted>
0.6442

> <Gold.Chemscore.Rot.Weighted>
7.4256

> <Gold.Chemscore.Internal.Correction.Weighted>
   9.000000E+99

> <Gold.Protein.RotatedTorsions>
[ 6907 6896 6895 6894 ] final   -9.78 input  -60.11 | X-H torsion
[ 7974 7965 7964 7962 ] final  -17.35 input  175.53 | X-H torsion
[ 8008 7997 7996 7995 ] final   80.24 input   59.86 | X-H torsion
[ 10167 10162 10161 10158 ] final   29.74 input  -65.29 | X-H torsion
[ 10718 10713 10712 10709 ] final  -81.63 input   66.30 | X-H torsion
[ 10763 10752 10751 10750 ] final -143.33 input  -60.55 | X-H torsion
[ 11005 11000 10999 10996 ] final  139.43 input  -57.11 | X-H torsion

> <Gold.Protein.ActiveResidues>
 VAL166  LYS551  ARG553  GLY616  TRP617  ASP618  TYR619  PRO620  LYS621  CYS622 
 ASP623  PHE694  ASN695  SER759  ASP760  ASP761  ALA762  ILE779  LEU786  VAL792 
 PHE793  MET794  SER795  GLU796  ALA797  LYS798  CYS799  TRP800  GLU811  SER814 

> <Gold.Protein.RotatedAtoms>
  151.4123  135.0987  159.9588 H   0  0  0  0  0  0  0  0  0  0  0  0  # atno 6907 bound_to 6896
  152.5016  133.8785  159.7345 H   0  0  0  0  0  0  0  0  0  0  0  0  # atno 6908 bound_to 6896
  150.9283  133.6740  159.2844 H   0  0  0  0  0  0  0  0  0  0  0  0  # atno 6909 bound_to 6896
  146.1945  140.3766  142.8446 H   0  0  0  0  0  0  0  0  0  0  0  0  # atno 7974 bound_to 7965
  155.8807  140.3444  155.5886 H   0  0  0  0  0  0  0  0  0  0  0  0  # atno 8008 bound_to 7997
  155.7722  140.0847  157.2121 H   0  0  0  0  0  0  0  0  0  0  0  0  # atno 8009 bound_to 7997
  154.4024  140.1516  156.2943 H   0  0  0  0  0  0  0  0  0  0  0  0  # atno 8010 bound_to 7997
  140.4739  144.0720  150.6245 H   0  0  0  0  0  0  0  0  0  0  0  0  # atno 10167 bound_to 10162
  156.0047  130.4610  150.3982 H   0  0  0  0  0  0  0  0  0  0  0  0  # atno 10718 bound_to 10713
  154.8474  135.3471  154.6171 H   0  0  0  0  0  0  0  0  0  0  0  0  # atno 10763 bound_to 10752
  153.6779  135.6981  153.5131 H   0  0  0  0  0  0  0  0  0  0  0  0  # atno 10764 bound_to 10752
  153.2691  135.4298  155.0926 H   0  0  0  0  0  0  0  0  0  0  0  0  # atno 10765 bound_to 10752
  140.0254  134.9377  157.0558 H   0  0  0  0  0  0  0  0  0  0  0  0  # atno 11005 bound_to 11000
  144.8552  140.7060  143.6142 LP  0  0  0  0  0  0  0  0  0  0  0  0  # atno 17320 bound_to 7965
  145.3687  139.1664  143.4343 LP  0  0  0  0  0  0  0  0  0  0  0  0  # atno 17321 bound_to 7965
  140.3942  143.2736  152.0024 LP  0  0  0  0  0  0  0  0  0  0  0  0  # atno 17342 bound_to 10162
  139.4822  144.6052  151.7535 LP  0  0  0  0  0  0  0  0  0  0  0  0  # atno 17343 bound_to 10162
  157.2053  131.0447  151.2628 LP  0  0  0  0  0  0  0  0  0  0  0  0  # atno 17370 bound_to 10713
  157.3938  130.7296  149.6717 LP  0  0  0  0  0  0  0  0  0  0  0  0  # atno 17371 bound_to 10713
  140.4315  134.1775  155.7168 LP  0  0  0  0  0  0  0  0  0  0  0  0  # atno 17394 bound_to 11000
  141.1800  133.8435  157.1292 LP  0  0  0  0  0  0  0  0  0  0  0  0  # atno 17395 bound_to 11000

$$$$
