AV-unprocessed.smi:21|AV-procd|sdf|136|dock4
  -GOLD-   2262015333D 1   1.00000     0.00000
 Structure written by MMmdl.
 62 65  0  0  0  0  0  0  0  0  2 V2000
  145.0584  131.7632  150.4999 C   0  0  0  0  0  0  0  0  0  0  0  0
  145.7770  131.5696  151.7080 O   0  0  0  0  0  0  0  0  0  0  0  0
  146.7722  132.5541  151.9439 C   0  0  2  0  0  0  0  0  0  0  0  0
  147.5104  132.3609  153.2633 C   0  0  0  0  0  0  0  0  0  0  0  0
  148.0486  133.7614  153.6002 C   0  0  2  0  0  0  0  0  0  0  0  0
  148.2775  134.0014  155.1170 C   0  0  0  0  0  0  0  0  0  0  0  0
  149.5233  134.7097  155.4188 N   0  0  0  0  0  0  0  0  0  0  0  0
  150.6875  133.9059  155.7810 C   0  0  0  0  0  0  0  0  0  0  0  0
  149.4368  135.9703  155.9232 C   0  0  0  0  0  0  0  0  0  0  0  0
  148.2781  136.3649  156.5170 N   0  0  0  0  0  0  0  0  0  0  0  0
  148.1356  137.6142  156.9666 C   0  0  0  0  0  0  0  0  0  0  0  0
  149.0093  138.6198  156.9196 N   0  0  0  0  0  0  0  0  0  0  0  0
  150.1816  138.2314  156.3423 C   0  0  0  0  0  0  0  0  0  0  0  0
  150.4837  136.9346  155.8360 C   0  0  0  0  0  0  0  0  0  0  0  0
  151.7881  136.9139  155.3554 N   0  0  0  0  0  0  0  0  0  0  0  0
  152.2248  138.1272  155.5513 C   0  0  0  0  0  0  0  0  0  0  0  0
  151.3108  138.9957  156.1028 N   0  0  0  0  0  0  0  0  0  0  0  0
  151.5252  140.4000  156.4084 C   0  0  0  0  0  0  0  0  0  0  0  0
  151.4983  140.7479  157.9240 C   0  0  1  0  0  0  0  0  0  0  0  0
  152.1634  139.6006  158.7218 C   0  0  0  0  0  0  0  0  0  0  0  0
  153.5364  139.4852  158.4089 O   0  0  0  0  0  0  0  0  0  0  0  0
  152.1668  142.1117  158.2693 C   0  0  1  0  0  0  0  0  0  0  0  0
  151.5117  143.3626  157.7016 C   0  0  0  0  0  0  0  0  0  0  0  0
  152.0810  144.4556  158.5938 C   0  0  0  0  0  0  0  0  0  0  0  0
  152.1186  143.8740  159.8865 O   0  0  0  0  0  0  0  0  0  0  0  0
  152.1582  142.4547  159.7695 C   0  0  0  0  0  0  0  0  0  0  0  0
  147.1148  134.7150  152.9282 N   0  3  2  0  0  0  0  0  0  0  0  0
  146.4837  135.7706  153.7550 C   0  0  0  0  0  0  0  0  0  0  0  0
  146.1358  133.9255  152.1470 C   0  0  0  0  0  0  0  0  0  0  0  0
  147.4804  132.6011  151.1144 H   0  0  0  0  0  0  0  0  0  0  0  0
  149.0005  133.8893  153.0834 H   0  0  0  0  0  0  0  0  0  0  0  0
  144.2828  131.0025  150.4123 H   0  0  0  0  0  0  0  0  0  0  0  0
  145.7078  131.6746  149.6284 H   0  0  0  0  0  0  0  0  0  0  0  0
  144.5745  132.7405  150.4794 H   0  0  0  0  0  0  0  0  0  0  0  0
  146.8028  132.0357  154.0277 H   0  0  0  0  0  0  0  0  0  0  0  0
  148.2995  131.6118  153.1942 H   0  0  0  0  0  0  0  0  0  0  0  0
  147.4728  134.6195  155.5147 H   0  0  0  0  0  0  0  0  0  0  0  0
  148.2161  133.0613  155.6602 H   0  0  0  0  0  0  0  0  0  0  0  0
  151.6099  134.4645  155.6164 H   0  0  0  0  0  0  0  0  0  0  0  0
  150.7356  133.0023  155.1728 H   0  0  0  0  0  0  0  0  0  0  0  0
  150.6453  133.6069  156.8290 H   0  0  0  0  0  0  0  0  0  0  0  0
  147.1821  137.8432  157.4195 H   0  0  0  0  0  0  0  0  0  0  0  0
  153.2241  138.4300  155.2736 H   0  0  0  0  0  0  0  0  0  0  0  0
  152.4877  140.6660  155.9712 H   0  0  0  0  0  0  0  0  0  0  0  0
  150.7787  140.9928  155.8784 H   0  0  0  0  0  0  0  0  0  0  0  0
  150.4599  140.8017  158.2521 H   0  0  0  0  0  0  0  0  0  0  0  0
  152.0492  139.7578  159.7950 H   0  0  0  0  0  0  0  0  0  0  0  0
  151.7097  138.6373  158.4926 H   0  0  0  0  0  0  0  0  0  0  0  0
  154.0399  139.6817  159.1844 H   0  0  0  0  0  0  0  0  0  0  0  0
  153.2037  142.0932  157.9297 H   0  0  0  0  0  0  0  0  0  0  0  0
  151.7554  143.5463  156.6569 H   0  0  0  0  0  0  0  0  0  0  0  0
  150.4267  143.3149  157.8053 H   0  0  0  0  0  0  0  0  0  0  0  0
  153.0985  144.7049  158.2895 H   0  0  0  0  0  0  0  0  0  0  0  0
  151.4885  145.3694  158.5782 H   0  0  0  0  0  0  0  0  0  0  0  0
  151.2684  142.0562  160.2590 H   0  0  0  0  0  0  0  0  0  0  0  0
  153.0318  142.0534  160.2843 H   0  0  0  0  0  0  0  0  0  0  0  0
  145.8707  135.3441  154.5499 H   0  0  0  0  0  0  0  0  0  0  0  0
  145.8394  136.3942  153.1345 H   0  0  0  0  0  0  0  0  0  0  0  0
  147.2339  136.4253  154.1984 H   0  0  0  0  0  0  0  0  0  0  0  0
  145.8819  134.4141  151.2059 H   0  0  0  0  0  0  0  0  0  0  0  0
  145.2157  133.8145  152.7242 H   0  0  0  0  0  0  0  0  0  0  0  0
  147.6823  135.2001  152.2475 H   0  0  0  0  0  0  0  0  0  0  0  0
  1  2  1  0  0  0  0
  1 32  1  0  0  0  0
  1 33  1  0  0  0  0
  1 34  1  0  0  0  0
  2  3  1  0  0  0  0
  3 30  1  0  0  0  0
  3 29  1  0  0  0  0
  3  4  1  0  0  0  0
  4  5  1  0  0  0  0
  4 35  1  0  0  0  0
  4 36  1  0  0  0  0
  5 31  1  0  0  0  0
  5  6  1  0  0  0  0
  5 27  1  0  0  0  0
  6  7  1  0  0  0  0
  6 37  1  0  0  0  0
  6 38  1  0  0  0  0
  7  8  1  0  0  0  0
  7  9  1  0  0  0  0
  8 39  1  0  0  0  0
  8 40  1  0  0  0  0
  8 41  1  0  0  0  0
  9 14  1  0  0  0  0
  9 10  2  0  0  0  0
 10 11  1  0  0  0  0
 11 12  2  0  0  0  0
 11 42  1  0  0  0  0
 12 13  1  0  0  0  0
 13 17  1  0  0  0  0
 13 14  2  0  0  0  0
 14 15  1  0  0  0  0
 15 16  2  0  0  0  0
 16 17  1  0  0  0  0
 16 43  1  0  0  0  0
 17 18  1  0  0  0  0
 18 19  1  0  0  0  0
 18 44  1  0  0  0  0
 18 45  1  0  0  0  0
 19 20  1  0  0  0  0
 19 22  1  0  0  0  0
 19 46  1  0  0  0  0
 20 21  1  0  0  0  0
 20 47  1  0  0  0  0
 20 48  1  0  0  0  0
 21 49  1  0  0  0  0
 22 26  1  0  0  0  0
 22 23  1  0  0  0  0
 22 50  1  0  0  0  0
 23 24  1  0  0  0  0
 23 51  1  0  0  0  0
 23 52  1  0  0  0  0
 24 25  1  0  0  0  0
 24 53  1  0  0  0  0
 24 54  1  0  0  0  0
 25 26  1  0  0  0  0
 26 55  1  0  0  0  0
 26 56  1  0  0  0  0
 27 28  1  0  0  0  0
 27 29  1  0  0  0  0
 27 62  1  0  0  0  0
 28 57  1  0  0  0  0
 28 58  1  0  0  0  0
 28 59  1  0  0  0  0
 29 60  1  0  0  0  0
 29 61  1  0  0  0  0
M  CHG  1  27   1
M  END
> <s_m_source_file>
AV-unprocessed.smi

> <i_m_source_file_index>
21

> <i_lp_mmshare_version>
43012

> <i_f3d_flags>
0

> <s_epik_input>
W0NIM11PW0NASF0xW0NIMl1bQ0BIXShOKFtDSDNdKVtDSDJdMSlbQ0gyXU4oW0NIM10pYyhuW2NIXW4yKWMoYzIzKW5bY0hdbjNbQ0gyXVtDQEhdKFtDSDJdW09IXSlbQ0BASF00W0NIMl1bQ0gyXU9bQ0gyXTQ=

> <s_epik_cmdline>
J2VwaWtfcHl0aG9uJywgJy1waCcsICc3LjAnLCAnLXRuJywgJzgnLCAnLW1hJywgJzIwMCcsICctbWV0YWxfYmluZGluZycsICctaW1hZScsICc8aW5maWxlLm1hZT4nLCAnLW9tYWUnLCAnPG91dGZpbGUubWFlPic=

> <r_lp_tautomer_probability>
1

> <r_epik_Ionization_Penalty>
0.0157465

> <r_epik_Ionization_Penalty_Charging>
0.015354

> <r_epik_Ionization_Penalty_Neutral>
0.000392529

> <r_epik_State_Penalty>
0.0120612

> <r_epik_Charging_Adjusted_Penalty>
0.0274152

> <i_epik_Tot_Q>
1

> <i_epik_Tot_abs_Q>
1

> <r_epik_Metal_State_Penalty>
0.0121253

> <b_epik_Metal_Only>
0

> <s_lp_Force_Field>
OPLS_2005

> <r_lp_Energy>
61.1925

> <b_lp_Chiralities_Consistent>
1

> <s_lp_Variant>
AV-unprocessed.smi:21-16

> <Gold.Version>
5.8.1

> <Gold.Id.Protein>
6NUR|6NUR_protein|mol2

> <Gold.PLP.Fitness>
53.4619

> <Gold.PLP.PLP>
-43.5379

> <Gold.PLP.part.hbond>
-3.0000

> <Gold.PLP.part.metal>
0.0000

> <Gold.PLP.part.buried>
-5.6258

> <Gold.PLP.part.nonpolar>
-35.3199

> <Gold.PLP.part.repulsive>
0.2530

> <Gold.PLP.ligand.clash>
0.0000

> <Gold.PLP.ligand.torsion>
1.5853

> <Gold.PLP.Chemscore.Hbond>
4.0000

> <Gold.PLP.Chemscore.CHOScore>
0.0000

> <Gold.PLP.Chemscore.Metal>
0.0000

> <Gold.Chemscore.Hbonds>
donor molecule, donor type, donor heavy atom, donor atom, acceptor molecule, acceptor atom, score
      L1  H    27    62       P1  7948  2.00
      P1  H  7997  8009       L1    21  1.00
      P1  H 10752 10763       L1    15  1.00

> <Gold.PLP.Chemscore.Internal.Correction>
1.0946

> <Gold.Rescore>
     Score         DG    S(hbond)    S(metal)    S(lipo)     H(rot)  DE(clash)    DE(int)     intcor
     17.89     -19.71       2.86        0.00     107.13       3.08       0.17       1.64       ----

> <Gold.Chemscore.Fitness>
17.8918

> <Gold.Chemscore.DG>
-19.7061

> <Gold.Chemscore.ZeroCoef>
-5.4800

> <Gold.Chemscore.Hbond>
2.8639

> <Gold.Chemscore.Metal>
0.0000

> <Gold.Chemscore.Lipo>
107.1348

> <Gold.Chemscore.Internal_Hbond>
0.0000

> <Gold.Chemscore.DEClash>
0.1749

> <Gold.Chemscore.DEInternal>
1.6393

> <Gold.Chemscore.Rot>
3.0758

> <Gold.Chemscore.Internal.Correction>
   9.000000E+99

> <Gold.Chemscore.Hbonds>
donor molecule, donor type, donor heavy atom, donor atom, acceptor molecule, acceptor atom, score
      L1  H    27    62       P1  7948  0.94
      P1  H  7997  8009       L1    21  0.60
      P1  H 10752 10763       L1    15  0.96

> <Gold.Chemscore.Hbond.Weighted>
-9.5654

> <Gold.Chemscore.Metal.Weighted>
-0.0000

> <Gold.Chemscore.Lipo.Weighted>
-12.5348

> <Gold.Chemscore.Internal_Hbond.Weighted>
0.0000

> <Gold.Chemscore.DEClash.Weighted>
0.1749

> <Gold.Chemscore.DEInternal.Weighted>
1.6393

> <Gold.Chemscore.Rot.Weighted>
7.8741

> <Gold.Chemscore.Internal.Correction.Weighted>
   9.000000E+99

> <Gold.Protein.RotatedTorsions>
[ 6907 6896 6895 6894 ] final  -33.97 input  -60.11 | X-H torsion
[ 7974 7965 7964 7962 ] final  -63.08 input  175.53 | X-H torsion
[ 8008 7997 7996 7995 ] final  161.24 input   59.86 | X-H torsion
[ 10167 10162 10161 10158 ] final -146.11 input  -65.29 | X-H torsion
[ 10718 10713 10712 10709 ] final  124.11 input   66.30 | X-H torsion
[ 10763 10752 10751 10750 ] final   70.06 input  -60.55 | X-H torsion
[ 11005 11000 10999 10996 ] final  -86.59 input  -57.11 | X-H torsion

> <Gold.Protein.ActiveResidues>
 VAL166  LYS551  ARG553  GLY616  TRP617  ASP618  TYR619  PRO620  LYS621  CYS622 
 ASP623  PHE694  ASN695  SER759  ASP760  ASP761  ALA762  ILE779  LEU786  VAL792 
 PHE793  MET794  SER795  GLU796  ALA797  LYS798  CYS799  TRP800  GLU811  SER814 

> <Gold.Protein.RotatedAtoms>
  151.0587  134.9722  159.8248 H   0  0  0  0  0  0  0  0  0  0  0  0  # atno 6907 bound_to 6896
  152.5392  134.2445  159.8885 H   0  0  0  0  0  0  0  0  0  0  0  0  # atno 6908 bound_to 6896
  151.2464  133.4330  159.2643 H   0  0  0  0  0  0  0  0  0  0  0  0  # atno 6909 bound_to 6896
  145.7835  140.8749  143.0318 H   0  0  0  0  0  0  0  0  0  0  0  0  # atno 7974 bound_to 7965
  156.2116  140.1782  156.7681 H   0  0  0  0  0  0  0  0  0  0  0  0  # atno 8008 bound_to 7997
  154.5731  140.0679  156.9024 H   0  0  0  0  0  0  0  0  0  0  0  0  # atno 8009 bound_to 7997
  155.2636  140.3337  155.4273 H   0  0  0  0  0  0  0  0  0  0  0  0  # atno 8010 bound_to 7997
  139.7743  143.8192  152.2629 H   0  0  0  0  0  0  0  0  0  0  0  0  # atno 10167 bound_to 10162
  157.5611  131.1089  150.8536 H   0  0  0  0  0  0  0  0  0  0  0  0  # atno 10718 bound_to 10713
  153.0321  135.5187  154.7384 H   0  0  0  0  0  0  0  0  0  0  0  0  # atno 10763 bound_to 10752
  154.6391  135.2910  155.0127 H   0  0  0  0  0  0  0  0  0  0  0  0  # atno 10764 bound_to 10752
  154.1052  135.6630  153.4927 H   0  0  0  0  0  0  0  0  0  0  0  0  # atno 10765 bound_to 10752
  141.1628  133.7463  156.9183 H   0  0  0  0  0  0  0  0  0  0  0  0  # atno 11005 bound_to 11000
  144.6792  140.0022  143.7484 LP  0  0  0  0  0  0  0  0  0  0  0  0  # atno 17320 bound_to 7965
  146.0050  139.3122  143.0905 LP  0  0  0  0  0  0  0  0  0  0  0  0  # atno 17321 bound_to 7965
  139.8236  144.7285  150.9541 LP  0  0  0  0  0  0  0  0  0  0  0  0  # atno 17342 bound_to 10162
  140.7815  143.4136  151.0953 LP  0  0  0  0  0  0  0  0  0  0  0  0  # atno 17343 bound_to 10162
  156.9034  130.5254  149.5282 LP  0  0  0  0  0  0  0  0  0  0  0  0  # atno 17370 bound_to 10713
  156.0664  130.5706  150.9296 LP  0  0  0  0  0  0  0  0  0  0  0  0  # atno 17371 bound_to 10713
  140.1469  134.9256  157.2541 LP  0  0  0  0  0  0  0  0  0  0  0  0  # atno 17394 bound_to 11000
  140.2769  134.3394  155.7355 LP  0  0  0  0  0  0  0  0  0  0  0  0  # atno 17395 bound_to 11000

$$$$
