AV-unprocessed.smi:2098|AV-procd|sdf|8565|dock2
  -GOLD-   2272011293D 1   1.00000     0.00000
 Structure written by MMmdl.
 36 38  0  0  0  0  0  0  0  0  1 V2000
  149.5823  140.8780  153.5691 O   0  0  0  0  0  0  0  0  0  0  0  0
  149.2706  140.7384  154.9416 C   0  0  2  0  0  0  0  0  0  0  0  0
  147.7564  140.9336  155.1178 C   0  0  0  0  0  0  0  0  0  0  0  0
  147.2542  141.6744  154.0131 O   0  0  0  0  0  0  0  0  0  0  0  0
  146.3062  142.6456  154.2555 C   0  0  0  0  0  0  0  0  0  0  0  0
  145.9200  143.4491  153.1626 C   0  0  0  0  0  0  0  0  0  0  0  0
  144.9603  144.4677  153.3199 C   0  0  0  0  0  0  0  0  0  0  0  0
  144.3748  144.6938  154.5789 C   0  0  0  0  0  0  0  0  0  0  0  0
  143.4536  145.6742  154.7328 F   0  0  0  0  0  0  0  0  0  0  0  0
  144.7486  143.8985  155.6779 C   0  0  0  0  0  0  0  0  0  0  0  0
  145.7078  142.8790  155.5202 C   0  0  0  0  0  0  0  0  0  0  0  0
  150.0777  141.7741  155.7484 C   0  0  0  0  0  0  0  0  0  0  0  0
  151.1073  141.1644  156.5717 N   0  0  0  0  0  0  0  0  0  0  0  0
  151.8249  140.0613  156.2848 C   0  0  0  0  0  0  0  0  0  0  0  0
  152.7209  139.6653  157.1845 N   0  0  0  0  0  0  0  0  0  0  0  0
  152.5669  140.6233  158.1718 C   0  0  0  0  0  0  0  0  0  0  0  0
  153.2274  140.7759  159.4122 C   0  0  0  0  0  0  0  0  0  0  0  0
  152.8995  141.8469  160.2695 C   0  0  0  0  0  0  0  0  0  0  0  0
  151.9087  142.7801  159.9008 C   0  0  0  0  0  0  0  0  0  0  0  0
  151.2365  142.6484  158.6704 C   0  0  0  0  0  0  0  0  0  0  0  0
  151.5653  141.5774  157.8185 C   0  0  0  0  0  0  0  0  0  0  0  0
  149.4103  140.0542  153.1388 H   0  0  0  0  0  0  0  0  0  0  0  0
  149.5529  139.7366  155.2683 H   0  0  0  0  0  0  0  0  0  0  0  0
  147.2640  139.9594  155.1271 H   0  0  0  0  0  0  0  0  0  0  0  0
  147.5406  141.4259  156.0678 H   0  0  0  0  0  0  0  0  0  0  0  0
  146.3649  143.2830  152.1923 H   0  0  0  0  0  0  0  0  0  0  0  0
  144.6746  145.0756  152.4741 H   0  0  0  0  0  0  0  0  0  0  0  0
  144.2994  144.0703  156.6449 H   0  0  0  0  0  0  0  0  0  0  0  0
  145.9670  142.2901  156.3868 H   0  0  0  0  0  0  0  0  0  0  0  0
  150.5457  142.4980  155.0800 H   0  0  0  0  0  0  0  0  0  0  0  0
  149.4138  142.3409  156.4024 H   0  0  0  0  0  0  0  0  0  0  0  0
  151.6805  139.5177  155.3625 H   0  0  0  0  0  0  0  0  0  0  0  0
  153.9880  140.0673  159.7045 H   0  0  0  0  0  0  0  0  0  0  0  0
  153.4108  141.9533  161.2150 H   0  0  0  0  0  0  0  0  0  0  0  0
  151.6650  143.5974  160.5634 H   0  0  0  0  0  0  0  0  0  0  0  0
  150.4790  143.3626  158.3842 H   0  0  0  0  0  0  0  0  0  0  0  0
  1  2  1  0  0  0  0
  1 22  1  0  0  0  0
  2  3  1  0  0  0  0
  2 12  1  0  0  0  0
  2 23  1  0  0  0  0
  3  4  1  0  0  0  0
  3 24  1  0  0  0  0
  3 25  1  0  0  0  0
  4  5  1  0  0  0  0
  5 11  1  0  0  0  0
  5  6  2  0  0  0  0
  6  7  1  0  0  0  0
  6 26  1  0  0  0  0
  7  8  2  0  0  0  0
  7 27  1  0  0  0  0
  8  9  1  0  0  0  0
  8 10  1  0  0  0  0
 10 11  2  0  0  0  0
 10 28  1  0  0  0  0
 11 29  1  0  0  0  0
 12 13  1  0  0  0  0
 12 30  1  0  0  0  0
 12 31  1  0  0  0  0
 13 21  1  0  0  0  0
 13 14  1  0  0  0  0
 14 15  2  0  0  0  0
 14 32  1  0  0  0  0
 15 16  1  0  0  0  0
 16 21  2  0  0  0  0
 16 17  1  0  0  0  0
 17 18  2  0  0  0  0
 17 33  1  0  0  0  0
 18 19  1  0  0  0  0
 18 34  1  0  0  0  0
 19 20  2  0  0  0  0
 19 35  1  0  0  0  0
 20 21  1  0  0  0  0
 20 36  1  0  0  0  0
M  END
> <s_m_source_file>
AV-unprocessed.smi

> <i_m_source_file_index>
2098

> <i_lp_mmshare_version>
43012

> <i_f3d_flags>
0

> <s_epik_input>
W2NIXTFbY0hdW2NIXVtjSF1jKGMxMiluKFtjSF1uMilbQ0gyXVtDQEhdKFtPSF0pW0NIMl1PYzNbY0hdW2NIXWMoRilbY0hdW2NIXTM=

> <s_epik_cmdline>
J2VwaWtfcHl0aG9uJywgJy1waCcsICc3LjAnLCAnLXRuJywgJzgnLCAnLW1hJywgJzIwMCcsICctbWV0YWxfYmluZGluZycsICctaW1hZScsICc8aW5maWxlLm1hZT4nLCAnLW9tYWUnLCAnPG91dGZpbGUubWFlPic=

> <r_lp_tautomer_probability>
1

> <r_epik_Ionization_Penalty>
0.0603575

> <r_epik_Ionization_Penalty_Charging>
0

> <r_epik_Ionization_Penalty_Neutral>
0.0603575

> <r_epik_State_Penalty>
0.0523204

> <r_epik_Charging_Adjusted_Penalty>
0.0523204

> <i_epik_Tot_Q>
0

> <i_epik_Tot_abs_Q>
0

> <r_epik_Metal_State_Penalty>
5.46976e-05

> <b_epik_Metal_Only>
0

> <s_lp_Force_Field>
OPLS_2005

> <r_lp_Energy>
15.3662

> <b_lp_Chiralities_Consistent>
1

> <s_lp_Variant>
AV-unprocessed.smi:2098-1

> <Gold.Version>
5.8.1

> <Gold.Id.Protein>
6NUR|6NUR_protein|mol2

> <Gold.PLP.Fitness>
49.8810

> <Gold.PLP.PLP>
-45.6721

> <Gold.PLP.part.hbond>
-4.0000

> <Gold.PLP.part.metal>
0.0000

> <Gold.PLP.part.buried>
-6.1278

> <Gold.PLP.part.nonpolar>
-36.1508

> <Gold.PLP.part.repulsive>
0.1625

> <Gold.PLP.ligand.clash>
0.0000

> <Gold.PLP.ligand.torsion>
1.9117

> <Gold.PLP.Chemscore.Hbond>
2.6560

> <Gold.PLP.Chemscore.CHOScore>
0.0000

> <Gold.PLP.Chemscore.Metal>
0.0000

> <Gold.Chemscore.Hbonds>
donor molecule, donor type, donor heavy atom, donor atom, acceptor molecule, acceptor atom, score
      L1  H     1    22       P1  7957  0.32
      P1  H  7989  7998       L1     1  0.34
      P1  H  7997  8008       L1    15  1.00
      P1  H  8011  8017       L1     1  1.00

> <Gold.PLP.Chemscore.Internal.Correction>
0.0644

> <Gold.Rescore>
     Score         DG    S(hbond)    S(metal)    S(lipo)     H(rot)  DE(clash)    DE(int)     intcor
     16.24     -18.24       2.04        0.00     102.70       2.37       0.32       1.68       ----

> <Gold.Chemscore.Fitness>
16.2354

> <Gold.Chemscore.DG>
-18.2445

> <Gold.Chemscore.ZeroCoef>
-5.4800

> <Gold.Chemscore.Hbond>
2.0433

> <Gold.Chemscore.Metal>
0.0000

> <Gold.Chemscore.Lipo>
102.7021

> <Gold.Chemscore.Internal_Hbond>
0.0000

> <Gold.Chemscore.DEClash>
0.3246

> <Gold.Chemscore.DEInternal>
1.6845

> <Gold.Chemscore.Rot>
2.3735

> <Gold.Chemscore.Internal.Correction>
   9.000000E+99

> <Gold.Chemscore.Hbonds>
donor molecule, donor type, donor heavy atom, donor atom, acceptor molecule, acceptor atom, score
      L1  H     1    22       P1  7957  0.31
      P1  H  7989  7998       L1     1  0.05
      P1  H  7997  8008       L1    15  0.18
      P1  H  8011  8017       L1     1  0.84

> <Gold.Chemscore.Hbond.Weighted>
-6.8246

> <Gold.Chemscore.Metal.Weighted>
-0.0000

> <Gold.Chemscore.Lipo.Weighted>
-12.0161

> <Gold.Chemscore.Internal_Hbond.Weighted>
0.0000

> <Gold.Chemscore.DEClash.Weighted>
0.3246

> <Gold.Chemscore.DEInternal.Weighted>
1.6845

> <Gold.Chemscore.Rot.Weighted>
6.0762

> <Gold.Chemscore.Internal.Correction.Weighted>
   9.000000E+99

> <Gold.Protein.RotatedTorsions>
[ 6907 6896 6895 6894 ] final -116.38 input  -60.11 | X-H torsion
[ 7974 7965 7964 7962 ] final  -51.08 input  175.53 | X-H torsion
[ 8008 7997 7996 7995 ] final  -57.54 input   59.86 | X-H torsion
[ 10167 10162 10161 10158 ] final -135.66 input  -65.29 | X-H torsion
[ 10718 10713 10712 10709 ] final  -70.17 input   66.30 | X-H torsion
[ 10763 10752 10751 10750 ] final   33.34 input  -60.55 | X-H torsion
[ 11005 11000 10999 10996 ] final -172.52 input  -57.11 | X-H torsion

> <Gold.Protein.ActiveResidues>
 VAL166  LYS551  ARG553  GLY616  TRP617  ASP618  TYR619  PRO620  LYS621  CYS622 
 ASP623  PHE694  ASN695  SER759  ASP760  ASP761  ALA762  ILE779  LEU786  VAL792 
 PHE793  MET794  SER795  GLU796  ALA797  LYS798  CYS799  TRP800  GLU811  SER814 

> <Gold.Protein.RotatedAtoms>
  150.8052  133.8524  159.3208 H   0  0  0  0  0  0  0  0  0  0  0  0  # atno 6907 bound_to 6896
  151.6325  135.1019  160.0134 H   0  0  0  0  0  0  0  0  0  0  0  0  # atno 6908 bound_to 6896
  152.4142  133.6971  159.6459 H   0  0  0  0  0  0  0  0  0  0  0  0  # atno 6909 bound_to 6896
  145.9228  140.7818  142.9638 H   0  0  0  0  0  0  0  0  0  0  0  0  # atno 7974 bound_to 7965
  154.4272  140.1104  156.5815 H   0  0  0  0  0  0  0  0  0  0  0  0  # atno 8008 bound_to 7997
  155.6108  140.3494  155.4603 H   0  0  0  0  0  0  0  0  0  0  0  0  # atno 8009 bound_to 7997
  156.0101  140.1217  157.0452 H   0  0  0  0  0  0  0  0  0  0  0  0  # atno 8010 bound_to 7997
  139.8757  143.6902  152.2634 H   0  0  0  0  0  0  0  0  0  0  0  0  # atno 10167 bound_to 10162
  156.0420  130.4326  150.2256 H   0  0  0  0  0  0  0  0  0  0  0  0  # atno 10718 bound_to 10713
  153.0217  135.6389  154.1497 H   0  0  0  0  0  0  0  0  0  0  0  0  # atno 10763 bound_to 10752
  154.1230  135.2845  155.3205 H   0  0  0  0  0  0  0  0  0  0  0  0  # atno 10764 bound_to 10752
  154.6249  135.5512  153.7678 H   0  0  0  0  0  0  0  0  0  0  0  0  # atno 10765 bound_to 10752
  140.4960  134.5939  157.4971 H   0  0  0  0  0  0  0  0  0  0  0  0  # atno 11005 bound_to 11000
  144.6755  140.2003  143.7388 LP  0  0  0  0  0  0  0  0  0  0  0  0  # atno 17320 bound_to 7965
  145.8527  139.2183  143.1762 LP  0  0  0  0  0  0  0  0  0  0  0  0  # atno 17321 bound_to 7965
  139.7243  144.7596  151.0905 LP  0  0  0  0  0  0  0  0  0  0  0  0  # atno 17342 bound_to 10162
  140.7753  143.5168  150.9585 LP  0  0  0  0  0  0  0  0  0  0  0  0  # atno 17343 bound_to 10162
  157.0350  131.0018  151.3301 LP  0  0  0  0  0  0  0  0  0  0  0  0  # atno 17370 bound_to 10713
  157.5250  130.8022  149.7852 LP  0  0  0  0  0  0  0  0  0  0  0  0  # atno 17371 bound_to 10713
  139.9741  134.7244  155.9984 LP  0  0  0  0  0  0  0  0  0  0  0  0  # atno 17394 bound_to 11000
  141.1460  133.6556  156.3868 LP  0  0  0  0  0  0  0  0  0  0  0  0  # atno 17395 bound_to 11000

$$$$
