AV-unprocessed.smi:1222|AV-procd|sdf|5124|dock10
  -GOLD-   22720 4183D 1   1.00000     0.00000
 Structure written by MMmdl.
 36 38  0  0  0  0  0  0  0  0  3 V2000
  145.8031  138.7205  153.8185 O   0  0  0  0  0  0  0  0  0  0  0  0
  146.6978  137.8756  153.7396 C   0  0  0  0  0  0  0  0  0  0  0  0
  147.9266  137.9572  154.2971 N   0  5  0  0  0  0  0  0  0  0  0  0
  148.4563  139.1584  154.5801 C   0  0  0  0  0  0  0  0  0  0  0  0
  147.7273  140.2775  154.6634 N   0  0  0  0  0  0  0  0  0  0  0  0
  148.4832  141.4101  154.9712 C   0  0  0  0  0  0  0  0  0  0  0  0
  149.8166  141.1453  155.1379 C   0  0  0  0  0  0  0  0  0  0  0  0
  150.1658  139.4560  154.9071 S   0  0  0  0  0  0  0  0  0  0  0  0
  146.4986  136.7439  153.0484 N   0  0  0  0  0  0  0  0  0  0  0  0
  145.2827  136.3571  152.3374 C   0  0  2  0  0  0  0  0  0  0  0  0
  144.6389  135.1409  153.0233 C   0  0  0  0  0  0  0  0  0  0  0  0
  143.4201  134.6351  152.2293 C   0  0  0  0  0  0  0  0  0  0  0  0
  143.7582  134.3366  150.8135 N   0  3  2  0  0  0  0  0  0  0  0  0
  144.5271  133.0813  150.6452 C   0  0  0  0  0  0  0  0  0  0  0  0
  144.2425  132.3663  149.3449 C   0  0  0  0  0  0  0  0  0  0  0  0
  143.6666  131.8393  150.6401 C   0  0  0  0  0  0  0  0  0  0  0  0
  144.3759  135.5008  150.1278 C   0  0  0  0  0  0  0  0  0  0  0  0
  145.6173  136.0220  150.8751 C   0  0  0  0  0  0  0  0  0  0  0  0
  147.9884  142.3663  155.0548 H   0  0  0  0  0  0  0  0  0  0  0  0
  150.6104  141.8354  155.3807 H   0  0  0  0  0  0  0  0  0  0  0  0
  147.2673  136.0901  153.0190 H   0  0  0  0  0  0  0  0  0  0  0  0
  144.5579  137.1731  152.3383 H   0  0  0  0  0  0  0  0  0  0  0  0
  145.3711  134.3391  153.1275 H   0  0  0  0  0  0  0  0  0  0  0  0
  144.3318  135.4058  154.0357 H   0  0  0  0  0  0  0  0  0  0  0  0
  142.9955  133.7509  152.7062 H   0  0  0  0  0  0  0  0  0  0  0  0
  142.6381  135.3956  152.2424 H   0  0  0  0  0  0  0  0  0  0  0  0
  145.5254  133.0544  151.0781 H   0  0  0  0  0  0  0  0  0  0  0  0
  143.5537  132.8301  148.6409 H   0  0  0  0  0  0  0  0  0  0  0  0
  145.0553  131.8000  148.8946 H   0  0  0  0  0  0  0  0  0  0  0  0
  144.1011  130.9274  151.0443 H   0  0  0  0  0  0  0  0  0  0  0  0
  142.5950  131.9521  150.7954 H   0  0  0  0  0  0  0  0  0  0  0  0
  144.6327  135.2360  149.1016 H   0  0  0  0  0  0  0  0  0  0  0  0
  143.6317  136.2956  150.0629 H   0  0  0  0  0  0  0  0  0  0  0  0
  146.0031  136.9087  150.3704 H   0  0  0  0  0  0  0  0  0  0  0  0
  146.4138  135.2780  150.8346 H   0  0  0  0  0  0  0  0  0  0  0  0
  142.8782  134.1720  150.3459 H   0  0  0  0  0  0  0  0  0  0  0  0
  1  2  2  0  0  0  0
  2  3  1  0  0  0  0
  2  9  1  0  0  0  0
  3  4  1  0  0  0  0
  4  8  1  0  0  0  0
  4  5  2  0  0  0  0
  5  6  1  0  0  0  0
  6  7  2  0  0  0  0
  6 19  1  0  0  0  0
  7  8  1  0  0  0  0
  7 20  1  0  0  0  0
  9 10  1  0  0  0  0
  9 21  1  0  0  0  0
 10 18  1  0  0  0  0
 10 11  1  0  0  0  0
 10 22  1  0  0  0  0
 11 12  1  0  0  0  0
 11 23  1  0  0  0  0
 11 24  1  0  0  0  0
 12 13  1  0  0  0  0
 12 25  1  0  0  0  0
 12 26  1  0  0  0  0
 13 14  1  0  0  0  0
 13 17  1  0  0  0  0
 13 36  1  0  0  0  0
 14 16  1  0  0  0  0
 14 15  1  0  0  0  0
 14 27  1  0  0  0  0
 15 16  1  0  0  0  0
 15 28  1  0  0  0  0
 15 29  1  0  0  0  0
 16 30  1  0  0  0  0
 16 31  1  0  0  0  0
 17 18  1  0  0  0  0
 17 32  1  0  0  0  0
 17 33  1  0  0  0  0
 18 34  1  0  0  0  0
 18 35  1  0  0  0  0
M  CHG  1   3  -1
M  CHG  1  13   1
M  END
> <s_m_source_file>
AV-unprocessed.smi

> <i_m_source_file_index>
1222

> <i_lp_mmshare_version>
43012

> <i_f3d_flags>
0

> <s_epik_input>
czFbY0hdW2NIXW5jMVtOSF1DKD1PKVtOSF1bQ0hdMltDSDJdW0NIMl1OKFtDSDJdW0NIMl0yKVtDSF0zW0NIMl1bQ0gyXTM=

> <s_epik_cmdline>
J2VwaWtfcHl0aG9uJywgJy1waCcsICc3LjAnLCAnLXRuJywgJzgnLCAnLW1hJywgJzIwMCcsICctbWV0YWxfYmluZGluZycsICctaW1hZScsICc8aW5maWxlLm1hZT4nLCAnLW9tYWUnLCAnPG91dGZpbGUubWFlPic=

> <r_lp_tautomer_probability>
0.999

> <r_epik_Ionization_Penalty>
6.4609

> <r_epik_Ionization_Penalty_Charging>
5.58663

> <r_epik_Ionization_Penalty_Neutral>
0.874262

> <r_epik_State_Penalty>
5.57752

> <r_epik_Charging_Adjusted_Penalty>
11.1642

> <i_epik_Tot_Q>
0

> <i_epik_Tot_abs_Q>
2

> <r_epik_Metal_State_Penalty>
1.58738

> <b_epik_Metal_Only>
1

> <s_lp_Force_Field>
OPLS_2005

> <r_lp_Energy>
18.4685

> <b_lp_Chiralities_Consistent>
1

> <s_lp_Variant>
AV-unprocessed.smi:1222-5

> <Gold.Version>
5.8.1

> <Gold.Id.Protein>
6NUR|6NUR_protein|mol2

> <Gold.PLP.Fitness>
39.4936

> <Gold.PLP.PLP>
-29.4941

> <Gold.PLP.part.hbond>
-2.0000

> <Gold.PLP.part.metal>
0.0000

> <Gold.PLP.part.buried>
-1.8130

> <Gold.PLP.part.nonpolar>
-26.7984

> <Gold.PLP.part.repulsive>
1.2116

> <Gold.PLP.ligand.clash>
0.0000

> <Gold.PLP.ligand.torsion>
0.8656

> <Gold.PLP.Chemscore.Hbond>
2.5745

> <Gold.PLP.Chemscore.CHOScore>
0.9126

> <Gold.PLP.Chemscore.Metal>
0.0000

> <Gold.Chemscore.Hbonds>
donor molecule, donor type, donor heavy atom, donor atom, acceptor molecule, acceptor atom, score
      L1  H     9    21       P1  7948  0.52
      L1  H    13    36       P1 10186  1.92
      L1  C     6    19       P1  8028  0.91

> <Gold.PLP.Chemscore.Internal.Correction>
1.2695

> <Gold.Rescore>
     Score         DG    S(hbond)    S(metal)    S(lipo)     H(rot)  DE(clash)    DE(int)     intcor
     13.25     -15.91       1.46        0.00      74.73       1.25       0.13       2.52       ----

> <Gold.Chemscore.Fitness>
13.2548

> <Gold.Chemscore.DG>
-15.9050

> <Gold.Chemscore.ZeroCoef>
-5.4800

> <Gold.Chemscore.Hbond>
1.4591

> <Gold.Chemscore.Metal>
0.0000

> <Gold.Chemscore.Lipo>
74.7341

> <Gold.Chemscore.Internal_Hbond>
0.0000

> <Gold.Chemscore.DEClash>
0.1288

> <Gold.Chemscore.DEInternal>
2.5215

> <Gold.Chemscore.Rot>
1.2470

> <Gold.Chemscore.Internal.Correction>
   9.000000E+99

> <Gold.Chemscore.Hbonds>
donor molecule, donor type, donor heavy atom, donor atom, acceptor molecule, acceptor atom, score
      L1  H     9    21       P1  7948  0.49
      L1  H    13    36       P1 10186  0.80

> <Gold.Chemscore.Hbond.Weighted>
-4.8735

> <Gold.Chemscore.Metal.Weighted>
-0.0000

> <Gold.Chemscore.Lipo.Weighted>
-8.7439

> <Gold.Chemscore.Internal_Hbond.Weighted>
0.0000

> <Gold.Chemscore.DEClash.Weighted>
0.1288

> <Gold.Chemscore.DEInternal.Weighted>
2.5215

> <Gold.Chemscore.Rot.Weighted>
3.1924

> <Gold.Chemscore.Internal.Correction.Weighted>
   9.000000E+99

> <Gold.Protein.RotatedTorsions>
[ 6907 6896 6895 6894 ] final -151.86 input  -60.11 | X-H torsion
[ 7974 7965 7964 7962 ] final  112.08 input  175.53 | X-H torsion
[ 8008 7997 7996 7995 ] final  -60.03 input   59.86 | X-H torsion
[ 10167 10162 10161 10158 ] final  -71.79 input  -65.29 | X-H torsion
[ 10718 10713 10712 10709 ] final   42.34 input   66.30 | X-H torsion
[ 10763 10752 10751 10750 ] final -164.53 input  -60.55 | X-H torsion
[ 11005 11000 10999 10996 ] final  116.59 input  -57.11 | X-H torsion

> <Gold.Protein.ActiveResidues>
 VAL166  LYS551  ARG553  GLY616  TRP617  ASP618  TYR619  PRO620  LYS621  CYS622 
 ASP623  PHE694  ASN695  SER759  ASP760  ASP761  ALA762  ILE779  LEU786  VAL792 
 PHE793  MET794  SER795  GLU796  ALA797  LYS798  CYS799  TRP800  GLU811  SER814 

> <Gold.Protein.RotatedAtoms>
  151.2192  133.4512  159.2600 H   0  0  0  0  0  0  0  0  0  0  0  0  # atno 6907 bound_to 6896
  151.0901  134.9911  159.8408 H   0  0  0  0  0  0  0  0  0  0  0  0  # atno 6908 bound_to 6896
  152.5433  134.2126  159.8809 H   0  0  0  0  0  0  0  0  0  0  0  0  # atno 6909 bound_to 6896
  145.2341  139.2807  143.4152 H   0  0  0  0  0  0  0  0  0  0  0  0  # atno 7974 bound_to 7965
  154.4380  140.1048  156.6210 H   0  0  0  0  0  0  0  0  0  0  0  0  # atno 8008 bound_to 7997
  155.5708  140.3489  155.4496 H   0  0  0  0  0  0  0  0  0  0  0  0  # atno 8009 bound_to 7997
  156.0391  140.1278  157.0164 H   0  0  0  0  0  0  0  0  0  0  0  0  # atno 8010 bound_to 7997
  140.5245  143.2328  151.7372 H   0  0  0  0  0  0  0  0  0  0  0  0  # atno 10167 bound_to 10162
  157.4037  130.7875  149.7371 H   0  0  0  0  0  0  0  0  0  0  0  0  # atno 10718 bound_to 10713
  154.7019  135.2989  154.9328 H   0  0  0  0  0  0  0  0  0  0  0  0  # atno 10763 bound_to 10752
  154.0258  135.6676  153.4780 H   0  0  0  0  0  0  0  0  0  0  0  0  # atno 10764 bound_to 10752
  153.0687  135.5073  154.8168 H   0  0  0  0  0  0  0  0  0  0  0  0  # atno 10765 bound_to 10752
  139.9046  134.9600  156.7221 H   0  0  0  0  0  0  0  0  0  0  0  0  # atno 11005 bound_to 11000
  146.3345  140.2685  142.8605 LP  0  0  0  0  0  0  0  0  0  0  0  0  # atno 17320 bound_to 7965
  144.9649  140.8312  143.5490 LP  0  0  0  0  0  0  0  0  0  0  0  0  # atno 17321 bound_to 7965
  139.4934  144.4206  151.9981 LP  0  0  0  0  0  0  0  0  0  0  0  0  # atno 17342 bound_to 10162
  140.3305  144.3322  150.5988 LP  0  0  0  0  0  0  0  0  0  0  0  0  # atno 17343 bound_to 10162
  155.9830  130.4004  150.3384 LP  0  0  0  0  0  0  0  0  0  0  0  0  # atno 17370 bound_to 10713
  157.1514  131.0322  151.2883 LP  0  0  0  0  0  0  0  0  0  0  0  0  # atno 17371 bound_to 10713
  140.6992  133.9321  155.8014 LP  0  0  0  0  0  0  0  0  0  0  0  0  # atno 17394 bound_to 11000
  141.0384  134.0657  157.3932 LP  0  0  0  0  0  0  0  0  0  0  0  0  # atno 17395 bound_to 11000

$$$$
