AV-unprocessed.smi:1417|AV-procd|sdf|5770|dock6
  -GOLD-   22720 5413D 1   1.00000     0.00000
 Structure written by MMmdl.
 39 40  0  0  0  0  0  0  0  0  3 V2000
  152.4236  145.0394  158.3954 C   0  0  0  0  0  0  0  0  0  0  0  0
  151.9891  143.6151  158.4591 C   0  0  0  0  0  0  0  0  0  0  0  0
  151.4108  142.7797  157.5460 C   0  0  0  0  0  0  0  0  0  0  0  0
  151.2601  141.5643  158.2677 C   0  0  0  0  0  0  0  0  0  0  0  0
  150.7418  140.4224  157.7899 N   0  5  0  0  0  0  0  0  0  0  0  0
  150.6964  140.2011  156.4564 C   0  0  0  0  0  0  0  0  0  0  0  0
  151.4613  140.6671  155.6091 O   0  0  0  0  0  0  0  0  0  0  0  0
  149.6966  139.3900  156.0824 N   0  0  0  0  0  0  0  0  0  0  0  0
  149.3849  138.9723  154.7160 C   0  0  2  0  0  0  0  0  0  0  0  0
  148.2243  137.9582  154.6807 C   0  0  0  0  0  0  0  0  0  0  0  0
  148.6334  136.5982  155.2728 C   0  0  0  0  0  0  0  0  0  0  0  0
  149.8287  136.0505  154.5772 N   0  3  2  0  0  0  0  0  0  0  0  0
  150.1798  134.6754  155.0165 C   0  0  0  0  0  0  0  0  0  0  0  0
  149.1778  133.6194  154.5377 C   0  0  0  0  0  0  0  0  0  0  0  0
  148.4008  133.9517  153.5040 N   0  0  0  0  0  0  0  0  0  0  0  0
  149.0903  132.5288  155.0991 O   0  0  0  0  0  0  0  0  0  0  0  0
  150.9816  136.9835  154.6545 C   0  0  0  0  0  0  0  0  0  0  0  0
  150.6286  138.3563  154.0526 C   0  0  0  0  0  0  0  0  0  0  0  0
  151.7219  141.6492  159.5041 N   0  0  0  0  0  0  0  0  0  0  0  0
  152.1861  142.9632  159.6367 O   0  0  0  0  0  0  0  0  0  0  0  0
  153.3426  145.1360  157.8174 H   0  0  0  0  0  0  0  0  0  0  0  0
  152.6077  145.4394  159.3927 H   0  0  0  0  0  0  0  0  0  0  0  0
  151.6590  145.6551  157.9218 H   0  0  0  0  0  0  0  0  0  0  0  0
  151.1360  143.0023  156.5256 H   0  0  0  0  0  0  0  0  0  0  0  0
  149.1053  139.0288  156.8162 H   0  0  0  0  0  0  0  0  0  0  0  0
  149.1000  139.8590  154.1470 H   0  0  0  0  0  0  0  0  0  0  0  0
  147.3548  138.3496  155.2100 H   0  0  0  0  0  0  0  0  0  0  0  0
  147.9066  137.8149  153.6471 H   0  0  0  0  0  0  0  0  0  0  0  0
  148.8423  136.6980  156.3392 H   0  0  0  0  0  0  0  0  0  0  0  0
  147.7967  135.9050  155.1820 H   0  0  0  0  0  0  0  0  0  0  0  0
  151.1486  134.3930  154.6021 H   0  0  0  0  0  0  0  0  0  0  0  0
  150.2832  134.6436  156.1024 H   0  0  0  0  0  0  0  0  0  0  0  0
  147.7249  133.2930  153.1447 H   0  0  0  0  0  0  0  0  0  0  0  0
  148.4938  134.8640  153.0801 H   0  0  0  0  0  0  0  0  0  0  0  0
  151.2957  137.0910  155.6940 H   0  0  0  0  0  0  0  0  0  0  0  0
  151.8297  136.5663  154.1102 H   0  0  0  0  0  0  0  0  0  0  0  0
  150.4438  138.2400  152.9837 H   0  0  0  0  0  0  0  0  0  0  0  0
  151.4785  139.0344  154.1405 H   0  0  0  0  0  0  0  0  0  0  0  0
  149.5900  135.9777  153.5982 H   0  0  0  0  0  0  0  0  0  0  0  0
  1  2  1  0  0  0  0
  1 21  1  0  0  0  0
  1 22  1  0  0  0  0
  1 23  1  0  0  0  0
  2 20  1  0  0  0  0
  2  3  2  0  0  0  0
  3  4  1  0  0  0  0
  3 24  1  0  0  0  0
  4  5  1  0  0  0  0
  4 19  2  0  0  0  0
  5  6  1  0  0  0  0
  6  7  2  0  0  0  0
  6  8  1  0  0  0  0
  8  9  1  0  0  0  0
  8 25  1  0  0  0  0
  9 18  1  0  0  0  0
  9 10  1  0  0  0  0
  9 26  1  0  0  0  0
 10 11  1  0  0  0  0
 10 27  1  0  0  0  0
 10 28  1  0  0  0  0
 11 12  1  0  0  0  0
 11 29  1  0  0  0  0
 11 30  1  0  0  0  0
 12 13  1  0  0  0  0
 12 17  1  0  0  0  0
 12 39  1  0  0  0  0
 13 14  1  0  0  0  0
 13 31  1  0  0  0  0
 13 32  1  0  0  0  0
 14 15  1  0  0  0  0
 14 16  2  0  0  0  0
 15 33  1  0  0  0  0
 15 34  1  0  0  0  0
 17 18  1  0  0  0  0
 17 35  1  0  0  0  0
 17 36  1  0  0  0  0
 18 37  1  0  0  0  0
 18 38  1  0  0  0  0
 19 20  1  0  0  0  0
M  CHG  1   5  -1
M  CHG  1  12   1
M  END
> <s_m_source_file>
AV-unprocessed.smi

> <i_m_source_file_index>
1417

> <i_lp_mmshare_version>
43012

> <i_f3d_flags>
0

> <s_epik_input>
W0NIM11jMVtjSF1jKG5vMSlbTkhdQyg9TylbTkhdW0NIXTJbQ0gyXVtDSDJdTihbQ0gyXVtDSDJdMilbQ0gyXUMoPU8pW05IMl0=

> <s_epik_cmdline>
J2VwaWtfcHl0aG9uJywgJy1waCcsICc3LjAnLCAnLXRuJywgJzgnLCAnLW1hJywgJzIwMCcsICctbWV0YWxfYmluZGluZycsICctaW1hZScsICc8aW5maWxlLm1hZT4nLCAnLW9tYWUnLCAnPG91dGZpbGUubWFlPic=

> <r_epik_Ionization_Penalty>
7.07562

> <r_epik_Ionization_Penalty_Charging>
7.07548

> <r_epik_Ionization_Penalty_Neutral>
0.00013758

> <r_epik_State_Penalty>
7.16607

> <r_epik_Charging_Adjusted_Penalty>
14.2416

> <i_epik_Tot_Q>
0

> <i_epik_Tot_abs_Q>
2

> <r_epik_Metal_State_Penalty>
3.11438

> <b_epik_Metal_Only>
1

> <s_lp_Force_Field>
OPLS_2005

> <r_lp_Energy>
2.10932

> <b_lp_Chiralities_Consistent>
1

> <s_lp_Variant>
AV-unprocessed.smi:1417-6

> <Gold.Version>
5.8.1

> <Gold.Id.Protein>
6NUR|6NUR_protein|mol2

> <Gold.PLP.Fitness>
41.9482

> <Gold.PLP.PLP>
-32.4007

> <Gold.PLP.part.hbond>
-3.0000

> <Gold.PLP.part.metal>
0.0000

> <Gold.PLP.part.buried>
-6.1735

> <Gold.PLP.part.nonpolar>
-23.4153

> <Gold.PLP.part.repulsive>
0.0841

> <Gold.PLP.ligand.clash>
0.0000

> <Gold.PLP.ligand.torsion>
0.6835

> <Gold.PLP.Chemscore.Hbond>
3.6232

> <Gold.PLP.Chemscore.CHOScore>
0.0000

> <Gold.PLP.Chemscore.Metal>
0.0000

> <Gold.Chemscore.Hbonds>
donor molecule, donor type, donor heavy atom, donor atom, acceptor molecule, acceptor atom, score
      L1  H    12    39       P1  7948  2.00
      L1  H    15    34       P1  7948  1.00
      P1  H  7989  7998       L1     7  0.60

> <Gold.PLP.Chemscore.Internal.Correction>
0.0449

> <Gold.Rescore>
     Score         DG    S(hbond)    S(metal)    S(lipo)     H(rot)  DE(clash)    DE(int)     intcor
     13.61     -17.00       2.67        0.00      66.39       2.02       0.12       3.27       ----

> <Gold.Chemscore.Fitness>
13.6132

> <Gold.Chemscore.DG>
-17.0031

> <Gold.Chemscore.ZeroCoef>
-5.4800

> <Gold.Chemscore.Hbond>
2.6743

> <Gold.Chemscore.Metal>
0.0000

> <Gold.Chemscore.Lipo>
66.3918

> <Gold.Chemscore.Internal_Hbond>
0.0000

> <Gold.Chemscore.DEClash>
0.1215

> <Gold.Chemscore.DEInternal>
3.2683

> <Gold.Chemscore.Rot>
2.0222

> <Gold.Chemscore.Internal.Correction>
   9.000000E+99

> <Gold.Chemscore.Hbonds>
donor molecule, donor type, donor heavy atom, donor atom, acceptor molecule, acceptor atom, score
      L1  H    12    39       P1  7948  0.35
      L1  H    15    34       P1  7948  0.60
      P1  H  7989  7998       L1     7  0.58

> <Gold.Chemscore.Hbond.Weighted>
-8.9322

> <Gold.Chemscore.Metal.Weighted>
-0.0000

> <Gold.Chemscore.Lipo.Weighted>
-7.7678

> <Gold.Chemscore.Internal_Hbond.Weighted>
0.0000

> <Gold.Chemscore.DEClash.Weighted>
0.1215

> <Gold.Chemscore.DEInternal.Weighted>
3.2683

> <Gold.Chemscore.Rot.Weighted>
5.1769

> <Gold.Chemscore.Internal.Correction.Weighted>
   9.000000E+99

> <Gold.Protein.RotatedTorsions>
[ 6907 6896 6895 6894 ] final   79.31 input  -60.11 | X-H torsion
[ 7974 7965 7964 7962 ] final -166.75 input  175.53 | X-H torsion
[ 8008 7997 7996 7995 ] final  150.33 input   59.86 | X-H torsion
[ 10167 10162 10161 10158 ] final   87.06 input  -65.29 | X-H torsion
[ 10718 10713 10712 10709 ] final  108.43 input   66.30 | X-H torsion
[ 10763 10752 10751 10750 ] final  -77.67 input  -60.55 | X-H torsion
[ 11005 11000 10999 10996 ] final   17.41 input  -57.11 | X-H torsion

> <Gold.Protein.ActiveResidues>
 VAL166  LYS551  ARG553  GLY616  TRP617  ASP618  TYR619  PRO620  LYS621  CYS622 
 ASP623  PHE694  ASN695  SER759  ASP760  ASP761  ALA762  ILE779  LEU786  VAL792 
 PHE793  MET794  SER795  GLU796  ALA797  LYS798  CYS799  TRP800  GLU811  SER814 

> <Gold.Protein.RotatedAtoms>
  152.5193  134.3530  159.9257 H   0  0  0  0  0  0  0  0  0  0  0  0  # atno 6907 bound_to 6896
  151.3481  133.3929  159.2685 H   0  0  0  0  0  0  0  0  0  0  0  0  # atno 6908 bound_to 6896
  150.9749  134.9133  159.7868 H   0  0  0  0  0  0  0  0  0  0  0  0  # atno 6909 bound_to 6896
  144.7238  140.2621  143.6263 H   0  0  0  0  0  0  0  0  0  0  0  0  # atno 7974 bound_to 7965
  156.2720  140.2078  156.5999 H   0  0  0  0  0  0  0  0  0  0  0  0  # atno 8008 bound_to 7997
  154.6915  140.0530  157.0391 H   0  0  0  0  0  0  0  0  0  0  0  0  # atno 8009 bound_to 7997
  155.0860  140.3191  155.4590 H   0  0  0  0  0  0  0  0  0  0  0  0  # atno 8010 bound_to 7997
  139.8812  144.6439  150.8841 H   0  0  0  0  0  0  0  0  0  0  0  0  # atno 10167 bound_to 10162
  157.6586  131.0893  150.6304 H   0  0  0  0  0  0  0  0  0  0  0  0  # atno 10718 bound_to 10713
  154.5160  135.5756  153.6642 H   0  0  0  0  0  0  0  0  0  0  0  0  # atno 10763 bound_to 10752
  152.9907  135.6170  154.2817 H   0  0  0  0  0  0  0  0  0  0  0  0  # atno 10764 bound_to 10752
  154.2734  135.2853  155.2708 H   0  0  0  0  0  0  0  0  0  0  0  0  # atno 10765 bound_to 10752
  140.4362  134.1368  155.7685 H   0  0  0  0  0  0  0  0  0  0  0  0  # atno 11005 bound_to 11000
  145.8126  139.2009  143.1984 LP  0  0  0  0  0  0  0  0  0  0  0  0  # atno 17320 bound_to 7965
  146.0583  140.7998  142.9747 LP  0  0  0  0  0  0  0  0  0  0  0  0  # atno 17321 bound_to 7965
  140.7744  143.3584  151.1876 LP  0  0  0  0  0  0  0  0  0  0  0  0  # atno 17342 bound_to 10162
  139.7194  143.9247  152.2979 LP  0  0  0  0  0  0  0  0  0  0  0  0  # atno 17343 bound_to 10162
  156.6608  130.4511  149.5688 LP  0  0  0  0  0  0  0  0  0  0  0  0  # atno 17370 bound_to 10713
  156.2068  130.6654  151.1227 LP  0  0  0  0  0  0  0  0  0  0  0  0  # atno 17371 bound_to 10713
  141.1725  133.8581  157.1527 LP  0  0  0  0  0  0  0  0  0  0  0  0  # atno 17394 bound_to 11000
  140.0100  134.9992  157.0375 LP  0  0  0  0  0  0  0  0  0  0  0  0  # atno 17395 bound_to 11000

$$$$
