AV-unprocessed.smi:33|AV-procd|sdf|202|dock1
  -GOLD-   2262015483D 1   1.00000     0.00000
 Structure written by MMmdl.
 67 72  0  0  0  0  0  0  0  0  1 V2000
  153.6326  139.7396  158.7535 O   0  0  0  0  0  0  0  0  0  0  0  0
  152.8122  140.6144  159.0390 C   0  0  0  0  0  0  0  0  0  0  0  0
  151.7740  140.9493  158.2479 O   0  0  0  0  0  0  0  0  0  0  0  0
  151.8222  140.6633  156.8592 C   0  0  0  0  0  0  0  0  0  0  0  0
  150.3992  140.4842  156.3184 C   0  0  1  0  0  0  0  0  0  0  0  0
  149.6685  141.6928  156.4625 O   0  0  0  0  0  0  0  0  0  0  0  0
  148.5670  141.6624  155.6089 C   0  0  2  0  0  0  0  0  0  0  0  0
  147.4079  141.1081  156.3873 N   0  0  0  0  0  0  0  0  0  0  0  0
  147.2835  139.9101  157.0648 C   0  0  0  0  0  0  0  0  0  0  0  0
  146.1470  139.7286  157.6814 N   0  0  0  0  0  0  0  0  0  0  0  0
  145.4423  140.8986  157.4350 C   0  0  0  0  0  0  0  0  0  0  0  0
  144.1586  141.3781  157.8103 C   0  0  0  0  0  0  0  0  0  0  0  0
  143.2967  140.6551  158.5627 N   0  0  0  0  0  0  0  0  0  0  0  0
  142.8697  139.3497  158.0356 C   0  0  0  0  0  0  0  0  0  0  0  0
  142.9210  139.1402  156.8220 O   0  0  0  0  0  0  0  0  0  0  0  0
  142.3180  138.2955  158.9540 C   0  0  0  0  0  0  0  0  0  0  0  0
  142.7970  138.1936  160.2786 C   0  0  0  0  0  0  0  0  0  0  0  0
  142.2796  137.2141  161.1482 C   0  0  0  0  0  0  0  0  0  0  0  0
  141.2671  136.3421  160.7050 C   0  0  0  0  0  0  0  0  0  0  0  0
  140.7634  136.4579  159.3954 C   0  0  0  0  0  0  0  0  0  0  0  0
  141.2796  137.4376  158.5254 C   0  0  0  0  0  0  0  0  0  0  0  0
  142.8678  141.2495  159.8368 C   0  0  0  0  0  0  0  0  0  0  0  0
  141.7860  140.9211  160.3279 O   0  0  0  0  0  0  0  0  0  0  0  0
  143.7168  142.2839  160.5190 C   0  0  0  0  0  0  0  0  0  0  0  0
  143.1089  143.3692  161.1874 C   0  0  0  0  0  0  0  0  0  0  0  0
  143.9005  144.3339  161.8402 C   0  0  0  0  0  0  0  0  0  0  0  0
  145.3028  144.2084  161.8461 C   0  0  0  0  0  0  0  0  0  0  0  0
  145.9137  143.1127  161.2071 C   0  0  0  0  0  0  0  0  0  0  0  0
  145.1232  142.1490  160.5517 C   0  0  0  0  0  0  0  0  0  0  0  0
  143.7922  142.6168  157.3907 N   0  0  0  0  0  0  0  0  0  0  0  0
  144.6332  143.3398  156.6451 C   0  0  0  0  0  0  0  0  0  0  0  0
  145.8559  143.0184  156.2144 N   0  0  0  0  0  0  0  0  0  0  0  0
  146.2263  141.7740  156.6355 C   0  0  0  0  0  0  0  0  0  0  0  0
  148.9436  140.7572  154.4186 C   0  0  1  0  0  0  0  0  0  0  0  0
  149.0168  141.4744  153.2035 O   0  0  0  0  0  0  0  0  0  0  0  0
  150.3204  140.2285  154.8126 C   0  0  2  0  0  0  0  0  0  0  0  0
  150.4443  138.9320  154.5264 F   0  0  0  0  0  0  0  0  0  0  0  0
  152.8688  141.4153  160.2960 C   0  0  0  0  0  0  0  0  0  0  0  0
  153.6049  140.9216  161.3984 C   0  0  0  0  0  0  0  0  0  0  0  0
  153.6802  141.6558  162.5979 C   0  0  0  0  0  0  0  0  0  0  0  0
  153.0194  142.8928  162.7100 C   0  0  0  0  0  0  0  0  0  0  0  0
  152.2826  143.3945  161.6211 C   0  0  0  0  0  0  0  0  0  0  0  0
  152.2066  142.6618  160.4201 C   0  0  0  0  0  0  0  0  0  0  0  0
  152.3086  141.4909  156.3411 H   0  0  0  0  0  0  0  0  0  0  0  0
  152.4172  139.7675  156.6756 H   0  0  0  0  0  0  0  0  0  0  0  0
  149.8866  139.6971  156.8725 H   0  0  0  0  0  0  0  0  0  0  0  0
  148.2599  142.6683  155.3197 H   0  0  0  0  0  0  0  0  0  0  0  0
  148.0624  139.1623  157.0930 H   0  0  0  0  0  0  0  0  0  0  0  0
  143.5751  138.8565  160.6294 H   0  0  0  0  0  0  0  0  0  0  0  0
  142.6598  137.1322  162.1559 H   0  0  0  0  0  0  0  0  0  0  0  0
  140.8724  135.5898  161.3718 H   0  0  0  0  0  0  0  0  0  0  0  0
  139.9803  135.7952  159.0577 H   0  0  0  0  0  0  0  0  0  0  0  0
  140.8826  137.5189  157.5239 H   0  0  0  0  0  0  0  0  0  0  0  0
  142.0336  143.4750  161.1887 H   0  0  0  0  0  0  0  0  0  0  0  0
  143.4312  145.1700  162.3373 H   0  0  0  0  0  0  0  0  0  0  0  0
  145.9090  144.9484  162.3476 H   0  0  0  0  0  0  0  0  0  0  0  0
  146.9887  143.0100  161.2204 H   0  0  0  0  0  0  0  0  0  0  0  0
  145.6020  141.3094  160.0684 H   0  0  0  0  0  0  0  0  0  0  0  0
  144.2759  144.3158  156.3515 H   0  0  0  0  0  0  0  0  0  0  0  0
  148.2186  139.9527  154.2967 H   0  0  0  0  0  0  0  0  0  0  0  0
  149.1775  140.8615  152.5021 H   0  0  0  0  0  0  0  0  0  0  0  0
  151.1150  140.7661  154.2922 H   0  0  0  0  0  0  0  0  0  0  0  0
  154.1215  139.9746  161.3363 H   0  0  0  0  0  0  0  0  0  0  0  0
  154.2460  141.2685  163.4325 H   0  0  0  0  0  0  0  0  0  0  0  0
  153.0776  143.4557  163.6300 H   0  0  0  0  0  0  0  0  0  0  0  0
  151.7743  144.3436  161.7067 H   0  0  0  0  0  0  0  0  0  0  0  0
  151.6323  143.0754  159.6039 H   0  0  0  0  0  0  0  0  0  0  0  0
  1  2  2  0  0  0  0
  2  3  1  0  0  0  0
  2 38  1  0  0  0  0
  3  4  1  0  0  0  0
  4  5  1  0  0  0  0
  4 44  1  0  0  0  0
  4 45  1  0  0  0  0
  5 36  1  0  0  0  0
  5  6  1  0  0  0  0
  5 46  1  0  0  0  0
  6  7  1  0  0  0  0
  7  8  1  0  0  0  0
  7 34  1  0  0  0  0
  7 47  1  0  0  0  0
  8 33  1  0  0  0  0
  8  9  1  0  0  0  0
  9 10  2  0  0  0  0
  9 48  1  0  0  0  0
 10 11  1  0  0  0  0
 11 33  2  0  0  0  0
 11 12  1  0  0  0  0
 12 13  1  0  0  0  0
 12 30  2  0  0  0  0
 13 14  1  0  0  0  0
 13 22  1  0  0  0  0
 14 15  2  0  0  0  0
 14 16  1  0  0  0  0
 16 21  1  0  0  0  0
 16 17  2  0  0  0  0
 17 18  1  0  0  0  0
 17 49  1  0  0  0  0
 18 19  2  0  0  0  0
 18 50  1  0  0  0  0
 19 20  1  0  0  0  0
 19 51  1  0  0  0  0
 20 21  2  0  0  0  0
 20 52  1  0  0  0  0
 21 53  1  0  0  0  0
 22 23  2  0  0  0  0
 22 24  1  0  0  0  0
 24 29  1  0  0  0  0
 24 25  2  0  0  0  0
 25 26  1  0  0  0  0
 25 54  1  0  0  0  0
 26 27  2  0  0  0  0
 26 55  1  0  0  0  0
 27 28  1  0  0  0  0
 27 56  1  0  0  0  0
 28 29  2  0  0  0  0
 28 57  1  0  0  0  0
 29 58  1  0  0  0  0
 30 31  1  0  0  0  0
 31 32  2  0  0  0  0
 31 59  1  0  0  0  0
 32 33  1  0  0  0  0
 34 35  1  0  0  0  0
 34 36  1  0  0  0  0
 34 60  1  0  0  0  0
 35 61  1  0  0  0  0
 36 37  1  0  0  0  0
 36 62  1  0  0  0  0
 38 43  1  0  0  0  0
 38 39  2  0  0  0  0
 39 40  1  0  0  0  0
 39 63  1  0  0  0  0
 40 41  2  0  0  0  0
 40 64  1  0  0  0  0
 41 42  1  0  0  0  0
 41 65  1  0  0  0  0
 42 43  2  0  0  0  0
 42 66  1  0  0  0  0
 43 67  1  0  0  0  0
M  END
> <s_m_source_file>
AV-unprocessed.smi

> <i_m_source_file_index>
33

> <i_lp_mmshare_version>
43012

> <i_f3d_flags>
0

> <s_epik_input>
W2NIXTFbY0hdW2NIXVtjSF1bY0hdYzFDKD1PKU9bQ0gyXVtDQEBIXTJPW0NASF0oW0NAQEhdKFtPSF0pW0NAQEhdMkYpbihbY0hdbjMpYyhjMzQpbltjSF1uYzROKEMoPU8pYzVbY0hdW2NIXVtjSF1bY0hdW2NIXTUpQyg9TyljNltjSF1bY0hdW2NIXVtjSF1bY0hdNg==

> <s_epik_cmdline>
J2VwaWtfcHl0aG9uJywgJy1waCcsICc3LjAnLCAnLXRuJywgJzgnLCAnLW1hJywgJzIwMCcsICctbWV0YWxfYmluZGluZycsICctaW1hZScsICc8aW5maWxlLm1hZT4nLCAnLW9tYWUnLCAnPG91dGZpbGUubWFlPic=

> <r_lp_tautomer_probability>
1

> <r_epik_Ionization_Penalty>
0.00067664

> <r_epik_Ionization_Penalty_Charging>
0

> <r_epik_Ionization_Penalty_Neutral>
0.00067664

> <r_epik_State_Penalty>
0.000428095

> <r_epik_Charging_Adjusted_Penalty>
0.000428095

> <i_epik_Tot_Q>
0

> <i_epik_Tot_abs_Q>
0

> <r_epik_Metal_State_Penalty>
-0

> <b_epik_Metal_Only>
0

> <s_epik_Chemistry_Notes>
This compound has an ester and may undergo hydrolysis at high or low pH. This compound contains an acetal/aminal-like group ( X-CH(R)-Y where X, Y are N, S, or O) that may be acid/base labile, releasing an aldehyde.

> <s_lp_Force_Field>
OPLS_2005

> <r_lp_Energy>
69.1038

> <b_lp_Chiralities_Consistent>
1

> <s_lp_Variant>
AV-unprocessed.smi:33-4

> <Gold.Version>
5.8.1

> <Gold.Id.Protein>
6NUR|6NUR_protein|mol2

> <Gold.PLP.Fitness>
64.6094

> <Gold.PLP.PLP>
-59.7202

> <Gold.PLP.part.hbond>
-4.8956

> <Gold.PLP.part.metal>
0.0000

> <Gold.PLP.part.buried>
-5.5609

> <Gold.PLP.part.nonpolar>
-48.3484

> <Gold.PLP.part.repulsive>
0.2196

> <Gold.PLP.ligand.clash>
0.0000

> <Gold.PLP.ligand.torsion>
3.2732

> <Gold.PLP.Chemscore.Hbond>
2.5680

> <Gold.PLP.Chemscore.CHOScore>
0.0000

> <Gold.PLP.Chemscore.Metal>
0.0000

> <Gold.Chemscore.Hbonds>
donor molecule, donor type, donor heavy atom, donor atom, acceptor molecule, acceptor atom, score
      L1  H    35    61       P1  7957  1.00
      P1  H  7997  8010       L1     1  1.00
      P1  H  8011  8017       L1    35  0.13

> <Gold.PLP.Chemscore.Internal.Correction>
3.7316

> <Gold.Rescore>
     Score         DG    S(hbond)    S(metal)    S(lipo)     H(rot)  DE(clash)    DE(int)     intcor
     15.78     -20.54       1.92        0.00     129.16       2.52       0.06       4.70       ----

> <Gold.Chemscore.Fitness>
15.7762

> <Gold.Chemscore.DG>
-20.5400

> <Gold.Chemscore.ZeroCoef>
-5.4800

> <Gold.Chemscore.Hbond>
1.9197

> <Gold.Chemscore.Metal>
0.0000

> <Gold.Chemscore.Lipo>
129.1566

> <Gold.Chemscore.Internal_Hbond>
0.0000

> <Gold.Chemscore.DEClash>
0.0634

> <Gold.Chemscore.DEInternal>
4.7004

> <Gold.Chemscore.Rot>
2.5247

> <Gold.Chemscore.Internal.Correction>
   9.000000E+99

> <Gold.Chemscore.Hbonds>
donor molecule, donor type, donor heavy atom, donor atom, acceptor molecule, acceptor atom, score
      L1  H    35    61       P1  7957  0.99
      P1  H  7997  8010       L1     1  0.94

> <Gold.Chemscore.Hbond.Weighted>
-6.4119

> <Gold.Chemscore.Metal.Weighted>
-0.0000

> <Gold.Chemscore.Lipo.Weighted>
-15.1113

> <Gold.Chemscore.Internal_Hbond.Weighted>
0.0000

> <Gold.Chemscore.DEClash.Weighted>
0.0634

> <Gold.Chemscore.DEInternal.Weighted>
4.7004

> <Gold.Chemscore.Rot.Weighted>
6.4633

> <Gold.Chemscore.Internal.Correction.Weighted>
   9.000000E+99

> <Gold.Protein.RotatedTorsions>
[ 6907 6896 6895 6894 ] final  -95.55 input  -60.11 | X-H torsion
[ 7974 7965 7964 7962 ] final -163.64 input  175.53 | X-H torsion
[ 8008 7997 7996 7995 ] final   20.95 input   59.86 | X-H torsion
[ 10167 10162 10161 10158 ] final -168.76 input  -65.29 | X-H torsion
[ 10718 10713 10712 10709 ] final -166.44 input   66.30 | X-H torsion
[ 10763 10752 10751 10750 ] final   82.39 input  -60.55 | X-H torsion
[ 11005 11000 10999 10996 ] final  118.50 input  -57.11 | X-H torsion

> <Gold.Protein.ActiveResidues>
 VAL166  LYS551  ARG553  GLY616  TRP617  ASP618  TYR619  PRO620  LYS621  CYS622 
 ASP623  PHE694  ASN695  SER759  ASP760  ASP761  ALA762  ILE779  LEU786  VAL792 
 PHE793  MET794  SER795  GLU796  ALA797  LYS798  CYS799  TRP800  GLU811  SER814 

> <Gold.Protein.RotatedAtoms>
  150.6966  134.1640  159.4186 H   0  0  0  0  0  0  0  0  0  0  0  0  # atno 6907 bound_to 6896
  151.9620  135.0117  160.0557 H   0  0  0  0  0  0  0  0  0  0  0  0  # atno 6908 bound_to 6896
  152.1918  133.4744  159.5049 H   0  0  0  0  0  0  0  0  0  0  0  0  # atno 6909 bound_to 6896
  144.7320  140.3078  143.6193 H   0  0  0  0  0  0  0  0  0  0  0  0  # atno 7974 bound_to 7965
  154.9433  140.3056  155.5110 H   0  0  0  0  0  0  0  0  0  0  0  0  # atno 8008 bound_to 7997
  156.2994  140.2332  156.4442 H   0  0  0  0  0  0  0  0  0  0  0  0  # atno 8009 bound_to 7997
  154.8124  140.0428  157.1341 H   0  0  0  0  0  0  0  0  0  0  0  0  # atno 8010 bound_to 7997
  139.5965  144.1102  152.1694 H   0  0  0  0  0  0  0  0  0  0  0  0  # atno 10167 bound_to 10162
  156.6679  130.9072  151.3039 H   0  0  0  0  0  0  0  0  0  0  0  0  # atno 10718 bound_to 10713
  153.1199  135.4730  154.9177 H   0  0  0  0  0  0  0  0  0  0  0  0  # atno 10763 bound_to 10752
  154.7565  135.3120  154.8463 H   0  0  0  0  0  0  0  0  0  0  0  0  # atno 10764 bound_to 10752
  153.9030  135.6873  153.4808 H   0  0  0  0  0  0  0  0  0  0  0  0  # atno 10765 bound_to 10752
  139.9112  134.9621  156.7512 H   0  0  0  0  0  0  0  0  0  0  0  0  # atno 11005 bound_to 11000
  145.7695  139.1852  143.2220 LP  0  0  0  0  0  0  0  0  0  0  0  0  # atno 17320 bound_to 7965
  146.0922  140.7643  142.9590 LP  0  0  0  0  0  0  0  0  0  0  0  0  # atno 17321 bound_to 7965
  140.0688  144.5796  150.7207 LP  0  0  0  0  0  0  0  0  0  0  0  0  # atno 17342 bound_to 10162
  140.7216  143.2594  151.4261 LP  0  0  0  0  0  0  0  0  0  0  0  0  # atno 17343 bound_to 10162
  157.7087  130.9415  150.1017 LP  0  0  0  0  0  0  0  0  0  0  0  0  # atno 17370 bound_to 10713
  156.1961  130.3657  149.8847 LP  0  0  0  0  0  0  0  0  0  0  0  0  # atno 17371 bound_to 10713
  140.6772  133.9507  155.7890 LP  0  0  0  0  0  0  0  0  0  0  0  0  # atno 17394 bound_to 11000
  141.0536  134.0449  157.3752 LP  0  0  0  0  0  0  0  0  0  0  0  0  # atno 17395 bound_to 11000

$$$$
