AV-unprocessed.smi:1|AV-procd|sdf|20|dock2
  -GOLD-   2262015123D 1   1.00000     0.00000
 Structure written by MMmdl.
 56 61  0  0  0  0  0  0  0  0  2 V2000
  151.6720  141.1099  156.6213 O   0  0  0  0  0  0  0  0  0  0  0  0
  151.7980  141.1334  157.8476 C   0  0  0  0  0  0  0  0  0  0  0  0
  151.7744  140.0834  158.7072 N   0  5  0  0  0  0  0  0  0  0  0  0
  152.1840  138.8747  158.2922 C   0  0  0  0  0  0  0  0  0  0  0  0
  151.6084  138.2893  157.2113 N   0  0  0  0  0  0  0  0  0  0  0  0
  152.0212  137.0874  156.7937 C   0  0  0  0  0  0  0  0  0  0  0  0
  152.9786  136.3054  157.3013 N   0  0  0  0  0  0  0  0  0  0  0  0
  153.5584  136.8755  158.3973 C   0  0  0  0  0  0  0  0  0  0  0  0
  153.2118  138.1435  158.9494 C   0  0  0  0  0  0  0  0  0  0  0  0
  153.9877  138.4241  160.0636 N   0  0  0  0  0  0  0  0  0  0  0  0
  154.7577  137.3411  160.1340 C   0  0  0  0  0  0  0  0  0  0  0  0
  154.5829  136.3893  159.1954 N   0  0  0  0  0  0  0  0  0  0  0  0
  155.3266  135.0975  159.0781 C   0  0  1  0  0  0  0  0  0  0  0  0
  154.4347  134.0357  159.2471 O   0  0  0  0  0  0  0  0  0  0  0  0
  154.3425  133.2615  158.0540 C   0  0  2  0  0  0  0  0  0  0  0  0
  154.0303  131.7952  158.3721 C   0  0  0  0  0  0  0  0  0  0  0  0
  153.2211  131.2677  157.3343 O   0  0  0  0  0  0  0  0  0  0  0  0
  152.0871  131.8962  156.9731 C   0  0  0  0  0  0  0  0  0  0  0  0
  151.6649  132.9137  157.5262 O   0  0  0  0  0  0  0  0  0  0  0  0
  151.3950  131.2297  155.8324 C   0  0  0  0  0  0  0  0  0  0  0  0
  151.8213  129.9467  155.4167 C   0  0  0  0  0  0  0  0  0  0  0  0
  151.1853  129.2922  154.3440 C   0  0  0  0  0  0  0  0  0  0  0  0
  150.1153  129.9126  153.6736 C   0  0  0  0  0  0  0  0  0  0  0  0
  149.6821  131.1890  154.0769 C   0  0  0  0  0  0  0  0  0  0  0  0
  150.3167  131.8452  155.1496 C   0  0  0  0  0  0  0  0  0  0  0  0
  155.6824  133.4912  157.3581 C   0  0  2  0  0  0  0  0  0  0  0  0
  156.7008  132.6750  157.9134 O   0  0  0  0  0  0  0  0  0  0  0  0
  158.0749  133.6057  158.1051 S   0  0  0  0  0  0  0  0  0  0  0  0
  158.4710  133.5549  159.5207 O   0  0  0  0  0  0  0  0  0  0  0  0
  159.0037  133.2902  157.0092 O   0  0  0  0  0  0  0  0  0  0  0  0
  157.3995  135.1039  157.8013 O   0  0  0  0  0  0  0  0  0  0  0  0
  155.9948  134.9502  157.7024 C   0  0  2  0  0  0  0  0  0  0  0  0
  151.9360  142.4643  158.5370 C   0  0  0  0  0  0  0  0  0  0  0  0
  151.4559  143.6337  157.9043 C   0  0  0  0  0  0  0  0  0  0  0  0
  151.6003  144.8922  158.5202 C   0  0  0  0  0  0  0  0  0  0  0  0
  152.2356  144.9961  159.7717 C   0  0  0  0  0  0  0  0  0  0  0  0
  152.7296  143.8405  160.4053 C   0  0  0  0  0  0  0  0  0  0  0  0
  152.5853  142.5815  159.7903 C   0  0  0  0  0  0  0  0  0  0  0  0
  151.5126  136.6970  155.9249 H   0  0  0  0  0  0  0  0  0  0  0  0
  155.4977  137.2360  160.9136 H   0  0  0  0  0  0  0  0  0  0  0  0
  156.0364  135.1060  159.9064 H   0  0  0  0  0  0  0  0  0  0  0  0
  153.5537  133.6718  157.4241 H   0  0  0  0  0  0  0  0  0  0  0  0
  154.9569  131.2221  158.4248 H   0  0  0  0  0  0  0  0  0  0  0  0
  153.5290  131.7061  159.3369 H   0  0  0  0  0  0  0  0  0  0  0  0
  152.6404  129.4507  155.9168 H   0  0  0  0  0  0  0  0  0  0  0  0
  151.5197  128.3127  154.0356 H   0  0  0  0  0  0  0  0  0  0  0  0
  149.6278  129.4102  152.8511 H   0  0  0  0  0  0  0  0  0  0  0  0
  148.8605  131.6668  153.5640 H   0  0  0  0  0  0  0  0  0  0  0  0
  149.9581  132.8237  155.4341 H   0  0  0  0  0  0  0  0  0  0  0  0
  155.6311  133.3169  156.2829 H   0  0  0  0  0  0  0  0  0  0  0  0
  155.5596  135.6348  156.9738 H   0  0  0  0  0  0  0  0  0  0  0  0
  150.9680  143.5712  156.9422 H   0  0  0  0  0  0  0  0  0  0  0  0
  151.2243  145.7782  158.0303 H   0  0  0  0  0  0  0  0  0  0  0  0
  152.3473  145.9609  160.2434 H   0  0  0  0  0  0  0  0  0  0  0  0
  153.2237  143.9189  161.3624 H   0  0  0  0  0  0  0  0  0  0  0  0
  152.9815  141.7082  160.2881 H   0  0  0  0  0  0  0  0  0  0  0  0
  1  2  2  0  0  0  0
  2  3  1  0  0  0  0
  2 33  1  0  0  0  0
  3  4  1  0  0  0  0
  4  9  1  0  0  0  0
  4  5  2  0  0  0  0
  5  6  1  0  0  0  0
  6  7  2  0  0  0  0
  6 39  1  0  0  0  0
  7  8  1  0  0  0  0
  8 12  1  0  0  0  0
  8  9  2  0  0  0  0
  9 10  1  0  0  0  0
 10 11  2  0  0  0  0
 11 12  1  0  0  0  0
 11 40  1  0  0  0  0
 12 13  1  0  0  0  0
 13 32  1  0  0  0  0
 13 14  1  0  0  0  0
 13 41  1  0  0  0  0
 14 15  1  0  0  0  0
 15 16  1  0  0  0  0
 15 26  1  0  0  0  0
 15 42  1  0  0  0  0
 16 17  1  0  0  0  0
 16 43  1  0  0  0  0
 16 44  1  0  0  0  0
 17 18  1  0  0  0  0
 18 19  2  0  0  0  0
 18 20  1  0  0  0  0
 20 25  1  0  0  0  0
 20 21  2  0  0  0  0
 21 22  1  0  0  0  0
 21 45  1  0  0  0  0
 22 23  2  0  0  0  0
 22 46  1  0  0  0  0
 23 24  1  0  0  0  0
 23 47  1  0  0  0  0
 24 25  2  0  0  0  0
 24 48  1  0  0  0  0
 25 49  1  0  0  0  0
 26 32  1  0  0  0  0
 26 27  1  0  0  0  0
 26 50  1  0  0  0  0
 27 28  1  0  0  0  0
 28 29  2  0  0  0  0
 28 30  2  0  0  0  0
 28 31  1  0  0  0  0
 31 32  1  0  0  0  0
 32 51  1  0  0  0  0
 33 38  1  0  0  0  0
 33 34  2  0  0  0  0
 34 35  1  0  0  0  0
 34 52  1  0  0  0  0
 35 36  2  0  0  0  0
 35 53  1  0  0  0  0
 36 37  1  0  0  0  0
 36 54  1  0  0  0  0
 37 38  2  0  0  0  0
 37 55  1  0  0  0  0
 38 56  1  0  0  0  0
M  CHG  1   3  -1
M  END
> <s_m_source_file>
AV-unprocessed.smi

> <i_m_source_file_index>
1

> <i_lp_mmshare_version>
43012

> <i_f3d_flags>
0

> <s_epik_input>
W2NIXTFbY0hdW2NIXVtjSF1bY0hdYzFDKD1PKVtOSF1jKG5bY0hdbjIpYyhjMjMpbltjSF1uM1tDQEBIXShbQ0BIXShbQ0BIXTQ1KU9TKE81KSg9Tyk9TylPW0NASF00W0NIMl1PQyg9TyljNltjSF1bY0hdW2NIXVtjSF1bY0hdNg==

> <s_epik_cmdline>
J2VwaWtfcHl0aG9uJywgJy1waCcsICc3LjAnLCAnLXRuJywgJzgnLCAnLW1hJywgJzIwMCcsICctbWV0YWxfYmluZGluZycsICctaW1hZScsICc8aW5maWxlLm1hZT4nLCAnLW9tYWUnLCAnPG91dGZpbGUubWFlPic=

> <r_lp_tautomer_probability>
1

> <r_epik_Ionization_Penalty>
4.39121

> <r_epik_Ionization_Penalty_Charging>
3.39398

> <r_epik_Ionization_Penalty_Neutral>
0.997232

> <r_epik_State_Penalty>
3.39839

> <r_epik_Charging_Adjusted_Penalty>
6.79237

> <i_epik_Tot_Q>
-1

> <i_epik_Tot_abs_Q>
1

> <r_epik_Metal_State_Penalty>
0.497663

> <b_epik_Metal_Only>
1

> <s_epik_Chemistry_Notes>
This compound has an ester and may undergo hydrolysis at high or low pH. This compound contains an acetal/aminal-like group ( X-CH(R)-Y where X, Y are N, S, or O) that may be acid/base labile, releasing an aldehyde.

> <s_lp_Force_Field>
OPLS_2005

> <r_lp_Energy>
42.8802

> <b_lp_Chiralities_Consistent>
1

> <s_lp_Variant>
AV-unprocessed.smi:1-20

> <Gold.Version>
5.8.1

> <Gold.Id.Protein>
6NUR|6NUR_protein|mol2

> <Gold.PLP.Fitness>
54.8818

> <Gold.PLP.PLP>
-48.4889

> <Gold.PLP.part.hbond>
-3.0000

> <Gold.PLP.part.metal>
0.0000

> <Gold.PLP.part.buried>
-6.5890

> <Gold.PLP.part.nonpolar>
-38.8826

> <Gold.PLP.part.repulsive>
0.0114

> <Gold.PLP.ligand.clash>
0.0000

> <Gold.PLP.ligand.torsion>
1.5135

> <Gold.PLP.Chemscore.Hbond>
2.9280

> <Gold.PLP.Chemscore.CHOScore>
0.0000

> <Gold.PLP.Chemscore.Metal>
0.0000

> <Gold.Chemscore.Hbonds>
donor molecule, donor type, donor heavy atom, donor atom, acceptor molecule, acceptor atom, score
      P1  H  6896  6908       L1    14  1.00
      P1  H  6896  6909       L1    19  0.72
      P1  H 10752 10763       L1     7  0.40

> <Gold.PLP.Chemscore.Internal.Correction>
0.6358

> <Gold.Rescore>
     Score         DG    S(hbond)    S(metal)    S(lipo)     H(rot)  DE(clash)    DE(int)     intcor
     16.54     -21.60       2.43        0.00     114.54       2.11       0.05       5.01       ----

> <Gold.Chemscore.Fitness>
16.5443

> <Gold.Chemscore.DG>
-21.6019

> <Gold.Chemscore.ZeroCoef>
-5.4800

> <Gold.Chemscore.Hbond>
2.4345

> <Gold.Chemscore.Metal>
0.0000

> <Gold.Chemscore.Lipo>
114.5433

> <Gold.Chemscore.Internal_Hbond>
0.0000

> <Gold.Chemscore.DEClash>
0.0490

> <Gold.Chemscore.DEInternal>
5.0085

> <Gold.Chemscore.Rot>
2.1136

> <Gold.Chemscore.Internal.Correction>
   9.000000E+99

> <Gold.Chemscore.Hbonds>
donor molecule, donor type, donor heavy atom, donor atom, acceptor molecule, acceptor atom, score
      P1  H  6896  6908       L1    14  0.39
      P1  H  6896  6909       L1    19  0.72
      P1  H 10752 10763       L1     7  0.09

> <Gold.Chemscore.Hbond.Weighted>
-8.1311

> <Gold.Chemscore.Metal.Weighted>
-0.0000

> <Gold.Chemscore.Lipo.Weighted>
-13.4016

> <Gold.Chemscore.Internal_Hbond.Weighted>
0.0000

> <Gold.Chemscore.DEClash.Weighted>
0.0490

> <Gold.Chemscore.DEInternal.Weighted>
5.0085

> <Gold.Chemscore.Rot.Weighted>
5.4107

> <Gold.Chemscore.Internal.Correction.Weighted>
   9.000000E+99

> <Gold.Protein.RotatedTorsions>
[ 6907 6896 6895 6894 ] final  -27.86 input  -60.11 | X-H torsion
[ 7974 7965 7964 7962 ] final -154.27 input  175.53 | X-H torsion
[ 8008 7997 7996 7995 ] final  153.95 input   59.86 | X-H torsion
[ 10167 10162 10161 10158 ] final -106.10 input  -65.29 | X-H torsion
[ 10718 10713 10712 10709 ] final  -10.76 input   66.30 | X-H torsion
[ 10763 10752 10751 10750 ] final  128.95 input  -60.55 | X-H torsion
[ 11005 11000 10999 10996 ] final  -40.71 input  -57.11 | X-H torsion

> <Gold.Protein.ActiveResidues>
 VAL166  LYS551  ARG553  GLY616  TRP617  ASP618  TYR619  PRO620  LYS621  CYS622 
 ASP623  PHE694  ASN695  SER759  ASP760  ASP761  ALA762  ILE779  LEU786  VAL792 
 PHE793  MET794  SER795  GLU796  ALA797  LYS798  CYS799  TRP800  GLU811  SER814 

> <Gold.Protein.RotatedAtoms>
  151.1410  135.0179  159.8625 H   0  0  0  0  0  0  0  0  0  0  0  0  # atno 6907 bound_to 6896
  152.5452  134.1499  159.8524 H   0  0  0  0  0  0  0  0  0  0  0  0  # atno 6908 bound_to 6896
  151.1574  133.4822  159.2627 H   0  0  0  0  0  0  0  0  0  0  0  0  # atno 6909 bound_to 6896
  144.7698  140.4411  143.5916 H   0  0  0  0  0  0  0  0  0  0  0  0  # atno 7974 bound_to 7965
  156.2556  140.1979  156.6571 H   0  0  0  0  0  0  0  0  0  0  0  0  # atno 8008 bound_to 7997
  154.6493  140.0574  156.9962 H   0  0  0  0  0  0  0  0  0  0  0  0  # atno 8009 bound_to 7997
  155.1443  140.3245  155.4448 H   0  0  0  0  0  0  0  0  0  0  0  0  # atno 8010 bound_to 7997
  140.1914  143.3889  152.1203 H   0  0  0  0  0  0  0  0  0  0  0  0  # atno 10167 bound_to 10162
  156.6689  130.5003  149.6006 H   0  0  0  0  0  0  0  0  0  0  0  0  # atno 10718 bound_to 10713
  153.7338  135.3234  155.3291 H   0  0  0  0  0  0  0  0  0  0  0  0  # atno 10763 bound_to 10752
  154.8317  135.4528  154.1095 H   0  0  0  0  0  0  0  0  0  0  0  0  # atno 10764 bound_to 10752
  153.2250  135.6953  153.8037 H   0  0  0  0  0  0  0  0  0  0  0  0  # atno 10765 bound_to 10752
  141.0194  133.6870  156.2358 H   0  0  0  0  0  0  0  0  0  0  0  0  # atno 11005 bound_to 11000
  145.6360  139.1543  143.2942 LP  0  0  0  0  0  0  0  0  0  0  0  0  # atno 17320 bound_to 7965
  146.1835  140.6460  142.9178 LP  0  0  0  0  0  0  0  0  0  0  0  0  # atno 17321 bound_to 7965
  139.5254  144.7096  151.5248 LP  0  0  0  0  0  0  0  0  0  0  0  0  # atno 17342 bound_to 10162
  140.6453  143.8807  150.6731 LP  0  0  0  0  0  0  0  0  0  0  0  0  # atno 17343 bound_to 10162
  156.1954  130.6586  151.1108 LP  0  0  0  0  0  0  0  0  0  0  0  0  # atno 17370 bound_to 10713
  157.7084  131.0746  150.6587 LP  0  0  0  0  0  0  0  0  0  0  0  0  # atno 17371 bound_to 10713
  140.6599  134.4979  157.5583 LP  0  0  0  0  0  0  0  0  0  0  0  0  # atno 17394 bound_to 11000
  139.9137  134.8291  156.1440 LP  0  0  0  0  0  0  0  0  0  0  0  0  # atno 17395 bound_to 11000

$$$$
