AV-unprocessed.smi:1672|AV-procd|sdf|6703|dock10
  -GOLD-   22720 7443D 1   1.00000     0.00000
 Structure written by MMmdl.
 48 50  0  0  0  0  0  0  0  0  2 V2000
  143.6508  133.4203  151.2942 C   0  0  0  0  0  0  0  0  0  0  0  0
  144.8532  134.2532  150.8164 C   0  0  2  0  0  0  0  0  0  0  0  0
  146.1925  133.5104  150.9749 C   0  0  0  0  0  0  0  0  0  0  0  0
  146.6526  133.4450  152.4423 C   0  0  0  0  0  0  0  0  0  0  0  0
  146.7350  134.8019  153.0409 N   0  3  2  0  0  0  0  0  0  0  0  0
  147.3173  134.7798  154.4077 C   0  0  0  0  0  0  0  0  0  0  0  0
  147.3315  136.1716  155.0692 C   0  0  2  0  0  0  0  0  0  0  0  0
  147.8599  137.1031  154.1456 O   0  0  0  0  0  0  0  0  0  0  0  0
  148.1791  136.1808  156.3576 C   0  0  0  0  0  0  0  0  0  0  0  0
  148.5502  137.5258  156.7810 N   0  0  0  0  0  0  0  0  0  0  0  0
  147.9614  138.3047  157.7252 C   0  0  0  0  0  0  0  0  0  0  0  0
  146.7810  137.8486  158.5293 C   0  0  0  0  0  0  0  0  0  0  0  0
  147.0099  137.8840  159.9216 O   0  0  0  0  0  0  0  0  0  0  0  0
  148.5065  139.5080  157.9055 N   0  0  0  0  0  0  0  0  0  0  0  0
  149.5529  139.5081  157.0046 C   0  0  0  0  0  0  0  0  0  0  0  0
  150.5160  140.5013  156.7159 C   0  0  0  0  0  0  0  0  0  0  0  0
  151.5082  140.2713  155.7405 C   0  0  0  0  0  0  0  0  0  0  0  0
  151.5522  139.0472  155.0423 C   0  0  0  0  0  0  0  0  0  0  0  0
  150.6022  138.0442  155.3149 C   0  0  0  0  0  0  0  0  0  0  0  0
  149.6120  138.2796  156.2879 C   0  0  0  0  0  0  0  0  0  0  0  0
  145.4305  135.5123  152.9658 C   0  0  0  0  0  0  0  0  0  0  0  0
  144.9427  135.6247  151.5103 C   0  0  0  0  0  0  0  0  0  0  0  0
  143.7095  133.1813  152.3554 H   0  0  0  0  0  0  0  0  0  0  0  0
  143.5878  132.4787  150.7478 H   0  0  0  0  0  0  0  0  0  0  0  0
  142.7155  133.9557  151.1282 H   0  0  0  0  0  0  0  0  0  0  0  0
  144.6998  134.4325  149.7513 H   0  0  0  0  0  0  0  0  0  0  0  0
  146.1197  132.5044  150.5598 H   0  0  0  0  0  0  0  0  0  0  0  0
  146.9564  134.0236  150.3888 H   0  0  0  0  0  0  0  0  0  0  0  0
  145.9762  132.8242  153.0313 H   0  0  0  0  0  0  0  0  0  0  0  0
  147.6320  132.9665  152.4823 H   0  0  0  0  0  0  0  0  0  0  0  0
  146.7641  134.0673  155.0212 H   0  0  0  0  0  0  0  0  0  0  0  0
  148.3435  134.4102  154.3662 H   0  0  0  0  0  0  0  0  0  0  0  0
  146.3185  136.4843  155.3140 H   0  0  0  0  0  0  0  0  0  0  0  0
  147.9722  136.6684  153.3131 H   0  0  0  0  0  0  0  0  0  0  0  0
  147.6386  135.6905  157.1668 H   0  0  0  0  0  0  0  0  0  0  0  0
  149.0912  135.5996  156.2148 H   0  0  0  0  0  0  0  0  0  0  0  0
  145.9106  138.4571  158.2844 H   0  0  0  0  0  0  0  0  0  0  0  0
  146.5306  136.8244  158.2496 H   0  0  0  0  0  0  0  0  0  0  0  0
  146.8782  137.0143  160.2674 H   0  0  0  0  0  0  0  0  0  0  0  0
  150.4922  141.4417  157.2463 H   0  0  0  0  0  0  0  0  0  0  0  0
  152.2398  141.0370  155.5281 H   0  0  0  0  0  0  0  0  0  0  0  0
  152.3161  138.8788  154.2974 H   0  0  0  0  0  0  0  0  0  0  0  0
  150.6347  137.1064  154.7805 H   0  0  0  0  0  0  0  0  0  0  0  0
  144.6925  134.9898  153.5757 H   0  0  0  0  0  0  0  0  0  0  0  0
  145.5190  136.5156  153.3803 H   0  0  0  0  0  0  0  0  0  0  0  0
  145.6336  136.2609  150.9553 H   0  0  0  0  0  0  0  0  0  0  0  0
  143.9762  136.1292  151.4769 H   0  0  0  0  0  0  0  0  0  0  0  0
  147.3872  135.3202  152.4690 H   0  0  0  0  0  0  0  0  0  0  0  0
  1  2  1  0  0  0  0
  1 23  1  0  0  0  0
  1 24  1  0  0  0  0
  1 25  1  0  0  0  0
  2 22  1  0  0  0  0
  2  3  1  0  0  0  0
  2 26  1  0  0  0  0
  3  4  1  0  0  0  0
  3 27  1  0  0  0  0
  3 28  1  0  0  0  0
  4  5  1  0  0  0  0
  4 29  1  0  0  0  0
  4 30  1  0  0  0  0
  5  6  1  0  0  0  0
  5 21  1  0  0  0  0
  5 48  1  0  0  0  0
  6  7  1  0  0  0  0
  6 31  1  0  0  0  0
  6 32  1  0  0  0  0
  7  8  1  0  0  0  0
  7  9  1  0  0  0  0
  7 33  1  0  0  0  0
  8 34  1  0  0  0  0
  9 10  1  0  0  0  0
  9 35  1  0  0  0  0
  9 36  1  0  0  0  0
 10 20  1  0  0  0  0
 10 11  1  0  0  0  0
 11 12  1  0  0  0  0
 11 14  2  0  0  0  0
 12 13  1  0  0  0  0
 12 37  1  0  0  0  0
 12 38  1  0  0  0  0
 13 39  1  0  0  0  0
 14 15  1  0  0  0  0
 15 20  2  0  0  0  0
 15 16  1  0  0  0  0
 16 17  2  0  0  0  0
 16 40  1  0  0  0  0
 17 18  1  0  0  0  0
 17 41  1  0  0  0  0
 18 19  2  0  0  0  0
 18 42  1  0  0  0  0
 19 20  1  0  0  0  0
 19 43  1  0  0  0  0
 21 22  1  0  0  0  0
 21 44  1  0  0  0  0
 21 45  1  0  0  0  0
 22 46  1  0  0  0  0
 22 47  1  0  0  0  0
M  CHG  1   5   1
M  END
> <s_m_source_file>
AV-unprocessed.smi

> <i_m_source_file_index>
1672

> <i_lp_mmshare_version>
43012

> <i_f3d_flags>
0

> <s_epik_input>
W0NIM11bQ0hdMVtDSDJdW0NIMl1OKFtDSDJdW0NIMl0xKVtDSDJdW0NASF0oW09IXSlbQ0gyXW4oYyhuMilbQ0gyXVtPSF0pYyhjMjMpW2NIXVtjSF1bY0hdW2NIXTM=

> <s_epik_cmdline>
J2VwaWtfcHl0aG9uJywgJy1waCcsICc3LjAnLCAnLXRuJywgJzgnLCAnLW1hJywgJzIwMCcsICctbWV0YWxfYmluZGluZycsICctaW1hZScsICc8aW5maWxlLm1hZT4nLCAnLW9tYWUnLCAnPG91dGZpbGUubWFlPic=

> <r_epik_Ionization_Penalty>
0.0498263

> <r_epik_Ionization_Penalty_Charging>
0.00181365

> <r_epik_Ionization_Penalty_Neutral>
0.0480127

> <r_epik_State_Penalty>
0.0408546

> <r_epik_Charging_Adjusted_Penalty>
0.0426682

> <i_epik_Tot_Q>
1

> <i_epik_Tot_abs_Q>
1

> <r_epik_Metal_State_Penalty>
4.22946e-05

> <b_epik_Metal_Only>
0

> <s_lp_Force_Field>
OPLS_2005

> <r_lp_Energy>
23.4925

> <b_lp_Chiralities_Consistent>
1

> <s_lp_Variant>
AV-unprocessed.smi:1672-3

> <Gold.Version>
5.8.1

> <Gold.Id.Protein>
6NUR|6NUR_protein|mol2

> <Gold.PLP.Fitness>
39.6436

> <Gold.PLP.PLP>
-28.7490

> <Gold.PLP.part.hbond>
-3.5691

> <Gold.PLP.part.metal>
0.0000

> <Gold.PLP.part.buried>
-3.5920

> <Gold.PLP.part.nonpolar>
-21.3606

> <Gold.PLP.part.repulsive>
0.0000

> <Gold.PLP.ligand.clash>
0.0000

> <Gold.PLP.ligand.torsion>
0.5702

> <Gold.PLP.Chemscore.Hbond>
4.0000

> <Gold.PLP.Chemscore.CHOScore>
0.0000

> <Gold.PLP.Chemscore.Metal>
0.0000

> <Gold.Chemscore.Hbonds>
donor molecule, donor type, donor heavy atom, donor atom, acceptor molecule, acceptor atom, score
      L1  H     5    48       P1  7948  2.00
      L1  H     8    34       P1  7948  1.00
      P1  H  6934  6947       L1    13  0.89

> <Gold.PLP.Chemscore.Internal.Correction>
0.0351

> <Gold.Rescore>
     Score         DG    S(hbond)    S(metal)    S(lipo)     H(rot)  DE(clash)    DE(int)     intcor
     14.02     -15.66       2.94        0.00      65.98       2.88       0.01       1.63       ----

> <Gold.Chemscore.Fitness>
14.0204

> <Gold.Chemscore.DG>
-15.6613

> <Gold.Chemscore.ZeroCoef>
-5.4800

> <Gold.Chemscore.Hbond>
2.9428

> <Gold.Chemscore.Metal>
0.0000

> <Gold.Chemscore.Lipo>
65.9775

> <Gold.Chemscore.Internal_Hbond>
0.0000

> <Gold.Chemscore.DEClash>
0.0060

> <Gold.Chemscore.DEInternal>
1.6349

> <Gold.Chemscore.Rot>
2.8778

> <Gold.Chemscore.Internal.Correction>
   9.000000E+99

> <Gold.Chemscore.Hbonds>
donor molecule, donor type, donor heavy atom, donor atom, acceptor molecule, acceptor atom, score
      L1  H     5    48       P1  7948  1.00
      L1  H     8    34       P1  7948  0.96
      P1  H  6934  6947       L1    13  0.80

> <Gold.Chemscore.Hbond.Weighted>
-9.8290

> <Gold.Chemscore.Metal.Weighted>
-0.0000

> <Gold.Chemscore.Lipo.Weighted>
-7.7194

> <Gold.Chemscore.Internal_Hbond.Weighted>
0.0000

> <Gold.Chemscore.DEClash.Weighted>
0.0060

> <Gold.Chemscore.DEInternal.Weighted>
1.6349

> <Gold.Chemscore.Rot.Weighted>
7.3671

> <Gold.Chemscore.Internal.Correction.Weighted>
   9.000000E+99

> <Gold.Protein.RotatedTorsions>
[ 6907 6896 6895 6894 ] final  -55.64 input  -60.11 | X-H torsion
[ 7974 7965 7964 7962 ] final  134.69 input  175.53 | X-H torsion
[ 8008 7997 7996 7995 ] final -155.91 input   59.86 | X-H torsion
[ 10167 10162 10161 10158 ] final  -35.30 input  -65.29 | X-H torsion
[ 10718 10713 10712 10709 ] final   -1.31 input   66.30 | X-H torsion
[ 10763 10752 10751 10750 ] final  117.77 input  -60.55 | X-H torsion
[ 11005 11000 10999 10996 ] final   55.74 input  -57.11 | X-H torsion

> <Gold.Protein.ActiveResidues>
 VAL166  LYS551  ARG553  GLY616  TRP617  ASP618  TYR619  PRO620  LYS621  CYS622 
 ASP623  PHE694  ASN695  SER759  ASP760  ASP761  ALA762  ILE779  LEU786  VAL792 
 PHE793  MET794  SER795  GLU796  ALA797  LYS798  CYS799  TRP800  GLU811  SER814 

> <Gold.Protein.RotatedAtoms>
  150.8234  134.7454  159.6791 H   0  0  0  0  0  0  0  0  0  0  0  0  # atno 6907 bound_to 6896
  152.4348  134.5705  159.9929 H   0  0  0  0  0  0  0  0  0  0  0  0  # atno 6908 bound_to 6896
  151.5883  133.3332  159.3058 H   0  0  0  0  0  0  0  0  0  0  0  0  # atno 6909 bound_to 6896
  144.9738  139.4577  143.5420 H   0  0  0  0  0  0  0  0  0  0  0  0  # atno 7974 bound_to 7965
  155.7091  140.0776  157.2379 H   0  0  0  0  0  0  0  0  0  0  0  0  # atno 8008 bound_to 7997
  154.4061  140.1633  156.2329 H   0  0  0  0  0  0  0  0  0  0  0  0  # atno 8009 bound_to 7997
  155.9299  140.3392  155.6243 H   0  0  0  0  0  0  0  0  0  0  0  0  # atno 8010 bound_to 7997
  140.7168  143.3487  151.2201 H   0  0  0  0  0  0  0  0  0  0  0  0  # atno 10167 bound_to 10162
  156.8076  130.5413  149.5713 H   0  0  0  0  0  0  0  0  0  0  0  0  # atno 10718 bound_to 10713
  153.5574  135.3527  155.2785 H   0  0  0  0  0  0  0  0  0  0  0  0  # atno 10763 bound_to 10752
  154.8699  135.4128  154.2869 H   0  0  0  0  0  0  0  0  0  0  0  0  # atno 10764 bound_to 10752
  153.3608  135.7060  153.6783 H   0  0  0  0  0  0  0  0  0  0  0  0  # atno 10765 bound_to 10752
  140.0583  134.5638  155.9181 H   0  0  0  0  0  0  0  0  0  0  0  0  # atno 11005 bound_to 11000
  146.3389  139.8968  142.8800 LP  0  0  0  0  0  0  0  0  0  0  0  0  # atno 17320 bound_to 7965
  145.2520  141.0047  143.3876 LP  0  0  0  0  0  0  0  0  0  0  0  0  # atno 17321 bound_to 7965
  139.7013  143.9529  152.2906 LP  0  0  0  0  0  0  0  0  0  0  0  0  # atno 17342 bound_to 10162
  139.9223  144.6792  150.8449 LP  0  0  0  0  0  0  0  0  0  0  0  0  # atno 17343 bound_to 10162
  156.1064  130.6007  150.9977 LP  0  0  0  0  0  0  0  0  0  0  0  0  # atno 17370 bound_to 10713
  157.6522  131.0895  150.8025 LP  0  0  0  0  0  0  0  0  0  0  0  0  # atno 17371 bound_to 10713
  141.1962  133.6590  156.5680 LP  0  0  0  0  0  0  0  0  0  0  0  0  # atno 17394 bound_to 11000
  140.3809  134.7524  157.4660 LP  0  0  0  0  0  0  0  0  0  0  0  0  # atno 17395 bound_to 11000

$$$$
