AV-unprocessed.smi:145|AV-procd|sdf|1197|dock4
  -GOLD-   2262018353D 1   1.00000     0.00000
 Structure written by MMmdl.
 40 42  0  0  0  0  0  0  0  0  1 V2000
  149.3922  135.4048  158.3422 O   0  0  0  0  0  0  0  0  0  0  0  0
  149.1070  136.5737  158.6055 C   0  0  0  0  0  0  0  0  0  0  0  0
  149.5072  137.7100  157.6507 C   0  0  0  0  0  0  0  0  0  0  0  0
  150.4056  138.7140  158.2632 N   0  0  0  0  0  0  0  0  0  0  0  0
  151.5428  138.2623  158.9780 C   0  0  0  0  0  0  0  0  0  0  0  0
  151.7784  137.0604  159.1104 O   0  0  0  0  0  0  0  0  0  0  0  0
  152.4008  139.3085  159.5223 C   0  0  0  0  0  0  0  0  0  0  0  0
  153.5107  138.9737  160.2019 F   0  0  0  0  0  0  0  0  0  0  0  0
  152.1001  140.6120  159.3502 C   0  0  0  0  0  0  0  0  0  0  0  0
  150.9768  141.0395  158.6701 N   0  0  0  0  0  0  0  0  0  0  0  0
  150.7467  142.5213  158.4831 C   0  0  2  0  0  0  0  0  0  0  0  0
  151.7928  143.1993  157.5779 C   0  0  0  0  0  0  0  0  0  0  0  0
  152.3788  144.2726  158.4806 C   0  0  0  0  0  0  0  0  0  0  0  0
  151.2956  144.4563  159.5380 C   0  0  0  0  0  0  0  0  0  0  0  0
  150.8004  143.1407  159.7311 O   0  0  0  0  0  0  0  0  0  0  0  0
  150.1145  140.0872  158.0789 C   0  0  0  0  0  0  0  0  0  0  0  0
  149.1391  140.4398  157.4138 O   0  0  0  0  0  0  0  0  0  0  0  0
  148.4677  136.9684  159.7216 N   0  0  0  0  0  0  0  0  0  0  0  0
  147.9678  136.1718  160.7873 C   0  0  0  0  0  0  0  0  0  0  0  0
  147.6486  136.6884  162.0668 C   0  0  0  0  0  0  0  0  0  0  0  0
  147.1758  135.8311  163.0796 C   0  0  0  0  0  0  0  0  0  0  0  0
  147.0268  134.4543  162.8286 C   0  0  0  0  0  0  0  0  0  0  0  0
  147.3581  133.9321  161.5644 C   0  0  0  0  0  0  0  0  0  0  0  0
  147.1500  131.8854  161.1904 I   0  0  0  0  0  0  0  0  0  0  0  0
  147.8318  134.7877  160.5507 C   0  0  0  0  0  0  0  0  0  0  0  0
  149.9655  137.2719  156.7625 H   0  0  0  0  0  0  0  0  0  0  0  0
  148.5972  138.1783  157.2725 H   0  0  0  0  0  0  0  0  0  0  0  0
  152.7721  141.3473  159.7682 H   0  0  0  0  0  0  0  0  0  0  0  0
  149.7391  142.6209  158.0772 H   0  0  0  0  0  0  0  0  0  0  0  0
  152.5419  142.5003  157.2050 H   0  0  0  0  0  0  0  0  0  0  0  0
  151.2783  143.6415  156.7242 H   0  0  0  0  0  0  0  0  0  0  0  0
  153.2958  143.9119  158.9469 H   0  0  0  0  0  0  0  0  0  0  0  0
  152.6124  145.1950  157.9484 H   0  0  0  0  0  0  0  0  0  0  0  0
  151.6787  144.8819  160.4656 H   0  0  0  0  0  0  0  0  0  0  0  0
  150.4941  145.0978  159.1677 H   0  0  0  0  0  0  0  0  0  0  0  0
  148.3863  137.9661  159.8523 H   0  0  0  0  0  0  0  0  0  0  0  0
  147.7717  137.7350  162.2991 H   0  0  0  0  0  0  0  0  0  0  0  0
  146.9323  136.2311  164.0528 H   0  0  0  0  0  0  0  0  0  0  0  0
  146.6647  133.7997  163.6077 H   0  0  0  0  0  0  0  0  0  0  0  0
  148.0855  134.3760  159.5846 H   0  0  0  0  0  0  0  0  0  0  0  0
  1  2  2  0  0  0  0
  2  3  1  0  0  0  0
  2 18  1  0  0  0  0
  3  4  1  0  0  0  0
  3 26  1  0  0  0  0
  3 27  1  0  0  0  0
  4 16  1  0  0  0  0
  4  5  1  0  0  0  0
  5  6  2  0  0  0  0
  5  7  1  0  0  0  0
  7  8  1  0  0  0  0
  7  9  2  0  0  0  0
  9 10  1  0  0  0  0
  9 28  1  0  0  0  0
 10 11  1  0  0  0  0
 10 16  1  0  0  0  0
 11 15  1  0  0  0  0
 11 12  1  0  0  0  0
 11 29  1  0  0  0  0
 12 13  1  0  0  0  0
 12 30  1  0  0  0  0
 12 31  1  0  0  0  0
 13 14  1  0  0  0  0
 13 32  1  0  0  0  0
 13 33  1  0  0  0  0
 14 15  1  0  0  0  0
 14 34  1  0  0  0  0
 14 35  1  0  0  0  0
 16 17  2  0  0  0  0
 18 19  1  0  0  0  0
 18 36  1  0  0  0  0
 19 25  1  0  0  0  0
 19 20  2  0  0  0  0
 20 21  1  0  0  0  0
 20 37  1  0  0  0  0
 21 22  2  0  0  0  0
 21 38  1  0  0  0  0
 22 23  1  0  0  0  0
 22 39  1  0  0  0  0
 23 24  1  0  0  0  0
 23 25  2  0  0  0  0
 25 40  1  0  0  0  0
M  END
> <s_m_source_file>
AV-unprocessed.smi

> <i_m_source_file_index>
145

> <i_lp_mmshare_version>
43012

> <i_f3d_flags>
0

> <s_epik_input>
SWMoW2NIXTEpW2NIXVtjSF1bY0hdYzFbTkhdQyg9TylbQ0gyXW4yYyg9TyljKEYpW2NIXW4oYzI9TylbQ0BASF0zW0NIMl1bQ0gyXVtDSDJdTzM=

> <s_epik_cmdline>
J2VwaWtfcHl0aG9uJywgJy1waCcsICc3LjAnLCAnLXRuJywgJzgnLCAnLW1hJywgJzIwMCcsICctbWV0YWxfYmluZGluZycsICctaW1hZScsICc8aW5maWxlLm1hZT4nLCAnLW9tYWUnLCAnPG91dGZpbGUubWFlPic=

> <r_lp_tautomer_probability>
1

> <r_epik_Ionization_Penalty>
9.72367e-07

> <r_epik_Ionization_Penalty_Charging>
3.88729e-08

> <r_epik_Ionization_Penalty_Neutral>
9.33494e-07

> <r_epik_State_Penalty>
-0

> <r_epik_Charging_Adjusted_Penalty>
3.88729e-08

> <i_epik_Tot_Q>
0

> <i_epik_Tot_abs_Q>
0

> <r_epik_Metal_State_Penalty>
-0

> <b_epik_Metal_Only>
0

> <s_epik_Chemistry_Notes>
This compound contains an acetal/aminal-like group ( X-CH(R)-Y where X, Y are N, S, or O) that may be acid/base labile, releasing an aldehyde.

> <s_lp_Force_Field>
OPLS_2005

> <r_lp_Energy>
28.2642

> <b_lp_Chiralities_Consistent>
1

> <s_lp_Variant>
AV-unprocessed.smi:145-1

> <Gold.Version>
5.8.1

> <Gold.Id.Protein>
6NUR|6NUR_protein|mol2

> <Gold.PLP.Fitness>
50.8377

> <Gold.PLP.PLP>
-47.2718

> <Gold.PLP.part.hbond>
-3.0000

> <Gold.PLP.part.metal>
0.0000

> <Gold.PLP.part.buried>
-6.1423

> <Gold.PLP.part.nonpolar>
-39.5206

> <Gold.PLP.part.repulsive>
0.2598

> <Gold.PLP.ligand.clash>
0.0000

> <Gold.PLP.ligand.torsion>
0.3517

> <Gold.PLP.Chemscore.Hbond>
1.4132

> <Gold.PLP.Chemscore.CHOScore>
0.0000

> <Gold.PLP.Chemscore.Metal>
0.0000

> <Gold.Chemscore.Hbonds>
donor molecule, donor type, donor heavy atom, donor atom, acceptor molecule, acceptor atom, score
      P1  H  6896  6907       L1     6  0.66
      P1  H  6896  6909       L1     1  0.65

> <Gold.PLP.Chemscore.Internal.Correction>
0.0296

> <Gold.Rescore>
     Score         DG    S(hbond)    S(metal)    S(lipo)     H(rot)  DE(clash)    DE(int)     intcor
     15.64     -18.77       1.58        0.00     104.94       1.66       0.05       3.09       ----

> <Gold.Chemscore.Fitness>
15.6353

> <Gold.Chemscore.DG>
-18.7738

> <Gold.Chemscore.ZeroCoef>
-5.4800

> <Gold.Chemscore.Hbond>
1.5780

> <Gold.Chemscore.Metal>
0.0000

> <Gold.Chemscore.Lipo>
104.9414

> <Gold.Chemscore.Internal_Hbond>
0.0000

> <Gold.Chemscore.DEClash>
0.0477

> <Gold.Chemscore.DEInternal>
3.0908

> <Gold.Chemscore.Rot>
1.6621

> <Gold.Chemscore.Internal.Correction>
   9.000000E+99

> <Gold.Chemscore.Hbonds>
donor molecule, donor type, donor heavy atom, donor atom, acceptor molecule, acceptor atom, score
      P1  H  6896  6907       L1     6  0.64
      P1  H  6896  6909       L1     1  0.62

> <Gold.Chemscore.Hbond.Weighted>
-5.2706

> <Gold.Chemscore.Metal.Weighted>
-0.0000

> <Gold.Chemscore.Lipo.Weighted>
-12.2781

> <Gold.Chemscore.Internal_Hbond.Weighted>
0.0000

> <Gold.Chemscore.DEClash.Weighted>
0.0477

> <Gold.Chemscore.DEInternal.Weighted>
3.0908

> <Gold.Chemscore.Rot.Weighted>
4.2550

> <Gold.Chemscore.Internal.Correction.Weighted>
   9.000000E+99

> <Gold.Protein.RotatedTorsions>
[ 6907 6896 6895 6894 ] final   17.00 input  -60.11 | X-H torsion
[ 7974 7965 7964 7962 ] final   28.89 input  175.53 | X-H torsion
[ 8008 7997 7996 7995 ] final  167.96 input   59.86 | X-H torsion
[ 10167 10162 10161 10158 ] final  160.57 input  -65.29 | X-H torsion
[ 10718 10713 10712 10709 ] final -112.14 input   66.30 | X-H torsion
[ 10763 10752 10751 10750 ] final -110.58 input  -60.55 | X-H torsion
[ 11005 11000 10999 10996 ] final  140.60 input  -57.11 | X-H torsion

> <Gold.Protein.ActiveResidues>
 VAL166  LYS551  ARG553  GLY616  TRP617  ASP618  TYR619  PRO620  LYS621  CYS622 
 ASP623  PHE694  ASN695  SER759  ASP760  ASP761  ALA762  ILE779  LEU786  VAL792 
 PHE793  MET794  SER795  GLU796  ALA797  LYS798  CYS799  TRP800  GLU811  SER814 

> <Gold.Protein.RotatedAtoms>
  151.8428  135.0584  160.0449 H   0  0  0  0  0  0  0  0  0  0  0  0  # atno 6907 bound_to 6896
  152.2796  133.5453  159.5498 H   0  0  0  0  0  0  0  0  0  0  0  0  # atno 6908 bound_to 6896
  150.7184  134.0499  159.3837 H   0  0  0  0  0  0  0  0  0  0  0  0  # atno 6909 bound_to 6896
  146.1703  139.6995  142.8972 H   0  0  0  0  0  0  0  0  0  0  0  0  # atno 7974 bound_to 7965
  156.1589  140.1603  156.8646 H   0  0  0  0  0  0  0  0  0  0  0  0  # atno 8008 bound_to 7997
  154.5141  140.0794  156.8083 H   0  0  0  0  0  0  0  0  0  0  0  0  # atno 8009 bound_to 7997
  155.3748  140.3402  155.4247 H   0  0  0  0  0  0  0  0  0  0  0  0  # atno 8010 bound_to 7997
  139.4841  144.4621  151.8691 H   0  0  0  0  0  0  0  0  0  0  0  0  # atno 10167 bound_to 10162
  156.0688  130.5904  150.8468 H   0  0  0  0  0  0  0  0  0  0  0  0  # atno 10718 bound_to 10713
  154.8256  135.4559  154.0908 H   0  0  0  0  0  0  0  0  0  0  0  0  # atno 10763 bound_to 10752
  153.2225  135.6896  153.7990 H   0  0  0  0  0  0  0  0  0  0  0  0  # atno 10764 bound_to 10752
  153.7402  135.3313  155.3279 H   0  0  0  0  0  0  0  0  0  0  0  0  # atno 10765 bound_to 10752
  140.0339  134.9338  157.0716 H   0  0  0  0  0  0  0  0  0  0  0  0  # atno 11005 bound_to 11000
  145.4358  141.0418  143.2885 LP  0  0  0  0  0  0  0  0  0  0  0  0  # atno 17320 bound_to 7965
  144.8153  139.5888  143.7011 LP  0  0  0  0  0  0  0  0  0  0  0  0  # atno 17321 bound_to 7965
  140.4084  144.2402  150.5890 LP  0  0  0  0  0  0  0  0  0  0  0  0  # atno 17342 bound_to 10162
  140.4990  143.2323  151.8706 LP  0  0  0  0  0  0  0  0  0  0  0  0  # atno 17343 bound_to 10162
  157.5746  131.0946  150.9365 LP  0  0  0  0  0  0  0  0  0  0  0  0  # atno 17370 bound_to 10713
  156.9574  130.5442  149.5284 LP  0  0  0  0  0  0  0  0  0  0  0  0  # atno 17371 bound_to 10713
  140.4179  134.1912  155.7164 LP  0  0  0  0  0  0  0  0  0  0  0  0  # atno 17394 bound_to 11000
  141.1847  133.8339  157.1132 LP  0  0  0  0  0  0  0  0  0  0  0  0  # atno 17395 bound_to 11000

$$$$
