AV-unprocessed.smi:1046|AV-procd|sdf|4550|dock1
  -GOLD-   22720 2573D 1   1.00000     0.00000
 Structure written by MMmdl.
 53 55  0  0  0  0  0  0  0  0  2 V2000
  153.3936  142.2900  161.8801 C   0  0  0  0  0  0  0  0  0  0  0  0
  152.7799  142.0817  160.5068 C   0  0  0  0  0  0  0  0  0  0  0  0
  153.1029  140.9136  159.7799 C   0  0  0  0  0  0  0  0  0  0  0  0
  152.5549  140.6831  158.4990 C   0  0  0  0  0  0  0  0  0  0  0  0
  152.7305  139.6257  157.6228 N   0  0  0  0  0  0  0  0  0  0  0  0
  151.9581  139.9913  156.6036 C   0  0  0  0  0  0  0  0  0  0  0  0
  151.3027  141.1629  156.7158 N   0  0  0  0  0  0  0  0  0  0  0  0
  150.4105  141.7672  155.7434 C   0  0  0  0  0  0  0  0  0  0  0  0
  149.7166  140.7120  154.8609 C   0  0  2  0  0  0  0  0  0  0  0  0
  149.7346  141.1092  153.5044 O   0  0  0  0  0  0  0  0  0  0  0  0
  148.2769  140.3158  155.2585 C   0  0  0  0  0  0  0  0  0  0  0  0
  147.1898  140.8265  154.4087 N   0  0  0  0  0  0  0  0  0  0  0  0
  146.9561  139.9884  153.2315 C   0  0  0  0  0  0  0  0  0  0  0  0
  146.3112  138.6299  153.5691 C   0  0  0  0  0  0  0  0  0  0  0  0
  145.0152  138.8377  154.2627 N   0  3  0  0  0  0  0  0  0  0  0  0
  144.3047  137.5620  154.5316 C   0  0  0  0  0  0  0  0  0  0  0  0
  144.0906  136.7216  153.2608 C   0  0  0  0  0  0  0  0  0  0  0  0
  143.5660  137.5300  152.2286 O   0  0  0  0  0  0  0  0  0  0  0  0
  145.2006  139.6881  155.4678 C   0  0  0  0  0  0  0  0  0  0  0  0
  145.9036  141.0102  155.0925 C   0  0  0  0  0  0  0  0  0  0  0  0
  151.6683  141.6611  157.9611 C   0  0  0  0  0  0  0  0  0  0  0  0
  151.3380  142.8265  158.6747 C   0  0  0  0  0  0  0  0  0  0  0  0
  151.8931  143.0406  159.9538 C   0  0  0  0  0  0  0  0  0  0  0  0
  151.5293  144.3015  160.7174 C   0  0  0  0  0  0  0  0  0  0  0  0
  154.0940  141.4923  162.1286 H   0  0  0  0  0  0  0  0  0  0  0  0
  152.6172  142.3051  162.6455 H   0  0  0  0  0  0  0  0  0  0  0  0
  153.9370  143.2344  161.9179 H   0  0  0  0  0  0  0  0  0  0  0  0
  153.7763  140.1820  160.2015 H   0  0  0  0  0  0  0  0  0  0  0  0
  151.8614  139.3708  155.7247 H   0  0  0  0  0  0  0  0  0  0  0  0
  149.6695  142.3571  156.2844 H   0  0  0  0  0  0  0  0  0  0  0  0
  150.9958  142.4571  155.1357 H   0  0  0  0  0  0  0  0  0  0  0  0
  150.3101  139.7982  154.9152 H   0  0  0  0  0  0  0  0  0  0  0  0
  149.5779  140.3472  152.9676 H   0  0  0  0  0  0  0  0  0  0  0  0
  148.2505  139.2250  155.2418 H   0  0  0  0  0  0  0  0  0  0  0  0
  148.1036  140.5806  156.3008 H   0  0  0  0  0  0  0  0  0  0  0  0
  146.3080  140.5237  152.5362 H   0  0  0  0  0  0  0  0  0  0  0  0
  147.8928  139.8309  152.6954 H   0  0  0  0  0  0  0  0  0  0  0  0
  146.1466  138.0720  152.6464 H   0  0  0  0  0  0  0  0  0  0  0  0
  146.9754  138.0268  154.1901 H   0  0  0  0  0  0  0  0  0  0  0  0
  144.8785  136.9672  155.2439 H   0  0  0  0  0  0  0  0  0  0  0  0
  143.3481  137.7730  155.0116 H   0  0  0  0  0  0  0  0  0  0  0  0
  145.0449  136.3161  152.9237 H   0  0  0  0  0  0  0  0  0  0  0  0
  143.4330  135.8707  153.4347 H   0  0  0  0  0  0  0  0  0  0  0  0
  143.7028  138.4375  152.4565 H   0  0  0  0  0  0  0  0  0  0  0  0
  144.2339  139.9233  155.9114 H   0  0  0  0  0  0  0  0  0  0  0  0
  145.7648  139.1448  156.2264 H   0  0  0  0  0  0  0  0  0  0  0  0
  146.0158  141.6182  155.9850 H   0  0  0  0  0  0  0  0  0  0  0  0
  145.2407  141.5800  154.4400 H   0  0  0  0  0  0  0  0  0  0  0  0
  150.6619  143.5482  158.2409 H   0  0  0  0  0  0  0  0  0  0  0  0
  150.7902  144.8940  160.1772 H   0  0  0  0  0  0  0  0  0  0  0  0
  152.4121  144.9228  160.8690 H   0  0  0  0  0  0  0  0  0  0  0  0
  151.1087  144.0524  161.6918 H   0  0  0  0  0  0  0  0  0  0  0  0
  144.4333  139.3571  153.6207 H   0  0  0  0  0  0  0  0  0  0  0  0
  1  2  1  0  0  0  0
  1 25  1  0  0  0  0
  1 26  1  0  0  0  0
  1 27  1  0  0  0  0
  2 23  1  0  0  0  0
  2  3  2  0  0  0  0
  3  4  1  0  0  0  0
  3 28  1  0  0  0  0
  4 21  2  0  0  0  0
  4  5  1  0  0  0  0
  5  6  2  0  0  0  0
  6  7  1  0  0  0  0
  6 29  1  0  0  0  0
  7  8  1  0  0  0  0
  7 21  1  0  0  0  0
  8  9  1  0  0  0  0
  8 30  1  0  0  0  0
  8 31  1  0  0  0  0
  9 10  1  0  0  0  0
  9 11  1  0  0  0  0
  9 32  1  0  0  0  0
 10 33  1  0  0  0  0
 11 12  1  0  0  0  0
 11 34  1  0  0  0  0
 11 35  1  0  0  0  0
 12 20  1  0  0  0  0
 12 13  1  0  0  0  0
 13 14  1  0  0  0  0
 13 36  1  0  0  0  0
 13 37  1  0  0  0  0
 14 15  1  0  0  0  0
 14 38  1  0  0  0  0
 14 39  1  0  0  0  0
 15 16  1  0  0  0  0
 15 19  1  0  0  0  0
 15 53  1  0  0  0  0
 16 17  1  0  0  0  0
 16 40  1  0  0  0  0
 16 41  1  0  0  0  0
 17 18  1  0  0  0  0
 17 42  1  0  0  0  0
 17 43  1  0  0  0  0
 18 44  1  0  0  0  0
 19 20  1  0  0  0  0
 19 45  1  0  0  0  0
 19 46  1  0  0  0  0
 20 47  1  0  0  0  0
 20 48  1  0  0  0  0
 21 22  1  0  0  0  0
 22 23  2  0  0  0  0
 22 49  1  0  0  0  0
 23 24  1  0  0  0  0
 24 50  1  0  0  0  0
 24 51  1  0  0  0  0
 24 52  1  0  0  0  0
M  CHG  1  15   1
M  END
> <s_m_source_file>
AV-unprocessed.smi

> <i_m_source_file_index>
1046

> <i_lp_mmshare_version>
43012

> <i_f3d_flags>
0

> <s_epik_input>
W0NIM11jKFtjSF0xKWMoW0NIM10pW2NIXWMoYzEyKW4oW2NIXW4yKVtDSDJdW0NASF0oW09IXSlbQ0gyXU4zW0NIMl1bQ0gyXU4oW0NIMl1bQ0gyXTMpW0NIMl1bQ0gyXVtPSF0=

> <s_epik_cmdline>
J2VwaWtfcHl0aG9uJywgJy1waCcsICc3LjAnLCAnLXRuJywgJzgnLCAnLW1hJywgJzIwMCcsICctbWV0YWxfYmluZGluZycsICctaW1hZScsICc8aW5maWxlLm1hZT4nLCAnLW9tYWUnLCAnPG91dGZpbGUubWFlPic=

> <r_epik_Ionization_Penalty>
0.218081

> <r_epik_Ionization_Penalty_Charging>
0.0909554

> <r_epik_Ionization_Penalty_Neutral>
0.127126

> <r_epik_State_Penalty>
0.825642

> <r_epik_Charging_Adjusted_Penalty>
0.916597

> <i_epik_Tot_Q>
1

> <i_epik_Tot_abs_Q>
1

> <r_epik_Metal_State_Penalty>
0.740189

> <b_epik_Metal_Only>
0

> <s_lp_Force_Field>
OPLS_2005

> <r_lp_Energy>
40.3597

> <b_lp_Chiralities_Consistent>
1

> <s_lp_Variant>
AV-unprocessed.smi:1046-3

> <Gold.Version>
5.8.1

> <Gold.Id.Protein>
6NUR|6NUR_protein|mol2

> <Gold.PLP.Fitness>
58.9657

> <Gold.PLP.PLP>
-45.3387

> <Gold.PLP.part.hbond>
-6.6872

> <Gold.PLP.part.metal>
0.0000

> <Gold.PLP.part.buried>
-4.5149

> <Gold.PLP.part.nonpolar>
-34.4218

> <Gold.PLP.part.repulsive>
0.1258

> <Gold.PLP.ligand.clash>
0.0000

> <Gold.PLP.ligand.torsion>
1.9063

> <Gold.PLP.Chemscore.Hbond>
5.7324

> <Gold.PLP.Chemscore.CHOScore>
0.0000

> <Gold.PLP.Chemscore.Metal>
0.0000

> <Gold.Chemscore.Hbonds>
donor molecule, donor type, donor heavy atom, donor atom, acceptor molecule, acceptor atom, score
      L1  H    10    33       P1  7957  0.67
      L1  H    15    53       P1 10175  2.00
      L1  H    18    44       P1 10175  1.00
      P1  H  7989  7998       L1    10  0.08
      P1  H  7997  8009       L1     5  1.00
      P1  H  8011  8017       L1    10  1.00

> <Gold.PLP.Chemscore.Internal.Correction>
0.2425

> <Gold.Rescore>
     Score         DG    S(hbond)    S(metal)    S(lipo)     H(rot)  DE(clash)    DE(int)     intcor
     19.70     -22.18       3.39        0.00     116.11       3.21       0.42       2.06       ----

> <Gold.Chemscore.Fitness>
19.6981

> <Gold.Chemscore.DG>
-22.1814

> <Gold.Chemscore.ZeroCoef>
-5.4800

> <Gold.Chemscore.Hbond>
3.3903

> <Gold.Chemscore.Metal>
0.0000

> <Gold.Chemscore.Lipo>
116.1062

> <Gold.Chemscore.Internal_Hbond>
0.0000

> <Gold.Chemscore.DEClash>
0.4226

> <Gold.Chemscore.DEInternal>
2.0606

> <Gold.Chemscore.Rot>
3.2058

> <Gold.Chemscore.Internal.Correction>
   9.000000E+99

> <Gold.Chemscore.Hbonds>
donor molecule, donor type, donor heavy atom, donor atom, acceptor molecule, acceptor atom, score
      L1  H    10    33       P1  7957  0.66
      L1  H    15    53       P1 10175  1.00
      L1  H    18    44       P1 10175  0.97
      P1  H  7997  8009       L1     5  0.06
      P1  H  8011  8017       L1    10  0.37

> <Gold.Chemscore.Hbond.Weighted>
-11.3237

> <Gold.Chemscore.Metal.Weighted>
-0.0000

> <Gold.Chemscore.Lipo.Weighted>
-13.5844

> <Gold.Chemscore.Internal_Hbond.Weighted>
0.0000

> <Gold.Chemscore.DEClash.Weighted>
0.4226

> <Gold.Chemscore.DEInternal.Weighted>
2.0606

> <Gold.Chemscore.Rot.Weighted>
8.2067

> <Gold.Chemscore.Internal.Correction.Weighted>
   9.000000E+99

> <Gold.Protein.RotatedTorsions>
[ 6907 6896 6895 6894 ] final  -12.16 input  -60.11 | X-H torsion
[ 7974 7965 7964 7962 ] final  -97.43 input  175.53 | X-H torsion
[ 8008 7997 7996 7995 ] final  163.76 input   59.86 | X-H torsion
[ 10167 10162 10161 10158 ] final   28.51 input  -65.29 | X-H torsion
[ 10718 10713 10712 10709 ] final  -91.32 input   66.30 | X-H torsion
[ 10763 10752 10751 10750 ] final  171.03 input  -60.55 | X-H torsion
[ 11005 11000 10999 10996 ] final  -79.22 input  -57.11 | X-H torsion

> <Gold.Protein.ActiveResidues>
 VAL166  LYS551  ARG553  GLY616  TRP617  ASP618  TYR619  PRO620  LYS621  CYS622 
 ASP623  PHE694  ASN695  SER759  ASP760  ASP761  ALA762  ILE779  LEU786  VAL792 
 PHE793  MET794  SER795  GLU796  ALA797  LYS798  CYS799  TRP800  GLU811  SER814 

> <Gold.Protein.RotatedAtoms>
  151.3748  135.0929  159.9476 H   0  0  0  0  0  0  0  0  0  0  0  0  # atno 6907 bound_to 6896
  152.5125  133.9129  159.7507 H   0  0  0  0  0  0  0  0  0  0  0  0  # atno 6908 bound_to 6896
  150.9550  133.6452  159.2794 H   0  0  0  0  0  0  0  0  0  0  0  0  # atno 6909 bound_to 6896
  145.3338  140.9447  143.2646 H   0  0  0  0  0  0  0  0  0  0  0  0  # atno 7974 bound_to 7965
  156.1933  140.1715  156.8049 H   0  0  0  0  0  0  0  0  0  0  0  0  # atno 8008 bound_to 7997
  154.5498  140.0720  156.8680 H   0  0  0  0  0  0  0  0  0  0  0  0  # atno 8009 bound_to 7997
  155.3052  140.3364  155.4248 H   0  0  0  0  0  0  0  0  0  0  0  0  # atno 8010 bound_to 7997
  140.4846  144.0563  150.6276 H   0  0  0  0  0  0  0  0  0  0  0  0  # atno 10167 bound_to 10162
  155.9993  130.4943  150.5457 H   0  0  0  0  0  0  0  0  0  0  0  0  # atno 10718 bound_to 10713
  154.4061  135.2755  155.2066 H   0  0  0  0  0  0  0  0  0  0  0  0  # atno 10763 bound_to 10752
  154.4071  135.6031  153.5934 H   0  0  0  0  0  0  0  0  0  0  0  0  # atno 10764 bound_to 10752
  152.9831  135.5940  154.4336 H   0  0  0  0  0  0  0  0  0  0  0  0  # atno 10765 bound_to 10752
  141.1667  133.7096  156.8089 H   0  0  0  0  0  0  0  0  0  0  0  0  # atno 11005 bound_to 11000
  144.8843  139.4861  143.6708 LP  0  0  0  0  0  0  0  0  0  0  0  0  # atno 17320 bound_to 7965
  146.3035  139.7502  142.9074 LP  0  0  0  0  0  0  0  0  0  0  0  0  # atno 17321 bound_to 7965
  140.3814  143.2800  152.0165 LP  0  0  0  0  0  0  0  0  0  0  0  0  # atno 17342 bound_to 10162
  139.4839  144.6151  151.7361 LP  0  0  0  0  0  0  0  0  0  0  0  0  # atno 17343 bound_to 10162
  157.3387  131.0713  151.1805 LP  0  0  0  0  0  0  0  0  0  0  0  0  # atno 17370 bound_to 10713
  157.2661  130.6682  149.5997 LP  0  0  0  0  0  0  0  0  0  0  0  0  # atno 17371 bound_to 10713
  140.2202  134.8763  157.3368 LP  0  0  0  0  0  0  0  0  0  0  0  0  # atno 17394 bound_to 11000
  140.1996  134.4271  155.7670 LP  0  0  0  0  0  0  0  0  0  0  0  0  # atno 17395 bound_to 11000

$$$$
