AV-unprocessed.smi:1800|AV-procd|sdf|7264|dock10
  -GOLD-   22720 8513D 1   1.00000     0.00000
 Structure written by MMmdl.
 36 37  0  0  0  0  0  0  0  0  1 V2000
  148.9487  137.6790  156.0459 C   0  0  0  0  0  0  0  0  0  0  0  0
  150.0088  138.7867  155.9394 C   0  0  1  0  0  0  0  0  0  0  0  0
  149.8777  139.6510  154.6693 C   0  0  0  0  0  0  0  0  0  0  0  0
  148.5209  140.1184  154.4507 N   0  0  0  0  0  0  0  0  0  0  0  0
  148.0537  141.4157  154.4616 C   0  0  0  0  0  0  0  0  0  0  0  0
  146.7138  141.3673  154.2035 C   0  0  0  0  0  0  0  0  0  0  0  0
  146.4497  139.9777  154.0488 C   0  0  0  0  0  0  0  0  0  0  0  0
  147.5327  139.2324  154.1988 N   0  0  0  0  0  0  0  0  0  0  0  0
  149.9297  139.6430  157.1244 N   0  0  0  0  0  0  0  0  0  0  0  0
  151.3624  139.9135  158.0469 S   0  0  0  0  0  0  0  0  0  0  0  0
  151.2401  139.1130  159.2749 O   0  0  0  0  0  0  0  0  0  0  0  0
  152.5089  139.7084  157.1480 O   0  0  0  0  0  0  0  0  0  0  0  0
  151.2174  141.7132  158.4684 C   0  0  0  0  0  0  0  0  0  0  0  0
  151.1189  142.6195  157.2345 C   0  0  0  0  0  0  0  0  0  0  0  0
  151.6625  143.9606  157.7183 C   0  0  0  0  0  0  0  0  0  0  0  0
  152.8173  143.5804  158.6456 C   0  0  0  0  0  0  0  0  0  0  0  0
  152.4328  142.2272  159.2614 C   0  0  0  0  0  0  0  0  0  0  0  0
  149.0306  136.9679  155.2237 H   0  0  0  0  0  0  0  0  0  0  0  0
  147.9399  138.0929  156.0287 H   0  0  0  0  0  0  0  0  0  0  0  0
  149.0625  137.1152  156.9723 H   0  0  0  0  0  0  0  0  0  0  0  0
  150.9875  138.3042  155.9341 H   0  0  0  0  0  0  0  0  0  0  0  0
  150.5457  140.5123  154.7256 H   0  0  0  0  0  0  0  0  0  0  0  0
  150.1807  139.0830  153.7890 H   0  0  0  0  0  0  0  0  0  0  0  0
  148.7076  142.2548  154.6480 H   0  0  0  0  0  0  0  0  0  0  0  0
  146.0271  142.1979  154.1354 H   0  0  0  0  0  0  0  0  0  0  0  0
  145.5094  139.4920  153.8333 H   0  0  0  0  0  0  0  0  0  0  0  0
  149.1539  139.3659  157.7254 H   0  0  0  0  0  0  0  0  0  0  0  0
  150.3281  141.8419  159.0863 H   0  0  0  0  0  0  0  0  0  0  0  0
  151.7563  142.2575  156.4280 H   0  0  0  0  0  0  0  0  0  0  0  0
  150.1014  142.6908  156.8492 H   0  0  0  0  0  0  0  0  0  0  0  0
  151.9778  144.6073  156.8989 H   0  0  0  0  0  0  0  0  0  0  0  0
  150.8925  144.4878  158.2831 H   0  0  0  0  0  0  0  0  0  0  0  0
  153.7309  143.4670  158.0604 H   0  0  0  0  0  0  0  0  0  0  0  0
  153.0061  144.3429  159.4019 H   0  0  0  0  0  0  0  0  0  0  0  0
  152.1799  142.3321  160.3170 H   0  0  0  0  0  0  0  0  0  0  0  0
  153.2795  141.5432  159.1995 H   0  0  0  0  0  0  0  0  0  0  0  0
  1  2  1  0  0  0  0
  1 18  1  0  0  0  0
  1 19  1  0  0  0  0
  1 20  1  0  0  0  0
  2  3  1  0  0  0  0
  2  9  1  0  0  0  0
  2 21  1  0  0  0  0
  3  4  1  0  0  0  0
  3 22  1  0  0  0  0
  3 23  1  0  0  0  0
  4  8  1  0  0  0  0
  4  5  1  0  0  0  0
  5  6  2  0  0  0  0
  5 24  1  0  0  0  0
  6  7  1  0  0  0  0
  6 25  1  0  0  0  0
  7  8  2  0  0  0  0
  7 26  1  0  0  0  0
  9 10  1  0  0  0  0
  9 27  1  0  0  0  0
 10 11  2  0  0  0  0
 10 12  2  0  0  0  0
 10 13  1  0  0  0  0
 13 17  1  0  0  0  0
 13 14  1  0  0  0  0
 13 28  1  0  0  0  0
 14 15  1  0  0  0  0
 14 29  1  0  0  0  0
 14 30  1  0  0  0  0
 15 16  1  0  0  0  0
 15 31  1  0  0  0  0
 15 32  1  0  0  0  0
 16 17  1  0  0  0  0
 16 33  1  0  0  0  0
 16 34  1  0  0  0  0
 17 35  1  0  0  0  0
 17 36  1  0  0  0  0
M  END
> <s_m_source_file>
AV-unprocessed.smi

> <i_m_source_file_index>
1800

> <i_lp_mmshare_version>
43012

> <i_f3d_flags>
0

> <s_epik_input>
bjFbY0hdW2NIXVtjSF1uMVtDSDJdW0NAQEhdKFtDSDNdKVtOSF1TKD1PKSg9TylbQ0hdMltDSDJdW0NIMl1bQ0gyXVtDSDJdMg==

> <s_epik_cmdline>
J2VwaWtfcHl0aG9uJywgJy1waCcsICc3LjAnLCAnLXRuJywgJzgnLCAnLW1hJywgJzIwMCcsICctbWV0YWxfYmluZGluZycsICctaW1hZScsICc8aW5maWxlLm1hZT4nLCAnLW9tYWUnLCAnPG91dGZpbGUubWFlPic=

> <r_lp_tautomer_probability>
1

> <r_epik_Ionization_Penalty>
1.44925e-05

> <r_epik_Ionization_Penalty_Charging>
0

> <r_epik_Ionization_Penalty_Neutral>
1.44925e-05

> <r_epik_State_Penalty>
-0

> <r_epik_Charging_Adjusted_Penalty>
0

> <i_epik_Tot_Q>
0

> <i_epik_Tot_abs_Q>
0

> <r_epik_Metal_State_Penalty>
0.00862991

> <b_epik_Metal_Only>
0

> <s_lp_Force_Field>
OPLS_2005

> <r_lp_Energy>
17.3369

> <b_lp_Chiralities_Consistent>
1

> <s_lp_Variant>
AV-unprocessed.smi:1800-2

> <Gold.Version>
5.8.1

> <Gold.Id.Protein>
6NUR|6NUR_protein|mol2

> <Gold.PLP.Fitness>
39.7855

> <Gold.PLP.PLP>
-33.1502

> <Gold.PLP.part.hbond>
-1.0390

> <Gold.PLP.part.metal>
0.0000

> <Gold.PLP.part.buried>
-1.1811

> <Gold.PLP.part.nonpolar>
-30.9444

> <Gold.PLP.part.repulsive>
0.1572

> <Gold.PLP.ligand.clash>
0.0000

> <Gold.PLP.ligand.torsion>
1.3072

> <Gold.PLP.Chemscore.Hbond>
1.0000

> <Gold.PLP.Chemscore.CHOScore>
2.0000

> <Gold.PLP.Chemscore.Metal>
0.0000

> <Gold.Chemscore.Hbonds>
donor molecule, donor type, donor heavy atom, donor atom, acceptor molecule, acceptor atom, score
      P1  H  7997  8008       L1    12  1.00
      L1  C     5    24       P1  8028  0.69
      L1  C     7    26       P1 10175  0.90

> <Gold.PLP.Chemscore.Internal.Correction>
0.2496

> <Gold.Rescore>
     Score         DG    S(hbond)    S(metal)    S(lipo)     H(rot)  DE(clash)    DE(int)     intcor
     11.87     -14.62       0.99        0.00      88.36       1.76       0.06       2.69       ----

> <Gold.Chemscore.Fitness>
11.8739

> <Gold.Chemscore.DG>
-14.6219

> <Gold.Chemscore.ZeroCoef>
-5.4800

> <Gold.Chemscore.Hbond>
0.9898

> <Gold.Chemscore.Metal>
0.0000

> <Gold.Chemscore.Lipo>
88.3594

> <Gold.Chemscore.Internal_Hbond>
0.0000

> <Gold.Chemscore.DEClash>
0.0588

> <Gold.Chemscore.DEInternal>
2.6892

> <Gold.Chemscore.Rot>
1.7585

> <Gold.Chemscore.Internal.Correction>
   9.000000E+99

> <Gold.Chemscore.Hbonds>
donor molecule, donor type, donor heavy atom, donor atom, acceptor molecule, acceptor atom, score
      P1  H  7997  8008       L1    12  0.90

> <Gold.Chemscore.Hbond.Weighted>
-3.3058

> <Gold.Chemscore.Metal.Weighted>
-0.0000

> <Gold.Chemscore.Lipo.Weighted>
-10.3380

> <Gold.Chemscore.Internal_Hbond.Weighted>
0.0000

> <Gold.Chemscore.DEClash.Weighted>
0.0588

> <Gold.Chemscore.DEInternal.Weighted>
2.6892

> <Gold.Chemscore.Rot.Weighted>
4.5019

> <Gold.Chemscore.Internal.Correction.Weighted>
   9.000000E+99

> <Gold.Protein.RotatedTorsions>
[ 6907 6896 6895 6894 ] final  -19.75 input  -60.11 | X-H torsion
[ 7974 7965 7964 7962 ] final  114.49 input  175.53 | X-H torsion
[ 8008 7997 7996 7995 ] final  -77.22 input   59.86 | X-H torsion
[ 10167 10162 10161 10158 ] final   51.94 input  -65.29 | X-H torsion
[ 10718 10713 10712 10709 ] final   71.78 input   66.30 | X-H torsion
[ 10763 10752 10751 10750 ] final  -18.61 input  -60.55 | X-H torsion
[ 11005 11000 10999 10996 ] final -127.19 input  -57.11 | X-H torsion

> <Gold.Protein.ActiveResidues>
 VAL166  LYS551  ARG553  GLY616  TRP617  ASP618  TYR619  PRO620  LYS621  CYS622 
 ASP623  PHE694  ASN695  SER759  ASP760  ASP761  ALA762  ILE779  LEU786  VAL792 
 PHE793  MET794  SER795  GLU796  ALA797  LYS798  CYS799  TRP800  GLU811  SER814 

> <Gold.Protein.RotatedAtoms>
  151.2584  135.0646  159.9088 H   0  0  0  0  0  0  0  0  0  0  0  0  # atno 6907 bound_to 6896
  152.5369  134.0257  159.8012 H   0  0  0  0  0  0  0  0  0  0  0  0  # atno 6908 bound_to 6896
  151.0476  133.5602  159.2676 H   0  0  0  0  0  0  0  0  0  0  0  0  # atno 6909 bound_to 6896
  145.2037  139.2939  143.4305 H   0  0  0  0  0  0  0  0  0  0  0  0  # atno 7974 bound_to 7965
  154.5576  140.0714  156.8768 H   0  0  0  0  0  0  0  0  0  0  0  0  # atno 8008 bound_to 7997
  155.2873  140.3375  155.4236 H   0  0  0  0  0  0  0  0  0  0  0  0  # atno 8009 bound_to 7997
  156.2015  140.1723  156.7875 H   0  0  0  0  0  0  0  0  0  0  0  0  # atno 8010 bound_to 7997
  140.2566  144.3420  150.6331 H   0  0  0  0  0  0  0  0  0  0  0  0  # atno 10167 bound_to 10162
  157.6469  130.9545  150.0837 H   0  0  0  0  0  0  0  0  0  0  0  0  # atno 10718 bound_to 10713
  153.5920  135.7002  153.5419 H   0  0  0  0  0  0  0  0  0  0  0  0  # atno 10763 bound_to 10752
  153.3170  135.4085  155.1384 H   0  0  0  0  0  0  0  0  0  0  0  0  # atno 10764 bound_to 10752
  154.8599  135.3686  154.5452 H   0  0  0  0  0  0  0  0  0  0  0  0  # atno 10765 bound_to 10752
  140.9620  134.0923  157.3959 H   0  0  0  0  0  0  0  0  0  0  0  0  # atno 11005 bound_to 11000
  146.3412  140.2290  142.8593 LP  0  0  0  0  0  0  0  0  0  0  0  0  # atno 17320 bound_to 7965
  144.9923  140.8557  143.5332 LP  0  0  0  0  0  0  0  0  0  0  0  0  # atno 17321 bound_to 7965
  140.5999  143.2167  151.7092 LP  0  0  0  0  0  0  0  0  0  0  0  0  # atno 17342 bound_to 10162
  139.5030  144.3809  152.0377 LP  0  0  0  0  0  0  0  0  0  0  0  0  # atno 17343 bound_to 10162
  156.1806  130.3650  149.9041 LP  0  0  0  0  0  0  0  0  0  0  0  0  # atno 17370 bound_to 10713
  156.6994  130.8927  151.3597 LP  0  0  0  0  0  0  0  0  0  0  0  0  # atno 17371 bound_to 10713
  139.8881  135.0095  156.6602 LP  0  0  0  0  0  0  0  0  0  0  0  0  # atno 17394 bound_to 11000
  140.7454  133.8942  155.8308 LP  0  0  0  0  0  0  0  0  0  0  0  0  # atno 17395 bound_to 11000

$$$$
