AV-unprocessed.smi:2078|AV-procd|sdf|8469|dock4
  -GOLD-   2272011173D 1   1.00000     0.00000
 Structure written by MMmdl.
 41 42  0  0  0  0  0  0  0  0  3 V2000
  149.1194  141.7173  154.0770 C   0  0  0  0  0  0  0  0  0  0  0  0
  149.5011  140.2797  154.1691 C   0  0  0  0  0  0  0  0  0  0  0  0
  150.7076  139.6404  154.2116 C   0  0  0  0  0  0  0  0  0  0  0  0
  150.3451  138.2683  154.2946 C   0  0  0  0  0  0  0  0  0  0  0  0
  151.1918  137.2303  154.3752 N   0  5  0  0  0  0  0  0  0  0  0  0
  150.7906  136.0651  154.9314 C   0  0  0  0  0  0  0  0  0  0  0  0
  151.3623  135.4481  155.8335 O   0  0  0  0  0  0  0  0  0  0  0  0
  149.6566  135.5801  154.4057 N   0  0  0  0  0  0  0  0  0  0  0  0
  149.0024  134.3379  154.7977 C   0  0  0  0  0  0  0  0  0  0  0  0
  148.6543  133.4768  153.5689 C   0  0  0  0  0  0  0  0  0  0  0  0
  147.5736  134.0767  152.7483 N   0  3  1  0  0  0  0  0  0  0  0  0
  147.1178  133.1643  151.6684 C   0  0  0  0  0  0  0  0  0  0  0  0
  146.1135  133.8635  150.7389 C   0  0  0  0  0  0  0  0  0  0  0  0
  144.9210  134.4162  151.5323 C   0  0  0  0  0  0  0  0  0  0  0  0
  145.3897  135.3135  152.6927 C   0  0  2  0  0  0  0  0  0  0  0  0
  145.8967  136.6867  152.2183 C   0  0  0  0  0  0  0  0  0  0  0  0
  146.4305  134.5761  153.5608 C   0  0  0  0  0  0  0  0  0  0  0  0
  149.0349  138.0917  154.3161 N   0  0  0  0  0  0  0  0  0  0  0  0
  148.4859  139.3768  154.2318 O   0  0  0  0  0  0  0  0  0  0  0  0
  149.1765  142.1940  155.0556 H   0  0  0  0  0  0  0  0  0  0  0  0
  148.1012  141.8295  153.7038 H   0  0  0  0  0  0  0  0  0  0  0  0
  149.7865  142.2514  153.4003 H   0  0  0  0  0  0  0  0  0  0  0  0
  151.6922  140.0822  154.1850 H   0  0  0  0  0  0  0  0  0  0  0  0
  149.2200  136.1179  153.6710 H   0  0  0  0  0  0  0  0  0  0  0  0
  149.6439  133.8040  155.4990 H   0  0  0  0  0  0  0  0  0  0  0  0
  148.0928  134.5924  155.3419 H   0  0  0  0  0  0  0  0  0  0  0  0
  149.5571  133.3794  152.9638 H   0  0  0  0  0  0  0  0  0  0  0  0
  148.3708  132.4642  153.8598 H   0  0  0  0  0  0  0  0  0  0  0  0
  147.9727  132.8304  151.0792 H   0  0  0  0  0  0  0  0  0  0  0  0
  146.6687  132.2729  152.1095 H   0  0  0  0  0  0  0  0  0  0  0  0
  146.6108  134.6709  150.2006 H   0  0  0  0  0  0  0  0  0  0  0  0
  145.7606  133.1638  149.9807 H   0  0  0  0  0  0  0  0  0  0  0  0
  144.2458  134.9622  150.8726 H   0  0  0  0  0  0  0  0  0  0  0  0
  144.3447  133.5818  151.9345 H   0  0  0  0  0  0  0  0  0  0  0  0
  144.5203  135.5089  153.3217 H   0  0  0  0  0  0  0  0  0  0  0  0
  146.7913  136.6010  151.6017 H   0  0  0  0  0  0  0  0  0  0  0  0
  146.1433  137.3254  153.0670 H   0  0  0  0  0  0  0  0  0  0  0  0
  145.1371  137.2039  151.6313 H   0  0  0  0  0  0  0  0  0  0  0  0
  145.9577  133.7309  154.0637 H   0  0  0  0  0  0  0  0  0  0  0  0
  146.7783  135.2444  154.3475 H   0  0  0  0  0  0  0  0  0  0  0  0
  147.9800  134.8779  152.2869 H   0  0  0  0  0  0  0  0  0  0  0  0
  1  2  1  0  0  0  0
  1 20  1  0  0  0  0
  1 21  1  0  0  0  0
  1 22  1  0  0  0  0
  2 19  1  0  0  0  0
  2  3  2  0  0  0  0
  3  4  1  0  0  0  0
  3 23  1  0  0  0  0
  4  5  1  0  0  0  0
  4 18  2  0  0  0  0
  5  6  1  0  0  0  0
  6  7  2  0  0  0  0
  6  8  1  0  0  0  0
  8  9  1  0  0  0  0
  8 24  1  0  0  0  0
  9 10  1  0  0  0  0
  9 25  1  0  0  0  0
  9 26  1  0  0  0  0
 10 11  1  0  0  0  0
 10 27  1  0  0  0  0
 10 28  1  0  0  0  0
 11 17  1  0  0  0  0
 11 12  1  0  0  0  0
 11 41  1  0  0  0  0
 12 13  1  0  0  0  0
 12 29  1  0  0  0  0
 12 30  1  0  0  0  0
 13 14  1  0  0  0  0
 13 31  1  0  0  0  0
 13 32  1  0  0  0  0
 14 15  1  0  0  0  0
 14 33  1  0  0  0  0
 14 34  1  0  0  0  0
 15 16  1  0  0  0  0
 15 17  1  0  0  0  0
 15 35  1  0  0  0  0
 16 36  1  0  0  0  0
 16 37  1  0  0  0  0
 16 38  1  0  0  0  0
 17 39  1  0  0  0  0
 17 40  1  0  0  0  0
 18 19  1  0  0  0  0
M  CHG  1   5  -1
M  CHG  1  11   1
M  END
> <s_m_source_file>
AV-unprocessed.smi

> <i_m_source_file_index>
2078

> <i_lp_mmshare_version>
43012

> <i_f3d_flags>
0

> <s_epik_input>
W0NIM11jMVtjSF1jKG5vMSlbTkhdQyg9TylbTkhdW0NIMl1bQ0gyXU4yW0NIMl1bQ0gyXVtDSDJdW0NAQEhdKFtDSDNdKVtDSDJdMg==

> <s_epik_cmdline>
J2VwaWtfcHl0aG9uJywgJy1waCcsICc3LjAnLCAnLXRuJywgJzgnLCAnLW1hJywgJzIwMCcsICctbWV0YWxfYmluZGluZycsICctaW1hZScsICc8aW5maWxlLm1hZT4nLCAnLW9tYWUnLCAnPG91dGZpbGUubWFlPic=

> <r_epik_Ionization_Penalty>
6.22434

> <r_epik_Ionization_Penalty_Charging>
6.22425

> <r_epik_Ionization_Penalty_Neutral>
9.37855e-05

> <r_epik_State_Penalty>
6.22423

> <r_epik_Charging_Adjusted_Penalty>
12.4485

> <i_epik_Tot_Q>
0

> <i_epik_Tot_abs_Q>
2

> <r_epik_Metal_State_Penalty>
2.16764

> <b_epik_Metal_Only>
1

> <s_lp_Force_Field>
OPLS_2005

> <r_lp_Energy>
5.82233

> <b_lp_Chiralities_Consistent>
1

> <s_lp_Variant>
AV-unprocessed.smi:2078-7

> <Gold.Version>
5.8.1

> <Gold.Id.Protein>
6NUR|6NUR_protein|mol2

> <Gold.PLP.Fitness>
39.4458

> <Gold.PLP.PLP>
-29.5023

> <Gold.PLP.part.hbond>
-3.0000

> <Gold.PLP.part.metal>
0.0000

> <Gold.PLP.part.buried>
-0.5648

> <Gold.PLP.part.nonpolar>
-26.0126

> <Gold.PLP.part.repulsive>
0.5912

> <Gold.PLP.ligand.clash>
0.0000

> <Gold.PLP.ligand.torsion>
0.7375

> <Gold.PLP.Chemscore.Hbond>
3.7680

> <Gold.PLP.Chemscore.CHOScore>
0.0000

> <Gold.PLP.Chemscore.Metal>
0.0000

> <Gold.Chemscore.Hbonds>
donor molecule, donor type, donor heavy atom, donor atom, acceptor molecule, acceptor atom, score
      L1  H     8    24       P1  7948  0.86
      L1  H    11    41       P1  7948  2.00
      P1  H 10752 10763       L1     7  0.85

> <Gold.PLP.Chemscore.Internal.Correction>
0.1143

> <Gold.Rescore>
     Score         DG    S(hbond)    S(metal)    S(lipo)     H(rot)  DE(clash)    DE(int)     intcor
     13.22     -15.60       2.17        0.00      58.23       1.54       0.03       2.35       ----

> <Gold.Chemscore.Fitness>
13.2228

> <Gold.Chemscore.DG>
-15.6039

> <Gold.Chemscore.ZeroCoef>
-5.4800

> <Gold.Chemscore.Hbond>
2.1722

> <Gold.Chemscore.Metal>
0.0000

> <Gold.Chemscore.Lipo>
58.2349

> <Gold.Chemscore.Internal_Hbond>
0.0000

> <Gold.Chemscore.DEClash>
0.0349

> <Gold.Chemscore.DEInternal>
2.3462

> <Gold.Chemscore.Rot>
1.5409

> <Gold.Chemscore.Internal.Correction>
   9.000000E+99

> <Gold.Chemscore.Hbonds>
donor molecule, donor type, donor heavy atom, donor atom, acceptor molecule, acceptor atom, score
      L1  H     8    24       P1  7948  0.75
      L1  H    11    41       P1  7948  0.65
      P1  H 10752 10763       L1     7  0.14

> <Gold.Chemscore.Hbond.Weighted>
-7.2550

> <Gold.Chemscore.Metal.Weighted>
-0.0000

> <Gold.Chemscore.Lipo.Weighted>
-6.8135

> <Gold.Chemscore.Internal_Hbond.Weighted>
0.0000

> <Gold.Chemscore.DEClash.Weighted>
0.0349

> <Gold.Chemscore.DEInternal.Weighted>
2.3462

> <Gold.Chemscore.Rot.Weighted>
3.9446

> <Gold.Chemscore.Internal.Correction.Weighted>
   9.000000E+99

> <Gold.Protein.RotatedTorsions>
[ 6907 6896 6895 6894 ] final  -57.39 input  -60.11 | X-H torsion
[ 7974 7965 7964 7962 ] final  160.97 input  175.53 | X-H torsion
[ 8008 7997 7996 7995 ] final -162.03 input   59.86 | X-H torsion
[ 10167 10162 10161 10158 ] final   19.89 input  -65.29 | X-H torsion
[ 10718 10713 10712 10709 ] final  -67.44 input   66.30 | X-H torsion
[ 10763 10752 10751 10750 ] final   89.99 input  -60.55 | X-H torsion
[ 11005 11000 10999 10996 ] final  173.43 input  -57.11 | X-H torsion

> <Gold.Protein.ActiveResidues>
 VAL166  LYS551  ARG553  GLY616  TRP617  ASP618  TYR619  PRO620  LYS621  CYS622 
 ASP623  PHE694  ASN695  SER759  ASP760  ASP761  ALA762  ILE779  LEU786  VAL792 
 PHE793  MET794  SER795  GLU796  ALA797  LYS798  CYS799  TRP800  GLU811  SER814 

> <Gold.Protein.RotatedAtoms>
  150.8090  134.7233  159.6670 H   0  0  0  0  0  0  0  0  0  0  0  0  # atno 6907 bound_to 6896
  152.4210  134.5952  159.9995 H   0  0  0  0  0  0  0  0  0  0  0  0  # atno 6908 bound_to 6896
  151.6168  133.3305  159.3115 H   0  0  0  0  0  0  0  0  0  0  0  0  # atno 6909 bound_to 6896
  144.7709  139.7832  143.6297 H   0  0  0  0  0  0  0  0  0  0  0  0  # atno 7974 bound_to 7965
  155.8009  140.0891  157.1958 H   0  0  0  0  0  0  0  0  0  0  0  0  # atno 8008 bound_to 7997
  154.3982  140.1472  156.3332 H   0  0  0  0  0  0  0  0  0  0  0  0  # atno 8009 bound_to 7997
  155.8464  140.3436  155.5667 H   0  0  0  0  0  0  0  0  0  0  0  0  # atno 8010 bound_to 7997
  140.5545  143.9449  150.6600 H   0  0  0  0  0  0  0  0  0  0  0  0  # atno 10167 bound_to 10162
  156.0557  130.4278  150.1855 H   0  0  0  0  0  0  0  0  0  0  0  0  # atno 10718 bound_to 10713
  153.1928  135.4450  155.0171 H   0  0  0  0  0  0  0  0  0  0  0  0  # atno 10763 bound_to 10752
  154.8101  135.3291  154.7331 H   0  0  0  0  0  0  0  0  0  0  0  0  # atno 10764 bound_to 10752
  153.7783  135.6979  153.4948 H   0  0  0  0  0  0  0  0  0  0  0  0  # atno 10765 bound_to 10752
  140.3404  134.7281  157.4198 H   0  0  0  0  0  0  0  0  0  0  0  0  # atno 11005 bound_to 11000
  146.1855  139.5068  142.9839 LP  0  0  0  0  0  0  0  0  0  0  0  0  # atno 17320 bound_to 7965
  145.6326  141.0301  143.1855 LP  0  0  0  0  0  0  0  0  0  0  0  0  # atno 17321 bound_to 7965
  140.2884  143.3341  152.1086 LP  0  0  0  0  0  0  0  0  0  0  0  0  # atno 17342 bound_to 10162
  139.5042  144.6770  151.6103 LP  0  0  0  0  0  0  0  0  0  0  0  0  # atno 17343 bound_to 10162
  156.9932  130.9899  151.3409 LP  0  0  0  0  0  0  0  0  0  0  0  0  # atno 17370 bound_to 10713
  157.5525  130.8192  149.8163 LP  0  0  0  0  0  0  0  0  0  0  0  0  # atno 17371 bound_to 10713
  140.0785  134.5763  155.8565 LP  0  0  0  0  0  0  0  0  0  0  0  0  # atno 17394 bound_to 11000
  141.2040  133.6636  156.6094 LP  0  0  0  0  0  0  0  0  0  0  0  0  # atno 17395 bound_to 11000

$$$$
