AV-unprocessed.smi:223|AV-procd|sdf|1706|dock7
  -GOLD-   2262020173D 1   1.00000     0.00000
 Structure written by MMmdl.
 47 50  0  0  0  0  0  0  0  0  1 V2000
  153.8383  141.6374  162.1442 C   0  0  0  0  0  0  0  0  0  0  0  0
  153.9137  141.8866  160.6333 C   0  0  1  0  0  0  0  0  0  0  0  0
  154.7422  140.8573  159.9838 C   0  0  0  0  0  0  0  0  0  0  0  0
  155.3918  140.0476  159.4726 N   0  0  0  0  0  0  0  0  0  0  0  0
  152.5023  141.9820  160.0176 C   0  0  0  0  0  0  0  0  0  0  0  0
  152.4965  142.3308  158.5968 N   0  0  0  0  0  0  0  0  0  0  0  0
  152.3615  141.3098  157.7064 C   0  0  0  0  0  0  0  0  0  0  0  0
  153.1046  140.1823  157.8730 N   0  0  0  0  0  0  0  0  0  0  0  0
  153.0115  139.1710  157.0058 C   0  0  0  0  0  0  0  0  0  0  0  0
  152.2475  139.0747  155.9175 N   0  0  0  0  0  0  0  0  0  0  0  0
  151.4891  140.1943  155.7458 C   0  0  0  0  0  0  0  0  0  0  0  0
  151.4864  141.3490  156.5807 C   0  0  0  0  0  0  0  0  0  0  0  0
  150.5828  142.2811  156.0826 N   0  0  0  0  0  0  0  0  0  0  0  0
  150.0893  141.7163  155.0155 C   0  0  0  0  0  0  0  0  0  0  0  0
  150.5685  140.4551  154.7451 N   0  0  0  0  0  0  0  0  0  0  0  0
  150.1895  139.5958  153.6328 C   0  0  0  0  0  0  0  0  0  0  0  0
  148.6584  139.4658  153.4392 C   0  0  2  0  0  0  0  0  0  0  0  0
  148.4018  138.4962  152.4399 O   0  0  0  0  0  0  0  0  0  0  0  0
  148.0069  140.7885  153.0288 C   0  0  0  0  0  0  0  0  0  0  0  0
  147.2279  141.2069  154.2700 C   0  0  0  0  0  0  0  0  0  0  0  0
  146.7967  139.9654  154.7973 O   0  0  0  0  0  0  0  0  0  0  0  0
  147.9022  139.0771  154.7256 C   0  0  0  0  0  0  0  0  0  0  0  0
  151.9636  143.6407  158.2287 C   0  0  0  0  0  0  0  0  0  0  0  0
  152.9219  144.7914  158.0150 C   0  0  0  0  0  0  0  0  0  0  0  0
  152.0369  144.7620  159.2385 C   0  0  0  0  0  0  0  0  0  0  0  0
  154.8350  141.6057  162.5850 H   0  0  0  0  0  0  0  0  0  0  0  0
  153.3466  140.6893  162.3637 H   0  0  0  0  0  0  0  0  0  0  0  0
  153.2804  142.4289  162.6449 H   0  0  0  0  0  0  0  0  0  0  0  0
  154.4357  142.8318  160.4838 H   0  0  0  0  0  0  0  0  0  0  0  0
  151.9982  141.0226  160.1397 H   0  0  0  0  0  0  0  0  0  0  0  0
  151.8932  142.6946  160.5714 H   0  0  0  0  0  0  0  0  0  0  0  0
  153.6403  138.3177  157.2131 H   0  0  0  0  0  0  0  0  0  0  0  0
  149.3528  142.2074  154.3965 H   0  0  0  0  0  0  0  0  0  0  0  0
  150.6484  139.9925  152.7262 H   0  0  0  0  0  0  0  0  0  0  0  0
  150.6347  138.6128  153.7932 H   0  0  0  0  0  0  0  0  0  0  0  0
  149.1565  137.9320  152.3697 H   0  0  0  0  0  0  0  0  0  0  0  0
  148.7238  141.5481  152.7145 H   0  0  0  0  0  0  0  0  0  0  0  0
  147.3061  140.6414  152.2051 H   0  0  0  0  0  0  0  0  0  0  0  0
  147.8757  141.7101  154.9895 H   0  0  0  0  0  0  0  0  0  0  0  0
  146.3877  141.8627  154.0407 H   0  0  0  0  0  0  0  0  0  0  0  0
  147.5793  138.0354  154.7465 H   0  0  0  0  0  0  0  0  0  0  0  0
  148.5154  139.2498  155.6104 H   0  0  0  0  0  0  0  0  0  0  0  0
  151.0855  143.6333  157.5865 H   0  0  0  0  0  0  0  0  0  0  0  0
  153.9841  144.6028  158.1594 H   0  0  0  0  0  0  0  0  0  0  0  0
  152.6774  145.5067  157.2327 H   0  0  0  0  0  0  0  0  0  0  0  0
  151.2018  145.4584  159.2737 H   0  0  0  0  0  0  0  0  0  0  0  0
  152.5125  144.5552  160.1952 H   0  0  0  0  0  0  0  0  0  0  0  0
  1  2  1  0  0  0  0
  1 26  1  0  0  0  0
  1 27  1  0  0  0  0
  1 28  1  0  0  0  0
  2  3  1  0  0  0  0
  2  5  1  0  0  0  0
  2 29  1  0  0  0  0
  3  4  3  0  0  0  0
  5  6  1  0  0  0  0
  5 30  1  0  0  0  0
  5 31  1  0  0  0  0
  6  7  1  0  0  0  0
  6 23  1  0  0  0  0
  7 12  1  0  0  0  0
  7  8  2  0  0  0  0
  8  9  1  0  0  0  0
  9 10  2  0  0  0  0
  9 32  1  0  0  0  0
 10 11  1  0  0  0  0
 11 15  1  0  0  0  0
 11 12  2  0  0  0  0
 12 13  1  0  0  0  0
 13 14  2  0  0  0  0
 14 15  1  0  0  0  0
 14 33  1  0  0  0  0
 15 16  1  0  0  0  0
 16 17  1  0  0  0  0
 16 34  1  0  0  0  0
 16 35  1  0  0  0  0
 17 22  1  0  0  0  0
 17 18  1  0  0  0  0
 17 19  1  0  0  0  0
 18 36  1  0  0  0  0
 19 20  1  0  0  0  0
 19 37  1  0  0  0  0
 19 38  1  0  0  0  0
 20 21  1  0  0  0  0
 20 39  1  0  0  0  0
 20 40  1  0  0  0  0
 21 22  1  0  0  0  0
 22 41  1  0  0  0  0
 22 42  1  0  0  0  0
 23 25  1  0  0  0  0
 23 24  1  0  0  0  0
 23 43  1  0  0  0  0
 24 25  1  0  0  0  0
 24 44  1  0  0  0  0
 24 45  1  0  0  0  0
 25 46  1  0  0  0  0
 25 47  1  0  0  0  0
M  END
> <s_m_source_file>
AV-unprocessed.smi

> <i_m_source_file_index>
223

> <i_lp_mmshare_version>
43012

> <i_f3d_flags>
0

> <s_epik_input>
TiNDW0NAQEhdKFtDSDNdKVtDSDJdTihbQ0hdMVtDSDJdW0NIMl0xKWMobltjSF1uMiljKGMyMyluW2NIXW4zW0NIMl1bQ0BAXTQoW09IXSlbQ0gyXVtDSDJdT1tDSDJdNA==

> <s_epik_cmdline>
J2VwaWtfcHl0aG9uJywgJy1waCcsICc3LjAnLCAnLXRuJywgJzgnLCAnLW1hJywgJzIwMCcsICctbWV0YWxfYmluZGluZycsICctaW1hZScsICc8aW5maWxlLm1hZT4nLCAnLW9tYWUnLCAnPG91dGZpbGUubWFlPic=

> <r_lp_tautomer_probability>
1

> <r_epik_Ionization_Penalty>
0.000756152

> <r_epik_Ionization_Penalty_Charging>
0

> <r_epik_Ionization_Penalty_Neutral>
0.000756152

> <r_epik_State_Penalty>
0.00038036

> <r_epik_Charging_Adjusted_Penalty>
0.00038036

> <i_epik_Tot_Q>
0

> <i_epik_Tot_abs_Q>
0

> <r_epik_Metal_State_Penalty>
-0

> <b_epik_Metal_Only>
0

> <s_lp_Force_Field>
OPLS_2005

> <r_lp_Energy>
37.1983

> <b_lp_Chiralities_Consistent>
1

> <s_lp_Variant>
AV-unprocessed.smi:223-4

> <Gold.Version>
5.8.1

> <Gold.Id.Protein>
6NUR|6NUR_protein|mol2

> <Gold.PLP.Fitness>
55.2790

> <Gold.PLP.PLP>
-49.4179

> <Gold.PLP.part.hbond>
-3.9726

> <Gold.PLP.part.metal>
0.0000

> <Gold.PLP.part.buried>
0.4704

> <Gold.PLP.part.nonpolar>
-45.7528

> <Gold.PLP.part.repulsive>
1.8076

> <Gold.PLP.ligand.clash>
0.0000

> <Gold.PLP.ligand.torsion>
1.1544

> <Gold.PLP.Chemscore.Hbond>
1.9280

> <Gold.PLP.Chemscore.CHOScore>
0.3521

> <Gold.PLP.Chemscore.Metal>
0.0000

> <Gold.Chemscore.Hbonds>
donor molecule, donor type, donor heavy atom, donor atom, acceptor molecule, acceptor atom, score
      L1  H    18    36       P1  7948  0.42
      P1  H  7997  8008       L1     4  0.76
      L1  C    14    33       P1  8028  0.12

> <Gold.PLP.Chemscore.Internal.Correction>
1.3296

> <Gold.Rescore>
     Score         DG    S(hbond)    S(metal)    S(lipo)     H(rot)  DE(clash)    DE(int)     intcor
     10.14     -15.26       1.33        0.00     105.20       2.72       1.75       3.37       ----

> <Gold.Chemscore.Fitness>
10.1435

> <Gold.Chemscore.DG>
-15.2611

> <Gold.Chemscore.ZeroCoef>
-5.4800

> <Gold.Chemscore.Hbond>
1.3259

> <Gold.Chemscore.Metal>
0.0000

> <Gold.Chemscore.Lipo>
105.2003

> <Gold.Chemscore.Internal_Hbond>
0.0000

> <Gold.Chemscore.DEClash>
1.7503

> <Gold.Chemscore.DEInternal>
3.3673

> <Gold.Chemscore.Rot>
2.7171

> <Gold.Chemscore.Internal.Correction>
   9.000000E+99

> <Gold.Chemscore.Hbonds>
donor molecule, donor type, donor heavy atom, donor atom, acceptor molecule, acceptor atom, score
      L1  H    18    36       P1  7948  0.39
      P1  H  7997  8008       L1     4  0.70

> <Gold.Chemscore.Hbond.Weighted>
-4.4284

> <Gold.Chemscore.Metal.Weighted>
-0.0000

> <Gold.Chemscore.Lipo.Weighted>
-12.3084

> <Gold.Chemscore.Internal_Hbond.Weighted>
0.0000

> <Gold.Chemscore.DEClash.Weighted>
1.7503

> <Gold.Chemscore.DEInternal.Weighted>
3.3673

> <Gold.Chemscore.Rot.Weighted>
6.9558

> <Gold.Chemscore.Internal.Correction.Weighted>
   9.000000E+99

> <Gold.Protein.RotatedTorsions>
[ 6907 6896 6895 6894 ] final  -99.07 input  -60.11 | X-H torsion
[ 7974 7965 7964 7962 ] final   85.02 input  175.53 | X-H torsion
[ 8008 7997 7996 7995 ] final -143.93 input   59.86 | X-H torsion
[ 10167 10162 10161 10158 ] final  -38.79 input  -65.29 | X-H torsion
[ 10718 10713 10712 10709 ] final  145.54 input   66.30 | X-H torsion
[ 10763 10752 10751 10750 ] final  101.66 input  -60.55 | X-H torsion
[ 11005 11000 10999 10996 ] final   33.66 input  -57.11 | X-H torsion

> <Gold.Protein.ActiveResidues>
 VAL166  LYS551  ARG553  GLY616  TRP617  ASP618  TYR619  PRO620  LYS621  CYS622 
 ASP623  PHE694  ASN695  SER759  ASP760  ASP761  ALA762  ILE779  LEU786  VAL792 
 PHE793  MET794  SER795  GLU796  ALA797  LYS798  CYS799  TRP800  GLU811  SER814 

> <Gold.Protein.RotatedAtoms>
  150.7067  134.1098  159.3995 H   0  0  0  0  0  0  0  0  0  0  0  0  # atno 6907 bound_to 6896
  151.9084  135.0347  160.0521 H   0  0  0  0  0  0  0  0  0  0  0  0  # atno 6908 bound_to 6896
  152.2356  133.5058  159.5277 H   0  0  0  0  0  0  0  0  0  0  0  0  # atno 6909 bound_to 6896
  145.5910  139.2338  143.2299 H   0  0  0  0  0  0  0  0  0  0  0  0  # atno 7974 bound_to 7965
  155.5187  140.0589  157.2910 H   0  0  0  0  0  0  0  0  0  0  0  0  # atno 8008 bound_to 7997
  154.4525  140.1956  156.0422 H   0  0  0  0  0  0  0  0  0  0  0  0  # atno 8009 bound_to 7997
  156.0734  140.3257  155.7608 H   0  0  0  0  0  0  0  0  0  0  0  0  # atno 8010 bound_to 7997
  140.7082  143.3255  151.2691 H   0  0  0  0  0  0  0  0  0  0  0  0  # atno 10167 bound_to 10162
  157.3441  131.0940  151.1057 H   0  0  0  0  0  0  0  0  0  0  0  0  # atno 10718 bound_to 10713
  153.3295  135.4037  155.1484 H   0  0  0  0  0  0  0  0  0  0  0  0  # atno 10763 bound_to 10752
  154.8620  135.3607  154.5489 H   0  0  0  0  0  0  0  0  0  0  0  0  # atno 10764 bound_to 10752
  153.5927  135.7073  153.5476 H   0  0  0  0  0  0  0  0  0  0  0  0  # atno 10765 bound_to 10752
  140.2608  134.3194  155.7858 H   0  0  0  0  0  0  0  0  0  0  0  0  # atno 11005 bound_to 11000
  146.1647  140.6736  142.9261 LP  0  0  0  0  0  0  0  0  0  0  0  0  # atno 17320 bound_to 7965
  144.7351  140.4786  143.6909 LP  0  0  0  0  0  0  0  0  0  0  0  0  # atno 17321 bound_to 7965
  139.6721  144.0001  152.2759 LP  0  0  0  0  0  0  0  0  0  0  0  0  # atno 17342 bound_to 10162
  139.9603  144.6562  150.8086 LP  0  0  0  0  0  0  0  0  0  0  0  0  # atno 17343 bound_to 10162
  157.2258  130.6502  149.5829 LP  0  0  0  0  0  0  0  0  0  0  0  0  # atno 17370 bound_to 10713
  155.9712  130.4614  150.6110 LP  0  0  0  0  0  0  0  0  0  0  0  0  # atno 17371 bound_to 10713
  141.2190  133.7408  156.9183 LP  0  0  0  0  0  0  0  0  0  0  0  0  # atno 17394 bound_to 11000
  140.1467  134.9258  157.2538 LP  0  0  0  0  0  0  0  0  0  0  0  0  # atno 17395 bound_to 11000

$$$$
