AV-unprocessed.smi:2597|AV-procd|sdf|10170|dock4
  -GOLD-   2272014183D 1   1.00000     0.00000
 Structure written by MMmdl.
 31 32  0  0  0  0  0  0  0  0  2 V2000
  149.0596  138.4887  153.0231 N   0  3  0  0  0  0  0  0  0  0  0  0
  147.8367  139.0162  153.6577 C   0  0  1  0  0  0  0  0  0  0  0  0
  147.2357  137.9896  154.6395 C   0  0  0  0  0  0  0  0  0  0  0  0
  145.9572  138.5310  155.2988 C   0  0  0  0  0  0  0  0  0  0  0  0
  146.2051  139.8763  155.9986 C   0  0  0  0  0  0  0  0  0  0  0  0
  146.8093  140.9118  155.0316 C   0  0  0  0  0  0  0  0  0  0  0  0
  148.0755  140.4111  154.2977 C   0  0  1  0  0  0  0  0  0  0  0  0
  149.2788  140.4898  155.1277 N   0  0  0  0  0  0  0  0  0  0  0  0
  149.3816  141.0027  156.4057 C   0  0  0  0  0  0  0  0  0  0  0  0
  150.7051  140.8578  156.7100 C   0  0  0  0  0  0  0  0  0  0  0  0
  151.4404  141.2395  157.9582 C   0  0  0  0  0  0  0  0  0  0  0  0
  152.7604  140.7615  157.8125 O   0  0  0  0  0  0  0  0  0  0  0  0
  151.3472  140.2654  155.6254 N   0  0  0  0  0  0  0  0  0  0  0  0
  150.4826  140.0463  154.6869 N   0  0  0  0  0  0  0  0  0  0  0  0
  147.1140  139.1488  152.8514 H   0  0  0  0  0  0  0  0  0  0  0  0
  148.2469  141.1069  153.4746 H   0  0  0  0  0  0  0  0  0  0  0  0
  149.7906  138.4109  153.7161 H   0  0  0  0  0  0  0  0  0  0  0  0
  149.3583  139.1168  152.2907 H   0  0  0  0  0  0  0  0  0  0  0  0
  147.0014  137.0658  154.1093 H   0  0  0  0  0  0  0  0  0  0  0  0
  147.9584  137.7159  155.4076 H   0  0  0  0  0  0  0  0  0  0  0  0
  145.1819  138.6540  154.5415 H   0  0  0  0  0  0  0  0  0  0  0  0
  145.5734  137.8052  156.0164 H   0  0  0  0  0  0  0  0  0  0  0  0
  145.2657  140.2577  156.3996 H   0  0  0  0  0  0  0  0  0  0  0  0
  146.8567  139.7311  156.8594 H   0  0  0  0  0  0  0  0  0  0  0  0
  146.0540  141.1642  154.2860 H   0  0  0  0  0  0  0  0  0  0  0  0
  147.0233  141.8396  155.5638 H   0  0  0  0  0  0  0  0  0  0  0  0
  148.5499  141.4118  156.9605 H   0  0  0  0  0  0  0  0  0  0  0  0
  151.4545  142.3210  158.0935 H   0  0  0  0  0  0  0  0  0  0  0  0
  150.9871  140.7979  158.8462 H   0  0  0  0  0  0  0  0  0  0  0  0
  152.9006  140.0726  158.4440 H   0  0  0  0  0  0  0  0  0  0  0  0
  148.8710  137.5779  152.6296 H   0  0  0  0  0  0  0  0  0  0  0  0
  1  2  1  0  0  0  0
  1 17  1  0  0  0  0
  1 18  1  0  0  0  0
  1 31  1  0  0  0  0
  2 15  1  0  0  0  0
  2  7  1  0  0  0  0
  2  3  1  0  0  0  0
  3  4  1  0  0  0  0
  3 19  1  0  0  0  0
  3 20  1  0  0  0  0
  4  5  1  0  0  0  0
  4 21  1  0  0  0  0
  4 22  1  0  0  0  0
  5  6  1  0  0  0  0
  5 23  1  0  0  0  0
  5 24  1  0  0  0  0
  6  7  1  0  0  0  0
  6 25  1  0  0  0  0
  6 26  1  0  0  0  0
  7 16  1  0  0  0  0
  7  8  1  0  0  0  0
  8 14  1  0  0  0  0
  8  9  1  0  0  0  0
  9 10  2  0  0  0  0
  9 27  1  0  0  0  0
 10 11  1  0  0  0  0
 10 13  1  0  0  0  0
 11 12  1  0  0  0  0
 11 28  1  0  0  0  0
 11 29  1  0  0  0  0
 12 30  1  0  0  0  0
 13 14  2  0  0  0  0
M  CHG  1   1   1
M  END
> <s_m_source_file>
AV-unprocessed.smi

> <i_m_source_file_index>
2597

> <i_lp_mmshare_version>
43012

> <i_f3d_flags>
0

> <s_epik_input>
W05IMl1bQ0BIXTFbQ0gyXVtDSDJdW0NIMl1bQ0gyXVtDQEhdMW4yW2NIXWMobm4yKVtDSDJdW09IXQ==

> <s_epik_cmdline>
J2VwaWtfcHl0aG9uJywgJy1waCcsICc3LjAnLCAnLXRuJywgJzgnLCAnLW1hJywgJzIwMCcsICctbWV0YWxfYmluZGluZycsICctaW1hZScsICc8aW5maWxlLm1hZT4nLCAnLW9tYWUnLCAnPG91dGZpbGUubWFlPic=

> <r_lp_tautomer_probability>
1

> <r_epik_Ionization_Penalty>
0.014346

> <r_epik_Ionization_Penalty_Charging>
0.014316

> <r_epik_Ionization_Penalty_Neutral>
3.00097e-05

> <r_epik_State_Penalty>
0.0111909

> <r_epik_Charging_Adjusted_Penalty>
0.0255069

> <i_epik_Tot_Q>
1

> <i_epik_Tot_abs_Q>
1

> <r_epik_Metal_State_Penalty>
0.011192

> <b_epik_Metal_Only>
0

> <s_lp_Force_Field>
OPLS_2005

> <r_lp_Energy>
16.1833

> <b_lp_Chiralities_Consistent>
1

> <s_lp_Variant>
AV-unprocessed.smi:2597-1

> <Gold.Version>
5.8.1

> <Gold.Id.Protein>
6NUR|6NUR_protein|mol2

> <Gold.PLP.Fitness>
38.2928

> <Gold.PLP.PLP>
-22.9046

> <Gold.PLP.part.hbond>
-3.9928

> <Gold.PLP.part.metal>
0.0000

> <Gold.PLP.part.buried>
1.4319

> <Gold.PLP.part.nonpolar>
-19.0609

> <Gold.PLP.part.repulsive>
0.1590

> <Gold.PLP.ligand.clash>
0.0000

> <Gold.PLP.ligand.torsion>
0.1528

> <Gold.PLP.Chemscore.Hbond>
4.2480

> <Gold.PLP.Chemscore.CHOScore>
0.9616

> <Gold.PLP.Chemscore.Metal>
0.0000

> <Gold.Chemscore.Hbonds>
donor molecule, donor type, donor heavy atom, donor atom, acceptor molecule, acceptor atom, score
      L1  H     1    18       P1  7957  0.84
      L1  H     1    31       P1  7948  1.98
      P1  H  7989  7998       L1    14  0.45
      P1  H  7997  8008       L1    12  0.18

> <Gold.PLP.Chemscore.Internal.Correction>
0.0650

> <Gold.Rescore>
     Score         DG    S(hbond)    S(metal)    S(lipo)     H(rot)  DE(clash)    DE(int)     intcor
     12.18     -14.86       2.51        0.00      49.02       1.86       1.19       1.49       ----

> <Gold.Chemscore.Fitness>
12.1815

> <Gold.Chemscore.DG>
-14.8635

> <Gold.Chemscore.ZeroCoef>
-5.4800

> <Gold.Chemscore.Hbond>
2.5141

> <Gold.Chemscore.Metal>
0.0000

> <Gold.Chemscore.Lipo>
49.0203

> <Gold.Chemscore.Internal_Hbond>
0.0000

> <Gold.Chemscore.DEClash>
1.1933

> <Gold.Chemscore.DEInternal>
1.4887

> <Gold.Chemscore.Rot>
1.8551

> <Gold.Chemscore.Internal.Correction>
   9.000000E+99

> <Gold.Chemscore.Hbonds>
donor molecule, donor type, donor heavy atom, donor atom, acceptor molecule, acceptor atom, score
      L1  H     1    18       P1  7957  0.78
      L1  H     1    31       P1  7948  0.92
      P1  H  7989  7998       L1    14  0.02

> <Gold.Chemscore.Hbond.Weighted>
-8.3971

> <Gold.Chemscore.Metal.Weighted>
-0.0000

> <Gold.Chemscore.Lipo.Weighted>
-5.7354

> <Gold.Chemscore.Internal_Hbond.Weighted>
0.0000

> <Gold.Chemscore.DEClash.Weighted>
1.1933

> <Gold.Chemscore.DEInternal.Weighted>
1.4887

> <Gold.Chemscore.Rot.Weighted>
4.7489

> <Gold.Chemscore.Internal.Correction.Weighted>
   9.000000E+99

> <Gold.Protein.RotatedTorsions>
[ 6907 6896 6895 6894 ] final   -5.50 input  -60.11 | X-H torsion
[ 7974 7965 7964 7962 ] final -146.87 input  175.53 | X-H torsion
[ 8008 7997 7996 7995 ] final  -76.89 input   59.86 | X-H torsion
[ 10167 10162 10161 10158 ] final   94.57 input  -65.29 | X-H torsion
[ 10718 10713 10712 10709 ] final   88.42 input   66.30 | X-H torsion
[ 10763 10752 10751 10750 ] final  -60.48 input  -60.55 | X-H torsion
[ 11005 11000 10999 10996 ] final  109.56 input  -57.11 | X-H torsion

> <Gold.Protein.ActiveResidues>
 VAL166  LYS551  ARG553  GLY616  TRP617  ASP618  TYR619  PRO620  LYS621  CYS622 
 ASP623  PHE694  ASN695  SER759  ASP760  ASP761  ALA762  ILE779  LEU786  VAL792 
 PHE793  MET794  SER795  GLU796  ALA797  LYS798  CYS799  TRP800  GLU811  SER814 

> <Gold.Protein.RotatedAtoms>
  151.4805  135.1052  159.9776 H   0  0  0  0  0  0  0  0  0  0  0  0  # atno 6907 bound_to 6896
  152.4781  133.8183  159.7050 H   0  0  0  0  0  0  0  0  0  0  0  0  # atno 6908 bound_to 6896
  150.8833  133.7281  159.2952 H   0  0  0  0  0  0  0  0  0  0  0  0  # atno 6909 bound_to 6896
  144.8131  140.5401  143.5629 H   0  0  0  0  0  0  0  0  0  0  0  0  # atno 7974 bound_to 7965
  154.5546  140.0719  156.8723 H   0  0  0  0  0  0  0  0  0  0  0  0  # atno 8008 bound_to 7997
  155.2926  140.3379  155.4233 H   0  0  0  0  0  0  0  0  0  0  0  0  # atno 8009 bound_to 7997
  156.1991  140.1715  156.7922 H   0  0  0  0  0  0  0  0  0  0  0  0  # atno 8010 bound_to 7997
  139.8071  144.6789  150.9688 H   0  0  0  0  0  0  0  0  0  0  0  0  # atno 10167 bound_to 10162
  157.6949  131.0294  150.3271 H   0  0  0  0  0  0  0  0  0  0  0  0  # atno 10718 bound_to 10713
  154.2698  135.6292  153.5306 H   0  0  0  0  0  0  0  0  0  0  0  0  # atno 10763 bound_to 10752
  152.9882  135.5607  154.5613 H   0  0  0  0  0  0  0  0  0  0  0  0  # atno 10764 bound_to 10752
  154.5180  135.2881  155.1262 H   0  0  0  0  0  0  0  0  0  0  0  0  # atno 10765 bound_to 10752
  139.8864  134.9461  156.6144 H   0  0  0  0  0  0  0  0  0  0  0  0  # atno 11005 bound_to 11000
  145.5278  139.1475  143.3517 LP  0  0  0  0  0  0  0  0  0  0  0  0  # atno 17320 bound_to 7965
  146.2431  140.5418  142.8925 LP  0  0  0  0  0  0  0  0  0  0  0  0  # atno 17321 bound_to 7965
  140.7819  143.4222  151.0824 LP  0  0  0  0  0  0  0  0  0  0  0  0  # atno 17342 bound_to 10162
  139.7891  143.8245  152.3149 LP  0  0  0  0  0  0  0  0  0  0  0  0  # atno 17343 bound_to 10162
  156.3750  130.3870  149.7145 LP  0  0  0  0  0  0  0  0  0  0  0  0  # atno 17370 bound_to 10713
  156.4547  130.7923  151.2944 LP  0  0  0  0  0  0  0  0  0  0  0  0  # atno 17371 bound_to 10713
  140.7787  133.8678  155.8550 LP  0  0  0  0  0  0  0  0  0  0  0  0  # atno 17394 bound_to 11000
  140.9779  134.1444  157.4520 LP  0  0  0  0  0  0  0  0  0  0  0  0  # atno 17395 bound_to 11000

$$$$
