AV-unprocessed.smi:1273|AV-procd|sdf|5338|dock2
  -GOLD-   22720 4473D 1   1.00000     0.00000
 Structure written by MMmdl.
 40 41  0  0  0  0  0  0  0  0  1 V2000
  156.3996  135.4456  161.2798 C   0  0  0  0  0  0  0  0  0  0  0  0
  154.9582  135.5566  161.8025 C   0  0  2  0  0  0  0  0  0  0  0  0
  154.2262  136.7656  161.2035 C   0  0  0  0  0  0  0  0  0  0  0  0
  153.2897  136.5905  160.4246 O   0  0  0  0  0  0  0  0  0  0  0  0
  154.6914  137.9725  161.5774 N   0  0  0  0  0  0  0  0  0  0  0  0
  154.2338  139.2604  161.1895 C   0  0  0  0  0  0  0  0  0  0  0  0
  153.4088  139.3527  160.0522 C   0  0  0  0  0  0  0  0  0  0  0  0
  152.9547  140.6166  159.6303 C   0  0  0  0  0  0  0  0  0  0  0  0
  153.3430  141.7669  160.3568 C   0  0  0  0  0  0  0  0  0  0  0  0
  152.8986  143.0460  159.9557 N   0  0  0  0  0  0  0  0  0  0  0  0
  152.0857  143.8158  160.8962 C   0  0  0  0  0  0  0  0  0  0  0  0
  151.9455  145.2709  160.4189 C   0  0  0  0  0  0  0  0  0  0  0  0
  151.4228  145.2931  159.0950 O   0  0  0  0  0  0  0  0  0  0  0  0
  152.2867  144.6345  158.1750 C   0  0  0  0  0  0  0  0  0  0  0  0
  152.4426  143.1563  158.5719 C   0  0  0  0  0  0  0  0  0  0  0  0
  154.1540  141.6788  161.4396 N   0  0  0  0  0  0  0  0  0  0  0  0
  154.5862  140.4652  161.8421 C   0  0  0  0  0  0  0  0  0  0  0  0
  154.9649  135.6694  163.6535 S   0  0  0  0  0  0  0  0  0  0  0  0
  154.2666  134.0460  164.1753 C   0  0  0  0  0  0  0  0  0  0  0  0
  156.3654  135.7307  164.0995 O   0  0  0  0  0  0  0  0  0  0  0  0
  154.0292  136.7242  164.0732 O   0  0  0  0  0  0  0  0  0  0  0  0
  156.4253  135.4073  160.1901 H   0  0  0  0  0  0  0  0  0  0  0  0
  156.8770  134.5385  161.6506 H   0  0  0  0  0  0  0  0  0  0  0  0
  157.0091  136.2914  161.6003 H   0  0  0  0  0  0  0  0  0  0  0  0
  154.4229  134.6435  161.5392 H   0  0  0  0  0  0  0  0  0  0  0  0
  155.5124  137.9666  162.1650 H   0  0  0  0  0  0  0  0  0  0  0  0
  153.1241  138.4659  159.5047 H   0  0  0  0  0  0  0  0  0  0  0  0
  152.3318  140.6883  158.7514 H   0  0  0  0  0  0  0  0  0  0  0  0
  151.1008  143.3549  160.9835 H   0  0  0  0  0  0  0  0  0  0  0  0
  152.5406  143.8051  161.8876 H   0  0  0  0  0  0  0  0  0  0  0  0
  151.2704  145.8184  161.0767 H   0  0  0  0  0  0  0  0  0  0  0  0
  152.9076  145.7850  160.4507 H   0  0  0  0  0  0  0  0  0  0  0  0
  151.8625  144.7111  157.1737 H   0  0  0  0  0  0  0  0  0  0  0  0
  153.2565  145.1340  158.1485 H   0  0  0  0  0  0  0  0  0  0  0  0
  153.1308  142.6759  157.8782 H   0  0  0  0  0  0  0  0  0  0  0  0
  151.4856  142.6422  158.4758 H   0  0  0  0  0  0  0  0  0  0  0  0
  155.2460  140.4845  162.6952 H   0  0  0  0  0  0  0  0  0  0  0  0
  154.3080  133.9708  165.2618 H   0  0  0  0  0  0  0  0  0  0  0  0
  154.8499  133.2373  163.7356 H   0  0  0  0  0  0  0  0  0  0  0  0
  153.2281  133.9669  163.8542 H   0  0  0  0  0  0  0  0  0  0  0  0
  1  2  1  0  0  0  0
  1 22  1  0  0  0  0
  1 23  1  0  0  0  0
  1 24  1  0  0  0  0
  2  3  1  0  0  0  0
  2 18  1  0  0  0  0
  2 25  1  0  0  0  0
  3  4  2  0  0  0  0
  3  5  1  0  0  0  0
  5  6  1  0  0  0  0
  5 26  1  0  0  0  0
  6 17  1  0  0  0  0
  6  7  2  0  0  0  0
  7  8  1  0  0  0  0
  7 27  1  0  0  0  0
  8  9  2  0  0  0  0
  8 28  1  0  0  0  0
  9 10  1  0  0  0  0
  9 16  1  0  0  0  0
 10 15  1  0  0  0  0
 10 11  1  0  0  0  0
 11 12  1  0  0  0  0
 11 29  1  0  0  0  0
 11 30  1  0  0  0  0
 12 13  1  0  0  0  0
 12 31  1  0  0  0  0
 12 32  1  0  0  0  0
 13 14  1  0  0  0  0
 14 15  1  0  0  0  0
 14 33  1  0  0  0  0
 14 34  1  0  0  0  0
 15 35  1  0  0  0  0
 15 36  1  0  0  0  0
 16 17  2  0  0  0  0
 17 37  1  0  0  0  0
 18 19  1  0  0  0  0
 18 20  2  0  0  0  0
 18 21  2  0  0  0  0
 19 38  1  0  0  0  0
 19 39  1  0  0  0  0
 19 40  1  0  0  0  0
M  END
> <s_m_source_file>
AV-unprocessed.smi

> <i_m_source_file_index>
1273

> <i_lp_mmshare_version>
43012

> <i_f3d_flags>
0

> <s_epik_input>
W0NIM11TKD1PKSg9TylbQ0BIXShbQ0gzXSlDKD1PKVtOSF1jMVtjSF1bY0hdYyhuW2NIXTEpTjJbQ0gyXVtDSDJdT1tDSDJdW0NIMl0y

> <s_epik_cmdline>
J2VwaWtfcHl0aG9uJywgJy1waCcsICc3LjAnLCAnLXRuJywgJzgnLCAnLW1hJywgJzIwMCcsICctbWV0YWxfYmluZGluZycsICctaW1hZScsICc8aW5maWxlLm1hZT4nLCAnLW9tYWUnLCAnPG91dGZpbGUubWFlPic=

> <r_lp_tautomer_probability>
1

> <r_epik_Ionization_Penalty>
0.000253983

> <r_epik_Ionization_Penalty_Charging>
0

> <r_epik_Ionization_Penalty_Neutral>
0.000253983

> <r_epik_State_Penalty>
-0

> <r_epik_Charging_Adjusted_Penalty>
0

> <i_epik_Tot_Q>
0

> <i_epik_Tot_abs_Q>
0

> <r_epik_Metal_State_Penalty>
-0

> <b_epik_Metal_Only>
0

> <s_lp_Force_Field>
OPLS_2005

> <r_lp_Energy>
19.002

> <b_lp_Chiralities_Consistent>
1

> <s_lp_Variant>
AV-unprocessed.smi:1273-1

> <Gold.Version>
5.8.1

> <Gold.Id.Protein>
6NUR|6NUR_protein|mol2

> <Gold.PLP.Fitness>
43.3528

> <Gold.PLP.PLP>
-41.2944

> <Gold.PLP.part.hbond>
-1.8437

> <Gold.PLP.part.metal>
0.0000

> <Gold.PLP.part.buried>
-7.0607

> <Gold.PLP.part.nonpolar>
-32.1767

> <Gold.PLP.part.repulsive>
0.2422

> <Gold.PLP.ligand.clash>
0.0000

> <Gold.PLP.ligand.torsion>
0.6634

> <Gold.PLP.Chemscore.Hbond>
0.9588

> <Gold.PLP.Chemscore.CHOScore>
0.0000

> <Gold.PLP.Chemscore.Metal>
0.0000

> <Gold.Chemscore.Hbonds>
donor molecule, donor type, donor heavy atom, donor atom, acceptor molecule, acceptor atom, score
      P1  H  6896  6907       L1     4  1.00

> <Gold.PLP.Chemscore.Internal.Correction>
0.5090

> <Gold.Rescore>
     Score         DG    S(hbond)    S(metal)    S(lipo)     H(rot)  DE(clash)    DE(int)     intcor
     12.70     -15.73       0.98        0.00      93.78       1.56       0.12       2.92       ----

> <Gold.Chemscore.Fitness>
12.6958

> <Gold.Chemscore.DG>
-15.7333

> <Gold.Chemscore.ZeroCoef>
-5.4800

> <Gold.Chemscore.Hbond>
0.9822

> <Gold.Chemscore.Metal>
0.0000

> <Gold.Chemscore.Lipo>
93.7817

> <Gold.Chemscore.Internal_Hbond>
0.0000

> <Gold.Chemscore.DEClash>
0.1223

> <Gold.Chemscore.DEInternal>
2.9151

> <Gold.Chemscore.Rot>
1.5624

> <Gold.Chemscore.Internal.Correction>
   9.000000E+99

> <Gold.Chemscore.Hbonds>
donor molecule, donor type, donor heavy atom, donor atom, acceptor molecule, acceptor atom, score
      P1  H  6896  6907       L1     4  0.96

> <Gold.Chemscore.Hbond.Weighted>
-3.2805

> <Gold.Chemscore.Metal.Weighted>
-0.0000

> <Gold.Chemscore.Lipo.Weighted>
-10.9725

> <Gold.Chemscore.Internal_Hbond.Weighted>
0.0000

> <Gold.Chemscore.DEClash.Weighted>
0.1223

> <Gold.Chemscore.DEInternal.Weighted>
2.9151

> <Gold.Chemscore.Rot.Weighted>
3.9996

> <Gold.Chemscore.Internal.Correction.Weighted>
   9.000000E+99

> <Gold.Protein.RotatedTorsions>
[ 6907 6896 6895 6894 ] final   38.85 input  -60.11 | X-H torsion
[ 7974 7965 7964 7962 ] final  -31.87 input  175.53 | X-H torsion
[ 8008 7997 7996 7995 ] final  -39.42 input   59.86 | X-H torsion
[ 10167 10162 10161 10158 ] final  126.30 input  -65.29 | X-H torsion
[ 10718 10713 10712 10709 ] final  148.48 input   66.30 | X-H torsion
[ 10763 10752 10751 10750 ] final  -65.16 input  -60.55 | X-H torsion
[ 11005 11000 10999 10996 ] final -126.74 input  -57.11 | X-H torsion

> <Gold.Protein.ActiveResidues>
 VAL166  LYS551  ARG553  GLY616  TRP617  ASP618  TYR619  PRO620  LYS621  CYS622 
 ASP623  PHE694  ASN695  SER759  ASP760  ASP761  ALA762  ILE779  LEU786  VAL792 
 PHE793  MET794  SER795  GLU796  ALA797  LYS798  CYS799  TRP800  GLU811  SER814 

> <Gold.Protein.RotatedAtoms>
  152.1619  134.8905  160.0540 H   0  0  0  0  0  0  0  0  0  0  0  0  # atno 6907 bound_to 6896
  151.9898  133.3782  159.4148 H   0  0  0  0  0  0  0  0  0  0  0  0  # atno 6908 bound_to 6896
  150.6889  134.3871  159.5104 H   0  0  0  0  0  0  0  0  0  0  0  0  # atno 6909 bound_to 6896
  146.1034  140.5721  142.8810 H   0  0  0  0  0  0  0  0  0  0  0  0  # atno 7974 bound_to 7965
  154.4023  140.1552  156.2860 H   0  0  0  0  0  0  0  0  0  0  0  0  # atno 8008 bound_to 7997
  155.8828  140.3443  155.5878 H   0  0  0  0  0  0  0  0  0  0  0  0  # atno 8009 bound_to 7997
  155.7648  140.0822  157.2128 H   0  0  0  0  0  0  0  0  0  0  0  0  # atno 8010 bound_to 7997
  139.5639  144.6899  151.3966 H   0  0  0  0  0  0  0  0  0  0  0  0  # atno 10167 bound_to 10162
  157.3081  131.0883  151.1338 H   0  0  0  0  0  0  0  0  0  0  0  0  # atno 10718 bound_to 10713
  154.3409  135.6157  153.5596 H   0  0  0  0  0  0  0  0  0  0  0  0  # atno 10763 bound_to 10752
  152.9804  135.5769  154.4854 H   0  0  0  0  0  0  0  0  0  0  0  0  # atno 10764 bound_to 10752
  154.4558  135.2854  155.1726 H   0  0  0  0  0  0  0  0  0  0  0  0  # atno 10765 bound_to 10752
  140.9656  134.0876  157.3923 H   0  0  0  0  0  0  0  0  0  0  0  0  # atno 11005 bound_to 11000
  144.7451  140.5046  143.6841 LP  0  0  0  0  0  0  0  0  0  0  0  0  # atno 17320 bound_to 7965
  145.5809  139.1489  143.3236 LP  0  0  0  0  0  0  0  0  0  0  0  0  # atno 17321 bound_to 7965
  140.6921  143.7837  150.7270 LP  0  0  0  0  0  0  0  0  0  0  0  0  # atno 17342 bound_to 10162
  140.1323  143.4515  152.2247 LP  0  0  0  0  0  0  0  0  0  0  0  0  # atno 17343 bound_to 10162
  157.2670  130.6686  149.6001 LP  0  0  0  0  0  0  0  0  0  0  0  0  # atno 17370 bound_to 10713
  155.9676  130.4491  150.5644 LP  0  0  0  0  0  0  0  0  0  0  0  0  # atno 17371 bound_to 10713
  139.8893  135.0104  156.6673 LP  0  0  0  0  0  0  0  0  0  0  0  0  # atno 17394 bound_to 11000
  140.7403  133.8983  155.8273 LP  0  0  0  0  0  0  0  0  0  0  0  0  # atno 17395 bound_to 11000

$$$$
