AV-unprocessed.smi:527|AV-procd|sdf|2827|dock3
  -GOLD-   2262023313D 1   1.00000     0.00000
 Structure written by MMmdl.
 43 44  0  0  0  0  0  0  0  0  2 V2000
  151.5500  139.1109  156.9724 C   0  0  0  0  0  0  0  0  0  0  0  0
  151.4262  139.8556  155.6271 C   0  0  2  0  0  0  0  0  0  0  0  0
  150.8452  141.2724  155.8124 C   0  0  0  0  0  0  0  0  0  0  0  0
  149.3425  141.2477  156.1326 C   0  0  0  0  0  0  0  0  0  0  0  0
  148.5585  140.4768  155.0617 C   0  0  0  0  0  0  0  0  0  0  0  0
  149.1110  139.0505  154.8588 C   0  0  1  0  0  0  0  0  0  0  0  0
  148.3787  138.3895  153.7800 N   0  0  0  0  0  0  0  0  0  0  0  0
  147.0492  138.2184  153.7340 C   0  0  0  0  0  0  0  0  0  0  0  0
  146.2695  138.7468  154.5295 O   0  0  0  0  0  0  0  0  0  0  0  0
  146.7025  137.4053  152.7174 N   0  0  0  0  0  0  0  0  0  0  0  0
  145.4616  137.0105  152.3672 C   0  0  0  0  0  0  0  0  0  0  0  0
  144.4235  137.3478  152.9427 O   0  0  0  0  0  0  0  0  0  0  0  0
  145.4048  136.0697  151.1567 C   0  0  0  0  0  0  0  0  0  0  0  0
  144.7101  134.8073  151.4397 N   0  0  0  0  0  0  0  0  0  0  0  0
  144.5033  133.7602  150.5777 C   0  0  0  0  0  0  0  0  0  0  0  0
  143.8072  132.8090  151.2782 C   0  0  0  0  0  0  0  0  0  0  0  0
  143.6171  133.3153  152.5362 N   0  3  0  0  0  0  0  0  0  0  0  0
  144.1663  134.5305  152.6326 C   0  0  0  0  0  0  0  0  0  0  0  0
  150.6291  139.0813  154.5433 C   0  0  2  0  0  0  0  0  0  0  0  0
  151.2167  137.6826  154.2687 C   0  0  0  0  0  0  0  0  0  0  0  0
  150.5783  138.8841  157.4098 H   0  0  0  0  0  0  0  0  0  0  0  0
  152.1029  139.7089  157.6970 H   0  0  0  0  0  0  0  0  0  0  0  0
  152.0898  138.1708  156.8614 H   0  0  0  0  0  0  0  0  0  0  0  0
  152.4438  139.9810  155.2550 H   0  0  0  0  0  0  0  0  0  0  0  0
  151.3844  141.8038  156.5974 H   0  0  0  0  0  0  0  0  0  0  0  0
  151.0031  141.8465  154.8983 H   0  0  0  0  0  0  0  0  0  0  0  0
  149.1747  140.7937  157.1096 H   0  0  0  0  0  0  0  0  0  0  0  0
  148.9644  142.2679  156.2020 H   0  0  0  0  0  0  0  0  0  0  0  0
  147.5052  140.4374  155.3421 H   0  0  0  0  0  0  0  0  0  0  0  0
  148.6045  141.0258  154.1200 H   0  0  0  0  0  0  0  0  0  0  0  0
  148.9630  138.4824  155.7788 H   0  0  0  0  0  0  0  0  0  0  0  0
  148.9322  138.0280  153.0172 H   0  0  0  0  0  0  0  0  0  0  0  0
  147.4601  137.0494  152.1536 H   0  0  0  0  0  0  0  0  0  0  0  0
  144.8867  136.5602  150.3314 H   0  0  0  0  0  0  0  0  0  0  0  0
  146.4160  135.8389  150.8189 H   0  0  0  0  0  0  0  0  0  0  0  0
  144.8554  133.7703  149.5562 H   0  0  0  0  0  0  0  0  0  0  0  0
  143.4416  131.8363  150.9830 H   0  0  0  0  0  0  0  0  0  0  0  0
  144.1659  135.1646  153.5013 H   0  0  0  0  0  0  0  0  0  0  0  0
  150.7494  139.6447  153.6162 H   0  0  0  0  0  0  0  0  0  0  0  0
  151.0290  136.9980  155.0959 H   0  0  0  0  0  0  0  0  0  0  0  0
  152.2947  137.7334  154.1130 H   0  0  0  0  0  0  0  0  0  0  0  0
  150.7851  137.2365  153.3725 H   0  0  0  0  0  0  0  0  0  0  0  0
  143.1286  132.8419  153.2861 H   0  0  0  0  0  0  0  0  0  0  0  0
  1  2  1  0  0  0  0
  1 21  1  0  0  0  0
  1 22  1  0  0  0  0
  1 23  1  0  0  0  0
  2 19  1  0  0  0  0
  2  3  1  0  0  0  0
  2 24  1  0  0  0  0
  3  4  1  0  0  0  0
  3 25  1  0  0  0  0
  3 26  1  0  0  0  0
  4  5  1  0  0  0  0
  4 27  1  0  0  0  0
  4 28  1  0  0  0  0
  5  6  1  0  0  0  0
  5 29  1  0  0  0  0
  5 30  1  0  0  0  0
  6  7  1  0  0  0  0
  6 19  1  0  0  0  0
  6 31  1  0  0  0  0
  7  8  1  0  0  0  0
  7 32  1  0  0  0  0
  8  9  2  0  0  0  0
  8 10  1  0  0  0  0
 10 11  1  0  0  0  0
 10 33  1  0  0  0  0
 11 12  2  0  0  0  0
 11 13  1  0  0  0  0
 13 14  1  0  0  0  0
 13 34  1  0  0  0  0
 13 35  1  0  0  0  0
 14 18  1  0  0  0  0
 14 15  1  0  0  0  0
 15 16  2  0  0  0  0
 15 36  1  0  0  0  0
 16 17  1  0  0  0  0
 16 37  1  0  0  0  0
 17 18  2  0  0  0  0
 17 43  1  0  0  0  0
 18 38  1  0  0  0  0
 19 20  1  0  0  0  0
 19 39  1  0  0  0  0
 20 40  1  0  0  0  0
 20 41  1  0  0  0  0
 20 42  1  0  0  0  0
M  CHG  1  17   1
M  END
> <s_m_source_file>
AV-unprocessed.smi

> <i_m_source_file_index>
527

> <i_lp_mmshare_version>
43012

> <i_f3d_flags>
0

> <s_epik_input>
W0NIM11bQ0BASF0xW0NIMl1bQ0gyXVtDSDJdW0NASF0oW0NASF0xW0NIM10pW05IXUMoPU8pW05IXUMoPU8pW0NIMl1uMltjSF1bY0hdbltjSF0y

> <s_epik_cmdline>
J2VwaWtfcHl0aG9uJywgJy1waCcsICc3LjAnLCAnLXRuJywgJzgnLCAnLW1hJywgJzIwMCcsICctbWV0YWxfYmluZGluZycsICctaW1hZScsICc8aW5maWxlLm1hZT4nLCAnLW9tYWUnLCAnPG91dGZpbGUubWFlPic=

> <r_lp_tautomer_probability>
1

> <r_epik_Ionization_Penalty>
0.816441

> <r_epik_Ionization_Penalty_Charging>
0

> <r_epik_Ionization_Penalty_Neutral>
0.816441

> <r_epik_State_Penalty>
0.849034

> <r_epik_Charging_Adjusted_Penalty>
0.849034

> <i_epik_Tot_Q>
1

> <i_epik_Tot_abs_Q>
1

> <r_epik_Metal_State_Penalty>
0.984327

> <b_epik_Metal_Only>
0

> <s_lp_Force_Field>
OPLS_2005

> <r_lp_Energy>
18.5197

> <b_lp_Chiralities_Consistent>
1

> <s_lp_Variant>
AV-unprocessed.smi:527-13

> <Gold.Version>
5.8.1

> <Gold.Id.Protein>
6NUR|6NUR_protein|mol2

> <Gold.PLP.Fitness>
49.0823

> <Gold.PLP.PLP>
-34.8604

> <Gold.PLP.part.hbond>
-3.0893

> <Gold.PLP.part.metal>
0.0000

> <Gold.PLP.part.buried>
-5.6949

> <Gold.PLP.part.nonpolar>
-28.1866

> <Gold.PLP.part.repulsive>
0.4007

> <Gold.PLP.ligand.clash>
0.0000

> <Gold.PLP.ligand.torsion>
0.0480

> <Gold.PLP.Chemscore.Hbond>
3.7680

> <Gold.PLP.Chemscore.CHOScore>
1.0000

> <Gold.PLP.Chemscore.Metal>
0.0000

> <Gold.Chemscore.Hbonds>
donor molecule, donor type, donor heavy atom, donor atom, acceptor molecule, acceptor atom, score
      L1  H     7    32       P1  7948  0.59
      L1  H    10    33       P1  7948  1.00
      L1  H    17    43       P1 10957  2.00
      L1  C    15    36       P1  7921  1.00

> <Gold.PLP.Chemscore.Internal.Correction>
0.0138

> <Gold.Rescore>
     Score         DG    S(hbond)    S(metal)    S(lipo)     H(rot)  DE(clash)    DE(int)     intcor
     14.64     -18.81       2.80        0.00      71.33       1.71       0.08       4.09       ----

> <Gold.Chemscore.Fitness>
14.6390

> <Gold.Chemscore.DG>
-18.8073

> <Gold.Chemscore.ZeroCoef>
-5.4800

> <Gold.Chemscore.Hbond>
2.7985

> <Gold.Chemscore.Metal>
0.0000

> <Gold.Chemscore.Lipo>
71.3299

> <Gold.Chemscore.Internal_Hbond>
0.0000

> <Gold.Chemscore.DEClash>
0.0797

> <Gold.Chemscore.DEInternal>
4.0886

> <Gold.Chemscore.Rot>
1.7052

> <Gold.Chemscore.Internal.Correction>
   9.000000E+99

> <Gold.Chemscore.Hbonds>
donor molecule, donor type, donor heavy atom, donor atom, acceptor molecule, acceptor atom, score
      L1  H     7    32       P1  7948  0.58
      L1  H    10    33       P1  7948  0.99
      L1  H    17    43       P1 10957  0.60

> <Gold.Chemscore.Hbond.Weighted>
-9.3470

> <Gold.Chemscore.Metal.Weighted>
-0.0000

> <Gold.Chemscore.Lipo.Weighted>
-8.3456

> <Gold.Chemscore.Internal_Hbond.Weighted>
0.0000

> <Gold.Chemscore.DEClash.Weighted>
0.0797

> <Gold.Chemscore.DEInternal.Weighted>
4.0886

> <Gold.Chemscore.Rot.Weighted>
4.3653

> <Gold.Chemscore.Internal.Correction.Weighted>
   9.000000E+99

> <Gold.Protein.RotatedTorsions>
[ 6907 6896 6895 6894 ] final  100.90 input  -60.11 | X-H torsion
[ 7974 7965 7964 7962 ] final  -45.46 input  175.53 | X-H torsion
[ 8008 7997 7996 7995 ] final -135.28 input   59.86 | X-H torsion
[ 10167 10162 10161 10158 ] final   27.52 input  -65.29 | X-H torsion
[ 10718 10713 10712 10709 ] final -129.22 input   66.30 | X-H torsion
[ 10763 10752 10751 10750 ] final   12.19 input  -60.55 | X-H torsion
[ 11005 11000 10999 10996 ] final  -43.50 input  -57.11 | X-H torsion

> <Gold.Protein.ActiveResidues>
 VAL166  LYS551  ARG553  GLY616  TRP617  ASP618  TYR619  PRO620  LYS621  CYS622 
 ASP623  PHE694  ASN695  SER759  ASP760  ASP761  ALA762  ILE779  LEU786  VAL792 
 PHE793  MET794  SER795  GLU796  ALA797  LYS798  CYS799  TRP800  GLU811  SER814 

> <Gold.Protein.RotatedAtoms>
  152.5362  134.0207  159.7979 H   0  0  0  0  0  0  0  0  0  0  0  0  # atno 6907 bound_to 6896
  151.0393  133.5712  159.2660 H   0  0  0  0  0  0  0  0  0  0  0  0  # atno 6908 bound_to 6896
  151.2688  135.0685  159.9179 H   0  0  0  0  0  0  0  0  0  0  0  0  # atno 6909 bound_to 6896
  145.9818  140.7276  142.9360 H   0  0  0  0  0  0  0  0  0  0  0  0  # atno 7974 bound_to 7965
  155.3761  140.0491  157.3044 H   0  0  0  0  0  0  0  0  0  0  0  0  # atno 8008 bound_to 7997
  154.5106  140.2190  155.9127 H   0  0  0  0  0  0  0  0  0  0  0  0  # atno 8009 bound_to 7997
  156.1578  140.3123  155.8760 H   0  0  0  0  0  0  0  0  0  0  0  0  # atno 8010 bound_to 7997
  140.4931  144.0435  150.6304 H   0  0  0  0  0  0  0  0  0  0  0  0  # atno 10167 bound_to 10162
  156.2026  130.6867  151.0557 H   0  0  0  0  0  0  0  0  0  0  0  0  # atno 10718 bound_to 10713
  153.1848  135.6833  153.8430 H   0  0  0  0  0  0  0  0  0  0  0  0  # atno 10763 bound_to 10752
  153.7750  135.3190  155.3358 H   0  0  0  0  0  0  0  0  0  0  0  0  # atno 10764 bound_to 10752
  154.8081  135.4735  154.0542 H   0  0  0  0  0  0  0  0  0  0  0  0  # atno 10765 bound_to 10752
  141.0388  133.6789  156.2741 H   0  0  0  0  0  0  0  0  0  0  0  0  # atno 11005 bound_to 11000
  144.6863  140.2921  143.7276 LP  0  0  0  0  0  0  0  0  0  0  0  0  # atno 17320 bound_to 7965
  145.7759  139.1873  143.2186 LP  0  0  0  0  0  0  0  0  0  0  0  0  # atno 17321 bound_to 7965
  140.3710  143.2855  152.0278 LP  0  0  0  0  0  0  0  0  0  0  0  0  # atno 17342 bound_to 10162
  139.4855  144.6230  151.7219 LP  0  0  0  0  0  0  0  0  0  0  0  0  # atno 17343 bound_to 10162
  157.6994  131.0781  150.6867 LP  0  0  0  0  0  0  0  0  0  0  0  0  # atno 17370 bound_to 10713
  156.6925  130.4599  149.5596 LP  0  0  0  0  0  0  0  0  0  0  0  0  # atno 17371 bound_to 10713
  140.6273  134.5300  157.5555 LP  0  0  0  0  0  0  0  0  0  0  0  0  # atno 17394 bound_to 11000
  139.9260  134.8055  156.1068 LP  0  0  0  0  0  0  0  0  0  0  0  0  # atno 17395 bound_to 11000

$$$$
