AV-unprocessed.smi:2449|AV-procd|sdf|9663|dock3
  -GOLD-   2272013303D 1   1.00000     0.00000
 Structure written by MMmdl.
 37 37  0  0  0  0  0  0  0  0  1 V2000
  153.4005  142.1912  161.3504 C   0  0  0  0  0  0  0  0  0  0  0  0
  152.3625  142.7974  160.4003 C   0  0  0  0  0  0  0  0  0  0  0  0
  153.0101  143.6663  159.3025 C   0  0  0  0  0  0  0  0  0  0  0  0
  152.0322  144.3031  158.2750 C   0  0  0  0  0  0  0  0  0  0  0  0
  150.8905  145.0348  159.0078 C   0  0  0  0  0  0  0  0  0  0  0  0
  152.7841  145.3383  157.4101 C   0  0  0  0  0  0  0  0  0  0  0  0
  151.4089  143.2863  157.4175 N   0  0  0  0  0  0  0  0  0  0  0  0
  150.5277  142.3302  157.7615 C   0  0  0  0  0  0  0  0  0  0  0  0
  150.1322  142.1447  158.9127 O   0  0  0  0  0  0  0  0  0  0  0  0
  150.0255  141.4379  156.6180 C   0  0  0  0  0  0  0  0  0  0  0  0
  150.7575  140.1658  156.5312 N   0  0  0  0  0  0  0  0  0  0  0  0
  151.3151  139.5968  157.6673 C   0  0  0  0  0  0  0  0  0  0  0  0
  151.9890  138.4221  157.6586 C   0  0  0  0  0  0  0  0  0  0  0  0
  152.1631  137.6792  156.4151 C   0  0  0  0  0  0  0  0  0  0  0  0
  152.7576  136.6094  156.3052 O   0  0  0  0  0  0  0  0  0  0  0  0
  151.5861  138.2831  155.2946 N   0  0  0  0  0  0  0  0  0  0  0  0
  150.8904  139.4928  155.2965 C   0  0  0  0  0  0  0  0  0  0  0  0
  150.4180  139.9362  154.2502 O   0  0  0  0  0  0  0  0  0  0  0  0
  151.6784  137.8031  154.4110 H   0  0  0  0  0  0  0  0  0  0  0  0
  152.9166  141.5864  162.1177 H   0  0  0  0  0  0  0  0  0  0  0  0
  153.9766  142.9688  161.8526 H   0  0  0  0  0  0  0  0  0  0  0  0
  154.0988  141.5494  160.8125 H   0  0  0  0  0  0  0  0  0  0  0  0
  151.7867  141.9871  159.9530 H   0  0  0  0  0  0  0  0  0  0  0  0
  151.6591  143.3905  160.9838 H   0  0  0  0  0  0  0  0  0  0  0  0
  153.5882  144.4593  159.7792 H   0  0  0  0  0  0  0  0  0  0  0  0
  153.7458  143.0587  158.7748 H   0  0  0  0  0  0  0  0  0  0  0  0
  151.2778  145.7844  159.6989 H   0  0  0  0  0  0  0  0  0  0  0  0
  150.2668  144.3492  159.5815 H   0  0  0  0  0  0  0  0  0  0  0  0
  150.2350  145.5488  158.3037 H   0  0  0  0  0  0  0  0  0  0  0  0
  153.1703  146.1540  158.0226 H   0  0  0  0  0  0  0  0  0  0  0  0
  152.1300  145.7779  156.6562 H   0  0  0  0  0  0  0  0  0  0  0  0
  153.6363  144.9004  156.8904 H   0  0  0  0  0  0  0  0  0  0  0  0
  151.6620  143.3318  156.4411 H   0  0  0  0  0  0  0  0  0  0  0  0
  148.9569  141.2435  156.7314 H   0  0  0  0  0  0  0  0  0  0  0  0
  150.1202  141.9985  155.6871 H   0  0  0  0  0  0  0  0  0  0  0  0
  151.2071  140.1093  158.6126 H   0  0  0  0  0  0  0  0  0  0  0  0
  152.4003  138.0293  158.5772 H   0  0  0  0  0  0  0  0  0  0  0  0
  1  2  1  0  0  0  0
  1 20  1  0  0  0  0
  1 21  1  0  0  0  0
  1 22  1  0  0  0  0
  2  3  1  0  0  0  0
  2 23  1  0  0  0  0
  2 24  1  0  0  0  0
  3  4  1  0  0  0  0
  3 25  1  0  0  0  0
  3 26  1  0  0  0  0
  4  5  1  0  0  0  0
  4  6  1  0  0  0  0
  4  7  1  0  0  0  0
  5 27  1  0  0  0  0
  5 28  1  0  0  0  0
  5 29  1  0  0  0  0
  6 30  1  0  0  0  0
  6 31  1  0  0  0  0
  6 32  1  0  0  0  0
  7  8  1  0  0  0  0
  7 33  1  0  0  0  0
  8  9  2  0  0  0  0
  8 10  1  0  0  0  0
 10 11  1  0  0  0  0
 10 34  1  0  0  0  0
 10 35  1  0  0  0  0
 11 17  1  0  0  0  0
 11 12  1  0  0  0  0
 12 13  2  0  0  0  0
 12 36  1  0  0  0  0
 13 14  1  0  0  0  0
 13 37  1  0  0  0  0
 14 15  2  0  0  0  0
 14 16  1  0  0  0  0
 16 19  1  0  0  0  0
 16 17  1  0  0  0  0
 17 18  2  0  0  0  0
M  END
> <s_m_source_file>
AV-unprocessed.smi

> <i_m_source_file_index>
2449

> <i_lp_mmshare_version>
43012

> <i_f3d_flags>
0

> <s_epik_input>
W0NIM11bQ0gyXVtDSDJdQyhbQ0gzXSkoW0NIM10pW05IXUMoPU8pW0NIMl1uMVtjSF1bY0hdYyg9TylbbkhdYzE9Tw==

> <s_epik_cmdline>
J2VwaWtfcHl0aG9uJywgJy1waCcsICc3LjAnLCAnLXRuJywgJzgnLCAnLW1hJywgJzIwMCcsICctbWV0YWxfYmluZGluZycsICctaW1hZScsICc8aW5maWxlLm1hZT4nLCAnLW9tYWUnLCAnPG91dGZpbGUubWFlPic=

> <r_lp_tautomer_probability>
0.999537

> <r_epik_Ionization_Penalty>
0.00292856

> <r_epik_Ionization_Penalty_Charging>
0.00292854

> <r_epik_Ionization_Penalty_Neutral>
1.95902e-08

> <r_epik_State_Penalty>
0.00205284

> <r_epik_Charging_Adjusted_Penalty>
0.00498138

> <i_epik_Tot_Q>
0

> <i_epik_Tot_abs_Q>
0

> <r_epik_Metal_State_Penalty>
0.360056

> <b_epik_Metal_Only>
0

> <s_lp_Force_Field>
OPLS_2005

> <r_lp_Energy>
5.67084

> <b_lp_Chiralities_Consistent>
1

> <s_lp_Variant>
AV-unprocessed.smi:2449-1

> <Gold.Version>
5.8.1

> <Gold.Id.Protein>
6NUR|6NUR_protein|mol2

> <Gold.PLP.Fitness>
40.4247

> <Gold.PLP.PLP>
-36.0974

> <Gold.PLP.part.hbond>
-2.9051

> <Gold.PLP.part.metal>
0.0000

> <Gold.PLP.part.buried>
-6.2276

> <Gold.PLP.part.nonpolar>
-28.0026

> <Gold.PLP.part.repulsive>
0.3235

> <Gold.PLP.ligand.clash>
0.0000

> <Gold.PLP.ligand.torsion>
0.8548

> <Gold.PLP.Chemscore.Hbond>
2.0000

> <Gold.PLP.Chemscore.CHOScore>
0.0000

> <Gold.PLP.Chemscore.Metal>
0.0000

> <Gold.Chemscore.Hbonds>
donor molecule, donor type, donor heavy atom, donor atom, acceptor molecule, acceptor atom, score
      P1  H  7989  7998       L1    18  1.00
      P1  H 10752 10765       L1    15  0.99

> <Gold.PLP.Chemscore.Internal.Correction>
0.0370

> <Gold.Rescore>
     Score         DG    S(hbond)    S(metal)    S(lipo)     H(rot)  DE(clash)    DE(int)     intcor
     13.88     -17.37       1.99        0.00      91.74       2.14       1.07       2.43       ----

> <Gold.Chemscore.Fitness>
13.8766

> <Gold.Chemscore.DG>
-17.3685

> <Gold.Chemscore.ZeroCoef>
-5.4800

> <Gold.Chemscore.Hbond>
1.9858

> <Gold.Chemscore.Metal>
0.0000

> <Gold.Chemscore.Lipo>
91.7410

> <Gold.Chemscore.Internal_Hbond>
0.0000

> <Gold.Chemscore.DEClash>
1.0655

> <Gold.Chemscore.DEInternal>
2.4264

> <Gold.Chemscore.Rot>
2.1397

> <Gold.Chemscore.Internal.Correction>
   9.000000E+99

> <Gold.Chemscore.Hbonds>
donor molecule, donor type, donor heavy atom, donor atom, acceptor molecule, acceptor atom, score
      P1  H  7989  7998       L1    18  0.65
      P1  H 10752 10765       L1    15  0.94

> <Gold.Chemscore.Hbond.Weighted>
-6.6325

> <Gold.Chemscore.Metal.Weighted>
-0.0000

> <Gold.Chemscore.Lipo.Weighted>
-10.7337

> <Gold.Chemscore.Internal_Hbond.Weighted>
0.0000

> <Gold.Chemscore.DEClash.Weighted>
1.0655

> <Gold.Chemscore.DEInternal.Weighted>
2.4264

> <Gold.Chemscore.Rot.Weighted>
5.4777

> <Gold.Chemscore.Internal.Correction.Weighted>
   9.000000E+99

> <Gold.Protein.RotatedTorsions>
[ 6907 6896 6895 6894 ] final  -16.24 input  -60.11 | X-H torsion
[ 7974 7965 7964 7962 ] final -126.77 input  175.53 | X-H torsion
[ 8008 7997 7996 7995 ] final   13.64 input   59.86 | X-H torsion
[ 10167 10162 10161 10158 ] final  -45.96 input  -65.29 | X-H torsion
[ 10718 10713 10712 10709 ] final  -88.76 input   66.30 | X-H torsion
[ 10763 10752 10751 10750 ] final -133.57 input  -60.55 | X-H torsion
[ 11005 11000 10999 10996 ] final  112.21 input  -57.11 | X-H torsion

> <Gold.Protein.ActiveResidues>
 VAL166  LYS551  ARG553  GLY616  TRP617  ASP618  TYR619  PRO620  LYS621  CYS622 
 ASP623  PHE694  ASN695  SER759  ASP760  ASP761  ALA762  ILE779  LEU786  VAL792 
 PHE793  MET794  SER795  GLU796  ALA797  LYS798  CYS799  TRP800  GLU811  SER814 

> <Gold.Protein.RotatedAtoms>
  151.3116  135.0795  159.9273 H   0  0  0  0  0  0  0  0  0  0  0  0  # atno 6907 bound_to 6896
  152.5276  133.9730  159.7781 H   0  0  0  0  0  0  0  0  0  0  0  0  # atno 6908 bound_to 6896
  151.0035  133.5981  159.2722 H   0  0  0  0  0  0  0  0  0  0  0  0  # atno 6909 bound_to 6896
  144.9839  140.7667  143.4595 H   0  0  0  0  0  0  0  0  0  0  0  0  # atno 7974 bound_to 7965
  154.8373  140.2909  155.5682 H   0  0  0  0  0  0  0  0  0  0  0  0  # atno 8008 bound_to 7997
  156.3009  140.2520  156.3240 H   0  0  0  0  0  0  0  0  0  0  0  0  # atno 8009 bound_to 7997
  154.9164  140.0387  157.1964 H   0  0  0  0  0  0  0  0  0  0  0  0  # atno 8010 bound_to 7997
  140.6837  143.2854  151.3713 H   0  0  0  0  0  0  0  0  0  0  0  0  # atno 10167 bound_to 10162
  155.9983  130.4847  150.5068 H   0  0  0  0  0  0  0  0  0  0  0  0  # atno 10718 bound_to 10713
  154.8731  135.3762  154.4594 H   0  0  0  0  0  0  0  0  0  0  0  0  # atno 10763 bound_to 10752
  153.5263  135.7028  153.5710 H   0  0  0  0  0  0  0  0  0  0  0  0  # atno 10764 bound_to 10752
  153.3935  135.3966  155.1904 H   0  0  0  0  0  0  0  0  0  0  0  0  # atno 10765 bound_to 10752
  139.8922  134.9525  156.6551 H   0  0  0  0  0  0  0  0  0  0  0  0  # atno 11005 bound_to 11000
  145.2381  139.2084  143.5007 LP  0  0  0  0  0  0  0  0  0  0  0  0  # atno 17320 bound_to 7965
  146.3415  140.2271  142.8592 LP  0  0  0  0  0  0  0  0  0  0  0  0  # atno 17321 bound_to 7965
  139.6179  144.0967  152.2363 LP  0  0  0  0  0  0  0  0  0  0  0  0  # atno 17342 bound_to 10162
  140.0401  144.6014  150.7418 LP  0  0  0  0  0  0  0  0  0  0  0  0  # atno 17343 bound_to 10162
  157.3046  131.0652  151.2044 LP  0  0  0  0  0  0  0  0  0  0  0  0  # atno 17370 bound_to 10713
  157.3011  130.6843  149.6165 LP  0  0  0  0  0  0  0  0  0  0  0  0  # atno 17371 bound_to 10713
  140.7490  133.8913  155.8333 LP  0  0  0  0  0  0  0  0  0  0  0  0  # atno 17394 bound_to 11000
  141.0016  134.1143  157.4312 LP  0  0  0  0  0  0  0  0  0  0  0  0  # atno 17395 bound_to 11000

$$$$
