AV-unprocessed.smi:107|AV-procd|sdf|1016|dock6
  -GOLD-   2262018 13D 1   1.00000     0.00000
 Structure written by MMmdl.
 31 32  0  0  0  0  0  0  0  0  1 V2000
  152.2951  141.0907  159.3818 C   0  0  0  0  0  0  0  0  0  0  0  0
  152.3491  139.9028  158.4357 C   0  0  0  0  0  0  0  0  0  0  0  0
  151.8866  139.9664  157.1611 C   0  0  0  0  0  0  0  0  0  0  0  0
  151.9187  138.8995  156.2741 N   0  0  0  0  0  0  0  0  0  0  0  0
  151.3848  139.0465  154.8668 C   0  0  1  0  0  0  0  0  0  0  0  0
  150.3048  137.9983  154.5801 C   0  0  0  0  0  0  0  0  0  0  0  0
  149.0314  138.8218  154.6292 C   0  0  2  0  0  0  0  0  0  0  0  0
  148.0414  138.2759  153.7816 O   0  0  0  0  0  0  0  0  0  0  0  0
  149.5106  140.1970  154.1580 C   0  0  1  0  0  0  0  0  0  0  0  0
  148.6207  141.3549  154.6345 C   0  0  0  0  0  0  0  0  0  0  0  0
  149.0567  141.8097  155.8977 O   0  0  0  0  0  0  0  0  0  0  0  0
  150.8047  140.3104  154.7428 O   0  0  0  0  0  0  0  0  0  0  0  0
  152.4498  137.6635  156.6998 C   0  0  0  0  0  0  0  0  0  0  0  0
  152.4951  136.6660  155.9810 O   0  0  0  0  0  0  0  0  0  0  0  0
  152.9291  137.5989  158.0072 N   0  0  0  0  0  0  0  0  0  0  0  0
  152.9213  138.6476  158.9300 C   0  0  0  0  0  0  0  0  0  0  0  0
  153.3744  138.4666  160.0590 O   0  0  0  0  0  0  0  0  0  0  0  0
  153.3124  136.7170  158.3147 H   0  0  0  0  0  0  0  0  0  0  0  0
  151.8636  141.9700  158.9029 H   0  0  0  0  0  0  0  0  0  0  0  0
  153.2971  141.3535  159.7220 H   0  0  0  0  0  0  0  0  0  0  0  0
  151.6874  140.8540  160.2558 H   0  0  0  0  0  0  0  0  0  0  0  0
  151.4697  140.9026  156.8210 H   0  0  0  0  0  0  0  0  0  0  0  0
  152.2296  138.9861  154.1794 H   0  0  0  0  0  0  0  0  0  0  0  0
  150.4780  137.5976  153.5801 H   0  0  0  0  0  0  0  0  0  0  0  0
  150.3240  137.1754  155.2963 H   0  0  0  0  0  0  0  0  0  0  0  0
  148.6562  138.8715  155.6521 H   0  0  0  0  0  0  0  0  0  0  0  0
  148.3991  137.5144  153.3509 H   0  0  0  0  0  0  0  0  0  0  0  0
  149.6124  140.1957  153.0706 H   0  0  0  0  0  0  0  0  0  0  0  0
  148.6937  142.1943  153.9425 H   0  0  0  0  0  0  0  0  0  0  0  0
  147.5720  141.0589  154.6760 H   0  0  0  0  0  0  0  0  0  0  0  0
  149.0936  142.7538  155.8814 H   0  0  0  0  0  0  0  0  0  0  0  0
  1  2  1  0  0  0  0
  1 19  1  0  0  0  0
  1 20  1  0  0  0  0
  1 21  1  0  0  0  0
  2 16  1  0  0  0  0
  2  3  2  0  0  0  0
  3  4  1  0  0  0  0
  3 22  1  0  0  0  0
  4  5  1  0  0  0  0
  4 13  1  0  0  0  0
  5 12  1  0  0  0  0
  5  6  1  0  0  0  0
  5 23  1  0  0  0  0
  6  7  1  0  0  0  0
  6 24  1  0  0  0  0
  6 25  1  0  0  0  0
  7  8  1  0  0  0  0
  7  9  1  0  0  0  0
  7 26  1  0  0  0  0
  8 27  1  0  0  0  0
  9 10  1  0  0  0  0
  9 12  1  0  0  0  0
  9 28  1  0  0  0  0
 10 11  1  0  0  0  0
 10 29  1  0  0  0  0
 10 30  1  0  0  0  0
 11 31  1  0  0  0  0
 13 14  2  0  0  0  0
 13 15  1  0  0  0  0
 15 18  1  0  0  0  0
 15 16  1  0  0  0  0
 16 17  2  0  0  0  0
M  END
> <s_m_source_file>
AV-unprocessed.smi

> <i_m_source_file_index>
107

> <i_lp_mmshare_version>
43012

> <i_f3d_flags>
0

> <s_epik_input>
Tz1jMVtuSF1jKD1PKW4oW2NIXWMxW0NIM10pW0NAQEhdMltDSDJdW0NAQEhdKFtPSF0pW0NASF0oTzIpW0NIMl1bT0hd

> <s_epik_cmdline>
J2VwaWtfcHl0aG9uJywgJy1waCcsICc3LjAnLCAnLXRuJywgJzgnLCAnLW1hJywgJzIwMCcsICctbWV0YWxfYmluZGluZycsICctaW1hZScsICc8aW5maWxlLm1hZT4nLCAnLW9tYWUnLCAnPG91dGZpbGUubWFlPic=

> <r_lp_tautomer_probability>
0.999537

> <r_epik_Ionization_Penalty>
0.00121888

> <r_epik_Ionization_Penalty_Charging>
0.00121876

> <r_epik_Ionization_Penalty_Neutral>
1.19946e-07

> <r_epik_State_Penalty>
0.000805124

> <r_epik_Charging_Adjusted_Penalty>
0.00202389

> <i_epik_Tot_Q>
0

> <i_epik_Tot_abs_Q>
0

> <r_epik_Metal_State_Penalty>
0.662472

> <b_epik_Metal_Only>
0

> <s_epik_Chemistry_Notes>
This compound contains an acetal/aminal-like group ( X-CH(R)-Y where X, Y are N, S, or O) that may be acid/base labile, releasing an aldehyde.

> <s_lp_Force_Field>
OPLS_2005

> <r_lp_Energy>
24.9253

> <b_lp_Chiralities_Consistent>
1

> <s_lp_Variant>
AV-unprocessed.smi:107-4

> <Gold.Version>
5.8.1

> <Gold.Id.Protein>
6NUR|6NUR_protein|mol2

> <Gold.PLP.Fitness>
36.4655

> <Gold.PLP.PLP>
-25.3457

> <Gold.PLP.part.hbond>
-4.0000

> <Gold.PLP.part.metal>
0.0000

> <Gold.PLP.part.buried>
-1.8689

> <Gold.PLP.part.nonpolar>
-19.9275

> <Gold.PLP.part.repulsive>
0.2079

> <Gold.PLP.ligand.clash>
0.0000

> <Gold.PLP.ligand.torsion>
0.4326

> <Gold.PLP.Chemscore.Hbond>
3.9920

> <Gold.PLP.Chemscore.CHOScore>
0.0000

> <Gold.PLP.Chemscore.Metal>
0.0000

> <Gold.Chemscore.Hbonds>
donor molecule, donor type, donor heavy atom, donor atom, acceptor molecule, acceptor atom, score
      L1  H     8    27       P1  7948  0.99
      L1  H    11    31       P1  8028  1.00
      P1  H  7989  7998       L1    12  1.00
      P1  H 10752 10763       L1    14  0.98

> <Gold.PLP.Chemscore.Internal.Correction>
0.0089

> <Gold.Rescore>
     Score         DG    S(hbond)    S(metal)    S(lipo)     H(rot)  DE(clash)    DE(int)     intcor
     11.92     -14.05       3.07        0.00      45.14       2.73       0.40       1.74       ----

> <Gold.Chemscore.Fitness>
11.9156

> <Gold.Chemscore.DG>
-14.0537

> <Gold.Chemscore.ZeroCoef>
-5.4800

> <Gold.Chemscore.Hbond>
3.0747

> <Gold.Chemscore.Metal>
0.0000

> <Gold.Chemscore.Lipo>
45.1374

> <Gold.Chemscore.Internal_Hbond>
0.0000

> <Gold.Chemscore.DEClash>
0.3991

> <Gold.Chemscore.DEInternal>
1.7390

> <Gold.Chemscore.Rot>
2.7253

> <Gold.Chemscore.Internal.Correction>
   9.000000E+99

> <Gold.Chemscore.Hbonds>
donor molecule, donor type, donor heavy atom, donor atom, acceptor molecule, acceptor atom, score
      L1  H     8    27       P1  7948  0.92
      L1  H    11    31       P1  8028  0.97
      P1  H  7989  7998       L1    12  0.06
      P1  H 10752 10763       L1    14  0.93

> <Gold.Chemscore.Hbond.Weighted>
-10.2694

> <Gold.Chemscore.Metal.Weighted>
-0.0000

> <Gold.Chemscore.Lipo.Weighted>
-5.2811

> <Gold.Chemscore.Internal_Hbond.Weighted>
0.0000

> <Gold.Chemscore.DEClash.Weighted>
0.3991

> <Gold.Chemscore.DEInternal.Weighted>
1.7390

> <Gold.Chemscore.Rot.Weighted>
6.9769

> <Gold.Chemscore.Internal.Correction.Weighted>
   9.000000E+99

> <Gold.Protein.RotatedTorsions>
[ 6907 6896 6895 6894 ] final  138.85 input  -60.11 | X-H torsion
[ 7974 7965 7964 7962 ] final   16.92 input  175.53 | X-H torsion
[ 8008 7997 7996 7995 ] final  -61.37 input   59.86 | X-H torsion
[ 10167 10162 10161 10158 ] final   63.48 input  -65.29 | X-H torsion
[ 10718 10713 10712 10709 ] final  -97.32 input   66.30 | X-H torsion
[ 10763 10752 10751 10750 ] final   87.90 input  -60.55 | X-H torsion
[ 11005 11000 10999 10996 ] final   64.41 input  -57.11 | X-H torsion

> <Gold.Protein.ActiveResidues>
 VAL166  LYS551  ARG553  GLY616  TRP617  ASP618  TYR619  PRO620  LYS621  CYS622 
 ASP623  PHE694  ASN695  SER759  ASP760  ASP761  ALA762  ILE779  LEU786  VAL792 
 PHE793  MET794  SER795  GLU796  ALA797  LYS798  CYS799  TRP800  GLU811  SER814 

> <Gold.Protein.RotatedAtoms>
  152.2618  133.5304  159.5385 H   0  0  0  0  0  0  0  0  0  0  0  0  # atno 6907 bound_to 6896
  150.7128  134.0820  159.3910 H   0  0  0  0  0  0  0  0  0  0  0  0  # atno 6908 bound_to 6896
  151.8737  135.0480  160.0532 H   0  0  0  0  0  0  0  0  0  0  0  0  # atno 6909 bound_to 6896
  146.2235  139.8678  142.8593 H   0  0  0  0  0  0  0  0  0  0  0  0  # atno 7974 bound_to 7965
  154.4444  140.1019  156.6420 H   0  0  0  0  0  0  0  0  0  0  0  0  # atno 8008 bound_to 7997
  155.5491  140.3485  155.4446 H   0  0  0  0  0  0  0  0  0  0  0  0  # atno 8009 bound_to 7997
  156.0542  140.1311  157.0005 H   0  0  0  0  0  0  0  0  0  0  0  0  # atno 8010 bound_to 7997
  140.1326  144.4629  150.6856 H   0  0  0  0  0  0  0  0  0  0  0  0  # atno 10167 bound_to 10162
  156.0081  130.5189  150.6357 H   0  0  0  0  0  0  0  0  0  0  0  0  # atno 10718 bound_to 10713
  153.1714  135.4526  154.9907 H   0  0  0  0  0  0  0  0  0  0  0  0  # atno 10763 bound_to 10752
  154.7968  135.3241  154.7649 H   0  0  0  0  0  0  0  0  0  0  0  0  # atno 10764 bound_to 10752
  153.8124  135.6953  153.4893 H   0  0  0  0  0  0  0  0  0  0  0  0  # atno 10765 bound_to 10752
  139.9960  134.6516  156.0009 H   0  0  0  0  0  0  0  0  0  0  0  0  # atno 11005 bound_to 11000
  145.2639  141.0086  143.3810 LP  0  0  0  0  0  0  0  0  0  0  0  0  # atno 17320 bound_to 7965
  144.9277  139.4336  143.6510 LP  0  0  0  0  0  0  0  0  0  0  0  0  # atno 17321 bound_to 7965
  140.6808  143.2326  151.5389 LP  0  0  0  0  0  0  0  0  0  0  0  0  # atno 17342 bound_to 10162
  139.5512  144.2391  152.1533 LP  0  0  0  0  0  0  0  0  0  0  0  0  # atno 17343 bound_to 10162
  157.4147  131.0828  151.1188 LP  0  0  0  0  0  0  0  0  0  0  0  0  # atno 17370 bound_to 10713
  157.1809  130.6309  149.5671 LP  0  0  0  0  0  0  0  0  0  0  0  0  # atno 17371 bound_to 10713
  141.1605  133.6539  156.4302 LP  0  0  0  0  0  0  0  0  0  0  0  0  # atno 17394 bound_to 11000
  140.4817  134.6659  157.5173 LP  0  0  0  0  0  0  0  0  0  0  0  0  # atno 17395 bound_to 11000

$$$$
