AV-unprocessed.smi:1306|AV-procd|sdf|5434|dock5
  -GOLD-   22720 4593D 1   1.00000     0.00000
 Structure written by MMmdl.
 39 40  0  0  0  0  0  0  0  0  1 V2000
  146.3667  137.8666  154.2578 O   0  0  0  0  0  0  0  0  0  0  0  0
  145.9994  138.4255  153.2231 C   0  0  0  0  0  0  0  0  0  0  0  0
  146.8695  139.4997  152.5543 C   0  0  0  0  0  0  0  0  0  0  0  0
  147.8938  140.0565  153.4501 N   0  0  0  0  0  0  0  0  0  0  0  0
  148.9905  139.2909  153.8205 C   0  0  0  0  0  0  0  0  0  0  0  0
  149.9741  139.7419  154.6343 C   0  0  0  0  0  0  0  0  0  0  0  0
  149.9229  141.0960  155.1746 C   0  0  0  0  0  0  0  0  0  0  0  0
  150.7633  141.5943  155.9202 O   0  0  0  0  0  0  0  0  0  0  0  0
  148.8061  141.8360  154.7770 N   0  0  0  0  0  0  0  0  0  0  0  0
  147.7898  141.3782  153.9366 C   0  0  0  0  0  0  0  0  0  0  0  0
  146.8497  142.1161  153.6438 O   0  0  0  0  0  0  0  0  0  0  0  0
  144.8318  138.1570  152.6199 N   0  0  0  0  0  0  0  0  0  0  0  0
  143.8629  137.1622  153.0677 C   0  0  0  0  0  0  0  0  0  0  0  0
  144.4692  135.7505  153.1218 C   0  0  0  0  0  0  0  0  0  0  0  0
  145.6148  135.4468  151.7458 S   0  0  0  0  0  0  0  0  0  0  0  0
  145.4950  133.6398  151.6138 C   0  0  0  0  0  0  0  0  0  0  0  0
  146.4176  133.0709  150.5334 C   0  0  0  0  0  0  0  0  0  0  0  0
  145.7836  131.7400  150.1057 C   0  0  0  0  0  0  0  0  0  0  0  0
  144.3463  131.7467  150.6481 C   0  0  0  0  0  0  0  0  0  0  0  0
  144.1070  133.1567  151.1924 C   0  0  0  0  0  0  0  0  0  0  0  0
  148.7292  142.7806  155.1248 H   0  0  0  0  0  0  0  0  0  0  0  0
  147.3391  139.0857  151.6594 H   0  0  0  0  0  0  0  0  0  0  0  0
  146.2126  140.2923  152.1931 H   0  0  0  0  0  0  0  0  0  0  0  0
  149.0722  138.2824  153.4406 H   0  0  0  0  0  0  0  0  0  0  0  0
  150.8038  139.0973  154.8861 H   0  0  0  0  0  0  0  0  0  0  0  0
  144.6065  138.6635  151.7759 H   0  0  0  0  0  0  0  0  0  0  0  0
  143.4741  137.4408  154.0485 H   0  0  0  0  0  0  0  0  0  0  0  0
  143.0127  137.1763  152.3855 H   0  0  0  0  0  0  0  0  0  0  0  0
  144.9923  135.5937  154.0657 H   0  0  0  0  0  0  0  0  0  0  0  0
  143.6704  135.0102  153.0774 H   0  0  0  0  0  0  0  0  0  0  0  0
  145.7583  133.1947  152.5745 H   0  0  0  0  0  0  0  0  0  0  0  0
  146.4455  133.7451  149.6759 H   0  0  0  0  0  0  0  0  0  0  0  0
  147.4420  132.9496  150.8866 H   0  0  0  0  0  0  0  0  0  0  0  0
  145.7981  131.6394  149.0199 H   0  0  0  0  0  0  0  0  0  0  0  0
  146.3372  130.8956  150.5174 H   0  0  0  0  0  0  0  0  0  0  0  0
  143.6144  131.4741  149.8870 H   0  0  0  0  0  0  0  0  0  0  0  0
  144.2603  131.0220  151.4589 H   0  0  0  0  0  0  0  0  0  0  0  0
  143.3885  133.1672  152.0124 H   0  0  0  0  0  0  0  0  0  0  0  0
  143.7151  133.7931  150.3976 H   0  0  0  0  0  0  0  0  0  0  0  0
  1  2  2  0  0  0  0
  2  3  1  0  0  0  0
  2 12  1  0  0  0  0
  3  4  1  0  0  0  0
  3 22  1  0  0  0  0
  3 23  1  0  0  0  0
  4 10  1  0  0  0  0
  4  5  1  0  0  0  0
  5  6  2  0  0  0  0
  5 24  1  0  0  0  0
  6  7  1  0  0  0  0
  6 25  1  0  0  0  0
  7  8  2  0  0  0  0
  7  9  1  0  0  0  0
  9 21  1  0  0  0  0
  9 10  1  0  0  0  0
 10 11  2  0  0  0  0
 12 13  1  0  0  0  0
 12 26  1  0  0  0  0
 13 14  1  0  0  0  0
 13 27  1  0  0  0  0
 13 28  1  0  0  0  0
 14 15  1  0  0  0  0
 14 29  1  0  0  0  0
 14 30  1  0  0  0  0
 15 16  1  0  0  0  0
 16 20  1  0  0  0  0
 16 17  1  0  0  0  0
 16 31  1  0  0  0  0
 17 18  1  0  0  0  0
 17 32  1  0  0  0  0
 17 33  1  0  0  0  0
 18 19  1  0  0  0  0
 18 34  1  0  0  0  0
 18 35  1  0  0  0  0
 19 20  1  0  0  0  0
 19 36  1  0  0  0  0
 19 37  1  0  0  0  0
 20 38  1  0  0  0  0
 20 39  1  0  0  0  0
M  END
> <s_m_source_file>
AV-unprocessed.smi

> <i_m_source_file_index>
1306

> <i_lp_mmshare_version>
43012

> <i_f3d_flags>
0

> <s_epik_input>
Tz1jMVtuSF1jKD1PKVtjSF1bY0hdbjFbQ0gyXUMoPU8pW05IXVtDSDJdW0NIMl1TW0NIXTJbQ0gyXVtDSDJdW0NIMl1bQ0gyXTI=

> <s_epik_cmdline>
J2VwaWtfcHl0aG9uJywgJy1waCcsICc3LjAnLCAnLXRuJywgJzgnLCAnLW1hJywgJzIwMCcsICctbWV0YWxfYmluZGluZycsICctaW1hZScsICc8aW5maWxlLm1hZT4nLCAnLW9tYWUnLCAnPG91dGZpbGUubWFlPic=

> <r_lp_tautomer_probability>
0.999537

> <r_epik_Ionization_Penalty>
0.00337646

> <r_epik_Ionization_Penalty_Charging>
0.00337644

> <r_epik_Ionization_Penalty_Neutral>
2.37506e-08

> <r_epik_State_Penalty>
0.00238979

> <r_epik_Charging_Adjusted_Penalty>
0.00576623

> <i_epik_Tot_Q>
0

> <i_epik_Tot_abs_Q>
0

> <r_epik_Metal_State_Penalty>
0.366399

> <b_epik_Metal_Only>
0

> <s_lp_Force_Field>
OPLS_2005

> <r_lp_Energy>
19.0409

> <b_lp_Chiralities_Consistent>
1

> <s_lp_Variant>
AV-unprocessed.smi:1306-1

> <Gold.Version>
5.8.1

> <Gold.Id.Protein>
6NUR|6NUR_protein|mol2

> <Gold.PLP.Fitness>
42.9685

> <Gold.PLP.PLP>
-35.7909

> <Gold.PLP.part.hbond>
-3.0000

> <Gold.PLP.part.metal>
0.0000

> <Gold.PLP.part.buried>
0.0376

> <Gold.PLP.part.nonpolar>
-33.8322

> <Gold.PLP.part.repulsive>
0.5524

> <Gold.PLP.ligand.clash>
0.0000

> <Gold.PLP.ligand.torsion>
0.6317

> <Gold.PLP.Chemscore.Hbond>
1.9030

> <Gold.PLP.Chemscore.CHOScore>
0.8948

> <Gold.PLP.Chemscore.Metal>
0.0000

> <Gold.Chemscore.Hbonds>
donor molecule, donor type, donor heavy atom, donor atom, acceptor molecule, acceptor atom, score
      L1  H     9    21       P1  8028  1.00
      L1  H    12    26       P1 10171  0.83
      L1  C     5    24       P1  7948  0.92

> <Gold.PLP.Chemscore.Internal.Correction>
0.0478

> <Gold.Rescore>
     Score         DG    S(hbond)    S(metal)    S(lipo)     H(rot)  DE(clash)    DE(int)     intcor
     11.28     -13.75       1.79        0.00      73.23       2.45       0.05       2.43       ----

> <Gold.Chemscore.Fitness>
11.2763

> <Gold.Chemscore.DG>
-13.7535

> <Gold.Chemscore.ZeroCoef>
-5.4800

> <Gold.Chemscore.Hbond>
1.7872

> <Gold.Chemscore.Metal>
0.0000

> <Gold.Chemscore.Lipo>
73.2331

> <Gold.Chemscore.Internal_Hbond>
0.0000

> <Gold.Chemscore.DEClash>
0.0465

> <Gold.Chemscore.DEInternal>
2.4307

> <Gold.Chemscore.Rot>
2.4469

> <Gold.Chemscore.Internal.Correction>
   9.000000E+99

> <Gold.Chemscore.Hbonds>
donor molecule, donor type, donor heavy atom, donor atom, acceptor molecule, acceptor atom, score
      L1  H     9    21       P1  8028  0.96
      L1  H    12    26       P1 10171  0.77

> <Gold.Chemscore.Hbond.Weighted>
-5.9692

> <Gold.Chemscore.Metal.Weighted>
-0.0000

> <Gold.Chemscore.Lipo.Weighted>
-8.5683

> <Gold.Chemscore.Internal_Hbond.Weighted>
0.0000

> <Gold.Chemscore.DEClash.Weighted>
0.0465

> <Gold.Chemscore.DEInternal.Weighted>
2.4307

> <Gold.Chemscore.Rot.Weighted>
6.2640

> <Gold.Chemscore.Internal.Correction.Weighted>
   9.000000E+99

> <Gold.Protein.RotatedTorsions>
[ 6907 6896 6895 6894 ] final   44.37 input  -60.11 | X-H torsion
[ 7974 7965 7964 7962 ] final  -29.14 input  175.53 | X-H torsion
[ 8008 7997 7996 7995 ] final  170.82 input   59.86 | X-H torsion
[ 10167 10162 10161 10158 ] final  -78.31 input  -65.29 | X-H torsion
[ 10718 10713 10712 10709 ] final -119.47 input   66.30 | X-H torsion
[ 10763 10752 10751 10750 ] final  -28.30 input  -60.55 | X-H torsion
[ 11005 11000 10999 10996 ] final    4.26 input  -57.11 | X-H torsion

> <Gold.Protein.ActiveResidues>
 VAL166  LYS551  ARG553  GLY616  TRP617  ASP618  TYR619  PRO620  LYS621  CYS622 
 ASP623  PHE694  ASN695  SER759  ASP760  ASP761  ALA762  ILE779  LEU786  VAL792 
 PHE793  MET794  SER795  GLU796  ALA797  LYS798  CYS799  TRP800  GLU811  SER814 

> <Gold.Protein.RotatedAtoms>
  152.2317  134.8315  160.0472 H   0  0  0  0  0  0  0  0  0  0  0  0  # atno 6907 bound_to 6896
  151.9062  133.3545  159.3856 H   0  0  0  0  0  0  0  0  0  0  0  0  # atno 6908 bound_to 6896
  150.7027  134.4704  159.5467 H   0  0  0  0  0  0  0  0  0  0  0  0  # atno 6909 bound_to 6896
  146.1238  140.5373  142.8723 H   0  0  0  0  0  0  0  0  0  0  0  0  # atno 7974 bound_to 7965
  156.1329  140.1528  156.9038 H   0  0  0  0  0  0  0  0  0  0  0  0  # atno 8008 bound_to 7997
  154.4924  140.0847  156.7662 H   0  0  0  0  0  0  0  0  0  0  0  0  # atno 8009 bound_to 7997
  155.4222  140.3423  155.4274 H   0  0  0  0  0  0  0  0  0  0  0  0  # atno 8010 bound_to 7997
  140.4693  143.2431  151.8229 H   0  0  0  0  0  0  0  0  0  0  0  0  # atno 10167 bound_to 10162
  156.1183  130.6303  150.9420 H   0  0  0  0  0  0  0  0  0  0  0  0  # atno 10718 bound_to 10713
  153.7461  135.6929  153.4956 H   0  0  0  0  0  0  0  0  0  0  0  0  # atno 10763 bound_to 10752
  153.2036  135.4428  155.0294 H   0  0  0  0  0  0  0  0  0  0  0  0  # atno 10764 bound_to 10752
  154.8204  135.3419  154.6984 H   0  0  0  0  0  0  0  0  0  0  0  0  # atno 10765 bound_to 10752
  140.5839  133.9987  155.8059 H   0  0  0  0  0  0  0  0  0  0  0  0  # atno 11005 bound_to 11000
  144.7623  140.5449  143.6727 LP  0  0  0  0  0  0  0  0  0  0  0  0  # atno 17320 bound_to 7965
  145.5409  139.1475  143.3447 LP  0  0  0  0  0  0  0  0  0  0  0  0  # atno 17321 bound_to 7965
  139.4816  144.4911  151.9183 LP  0  0  0  0  0  0  0  0  0  0  0  0  # atno 17342 bound_to 10162
  140.3996  144.2510  150.5894 LP  0  0  0  0  0  0  0  0  0  0  0  0  # atno 17343 bound_to 10162
  157.6367  131.0915  150.8334 LP  0  0  0  0  0  0  0  0  0  0  0  0  # atno 17370 bound_to 10713
  156.8435  130.5056  149.5319 LP  0  0  0  0  0  0  0  0  0  0  0  0  # atno 17371 bound_to 10713
  141.0978  133.9815  157.3130 LP  0  0  0  0  0  0  0  0  0  0  0  0  # atno 17394 bound_to 11000
  139.9304  135.0200  156.8382 LP  0  0  0  0  0  0  0  0  0  0  0  0  # atno 17395 bound_to 11000

$$$$
