AV-unprocessed.smi:243|AV-procd|sdf|1858|dock10
  -GOLD-   2262020493D 1   1.00000     0.00000
 Structure written by MMmdl.
 58 61  0  0  0  0  0  0  0  0  2 V2000
  152.7142  144.6268  158.2992 C   0  0  0  0  0  0  0  0  0  0  0  0
  151.2842  144.4198  158.8195 C   0  0  0  0  0  0  0  0  0  0  0  0
  150.5048  143.4704  157.9848 N   0  3  2  0  0  0  0  0  0  0  0  0
  149.3575  142.8880  158.7269 C   0  0  0  0  0  0  0  0  0  0  0  0
  148.4850  141.9905  157.8281 C   0  0  0  0  0  0  0  0  0  0  0  0
  149.2717  140.9419  157.0135 C   0  0  2  0  0  0  0  0  0  0  0  0
  149.5156  139.6848  157.7444 N   0  0  0  0  0  0  0  0  0  0  0  0
  150.8347  139.2504  158.2002 C   0  0  0  0  0  0  0  0  0  0  0  0
  148.5546  138.7274  157.6712 C   0  0  0  0  0  0  0  0  0  0  0  0
  147.6445  138.7810  156.6626 N   0  0  0  0  0  0  0  0  0  0  0  0
  146.6756  137.8651  156.5783 C   0  0  0  0  0  0  0  0  0  0  0  0
  146.4386  136.8254  157.3799 N   0  0  0  0  0  0  0  0  0  0  0  0
  147.3579  136.7546  158.3845 C   0  0  0  0  0  0  0  0  0  0  0  0
  148.4384  137.6558  158.6024 C   0  0  0  0  0  0  0  0  0  0  0  0
  149.1665  137.2587  159.7181 N   0  0  0  0  0  0  0  0  0  0  0  0
  148.5441  136.1931  160.1426 C   0  0  0  0  0  0  0  0  0  0  0  0
  147.4502  135.8150  159.3969 N   0  0  0  0  0  0  0  0  0  0  0  0
  146.5774  134.6772  159.6455 C   0  0  0  0  0  0  0  0  0  0  0  0
  145.9325  134.6826  161.0518 C   0  0  1  0  0  0  0  0  0  0  0  0
  145.3746  135.9621  161.2998 O   0  0  0  0  0  0  0  0  0  0  0  0
  144.8263  133.6441  161.1978 C   0  0  0  0  0  0  0  0  0  0  0  0
  144.8812  133.2973  162.6795 C   0  0  0  0  0  0  0  0  0  0  0  0
  146.2728  133.2837  162.9468 O   0  0  0  0  0  0  0  0  0  0  0  0
  146.8920  134.3337  162.2096 C   0  0  0  0  0  0  0  0  0  0  0  0
  150.5219  141.5781  156.3569 C   0  0  2  0  0  0  0  0  0  0  0  0
  151.3840  140.5785  155.5669 C   0  0  0  0  0  0  0  0  0  0  0  0
  151.3453  142.4207  157.3504 C   0  0  0  0  0  0  0  0  0  0  0  0
  153.2217  145.4007  158.8756 H   0  0  0  0  0  0  0  0  0  0  0  0
  152.7121  144.9423  157.2553 H   0  0  0  0  0  0  0  0  0  0  0  0
  153.3162  143.7221  158.3775 H   0  0  0  0  0  0  0  0  0  0  0  0
  151.2951  144.0846  159.8578 H   0  0  0  0  0  0  0  0  0  0  0  0
  150.7887  145.3916  158.8152 H   0  0  0  0  0  0  0  0  0  0  0  0
  149.7164  142.3509  159.6021 H   0  0  0  0  0  0  0  0  0  0  0  0
  148.7342  143.6960  159.1122 H   0  0  0  0  0  0  0  0  0  0  0  0
  147.7017  141.5088  158.4149 H   0  0  0  0  0  0  0  0  0  0  0  0
  147.9651  142.6391  157.1219 H   0  0  0  0  0  0  0  0  0  0  0  0
  148.6269  140.6923  156.1714 H   0  0  0  0  0  0  0  0  0  0  0  0
  150.7411  138.5031  158.9895 H   0  0  0  0  0  0  0  0  0  0  0  0
  151.4172  140.0677  158.6121 H   0  0  0  0  0  0  0  0  0  0  0  0
  151.4010  138.8046  157.3825 H   0  0  0  0  0  0  0  0  0  0  0  0
  145.9914  137.9829  155.7507 H   0  0  0  0  0  0  0  0  0  0  0  0
  148.8707  135.6467  161.0155 H   0  0  0  0  0  0  0  0  0  0  0  0
  145.8044  134.6668  158.8760 H   0  0  0  0  0  0  0  0  0  0  0  0
  147.1583  133.7648  159.5043 H   0  0  0  0  0  0  0  0  0  0  0  0
  144.4505  135.9284  161.1040 H   0  0  0  0  0  0  0  0  0  0  0  0
  143.8455  133.9959  160.8745 H   0  0  0  0  0  0  0  0  0  0  0  0
  145.0653  132.7518  160.6174 H   0  0  0  0  0  0  0  0  0  0  0  0
  144.3982  134.0682  163.2822 H   0  0  0  0  0  0  0  0  0  0  0  0
  144.4175  132.3374  162.9074 H   0  0  0  0  0  0  0  0  0  0  0  0
  147.8588  133.9760  161.8578 H   0  0  0  0  0  0  0  0  0  0  0  0
  147.0783  135.1876  162.8630 H   0  0  0  0  0  0  0  0  0  0  0  0
  150.1413  142.2837  155.6165 H   0  0  0  0  0  0  0  0  0  0  0  0
  151.8849  139.8660  156.2217 H   0  0  0  0  0  0  0  0  0  0  0  0
  152.1559  141.0954  154.9962 H   0  0  0  0  0  0  0  0  0  0  0  0
  150.7779  140.0114  154.8597 H   0  0  0  0  0  0  0  0  0  0  0  0
  152.1659  142.8876  156.8069 H   0  0  0  0  0  0  0  0  0  0  0  0
  151.8037  141.7970  158.1170 H   0  0  0  0  0  0  0  0  0  0  0  0
  150.1036  144.0150  157.2346 H   0  0  0  0  0  0  0  0  0  0  0  0
  1  2  1  0  0  0  0
  1 28  1  0  0  0  0
  1 29  1  0  0  0  0
  1 30  1  0  0  0  0
  2  3  1  0  0  0  0
  2 31  1  0  0  0  0
  2 32  1  0  0  0  0
  3 27  1  0  0  0  0
  3  4  1  0  0  0  0
  3 58  1  0  0  0  0
  4  5  1  0  0  0  0
  4 33  1  0  0  0  0
  4 34  1  0  0  0  0
  5  6  1  0  0  0  0
  5 35  1  0  0  0  0
  5 36  1  0  0  0  0
  6  7  1  0  0  0  0
  6 25  1  0  0  0  0
  6 37  1  0  0  0  0
  7  8  1  0  0  0  0
  7  9  1  0  0  0  0
  8 38  1  0  0  0  0
  8 39  1  0  0  0  0
  8 40  1  0  0  0  0
  9 14  1  0  0  0  0
  9 10  2  0  0  0  0
 10 11  1  0  0  0  0
 11 12  2  0  0  0  0
 11 41  1  0  0  0  0
 12 13  1  0  0  0  0
 13 17  1  0  0  0  0
 13 14  2  0  0  0  0
 14 15  1  0  0  0  0
 15 16  2  0  0  0  0
 16 17  1  0  0  0  0
 16 42  1  0  0  0  0
 17 18  1  0  0  0  0
 18 19  1  0  0  0  0
 18 43  1  0  0  0  0
 18 44  1  0  0  0  0
 19 24  1  0  0  0  0
 19 20  1  0  0  0  0
 19 21  1  0  0  0  0
 20 45  1  0  0  0  0
 21 22  1  0  0  0  0
 21 46  1  0  0  0  0
 21 47  1  0  0  0  0
 22 23  1  0  0  0  0
 22 48  1  0  0  0  0
 22 49  1  0  0  0  0
 23 24  1  0  0  0  0
 24 50  1  0  0  0  0
 24 51  1  0  0  0  0
 25 26  1  0  0  0  0
 25 27  1  0  0  0  0
 25 52  1  0  0  0  0
 26 53  1  0  0  0  0
 26 54  1  0  0  0  0
 26 55  1  0  0  0  0
 27 56  1  0  0  0  0
 27 57  1  0  0  0  0
M  CHG  1   3   1
M  END
> <s_m_source_file>
AV-unprocessed.smi

> <i_m_source_file_index>
243

> <i_lp_mmshare_version>
43012

> <i_f3d_flags>
0

> <s_epik_input>
W0NIM11bQ0gyXU4xW0NIMl1bQ0gyXVtDQEhdKFtDQEBIXShbQ0gzXSlbQ0gyXTEpTihbQ0gzXSljKG5bY0hdbjIpYyhjMjMpbltjSF1uM1tDSDJdW0NAQF00KFtPSF0pW0NIMl1bQ0gyXU9bQ0gyXTQ=

> <s_epik_cmdline>
J2VwaWtfcHl0aG9uJywgJy1waCcsICc3LjAnLCAnLXRuJywgJzgnLCAnLW1hJywgJzIwMCcsICctbWV0YWxfYmluZGluZycsICctaW1hZScsICc8aW5maWxlLm1hZT4nLCAnLW9tYWUnLCAnPG91dGZpbGUubWFlPic=

> <r_lp_tautomer_probability>
1

> <r_epik_Ionization_Penalty>
0.00253099

> <r_epik_Ionization_Penalty_Charging>
0.00137877

> <r_epik_Ionization_Penalty_Neutral>
0.00115221

> <r_epik_State_Penalty>
-0

> <r_epik_Charging_Adjusted_Penalty>
0.00137877

> <i_epik_Tot_Q>
1

> <i_epik_Tot_abs_Q>
1

> <r_epik_Metal_State_Penalty>
-0

> <b_epik_Metal_Only>
0

> <s_lp_Force_Field>
OPLS_2005

> <r_lp_Energy>
51.0856

> <b_lp_Chiralities_Consistent>
1

> <s_lp_Variant>
AV-unprocessed.smi:243-11

> <Gold.Version>
5.8.1

> <Gold.Id.Protein>
6NUR|6NUR_protein|mol2

> <Gold.PLP.Fitness>
42.5932

> <Gold.PLP.PLP>
-38.1442

> <Gold.PLP.part.hbond>
-3.9200

> <Gold.PLP.part.metal>
0.0000

> <Gold.PLP.part.buried>
-3.9169

> <Gold.PLP.part.nonpolar>
-29.8403

> <Gold.PLP.part.repulsive>
0.0728

> <Gold.PLP.ligand.clash>
0.0021

> <Gold.PLP.ligand.torsion>
1.2590

> <Gold.PLP.Chemscore.Hbond>
2.1487

> <Gold.PLP.Chemscore.CHOScore>
0.0000

> <Gold.PLP.Chemscore.Metal>
0.0000

> <Gold.Chemscore.Hbonds>
donor molecule, donor type, donor heavy atom, donor atom, acceptor molecule, acceptor atom, score
      L1  H     3    58       P1  8028  1.69
      P1  H  6931  6943       L1    15  0.03

> <Gold.PLP.Chemscore.Internal.Correction>
0.5229

> <Gold.Rescore>
     Score         DG    S(hbond)    S(metal)    S(lipo)     H(rot)  DE(clash)    DE(int)     intcor
     10.55     -12.99       0.98        0.00      85.26       2.24       0.04       2.40       ----

> <Gold.Chemscore.Fitness>
10.5501

> <Gold.Chemscore.DG>
-12.9892

> <Gold.Chemscore.ZeroCoef>
-5.4800

> <Gold.Chemscore.Hbond>
0.9770

> <Gold.Chemscore.Metal>
0.0000

> <Gold.Chemscore.Lipo>
85.2563

> <Gold.Chemscore.Internal_Hbond>
0.0000

> <Gold.Chemscore.DEClash>
0.0419

> <Gold.Chemscore.DEInternal>
2.3972

> <Gold.Chemscore.Rot>
2.2379

> <Gold.Chemscore.Internal.Correction>
   9.000000E+99

> <Gold.Chemscore.Hbonds>
donor molecule, donor type, donor heavy atom, donor atom, acceptor molecule, acceptor atom, score
      L1  H     3    58       P1  8028  0.72

> <Gold.Chemscore.Hbond.Weighted>
-3.2633

> <Gold.Chemscore.Metal.Weighted>
-0.0000

> <Gold.Chemscore.Lipo.Weighted>
-9.9750

> <Gold.Chemscore.Internal_Hbond.Weighted>
0.0000

> <Gold.Chemscore.DEClash.Weighted>
0.0419

> <Gold.Chemscore.DEInternal.Weighted>
2.3972

> <Gold.Chemscore.Rot.Weighted>
5.7291

> <Gold.Chemscore.Internal.Correction.Weighted>
   9.000000E+99

> <Gold.Protein.RotatedTorsions>
[ 6907 6896 6895 6894 ] final   78.82 input  -60.11 | X-H torsion
[ 7974 7965 7964 7962 ] final  -73.18 input  175.53 | X-H torsion
[ 8008 7997 7996 7995 ] final  -64.42 input   59.86 | X-H torsion
[ 10167 10162 10161 10158 ] final  154.95 input  -65.29 | X-H torsion
[ 10718 10713 10712 10709 ] final -178.06 input   66.30 | X-H torsion
[ 10763 10752 10751 10750 ] final   73.42 input  -60.55 | X-H torsion
[ 11005 11000 10999 10996 ] final  -93.08 input  -57.11 | X-H torsion

> <Gold.Protein.ActiveResidues>
 VAL166  LYS551  ARG553  GLY616  TRP617  ASP618  TYR619  PRO620  LYS621  CYS622 
 ASP623  PHE694  ASN695  SER759  ASP760  ASP761  ALA762  ILE779  LEU786  VAL792 
 PHE793  MET794  SER795  GLU796  ALA797  LYS798  CYS799  TRP800  GLU811  SER814 

> <Gold.Protein.RotatedAtoms>
  152.5175  134.3605  159.9282 H   0  0  0  0  0  0  0  0  0  0  0  0  # atno 6907 bound_to 6896
  151.3557  133.3902  159.2692 H   0  0  0  0  0  0  0  0  0  0  0  0  # atno 6908 bound_to 6896
  150.9691  134.9086  159.7835 H   0  0  0  0  0  0  0  0  0  0  0  0  # atno 6909 bound_to 6896
  145.6555  140.9269  143.0962 H   0  0  0  0  0  0  0  0  0  0  0  0  # atno 7974 bound_to 7965
  154.4611  140.0954  156.6895 H   0  0  0  0  0  0  0  0  0  0  0  0  # atno 8008 bound_to 7997
  155.4992  140.3473  155.4350 H   0  0  0  0  0  0  0  0  0  0  0  0  # atno 8009 bound_to 7997
  156.0871  140.1388  156.9628 H   0  0  0  0  0  0  0  0  0  0  0  0  # atno 8010 bound_to 7997
  139.4822  144.5141  151.7978 H   0  0  0  0  0  0  0  0  0  0  0  0  # atno 10167 bound_to 10162
  156.8386  130.9678  151.3101 H   0  0  0  0  0  0  0  0  0  0  0  0  # atno 10718 bound_to 10713
  153.0521  135.5063  154.7891 H   0  0  0  0  0  0  0  0  0  0  0  0  # atno 10763 bound_to 10752
  154.6746  135.2958  154.9698 H   0  0  0  0  0  0  0  0  0  0  0  0  # atno 10764 bound_to 10752
  154.0505  135.6704  153.4852 H   0  0  0  0  0  0  0  0  0  0  0  0  # atno 10765 bound_to 10752
  141.1506  133.7864  157.0110 H   0  0  0  0  0  0  0  0  0  0  0  0  # atno 11005 bound_to 11000
  144.7107  139.8382  143.7415 LP  0  0  0  0  0  0  0  0  0  0  0  0  # atno 17320 bound_to 7965
  146.1168  139.4180  143.0253 LP  0  0  0  0  0  0  0  0  0  0  0  0  # atno 17321 bound_to 7965
  140.4648  144.1671  150.5910 LP  0  0  0  0  0  0  0  0  0  0  0  0  # atno 17342 bound_to 10162
  140.4446  143.2512  151.9428 LP  0  0  0  0  0  0  0  0  0  0  0  0  # atno 17343 bound_to 10162
  157.6368  130.8773  149.9373 LP  0  0  0  0  0  0  0  0  0  0  0  0  # atno 17370 bound_to 10713
  156.0893  130.3665  150.0426 LP  0  0  0  0  0  0  0  0  0  0  0  0  # atno 17371 bound_to 10713
  140.0878  134.9611  157.1727 LP  0  0  0  0  0  0  0  0  0  0  0  0  # atno 17394 bound_to 11000
  140.3488  134.2622  155.7201 LP  0  0  0  0  0  0  0  0  0  0  0  0  # atno 17395 bound_to 11000

$$$$
