AV-unprocessed.smi:560|AV-procd|sdf|2930|dock7
  -GOLD-   2262023423D 1   1.00000     0.00000
 Structure written by MMmdl.
 42 43  0  0  0  0  0  0  0  0  2 V2000
  152.6080  138.3823  154.4651 C   0  0  0  0  0  0  0  0  0  0  0  0
  151.1990  137.8832  154.0855 C   0  0  2  0  0  0  0  0  0  0  0  0
  150.1253  138.9802  154.1820 C   0  0  0  0  0  0  0  0  0  0  0  0
  150.3509  140.0362  154.7740 O   0  0  0  0  0  0  0  0  0  0  0  0
  148.9523  138.7141  153.5842 N   0  0  0  0  0  0  0  0  0  0  0  0
  147.7847  139.5938  153.5774 C   0  0  2  0  0  0  0  0  0  0  0  0
  146.7067  139.0590  154.5360 C   0  0  0  0  0  0  0  0  0  0  0  0
  146.0269  137.7888  153.9923 C   0  0  0  0  0  0  0  0  0  0  0  0
  145.4626  138.0174  152.6378 N   0  3  2  0  0  0  0  0  0  0  0  0
  144.6760  136.8561  152.1476 C   0  0  0  0  0  0  0  0  0  0  0  0
  145.4719  135.9499  151.2025 C   0  0  0  0  0  0  0  0  0  0  0  0
  145.3761  136.2087  149.8964 N   0  0  0  0  0  0  0  0  0  0  0  0
  146.1744  135.0408  151.6408 O   0  0  0  0  0  0  0  0  0  0  0  0
  146.5081  138.4621  151.6780 C   0  0  0  0  0  0  0  0  0  0  0  0
  147.1913  139.7522  152.1632 C   0  0  0  0  0  0  0  0  0  0  0  0
  150.8077  136.7139  154.8648 N   0  0  0  0  0  0  0  0  0  0  0  0
  149.6351  135.9911  154.7800 C   0  0  0  0  0  0  0  0  0  0  0  0
  149.6915  135.0044  155.7219 C   0  0  0  0  0  0  0  0  0  0  0  0
  150.9510  135.2089  156.3506 C   0  0  0  0  0  0  0  0  0  0  0  0
  151.6124  136.2353  155.8421 N   0  0  0  0  0  0  0  0  0  0  0  0
  152.9170  139.2116  153.8281 H   0  0  0  0  0  0  0  0  0  0  0  0
  153.3461  137.5886  154.3461 H   0  0  0  0  0  0  0  0  0  0  0  0
  152.6565  138.7235  155.5001 H   0  0  0  0  0  0  0  0  0  0  0  0
  151.2390  137.5730  153.0399 H   0  0  0  0  0  0  0  0  0  0  0  0
  148.8532  137.8195  153.1268 H   0  0  0  0  0  0  0  0  0  0  0  0
  148.1018  140.5738  153.9390 H   0  0  0  0  0  0  0  0  0  0  0  0
  147.1374  138.8629  155.5188 H   0  0  0  0  0  0  0  0  0  0  0  0
  145.9495  139.8297  154.6865 H   0  0  0  0  0  0  0  0  0  0  0  0
  146.7368  136.9609  153.9574 H   0  0  0  0  0  0  0  0  0  0  0  0
  145.2309  137.4931  154.6766 H   0  0  0  0  0  0  0  0  0  0  0  0
  144.2863  136.2847  152.9917 H   0  0  0  0  0  0  0  0  0  0  0  0
  143.8124  137.2102  151.5830 H   0  0  0  0  0  0  0  0  0  0  0  0
  145.8750  135.6409  149.2264 H   0  0  0  0  0  0  0  0  0  0  0  0
  144.7974  136.9736  149.5791 H   0  0  0  0  0  0  0  0  0  0  0  0
  147.2467  137.6698  151.5465 H   0  0  0  0  0  0  0  0  0  0  0  0
  146.0661  138.6424  150.6978 H   0  0  0  0  0  0  0  0  0  0  0  0
  146.4575  140.5592  152.1734 H   0  0  0  0  0  0  0  0  0  0  0  0
  147.9608  140.0576  151.4533 H   0  0  0  0  0  0  0  0  0  0  0  0
  148.8653  136.2357  154.0630 H   0  0  0  0  0  0  0  0  0  0  0  0
  148.9460  134.2520  155.9315 H   0  0  0  0  0  0  0  0  0  0  0  0
  151.3993  134.6486  157.1578 H   0  0  0  0  0  0  0  0  0  0  0  0
  144.8052  138.7795  152.7288 H   0  0  0  0  0  0  0  0  0  0  0  0
  1  2  1  0  0  0  0
  1 21  1  0  0  0  0
  1 22  1  0  0  0  0
  1 23  1  0  0  0  0
  2  3  1  0  0  0  0
  2 16  1  0  0  0  0
  2 24  1  0  0  0  0
  3  4  2  0  0  0  0
  3  5  1  0  0  0  0
  5  6  1  0  0  0  0
  5 25  1  0  0  0  0
  6 15  1  0  0  0  0
  6  7  1  0  0  0  0
  6 26  1  0  0  0  0
  7  8  1  0  0  0  0
  7 27  1  0  0  0  0
  7 28  1  0  0  0  0
  8  9  1  0  0  0  0
  8 29  1  0  0  0  0
  8 30  1  0  0  0  0
  9 10  1  0  0  0  0
  9 14  1  0  0  0  0
  9 42  1  0  0  0  0
 10 11  1  0  0  0  0
 10 31  1  0  0  0  0
 10 32  1  0  0  0  0
 11 12  1  0  0  0  0
 11 13  2  0  0  0  0
 12 33  1  0  0  0  0
 12 34  1  0  0  0  0
 14 15  1  0  0  0  0
 14 35  1  0  0  0  0
 14 36  1  0  0  0  0
 15 37  1  0  0  0  0
 15 38  1  0  0  0  0
 16 20  1  0  0  0  0
 16 17  1  0  0  0  0
 17 18  2  0  0  0  0
 17 39  1  0  0  0  0
 18 19  1  0  0  0  0
 18 40  1  0  0  0  0
 19 20  2  0  0  0  0
 19 41  1  0  0  0  0
M  CHG  1   9   1
M  END
> <s_m_source_file>
AV-unprocessed.smi

> <i_m_source_file_index>
560

> <i_lp_mmshare_version>
43012

> <i_f3d_flags>
0

> <s_epik_input>
bjFbY0hdW2NIXVtjSF1uMVtDQEhdKFtDSDNdKUMoPU8pW05IXVtDSF0yW0NIMl1bQ0gyXU4oW0NIMl1bQ0gyXTIpW0NIMl1DKD1PKVtOSDJd

> <s_epik_cmdline>
J2VwaWtfcHl0aG9uJywgJy1waCcsICc3LjAnLCAnLXRuJywgJzgnLCAnLW1hJywgJzIwMCcsICctbWV0YWxfYmluZGluZycsICctaW1hZScsICc8aW5maWxlLm1hZT4nLCAnLW9tYWUnLCAnPG91dGZpbGUubWFlPic=

> <r_lp_tautomer_probability>
1

> <r_epik_Ionization_Penalty>
1.02943

> <r_epik_Ionization_Penalty_Charging>
1.02936

> <r_epik_Ionization_Penalty_Neutral>
7.4537e-05

> <r_epik_State_Penalty>
1.08036

> <r_epik_Charging_Adjusted_Penalty>
2.10972

> <i_epik_Tot_Q>
1

> <i_epik_Tot_abs_Q>
1

> <r_epik_Metal_State_Penalty>
1.09347

> <b_epik_Metal_Only>
0

> <s_lp_Force_Field>
OPLS_2005

> <r_lp_Energy>
16.2494

> <b_lp_Chiralities_Consistent>
1

> <s_lp_Variant>
AV-unprocessed.smi:560-5

> <Gold.Version>
5.8.1

> <Gold.Id.Protein>
6NUR|6NUR_protein|mol2

> <Gold.PLP.Fitness>
54.9619

> <Gold.PLP.PLP>
-33.5594

> <Gold.PLP.part.hbond>
-7.0000

> <Gold.PLP.part.metal>
0.0000

> <Gold.PLP.part.buried>
2.4360

> <Gold.PLP.part.nonpolar>
-28.5743

> <Gold.PLP.part.repulsive>
0.7853

> <Gold.PLP.ligand.clash>
0.0000

> <Gold.PLP.ligand.torsion>
1.2622

> <Gold.PLP.Chemscore.Hbond>
6.9750

> <Gold.PLP.Chemscore.CHOScore>
0.9573

> <Gold.PLP.Chemscore.Metal>
0.0000

> <Gold.Chemscore.Hbonds>
donor molecule, donor type, donor heavy atom, donor atom, acceptor molecule, acceptor atom, score
      L1  H     5    25       P1  7948  1.00
      L1  H     9    42       P1 10175  1.95
      L1  H    12    33       P1  7921  1.00
      L1  H    12    34       P1 10171  1.00
      P1  H  7989  7998       L1     4  1.00
      P1  H 10752 10763       L1    20  1.00
      L1  C    17    39       P1  7948  0.97

> <Gold.PLP.Chemscore.Internal.Correction>
0.1301

> <Gold.Rescore>
     Score         DG    S(hbond)    S(metal)    S(lipo)     H(rot)  DE(clash)    DE(int)     intcor
     19.54     -23.61       5.03        0.00      66.49       2.52       2.59       1.48       ----

> <Gold.Chemscore.Fitness>
19.5419

> <Gold.Chemscore.DG>
-23.6124

> <Gold.Chemscore.ZeroCoef>
-5.4800

> <Gold.Chemscore.Hbond>
5.0344

> <Gold.Chemscore.Metal>
0.0000

> <Gold.Chemscore.Lipo>
66.4939

> <Gold.Chemscore.Internal_Hbond>
0.0000

> <Gold.Chemscore.DEClash>
2.5865

> <Gold.Chemscore.DEInternal>
1.4840

> <Gold.Chemscore.Rot>
2.5243

> <Gold.Chemscore.Internal.Correction>
   9.000000E+99

> <Gold.Chemscore.Hbonds>
donor molecule, donor type, donor heavy atom, donor atom, acceptor molecule, acceptor atom, score
      L1  H     5    25       P1  7948  0.95
      L1  H     9    42       P1 10175  0.92
      L1  H    12    33       P1  7921  0.98
      L1  H    12    34       P1 10171  0.98
      P1  H  7989  7998       L1     4  0.25
      P1  H 10752 10763       L1    20  0.35

> <Gold.Chemscore.Hbond.Weighted>
-16.8148

> <Gold.Chemscore.Metal.Weighted>
-0.0000

> <Gold.Chemscore.Lipo.Weighted>
-7.7798

> <Gold.Chemscore.Internal_Hbond.Weighted>
0.0000

> <Gold.Chemscore.DEClash.Weighted>
2.5865

> <Gold.Chemscore.DEInternal.Weighted>
1.4840

> <Gold.Chemscore.Rot.Weighted>
6.4622

> <Gold.Chemscore.Internal.Correction.Weighted>
   9.000000E+99

> <Gold.Protein.RotatedTorsions>
[ 6907 6896 6895 6894 ] final -135.24 input  -60.11 | X-H torsion
[ 7974 7965 7964 7962 ] final  -85.65 input  175.53 | X-H torsion
[ 8008 7997 7996 7995 ] final  -36.93 input   59.86 | X-H torsion
[ 10167 10162 10161 10158 ] final -178.07 input  -65.29 | X-H torsion
[ 10718 10713 10712 10709 ] final  -19.60 input   66.30 | X-H torsion
[ 10763 10752 10751 10750 ] final   90.80 input  -60.55 | X-H torsion
[ 11005 11000 10999 10996 ] final   24.12 input  -57.11 | X-H torsion

> <Gold.Protein.ActiveResidues>
 VAL166  LYS551  ARG553  GLY616  TRP617  ASP618  TYR619  PRO620  LYS621  CYS622 
 ASP623  PHE694  ASN695  SER759  ASP760  ASP761  ALA762  ILE779  LEU786  VAL792 
 PHE793  MET794  SER795  GLU796  ALA797  LYS798  CYS799  TRP800  GLU811  SER814 

> <Gold.Protein.RotatedAtoms>
  150.9955  133.6107  159.2701 H   0  0  0  0  0  0  0  0  0  0  0  0  # atno 6907 bound_to 6896
  151.3312  135.0841  159.9349 H   0  0  0  0  0  0  0  0  0  0  0  0  # atno 6908 bound_to 6896
  152.5259  133.9584  159.7760 H   0  0  0  0  0  0  0  0  0  0  0  0  # atno 6909 bound_to 6896
  145.4904  140.9553  143.1815 H   0  0  0  0  0  0  0  0  0  0  0  0  # atno 7974 bound_to 7965
  154.4063  140.1618  156.2454 H   0  0  0  0  0  0  0  0  0  0  0  0  # atno 8008 bound_to 7997
  155.9165  140.3424  155.6117 H   0  0  0  0  0  0  0  0  0  0  0  0  # atno 8009 bound_to 7997
  155.7273  140.0776  157.2295 H   0  0  0  0  0  0  0  0  0  0  0  0  # atno 8010 bound_to 7997
  139.5449  144.2261  152.0969 H   0  0  0  0  0  0  0  0  0  0  0  0  # atno 10167 bound_to 10162
  156.5434  130.4684  149.6487 H   0  0  0  0  0  0  0  0  0  0  0  0  # atno 10718 bound_to 10713
  153.2014  135.4420  155.0271 H   0  0  0  0  0  0  0  0  0  0  0  0  # atno 10763 bound_to 10752
  154.8149  135.3311  154.7206 H   0  0  0  0  0  0  0  0  0  0  0  0  # atno 10764 bound_to 10752
  153.7651  135.6989  153.4973 H   0  0  0  0  0  0  0  0  0  0  0  0  # atno 10765 bound_to 10752
  140.3621  134.2114  155.7671 H   0  0  0  0  0  0  0  0  0  0  0  0  # atno 11005 bound_to 11000
  144.7837  139.6472  143.7143 LP  0  0  0  0  0  0  0  0  0  0  0  0  # atno 17320 bound_to 7965
  146.2287  139.5773  142.9569 LP  0  0  0  0  0  0  0  0  0  0  0  0  # atno 17321 bound_to 7965
  140.1746  144.4903  150.6561 LP  0  0  0  0  0  0  0  0  0  0  0  0  # atno 17342 bound_to 10162
  140.6694  143.2280  151.5663 LP  0  0  0  0  0  0  0  0  0  0  0  0  # atno 17343 bound_to 10162
  156.2951  130.7145  151.2004 LP  0  0  0  0  0  0  0  0  0  0  0  0  # atno 17370 bound_to 10713
  157.7401  131.0521  150.5188 LP  0  0  0  0  0  0  0  0  0  0  0  0  # atno 17371 bound_to 10713
  141.1981  133.8044  157.0599 LP  0  0  0  0  0  0  0  0  0  0  0  0  # atno 17394 bound_to 11000
  140.0618  134.9750  157.1318 LP  0  0  0  0  0  0  0  0  0  0  0  0  # atno 17395 bound_to 11000

$$$$
