AV-unprocessed.smi:1900|AV-procd|sdf|7711|dock5
  -GOLD-   22720 9453D 1   1.00000     0.00000
 Structure written by MMmdl.
 44 45  0  0  0  0  0  0  0  0  2 V2000
  152.6535  139.0837  155.2393 C   0  0  0  0  0  0  0  0  0  0  0  0
  151.1389  138.8530  155.2015 C   0  0  2  0  0  0  0  0  0  0  0  0
  150.7634  137.6121  154.3657 C   0  0  0  0  0  0  0  0  0  0  0  0
  149.2919  137.4547  154.2637 N   0  3  1  0  0  0  0  0  0  0  0  0
  148.6682  136.8899  155.4900 C   0  0  0  0  0  0  0  0  0  0  0  0
  147.4385  136.0205  155.1778 C   0  0  0  0  0  0  0  0  0  0  0  0
  147.8282  134.6579  154.5805 C   0  0  0  0  0  0  0  0  0  0  0  0
  147.2530  134.4619  153.2547 N   0  0  0  0  0  0  0  0  0  0  0  0
  146.2198  133.6547  152.9757 C   0  0  0  0  0  0  0  0  0  0  0  0
  145.6478  132.9662  153.8212 O   0  0  0  0  0  0  0  0  0  0  0  0
  145.9011  133.7016  151.6718 N   0  0  0  0  0  0  0  0  0  0  0  0
  144.8642  132.9939  151.0130 C   0  0  0  0  0  0  0  0  0  0  0  0
  144.9264  132.5318  149.6703 C   0  0  0  0  0  0  0  0  0  0  0  0
  143.8126  131.9035  149.3229 N   0  0  0  0  0  0  0  0  0  0  0  0
  143.0404  131.9590  150.4315 N   0  0  0  0  0  0  0  0  0  0  0  0
  143.6397  132.6123  151.4855 C   0  0  0  0  0  0  0  0  0  0  0  0
  148.6728  138.7104  153.7675 C   0  0  0  0  0  0  0  0  0  0  0  0
  149.1107  139.9315  154.6047 C   0  0  2  0  0  0  0  0  0  0  0  0
  148.5754  141.2459  154.0263 C   0  0  0  0  0  0  0  0  0  0  0  0
  150.5325  140.0023  154.6202 O   0  0  0  0  0  0  0  0  0  0  0  0
  142.1167  131.5506  150.4530 H   0  0  0  0  0  0  0  0  0  0  0  0
  153.1697  138.2301  155.6794 H   0  0  0  0  0  0  0  0  0  0  0  0
  152.8993  139.9632  155.8350 H   0  0  0  0  0  0  0  0  0  0  0  0
  153.0549  139.2377  154.2374 H   0  0  0  0  0  0  0  0  0  0  0  0
  150.7835  138.7371  156.2267 H   0  0  0  0  0  0  0  0  0  0  0  0
  151.1644  137.7181  153.3568 H   0  0  0  0  0  0  0  0  0  0  0  0
  151.2168  136.7107  154.7800 H   0  0  0  0  0  0  0  0  0  0  0  0
  149.4004  136.2599  155.9970 H   0  0  0  0  0  0  0  0  0  0  0  0
  148.4086  137.6803  156.1943 H   0  0  0  0  0  0  0  0  0  0  0  0
  146.8511  135.8527  156.0801 H   0  0  0  0  0  0  0  0  0  0  0  0
  146.7909  136.5546  154.4812 H   0  0  0  0  0  0  0  0  0  0  0  0
  148.9137  134.5557  154.5329 H   0  0  0  0  0  0  0  0  0  0  0  0
  147.4692  133.8547  155.2244 H   0  0  0  0  0  0  0  0  0  0  0  0
  147.6604  134.9915  152.4977 H   0  0  0  0  0  0  0  0  0  0  0  0
  146.4508  134.3167  151.0897 H   0  0  0  0  0  0  0  0  0  0  0  0
  145.7258  132.6304  148.9508 H   0  0  0  0  0  0  0  0  0  0  0  0
  143.1517  132.7386  152.4405 H   0  0  0  0  0  0  0  0  0  0  0  0
  148.9897  138.8518  152.7332 H   0  0  0  0  0  0  0  0  0  0  0  0
  147.5870  138.6310  153.7396 H   0  0  0  0  0  0  0  0  0  0  0  0
  148.7457  139.8396  155.6284 H   0  0  0  0  0  0  0  0  0  0  0  0
  147.4853  141.2480  154.0010 H   0  0  0  0  0  0  0  0  0  0  0  0
  148.9346  141.4066  153.0094 H   0  0  0  0  0  0  0  0  0  0  0  0
  148.8947  142.0956  154.6299 H   0  0  0  0  0  0  0  0  0  0  0  0
  149.1403  136.7569  153.5489 H   0  0  0  0  0  0  0  0  0  0  0  0
  1  2  1  0  0  0  0
  1 22  1  0  0  0  0
  1 23  1  0  0  0  0
  1 24  1  0  0  0  0
  2 20  1  0  0  0  0
  2  3  1  0  0  0  0
  2 25  1  0  0  0  0
  3  4  1  0  0  0  0
  3 26  1  0  0  0  0
  3 27  1  0  0  0  0
  4  5  1  0  0  0  0
  4 17  1  0  0  0  0
  4 44  1  0  0  0  0
  5  6  1  0  0  0  0
  5 28  1  0  0  0  0
  5 29  1  0  0  0  0
  6  7  1  0  0  0  0
  6 30  1  0  0  0  0
  6 31  1  0  0  0  0
  7  8  1  0  0  0  0
  7 32  1  0  0  0  0
  7 33  1  0  0  0  0
  8  9  1  0  0  0  0
  8 34  1  0  0  0  0
  9 10  2  0  0  0  0
  9 11  1  0  0  0  0
 11 12  1  0  0  0  0
 11 35  1  0  0  0  0
 12 16  2  0  0  0  0
 12 13  1  0  0  0  0
 13 14  2  0  0  0  0
 13 36  1  0  0  0  0
 14 15  1  0  0  0  0
 15 21  1  0  0  0  0
 15 16  1  0  0  0  0
 16 37  1  0  0  0  0
 17 18  1  0  0  0  0
 17 38  1  0  0  0  0
 17 39  1  0  0  0  0
 18 19  1  0  0  0  0
 18 20  1  0  0  0  0
 18 40  1  0  0  0  0
 19 41  1  0  0  0  0
 19 42  1  0  0  0  0
 19 43  1  0  0  0  0
M  CHG  1   4   1
M  END
> <s_m_source_file>
AV-unprocessed.smi

> <i_m_source_file_index>
1900

> <i_lp_mmshare_version>
43012

> <i_f3d_flags>
0

> <s_epik_input>
W0NIM11bQ0BASF0xW0NIMl1OKFtDSDJdW0NASF0oTzEpW0NIM10pW0NIMl1bQ0gyXVtDSDJdW05IXUMoPU8pW05IXWMyW2NIXW5bbkhdW2NIXTI=

> <s_epik_cmdline>
J2VwaWtfcHl0aG9uJywgJy1waCcsICc3LjAnLCAnLXRuJywgJzgnLCAnLW1hJywgJzIwMCcsICctbWV0YWxfYmluZGluZycsICctaW1hZScsICc8aW5maWxlLm1hZT4nLCAnLW9tYWUnLCAnPG91dGZpbGUubWFlPic=

> <r_lp_tautomer_probability>
0.5

> <r_epik_Ionization_Penalty>
0.270543

> <r_epik_Ionization_Penalty_Charging>
0.270496

> <r_epik_Ionization_Penalty_Neutral>
4.67091e-05

> <r_epik_State_Penalty>
0.262618

> <r_epik_Charging_Adjusted_Penalty>
0.533114

> <i_epik_Tot_Q>
1

> <i_epik_Tot_abs_Q>
1

> <r_epik_Metal_State_Penalty>
0.262618

> <b_epik_Metal_Only>
0

> <s_lp_Force_Field>
OPLS_2005

> <r_lp_Energy>
20.3326

> <b_lp_Chiralities_Consistent>
1

> <s_lp_Variant>
AV-unprocessed.smi:1900-3

> <Gold.Version>
5.8.1

> <Gold.Id.Protein>
6NUR|6NUR_protein|mol2

> <Gold.PLP.Fitness>
50.3646

> <Gold.PLP.PLP>
-31.6357

> <Gold.PLP.part.hbond>
-5.7581

> <Gold.PLP.part.metal>
0.0000

> <Gold.PLP.part.buried>
-3.1409

> <Gold.PLP.part.nonpolar>
-24.7756

> <Gold.PLP.part.repulsive>
0.5917

> <Gold.PLP.ligand.clash>
0.0000

> <Gold.PLP.ligand.torsion>
1.0709

> <Gold.PLP.Chemscore.Hbond>
5.5833

> <Gold.PLP.Chemscore.CHOScore>
1.3547

> <Gold.PLP.Chemscore.Metal>
0.0000

> <Gold.Chemscore.Hbonds>
donor molecule, donor type, donor heavy atom, donor atom, acceptor molecule, acceptor atom, score
      L1  H     4    44       P1  7948  2.00
      L1  H     8    34       P1  7948  1.00
      L1  H    15    21       P1 10952  0.96
      P1  H  7989  7998       L1    20  1.00
      P1  H 10785 10796       L1    14  0.65
      L1  C    13    36       P1  7921  0.25
      L1  C    16    37       P1 10957  0.64

> <Gold.PLP.Chemscore.Internal.Correction>
0.0569

> <Gold.Rescore>
     Score         DG    S(hbond)    S(metal)    S(lipo)     H(rot)  DE(clash)    DE(int)     intcor
     20.59     -21.97       3.82        0.00      74.35       1.93       0.03       1.35       ----

> <Gold.Chemscore.Fitness>
20.5942

> <Gold.Chemscore.DG>
-21.9746

> <Gold.Chemscore.ZeroCoef>
-5.4800

> <Gold.Chemscore.Hbond>
3.8168

> <Gold.Chemscore.Metal>
0.0000

> <Gold.Chemscore.Lipo>
74.3522

> <Gold.Chemscore.Internal_Hbond>
0.0000

> <Gold.Chemscore.DEClash>
0.0284

> <Gold.Chemscore.DEInternal>
1.3520

> <Gold.Chemscore.Rot>
1.9347

> <Gold.Chemscore.Internal.Correction>
   9.000000E+99

> <Gold.Chemscore.Hbonds>
donor molecule, donor type, donor heavy atom, donor atom, acceptor molecule, acceptor atom, score
      L1  H     4    44       P1  7948  0.96
      L1  H     8    34       P1  7948  0.92
      L1  H    15    21       P1 10952  0.31
      P1  H  7989  7998       L1    20  0.85
      P1  H 10785 10796       L1    14  0.10

> <Gold.Chemscore.Hbond.Weighted>
-12.7483

> <Gold.Chemscore.Metal.Weighted>
-0.0000

> <Gold.Chemscore.Lipo.Weighted>
-8.6992

> <Gold.Chemscore.Internal_Hbond.Weighted>
0.0000

> <Gold.Chemscore.DEClash.Weighted>
0.0284

> <Gold.Chemscore.DEInternal.Weighted>
1.3520

> <Gold.Chemscore.Rot.Weighted>
4.9528

> <Gold.Chemscore.Internal.Correction.Weighted>
   9.000000E+99

> <Gold.Protein.RotatedTorsions>
[ 6907 6896 6895 6894 ] final  -55.22 input  -60.11 | X-H torsion
[ 7974 7965 7964 7962 ] final  114.34 input  175.53 | X-H torsion
[ 8008 7997 7996 7995 ] final  162.97 input   59.86 | X-H torsion
[ 10167 10162 10161 10158 ] final   30.31 input  -65.29 | X-H torsion
[ 10718 10713 10712 10709 ] final   10.52 input   66.30 | X-H torsion
[ 10763 10752 10751 10750 ] final  -19.86 input  -60.55 | X-H torsion
[ 11005 11000 10999 10996 ] final -148.83 input  -57.11 | X-H torsion

> <Gold.Protein.ActiveResidues>
 VAL166  LYS551  ARG553  GLY616  TRP617  ASP618  TYR619  PRO620  LYS621  CYS622 
 ASP623  PHE694  ASN695  SER759  ASP760  ASP761  ALA762  ILE779  LEU786  VAL792 
 PHE793  MET794  SER795  GLU796  ALA797  LYS798  CYS799  TRP800  GLU811  SER814 

> <Gold.Protein.RotatedAtoms>
  150.8270  134.7505  159.6820 H   0  0  0  0  0  0  0  0  0  0  0  0  # atno 6907 bound_to 6896
  152.4379  134.5646  159.9913 H   0  0  0  0  0  0  0  0  0  0  0  0  # atno 6908 bound_to 6896
  151.5816  133.3339  159.3045 H   0  0  0  0  0  0  0  0  0  0  0  0  # atno 6909 bound_to 6896
  145.2056  139.2931  143.4295 H   0  0  0  0  0  0  0  0  0  0  0  0  # atno 7974 bound_to 7965
  156.1991  140.1736  156.7936 H   0  0  0  0  0  0  0  0  0  0  0  0  # atno 8008 bound_to 7997
  154.5569  140.0707  156.8788 H   0  0  0  0  0  0  0  0  0  0  0  0  # atno 8009 bound_to 7997
  155.2922  140.3356  155.4254 H   0  0  0  0  0  0  0  0  0  0  0  0  # atno 8010 bound_to 7997
  140.4689  144.0793  150.6232 H   0  0  0  0  0  0  0  0  0  0  0  0  # atno 10167 bound_to 10162
  156.9821  130.6010  149.5678 H   0  0  0  0  0  0  0  0  0  0  0  0  # atno 10718 bound_to 10713
  153.6115  135.6996  153.5345 H   0  0  0  0  0  0  0  0  0  0  0  0  # atno 10763 bound_to 10752
  153.3013  135.4128  155.1254 H   0  0  0  0  0  0  0  0  0  0  0  0  # atno 10764 bound_to 10752
  154.8562  135.3649  154.5653 H   0  0  0  0  0  0  0  0  0  0  0  0  # atno 10765 bound_to 10752
  140.7572  134.3340  157.5111 H   0  0  0  0  0  0  0  0  0  0  0  0  # atno 11005 bound_to 11000
  146.3408  140.2315  142.8593 LP  0  0  0  0  0  0  0  0  0  0  0  0  # atno 17320 bound_to 7965
  144.9905  140.8543  143.5342 LP  0  0  0  0  0  0  0  0  0  0  0  0  # atno 17321 bound_to 7965
  140.4002  143.2708  151.9957 LP  0  0  0  0  0  0  0  0  0  0  0  0  # atno 17342 bound_to 10162
  139.4816  144.6004  151.7616 LP  0  0  0  0  0  0  0  0  0  0  0  0  # atno 17343 bound_to 10162
  156.0240  130.5334  150.8355 LP  0  0  0  0  0  0  0  0  0  0  0  0  # atno 17370 bound_to 10713
  157.5518  131.0944  150.9684 LP  0  0  0  0  0  0  0  0  0  0  0  0  # atno 17371 bound_to 10713
  139.8777  134.9179  156.3189 LP  0  0  0  0  0  0  0  0  0  0  0  0  # atno 17394 bound_to 11000
  140.9697  133.7335  156.0517 LP  0  0  0  0  0  0  0  0  0  0  0  0  # atno 17395 bound_to 11000

$$$$
