AV-unprocessed.smi:1553|AV-procd|sdf|6238|dock7
  -GOLD-   22720 6423D 1   1.00000     0.00000
 Structure written by MMmdl.
 37 38  0  0  0  0  0  0  0  0  1 V2000
  153.1620  138.0842  156.5724 C   0  0  0  0  0  0  0  0  0  0  0  0
  152.0262  138.5041  155.7044 C   0  0  0  0  0  0  0  0  0  0  0  0
  151.4082  139.6826  155.8147 N   0  0  0  0  0  0  0  0  0  0  0  0
  150.3635  139.8296  154.8975 C   0  0  0  0  0  0  0  0  0  0  0  0
  149.5133  141.0675  154.9206 C   0  0  0  0  0  0  0  0  0  0  0  0
  149.1875  141.5638  156.3442 C   0  0  0  0  0  0  0  0  0  0  0  0
  150.2541  142.4039  156.8863 N   0  0  0  0  0  0  0  0  0  0  0  0
  151.1777  142.0198  157.7873 C   0  0  0  0  0  0  0  0  0  0  0  0
  151.2651  140.8487  158.1545 O   0  0  0  0  0  0  0  0  0  0  0  0
  151.8985  143.0464  158.3178 N   0  0  0  0  0  0  0  0  0  0  0  0
  151.8465  144.4339  157.8253 C   0  0  0  0  0  0  0  0  0  0  0  0
  151.1459  145.2924  158.8905 C   0  0  0  0  0  0  0  0  0  0  0  0
  151.8896  145.2251  160.1034 O   0  0  0  0  0  0  0  0  0  0  0  0
  152.0485  143.8959  160.5943 C   0  0  0  0  0  0  0  0  0  0  0  0
  152.7430  143.0104  159.5357 C   0  0  1  0  0  0  0  0  0  0  0  0
  153.0745  141.6267  160.1323 C   0  0  0  0  0  0  0  0  0  0  0  0
  150.2152  138.7457  154.0676 C   0  0  0  0  0  0  0  0  0  0  0  0
  151.3631  137.4878  154.4310 S   0  0  0  0  0  0  0  0  0  0  0  0
  153.2958  138.7859  157.3962 H   0  0  0  0  0  0  0  0  0  0  0  0
  154.0822  138.0479  155.9893 H   0  0  0  0  0  0  0  0  0  0  0  0
  152.9683  137.0943  156.9857 H   0  0  0  0  0  0  0  0  0  0  0  0
  150.0050  141.8678  154.3668 H   0  0  0  0  0  0  0  0  0  0  0  0
  148.5788  140.8770  154.3916 H   0  0  0  0  0  0  0  0  0  0  0  0
  148.2378  142.1011  156.3417 H   0  0  0  0  0  0  0  0  0  0  0  0
  149.0489  140.7105  157.0080 H   0  0  0  0  0  0  0  0  0  0  0  0
  150.2284  143.3811  156.6346 H   0  0  0  0  0  0  0  0  0  0  0  0
  152.8599  144.8026  157.6597 H   0  0  0  0  0  0  0  0  0  0  0  0
  151.3485  144.5466  156.8621 H   0  0  0  0  0  0  0  0  0  0  0  0
  151.0926  146.3316  158.5661 H   0  0  0  0  0  0  0  0  0  0  0  0
  150.1222  144.9528  159.0571 H   0  0  0  0  0  0  0  0  0  0  0  0
  152.6440  143.9383  161.5066 H   0  0  0  0  0  0  0  0  0  0  0  0
  151.0755  143.4850  160.8686 H   0  0  0  0  0  0  0  0  0  0  0  0
  153.7027  143.4662  159.2864 H   0  0  0  0  0  0  0  0  0  0  0  0
  153.7383  141.7296  160.9911 H   0  0  0  0  0  0  0  0  0  0  0  0
  153.5878  140.9914  159.4099 H   0  0  0  0  0  0  0  0  0  0  0  0
  152.1806  141.1078  160.4808 H   0  0  0  0  0  0  0  0  0  0  0  0
  149.4870  138.6016  153.2835 H   0  0  0  0  0  0  0  0  0  0  0  0
  1  2  1  0  0  0  0
  1 19  1  0  0  0  0
  1 20  1  0  0  0  0
  1 21  1  0  0  0  0
  2 18  1  0  0  0  0
  2  3  2  0  0  0  0
  3  4  1  0  0  0  0
  4  5  1  0  0  0  0
  4 17  2  0  0  0  0
  5  6  1  0  0  0  0
  5 22  1  0  0  0  0
  5 23  1  0  0  0  0
  6  7  1  0  0  0  0
  6 24  1  0  0  0  0
  6 25  1  0  0  0  0
  7  8  1  0  0  0  0
  7 26  1  0  0  0  0
  8  9  2  0  0  0  0
  8 10  1  0  0  0  0
 10 15  1  0  0  0  0
 10 11  1  0  0  0  0
 11 12  1  0  0  0  0
 11 27  1  0  0  0  0
 11 28  1  0  0  0  0
 12 13  1  0  0  0  0
 12 29  1  0  0  0  0
 12 30  1  0  0  0  0
 13 14  1  0  0  0  0
 14 15  1  0  0  0  0
 14 31  1  0  0  0  0
 14 32  1  0  0  0  0
 15 16  1  0  0  0  0
 15 33  1  0  0  0  0
 16 34  1  0  0  0  0
 16 35  1  0  0  0  0
 16 36  1  0  0  0  0
 17 18  1  0  0  0  0
 17 37  1  0  0  0  0
M  END
> <s_m_source_file>
AV-unprocessed.smi

> <i_m_source_file_index>
1553

> <i_lp_mmshare_version>
43012

> <i_f3d_flags>
0

> <s_epik_input>
W0NIM11jMW5jKFtjSF1zMSlbQ0gyXVtDSDJdW05IXUMoPU8pTjJbQ0gyXVtDSDJdT1tDSDJdW0NASF0yW0NIM10=

> <s_epik_cmdline>
J2VwaWtfcHl0aG9uJywgJy1waCcsICc3LjAnLCAnLXRuJywgJzgnLCAnLW1hJywgJzIwMCcsICctbWV0YWxfYmluZGluZycsICctaW1hZScsICc8aW5maWxlLm1hZT4nLCAnLW9tYWUnLCAnPG91dGZpbGUubWFlPic=

> <r_epik_Ionization_Penalty>
0.0020768

> <r_epik_Ionization_Penalty_Charging>
0

> <r_epik_Ionization_Penalty_Neutral>
0.0020768

> <r_epik_State_Penalty>
0.00139904

> <r_epik_Charging_Adjusted_Penalty>
0.00139904

> <i_epik_Tot_Q>
0

> <i_epik_Tot_abs_Q>
0

> <r_epik_Metal_State_Penalty>
-0

> <b_epik_Metal_Only>
0

> <s_lp_Force_Field>
OPLS_2005

> <r_lp_Energy>
28.2448

> <b_lp_Chiralities_Consistent>
1

> <s_lp_Variant>
AV-unprocessed.smi:1553-1

> <Gold.Version>
5.8.1

> <Gold.Id.Protein>
6NUR|6NUR_protein|mol2

> <Gold.PLP.Fitness>
46.4191

> <Gold.PLP.PLP>
-42.3919

> <Gold.PLP.part.hbond>
-1.0000

> <Gold.PLP.part.metal>
0.0000

> <Gold.PLP.part.buried>
-3.1447

> <Gold.PLP.part.nonpolar>
-37.9672

> <Gold.PLP.part.repulsive>
0.1551

> <Gold.PLP.ligand.clash>
0.1599

> <Gold.PLP.ligand.torsion>
0.5766

> <Gold.PLP.Chemscore.Hbond>
0.5866

> <Gold.PLP.Chemscore.CHOScore>
1.1451

> <Gold.PLP.Chemscore.Metal>
0.0000

> <Gold.Chemscore.Hbonds>
donor molecule, donor type, donor heavy atom, donor atom, acceptor molecule, acceptor atom, score
      L1  H     7    26       P1  8028  0.59
      L1  C    17    37       P1  7948  0.36
      L1  C    17    37       P1  7957  0.75

> <Gold.PLP.Chemscore.Internal.Correction>
0.1453

> <Gold.Rescore>
     Score         DG    S(hbond)    S(metal)    S(lipo)     H(rot)  DE(clash)    DE(int)     intcor
     15.73     -17.84       0.88        0.00     109.66       1.33       0.40       1.71       ----

> <Gold.Chemscore.Fitness>
15.7323

> <Gold.Chemscore.DG>
-17.8379

> <Gold.Chemscore.ZeroCoef>
-5.4800

> <Gold.Chemscore.Hbond>
0.8800

> <Gold.Chemscore.Metal>
0.0000

> <Gold.Chemscore.Lipo>
109.6562

> <Gold.Chemscore.Internal_Hbond>
0.0000

> <Gold.Chemscore.DEClash>
0.3983

> <Gold.Chemscore.DEInternal>
1.7073

> <Gold.Chemscore.Rot>
1.3325

> <Gold.Chemscore.Internal.Correction>
   9.000000E+99

> <Gold.Chemscore.Hbonds>
donor molecule, donor type, donor heavy atom, donor atom, acceptor molecule, acceptor atom, score
      L1  H     7    26       P1  8028  0.57

> <Gold.Chemscore.Hbond.Weighted>
-2.9392

> <Gold.Chemscore.Metal.Weighted>
-0.0000

> <Gold.Chemscore.Lipo.Weighted>
-12.8298

> <Gold.Chemscore.Internal_Hbond.Weighted>
0.0000

> <Gold.Chemscore.DEClash.Weighted>
0.3983

> <Gold.Chemscore.DEInternal.Weighted>
1.7073

> <Gold.Chemscore.Rot.Weighted>
3.4111

> <Gold.Chemscore.Internal.Correction.Weighted>
   9.000000E+99

> <Gold.Protein.RotatedTorsions>
[ 6907 6896 6895 6894 ] final  -55.18 input  -60.11 | X-H torsion
[ 7974 7965 7964 7962 ] final   78.66 input  175.53 | X-H torsion
[ 8008 7997 7996 7995 ] final  167.92 input   59.86 | X-H torsion
[ 10167 10162 10161 10158 ] final  -47.69 input  -65.29 | X-H torsion
[ 10718 10713 10712 10709 ] final  -31.81 input   66.30 | X-H torsion
[ 10763 10752 10751 10750 ] final   70.01 input  -60.55 | X-H torsion
[ 11005 11000 10999 10996 ] final  136.44 input  -57.11 | X-H torsion

> <Gold.Protein.ActiveResidues>
 VAL166  LYS551  ARG553  GLY616  TRP617  ASP618  TYR619  PRO620  LYS621  CYS622 
 ASP623  PHE694  ASN695  SER759  ASP760  ASP761  ALA762  ILE779  LEU786  VAL792 
 PHE793  MET794  SER795  GLU796  ALA797  LYS798  CYS799  TRP800  GLU811  SER814 

> <Gold.Protein.RotatedAtoms>
  150.8273  134.7511  159.6823 H   0  0  0  0  0  0  0  0  0  0  0  0  # atno 6907 bound_to 6896
  152.4383  134.5640  159.9912 H   0  0  0  0  0  0  0  0  0  0  0  0  # atno 6908 bound_to 6896
  151.5809  133.3340  159.3044 H   0  0  0  0  0  0  0  0  0  0  0  0  # atno 6909 bound_to 6896
  145.6742  139.2505  143.1851 H   0  0  0  0  0  0  0  0  0  0  0  0  # atno 7974 bound_to 7965
  156.1592  140.1604  156.8641 H   0  0  0  0  0  0  0  0  0  0  0  0  # atno 8008 bound_to 7997
  154.5144  140.0793  156.8088 H   0  0  0  0  0  0  0  0  0  0  0  0  # atno 8009 bound_to 7997
  155.3742  140.3402  155.4246 H   0  0  0  0  0  0  0  0  0  0  0  0  # atno 8010 bound_to 7997
  140.6764  143.2773  151.3963 H   0  0  0  0  0  0  0  0  0  0  0  0  # atno 10167 bound_to 10162
  156.3827  130.4359  149.7456 H   0  0  0  0  0  0  0  0  0  0  0  0  # atno 10718 bound_to 10713
  153.0318  135.5189  154.7375 H   0  0  0  0  0  0  0  0  0  0  0  0  # atno 10763 bound_to 10752
  154.6385  135.2909  155.0135 H   0  0  0  0  0  0  0  0  0  0  0  0  # atno 10764 bound_to 10752
  154.1061  135.6629  153.4929 H   0  0  0  0  0  0  0  0  0  0  0  0  # atno 10765 bound_to 10752
  140.0046  134.9464  157.0147 H   0  0  0  0  0  0  0  0  0  0  0  0  # atno 11005 bound_to 11000
  146.1019  140.7533  142.9545 LP  0  0  0  0  0  0  0  0  0  0  0  0  # atno 17320 bound_to 7965
  144.7047  140.3801  143.7128 LP  0  0  0  0  0  0  0  0  0  0  0  0  # atno 17321 bound_to 7965
  139.6059  144.1198  152.2248 LP  0  0  0  0  0  0  0  0  0  0  0  0  # atno 17342 bound_to 10162
  140.0597  144.5866  150.7272 LP  0  0  0  0  0  0  0  0  0  0  0  0  # atno 17343 bound_to 10162
  156.4541  130.7920  151.2941 LP  0  0  0  0  0  0  0  0  0  0  0  0  # atno 17370 bound_to 10713
  157.7493  131.0086  150.3236 LP  0  0  0  0  0  0  0  0  0  0  0  0  # atno 17371 bound_to 10713
  140.4665  134.1430  155.7197 LP  0  0  0  0  0  0  0  0  0  0  0  0  # atno 17394 bound_to 11000
  141.1667  133.8688  157.1693 LP  0  0  0  0  0  0  0  0  0  0  0  0  # atno 17395 bound_to 11000

$$$$
