AV-unprocessed.smi:2902|AV-procd|sdf|11157|dock7
  -GOLD-   2272016 43D 1   1.00000     0.00000
 Structure written by MMmdl.
 47 48  0  0  0  0  0  0  0  0  1 V2000
  150.6300  140.5204  155.5941 C   0  0  0  0  0  0  0  0  0  0  0  0
  150.6582  140.7133  157.1155 C   0  0  0  0  0  0  0  0  0  0  0  0
  149.8866  141.9663  157.5705 C   0  0  2  0  0  0  0  0  0  0  0  0
  150.2601  142.2448  158.9210 O   0  0  0  0  0  0  0  0  0  0  0  0
  151.4766  142.9615  159.1249 C   0  0  0  0  0  0  0  0  0  0  0  0
  151.5021  143.7753  160.4222 C   0  0  0  0  0  0  0  0  0  0  0  0
  152.5230  144.8906  160.1686 C   0  0  0  0  0  0  0  0  0  0  0  0
  152.6347  145.0345  158.6424 C   0  0  0  0  0  0  0  0  0  0  0  0
  151.6435  144.0298  158.0461 C   0  0  0  0  0  0  0  0  0  0  0  0
  148.3670  141.7569  157.4677 C   0  0  0  0  0  0  0  0  0  0  0  0
  147.8116  140.8802  158.1299 O   0  0  0  0  0  0  0  0  0  0  0  0
  147.7103  142.5882  156.6439 N   0  0  0  0  0  0  0  0  0  0  0  0
  146.2681  142.5953  156.4107 C   0  0  1  0  0  0  0  0  0  0  0  0
  145.6647  143.8883  156.9937 C   0  0  0  0  0  0  0  0  0  0  0  0
  145.9795  142.4081  154.8994 C   0  0  1  0  0  0  0  0  0  0  0  0
  146.6458  143.4840  154.0219 C   0  0  0  0  0  0  0  0  0  0  0  0
  146.3653  141.0827  154.4353 N   0  0  0  0  0  0  0  0  0  0  0  0
  146.0551  139.8703  154.9015 C   0  0  0  0  0  0  0  0  0  0  0  0
  146.6040  138.8760  154.2181 N   0  0  0  0  0  0  0  0  0  0  0  0
  147.2907  139.5954  153.2815 C   0  0  0  0  0  0  0  0  0  0  0  0
  147.1839  140.9212  153.3689 N   0  0  0  0  0  0  0  0  0  0  0  0
  151.1742  139.6207  155.3066 H   0  0  0  0  0  0  0  0  0  0  0  0
  151.0898  141.3649  155.0802 H   0  0  0  0  0  0  0  0  0  0  0  0
  149.6076  140.4219  155.2285 H   0  0  0  0  0  0  0  0  0  0  0  0
  150.2319  139.8263  157.5866 H   0  0  0  0  0  0  0  0  0  0  0  0
  151.6946  140.7699  157.4509 H   0  0  0  0  0  0  0  0  0  0  0  0
  150.1778  142.7964  156.9247 H   0  0  0  0  0  0  0  0  0  0  0  0
  152.3430  142.2997  159.0860 H   0  0  0  0  0  0  0  0  0  0  0  0
  150.5194  144.2159  160.5971 H   0  0  0  0  0  0  0  0  0  0  0  0
  151.7551  143.1715  161.2943 H   0  0  0  0  0  0  0  0  0  0  0  0
  152.2168  145.8227  160.6440 H   0  0  0  0  0  0  0  0  0  0  0  0
  153.4930  144.6159  160.5848 H   0  0  0  0  0  0  0  0  0  0  0  0
  152.4224  146.0510  158.3094 H   0  0  0  0  0  0  0  0  0  0  0  0
  153.6497  144.7928  158.3246 H   0  0  0  0  0  0  0  0  0  0  0  0
  151.9814  143.6177  157.0948 H   0  0  0  0  0  0  0  0  0  0  0  0
  150.6874  144.5254  157.8706 H   0  0  0  0  0  0  0  0  0  0  0  0
  148.2519  143.2805  156.1469 H   0  0  0  0  0  0  0  0  0  0  0  0
  145.8228  141.7509  156.9406 H   0  0  0  0  0  0  0  0  0  0  0  0
  144.5774  143.8974  156.9184 H   0  0  0  0  0  0  0  0  0  0  0  0
  146.0418  144.7694  156.4734 H   0  0  0  0  0  0  0  0  0  0  0  0
  145.9110  143.9969  158.0506 H   0  0  0  0  0  0  0  0  0  0  0  0
  144.9006  142.4983  154.7569 H   0  0  0  0  0  0  0  0  0  0  0  0
  146.2861  144.4833  154.2670 H   0  0  0  0  0  0  0  0  0  0  0  0
  146.4312  143.3138  152.9663 H   0  0  0  0  0  0  0  0  0  0  0  0
  147.7292  143.4819  154.1451 H   0  0  0  0  0  0  0  0  0  0  0  0
  145.4140  139.7124  155.7565 H   0  0  0  0  0  0  0  0  0  0  0  0
  147.8890  139.1280  152.5133 H   0  0  0  0  0  0  0  0  0  0  0  0
  1  2  1  0  0  0  0
  1 22  1  0  0  0  0
  1 23  1  0  0  0  0
  1 24  1  0  0  0  0
  2  3  1  0  0  0  0
  2 25  1  0  0  0  0
  2 26  1  0  0  0  0
  3  4  1  0  0  0  0
  3 10  1  0  0  0  0
  3 27  1  0  0  0  0
  4  5  1  0  0  0  0
  5  9  1  0  0  0  0
  5  6  1  0  0  0  0
  5 28  1  0  0  0  0
  6  7  1  0  0  0  0
  6 29  1  0  0  0  0
  6 30  1  0  0  0  0
  7  8  1  0  0  0  0
  7 31  1  0  0  0  0
  7 32  1  0  0  0  0
  8  9  1  0  0  0  0
  8 33  1  0  0  0  0
  8 34  1  0  0  0  0
  9 35  1  0  0  0  0
  9 36  1  0  0  0  0
 10 11  2  0  0  0  0
 10 12  1  0  0  0  0
 12 13  1  0  0  0  0
 12 37  1  0  0  0  0
 13 14  1  0  0  0  0
 13 15  1  0  0  0  0
 13 38  1  0  0  0  0
 14 39  1  0  0  0  0
 14 40  1  0  0  0  0
 14 41  1  0  0  0  0
 15 16  1  0  0  0  0
 15 17  1  0  0  0  0
 15 42  1  0  0  0  0
 16 43  1  0  0  0  0
 16 44  1  0  0  0  0
 16 45  1  0  0  0  0
 17 21  1  0  0  0  0
 17 18  1  0  0  0  0
 18 19  2  0  0  0  0
 18 46  1  0  0  0  0
 19 20  1  0  0  0  0
 20 21  2  0  0  0  0
 20 47  1  0  0  0  0
M  END
> <s_m_source_file>
AV-unprocessed.smi

> <i_m_source_file_index>
2902

> <i_lp_mmshare_version>
43012

> <i_f3d_flags>
0

> <s_epik_input>
W0NIMl0xW0NIMl1bQ0gyXVtDSDJdW0NIXTFPW0NAQEhdKFtDSDJdW0NIM10pQyg9TylbTkhdW0NASF0oW0NIM10pW0NASF0oW0NIM10pbjJbY0hdbltjSF1uMg==

> <s_epik_cmdline>
J2VwaWtfcHl0aG9uJywgJy1waCcsICc3LjAnLCAnLXRuJywgJzgnLCAnLW1hJywgJzIwMCcsICctbWV0YWxfYmluZGluZycsICctaW1hZScsICc8aW5maWxlLm1hZT4nLCAnLW9tYWUnLCAnPG91dGZpbGUubWFlPic=

> <r_lp_tautomer_probability>
1

> <r_epik_Ionization_Penalty>
6.95617e-05

> <r_epik_Ionization_Penalty_Charging>
0

> <r_epik_Ionization_Penalty_Neutral>
6.95617e-05

> <r_epik_State_Penalty>
-0

> <r_epik_Charging_Adjusted_Penalty>
0

> <i_epik_Tot_Q>
0

> <i_epik_Tot_abs_Q>
0

> <r_epik_Metal_State_Penalty>
-0

> <b_epik_Metal_Only>
0

> <s_lp_Force_Field>
OPLS_2005

> <r_lp_Energy>
29.96

> <b_lp_Chiralities_Consistent>
1

> <s_lp_Variant>
AV-unprocessed.smi:2902-7

> <Gold.Version>
5.8.1

> <Gold.Id.Protein>
6NUR|6NUR_protein|mol2

> <Gold.PLP.Fitness>
43.3607

> <Gold.PLP.PLP>
-36.4550

> <Gold.PLP.part.hbond>
-2.7059

> <Gold.PLP.part.metal>
0.0000

> <Gold.PLP.part.buried>
-6.1271

> <Gold.PLP.part.nonpolar>
-27.2730

> <Gold.PLP.part.repulsive>
0.3650

> <Gold.PLP.ligand.clash>
0.0000

> <Gold.PLP.ligand.torsion>
0.7544

> <Gold.PLP.Chemscore.Hbond>
1.0000

> <Gold.PLP.Chemscore.CHOScore>
1.7570

> <Gold.PLP.Chemscore.Metal>
0.0000

> <Gold.Chemscore.Hbonds>
donor molecule, donor type, donor heavy atom, donor atom, acceptor molecule, acceptor atom, score
      L1  H    12    37       P1  8028  1.00
      L1  C    20    47       P1  7957  1.00

> <Gold.PLP.Chemscore.Internal.Correction>
0.1433

> <Gold.Rescore>
     Score         DG    S(hbond)    S(metal)    S(lipo)     H(rot)  DE(clash)    DE(int)     intcor
     10.89     -11.56       0.68        0.00      91.38       2.69       0.26       0.42       ----

> <Gold.Chemscore.Fitness>
10.8889

> <Gold.Chemscore.DG>
-11.5603

> <Gold.Chemscore.ZeroCoef>
-5.4800

> <Gold.Chemscore.Hbond>
0.6838

> <Gold.Chemscore.Metal>
0.0000

> <Gold.Chemscore.Lipo>
91.3824

> <Gold.Chemscore.Internal_Hbond>
0.0000

> <Gold.Chemscore.DEClash>
0.2553

> <Gold.Chemscore.DEInternal>
0.4161

> <Gold.Chemscore.Rot>
2.6935

> <Gold.Chemscore.Internal.Correction>
   9.000000E+99

> <Gold.Chemscore.Hbonds>
donor molecule, donor type, donor heavy atom, donor atom, acceptor molecule, acceptor atom, score
      L1  H    12    37       P1  8028  0.60

> <Gold.Chemscore.Hbond.Weighted>
-2.2839

> <Gold.Chemscore.Metal.Weighted>
-0.0000

> <Gold.Chemscore.Lipo.Weighted>
-10.6917

> <Gold.Chemscore.Internal_Hbond.Weighted>
0.0000

> <Gold.Chemscore.DEClash.Weighted>
0.2553

> <Gold.Chemscore.DEInternal.Weighted>
0.4161

> <Gold.Chemscore.Rot.Weighted>
6.8954

> <Gold.Chemscore.Internal.Correction.Weighted>
   9.000000E+99

> <Gold.Protein.RotatedTorsions>
[ 6907 6896 6895 6894 ] final  138.61 input  -60.11 | X-H torsion
[ 7974 7965 7964 7962 ] final  116.68 input  175.53 | X-H torsion
[ 8008 7997 7996 7995 ] final -101.36 input   59.86 | X-H torsion
[ 10167 10162 10161 10158 ] final   47.08 input  -65.29 | X-H torsion
[ 10718 10713 10712 10709 ] final  116.35 input   66.30 | X-H torsion
[ 10763 10752 10751 10750 ] final -179.21 input  -60.55 | X-H torsion
[ 11005 11000 10999 10996 ] final  -71.13 input  -57.11 | X-H torsion

> <Gold.Protein.ActiveResidues>
 VAL166  LYS551  ARG553  GLY616  TRP617  ASP618  TYR619  PRO620  LYS621  CYS622 
 ASP623  PHE694  ASN695  SER759  ASP760  ASP761  ALA762  ILE779  LEU786  VAL792 
 PHE793  MET794  SER795  GLU796  ALA797  LYS798  CYS799  TRP800  GLU811  SER814 

> <Gold.Protein.RotatedAtoms>
  152.2646  133.5327  159.5401 H   0  0  0  0  0  0  0  0  0  0  0  0  # atno 6907 bound_to 6896
  150.7137  134.0783  159.3897 H   0  0  0  0  0  0  0  0  0  0  0  0  # atno 6908 bound_to 6896
  151.8699  135.0493  160.0529 H   0  0  0  0  0  0  0  0  0  0  0  0  # atno 6909 bound_to 6896
  145.1766  139.3072  143.4440 H   0  0  0  0  0  0  0  0  0  0  0  0  # atno 7974 bound_to 7965
  154.8415  140.0435  157.1544 H   0  0  0  0  0  0  0  0  0  0  0  0  # atno 8008 bound_to 7997
  154.9041  140.3004  155.5281 H   0  0  0  0  0  0  0  0  0  0  0  0  # atno 8009 bound_to 7997
  156.2992  140.2370  156.4073 H   0  0  0  0  0  0  0  0  0  0  0  0  # atno 8010 bound_to 7997
  140.3073  144.2862  150.6206 H   0  0  0  0  0  0  0  0  0  0  0  0  # atno 10167 bound_to 10162
  157.6166  131.1024  150.7460 H   0  0  0  0  0  0  0  0  0  0  0  0  # atno 10718 bound_to 10713
  154.5380  135.2804  155.1121 H   0  0  0  0  0  0  0  0  0  0  0  0  # atno 10763 bound_to 10752
  154.2615  135.6321  153.5280 H   0  0  0  0  0  0  0  0  0  0  0  0  # atno 10764 bound_to 10752
  152.9972  135.5606  154.5912 H   0  0  0  0  0  0  0  0  0  0  0  0  # atno 10765 bound_to 10752
  141.1587  133.6809  156.6859 H   0  0  0  0  0  0  0  0  0  0  0  0  # atno 11005 bound_to 11000
  146.3460  140.1931  142.8589 LP  0  0  0  0  0  0  0  0  0  0  0  0  # atno 17320 bound_to 7965
  145.0178  140.8769  143.5185 LP  0  0  0  0  0  0  0  0  0  0  0  0  # atno 17321 bound_to 7965
  140.5598  143.2193  151.7784 LP  0  0  0  0  0  0  0  0  0  0  0  0  # atno 17342 bound_to 10162
  139.4901  144.4363  151.9815 LP  0  0  0  0  0  0  0  0  0  0  0  0  # atno 17343 bound_to 10162
  156.7826  130.4864  149.5398 LP  0  0  0  0  0  0  0  0  0  0  0  0  # atno 17370 bound_to 10713
  156.1291  130.6165  151.0307 LP  0  0  0  0  0  0  0  0  0  0  0  0  # atno 17371 bound_to 10713
  140.3067  134.8119  157.4143 LP  0  0  0  0  0  0  0  0  0  0  0  0  # atno 17394 bound_to 11000
  140.1214  134.5215  155.8181 LP  0  0  0  0  0  0  0  0  0  0  0  0  # atno 17395 bound_to 11000

$$$$
