AV-unprocessed.smi:38|AV-procd|sdf|346|dock9
  -GOLD-   2262016183D 1   1.00000     0.00000
 Structure written by MMmdl.
 27 28  0  0  0  0  0  0  0  0  2 V2000
  153.2041  136.2195  158.3943 O   0  0  0  0  0  0  0  0  0  0  0  0
  152.7590  137.1273  157.6933 C   0  0  0  0  0  0  0  0  0  0  0  0
  152.6174  137.0150  156.3410 N   0  5  0  0  0  0  0  0  0  0  0  0
  152.1254  138.0248  155.5646 C   0  0  0  0  0  0  0  0  0  0  0  0
  151.9925  137.9305  154.3441 O   0  0  0  0  0  0  0  0  0  0  0  0
  151.7475  139.2486  156.1828 N   0  0  0  0  0  0  0  0  0  0  0  0
  151.2017  140.3654  155.3140 C   0  0  2  0  0  0  0  0  0  0  0  0
  150.4718  141.4158  156.1717 C   0  0  0  0  0  0  0  0  0  0  0  0
  149.1204  141.5484  155.4920 C   0  0  1  0  0  0  0  0  0  0  0  0
  149.1328  142.6087  154.5543 O   0  0  0  0  0  0  0  0  0  0  0  0
  148.9510  140.1812  154.8194 C   0  0  1  0  0  0  0  0  0  0  0  0
  147.9655  140.1009  153.6405 C   0  0  0  0  0  0  0  0  0  0  0  0
  148.0815  138.8558  152.9841 O   0  0  0  0  0  0  0  0  0  0  0  0
  150.2712  139.8511  154.4041 O   0  0  0  0  0  0  0  0  0  0  0  0
  151.8737  139.3872  157.5562 C   0  0  0  0  0  0  0  0  0  0  0  0
  152.3590  138.3862  158.3190 C   0  0  0  0  0  0  0  0  0  0  0  0
  152.4697  138.5517  159.6485 F   0  0  0  0  0  0  0  0  0  0  0  0
  152.0589  140.7575  154.7641 H   0  0  0  0  0  0  0  0  0  0  0  0
  148.3253  141.7415  156.2128 H   0  0  0  0  0  0  0  0  0  0  0  0
  148.6559  139.4558  155.5796 H   0  0  0  0  0  0  0  0  0  0  0  0
  150.3420  141.0379  157.1870 H   0  0  0  0  0  0  0  0  0  0  0  0
  151.0378  142.3470  156.2195 H   0  0  0  0  0  0  0  0  0  0  0  0
  149.1382  143.4262  155.0283 H   0  0  0  0  0  0  0  0  0  0  0  0
  146.9364  140.2497  153.9673 H   0  0  0  0  0  0  0  0  0  0  0  0
  148.1855  140.8896  152.9206 H   0  0  0  0  0  0  0  0  0  0  0  0
  148.6235  138.9697  152.2184 H   0  0  0  0  0  0  0  0  0  0  0  0
  151.5824  140.3040  158.0448 H   0  0  0  0  0  0  0  0  0  0  0  0
  1  2  2  0  0  0  0
  2 16  1  0  0  0  0
  2  3  1  0  0  0  0
  3  4  1  0  0  0  0
  4  5  2  0  0  0  0
  4  6  1  0  0  0  0
  6  7  1  0  0  0  0
  6 15  1  0  0  0  0
  7 18  1  0  0  0  0
  7 14  1  0  0  0  0
  7  8  1  0  0  0  0
  8  9  1  0  0  0  0
  8 21  1  0  0  0  0
  8 22  1  0  0  0  0
  9 19  1  0  0  0  0
  9 10  1  0  0  0  0
  9 11  1  0  0  0  0
 10 23  1  0  0  0  0
 11 20  1  0  0  0  0
 11 12  1  0  0  0  0
 11 14  1  0  0  0  0
 12 13  1  0  0  0  0
 12 24  1  0  0  0  0
 12 25  1  0  0  0  0
 13 26  1  0  0  0  0
 15 16  2  0  0  0  0
 15 27  1  0  0  0  0
 16 17  1  0  0  0  0
M  CHG  1   3  -1
M  END
> <s_m_source_file>
AV-unprocessed.smi

> <i_m_source_file_index>
38

> <i_lp_mmshare_version>
43012

> <i_f3d_flags>
0

> <s_epik_input>
Tz1jMVtuSF1jKD1PKW4oW2NIXWMxRilbQ0BIXTJbQ0gyXVtDQEhdKFtPSF0pW0NASF0oTzIpW0NIMl1bT0hd

> <s_epik_cmdline>
J2VwaWtfcHl0aG9uJywgJy1waCcsICc3LjAnLCAnLXRuJywgJzgnLCAnLW1hJywgJzIwMCcsICctbWV0YWxfYmluZGluZycsICctaW1hZScsICc8aW5maWxlLm1hZT4nLCAnLW9tYWUnLCAnPG91dGZpbGUubWFlPic=

> <r_epik_Ionization_Penalty>
1.68146

> <r_epik_Ionization_Penalty_Charging>
3.4211e-08

> <r_epik_Ionization_Penalty_Neutral>
1.68146

> <r_epik_State_Penalty>
1.78593

> <r_epik_Charging_Adjusted_Penalty>
1.78593

> <i_epik_Tot_Q>
-1

> <i_epik_Tot_abs_Q>
1

> <r_epik_Metal_State_Penalty>
0.0113696

> <b_epik_Metal_Only>
0

> <s_epik_Chemistry_Notes>
This compound contains an acetal/aminal-like group ( X-CH(R)-Y where X, Y are N, S, or O) that may be acid/base labile, releasing an aldehyde.

> <s_lp_Force_Field>
OPLS_2005

> <r_lp_Energy>
41.2481

> <b_lp_Chiralities_Consistent>
1

> <s_lp_Variant>
AV-unprocessed.smi:38-12

> <Gold.Version>
5.8.1

> <Gold.Id.Protein>
6NUR|6NUR_protein|mol2

> <Gold.PLP.Fitness>
37.6148

> <Gold.PLP.PLP>
-26.4320

> <Gold.PLP.part.hbond>
-7.3167

> <Gold.PLP.part.metal>
0.0000

> <Gold.PLP.part.buried>
-0.2389

> <Gold.PLP.part.nonpolar>
-18.6493

> <Gold.PLP.part.repulsive>
0.2998

> <Gold.PLP.ligand.clash>
0.0000

> <Gold.PLP.ligand.torsion>
0.4441

> <Gold.PLP.Chemscore.Hbond>
4.0225

> <Gold.PLP.Chemscore.CHOScore>
0.0000

> <Gold.PLP.Chemscore.Metal>
0.0000

> <Gold.Chemscore.Hbonds>
donor molecule, donor type, donor heavy atom, donor atom, acceptor molecule, acceptor atom, score
      L1  H    10    23       P1  8028  0.80
      L1  H    13    26       P1  7957  1.00
      P1  H  8011  8017       L1    10  0.02
      P1  H 10752 10765       L1     3  1.69

> <Gold.PLP.Chemscore.Internal.Correction>
0.0037

> <Gold.Rescore>
     Score         DG    S(hbond)    S(metal)    S(lipo)     H(rot)  DE(clash)    DE(int)     intcor
      8.77     -11.10       2.75        0.00      32.61       2.88       0.23       2.10       ----

> <Gold.Chemscore.Fitness>
8.7691

> <Gold.Chemscore.DG>
-11.0966

> <Gold.Chemscore.ZeroCoef>
-5.4800

> <Gold.Chemscore.Hbond>
2.7480

> <Gold.Chemscore.Metal>
0.0000

> <Gold.Chemscore.Lipo>
32.6050

> <Gold.Chemscore.Internal_Hbond>
0.0000

> <Gold.Chemscore.DEClash>
0.2286

> <Gold.Chemscore.DEInternal>
2.0988

> <Gold.Chemscore.Rot>
2.8815

> <Gold.Chemscore.Internal.Correction>
   9.000000E+99

> <Gold.Chemscore.Hbonds>
donor molecule, donor type, donor heavy atom, donor atom, acceptor molecule, acceptor atom, score
      L1  H    10    23       P1  8028  0.79
      L1  H    13    26       P1  7957  0.94
      P1  H  6896  6909       L1     1  0.01
      P1  H  8011  8017       L1    10  0.03
      P1  H 10752 10765       L1     3  0.52

> <Gold.Chemscore.Hbond.Weighted>
-9.1783

> <Gold.Chemscore.Metal.Weighted>
-0.0000

> <Gold.Chemscore.Lipo.Weighted>
-3.8148

> <Gold.Chemscore.Internal_Hbond.Weighted>
0.0000

> <Gold.Chemscore.DEClash.Weighted>
0.2286

> <Gold.Chemscore.DEInternal.Weighted>
2.0988

> <Gold.Chemscore.Rot.Weighted>
7.3765

> <Gold.Chemscore.Internal.Correction.Weighted>
   9.000000E+99

> <Gold.Protein.RotatedTorsions>
[ 6907 6896 6895 6894 ] final -157.21 input  -60.11 | X-H torsion
[ 7974 7965 7964 7962 ] final  -98.25 input  175.53 | X-H torsion
[ 8008 7997 7996 7995 ] final  179.69 input   59.86 | X-H torsion
[ 10167 10162 10161 10158 ] final  168.56 input  -65.29 | X-H torsion
[ 10718 10713 10712 10709 ] final  134.23 input   66.30 | X-H torsion
[ 10763 10752 10751 10750 ] final -145.90 input  -60.55 | X-H torsion
[ 11005 11000 10999 10996 ] final  -62.24 input  -57.11 | X-H torsion

> <Gold.Protein.ActiveResidues>
 VAL166  LYS551  ARG553  GLY616  TRP617  ASP618  TYR619  PRO620  LYS621  CYS622 
 ASP623  PHE694  ASN695  SER759  ASP760  ASP761  ALA762  ILE779  LEU786  VAL792 
 PHE793  MET794  SER795  GLU796  ALA797  LYS798  CYS799  TRP800  GLU811  SER814 

> <Gold.Protein.RotatedAtoms>
  151.2994  133.4129  159.2638 H   0  0  0  0  0  0  0  0  0  0  0  0  # atno 6907 bound_to 6896
  151.0208  134.9468  159.8069 H   0  0  0  0  0  0  0  0  0  0  0  0  # atno 6908 bound_to 6896
  152.5323  134.2957  159.9112 H   0  0  0  0  0  0  0  0  0  0  0  0  # atno 6909 bound_to 6896
  145.3230  140.9426  143.2704 H   0  0  0  0  0  0  0  0  0  0  0  0  # atno 7974 bound_to 7965
  156.0405  140.1302  157.0161 H   0  0  0  0  0  0  0  0  0  0  0  0  # atno 8008 bound_to 7997
  154.4389  140.1031  156.6300 H   0  0  0  0  0  0  0  0  0  0  0  0  # atno 8009 bound_to 7997
  155.5674  140.3466  155.4509 H   0  0  0  0  0  0  0  0  0  0  0  0  # atno 8010 bound_to 7997
  139.4971  144.3801  151.9631 H   0  0  0  0  0  0  0  0  0  0  0  0  # atno 10167 bound_to 10162
  157.4693  131.1079  150.9822 H   0  0  0  0  0  0  0  0  0  0  0  0  # atno 10718 bound_to 10713
  154.8362  135.3401  154.6577 H   0  0  0  0  0  0  0  0  0  0  0  0  # atno 10763 bound_to 10752
  153.7192  135.6959  153.5022 H   0  0  0  0  0  0  0  0  0  0  0  0  # atno 10764 bound_to 10752
  153.2394  135.4389  155.0635 H   0  0  0  0  0  0  0  0  0  0  0  0  # atno 10765 bound_to 10752
  141.1353  133.6638  156.5498 H   0  0  0  0  0  0  0  0  0  0  0  0  # atno 11005 bound_to 11000
  144.8924  139.4757  143.6671 LP  0  0  0  0  0  0  0  0  0  0  0  0  # atno 17320 bound_to 7965
  146.3075  139.7630  142.9045 LP  0  0  0  0  0  0  0  0  0  0  0  0  # atno 17321 bound_to 7965
  140.3237  144.3397  150.6003 LP  0  0  0  0  0  0  0  0  0  0  0  0  # atno 17342 bound_to 10162
  140.5701  143.2182  151.7613 LP  0  0  0  0  0  0  0  0  0  0  0  0  # atno 17343 bound_to 10162
  157.0593  130.5819  149.5383 LP  0  0  0  0  0  0  0  0  0  0  0  0  # atno 17370 bound_to 10713
  156.0066  130.5153  150.7849 LP  0  0  0  0  0  0  0  0  0  0  0  0  # atno 17371 bound_to 10713
  140.4073  134.7304  157.4815 LP  0  0  0  0  0  0  0  0  0  0  0  0  # atno 17394 bound_to 11000
  140.0453  134.6209  155.8929 LP  0  0  0  0  0  0  0  0  0  0  0  0  # atno 17395 bound_to 11000

$$$$
