AV-unprocessed.smi:903|AV-procd|sdf|4096|dock7
  -GOLD-   22720 1583D 1   1.00000     0.00000
 Structure written by MMmdl.
 28 29  0  0  0  0  0  0  0  0  2 V2000
  152.1431  136.5876  158.6603 O   0  0  0  0  0  0  0  0  0  0  0  0
  151.9604  136.7801  157.4388 C   0  0  0  0  0  0  0  0  0  0  0  0
  151.9924  135.8285  156.6248 O   0  5  0  0  0  0  0  0  0  0  0  0
  151.6941  138.1735  156.9088 C   0  0  0  0  0  0  0  0  0  0  0  0
  151.8427  139.1706  157.8169 N   0  0  0  0  0  0  0  0  0  0  0  0
  151.6306  140.4567  157.4530 C   0  0  0  0  0  0  0  0  0  0  0  0
  151.7898  141.4524  158.3947 O   0  0  0  0  0  0  0  0  0  0  0  0
  151.2718  142.7475  158.1052 C   0  0  0  0  0  0  0  0  0  0  0  0
  152.0401  143.7838  158.9340 C   0  0  1  0  0  0  0  0  0  0  0  0
  151.4114  145.1749  158.9078 C   0  0  0  0  0  0  0  0  0  0  0  0
  151.9677  145.7828  160.1750 C   0  0  0  0  0  0  0  0  0  0  0  0
  151.9583  144.5916  161.1299 C   0  0  0  0  0  0  0  0  0  0  0  0
  152.0369  143.4251  160.3132 O   0  0  0  0  0  0  0  0  0  0  0  0
  151.2531  140.8159  156.1480 C   0  0  0  0  0  0  0  0  0  0  0  0
  151.0949  139.7968  155.1937 C   0  0  0  0  0  0  0  0  0  0  0  0
  151.3142  138.4540  155.5615 C   0  0  0  0  0  0  0  0  0  0  0  0
  151.0990  137.2549  154.3300 Cl  0  0  0  0  0  0  0  0  0  0  0  0
  151.4081  142.9610  157.0436 H   0  0  0  0  0  0  0  0  0  0  0  0
  150.2045  142.8056  158.3258 H   0  0  0  0  0  0  0  0  0  0  0  0
  153.0747  143.8536  158.5936 H   0  0  0  0  0  0  0  0  0  0  0  0
  151.6680  145.7413  158.0123 H   0  0  0  0  0  0  0  0  0  0  0  0
  150.3243  145.1075  158.9714 H   0  0  0  0  0  0  0  0  0  0  0  0
  152.9911  146.1214  160.0074 H   0  0  0  0  0  0  0  0  0  0  0  0
  151.3833  146.6277  160.5400 H   0  0  0  0  0  0  0  0  0  0  0  0
  152.7815  144.6311  161.8435 H   0  0  0  0  0  0  0  0  0  0  0  0
  151.0247  144.5570  161.6921 H   0  0  0  0  0  0  0  0  0  0  0  0
  151.0898  141.8502  155.8839 H   0  0  0  0  0  0  0  0  0  0  0  0
  150.8068  140.0450  154.1828 H   0  0  0  0  0  0  0  0  0  0  0  0
  1  2  2  0  0  0  0
  2  3  1  0  0  0  0
  2  4  1  0  0  0  0
  4 16  1  0  0  0  0
  4  5  2  0  0  0  0
  5  6  1  0  0  0  0
  6  7  1  0  0  0  0
  6 14  2  0  0  0  0
  7  8  1  0  0  0  0
  8  9  1  0  0  0  0
  8 18  1  0  0  0  0
  8 19  1  0  0  0  0
  9 13  1  0  0  0  0
  9 10  1  0  0  0  0
  9 20  1  0  0  0  0
 10 11  1  0  0  0  0
 10 21  1  0  0  0  0
 10 22  1  0  0  0  0
 11 12  1  0  0  0  0
 11 23  1  0  0  0  0
 11 24  1  0  0  0  0
 12 13  1  0  0  0  0
 12 25  1  0  0  0  0
 12 26  1  0  0  0  0
 14 15  1  0  0  0  0
 14 27  1  0  0  0  0
 15 16  2  0  0  0  0
 15 28  1  0  0  0  0
 16 17  1  0  0  0  0
M  CHG  1   3  -1
M  END
> <s_m_source_file>
AV-unprocessed.smi

> <i_m_source_file_index>
903

> <i_lp_mmshare_version>
43012

> <i_f3d_flags>
0

> <s_epik_input>
Tz1DKFtPSF0pYzFuYyhbY0hdW2NIXWMxQ2wpT1tDSDJdW0NAQEhdMltDSDJdW0NIMl1bQ0gyXU8y

> <s_epik_cmdline>
J2VwaWtfcHl0aG9uJywgJy1waCcsICc3LjAnLCAnLXRuJywgJzgnLCAnLW1hJywgJzIwMCcsICctbWV0YWxfYmluZGluZycsICctaW1hZScsICc8aW5maWxlLm1hZT4nLCAnLW9tYWUnLCAnPG91dGZpbGUubWFlPic=

> <r_lp_tautomer_probability>
1

> <r_epik_Ionization_Penalty>
1.22588e-05

> <r_epik_Ionization_Penalty_Charging>
1.01343e-05

> <r_epik_Ionization_Penalty_Neutral>
2.12445e-06

> <r_epik_State_Penalty>
-0

> <r_epik_Charging_Adjusted_Penalty>
1.01343e-05

> <i_epik_Tot_Q>
-1

> <i_epik_Tot_abs_Q>
1

> <r_epik_Metal_State_Penalty>
-0

> <b_epik_Metal_Only>
0

> <s_lp_Force_Field>
OPLS_2005

> <r_lp_Energy>
26.0246

> <b_lp_Chiralities_Consistent>
1

> <s_lp_Variant>
AV-unprocessed.smi:903-2

> <Gold.Version>
5.8.1

> <Gold.Id.Protein>
6NUR|6NUR_protein|mol2

> <Gold.PLP.Fitness>
42.2356

> <Gold.PLP.PLP>
-32.5686

> <Gold.PLP.part.hbond>
-2.0000

> <Gold.PLP.part.metal>
0.0000

> <Gold.PLP.part.buried>
-2.4487

> <Gold.PLP.part.nonpolar>
-28.8004

> <Gold.PLP.part.repulsive>
0.0474

> <Gold.PLP.ligand.clash>
0.0031

> <Gold.PLP.ligand.torsion>
0.3774

> <Gold.PLP.Chemscore.Hbond>
3.4720

> <Gold.PLP.Chemscore.CHOScore>
0.0000

> <Gold.PLP.Chemscore.Metal>
0.0000

> <Gold.Chemscore.Hbonds>
donor molecule, donor type, donor heavy atom, donor atom, acceptor molecule, acceptor atom, score
      P1  H  6896  6908       L1     1  1.38
      P1  H 10752 10765       L1     3  2.00

> <Gold.PLP.Chemscore.Internal.Correction>
0.0089

> <Gold.Rescore>
     Score         DG    S(hbond)    S(metal)    S(lipo)     H(rot)  DE(clash)    DE(int)     intcor
     15.70     -17.83       1.73        0.00      89.23       1.51       0.47       1.67       ----

> <Gold.Chemscore.Fitness>
15.6991

> <Gold.Chemscore.DG>
-17.8342

> <Gold.Chemscore.ZeroCoef>
-5.4800

> <Gold.Chemscore.Hbond>
1.7299

> <Gold.Chemscore.Metal>
0.0000

> <Gold.Chemscore.Lipo>
89.2341

> <Gold.Chemscore.Internal_Hbond>
0.0000

> <Gold.Chemscore.DEClash>
0.4660

> <Gold.Chemscore.DEInternal>
1.6691

> <Gold.Chemscore.Rot>
1.5094

> <Gold.Chemscore.Internal.Correction>
   9.000000E+99

> <Gold.Chemscore.Hbonds>
donor molecule, donor type, donor heavy atom, donor atom, acceptor molecule, acceptor atom, score
      P1  H  6896  6908       L1     1  0.67
      P1  H 10752 10765       L1     3  0.98

> <Gold.Chemscore.Hbond.Weighted>
-5.7779

> <Gold.Chemscore.Metal.Weighted>
-0.0000

> <Gold.Chemscore.Lipo.Weighted>
-10.4404

> <Gold.Chemscore.Internal_Hbond.Weighted>
0.0000

> <Gold.Chemscore.DEClash.Weighted>
0.4660

> <Gold.Chemscore.DEInternal.Weighted>
1.6691

> <Gold.Chemscore.Rot.Weighted>
3.8641

> <Gold.Chemscore.Internal.Correction.Weighted>
   9.000000E+99

> <Gold.Protein.RotatedTorsions>
[ 6907 6896 6895 6894 ] final -108.99 input  -60.11 | X-H torsion
[ 7974 7965 7964 7962 ] final -142.96 input  175.53 | X-H torsion
[ 8008 7997 7996 7995 ] final  -32.34 input   59.86 | X-H torsion
[ 10167 10162 10161 10158 ] final   79.77 input  -65.29 | X-H torsion
[ 10718 10713 10712 10709 ] final -131.42 input   66.30 | X-H torsion
[ 10763 10752 10751 10750 ] final -136.76 input  -60.55 | X-H torsion
[ 11005 11000 10999 10996 ] final -117.21 input  -57.11 | X-H torsion

> <Gold.Protein.ActiveResidues>
 VAL166  LYS551  ARG553  GLY616  TRP617  ASP618  TYR619  PRO620  LYS621  CYS622 
 ASP623  PHE694  ASN695  SER759  ASP760  ASP761  ALA762  ILE779  LEU786  VAL792 
 PHE793  MET794  SER795  GLU796  ALA797  LYS798  CYS799  TRP800  GLU811  SER814 

> <Gold.Protein.RotatedAtoms>
  150.7535  133.9595  159.3510 H   0  0  0  0  0  0  0  0  0  0  0  0  # atno 6907 bound_to 6896
  151.7519  135.0828  160.0341 H   0  0  0  0  0  0  0  0  0  0  0  0  # atno 6908 bound_to 6896
  152.3460  133.6086  159.5946 H   0  0  0  0  0  0  0  0  0  0  0  0  # atno 6909 bound_to 6896
  144.8405  140.5894  143.5456 H   0  0  0  0  0  0  0  0  0  0  0  0  # atno 7974 bound_to 7965
  154.4183  140.1740  156.1712 H   0  0  0  0  0  0  0  0  0  0  0  0  # atno 8008 bound_to 7997
  155.9759  140.3382  155.6594 H   0  0  0  0  0  0  0  0  0  0  0  0  # atno 8009 bound_to 7997
  155.6564  140.0696  157.2560 H   0  0  0  0  0  0  0  0  0  0  0  0  # atno 8010 bound_to 7997
  139.9568  144.5988  150.8109 H   0  0  0  0  0  0  0  0  0  0  0  0  # atno 10167 bound_to 10162
  156.2243  130.6998  151.0790 H   0  0  0  0  0  0  0  0  0  0  0  0  # atno 10718 bound_to 10713
  154.8677  135.3663  154.5113 H   0  0  0  0  0  0  0  0  0  0  0  0  # atno 10763 bound_to 10752
  153.5748  135.7020  153.5493 H   0  0  0  0  0  0  0  0  0  0  0  0  # atno 10764 bound_to 10752
  153.3509  135.4072  155.1608 H   0  0  0  0  0  0  0  0  0  0  0  0  # atno 10765 bound_to 10752
  141.0370  133.9894  157.3055 H   0  0  0  0  0  0  0  0  0  0  0  0  # atno 11005 bound_to 11000
  145.4705  139.1504  143.3817 LP  0  0  0  0  0  0  0  0  0  0  0  0  # atno 17320 bound_to 7965
  146.2698  140.4838  142.8819 LP  0  0  0  0  0  0  0  0  0  0  0  0  # atno 17321 bound_to 7965
  140.7566  143.3069  151.2941 LP  0  0  0  0  0  0  0  0  0  0  0  0  # atno 17342 bound_to 10162
  139.6585  144.0232  152.2676 LP  0  0  0  0  0  0  0  0  0  0  0  0  # atno 17343 bound_to 10162
  157.7103  131.0737  150.6525 LP  0  0  0  0  0  0  0  0  0  0  0  0  # atno 17370 bound_to 10713
  156.6590  130.4506  149.5694 LP  0  0  0  0  0  0  0  0  0  0  0  0  # atno 17371 bound_to 10713
  139.9248  135.0201  156.8195 LP  0  0  0  0  0  0  0  0  0  0  0  0  # atno 17394 bound_to 11000
  140.6304  133.9911  155.7659 LP  0  0  0  0  0  0  0  0  0  0  0  0  # atno 17395 bound_to 11000

$$$$
