AV-unprocessed.smi:103|AV-procd|sdf|981|dock1
  -GOLD-   2262017543D 1   1.00000     0.00000
 Structure written by MMmdl.
 53 55  0  0  0  0  0  0  0  0  1 V2000
  146.0938  137.0013  161.7718 C   0  0  0  0  0  0  0  0  0  0  0  0
  147.5111  136.8580  161.2333 C   0  0  0  0  0  0  0  0  0  0  0  0
  148.4728  136.7320  161.9913 O   0  0  0  0  0  0  0  0  0  0  0  0
  147.5539  136.8787  159.8896 O   0  0  0  0  0  0  0  0  0  0  0  0
  148.5856  136.2003  159.1872 C   0  0  0  0  0  0  0  0  0  0  0  0
  149.8440  137.0801  159.1183 C   0  0  2  0  0  0  0  0  0  0  0  0
  149.4908  138.4592  159.1283 O   0  0  0  0  0  0  0  0  0  0  0  0
  149.4195  138.9194  157.8242 C   0  0  1  0  0  0  0  0  0  0  0  0
  149.4571  140.4309  157.8422 N   0  0  0  0  0  0  0  0  0  0  0  0
  148.4343  141.3205  157.5430 C   0  0  0  0  0  0  0  0  0  0  0  0
  146.7509  140.9395  157.0459 S   0  0  0  0  0  0  0  0  0  0  0  0
  146.1574  142.5389  156.3578 C   0  0  0  0  0  0  0  0  0  0  0  0
  146.8184  139.9336  155.9769 O   0  0  0  0  0  0  0  0  0  0  0  0
  145.9985  140.6546  158.2783 O   0  0  0  0  0  0  0  0  0  0  0  0
  148.7292  142.5906  157.5717 N   0  0  0  0  0  0  0  0  0  0  0  0
  150.0672  142.6011  157.9180 C   0  0  0  0  0  0  0  0  0  0  0  0
  151.0134  143.6376  158.1203 C   0  0  0  0  0  0  0  0  0  0  0  0
  150.7099  144.9374  158.0007 N   0  0  0  0  0  0  0  0  0  0  0  0
  152.2825  143.3029  158.4442 N   0  0  0  0  0  0  0  0  0  0  0  0
  152.6092  142.0140  158.5611 C   0  0  0  0  0  0  0  0  0  0  0  0
  151.8318  140.9412  158.4013 N   0  0  0  0  0  0  0  0  0  0  0  0
  150.5433  141.2672  158.0820 C   0  0  0  0  0  0  0  0  0  0  0  0
  150.5902  138.2335  157.1191 C   0  0  2  0  0  0  0  0  0  0  0  0
  150.3212  138.1087  155.7280 O   0  0  0  0  0  0  0  0  0  0  0  0
  150.4331  139.1768  154.9192 C   0  0  0  0  0  0  0  0  0  0  0  0
  149.4761  139.1112  153.7368 C   0  0  0  0  0  0  0  0  0  0  0  0
  151.2010  140.1263  155.0737 O   0  0  0  0  0  0  0  0  0  0  0  0
  150.6098  136.8705  157.8006 C   0  0  1  0  0  0  0  0  0  0  0  0
  151.9578  136.4833  158.0343 O   0  0  0  0  0  0  0  0  0  0  0  0
  152.7701  137.2652  158.7642 C   0  0  0  0  0  0  0  0  0  0  0  0
  154.1465  136.6451  158.9620 C   0  0  0  0  0  0  0  0  0  0  0  0
  152.4843  138.3649  159.2381 O   0  0  0  0  0  0  0  0  0  0  0  0
  145.6386  136.0182  161.8929 H   0  0  0  0  0  0  0  0  0  0  0  0
  145.4783  137.5873  161.0889 H   0  0  0  0  0  0  0  0  0  0  0  0
  146.1037  137.5001  162.7410 H   0  0  0  0  0  0  0  0  0  0  0  0
  148.8112  135.2910  159.7448 H   0  0  0  0  0  0  0  0  0  0  0  0
  148.2848  135.8818  158.1882 H   0  0  0  0  0  0  0  0  0  0  0  0
  150.4811  136.8762  159.9802 H   0  0  0  0  0  0  0  0  0  0  0  0
  148.4576  138.6648  157.3805 H   0  0  0  0  0  0  0  0  0  0  0  0
  145.1083  142.4415  156.0802 H   0  0  0  0  0  0  0  0  0  0  0  0
  146.7330  142.8056  155.4745 H   0  0  0  0  0  0  0  0  0  0  0  0
  146.2612  143.3189  157.1114 H   0  0  0  0  0  0  0  0  0  0  0  0
  149.7698  145.2139  157.7559 H   0  0  0  0  0  0  0  0  0  0  0  0
  151.4200  145.6374  158.1593 H   0  0  0  0  0  0  0  0  0  0  0  0
  153.6382  141.8122  158.8195 H   0  0  0  0  0  0  0  0  0  0  0  0
  151.5108  138.7721  157.3449 H   0  0  0  0  0  0  0  0  0  0  0  0
  148.4468  139.2193  154.0790 H   0  0  0  0  0  0  0  0  0  0  0  0
  149.5732  138.1554  153.2217 H   0  0  0  0  0  0  0  0  0  0  0  0
  149.6902  139.9097  153.0263 H   0  0  0  0  0  0  0  0  0  0  0  0
  150.0935  136.1412  157.1732 H   0  0  0  0  0  0  0  0  0  0  0  0
  154.0733  135.7571  159.5902 H   0  0  0  0  0  0  0  0  0  0  0  0
  154.8213  137.3543  159.4417 H   0  0  0  0  0  0  0  0  0  0  0  0
  154.5747  136.3566  158.0019 H   0  0  0  0  0  0  0  0  0  0  0  0
  1  2  1  0  0  0  0
  1 33  1  0  0  0  0
  1 34  1  0  0  0  0
  1 35  1  0  0  0  0
  2  3  2  0  0  0  0
  2  4  1  0  0  0  0
  4  5  1  0  0  0  0
  5  6  1  0  0  0  0
  5 36  1  0  0  0  0
  5 37  1  0  0  0  0
  6 28  1  0  0  0  0
  6  7  1  0  0  0  0
  6 38  1  0  0  0  0
  7  8  1  0  0  0  0
  8  9  1  0  0  0  0
  8 23  1  0  0  0  0
  8 39  1  0  0  0  0
  9 22  1  0  0  0  0
  9 10  1  0  0  0  0
 10 11  1  0  0  0  0
 10 15  2  0  0  0  0
 11 12  1  0  0  0  0
 11 13  2  0  0  0  0
 11 14  2  0  0  0  0
 12 40  1  0  0  0  0
 12 41  1  0  0  0  0
 12 42  1  0  0  0  0
 15 16  1  0  0  0  0
 16 22  2  0  0  0  0
 16 17  1  0  0  0  0
 17 18  1  0  0  0  0
 17 19  2  0  0  0  0
 18 43  1  0  0  0  0
 18 44  1  0  0  0  0
 19 20  1  0  0  0  0
 20 21  2  0  0  0  0
 20 45  1  0  0  0  0
 21 22  1  0  0  0  0
 23 24  1  0  0  0  0
 23 28  1  0  0  0  0
 23 46  1  0  0  0  0
 24 25  1  0  0  0  0
 25 26  1  0  0  0  0
 25 27  2  0  0  0  0
 26 47  1  0  0  0  0
 26 48  1  0  0  0  0
 26 49  1  0  0  0  0
 28 29  1  0  0  0  0
 28 50  1  0  0  0  0
 29 30  1  0  0  0  0
 30 31  1  0  0  0  0
 30 32  2  0  0  0  0
 31 51  1  0  0  0  0
 31 52  1  0  0  0  0
 31 53  1  0  0  0  0
M  END
> <s_m_source_file>
AV-unprocessed.smi

> <i_m_source_file_index>
103

> <i_lp_mmshare_version>
43012

> <i_f3d_flags>
0

> <s_epik_input>
W0NIM11DKD1PKU9bQ0gyXVtDQEBIXTFPW0NASF0oW0NAQEhdKE9DKD1PKVtDSDNdKVtDQEhdMU9DKD1PKVtDSDNdKW4oYyhuMilTKD1PKSg9TylbQ0gzXSljKGMyMyluW2NIXW5jM1tOSDJd

> <s_epik_cmdline>
J2VwaWtfcHl0aG9uJywgJy1waCcsICc3LjAnLCAnLXRuJywgJzgnLCAnLW1hJywgJzIwMCcsICctbWV0YWxfYmluZGluZycsICctaW1hZScsICc8aW5maWxlLm1hZT4nLCAnLW9tYWUnLCAnPG91dGZpbGUubWFlPic=

> <r_lp_tautomer_probability>
1

> <r_epik_Ionization_Penalty>
1.51338e-05

> <r_epik_Ionization_Penalty_Charging>
0

> <r_epik_Ionization_Penalty_Neutral>
1.51338e-05

> <r_epik_State_Penalty>
-0

> <r_epik_Charging_Adjusted_Penalty>
0

> <i_epik_Tot_Q>
0

> <i_epik_Tot_abs_Q>
0

> <r_epik_Metal_State_Penalty>
-0

> <b_epik_Metal_Only>
0

> <s_epik_Chemistry_Notes>
This compound has an ester and may undergo hydrolysis at high or low pH. This compound contains an acetal/aminal-like group ( X-CH(R)-Y where X, Y are N, S, or O) that may be acid/base labile, releasing an aldehyde.

> <s_lp_Force_Field>
OPLS_2005

> <r_lp_Energy>
16.7775

> <b_lp_Chiralities_Consistent>
1

> <s_lp_Variant>
AV-unprocessed.smi:103-5

> <Gold.Version>
5.8.1

> <Gold.Id.Protein>
6NUR|6NUR_protein|mol2

> <Gold.PLP.Fitness>
39.6579

> <Gold.PLP.PLP>
-34.1414

> <Gold.PLP.part.hbond>
-7.2509

> <Gold.PLP.part.metal>
0.0000

> <Gold.PLP.part.buried>
-4.2008

> <Gold.PLP.part.nonpolar>
-23.9368

> <Gold.PLP.part.repulsive>
1.3350

> <Gold.PLP.ligand.clash>
0.0000

> <Gold.PLP.ligand.torsion>
2.9185

> <Gold.PLP.Chemscore.Hbond>
3.0000

> <Gold.PLP.Chemscore.CHOScore>
0.0000

> <Gold.PLP.Chemscore.Metal>
0.0000

> <Gold.Chemscore.Hbonds>
donor molecule, donor type, donor heavy atom, donor atom, acceptor molecule, acceptor atom, score
      L1  H    18    43       P1  8029  0.53
      P1  H  6931  6943       L1     3  0.95
      P1  H  7989  7998       L1    27  1.00

> <Gold.PLP.Chemscore.Internal.Correction>
2.3535

> <Gold.Rescore>
     Score         DG    S(hbond)    S(metal)    S(lipo)     H(rot)  DE(clash)    DE(int)     intcor
      0.47      -7.57       2.62        0.00      35.82       4.25       1.36       5.74       ----

> <Gold.Chemscore.Fitness>
0.4693

> <Gold.Chemscore.DG>
-7.5660

> <Gold.Chemscore.ZeroCoef>
-5.4800

> <Gold.Chemscore.Hbond>
2.6238

> <Gold.Chemscore.Metal>
0.0000

> <Gold.Chemscore.Lipo>
35.8215

> <Gold.Chemscore.Internal_Hbond>
0.0000

> <Gold.Chemscore.DEClash>
1.3606

> <Gold.Chemscore.DEInternal>
5.7360

> <Gold.Chemscore.Rot>
4.2456

> <Gold.Chemscore.Internal.Correction>
   9.000000E+99

> <Gold.Chemscore.Hbonds>
donor molecule, donor type, donor heavy atom, donor atom, acceptor molecule, acceptor atom, score
      L1  H    18    43       P1  8029  0.03
      P1  H  6931  6943       L1     3  0.21
      P1  H  7989  7998       L1    27  0.81

> <Gold.Chemscore.Hbond.Weighted>
-8.7635

> <Gold.Chemscore.Metal.Weighted>
-0.0000

> <Gold.Chemscore.Lipo.Weighted>
-4.1911

> <Gold.Chemscore.Internal_Hbond.Weighted>
0.0000

> <Gold.Chemscore.DEClash.Weighted>
1.3606

> <Gold.Chemscore.DEInternal.Weighted>
5.7360

> <Gold.Chemscore.Rot.Weighted>
10.8687

> <Gold.Chemscore.Internal.Correction.Weighted>
   9.000000E+99

> <Gold.Protein.RotatedTorsions>
[ 6907 6896 6895 6894 ] final  -69.40 input  -60.11 | X-H torsion
[ 7974 7965 7964 7962 ] final   -6.40 input  175.53 | X-H torsion
[ 8008 7997 7996 7995 ] final  -14.34 input   59.86 | X-H torsion
[ 10167 10162 10161 10158 ] final   45.39 input  -65.29 | X-H torsion
[ 10718 10713 10712 10709 ] final -149.80 input   66.30 | X-H torsion
[ 10763 10752 10751 10750 ] final -167.04 input  -60.55 | X-H torsion
[ 11005 11000 10999 10996 ] final  -76.88 input  -57.11 | X-H torsion

> <Gold.Protein.ActiveResidues>
 VAL166  LYS551  ARG553  GLY616  TRP617  ASP618  TYR619  PRO620  LYS621  CYS622 
 ASP623  PHE694  ASN695  SER759  ASP760  ASP761  ALA762  ILE779  LEU786  VAL792 
 PHE793  MET794  SER795  GLU796  ALA797  LYS798  CYS799  TRP800  GLU811  SER814 

> <Gold.Protein.RotatedAtoms>
  150.7307  134.5602  159.5838 H   0  0  0  0  0  0  0  0  0  0  0  0  # atno 6907 bound_to 6896
  152.3067  134.7543  160.0354 H   0  0  0  0  0  0  0  0  0  0  0  0  # atno 6908 bound_to 6896
  151.8105  133.3345  159.3590 H   0  0  0  0  0  0  0  0  0  0  0  0  # atno 6909 bound_to 6896
  146.2332  140.2164  142.8336 H   0  0  0  0  0  0  0  0  0  0  0  0  # atno 7974 bound_to 7965
  154.5218  140.2225  155.8962 H   0  0  0  0  0  0  0  0  0  0  0  0  # atno 8008 bound_to 7997
  156.1670  140.3130  155.8871 H   0  0  0  0  0  0  0  0  0  0  0  0  # atno 8009 bound_to 7997
  155.3636  140.0462  157.3037 H   0  0  0  0  0  0  0  0  0  0  0  0  # atno 8010 bound_to 7997
  140.3246  144.2663  150.6177 H   0  0  0  0  0  0  0  0  0  0  0  0  # atno 10167 bound_to 10162
  156.4378  130.8107  151.2336 H   0  0  0  0  0  0  0  0  0  0  0  0  # atno 10718 bound_to 10713
  154.6772  135.2948  154.9662 H   0  0  0  0  0  0  0  0  0  0  0  0  # atno 10763 bound_to 10752
  154.0670  135.6623  153.4823 H   0  0  0  0  0  0  0  0  0  0  0  0  # atno 10764 bound_to 10752
  153.0524  135.5165  154.7797 H   0  0  0  0  0  0  0  0  0  0  0  0  # atno 10765 bound_to 10752
  141.1657  133.7001  156.7737 H   0  0  0  0  0  0  0  0  0  0  0  0  # atno 11005 bound_to 11000
  144.9666  140.8327  143.5481 LP  0  0  0  0  0  0  0  0  0  0  0  0  # atno 17320 bound_to 7965
  145.2141  139.2190  143.5127 LP  0  0  0  0  0  0  0  0  0  0  0  0  # atno 17321 bound_to 7965
  140.5453  143.2216  151.8018 LP  0  0  0  0  0  0  0  0  0  0  0  0  # atno 17342 bound_to 10162
  139.4868  144.4548  151.9611 LP  0  0  0  0  0  0  0  0  0  0  0  0  # atno 17343 bound_to 10162
  157.7507  131.0178  150.3599 LP  0  0  0  0  0  0  0  0  0  0  0  0  # atno 17370 bound_to 10713
  156.3950  130.3905  149.7002 LP  0  0  0  0  0  0  0  0  0  0  0  0  # atno 17371 bound_to 10713
  140.2445  134.8588  157.3607 LP  0  0  0  0  0  0  0  0  0  0  0  0  # atno 17394 bound_to 11000
  140.1763  134.4546  155.7800 LP  0  0  0  0  0  0  0  0  0  0  0  0  # atno 17395 bound_to 11000

$$$$
