AV-unprocessed.smi:197|AV-procd|sdf|1546|dock3
  -GOLD-   2262019403D 1   1.00000     0.00000
 Structure written by MMmdl.
 54 57  0  0  0  0  0  0  0  0  1 V2000
  150.0683  133.1650  155.7346 C   0  0  0  0  0  0  0  0  0  0  0  0
  149.3068  131.9683  155.7753 O   0  0  0  0  0  0  0  0  0  0  0  0
  149.4752  131.1257  154.6423 C   0  0  0  0  0  0  0  0  0  0  0  0
  148.2935  130.1575  154.4402 C   0  0  0  0  0  0  0  0  0  0  0  0
  147.5670  130.3054  153.0767 C   0  0  2  0  0  0  0  0  0  0  0  0
  146.8341  131.6640  152.9729 C   0  0  0  0  0  0  0  0  0  0  0  0
  146.1497  131.7700  151.7294 O   0  0  0  0  0  0  0  0  0  0  0  0
  145.1570  130.7639  151.5812 C   0  0  0  0  0  0  0  0  0  0  0  0
  145.8350  129.3877  151.6076 C   0  0  0  0  0  0  0  0  0  0  0  0
  146.5999  129.2256  152.8384 N   0  0  0  0  0  0  0  0  0  0  0  0
  147.0603  127.9593  152.9513 C   0  0  0  0  0  0  0  0  0  0  0  0
  146.7099  127.2760  154.0682 N   0  0  0  0  0  0  0  0  0  0  0  0
  147.1430  126.0249  154.2491 C   0  0  0  0  0  0  0  0  0  0  0  0
  147.9199  125.2868  153.4534 N   0  0  0  0  0  0  0  0  0  0  0  0
  148.2678  125.9699  152.3252 C   0  0  0  0  0  0  0  0  0  0  0  0
  147.8779  127.2972  151.9913 C   0  0  0  0  0  0  0  0  0  0  0  0
  148.4095  127.6502  150.7572 N   0  0  0  0  0  0  0  0  0  0  0  0
  149.0901  126.5990  150.3911 C   0  0  0  0  0  0  0  0  0  0  0  0
  149.0689  125.5469  151.2788 N   0  0  0  0  0  0  0  0  0  0  0  0
  149.7456  124.2680  151.1267 C   0  0  0  0  0  0  0  0  0  0  0  0
  151.2864  124.3907  151.0287 C   0  0  2  0  0  0  0  0  0  0  0  0
  151.7557  125.0541  152.1910 O   0  0  0  0  0  0  0  0  0  0  0  0
  151.7224  125.2052  149.8054 C   0  0  0  0  0  0  0  0  0  0  0  0
  152.4174  124.1877  148.9079 C   0  0  0  0  0  0  0  0  0  0  0  0
  152.9898  123.2855  149.8368 O   0  0  0  0  0  0  0  0  0  0  0  0
  152.0026  123.0301  150.8246 C   0  0  1  0  0  0  0  0  0  0  0  0
  152.6313  122.3709  152.0631 C   0  0  0  0  0  0  0  0  0  0  0  0
  149.9392  133.7082  156.6706 H   0  0  0  0  0  0  0  0  0  0  0  0
  149.7443  133.8217  154.9290 H   0  0  0  0  0  0  0  0  0  0  0  0
  151.1316  132.9566  155.6126 H   0  0  0  0  0  0  0  0  0  0  0  0
  149.6277  131.7291  153.7462 H   0  0  0  0  0  0  0  0  0  0  0  0
  150.3976  130.5621  154.7776 H   0  0  0  0  0  0  0  0  0  0  0  0
  148.6688  129.1432  154.5700 H   0  0  0  0  0  0  0  0  0  0  0  0
  147.5750  130.3017  155.2477 H   0  0  0  0  0  0  0  0  0  0  0  0
  148.3101  130.2724  152.2804 H   0  0  0  0  0  0  0  0  0  0  0  0
  146.1294  131.7930  153.7961 H   0  0  0  0  0  0  0  0  0  0  0  0
  147.5419  132.4901  153.0280 H   0  0  0  0  0  0  0  0  0  0  0  0
  144.4102  130.8486  152.3720 H   0  0  0  0  0  0  0  0  0  0  0  0
  144.6390  130.9110  150.6335 H   0  0  0  0  0  0  0  0  0  0  0  0
  145.0799  128.6039  151.5287 H   0  0  0  0  0  0  0  0  0  0  0  0
  146.4981  129.2849  150.7473 H   0  0  0  0  0  0  0  0  0  0  0  0
  146.8243  125.5480  155.1640 H   0  0  0  0  0  0  0  0  0  0  0  0
  149.6373  126.5643  149.4603 H   0  0  0  0  0  0  0  0  0  0  0  0
  149.4728  123.6325  151.9705 H   0  0  0  0  0  0  0  0  0  0  0  0
  149.3478  123.7775  150.2371 H   0  0  0  0  0  0  0  0  0  0  0  0
  151.9119  125.9603  151.9732 H   0  0  0  0  0  0  0  0  0  0  0  0
  150.8950  125.6997  149.2954 H   0  0  0  0  0  0  0  0  0  0  0  0
  152.4393  125.9801  150.0825 H   0  0  0  0  0  0  0  0  0  0  0  0
  151.6966  123.6619  148.2798 H   0  0  0  0  0  0  0  0  0  0  0  0
  153.1729  124.6387  148.2640 H   0  0  0  0  0  0  0  0  0  0  0  0
  151.3061  122.3220  150.3743 H   0  0  0  0  0  0  0  0  0  0  0  0
  151.8800  122.1746  152.8269 H   0  0  0  0  0  0  0  0  0  0  0  0
  153.4088  122.9949  152.5039 H   0  0  0  0  0  0  0  0  0  0  0  0
  153.0881  121.4169  151.7997 H   0  0  0  0  0  0  0  0  0  0  0  0
  1  2  1  0  0  0  0
  1 28  1  0  0  0  0
  1 29  1  0  0  0  0
  1 30  1  0  0  0  0
  2  3  1  0  0  0  0
  3  4  1  0  0  0  0
  3 31  1  0  0  0  0
  3 32  1  0  0  0  0
  4  5  1  0  0  0  0
  4 33  1  0  0  0  0
  4 34  1  0  0  0  0
  5 10  1  0  0  0  0
  5  6  1  0  0  0  0
  5 35  1  0  0  0  0
  6  7  1  0  0  0  0
  6 36  1  0  0  0  0
  6 37  1  0  0  0  0
  7  8  1  0  0  0  0
  8  9  1  0  0  0  0
  8 38  1  0  0  0  0
  8 39  1  0  0  0  0
  9 10  1  0  0  0  0
  9 40  1  0  0  0  0
  9 41  1  0  0  0  0
 10 11  1  0  0  0  0
 11 16  1  0  0  0  0
 11 12  2  0  0  0  0
 12 13  1  0  0  0  0
 13 14  2  0  0  0  0
 13 42  1  0  0  0  0
 14 15  1  0  0  0  0
 15 19  1  0  0  0  0
 15 16  2  0  0  0  0
 16 17  1  0  0  0  0
 17 18  2  0  0  0  0
 18 19  1  0  0  0  0
 18 43  1  0  0  0  0
 19 20  1  0  0  0  0
 20 21  1  0  0  0  0
 20 44  1  0  0  0  0
 20 45  1  0  0  0  0
 21 26  1  0  0  0  0
 21 22  1  0  0  0  0
 21 23  1  0  0  0  0
 22 46  1  0  0  0  0
 23 24  1  0  0  0  0
 23 47  1  0  0  0  0
 23 48  1  0  0  0  0
 24 25  1  0  0  0  0
 24 49  1  0  0  0  0
 24 50  1  0  0  0  0
 25 26  1  0  0  0  0
 26 27  1  0  0  0  0
 26 51  1  0  0  0  0
 27 52  1  0  0  0  0
 27 53  1  0  0  0  0
 27 54  1  0  0  0  0
M  END
> <s_m_source_file>
AV-unprocessed.smi

> <i_m_source_file_index>
197

> <i_lp_mmshare_version>
43012

> <i_f3d_flags>
0

> <s_epik_input>
W0NIM11PW0NIMl1bQ0gyXVtDQEBIXTFbQ0gyXU9bQ0gyXVtDSDJdTjFjKG5bY0hdbjIpYyhjMjMpbltjSF1uM1tDSDJdW0NAQF00KFtPSF0pW0NIMl1bQ0gyXU9bQ0BIXTRbQ0gzXQ==

> <s_epik_cmdline>
J2VwaWtfcHl0aG9uJywgJy1waCcsICc3LjAnLCAnLXRuJywgJzgnLCAnLW1hJywgJzIwMCcsICctbWV0YWxfYmluZGluZycsICctaW1hZScsICc8aW5maWxlLm1hZT4nLCAnLW9tYWUnLCAnPG91dGZpbGUubWFlPic=

> <r_lp_tautomer_probability>
1

> <r_epik_Ionization_Penalty>
0.000106218

> <r_epik_Ionization_Penalty_Charging>
0

> <r_epik_Ionization_Penalty_Neutral>
0.000106218

> <r_epik_State_Penalty>
-0

> <r_epik_Charging_Adjusted_Penalty>
0

> <i_epik_Tot_Q>
0

> <i_epik_Tot_abs_Q>
0

> <r_epik_Metal_State_Penalty>
-0

> <b_epik_Metal_Only>
0

> <s_lp_Force_Field>
OPLS_2005

> <r_lp_Energy>
42.2513

> <b_lp_Chiralities_Consistent>
1

> <s_lp_Variant>
AV-unprocessed.smi:197-3

> <Gold.Version>
5.8.1

> <Gold.Id.Protein>
6NUR|6NUR_protein|mol2

> <Gold.PLP.Fitness>
39.0206

> <Gold.PLP.PLP>
-35.2547

> <Gold.PLP.part.hbond>
-1.2341

> <Gold.PLP.part.metal>
0.0000

> <Gold.PLP.part.buried>
-4.7541

> <Gold.PLP.part.nonpolar>
-29.1910

> <Gold.PLP.part.repulsive>
0.5112

> <Gold.PLP.ligand.clash>
0.0000

> <Gold.PLP.ligand.torsion>
0.7285

> <Gold.PLP.Chemscore.Hbond>
1.0000

> <Gold.PLP.Chemscore.CHOScore>
0.6238

> <Gold.PLP.Chemscore.Metal>
0.0000

> <Gold.Chemscore.Hbonds>
donor molecule, donor type, donor heavy atom, donor atom, acceptor molecule, acceptor atom, score
      L1  H    22    46       P1 10737  1.00
      L1  C    18    43       P1 10769  0.75

> <Gold.PLP.Chemscore.Internal.Correction>
0.3516

> <Gold.Rescore>
     Score         DG    S(hbond)    S(metal)    S(lipo)     H(rot)  DE(clash)    DE(int)     intcor
      8.37      -9.10       1.00        0.00      64.51       2.84       0.03       0.70       ----

> <Gold.Chemscore.Fitness>
8.3715

> <Gold.Chemscore.DG>
-9.1013

> <Gold.Chemscore.ZeroCoef>
-5.4800

> <Gold.Chemscore.Hbond>
0.9978

> <Gold.Chemscore.Metal>
0.0000

> <Gold.Chemscore.Lipo>
64.5137

> <Gold.Chemscore.Internal_Hbond>
0.0000

> <Gold.Chemscore.DEClash>
0.0272

> <Gold.Chemscore.DEInternal>
0.7026

> <Gold.Chemscore.Rot>
2.8358

> <Gold.Chemscore.Internal.Correction>
   9.000000E+99

> <Gold.Chemscore.Hbonds>
donor molecule, donor type, donor heavy atom, donor atom, acceptor molecule, acceptor atom, score
      L1  H    22    46       P1 10737  1.00

> <Gold.Chemscore.Hbond.Weighted>
-3.3327

> <Gold.Chemscore.Metal.Weighted>
-0.0000

> <Gold.Chemscore.Lipo.Weighted>
-7.5481

> <Gold.Chemscore.Internal_Hbond.Weighted>
0.0000

> <Gold.Chemscore.DEClash.Weighted>
0.0272

> <Gold.Chemscore.DEInternal.Weighted>
0.7026

> <Gold.Chemscore.Rot.Weighted>
7.2596

> <Gold.Chemscore.Internal.Correction.Weighted>
   9.000000E+99

> <Gold.Protein.RotatedTorsions>
[ 6907 6896 6895 6894 ] final -166.23 input  -60.11 | X-H torsion
[ 7974 7965 7964 7962 ] final -175.67 input  175.53 | X-H torsion
[ 8008 7997 7996 7995 ] final   15.03 input   59.86 | X-H torsion
[ 10167 10162 10161 10158 ] final -134.08 input  -65.29 | X-H torsion
[ 10718 10713 10712 10709 ] final  -12.55 input   66.30 | X-H torsion
[ 10763 10752 10751 10750 ] final  108.62 input  -60.55 | X-H torsion
[ 11005 11000 10999 10996 ] final   44.79 input  -57.11 | X-H torsion

> <Gold.Protein.ActiveResidues>
 VAL166  LYS551  ARG553  GLY616  TRP617  ASP618  TYR619  PRO620  LYS621  CYS622 
 ASP623  PHE694  ASN695  SER759  ASP760  ASP761  ALA762  ILE779  LEU786  VAL792 
 PHE793  MET794  SER795  GLU796  ALA797  LYS798  CYS799  TRP800  GLU811  SER814 

> <Gold.Protein.RotatedAtoms>
  151.4403  133.3645  159.2780 H   0  0  0  0  0  0  0  0  0  0  0  0  # atno 6907 bound_to 6896
  150.9162  134.8582  159.7469 H   0  0  0  0  0  0  0  0  0  0  0  0  # atno 6908 bound_to 6896
  152.4958  134.4337  159.9572 H   0  0  0  0  0  0  0  0  0  0  0  0  # atno 6909 bound_to 6896
  144.7127  140.1286  143.6400 H   0  0  0  0  0  0  0  0  0  0  0  0  # atno 7974 bound_to 7965
  154.8568  140.2938  155.5563 H   0  0  0  0  0  0  0  0  0  0  0  0  # atno 8008 bound_to 7997
  156.3018  140.2485  156.3469 H   0  0  0  0  0  0  0  0  0  0  0  0  # atno 8009 bound_to 7997
  154.8961  140.0393  157.1855 H   0  0  0  0  0  0  0  0  0  0  0  0  # atno 8010 bound_to 7997
  139.8917  143.6715  152.2611 H   0  0  0  0  0  0  0  0  0  0  0  0  # atno 10167 bound_to 10162
  156.6430  130.4933  149.6088 H   0  0  0  0  0  0  0  0  0  0  0  0  # atno 10718 bound_to 10713
  153.4232  135.3806  155.2124 H   0  0  0  0  0  0  0  0  0  0  0  0  # atno 10763 bound_to 10752
  154.8746  135.3822  154.4358 H   0  0  0  0  0  0  0  0  0  0  0  0  # atno 10764 bound_to 10752
  153.4881  135.7088  153.5962 H   0  0  0  0  0  0  0  0  0  0  0  0  # atno 10765 bound_to 10752
  140.1519  134.4450  155.8376 H   0  0  0  0  0  0  0  0  0  0  0  0  # atno 11005 bound_to 11000
  145.9307  139.2604  143.1326 LP  0  0  0  0  0  0  0  0  0  0  0  0  # atno 17320 bound_to 7965
  145.9525  140.8897  143.0252 LP  0  0  0  0  0  0  0  0  0  0  0  0  # atno 17321 bound_to 7965
  139.7104  144.7621  151.1122 LP  0  0  0  0  0  0  0  0  0  0  0  0  # atno 17342 bound_to 10162
  140.7725  143.5338  150.9392 LP  0  0  0  0  0  0  0  0  0  0  0  0  # atno 17343 bound_to 10162
  156.2144  130.6699  151.1303 LP  0  0  0  0  0  0  0  0  0  0  0  0  # atno 17370 bound_to 10713
  157.7165  131.0707  150.6306 LP  0  0  0  0  0  0  0  0  0  0  0  0  # atno 17371 bound_to 10713
  141.2200  133.6876  156.7438 LP  0  0  0  0  0  0  0  0  0  0  0  0  # atno 17394 bound_to 11000
  140.2594  134.8479  157.3744 LP  0  0  0  0  0  0  0  0  0  0  0  0  # atno 17395 bound_to 11000

$$$$
