AV-unprocessed.smi:60|AV-procd|sdf|594|dock7
  -GOLD-   2262016493D 1   1.00000     0.00000
 Structure written by MMmdl.
 35 36  0  0  0  0  0  0  0  0  2 V2000
  155.3455  138.9223  158.6994 O   0  0  0  0  0  0  0  0  0  0  0  0
  154.1982  138.5110  158.5287 C   0  0  0  0  0  0  0  0  0  0  0  0
  153.9205  137.4591  157.7038 N   0  5  0  0  0  0  0  0  0  0  0  0
  152.6608  136.9647  157.5037 C   0  0  0  0  0  0  0  0  0  0  0  0
  152.4382  136.0189  156.7466 O   0  0  0  0  0  0  0  0  0  0  0  0
  151.6207  137.5438  158.1727 N   0  0  0  0  0  0  0  0  0  0  0  0
  150.2536  137.0761  157.9774 C   0  0  0  0  0  0  0  0  0  0  0  0
  149.7905  136.3640  159.0861 O   0  0  0  0  0  0  0  0  0  0  0  0
  148.4379  135.9301  159.0114 C   0  0  0  0  0  0  0  0  0  0  0  0
  147.9267  135.6486  160.4292 C   0  0  0  0  0  0  0  0  0  0  0  0
  147.4746  136.8427  161.0320 O   0  0  0  0  0  0  0  0  0  0  0  0
  151.8459  138.6449  159.0149 C   0  0  0  0  0  0  0  0  0  0  0  0
  153.0776  139.1532  159.2257 C   0  0  0  0  0  0  0  0  0  0  0  0
  153.3079  140.3558  160.1302 C   0  0  0  0  0  0  0  0  0  0  0  0
  152.7022  141.6372  159.5868 C   0  0  0  0  0  0  0  0  0  0  0  0
  152.8267  142.8448  160.3061 C   0  0  0  0  0  0  0  0  0  0  0  0
  152.2649  144.0323  159.7978 C   0  0  0  0  0  0  0  0  0  0  0  0
  151.5783  144.0174  158.5682 C   0  0  0  0  0  0  0  0  0  0  0  0
  151.4534  142.8141  157.8470 C   0  0  0  0  0  0  0  0  0  0  0  0
  152.0131  141.6261  158.3558 C   0  0  0  0  0  0  0  0  0  0  0  0
  149.6100  137.9429  157.8178 H   0  0  0  0  0  0  0  0  0  0  0  0
  150.1945  136.4555  157.0819 H   0  0  0  0  0  0  0  0  0  0  0  0
  147.8081  136.6628  158.5040 H   0  0  0  0  0  0  0  0  0  0  0  0
  148.3891  135.0059  158.4345 H   0  0  0  0  0  0  0  0  0  0  0  0
  147.0814  134.9615  160.3865 H   0  0  0  0  0  0  0  0  0  0  0  0
  148.6959  135.1773  161.0416 H   0  0  0  0  0  0  0  0  0  0  0  0
  147.0319  136.6234  161.8375 H   0  0  0  0  0  0  0  0  0  0  0  0
  150.9595  139.0564  159.4750 H   0  0  0  0  0  0  0  0  0  0  0  0
  152.9265  140.1745  161.1357 H   0  0  0  0  0  0  0  0  0  0  0  0
  154.3836  140.4920  160.2490 H   0  0  0  0  0  0  0  0  0  0  0  0
  153.3540  142.8648  161.2486 H   0  0  0  0  0  0  0  0  0  0  0  0
  152.3613  144.9547  160.3511 H   0  0  0  0  0  0  0  0  0  0  0  0
  151.1480  144.9282  158.1786 H   0  0  0  0  0  0  0  0  0  0  0  0
  150.9284  142.8015  156.9034 H   0  0  0  0  0  0  0  0  0  0  0  0
  151.9150  140.7058  157.7982 H   0  0  0  0  0  0  0  0  0  0  0  0
  1  2  2  0  0  0  0
  2 13  1  0  0  0  0
  2  3  1  0  0  0  0
  3  4  1  0  0  0  0
  4  5  2  0  0  0  0
  4  6  1  0  0  0  0
  6  7  1  0  0  0  0
  6 12  1  0  0  0  0
  7  8  1  0  0  0  0
  7 21  1  0  0  0  0
  7 22  1  0  0  0  0
  8  9  1  0  0  0  0
  9 10  1  0  0  0  0
  9 23  1  0  0  0  0
  9 24  1  0  0  0  0
 10 11  1  0  0  0  0
 10 25  1  0  0  0  0
 10 26  1  0  0  0  0
 11 27  1  0  0  0  0
 12 13  2  0  0  0  0
 12 28  1  0  0  0  0
 13 14  1  0  0  0  0
 14 15  1  0  0  0  0
 14 29  1  0  0  0  0
 14 30  1  0  0  0  0
 15 20  1  0  0  0  0
 15 16  2  0  0  0  0
 16 17  1  0  0  0  0
 16 31  1  0  0  0  0
 17 18  2  0  0  0  0
 17 32  1  0  0  0  0
 18 19  1  0  0  0  0
 18 33  1  0  0  0  0
 19 20  2  0  0  0  0
 19 34  1  0  0  0  0
 20 35  1  0  0  0  0
M  CHG  1   3  -1
M  END
> <s_m_source_file>
AV-unprocessed.smi

> <i_m_source_file_index>
60

> <i_lp_mmshare_version>
43012

> <i_f3d_flags>
0

> <s_epik_input>
W09IXVtDSDJdW0NIMl1PW0NIMl1uKGMoPU8pW25IXWMxPU8pW2NIXWMxW0NIMl1jMltjSF1bY0hdW2NIXVtjSF1bY0hdMg==

> <s_epik_cmdline>
J2VwaWtfcHl0aG9uJywgJy1waCcsICc3LjAnLCAnLXRuJywgJzgnLCAnLW1hJywgJzIwMCcsICctbWV0YWxfYmluZGluZycsICctaW1hZScsICc8aW5maWxlLm1hZT4nLCAnLW9tYWUnLCAnPG91dGZpbGUubWFlPic=

> <r_lp_tautomer_probability>
0.999537

> <r_epik_Ionization_Penalty>
3.13547

> <r_epik_Ionization_Penalty_Charging>
5.3765e-08

> <r_epik_Ionization_Penalty_Neutral>
3.13547

> <r_epik_State_Penalty>
3.13458

> <r_epik_Charging_Adjusted_Penalty>
3.13458

> <i_epik_Tot_Q>
-1

> <i_epik_Tot_abs_Q>
1

> <r_epik_Metal_State_Penalty>
0.106912

> <b_epik_Metal_Only>
1

> <s_epik_Chemistry_Notes>
This compound contains an acetal/aminal-like group ( X-CH(R)-Y where X, Y are N, S, or O) that may be acid/base labile, releasing an aldehyde.

> <s_lp_Force_Field>
OPLS_2005

> <r_lp_Energy>
15.9602

> <b_lp_Chiralities_Consistent>
1

> <s_lp_Variant>
AV-unprocessed.smi:60-2

> <Gold.Version>
5.8.1

> <Gold.Id.Protein>
6NUR|6NUR_protein|mol2

> <Gold.PLP.Fitness>
51.3061

> <Gold.PLP.PLP>
-37.5583

> <Gold.PLP.part.hbond>
-4.9596

> <Gold.PLP.part.metal>
0.0000

> <Gold.PLP.part.buried>
-3.7156

> <Gold.PLP.part.nonpolar>
-27.9853

> <Gold.PLP.part.repulsive>
0.0038

> <Gold.PLP.ligand.clash>
0.0000

> <Gold.PLP.ligand.torsion>
0.4584

> <Gold.PLP.Chemscore.Hbond>
4.8633

> <Gold.PLP.Chemscore.CHOScore>
0.0000

> <Gold.PLP.Chemscore.Metal>
0.0000

> <Gold.Chemscore.Hbonds>
donor molecule, donor type, donor heavy atom, donor atom, acceptor molecule, acceptor atom, score
      P1  H  6896  6908       L1     8  1.00
      P1  H  6931  6943       L1    11  0.35
      P1  H  6934  6947       L1    11  0.57
      P1  H  7997  8010       L1     1  1.00
      P1  H 10752 10765       L1     5  1.00

> <Gold.PLP.Chemscore.Internal.Correction>
0.0748

> <Gold.Rescore>
     Score         DG    S(hbond)    S(metal)    S(lipo)     H(rot)  DE(clash)    DE(int)     intcor
     17.40     -18.76       3.24        0.00      91.27       3.22       0.08       1.28       ----

> <Gold.Chemscore.Fitness>
17.4027

> <Gold.Chemscore.DG>
-18.7646

> <Gold.Chemscore.ZeroCoef>
-5.4800

> <Gold.Chemscore.Hbond>
3.2444

> <Gold.Chemscore.Metal>
0.0000

> <Gold.Chemscore.Lipo>
91.2729

> <Gold.Chemscore.Internal_Hbond>
0.0000

> <Gold.Chemscore.DEClash>
0.0775

> <Gold.Chemscore.DEInternal>
1.2843

> <Gold.Chemscore.Rot>
3.2151

> <Gold.Chemscore.Internal.Correction>
   9.000000E+99

> <Gold.Chemscore.Hbonds>
donor molecule, donor type, donor heavy atom, donor atom, acceptor molecule, acceptor atom, score
      P1  H  6896  6908       L1     8  0.37
      P1  H  6931  6943       L1    11  0.06
      P1  H  6934  6947       L1    11  0.19
      P1  H  7997  8010       L1     1  0.39
      P1  H 10752 10765       L1     5  1.00

> <Gold.Chemscore.Hbond.Weighted>
-10.8363

> <Gold.Chemscore.Metal.Weighted>
-0.0000

> <Gold.Chemscore.Lipo.Weighted>
-10.6789

> <Gold.Chemscore.Internal_Hbond.Weighted>
0.0000

> <Gold.Chemscore.DEClash.Weighted>
0.0775

> <Gold.Chemscore.DEInternal.Weighted>
1.2843

> <Gold.Chemscore.Rot.Weighted>
8.2306

> <Gold.Chemscore.Internal.Correction.Weighted>
   9.000000E+99

> <Gold.Protein.RotatedTorsions>
[ 6907 6896 6895 6894 ] final  178.00 input  -60.11 | X-H torsion
[ 7974 7965 7964 7962 ] final -151.33 input  175.53 | X-H torsion
[ 8008 7997 7996 7995 ] final  -28.85 input   59.86 | X-H torsion
[ 10167 10162 10161 10158 ] final  -61.94 input  -65.29 | X-H torsion
[ 10718 10713 10712 10709 ] final   32.24 input   66.30 | X-H torsion
[ 10763 10752 10751 10750 ] final -136.21 input  -60.55 | X-H torsion
[ 11005 11000 10999 10996 ] final -107.24 input  -57.11 | X-H torsion

> <Gold.Protein.ActiveResidues>
 VAL166  LYS551  ARG553  GLY616  TRP617  ASP618  TYR619  PRO620  LYS621  CYS622 
 ASP623  PHE694  ASN695  SER759  ASP760  ASP761  ALA762  ILE779  LEU786  VAL792 
 PHE793  MET794  SER795  GLU796  ALA797  LYS798  CYS799  TRP800  GLU811  SER814 

> <Gold.Protein.RotatedAtoms>
  151.6949  133.3311  159.3251 H   0  0  0  0  0  0  0  0  0  0  0  0  # atno 6907 bound_to 6896
  150.7762  134.6666  159.6378 H   0  0  0  0  0  0  0  0  0  0  0  0  # atno 6908 bound_to 6896
  152.3805  134.6601  160.0196 H   0  0  0  0  0  0  0  0  0  0  0  0  # atno 6909 bound_to 6896
  144.7856  140.4811  143.5809 H   0  0  0  0  0  0  0  0  0  0  0  0  # atno 7974 bound_to 7965
  154.4315  140.1834  156.1154 H   0  0  0  0  0  0  0  0  0  0  0  0  # atno 8008 bound_to 7997
  156.0185  140.3343  155.6988 H   0  0  0  0  0  0  0  0  0  0  0  0  # atno 8009 bound_to 7997
  155.6010  140.0640  157.2723 H   0  0  0  0  0  0  0  0  0  0  0  0  # atno 8010 bound_to 7997
  140.5972  143.2353  151.6009 H   0  0  0  0  0  0  0  0  0  0  0  0  # atno 10167 bound_to 10162
  157.2827  130.7263  149.6565 H   0  0  0  0  0  0  0  0  0  0  0  0  # atno 10718 bound_to 10713
  154.8688  135.3679  154.5024 H   0  0  0  0  0  0  0  0  0  0  0  0  # atno 10763 bound_to 10752
  153.5664  135.7022  153.5529 H   0  0  0  0  0  0  0  0  0  0  0  0  # atno 10764 bound_to 10752
  153.3581  135.4054  155.1661 H   0  0  0  0  0  0  0  0  0  0  0  0  # atno 10765 bound_to 10752
  141.0964  133.8963  157.1952 H   0  0  0  0  0  0  0  0  0  0  0  0  # atno 11005 bound_to 11000
  145.5932  139.1497  143.3171 LP  0  0  0  0  0  0  0  0  0  0  0  0  # atno 17320 bound_to 7965
  146.2086  140.6056  142.9070 LP  0  0  0  0  0  0  0  0  0  0  0  0  # atno 17321 bound_to 7965
  139.5266  144.3040  152.1049 LP  0  0  0  0  0  0  0  0  0  0  0  0  # atno 17342 bound_to 10162
  140.2214  144.4462  150.6340 LP  0  0  0  0  0  0  0  0  0  0  0  0  # atno 17343 bound_to 10162
  155.9665  130.4333  150.5000 LP  0  0  0  0  0  0  0  0  0  0  0  0  # atno 17370 bound_to 10713
  157.2947  131.0633  151.2109 LP  0  0  0  0  0  0  0  0  0  0  0  0  # atno 17371 bound_to 10713
  139.9802  135.0101  156.9731 LP  0  0  0  0  0  0  0  0  0  0  0  0  # atno 17394 bound_to 11000
  140.5129  134.0984  155.7274 LP  0  0  0  0  0  0  0  0  0  0  0  0  # atno 17395 bound_to 11000

$$$$
