AV-unprocessed.smi:1218|AV-procd|sdf|5107|dock10
  -GOLD-   22720 4163D 1   1.00000     0.00000
 Structure written by MMmdl.
 45 46  0  0  0  0  0  0  0  0  2 V2000
  145.0157  133.2114  150.4093 C   0  0  0  0  0  0  0  0  0  0  0  0
  146.1482  132.3842  151.0360 C   0  0  0  0  0  0  0  0  0  0  0  0
  145.5988  131.0619  151.5972 C   0  0  0  0  0  0  0  0  0  0  0  0
  146.8860  133.2066  152.1149 C   0  0  0  0  0  0  0  0  0  0  0  0
  148.0110  132.4674  152.7507 N   0  3  2  0  0  0  0  0  0  0  0  0
  147.5751  131.5268  153.8110 C   0  0  0  0  0  0  0  0  0  0  0  0
  147.2564  132.2745  155.1176 C   0  0  0  0  0  0  0  0  0  0  0  0
  148.3987  133.0174  155.5229 O   0  0  0  0  0  0  0  0  0  0  0  0
  148.7723  134.0147  154.5769 C   0  0  1  0  0  0  0  0  0  0  0  0
  149.9689  134.8061  155.1353 C   0  0  0  0  0  0  0  0  0  0  0  0
  150.1269  136.0964  154.4724 N   0  0  0  0  0  0  0  0  0  0  0  0
  150.7415  137.1679  154.9965 C   0  0  0  0  0  0  0  0  0  0  0  0
  151.2411  137.1751  156.1221 O   0  0  0  0  0  0  0  0  0  0  0  0
  150.7907  138.4187  154.1124 C   0  0  0  0  0  0  0  0  0  0  0  0
  149.9234  139.4745  154.6088 N   0  0  0  0  0  0  0  0  0  0  0  0
  148.5470  139.4795  154.7084 C   0  0  0  0  0  0  0  0  0  0  0  0
  148.1817  140.6834  155.2390 C   0  0  0  0  0  0  0  0  0  0  0  0
  149.4204  141.3550  155.4373 C   0  0  0  0  0  0  0  0  0  0  0  0
  150.4608  140.6283  155.0623 N   0  0  0  0  0  0  0  0  0  0  0  0
  149.1251  133.3191  153.2427 C   0  0  0  0  0  0  0  0  0  0  0  0
  144.2687  133.4913  151.1529 H   0  0  0  0  0  0  0  0  0  0  0  0
  144.5082  132.6516  149.6231 H   0  0  0  0  0  0  0  0  0  0  0  0
  145.3988  134.1292  149.9615 H   0  0  0  0  0  0  0  0  0  0  0  0
  146.8397  132.1436  150.2294 H   0  0  0  0  0  0  0  0  0  0  0  0
  144.8949  131.2379  152.4114 H   0  0  0  0  0  0  0  0  0  0  0  0
  146.3979  130.4259  151.9787 H   0  0  0  0  0  0  0  0  0  0  0  0
  145.0765  130.4965  150.8248 H   0  0  0  0  0  0  0  0  0  0  0  0
  147.2466  134.1454  151.6947 H   0  0  0  0  0  0  0  0  0  0  0  0
  146.1604  133.4836  152.8812 H   0  0  0  0  0  0  0  0  0  0  0  0
  146.7194  130.9376  153.4794 H   0  0  0  0  0  0  0  0  0  0  0  0
  148.3823  130.8160  153.9924 H   0  0  0  0  0  0  0  0  0  0  0  0
  146.3961  132.9352  155.0003 H   0  0  0  0  0  0  0  0  0  0  0  0
  147.0043  131.5627  155.9038 H   0  0  0  0  0  0  0  0  0  0  0  0
  147.9403  134.7049  154.4296 H   0  0  0  0  0  0  0  0  0  0  0  0
  149.8812  134.9313  156.2160 H   0  0  0  0  0  0  0  0  0  0  0  0
  150.8880  134.2446  154.9657 H   0  0  0  0  0  0  0  0  0  0  0  0
  149.7449  136.1801  153.5414 H   0  0  0  0  0  0  0  0  0  0  0  0
  151.8080  138.8091  154.0608 H   0  0  0  0  0  0  0  0  0  0  0  0
  150.4971  138.1507  153.0962 H   0  0  0  0  0  0  0  0  0  0  0  0
  147.9495  138.6362  154.3944 H   0  0  0  0  0  0  0  0  0  0  0  0
  147.1822  141.0315  155.4535 H   0  0  0  0  0  0  0  0  0  0  0  0
  149.5933  142.3415  155.8416 H   0  0  0  0  0  0  0  0  0  0  0  0
  149.9946  132.6774  153.3922 H   0  0  0  0  0  0  0  0  0  0  0  0
  149.4201  134.0520  152.4931 H   0  0  0  0  0  0  0  0  0  0  0  0
  148.3925  131.8914  152.0137 H   0  0  0  0  0  0  0  0  0  0  0  0
  1  2  1  0  0  0  0
  1 21  1  0  0  0  0
  1 22  1  0  0  0  0
  1 23  1  0  0  0  0
  2  3  1  0  0  0  0
  2  4  1  0  0  0  0
  2 24  1  0  0  0  0
  3 25  1  0  0  0  0
  3 26  1  0  0  0  0
  3 27  1  0  0  0  0
  4  5  1  0  0  0  0
  4 28  1  0  0  0  0
  4 29  1  0  0  0  0
  5 20  1  0  0  0  0
  5  6  1  0  0  0  0
  5 45  1  0  0  0  0
  6  7  1  0  0  0  0
  6 30  1  0  0  0  0
  6 31  1  0  0  0  0
  7  8  1  0  0  0  0
  7 32  1  0  0  0  0
  7 33  1  0  0  0  0
  8  9  1  0  0  0  0
  9 10  1  0  0  0  0
  9 20  1  0  0  0  0
  9 34  1  0  0  0  0
 10 11  1  0  0  0  0
 10 35  1  0  0  0  0
 10 36  1  0  0  0  0
 11 12  1  0  0  0  0
 11 37  1  0  0  0  0
 12 13  2  0  0  0  0
 12 14  1  0  0  0  0
 14 15  1  0  0  0  0
 14 38  1  0  0  0  0
 14 39  1  0  0  0  0
 15 19  1  0  0  0  0
 15 16  1  0  0  0  0
 16 17  2  0  0  0  0
 16 40  1  0  0  0  0
 17 18  1  0  0  0  0
 17 41  1  0  0  0  0
 18 19  2  0  0  0  0
 18 42  1  0  0  0  0
 20 43  1  0  0  0  0
 20 44  1  0  0  0  0
M  CHG  1   5   1
M  END
> <s_m_source_file>
AV-unprocessed.smi

> <i_m_source_file_index>
1218

> <i_lp_mmshare_version>
43012

> <i_f3d_flags>
0

> <s_epik_input>
W0NIM11bQ0hdKFtDSDNdKVtDSDJdTjFbQ0gyXVtDSDJdT1tDQEhdKFtDSDJdMSlbQ0gyXVtOSF1DKD1PKVtDSDJdbjJbY0hdW2NIXVtjSF1uMg==

> <s_epik_cmdline>
J2VwaWtfcHl0aG9uJywgJy1waCcsICc3LjAnLCAnLXRuJywgJzgnLCAnLW1hJywgJzIwMCcsICctbWV0YWxfYmluZGluZycsICctaW1hZScsICc8aW5maWxlLm1hZT4nLCAnLW9tYWUnLCAnPG91dGZpbGUubWFlPic=

> <r_lp_tautomer_probability>
1

> <r_epik_Ionization_Penalty>
0.0995066

> <r_epik_Ionization_Penalty_Charging>
0.0994921

> <r_epik_Ionization_Penalty_Neutral>
1.44634e-05

> <r_epik_State_Penalty>
0.0895432

> <r_epik_Charging_Adjusted_Penalty>
0.189035

> <i_epik_Tot_Q>
1

> <i_epik_Tot_abs_Q>
1

> <r_epik_Metal_State_Penalty>
0.0895432

> <b_epik_Metal_Only>
0

> <s_lp_Force_Field>
OPLS_2005

> <r_lp_Energy>
22.0385

> <b_lp_Chiralities_Consistent>
1

> <s_lp_Variant>
AV-unprocessed.smi:1218-2

> <Gold.Version>
5.8.1

> <Gold.Id.Protein>
6NUR|6NUR_protein|mol2

> <Gold.PLP.Fitness>
45.1543

> <Gold.PLP.PLP>
-35.0684

> <Gold.PLP.part.hbond>
-3.9306

> <Gold.PLP.part.metal>
0.0000

> <Gold.PLP.part.buried>
-3.0759

> <Gold.PLP.part.nonpolar>
-27.6202

> <Gold.PLP.part.repulsive>
0.1826

> <Gold.PLP.ligand.clash>
0.0000

> <Gold.PLP.ligand.torsion>
0.7608

> <Gold.PLP.Chemscore.Hbond>
2.8333

> <Gold.PLP.Chemscore.CHOScore>
0.9889

> <Gold.PLP.Chemscore.Metal>
0.0000

> <Gold.Chemscore.Hbonds>
donor molecule, donor type, donor heavy atom, donor atom, acceptor molecule, acceptor atom, score
      L1  H     5    45       P1 10747  0.84
      L1  H    11    37       P1  7948  0.95
      P1  H  7989  7998       L1    19  0.70
      L1  C    18    42       P1  8028  1.00

> <Gold.PLP.Chemscore.Internal.Correction>
0.1411

> <Gold.Rescore>
     Score         DG    S(hbond)    S(metal)    S(lipo)     H(rot)  DE(clash)    DE(int)     intcor
     15.97     -16.91       2.21        0.00      77.60       1.96       0.03       0.90       ----

> <Gold.Chemscore.Fitness>
15.9693

> <Gold.Chemscore.DG>
-16.9060

> <Gold.Chemscore.ZeroCoef>
-5.4800

> <Gold.Chemscore.Hbond>
2.2067

> <Gold.Chemscore.Metal>
0.0000

> <Gold.Chemscore.Lipo>
77.6019

> <Gold.Chemscore.Internal_Hbond>
0.0000

> <Gold.Chemscore.DEClash>
0.0327

> <Gold.Chemscore.DEInternal>
0.9040

> <Gold.Chemscore.Rot>
1.9624

> <Gold.Chemscore.Internal.Correction>
   9.000000E+99

> <Gold.Chemscore.Hbonds>
donor molecule, donor type, donor heavy atom, donor atom, acceptor molecule, acceptor atom, score
      L1  H     5    45       P1 10747  0.82
      L1  H    11    37       P1  7948  0.22
      P1  H  7989  7998       L1    19  0.08

> <Gold.Chemscore.Hbond.Weighted>
-7.3703

> <Gold.Chemscore.Metal.Weighted>
-0.0000

> <Gold.Chemscore.Lipo.Weighted>
-9.0794

> <Gold.Chemscore.Internal_Hbond.Weighted>
0.0000

> <Gold.Chemscore.DEClash.Weighted>
0.0327

> <Gold.Chemscore.DEInternal.Weighted>
0.9040

> <Gold.Chemscore.Rot.Weighted>
5.0237

> <Gold.Chemscore.Internal.Correction.Weighted>
   9.000000E+99

> <Gold.Protein.RotatedTorsions>
[ 6907 6896 6895 6894 ] final  -47.85 input  -60.11 | X-H torsion
[ 7974 7965 7964 7962 ] final    4.13 input  175.53 | X-H torsion
[ 8008 7997 7996 7995 ] final -158.49 input   59.86 | X-H torsion
[ 10167 10162 10161 10158 ] final   99.95 input  -65.29 | X-H torsion
[ 10718 10713 10712 10709 ] final   16.22 input   66.30 | X-H torsion
[ 10763 10752 10751 10750 ] final  178.60 input  -60.55 | X-H torsion
[ 11005 11000 10999 10996 ] final -103.49 input  -57.11 | X-H torsion

> <Gold.Protein.ActiveResidues>
 VAL166  LYS551  ARG553  GLY616  TRP617  ASP618  TYR619  PRO620  LYS621  CYS622 
 ASP623  PHE694  ASN695  SER759  ASP760  ASP761  ALA762  ILE779  LEU786  VAL792 
 PHE793  MET794  SER795  GLU796  ALA797  LYS798  CYS799  TRP800  GLU811  SER814 

> <Gold.Protein.RotatedAtoms>
  150.8966  134.8374  159.7330 H   0  0  0  0  0  0  0  0  0  0  0  0  # atno 6907 bound_to 6896
  152.4868  134.4567  159.9602 H   0  0  0  0  0  0  0  0  0  0  0  0  # atno 6908 bound_to 6896
  151.4623  133.3550  159.2846 H   0  0  0  0  0  0  0  0  0  0  0  0  # atno 6909 bound_to 6896
  146.2444  140.0581  142.8370 H   0  0  0  0  0  0  0  0  0  0  0  0  # atno 7974 bound_to 7965
  155.7483  140.0823  157.2213 H   0  0  0  0  0  0  0  0  0  0  0  0  # atno 8008 bound_to 7997
  154.4015  140.1565  156.2750 H   0  0  0  0  0  0  0  0  0  0  0  0  # atno 8009 bound_to 7997
  155.8955  140.3413  155.5990 H   0  0  0  0  0  0  0  0  0  0  0  0  # atno 8010 bound_to 7997
  139.7571  144.6966  151.0346 H   0  0  0  0  0  0  0  0  0  0  0  0  # atno 10167 bound_to 10162
  157.0647  130.6323  149.5793 H   0  0  0  0  0  0  0  0  0  0  0  0  # atno 10718 bound_to 10713
  154.5098  135.2788  155.1352 H   0  0  0  0  0  0  0  0  0  0  0  0  # atno 10763 bound_to 10752
  154.2952  135.6259  153.5405 H   0  0  0  0  0  0  0  0  0  0  0  0  # atno 10764 bound_to 10752
  152.9916  135.5683  154.5560 H   0  0  0  0  0  0  0  0  0  0  0  0  # atno 10765 bound_to 10752
  141.1143  133.8645  157.1493 H   0  0  0  0  0  0  0  0  0  0  0  0  # atno 11005 bound_to 11000
  145.0924  140.9293  143.4761 LP  0  0  0  0  0  0  0  0  0  0  0  0  # atno 17320 bound_to 7965
  145.0757  139.2998  143.5809 LP  0  0  0  0  0  0  0  0  0  0  0  0  # atno 17321 bound_to 7965
  140.7804  143.4740  151.0108 LP  0  0  0  0  0  0  0  0  0  0  0  0  # atno 17342 bound_to 10162
  139.8427  143.7543  152.3180 LP  0  0  0  0  0  0  0  0  0  0  0  0  # atno 17343 bound_to 10162
  155.9968  130.5038  150.7509 LP  0  0  0  0  0  0  0  0  0  0  0  0  # atno 17370 bound_to 10713
  157.4926  131.0912  151.0409 LP  0  0  0  0  0  0  0  0  0  0  0  0  # atno 17371 bound_to 10713
  140.0055  135.0010  157.0284 LP  0  0  0  0  0  0  0  0  0  0  0  0  # atno 17394 bound_to 11000
  140.4689  134.1407  155.7200 LP  0  0  0  0  0  0  0  0  0  0  0  0  # atno 17395 bound_to 11000

$$$$
