AV-unprocessed.smi:2914|AV-procd|sdf|11186|dock6
  -GOLD-   2272016 73D 1   1.00000     0.00000
 Structure written by MMmdl.
 32 34  0  0  0  0  0  0  0  0  1 V2000
  145.8945  138.4903  154.4154 O   0  0  0  0  0  0  0  0  0  0  0  0
  146.6881  137.9290  153.6596 C   0  0  0  0  0  0  0  0  0  0  0  0
  147.9477  138.3310  153.4144 N   0  0  0  0  0  0  0  0  0  0  0  0
  148.6158  139.3985  153.9272 C   0  0  0  0  0  0  0  0  0  0  0  0
  148.1783  140.6831  154.1026 C   0  0  0  0  0  0  0  0  0  0  0  0
  149.3137  141.3193  154.6807 C   0  0  0  0  0  0  0  0  0  0  0  0
  150.3441  140.4988  154.8413 N   0  0  0  0  0  0  0  0  0  0  0  0
  149.9173  139.3055  154.3724 N   0  0  0  0  0  0  0  0  0  0  0  0
  150.8058  138.1574  154.4037 C   0  0  0  0  0  0  0  0  0  0  0  0
  152.1756  138.5249  154.9396 C   0  0  0  0  0  0  0  0  0  0  0  0
  152.7692  137.7831  156.1143 C   0  0  0  0  0  0  0  0  0  0  0  0
  152.3265  139.2179  156.2734 C   0  0  0  0  0  0  0  0  0  0  0  0
  146.3937  136.8205  152.9664 N   0  0  0  0  0  0  0  0  0  0  0  0
  145.1420  136.1347  152.9932 C   0  0  0  0  0  0  0  0  0  0  0  0
  144.4596  135.8656  151.6694 C   0  0  0  0  0  0  0  0  0  0  0  0
  143.9066  136.9132  152.5957 C   0  0  0  0  0  0  0  0  0  0  0  0
  148.4758  137.7650  152.7668 H   0  0  0  0  0  0  0  0  0  0  0  0
  147.2170  141.1143  153.8678 H   0  0  0  0  0  0  0  0  0  0  0  0
  149.4198  142.3489  154.9886 H   0  0  0  0  0  0  0  0  0  0  0  0
  150.3662  137.3811  155.0304 H   0  0  0  0  0  0  0  0  0  0  0  0
  150.8967  137.7448  153.3975 H   0  0  0  0  0  0  0  0  0  0  0  0
  152.8813  138.8220  154.1661 H   0  0  0  0  0  0  0  0  0  0  0  0
  152.1611  137.0140  156.5865 H   0  0  0  0  0  0  0  0  0  0  0  0
  153.8386  137.5848  156.0936 H   0  0  0  0  0  0  0  0  0  0  0  0
  153.1013  139.9769  156.3597 H   0  0  0  0  0  0  0  0  0  0  0  0
  151.4266  139.4022  156.8566 H   0  0  0  0  0  0  0  0  0  0  0  0
  147.1093  136.4303  152.3708 H   0  0  0  0  0  0  0  0  0  0  0  0
  145.0018  135.3789  153.7651 H   0  0  0  0  0  0  0  0  0  0  0  0
  144.9540  136.2080  150.7620 H   0  0  0  0  0  0  0  0  0  0  0  0
  143.9015  134.9363  151.5728 H   0  0  0  0  0  0  0  0  0  0  0  0
  142.9799  136.6835  153.1180 H   0  0  0  0  0  0  0  0  0  0  0  0
  144.0314  137.9551  152.3063 H   0  0  0  0  0  0  0  0  0  0  0  0
  1  2  2  0  0  0  0
  2  3  1  0  0  0  0
  2 13  1  0  0  0  0
  3  4  1  0  0  0  0
  3 17  1  0  0  0  0
  4  8  1  0  0  0  0
  4  5  2  0  0  0  0
  5  6  1  0  0  0  0
  5 18  1  0  0  0  0
  6  7  2  0  0  0  0
  6 19  1  0  0  0  0
  7  8  1  0  0  0  0
  8  9  1  0  0  0  0
  9 10  1  0  0  0  0
  9 20  1  0  0  0  0
  9 21  1  0  0  0  0
 10 12  1  0  0  0  0
 10 11  1  0  0  0  0
 10 22  1  0  0  0  0
 11 12  1  0  0  0  0
 11 23  1  0  0  0  0
 11 24  1  0  0  0  0
 12 25  1  0  0  0  0
 12 26  1  0  0  0  0
 13 14  1  0  0  0  0
 13 27  1  0  0  0  0
 14 16  1  0  0  0  0
 14 15  1  0  0  0  0
 14 28  1  0  0  0  0
 15 16  1  0  0  0  0
 15 29  1  0  0  0  0
 15 30  1  0  0  0  0
 16 31  1  0  0  0  0
 16 32  1  0  0  0  0
M  END
> <s_m_source_file>
AV-unprocessed.smi

> <i_m_source_file_index>
2914

> <i_lp_mmshare_version>
43012

> <i_f3d_flags>
0

> <s_epik_input>
W0NIMl0xW0NIMl1bQ0hdMVtOSF1DKD1PKVtOSF1jMltjSF1bY0hdbm4yW0NIMl1bQ0hdM1tDSDJdW0NIMl0z

> <s_epik_cmdline>
J2VwaWtfcHl0aG9uJywgJy1waCcsICc3LjAnLCAnLXRuJywgJzgnLCAnLW1hJywgJzIwMCcsICctbWV0YWxfYmluZGluZycsICctaW1hZScsICc8aW5maWxlLm1hZT4nLCAnLW9tYWUnLCAnPG91dGZpbGUubWFlPic=

> <r_lp_tautomer_probability>
1

> <r_epik_Ionization_Penalty>
4.83987e-05

> <r_epik_Ionization_Penalty_Charging>
0

> <r_epik_Ionization_Penalty_Neutral>
4.83987e-05

> <r_epik_State_Penalty>
-0

> <r_epik_Charging_Adjusted_Penalty>
0

> <i_epik_Tot_Q>
0

> <i_epik_Tot_abs_Q>
0

> <r_epik_Metal_State_Penalty>
-0

> <b_epik_Metal_Only>
0

> <s_lp_Force_Field>
OPLS_2005

> <r_lp_Energy>
29.2759

> <b_lp_Chiralities_Consistent>
1

> <s_lp_Variant>
AV-unprocessed.smi:2914-1

> <Gold.Version>
5.8.1

> <Gold.Id.Protein>
6NUR|6NUR_protein|mol2

> <Gold.PLP.Fitness>
38.9639

> <Gold.PLP.PLP>
-28.0838

> <Gold.PLP.part.hbond>
-3.1724

> <Gold.PLP.part.metal>
0.0000

> <Gold.PLP.part.buried>
-2.2951

> <Gold.PLP.part.nonpolar>
-24.1405

> <Gold.PLP.part.repulsive>
0.2227

> <Gold.PLP.ligand.clash>
0.0000

> <Gold.PLP.ligand.torsion>
0.7716

> <Gold.PLP.Chemscore.Hbond>
2.9424

> <Gold.PLP.Chemscore.CHOScore>
1.0000

> <Gold.PLP.Chemscore.Metal>
0.0000

> <Gold.Chemscore.Hbonds>
donor molecule, donor type, donor heavy atom, donor atom, acceptor molecule, acceptor atom, score
      L1  H     3    17       P1  7948  1.00
      L1  H    13    27       P1  7948  1.00
      P1  H  7989  7998       L1     7  0.94
      L1  C     6    19       P1  8028  1.00

> <Gold.PLP.Chemscore.Internal.Correction>
0.5961

> <Gold.Rescore>
     Score         DG    S(hbond)    S(metal)    S(lipo)     H(rot)  DE(clash)    DE(int)     intcor
     13.24     -15.44       2.08        0.00      56.07       1.39       0.28       1.92       ----

> <Gold.Chemscore.Fitness>
13.2432

> <Gold.Chemscore.DG>
-15.4375

> <Gold.Chemscore.ZeroCoef>
-5.4800

> <Gold.Chemscore.Hbond>
2.0847

> <Gold.Chemscore.Metal>
0.0000

> <Gold.Chemscore.Lipo>
56.0718

> <Gold.Chemscore.Internal_Hbond>
0.0000

> <Gold.Chemscore.DEClash>
0.2778

> <Gold.Chemscore.DEInternal>
1.9166

> <Gold.Chemscore.Rot>
1.3929

> <Gold.Chemscore.Internal.Correction>
   9.000000E+99

> <Gold.Chemscore.Hbonds>
donor molecule, donor type, donor heavy atom, donor atom, acceptor molecule, acceptor atom, score
      L1  H     3    17       P1  7948  0.99
      L1  H    13    27       P1  7948  0.96
      P1  H  7989  7998       L1     7  0.13

> <Gold.Chemscore.Hbond.Weighted>
-6.9629

> <Gold.Chemscore.Metal.Weighted>
-0.0000

> <Gold.Chemscore.Lipo.Weighted>
-6.5604

> <Gold.Chemscore.Internal_Hbond.Weighted>
0.0000

> <Gold.Chemscore.DEClash.Weighted>
0.2778

> <Gold.Chemscore.DEInternal.Weighted>
1.9166

> <Gold.Chemscore.Rot.Weighted>
3.5657

> <Gold.Chemscore.Internal.Correction.Weighted>
   9.000000E+99

> <Gold.Protein.RotatedTorsions>
[ 6907 6896 6895 6894 ] final  159.72 input  -60.11 | X-H torsion
[ 7974 7965 7964 7962 ] final -163.33 input  175.53 | X-H torsion
[ 8008 7997 7996 7995 ] final  -57.75 input   59.86 | X-H torsion
[ 10167 10162 10161 10158 ] final -123.87 input  -65.29 | X-H torsion
[ 10718 10713 10712 10709 ] final  147.84 input   66.30 | X-H torsion
[ 10763 10752 10751 10750 ] final   33.00 input  -60.55 | X-H torsion
[ 11005 11000 10999 10996 ] final -166.19 input  -57.11 | X-H torsion

> <Gold.Protein.ActiveResidues>
 VAL166  LYS551  ARG553  GLY616  TRP617  ASP618  TYR619  PRO620  LYS621  CYS622 
 ASP623  PHE694  ASN695  SER759  ASP760  ASP761  ALA762  ILE779  LEU786  VAL792 
 PHE793  MET794  SER795  GLU796  ALA797  LYS798  CYS799  TRP800  GLU811  SER814 

> <Gold.Protein.RotatedAtoms>
  151.9813  133.3759  159.4108 H   0  0  0  0  0  0  0  0  0  0  0  0  # atno 6907 bound_to 6896
  150.6934  134.4035  159.5139 H   0  0  0  0  0  0  0  0  0  0  0  0  # atno 6908 bound_to 6896
  152.1754  134.8798  160.0581 H   0  0  0  0  0  0  0  0  0  0  0  0  # atno 6909 bound_to 6896
  144.7329  140.3122  143.6186 H   0  0  0  0  0  0  0  0  0  0  0  0  # atno 7974 bound_to 7965
  154.4280  140.1100  156.5847 H   0  0  0  0  0  0  0  0  0  0  0  0  # atno 8008 bound_to 7997
  155.6075  140.3494  155.4593 H   0  0  0  0  0  0  0  0  0  0  0  0  # atno 8009 bound_to 7997
  156.0125  140.1222  157.0429 H   0  0  0  0  0  0  0  0  0  0  0  0  # atno 8010 bound_to 7997
  139.9989  143.5562  152.2312 H   0  0  0  0  0  0  0  0  0  0  0  0  # atno 10167 bound_to 10162
  157.3161  131.0896  151.1278 H   0  0  0  0  0  0  0  0  0  0  0  0  # atno 10718 bound_to 10713
  153.0233  135.6398  154.1443 H   0  0  0  0  0  0  0  0  0  0  0  0  # atno 10763 bound_to 10752
  154.1175  135.2849  155.3218 H   0  0  0  0  0  0  0  0  0  0  0  0  # atno 10764 bound_to 10752
  154.6287  135.5500  153.7718 H   0  0  0  0  0  0  0  0  0  0  0  0  # atno 10765 bound_to 10752
  140.5673  134.5273  157.5155 H   0  0  0  0  0  0  0  0  0  0  0  0  # atno 11005 bound_to 11000
  145.7653  139.1838  143.2244 LP  0  0  0  0  0  0  0  0  0  0  0  0  # atno 17320 bound_to 7965
  146.0954  140.7607  142.9575 LP  0  0  0  0  0  0  0  0  0  0  0  0  # atno 17321 bound_to 7965
  139.6286  144.7641  151.2584 LP  0  0  0  0  0  0  0  0  0  0  0  0  # atno 17342 bound_to 10162
  140.7426  143.6519  150.8241 LP  0  0  0  0  0  0  0  0  0  0  0  0  # atno 17343 bound_to 10162
  157.2581  130.6646  149.5962 LP  0  0  0  0  0  0  0  0  0  0  0  0  # atno 17370 bound_to 10713
  155.9681  130.4517  150.5746 LP  0  0  0  0  0  0  0  0  0  0  0  0  # atno 17371 bound_to 10713
  139.9379  134.7842  156.0755 LP  0  0  0  0  0  0  0  0  0  0  0  0  # atno 17394 bound_to 11000
  141.1078  133.6654  156.2905 LP  0  0  0  0  0  0  0  0  0  0  0  0  # atno 17395 bound_to 11000

$$$$
