AV-unprocessed.smi:2880|AV-procd|sdf|11052|dock2
  -GOLD-   2272015523D 1   1.00000     0.00000
 Structure written by MMmdl.
 47 48  0  0  0  0  0  0  0  0  1 V2000
  143.1408  132.6472  151.5354 C   0  0  0  0  0  0  0  0  0  0  0  0
  144.3454  133.1926  150.7424 C   0  0  0  0  0  0  0  0  0  0  0  0
  145.5888  132.3474  151.1093 C   0  0  0  0  0  0  0  0  0  0  0  0
  144.0776  133.0516  149.2323 C   0  0  0  0  0  0  0  0  0  0  0  0
  144.5303  134.6155  151.0597 N   0  0  0  0  0  0  0  0  0  0  0  0
  145.5360  135.4627  150.6241 C   0  0  0  0  0  0  0  0  0  0  0  0
  145.3363  136.6881  151.1935 C   0  0  0  0  0  0  0  0  0  0  0  0
  144.1761  136.4908  151.9881 C   0  0  0  0  0  0  0  0  0  0  0  0
  143.6359  137.5509  152.7601 N   0  0  0  0  0  0  0  0  0  0  0  0
  142.7220  137.4666  153.7421 C   0  0  0  0  0  0  0  0  0  0  0  0
  142.1876  136.4256  154.1258 O   0  0  0  0  0  0  0  0  0  0  0  0
  142.4518  138.6755  154.2568 N   0  0  0  0  0  0  0  0  0  0  0  0
  141.5192  138.9610  155.3503 C   0  0  1  0  0  0  0  0  0  0  0  0
  142.2437  139.7543  156.4566 C   0  0  0  0  0  0  0  0  0  0  0  0
  142.5799  141.1903  156.0183 C   0  0  0  0  0  0  0  0  0  0  0  0
  141.3255  141.9308  155.5326 C   0  0  0  0  0  0  0  0  0  0  0  0
  140.6131  141.1536  154.4141 C   0  0  0  0  0  0  0  0  0  0  0  0
  140.2565  139.7165  154.8576 C   0  0  1  0  0  0  0  0  0  0  0  0
  139.4886  138.9425  153.7659 C   0  0  0  0  0  0  0  0  0  0  0  0
  138.5091  139.7630  153.1637 O   0  0  0  0  0  0  0  0  0  0  0  0
  143.7019  135.2562  151.9195 N   0  0  0  0  0  0  0  0  0  0  0  0
  142.9858  131.5858  151.3386 H   0  0  0  0  0  0  0  0  0  0  0  0
  142.2149  133.1603  151.2744 H   0  0  0  0  0  0  0  0  0  0  0  0
  143.2905  132.7628  152.6096 H   0  0  0  0  0  0  0  0  0  0  0  0
  145.8276  132.4255  152.1708 H   0  0  0  0  0  0  0  0  0  0  0  0
  146.4699  132.6566  150.5452 H   0  0  0  0  0  0  0  0  0  0  0  0
  145.4259  131.2913  150.8917 H   0  0  0  0  0  0  0  0  0  0  0  0
  143.9402  132.0074  148.9498 H   0  0  0  0  0  0  0  0  0  0  0  0
  144.9084  133.4446  148.6453 H   0  0  0  0  0  0  0  0  0  0  0  0
  143.1787  133.5912  148.9320 H   0  0  0  0  0  0  0  0  0  0  0  0
  146.3090  135.1272  149.9486 H   0  0  0  0  0  0  0  0  0  0  0  0
  145.9307  137.5804  151.0646 H   0  0  0  0  0  0  0  0  0  0  0  0
  143.9841  138.4726  152.5417 H   0  0  0  0  0  0  0  0  0  0  0  0
  142.9403  139.4696  153.8700 H   0  0  0  0  0  0  0  0  0  0  0  0
  141.1954  138.0190  155.7964 H   0  0  0  0  0  0  0  0  0  0  0  0
  141.6085  139.7926  157.3427 H   0  0  0  0  0  0  0  0  0  0  0  0
  143.1530  139.2343  156.7604 H   0  0  0  0  0  0  0  0  0  0  0  0
  143.0337  141.7342  156.8472 H   0  0  0  0  0  0  0  0  0  0  0  0
  143.3243  141.1706  155.2215 H   0  0  0  0  0  0  0  0  0  0  0  0
  140.6403  142.0746  156.3689 H   0  0  0  0  0  0  0  0  0  0  0  0
  141.5954  142.9265  155.1799 H   0  0  0  0  0  0  0  0  0  0  0  0
  139.7110  141.6937  154.1253 H   0  0  0  0  0  0  0  0  0  0  0  0
  141.2475  141.1245  153.5273 H   0  0  0  0  0  0  0  0  0  0  0  0
  139.5893  139.7974  155.7177 H   0  0  0  0  0  0  0  0  0  0  0  0
  140.1650  138.5702  152.9960 H   0  0  0  0  0  0  0  0  0  0  0  0
  138.9850  138.0772  154.1983 H   0  0  0  0  0  0  0  0  0  0  0  0
  138.8588  140.1028  152.3542 H   0  0  0  0  0  0  0  0  0  0  0  0
  1  2  1  0  0  0  0
  1 22  1  0  0  0  0
  1 23  1  0  0  0  0
  1 24  1  0  0  0  0
  2  3  1  0  0  0  0
  2  4  1  0  0  0  0
  2  5  1  0  0  0  0
  3 25  1  0  0  0  0
  3 26  1  0  0  0  0
  3 27  1  0  0  0  0
  4 28  1  0  0  0  0
  4 29  1  0  0  0  0
  4 30  1  0  0  0  0
  5 21  1  0  0  0  0
  5  6  1  0  0  0  0
  6  7  2  0  0  0  0
  6 31  1  0  0  0  0
  7  8  1  0  0  0  0
  7 32  1  0  0  0  0
  8  9  1  0  0  0  0
  8 21  2  0  0  0  0
  9 10  1  0  0  0  0
  9 33  1  0  0  0  0
 10 11  2  0  0  0  0
 10 12  1  0  0  0  0
 12 13  1  0  0  0  0
 12 34  1  0  0  0  0
 13 18  1  0  0  0  0
 13 14  1  0  0  0  0
 13 35  1  0  0  0  0
 14 15  1  0  0  0  0
 14 36  1  0  0  0  0
 14 37  1  0  0  0  0
 15 16  1  0  0  0  0
 15 38  1  0  0  0  0
 15 39  1  0  0  0  0
 16 17  1  0  0  0  0
 16 40  1  0  0  0  0
 16 41  1  0  0  0  0
 17 18  1  0  0  0  0
 17 42  1  0  0  0  0
 17 43  1  0  0  0  0
 18 19  1  0  0  0  0
 18 44  1  0  0  0  0
 19 20  1  0  0  0  0
 19 45  1  0  0  0  0
 19 46  1  0  0  0  0
 20 47  1  0  0  0  0
M  END
> <s_m_source_file>
AV-unprocessed.smi

> <i_m_source_file_index>
2880

> <i_lp_mmshare_version>
43012

> <i_f3d_flags>
0

> <s_epik_input>
W0NIM11DKFtDSDNdKShbQ0gzXSluMVtjSF1bY0hdYyhuMSlbTkhdQyg9TylbTkhdW0NAQEhdMltDSDJdW0NIMl1bQ0gyXVtDSDJdW0NASF0yW0NIMl1bT0hd

> <s_epik_cmdline>
J2VwaWtfcHl0aG9uJywgJy1waCcsICc3LjAnLCAnLXRuJywgJzgnLCAnLW1hJywgJzIwMCcsICctbWV0YWxfYmluZGluZycsICctaW1hZScsICc8aW5maWxlLm1hZT4nLCAnLW9tYWUnLCAnPG91dGZpbGUubWFlPic=

> <r_lp_tautomer_probability>
1

> <r_epik_Ionization_Penalty>
3.89283e-05

> <r_epik_Ionization_Penalty_Charging>
0

> <r_epik_Ionization_Penalty_Neutral>
3.89283e-05

> <r_epik_State_Penalty>
-0

> <r_epik_Charging_Adjusted_Penalty>
0

> <i_epik_Tot_Q>
0

> <i_epik_Tot_abs_Q>
0

> <r_epik_Metal_State_Penalty>
-0

> <b_epik_Metal_Only>
0

> <s_lp_Force_Field>
OPLS_2005

> <r_lp_Energy>
20.5246

> <b_lp_Chiralities_Consistent>
1

> <s_lp_Variant>
AV-unprocessed.smi:2880-2

> <Gold.Version>
5.8.1

> <Gold.Id.Protein>
6NUR|6NUR_protein|mol2

> <Gold.PLP.Fitness>
41.2051

> <Gold.PLP.PLP>
-30.1096

> <Gold.PLP.part.hbond>
-3.8326

> <Gold.PLP.part.metal>
0.0000

> <Gold.PLP.part.buried>
1.2080

> <Gold.PLP.part.nonpolar>
-27.3724

> <Gold.PLP.part.repulsive>
0.2555

> <Gold.PLP.ligand.clash>
0.0000

> <Gold.PLP.ligand.torsion>
0.2319

> <Gold.PLP.Chemscore.Hbond>
2.9440

> <Gold.PLP.Chemscore.CHOScore>
0.8958

> <Gold.PLP.Chemscore.Metal>
0.0000

> <Gold.Chemscore.Hbonds>
donor molecule, donor type, donor heavy atom, donor atom, acceptor molecule, acceptor atom, score
      L1  H     9    33       P1 10175  0.96
      L1  H    12    34       P1 10175  1.00
      L1  H    20    47       P1 10160  0.55
      L1  C     6    31       P1  7921  0.96

> <Gold.PLP.Chemscore.Internal.Correction>
0.0397

> <Gold.Rescore>
     Score         DG    S(hbond)    S(metal)    S(lipo)     H(rot)  DE(clash)    DE(int)     intcor
     14.44     -17.29       2.79        0.00      64.44       1.97       1.35       1.49       ----

> <Gold.Chemscore.Fitness>
14.4391

> <Gold.Chemscore.DG>
-17.2869

> <Gold.Chemscore.ZeroCoef>
-5.4800

> <Gold.Chemscore.Hbond>
2.7854

> <Gold.Chemscore.Metal>
0.0000

> <Gold.Chemscore.Lipo>
64.4421

> <Gold.Chemscore.Internal_Hbond>
0.0000

> <Gold.Chemscore.DEClash>
1.3535

> <Gold.Chemscore.DEInternal>
1.4942

> <Gold.Chemscore.Rot>
1.9672

> <Gold.Chemscore.Internal.Correction>
   9.000000E+99

> <Gold.Chemscore.Hbonds>
donor molecule, donor type, donor heavy atom, donor atom, acceptor molecule, acceptor atom, score
      L1  H     9    33       P1 10175  0.89
      L1  H    12    34       P1 10175  0.97
      L1  H    20    47       P1 10160  0.53

> <Gold.Chemscore.Hbond.Weighted>
-9.3032

> <Gold.Chemscore.Metal.Weighted>
-0.0000

> <Gold.Chemscore.Lipo.Weighted>
-7.5397

> <Gold.Chemscore.Internal_Hbond.Weighted>
0.0000

> <Gold.Chemscore.DEClash.Weighted>
1.3535

> <Gold.Chemscore.DEInternal.Weighted>
1.4942

> <Gold.Chemscore.Rot.Weighted>
5.0360

> <Gold.Chemscore.Internal.Correction.Weighted>
   9.000000E+99

> <Gold.Protein.RotatedTorsions>
[ 6907 6896 6895 6894 ] final -141.87 input  -60.11 | X-H torsion
[ 7974 7965 7964 7962 ] final -142.71 input  175.53 | X-H torsion
[ 8008 7997 7996 7995 ] final -142.44 input   59.86 | X-H torsion
[ 10167 10162 10161 10158 ] final  -82.60 input  -65.29 | X-H torsion
[ 10718 10713 10712 10709 ] final   37.24 input   66.30 | X-H torsion
[ 10763 10752 10751 10750 ] final  -32.76 input  -60.55 | X-H torsion
[ 11005 11000 10999 10996 ] final  113.52 input  -57.11 | X-H torsion

> <Gold.Protein.ActiveResidues>
 VAL166  LYS551  ARG553  GLY616  TRP617  ASP618  TYR619  PRO620  LYS621  CYS622 
 ASP623  PHE694  ASN695  SER759  ASP760  ASP761  ALA762  ILE779  LEU786  VAL792 
 PHE793  MET794  SER795  GLU796  ALA797  LYS798  CYS799  TRP800  GLU811  SER814 

> <Gold.Protein.RotatedAtoms>
  151.0796  133.5401  159.2621 H   0  0  0  0  0  0  0  0  0  0  0  0  # atno 6907 bound_to 6896
  151.2309  135.0553  159.8997 H   0  0  0  0  0  0  0  0  0  0  0  0  # atno 6908 bound_to 6896
  152.5422  134.0584  159.8195 H   0  0  0  0  0  0  0  0  0  0  0  0  # atno 6909 bound_to 6896
  144.8423  140.5925  143.5444 H   0  0  0  0  0  0  0  0  0  0  0  0  # atno 7974 bound_to 7965
  155.4942  140.0570  157.2949 H   0  0  0  0  0  0  0  0  0  0  0  0  # atno 8008 bound_to 7997
  154.4611  140.1997  156.0192 H   0  0  0  0  0  0  0  0  0  0  0  0  # atno 8009 bound_to 7997
  156.0892  140.3236  155.7798 H   0  0  0  0  0  0  0  0  0  0  0  0  # atno 8010 bound_to 7997
  140.4304  143.2550  151.8767 H   0  0  0  0  0  0  0  0  0  0  0  0  # atno 10167 bound_to 10162
  157.3446  130.7566  149.6935 H   0  0  0  0  0  0  0  0  0  0  0  0  # atno 10718 bound_to 10713
  153.8191  135.6876  153.4829 H   0  0  0  0  0  0  0  0  0  0  0  0  # atno 10763 bound_to 10752
  153.1580  135.4591  154.9730 H   0  0  0  0  0  0  0  0  0  0  0  0  # atno 10764 bound_to 10752
  154.7935  135.3310  154.7665 H   0  0  0  0  0  0  0  0  0  0  0  0  # atno 10765 bound_to 10752
  139.8955  134.9551  156.6751 H   0  0  0  0  0  0  0  0  0  0  0  0  # atno 11005 bound_to 11000
  145.4668  139.1507  143.3836 LP  0  0  0  0  0  0  0  0  0  0  0  0  # atno 17320 bound_to 7965
  146.2714  140.4800  142.8813 LP  0  0  0  0  0  0  0  0  0  0  0  0  # atno 17321 bound_to 7965
  139.4785  144.5340  151.8625 LP  0  0  0  0  0  0  0  0  0  0  0  0  # atno 17342 bound_to 10162
  140.4433  144.1956  150.5892 LP  0  0  0  0  0  0  0  0  0  0  0  0  # atno 17343 bound_to 10162
  155.9712  130.4158  150.4199 LP  0  0  0  0  0  0  0  0  0  0  0  0  # atno 17370 bound_to 10713
  157.2252  131.0491  151.2524 LP  0  0  0  0  0  0  0  0  0  0  0  0  # atno 17371 bound_to 10713
  140.7342  133.9032  155.8233 LP  0  0  0  0  0  0  0  0  0  0  0  0  # atno 17394 bound_to 11000
  141.0129  134.0996  157.4203 LP  0  0  0  0  0  0  0  0  0  0  0  0  # atno 17395 bound_to 11000

$$$$
