AV-unprocessed.smi:109|AV-procd|sdf|1057|dock9
  -GOLD-   2262018123D 1   1.00000     0.00000
 Structure written by MMmdl.
 58 61  0  0  0  0  0  0  0  0  1 V2000
  148.8103  138.8980  157.0378 O   0  0  0  0  0  0  0  0  0  0  0  0
  148.0554  137.8578  157.6213 C   0  0  0  0  0  0  0  0  0  0  0  0
  148.9136  136.5858  157.7267 C   0  0  0  0  0  0  0  0  0  0  0  0
  148.1569  135.3419  158.2569 C   0  0  2  0  0  0  0  0  0  0  0  0
  147.1286  134.9444  157.2917 N   0  0  0  0  0  0  0  0  0  0  0  0
  147.4331  134.5065  156.0486 C   0  0  0  0  0  0  0  0  0  0  0  0
  148.6904  134.1089  155.7231 N   0  0  0  0  0  0  0  0  0  0  0  0
  148.9626  133.6956  154.4820 C   0  0  0  0  0  0  0  0  0  0  0  0
  148.1403  133.6023  153.4349 N   0  0  0  0  0  0  0  0  0  0  0  0
  146.8736  133.9948  153.7565 C   0  0  0  0  0  0  0  0  0  0  0  0
  146.4438  134.4553  155.0326 C   0  0  0  0  0  0  0  0  0  0  0  0
  145.0916  134.7685  154.9882 N   0  0  0  0  0  0  0  0  0  0  0  0
  144.7475  134.5094  153.7550 C   0  0  0  0  0  0  0  0  0  0  0  0
  145.7579  134.0387  152.9459 N   0  0  0  0  0  0  0  0  0  0  0  0
  145.6739  133.6778  151.4986 C   0  0  1  0  0  0  0  0  0  0  0  0
  146.0864  132.3503  151.3642 O   0  0  0  0  0  0  0  0  0  0  0  0
  145.2792  131.6853  150.3993 C   0  0  2  0  0  0  0  0  0  0  0  0
  145.9190  131.8707  149.0063 C   0  0  0  0  0  0  0  0  0  0  0  0
  146.9908  130.9692  148.8242 O   0  0  0  0  0  0  0  0  0  0  0  0
  143.9068  132.3382  150.6141 C   0  0  2  0  0  0  0  0  0  0  0  0
  142.9983  132.1930  149.5370 O   0  0  0  0  0  0  0  0  0  0  0  0
  144.2311  133.7876  150.9734 C   0  0  2  0  0  0  0  0  0  0  0  0
  144.1637  134.6416  149.8462 O   0  0  0  0  0  0  0  0  0  0  0  0
  147.4994  135.5683  159.6496 C   0  0  0  0  0  0  0  0  0  0  0  0
  148.3521  136.4575  160.5906 C   0  0  0  0  0  0  0  0  0  0  0  0
  147.7058  136.6407  161.9739 C   0  0  0  0  0  0  0  0  0  0  0  0
  147.4218  135.2916  162.6444 C   0  0  0  0  0  0  0  0  0  0  0  0
  146.5538  134.4119  161.7371 C   0  0  0  0  0  0  0  0  0  0  0  0
  147.2081  134.2209  160.3598 C   0  0  0  0  0  0  0  0  0  0  0  0
  146.3735  134.3501  150.9994 H   0  0  0  0  0  0  0  0  0  0  0  0
  145.2491  130.6231  150.6455 H   0  0  0  0  0  0  0  0  0  0  0  0
  143.4478  131.8668  151.4833 H   0  0  0  0  0  0  0  0  0  0  0  0
  143.5556  134.1679  151.7411 H   0  0  0  0  0  0  0  0  0  0  0  0
  149.7188  138.7754  157.2670 H   0  0  0  0  0  0  0  0  0  0  0  0
  147.7134  138.1881  158.6021 H   0  0  0  0  0  0  0  0  0  0  0  0
  147.1723  137.6756  157.0085 H   0  0  0  0  0  0  0  0  0  0  0  0
  149.2949  136.3872  156.7267 H   0  0  0  0  0  0  0  0  0  0  0  0
  149.7844  136.7810  158.3541 H   0  0  0  0  0  0  0  0  0  0  0  0
  148.8858  134.5423  158.3880 H   0  0  0  0  0  0  0  0  0  0  0  0
  146.1759  135.0307  157.6159 H   0  0  0  0  0  0  0  0  0  0  0  0
  149.9857  133.3998  154.3016 H   0  0  0  0  0  0  0  0  0  0  0  0
  143.7382  134.6579  153.3988 H   0  0  0  0  0  0  0  0  0  0  0  0
  145.1940  131.7517  148.2019 H   0  0  0  0  0  0  0  0  0  0  0  0
  146.3241  132.8791  148.9196 H   0  0  0  0  0  0  0  0  0  0  0  0
  147.5856  131.0594  149.5533 H   0  0  0  0  0  0  0  0  0  0  0  0
  142.2573  132.7590  149.6923 H   0  0  0  0  0  0  0  0  0  0  0  0
  144.8518  134.3929  149.2473 H   0  0  0  0  0  0  0  0  0  0  0  0
  146.5462  136.0757  159.4919 H   0  0  0  0  0  0  0  0  0  0  0  0
  149.3458  136.0232  160.7070 H   0  0  0  0  0  0  0  0  0  0  0  0
  148.4936  137.4502  160.1669 H   0  0  0  0  0  0  0  0  0  0  0  0
  148.3566  137.2408  162.6104 H   0  0  0  0  0  0  0  0  0  0  0  0
  146.7753  137.2003  161.8698 H   0  0  0  0  0  0  0  0  0  0  0  0
  148.3621  134.7830  162.8605 H   0  0  0  0  0  0  0  0  0  0  0  0
  146.9245  135.4474  163.6020 H   0  0  0  0  0  0  0  0  0  0  0  0
  146.3902  133.4424  162.2083 H   0  0  0  0  0  0  0  0  0  0  0  0
  145.5700  134.8669  161.6156 H   0  0  0  0  0  0  0  0  0  0  0  0
  146.5505  133.5975  159.7541 H   0  0  0  0  0  0  0  0  0  0  0  0
  148.1366  133.6598  160.4752 H   0  0  0  0  0  0  0  0  0  0  0  0
  1  2  1  0  0  0  0
  1 34  1  0  0  0  0
  2  3  1  0  0  0  0
  2 35  1  0  0  0  0
  2 36  1  0  0  0  0
  3  4  1  0  0  0  0
  3 37  1  0  0  0  0
  3 38  1  0  0  0  0
  4  5  1  0  0  0  0
  4 24  1  0  0  0  0
  4 39  1  0  0  0  0
  5  6  1  0  0  0  0
  5 40  1  0  0  0  0
  6 11  1  0  0  0  0
  6  7  2  0  0  0  0
  7  8  1  0  0  0  0
  8  9  2  0  0  0  0
  8 41  1  0  0  0  0
  9 10  1  0  0  0  0
 10 14  1  0  0  0  0
 10 11  2  0  0  0  0
 11 12  1  0  0  0  0
 12 13  2  0  0  0  0
 13 14  1  0  0  0  0
 13 42  1  0  0  0  0
 14 15  1  0  0  0  0
 15 30  1  0  0  0  0
 15 22  1  0  0  0  0
 15 16  1  0  0  0  0
 16 17  1  0  0  0  0
 17 31  1  0  0  0  0
 17 18  1  0  0  0  0
 17 20  1  0  0  0  0
 18 19  1  0  0  0  0
 18 43  1  0  0  0  0
 18 44  1  0  0  0  0
 19 45  1  0  0  0  0
 20 32  1  0  0  0  0
 20 21  1  0  0  0  0
 20 22  1  0  0  0  0
 21 46  1  0  0  0  0
 22 33  1  0  0  0  0
 22 23  1  0  0  0  0
 23 47  1  0  0  0  0
 24 29  1  0  0  0  0
 24 25  1  0  0  0  0
 24 48  1  0  0  0  0
 25 26  1  0  0  0  0
 25 49  1  0  0  0  0
 25 50  1  0  0  0  0
 26 27  1  0  0  0  0
 26 51  1  0  0  0  0
 26 52  1  0  0  0  0
 27 28  1  0  0  0  0
 27 53  1  0  0  0  0
 27 54  1  0  0  0  0
 28 29  1  0  0  0  0
 28 55  1  0  0  0  0
 28 56  1  0  0  0  0
 29 57  1  0  0  0  0
 29 58  1  0  0  0  0
M  END
> <s_m_source_file>
AV-unprocessed.smi

> <i_m_source_file_index>
109

> <i_lp_mmshare_version>
43012

> <i_f3d_flags>
0

> <s_epik_input>
W0NIMl0xW0NIMl1bQ0gyXVtDSDJdW0NIMl1bQ0hdMVtDQEhdKFtDSDJdW0NIMl1bT0hdKVtOSF1jKG5bY0hdbjIpYyhjMjMpbltjSF1uM1tDQEBIXTRPW0NASF0oW0NIMl1bT0hdKVtDQEBIXShbT0hdKVtDQEhdNFtPSF0=

> <s_epik_cmdline>
J2VwaWtfcHl0aG9uJywgJy1waCcsICc3LjAnLCAnLXRuJywgJzgnLCAnLW1hJywgJzIwMCcsICctbWV0YWxfYmluZGluZycsICctaW1hZScsICc8aW5maWxlLm1hZT4nLCAnLW9tYWUnLCAnPG91dGZpbGUubWFlPic=

> <r_lp_tautomer_probability>
1

> <r_epik_Ionization_Penalty>
0.000793976

> <r_epik_Ionization_Penalty_Charging>
0

> <r_epik_Ionization_Penalty_Neutral>
0.000793976

> <r_epik_State_Penalty>
-0

> <r_epik_Charging_Adjusted_Penalty>
0

> <i_epik_Tot_Q>
0

> <i_epik_Tot_abs_Q>
0

> <r_epik_Metal_State_Penalty>
-0

> <b_epik_Metal_Only>
0

> <s_epik_Chemistry_Notes>
This compound contains an acetal/aminal-like group ( X-CH(R)-Y where X, Y are N, S, or O) that may be acid/base labile, releasing an aldehyde.

> <s_lp_Force_Field>
OPLS_2005

> <r_lp_Energy>
58.5181

> <b_lp_Chiralities_Consistent>
1

> <s_lp_Variant>
AV-unprocessed.smi:109-27

> <Gold.Version>
5.8.1

> <Gold.Id.Protein>
6NUR|6NUR_protein|mol2

> <Gold.PLP.Fitness>
50.7115

> <Gold.PLP.PLP>
-41.9306

> <Gold.PLP.part.hbond>
-4.6575

> <Gold.PLP.part.metal>
0.0000

> <Gold.PLP.part.buried>
-5.8917

> <Gold.PLP.part.nonpolar>
-31.6564

> <Gold.PLP.part.repulsive>
0.3755

> <Gold.PLP.ligand.clash>
0.0000

> <Gold.PLP.ligand.torsion>
0.6814

> <Gold.PLP.Chemscore.Hbond>
3.3075

> <Gold.PLP.Chemscore.CHOScore>
0.0000

> <Gold.PLP.Chemscore.Metal>
0.0000

> <Gold.Chemscore.Hbonds>
donor molecule, donor type, donor heavy atom, donor atom, acceptor molecule, acceptor atom, score
      L1  H    19    45       P1 10747  1.00
      L1  H    21    46       P1 10186  0.88
      L1  H    23    47       P1  7921  0.81
      P1  H 10785 10796       L1    21  0.55

> <Gold.PLP.Chemscore.Internal.Correction>
0.2211

> <Gold.Rescore>
     Score         DG    S(hbond)    S(metal)    S(lipo)     H(rot)  DE(clash)    DE(int)     intcor
     11.05     -12.00       3.08        0.00      87.48       5.47       0.26       0.69       ----

> <Gold.Chemscore.Fitness>
11.0544

> <Gold.Chemscore.DG>
-12.0014

> <Gold.Chemscore.ZeroCoef>
-5.4800

> <Gold.Chemscore.Hbond>
3.0779

> <Gold.Chemscore.Metal>
0.0000

> <Gold.Chemscore.Lipo>
87.4768

> <Gold.Chemscore.Internal_Hbond>
0.0000

> <Gold.Chemscore.DEClash>
0.2564

> <Gold.Chemscore.DEInternal>
0.6906

> <Gold.Chemscore.Rot>
5.4662

> <Gold.Chemscore.Internal.Correction>
   9.000000E+99

> <Gold.Chemscore.Hbonds>
donor molecule, donor type, donor heavy atom, donor atom, acceptor molecule, acceptor atom, score
      L1  H    19    45       P1 10747  0.91
      L1  H    21    46       P1 10186  0.85
      L1  H    23    47       P1  7921  0.77
      P1  H 10777 10791       L1    19  0.01
      P1  H 10785 10796       L1    21  0.37

> <Gold.Chemscore.Hbond.Weighted>
-10.2801

> <Gold.Chemscore.Metal.Weighted>
-0.0000

> <Gold.Chemscore.Lipo.Weighted>
-10.2348

> <Gold.Chemscore.Internal_Hbond.Weighted>
0.0000

> <Gold.Chemscore.DEClash.Weighted>
0.2564

> <Gold.Chemscore.DEInternal.Weighted>
0.6906

> <Gold.Chemscore.Rot.Weighted>
13.9935

> <Gold.Chemscore.Internal.Correction.Weighted>
   9.000000E+99

> <Gold.Protein.RotatedTorsions>
[ 6907 6896 6895 6894 ] final  132.31 input  -60.11 | X-H torsion
[ 7974 7965 7964 7962 ] final    3.76 input  175.53 | X-H torsion
[ 8008 7997 7996 7995 ] final  148.77 input   59.86 | X-H torsion
[ 10167 10162 10161 10158 ] final -163.57 input  -65.29 | X-H torsion
[ 10718 10713 10712 10709 ] final  144.15 input   66.30 | X-H torsion
[ 10763 10752 10751 10750 ] final  -67.75 input  -60.55 | X-H torsion
[ 11005 11000 10999 10996 ] final -130.28 input  -57.11 | X-H torsion

> <Gold.Protein.ActiveResidues>
 VAL166  LYS551  ARG553  GLY616  TRP617  ASP618  TYR619  PRO620  LYS621  CYS622 
 ASP623  PHE694  ASN695  SER759  ASP760  ASP761  ALA762  ILE779  LEU786  VAL792 
 PHE793  MET794  SER795  GLU796  ALA797  LYS798  CYS799  TRP800  GLU811  SER814 

> <Gold.Protein.RotatedAtoms>
  152.3337  133.5987  159.5827 H   0  0  0  0  0  0  0  0  0  0  0  0  # atno 6907 bound_to 6896
  150.7438  133.9829  159.3591 H   0  0  0  0  0  0  0  0  0  0  0  0  # atno 6908 bound_to 6896
  151.7701  135.0789  160.0409 H   0  0  0  0  0  0  0  0  0  0  0  0  # atno 6909 bound_to 6896
  146.2445  140.0637  142.8367 H   0  0  0  0  0  0  0  0  0  0  0  0  # atno 7974 bound_to 7965
  156.2779  140.2119  156.5752 H   0  0  0  0  0  0  0  0  0  0  0  0  # atno 8008 bound_to 7997
  154.7103  140.0512  157.0567 H   0  0  0  0  0  0  0  0  0  0  0  0  # atno 8009 bound_to 7997
  155.0614  140.3167  155.4662 H   0  0  0  0  0  0  0  0  0  0  0  0  # atno 8010 bound_to 7997
  139.6312  144.0437  152.2017 H   0  0  0  0  0  0  0  0  0  0  0  0  # atno 10167 bound_to 10162
  157.3605  131.0964  151.0919 H   0  0  0  0  0  0  0  0  0  0  0  0  # atno 10718 bound_to 10713
  154.3791  135.6078  153.5781 H   0  0  0  0  0  0  0  0  0  0  0  0  # atno 10763 bound_to 10752
  152.9788  135.5856  154.4432 H   0  0  0  0  0  0  0  0  0  0  0  0  # atno 10764 bound_to 10752
  154.4198  135.2845  155.1961 H   0  0  0  0  0  0  0  0  0  0  0  0  # atno 10765 bound_to 10752
  140.9359  134.1257  157.4194 H   0  0  0  0  0  0  0  0  0  0  0  0  # atno 11005 bound_to 11000
  145.0877  140.9263  143.4787 LP  0  0  0  0  0  0  0  0  0  0  0  0  # atno 17320 bound_to 7965
  145.0803  139.2964  143.5787 LP  0  0  0  0  0  0  0  0  0  0  0  0  # atno 17321 bound_to 7965
  140.0103  144.6229  150.7653 LP  0  0  0  0  0  0  0  0  0  0  0  0  # atno 17342 bound_to 10162
  140.7440  143.2854  151.3479 LP  0  0  0  0  0  0  0  0  0  0  0  0  # atno 17343 bound_to 10162
  157.2060  130.6416  149.5756 LP  0  0  0  0  0  0  0  0  0  0  0  0  # atno 17370 bound_to 10713
  155.9737  130.4675  150.6327 LP  0  0  0  0  0  0  0  0  0  0  0  0  # atno 17371 bound_to 10713
  139.8808  135.0021  156.6104 LP  0  0  0  0  0  0  0  0  0  0  0  0  # atno 17394 bound_to 11000
  140.7800  133.8668  155.8560 LP  0  0  0  0  0  0  0  0  0  0  0  0  # atno 17395 bound_to 11000

$$$$
