AV-unprocessed.smi:157|AV-procd|sdf|1294|dock9
  -GOLD-   2262018583D 1   1.00000     0.00000
 Structure written by MMmdl.
 35 37  0  0  0  0  0  0  0  0  1 V2000
  150.9915  139.6831  155.5321 O   0  0  0  0  0  0  0  0  0  0  0  0
  149.9274  139.4637  154.6292 C   0  0  0  0  0  0  0  0  0  0  0  0
  148.5811  139.8834  155.2554 C   0  0  2  0  0  0  0  0  0  0  0  0
  147.6044  138.9283  154.8354 O   0  0  0  0  0  0  0  0  0  0  0  0
  146.6744  139.5178  153.9749 C   0  0  2  0  0  0  0  0  0  0  0  0
  146.4857  138.6337  152.7824 N   0  0  0  0  0  0  0  0  0  0  0  0
  146.8046  138.9251  151.5140 C   0  0  0  0  0  0  0  0  0  0  0  0
  146.5317  137.9658  150.6456 N   0  0  0  0  0  0  0  0  0  0  0  0
  145.9701  136.9559  151.4250 C   0  0  0  0  0  0  0  0  0  0  0  0
  145.9229  137.3548  152.7532 C   0  0  0  0  0  0  0  0  0  0  0  0
  145.4877  136.8047  153.9439 N   0  0  0  0  0  0  0  0  0  0  0  0
  144.6639  135.8062  153.8866 C   0  0  0  0  0  0  0  0  0  0  0  0
  144.1893  135.0985  152.7914 N   0  0  0  0  0  0  0  0  0  0  0  0
  145.0512  134.5839  151.7410 C   0  0  0  0  0  0  0  0  0  0  0  0
  145.5561  135.6654  150.7780 C   0  0  1  0  0  0  0  0  0  0  0  0
  144.5362  135.9754  149.8506 O   0  0  0  0  0  0  0  0  0  0  0  0
  147.2492  140.8639  153.5488 C   0  0  0  0  0  0  0  0  0  0  0  0
  148.0166  141.2404  154.7956 C   0  0  2  0  0  0  0  0  0  0  0  0
  148.9891  142.2302  154.5281 O   0  0  0  0  0  0  0  0  0  0  0  0
  148.6580  139.8465  156.3429 H   0  0  0  0  0  0  0  0  0  0  0  0
  145.7021  139.5849  154.4642 H   0  0  0  0  0  0  0  0  0  0  0  0
  146.3889  135.2557  150.2056 H   0  0  0  0  0  0  0  0  0  0  0  0
  147.3222  141.6183  155.5472 H   0  0  0  0  0  0  0  0  0  0  0  0
  150.6478  140.1064  156.3040 H   0  0  0  0  0  0  0  0  0  0  0  0
  150.1157  139.9863  153.6911 H   0  0  0  0  0  0  0  0  0  0  0  0
  149.9110  138.3978  154.4001 H   0  0  0  0  0  0  0  0  0  0  0  0
  147.2511  139.8629  151.2180 H   0  0  0  0  0  0  0  0  0  0  0  0
  144.2556  135.4176  154.8205 H   0  0  0  0  0  0  0  0  0  0  0  0
  143.3730  134.5165  152.9123 H   0  0  0  0  0  0  0  0  0  0  0  0
  145.9099  134.1181  152.2269 H   0  0  0  0  0  0  0  0  0  0  0  0
  144.5411  133.7880  151.1978 H   0  0  0  0  0  0  0  0  0  0  0  0
  144.2212  136.8464  150.0394 H   0  0  0  0  0  0  0  0  0  0  0  0
  147.9187  140.7293  152.6974 H   0  0  0  0  0  0  0  0  0  0  0  0
  146.4598  141.5666  153.2805 H   0  0  0  0  0  0  0  0  0  0  0  0
  148.7794  143.0002  155.0345 H   0  0  0  0  0  0  0  0  0  0  0  0
  1  2  1  0  0  0  0
  1 24  1  0  0  0  0
  2  3  1  0  0  0  0
  2 25  1  0  0  0  0
  2 26  1  0  0  0  0
  3 20  1  0  0  0  0
  3 18  1  0  0  0  0
  3  4  1  0  0  0  0
  4  5  1  0  0  0  0
  5 21  1  0  0  0  0
  5  6  1  0  0  0  0
  5 17  1  0  0  0  0
  6 10  1  0  0  0  0
  6  7  1  0  0  0  0
  7  8  2  0  0  0  0
  7 27  1  0  0  0  0
  8  9  1  0  0  0  0
  9 15  1  0  0  0  0
  9 10  2  0  0  0  0
 10 11  1  0  0  0  0
 11 12  2  0  0  0  0
 12 13  1  0  0  0  0
 12 28  1  0  0  0  0
 13 14  1  0  0  0  0
 13 29  1  0  0  0  0
 14 15  1  0  0  0  0
 14 30  1  0  0  0  0
 14 31  1  0  0  0  0
 15 22  1  0  0  0  0
 15 16  1  0  0  0  0
 16 32  1  0  0  0  0
 17 18  1  0  0  0  0
 17 33  1  0  0  0  0
 17 34  1  0  0  0  0
 18 23  1  0  0  0  0
 18 19  1  0  0  0  0
 19 35  1  0  0  0  0
M  END
> <s_m_source_file>
AV-unprocessed.smi

> <i_m_source_file_index>
157

> <i_lp_mmshare_version>
43012

> <i_f3d_flags>
0

> <s_epik_input>
W09IXVtDSDJdW0NASF0xT1tDQEhdKFtDSDJdW0NAQEhdMVtPSF0pbihbY0hdbjIpYyhjMjMpTj1bQ0hdW05IXVtDSDJdW0NASF0zW09IXQ==

> <s_epik_cmdline>
J2VwaWtfcHl0aG9uJywgJy1waCcsICc3LjAnLCAnLXRuJywgJzgnLCAnLW1hJywgJzIwMCcsICctbWV0YWxfYmluZGluZycsICctaW1hZScsICc8aW5maWxlLm1hZT4nLCAnLW9tYWUnLCAnPG91dGZpbGUubWFlPic=

> <r_lp_tautomer_probability>
1

> <r_epik_Ionization_Penalty>
0.0357149

> <r_epik_Ionization_Penalty_Charging>
0.0355056

> <r_epik_Ionization_Penalty_Neutral>
0.000209255

> <r_epik_State_Penalty>
0.0296046

> <r_epik_Charging_Adjusted_Penalty>
0.0651102

> <i_epik_Tot_Q>
0

> <i_epik_Tot_abs_Q>
0

> <r_epik_Metal_State_Penalty>
3.03559e-05

> <b_epik_Metal_Only>
0

> <s_epik_Chemistry_Notes>
This compound has an imine and may undergo hydrolysis. This compound contains an acetal/aminal-like group ( X-CH(R)-Y where X, Y are N, S, or O) that may be acid/base labile, releasing an aldehyde.

> <s_lp_Force_Field>
OPLS_2005

> <r_lp_Energy>
46.7001

> <b_lp_Chiralities_Consistent>
1

> <s_lp_Variant>
AV-unprocessed.smi:157-4

> <Gold.Version>
5.8.1

> <Gold.Id.Protein>
6NUR|6NUR_protein|mol2

> <Gold.PLP.Fitness>
38.7133

> <Gold.PLP.PLP>
-28.5970

> <Gold.PLP.part.hbond>
-5.2454

> <Gold.PLP.part.metal>
0.0000

> <Gold.PLP.part.buried>
-1.8829

> <Gold.PLP.part.nonpolar>
-25.4767

> <Gold.PLP.part.repulsive>
2.3520

> <Gold.PLP.ligand.clash>
0.0000

> <Gold.PLP.ligand.torsion>
0.6035

> <Gold.PLP.Chemscore.Hbond>
3.0176

> <Gold.PLP.Chemscore.CHOScore>
0.7524

> <Gold.PLP.Chemscore.Metal>
0.0000

> <Gold.Chemscore.Hbonds>
donor molecule, donor type, donor heavy atom, donor atom, acceptor molecule, acceptor atom, score
      L1  H    16    32       P1 10171  1.00
      L1  H    19    35       P1  8028  1.00
      P1  H  7954  7966       L1     8  0.90
      P1  H  8011  8017       L1    19  0.06
      L1  C     7    27       P1  7957  0.79

> <Gold.PLP.Chemscore.Internal.Correction>
0.0131

> <Gold.Rescore>
     Score         DG    S(hbond)    S(metal)    S(lipo)     H(rot)  DE(clash)    DE(int)     intcor
      6.17      -9.27       2.41        0.00      43.12       3.64       2.56       0.55       ----

> <Gold.Chemscore.Fitness>
6.1653

> <Gold.Chemscore.DG>
-9.2691

> <Gold.Chemscore.ZeroCoef>
-5.4800

> <Gold.Chemscore.Hbond>
2.4110

> <Gold.Chemscore.Metal>
0.0000

> <Gold.Chemscore.Lipo>
43.1188

> <Gold.Chemscore.Internal_Hbond>
0.0000

> <Gold.Chemscore.DEClash>
2.5585

> <Gold.Chemscore.DEInternal>
0.5452

> <Gold.Chemscore.Rot>
3.6362

> <Gold.Chemscore.Internal.Correction>
   9.000000E+99

> <Gold.Chemscore.Hbonds>
donor molecule, donor type, donor heavy atom, donor atom, acceptor molecule, acceptor atom, score
      L1  H    16    32       P1 10171  0.99
      L1  H    19    35       P1  8028  0.99
      P1  H  7954  7966       L1     8  0.17
      P1  H  8011  8017       L1    19  0.06

> <Gold.Chemscore.Hbond.Weighted>
-8.0529

> <Gold.Chemscore.Metal.Weighted>
-0.0000

> <Gold.Chemscore.Lipo.Weighted>
-5.0449

> <Gold.Chemscore.Internal_Hbond.Weighted>
0.0000

> <Gold.Chemscore.DEClash.Weighted>
2.5585

> <Gold.Chemscore.DEInternal.Weighted>
0.5452

> <Gold.Chemscore.Rot.Weighted>
9.3087

> <Gold.Chemscore.Internal.Correction.Weighted>
   9.000000E+99

> <Gold.Protein.RotatedTorsions>
[ 6907 6896 6895 6894 ] final  -96.57 input  -60.11 | X-H torsion
[ 7974 7965 7964 7962 ] final -166.42 input  175.53 | X-H torsion
[ 8008 7997 7996 7995 ] final  172.39 input   59.86 | X-H torsion
[ 10167 10162 10161 10158 ] final    6.49 input  -65.29 | X-H torsion
[ 10718 10713 10712 10709 ] final -131.94 input   66.30 | X-H torsion
[ 10763 10752 10751 10750 ] final   44.16 input  -60.55 | X-H torsion
[ 11005 11000 10999 10996 ] final   71.19 input  -57.11 | X-H torsion

> <Gold.Protein.ActiveResidues>
 VAL166  LYS551  ARG553  GLY616  TRP617  ASP618  TYR619  PRO620  LYS621  CYS622 
 ASP623  PHE694  ASN695  SER759  ASP760  ASP761  ALA762  ILE779  LEU786  VAL792 
 PHE793  MET794  SER795  GLU796  ALA797  LYS798  CYS799  TRP800  GLU811  SER814 

> <Gold.Protein.RotatedAtoms>
  150.6992  134.1483  159.4130 H   0  0  0  0  0  0  0  0  0  0  0  0  # atno 6907 bound_to 6896
  151.9466  135.0186  160.0548 H   0  0  0  0  0  0  0  0  0  0  0  0  # atno 6908 bound_to 6896
  152.2047  133.4832  159.5114 H   0  0  0  0  0  0  0  0  0  0  0  0  # atno 6909 bound_to 6896
  144.7246  140.2669  143.6256 H   0  0  0  0  0  0  0  0  0  0  0  0  # atno 7974 bound_to 7965
  156.1179  140.1487  156.9246 H   0  0  0  0  0  0  0  0  0  0  0  0  # atno 8008 bound_to 7997
  154.4814  140.0878  156.7428 H   0  0  0  0  0  0  0  0  0  0  0  0  # atno 8009 bound_to 7997
  155.4480  140.3433  155.4299 H   0  0  0  0  0  0  0  0  0  0  0  0  # atno 8010 bound_to 7997
  140.6424  143.7741  150.7448 H   0  0  0  0  0  0  0  0  0  0  0  0  # atno 10167 bound_to 10162
  156.2295  130.7028  151.0842 H   0  0  0  0  0  0  0  0  0  0  0  0  # atno 10718 bound_to 10713
  152.9846  135.6079  154.3229 H   0  0  0  0  0  0  0  0  0  0  0  0  # atno 10763 bound_to 10752
  154.2938  135.2774  155.2644 H   0  0  0  0  0  0  0  0  0  0  0  0  # atno 10764 bound_to 10752
  154.4928  135.5887  153.6528 H   0  0  0  0  0  0  0  0  0  0  0  0  # atno 10765 bound_to 10752
  139.9556  134.7149  156.0760 H   0  0  0  0  0  0  0  0  0  0  0  0  # atno 11005 bound_to 11000
  145.8081  139.1992  143.2009 LP  0  0  0  0  0  0  0  0  0  0  0  0  # atno 17320 bound_to 7965
  146.0619  140.7961  142.9730 LP  0  0  0  0  0  0  0  0  0  0  0  0  # atno 17321 bound_to 7965
  140.1376  143.4470  152.2215 LP  0  0  0  0  0  0  0  0  0  0  0  0  # atno 17342 bound_to 10162
  139.5634  144.7420  151.4091 LP  0  0  0  0  0  0  0  0  0  0  0  0  # atno 17343 bound_to 10162
  157.7126  131.0726  150.6445 LP  0  0  0  0  0  0  0  0  0  0  0  0  # atno 17370 bound_to 10713
  156.6512  130.4485  149.5719 LP  0  0  0  0  0  0  0  0  0  0  0  0  # atno 17371 bound_to 10713
  141.1227  133.6608  156.3257 LP  0  0  0  0  0  0  0  0  0  0  0  0  # atno 17394 bound_to 11000
  140.5616  134.5928  157.5435 LP  0  0  0  0  0  0  0  0  0  0  0  0  # atno 17395 bound_to 11000

$$$$
