AV-unprocessed.smi:2770|AV-procd|sdf|10660|dock1
  -GOLD-   2272015103D 1   1.00000     0.00000
 Structure written by MMmdl.
 35 36  0  0  0  0  0  0  0  0  2 V2000
  146.6621  142.5927  154.1562 C   0  0  0  0  0  0  0  0  0  0  0  0
  147.6265  141.9586  155.0418 N   0  0  0  0  0  0  0  0  0  0  0  0
  148.7693  141.3880  154.6321 C   0  0  0  0  0  0  0  0  0  0  0  0
  149.1136  141.3553  153.4499 O   0  0  0  0  0  0  0  0  0  0  0  0
  149.6633  140.7807  155.7224 C   0  0  2  0  0  0  0  0  0  0  0  0
  150.1907  141.8433  156.7135 C   0  0  0  0  0  0  0  0  0  0  0  0
  151.1126  141.2360  157.6645 N   0  0  0  0  0  0  0  0  0  0  0  0
  151.5456  142.1338  158.6487 C   0  0  0  0  0  0  0  0  0  0  0  0
  151.1804  143.5002  158.6740 C   0  0  0  0  0  0  0  0  0  0  0  0
  151.6629  144.3242  159.7115 C   0  0  0  0  0  0  0  0  0  0  0  0
  152.4984  143.7702  160.7027 C   0  0  0  0  0  0  0  0  0  0  0  0
  152.8313  142.4010  160.6336 C   0  0  0  0  0  0  0  0  0  0  0  0
  153.7202  141.7299  161.6589 C   0  0  0  0  0  0  0  0  0  0  0  0
  152.3474  141.6462  159.6218 N   0  3  0  0  0  0  0  0  0  0  0  0
  152.1982  140.5149  157.0138 C   0  0  0  0  0  0  0  0  0  0  0  0
  151.6231  139.4788  156.0352 C   0  0  0  0  0  0  0  0  0  0  0  0
  150.7750  140.1356  155.0983 O   0  0  0  0  0  0  0  0  0  0  0  0
  145.8126  142.9588  154.7324 H   0  0  0  0  0  0  0  0  0  0  0  0
  146.2909  141.8846  153.4144 H   0  0  0  0  0  0  0  0  0  0  0  0
  147.1115  143.4392  153.6357 H   0  0  0  0  0  0  0  0  0  0  0  0
  147.4131  141.9491  156.0291 H   0  0  0  0  0  0  0  0  0  0  0  0
  149.0711  140.0364  156.2580 H   0  0  0  0  0  0  0  0  0  0  0  0
  150.6977  142.6443  156.1726 H   0  0  0  0  0  0  0  0  0  0  0  0
  149.3606  142.2963  157.2577 H   0  0  0  0  0  0  0  0  0  0  0  0
  150.5360  143.9153  157.9127 H   0  0  0  0  0  0  0  0  0  0  0  0
  151.3940  145.3697  159.7476 H   0  0  0  0  0  0  0  0  0  0  0  0
  152.8752  144.3895  161.5040 H   0  0  0  0  0  0  0  0  0  0  0  0
  153.9889  142.4210  162.4586 H   0  0  0  0  0  0  0  0  0  0  0  0
  154.6391  141.3759  161.1910 H   0  0  0  0  0  0  0  0  0  0  0  0
  153.2092  140.8762  162.1049 H   0  0  0  0  0  0  0  0  0  0  0  0
  152.8402  141.2128  156.4751 H   0  0  0  0  0  0  0  0  0  0  0  0
  152.8150  140.0195  157.7646 H   0  0  0  0  0  0  0  0  0  0  0  0
  152.4295  138.9808  155.4967 H   0  0  0  0  0  0  0  0  0  0  0  0
  151.0674  138.7045  156.5668 H   0  0  0  0  0  0  0  0  0  0  0  0
  152.6005  140.6583  159.5913 H   0  0  0  0  0  0  0  0  0  0  0  0
  1  2  1  0  0  0  0
  1 18  1  0  0  0  0
  1 19  1  0  0  0  0
  1 20  1  0  0  0  0
  2  3  1  0  0  0  0
  2 21  1  0  0  0  0
  3  4  2  0  0  0  0
  3  5  1  0  0  0  0
  5 17  1  0  0  0  0
  5  6  1  0  0  0  0
  5 22  1  0  0  0  0
  6  7  1  0  0  0  0
  6 23  1  0  0  0  0
  6 24  1  0  0  0  0
  7  8  1  0  0  0  0
  7 15  1  0  0  0  0
  8 14  1  0  0  0  0
  8  9  2  0  0  0  0
  9 10  1  0  0  0  0
  9 25  1  0  0  0  0
 10 11  2  0  0  0  0
 10 26  1  0  0  0  0
 11 12  1  0  0  0  0
 11 27  1  0  0  0  0
 12 13  1  0  0  0  0
 12 14  2  0  0  0  0
 13 28  1  0  0  0  0
 13 29  1  0  0  0  0
 13 30  1  0  0  0  0
 14 35  1  0  0  0  0
 15 16  1  0  0  0  0
 15 31  1  0  0  0  0
 15 32  1  0  0  0  0
 16 17  1  0  0  0  0
 16 33  1  0  0  0  0
 16 34  1  0  0  0  0
M  CHG  1  14   1
M  END
> <s_m_source_file>
AV-unprocessed.smi

> <i_m_source_file_index>
2770

> <i_lp_mmshare_version>
43012

> <i_f3d_flags>
0

> <s_epik_input>
W0NIM11bTkhdQyg9TylbQ0BASF0xW0NIMl1OKFtDSDJdW0NIMl1PMSljMltjSF1bY0hdW2NIXWMobjIpW0NIM10=

> <s_epik_cmdline>
J2VwaWtfcHl0aG9uJywgJy1waCcsICc3LjAnLCAnLXRuJywgJzgnLCAnLW1hJywgJzIwMCcsICctbWV0YWxfYmluZGluZycsICctaW1hZScsICc8aW5maWxlLm1hZT4nLCAnLW9tYWUnLCAnPG91dGZpbGUubWFlPic=

> <r_lp_tautomer_probability>
0.999994

> <r_epik_Ionization_Penalty>
2.33902

> <r_epik_Ionization_Penalty_Charging>
2.33902

> <r_epik_Ionization_Penalty_Neutral>
5.66859e-08

> <r_epik_State_Penalty>
2.4925

> <r_epik_Charging_Adjusted_Penalty>
4.83152

> <i_epik_Tot_Q>
1

> <i_epik_Tot_abs_Q>
1

> <r_epik_Metal_State_Penalty>
2.50392

> <b_epik_Metal_Only>
0

> <s_lp_Force_Field>
OPLS_2005

> <r_lp_Energy>
23.5554

> <b_lp_Chiralities_Consistent>
1

> <s_lp_Variant>
AV-unprocessed.smi:2770-3

> <Gold.Version>
5.8.1

> <Gold.Id.Protein>
6NUR|6NUR_protein|mol2

> <Gold.PLP.Fitness>
41.4581

> <Gold.PLP.PLP>
-35.6595

> <Gold.PLP.part.hbond>
-4.0000

> <Gold.PLP.part.metal>
0.0000

> <Gold.PLP.part.buried>
-5.8898

> <Gold.PLP.part.nonpolar>
-29.1512

> <Gold.PLP.part.repulsive>
3.4700

> <Gold.PLP.ligand.clash>
0.0000

> <Gold.PLP.ligand.torsion>
0.0905

> <Gold.PLP.Chemscore.Hbond>
1.9600

> <Gold.PLP.Chemscore.CHOScore>
0.0000

> <Gold.PLP.Chemscore.Metal>
0.0000

> <Gold.Chemscore.Hbonds>
donor molecule, donor type, donor heavy atom, donor atom, acceptor molecule, acceptor atom, score
      P1  H  7989  7998       L1    17  1.00
      P1  H  8011  8017       L1     4  0.94

> <Gold.PLP.Chemscore.Internal.Correction>
0.0995

> <Gold.Rescore>
     Score         DG    S(hbond)    S(metal)    S(lipo)     H(rot)  DE(clash)    DE(int)     intcor
     16.66     -18.69       1.86        0.00      88.14       1.30       1.87       0.16       ----

> <Gold.Chemscore.Fitness>
16.6632

> <Gold.Chemscore.DG>
-18.6871

> <Gold.Chemscore.ZeroCoef>
-5.4800

> <Gold.Chemscore.Hbond>
1.8603

> <Gold.Chemscore.Metal>
0.0000

> <Gold.Chemscore.Lipo>
88.1385

> <Gold.Chemscore.Internal_Hbond>
0.0000

> <Gold.Chemscore.DEClash>
1.8670

> <Gold.Chemscore.DEInternal>
0.1569

> <Gold.Chemscore.Rot>
1.2963

> <Gold.Chemscore.Internal.Correction>
   9.000000E+99

> <Gold.Chemscore.Hbonds>
donor molecule, donor type, donor heavy atom, donor atom, acceptor molecule, acceptor atom, score
      P1  H  7989  7998       L1    17  0.92
      P1  H  8011  8017       L1     4  0.91

> <Gold.Chemscore.Hbond.Weighted>
-6.2134

> <Gold.Chemscore.Metal.Weighted>
-0.0000

> <Gold.Chemscore.Lipo.Weighted>
-10.3122

> <Gold.Chemscore.Internal_Hbond.Weighted>
0.0000

> <Gold.Chemscore.DEClash.Weighted>
1.8670

> <Gold.Chemscore.DEInternal.Weighted>
0.1569

> <Gold.Chemscore.Rot.Weighted>
3.3185

> <Gold.Chemscore.Internal.Correction.Weighted>
   9.000000E+99

> <Gold.Protein.RotatedTorsions>
[ 6907 6896 6895 6894 ] final  -78.11 input  -60.11 | X-H torsion
[ 7974 7965 7964 7962 ] final  125.79 input  175.53 | X-H torsion
[ 8008 7997 7996 7995 ] final  -48.28 input   59.86 | X-H torsion
[ 10167 10162 10161 10158 ] final   40.45 input  -65.29 | X-H torsion
[ 10718 10713 10712 10709 ] final -149.38 input   66.30 | X-H torsion
[ 10763 10752 10751 10750 ] final   67.91 input  -60.55 | X-H torsion
[ 11005 11000 10999 10996 ] final   73.39 input  -57.11 | X-H torsion

> <Gold.Protein.ActiveResidues>
 VAL166  LYS551  ARG553  GLY616  TRP617  ASP618  TYR619  PRO620  LYS621  CYS622 
 ASP623  PHE694  ASN695  SER759  ASP760  ASP761  ALA762  ILE779  LEU786  VAL792 
 PHE793  MET794  SER795  GLU796  ALA797  LYS798  CYS799  TRP800  GLU811  SER814 

> <Gold.Protein.RotatedAtoms>
  150.6981  134.4322  159.5253 H   0  0  0  0  0  0  0  0  0  0  0  0  # atno 6907 bound_to 6896
  152.2046  134.8554  160.0513 H   0  0  0  0  0  0  0  0  0  0  0  0  # atno 6908 bound_to 6896
  151.9461  133.3617  159.4020 H   0  0  0  0  0  0  0  0  0  0  0  0  # atno 6909 bound_to 6896
  145.0690  139.3745  143.4967 H   0  0  0  0  0  0  0  0  0  0  0  0  # atno 7974 bound_to 7965
  154.4027  140.1325  156.4313 H   0  0  0  0  0  0  0  0  0  0  0  0  # atno 8008 bound_to 7997
  155.7548  140.3487  155.5148 H   0  0  0  0  0  0  0  0  0  0  0  0  # atno 8009 bound_to 7997
  155.8915  140.1004  157.1405 H   0  0  0  0  0  0  0  0  0  0  0  0  # atno 8010 bound_to 7997
  140.3740  144.2067  150.6132 H   0  0  0  0  0  0  0  0  0  0  0  0  # atno 10167 bound_to 10162
  156.4324  130.8082  151.2309 H   0  0  0  0  0  0  0  0  0  0  0  0  # atno 10718 bound_to 10713
  153.0209  135.5266  154.7053 H   0  0  0  0  0  0  0  0  0  0  0  0  # atno 10763 bound_to 10752
  154.6150  135.2882  155.0392 H   0  0  0  0  0  0  0  0  0  0  0  0  # atno 10764 bound_to 10752
  154.1400  135.6579  153.4992 H   0  0  0  0  0  0  0  0  0  0  0  0  # atno 10765 bound_to 10752
  139.9442  134.7342  156.1020 H   0  0  0  0  0  0  0  0  0  0  0  0  # atno 11005 bound_to 11000
  146.3528  140.0426  142.8642 LP  0  0  0  0  0  0  0  0  0  0  0  0  # atno 17320 bound_to 7965
  145.1315  140.9520  143.4541 LP  0  0  0  0  0  0  0  0  0  0  0  0  # atno 17321 bound_to 7965
  140.5004  143.2319  151.8686 LP  0  0  0  0  0  0  0  0  0  0  0  0  # atno 17342 bound_to 10162
  139.4801  144.5065  151.8990 LP  0  0  0  0  0  0  0  0  0  0  0  0  # atno 17343 bound_to 10162
  157.7508  131.0194  150.3665 LP  0  0  0  0  0  0  0  0  0  0  0  0  # atno 17370 bound_to 10713
  156.4005  130.3915  149.6963 LP  0  0  0  0  0  0  0  0  0  0  0  0  # atno 17371 bound_to 10713
  141.1088  133.6650  156.2927 LP  0  0  0  0  0  0  0  0  0  0  0  0  # atno 17394 bound_to 11000
  140.5875  134.5684  157.5492 LP  0  0  0  0  0  0  0  0  0  0  0  0  # atno 17395 bound_to 11000

$$$$
