AV-unprocessed.smi:438|AV-procd|sdf|2569|dock9
  -GOLD-   2262022543D 1   1.00000     0.00000
 Structure written by MMmdl.
 48 49  0  0  0  0  0  0  0  0  1 V2000
  141.3920  135.3662  153.5215 C   0  0  0  0  0  0  0  0  0  0  0  0
  142.7871  135.1840  154.0934 C   0  0  0  0  0  0  0  0  0  0  0  0
  142.8604  135.2948  155.4704 N   0  0  0  0  0  0  0  0  0  0  0  0
  144.0927  135.1576  156.0908 C   0  0  0  0  0  0  0  0  0  0  0  0
  143.9137  135.3640  157.8865 S   0  0  0  0  0  0  0  0  0  0  0  0
  145.0361  136.7550  158.2059 C   0  0  0  0  0  0  0  0  0  0  0  0
  145.1967  137.0318  159.6968 C   0  0  0  0  0  0  0  0  0  0  0  0
  145.5071  138.1564  160.0883 O   0  0  0  0  0  0  0  0  0  0  0  0
  144.9827  135.9914  160.5160 N   0  0  0  0  0  0  0  0  0  0  0  0
  145.0711  136.0182  161.9755 C   0  0  2  0  0  0  0  0  0  0  0  0
  146.3961  136.6646  162.4341 C   0  0  0  0  0  0  0  0  0  0  0  0
  147.6134  135.7807  162.1132 C   0  0  0  0  0  0  0  0  0  0  0  0
  147.4504  134.3747  162.7098 C   0  0  0  0  0  0  0  0  0  0  0  0
  146.1421  133.7160  162.2431 C   0  0  0  0  0  0  0  0  0  0  0  0
  144.9157  134.5949  162.5666 C   0  0  2  0  0  0  0  0  0  0  0  0
  143.6038  133.9118  162.1423 C   0  0  0  0  0  0  0  0  0  0  0  0
  145.1980  134.9148  155.4506 N   0  0  0  0  0  0  0  0  0  0  0  0
  145.1857  134.7764  154.0549 C   0  0  0  0  0  0  0  0  0  0  0  0
  146.2245  134.5272  153.4448 O   0  0  0  0  0  0  0  0  0  0  0  0
  143.8952  134.9401  153.3516 C   0  0  0  0  0  0  0  0  0  0  0  0
  143.8736  134.8008  151.8293 C   0  0  0  0  0  0  0  0  0  0  0  0
  144.9391  135.6576  151.1234 C   0  0  0  0  0  0  0  0  0  0  0  0
  144.6157  135.8399  149.7610 O   0  0  0  0  0  0  0  0  0  0  0  0
  141.3812  136.1788  152.7947 H   0  0  0  0  0  0  0  0  0  0  0  0
  140.6650  135.6040  154.2992 H   0  0  0  0  0  0  0  0  0  0  0  0
  141.0621  134.4534  153.0248 H   0  0  0  0  0  0  0  0  0  0  0  0
  144.6553  137.6466  157.7063 H   0  0  0  0  0  0  0  0  0  0  0  0
  146.0148  136.5385  157.7756 H   0  0  0  0  0  0  0  0  0  0  0  0
  144.7336  135.1073  160.0966 H   0  0  0  0  0  0  0  0  0  0  0  0
  144.2467  136.6263  162.3529 H   0  0  0  0  0  0  0  0  0  0  0  0
  146.5192  137.6483  161.9794 H   0  0  0  0  0  0  0  0  0  0  0  0
  146.3552  136.8355  163.5105 H   0  0  0  0  0  0  0  0  0  0  0  0
  147.7438  135.7082  161.0327 H   0  0  0  0  0  0  0  0  0  0  0  0
  148.5207  136.2448  162.5009 H   0  0  0  0  0  0  0  0  0  0  0  0
  148.3000  133.7516  162.4300 H   0  0  0  0  0  0  0  0  0  0  0  0
  147.4590  134.4372  163.7986 H   0  0  0  0  0  0  0  0  0  0  0  0
  146.1924  133.5257  161.1701 H   0  0  0  0  0  0  0  0  0  0  0  0
  146.0376  132.7412  162.7208 H   0  0  0  0  0  0  0  0  0  0  0  0
  144.8749  134.7028  163.6516 H   0  0  0  0  0  0  0  0  0  0  0  0
  143.5772  133.7148  161.0702 H   0  0  0  0  0  0  0  0  0  0  0  0
  142.7416  134.5319  162.3888 H   0  0  0  0  0  0  0  0  0  0  0  0
  143.4783  132.9574  162.6542 H   0  0  0  0  0  0  0  0  0  0  0  0
  142.0084  135.4837  155.9787 H   0  0  0  0  0  0  0  0  0  0  0  0
  142.8901  135.0492  151.4320 H   0  0  0  0  0  0  0  0  0  0  0  0
  144.0242  133.7512  151.5736 H   0  0  0  0  0  0  0  0  0  0  0  0
  145.0418  136.6322  151.6008 H   0  0  0  0  0  0  0  0  0  0  0  0
  145.9115  135.1689  151.1864 H   0  0  0  0  0  0  0  0  0  0  0  0
  145.2416  135.3629  149.2377 H   0  0  0  0  0  0  0  0  0  0  0  0
  1 24  1  0  0  0  0
  1 25  1  0  0  0  0
  1 26  1  0  0  0  0
  1  2  1  0  0  0  0
  2 20  2  0  0  0  0
  2  3  1  0  0  0  0
  3  4  1  0  0  0  0
  3 43  1  0  0  0  0
  4  5  1  0  0  0  0
  4 17  2  0  0  0  0
  5  6  1  0  0  0  0
  6  7  1  0  0  0  0
  6 27  1  0  0  0  0
  6 28  1  0  0  0  0
  7  8  2  0  0  0  0
  7  9  1  0  0  0  0
  9 10  1  0  0  0  0
  9 29  1  0  0  0  0
 10 15  1  0  0  0  0
 10 11  1  0  0  0  0
 10 30  1  0  0  0  0
 11 12  1  0  0  0  0
 11 31  1  0  0  0  0
 11 32  1  0  0  0  0
 12 13  1  0  0  0  0
 12 33  1  0  0  0  0
 12 34  1  0  0  0  0
 13 14  1  0  0  0  0
 13 35  1  0  0  0  0
 13 36  1  0  0  0  0
 14 15  1  0  0  0  0
 14 37  1  0  0  0  0
 14 38  1  0  0  0  0
 15 16  1  0  0  0  0
 15 39  1  0  0  0  0
 16 40  1  0  0  0  0
 16 41  1  0  0  0  0
 16 42  1  0  0  0  0
 17 18  1  0  0  0  0
 18 19  2  0  0  0  0
 18 20  1  0  0  0  0
 20 21  1  0  0  0  0
 21 22  1  0  0  0  0
 21 44  1  0  0  0  0
 21 45  1  0  0  0  0
 22 23  1  0  0  0  0
 22 46  1  0  0  0  0
 22 47  1  0  0  0  0
 23 48  1  0  0  0  0
M  END
> <s_m_source_file>
AV-unprocessed.smi

> <i_m_source_file_index>
438

> <i_lp_mmshare_version>
43012

> <i_f3d_flags>
0

> <s_epik_input>
W09IXVtDSDJdW0NIMl1jMWMoW09IXSluYyhuYzFbQ0gzXSlTW0NIMl1DKD1PKVtOSF1bQ0BASF0yW0NIMl1bQ0gyXVtDSDJdW0NIMl1bQ0BIXTJbQ0gzXQ==

> <s_epik_cmdline>
J2VwaWtfcHl0aG9uJywgJy1waCcsICc3LjAnLCAnLXRuJywgJzgnLCAnLW1hJywgJzIwMCcsICctbWV0YWxfYmluZGluZycsICctaW1hZScsICc8aW5maWxlLm1hZT4nLCAnLW9tYWUnLCAnPG91dGZpbGUubWFlPic=

> <r_lp_tautomer_probability>
0.273662

> <r_epik_Ionization_Penalty>
0.0875285

> <r_epik_Ionization_Penalty_Charging>
0.0875254

> <r_epik_Ionization_Penalty_Neutral>
3.01536e-06

> <r_epik_State_Penalty>
0.985796

> <r_epik_Charging_Adjusted_Penalty>
1.07332

> <i_epik_Tot_Q>
0

> <i_epik_Tot_abs_Q>
0

> <r_epik_Metal_State_Penalty>
1.58101

> <b_epik_Metal_Only>
0

> <s_lp_Force_Field>
OPLS_2005

> <r_lp_Energy>
19.296

> <b_lp_Chiralities_Consistent>
1

> <s_lp_Variant>
AV-unprocessed.smi:438-7

> <Gold.Version>
5.8.1

> <Gold.Id.Protein>
6NUR|6NUR_protein|mol2

> <Gold.PLP.Fitness>
42.2526

> <Gold.PLP.PLP>
-38.1740

> <Gold.PLP.part.hbond>
-3.9990

> <Gold.PLP.part.metal>
0.0000

> <Gold.PLP.part.buried>
-6.8595

> <Gold.PLP.part.nonpolar>
-27.5426

> <Gold.PLP.part.repulsive>
0.1506

> <Gold.PLP.ligand.clash>
0.0000

> <Gold.PLP.ligand.torsion>
0.6147

> <Gold.PLP.Chemscore.Hbond>
1.7520

> <Gold.PLP.Chemscore.CHOScore>
0.0000

> <Gold.PLP.Chemscore.Metal>
0.0000

> <Gold.Chemscore.Hbonds>
donor molecule, donor type, donor heavy atom, donor atom, acceptor molecule, acceptor atom, score
      L1  H    23    48       P1  7921  1.00
      P1  H  6934  6947       L1     8  0.74

> <Gold.PLP.Chemscore.Internal.Correction>
0.0520

> <Gold.Rescore>
     Score         DG    S(hbond)    S(metal)    S(lipo)     H(rot)  DE(clash)    DE(int)     intcor
     10.73     -13.72       1.95        0.00      77.41       2.86       0.01       2.99       ----

> <Gold.Chemscore.Fitness>
10.7255

> <Gold.Chemscore.DG>
-13.7204

> <Gold.Chemscore.ZeroCoef>
-5.4800

> <Gold.Chemscore.Hbond>
1.9511

> <Gold.Chemscore.Metal>
0.0000

> <Gold.Chemscore.Lipo>
77.4081

> <Gold.Chemscore.Internal_Hbond>
0.0000

> <Gold.Chemscore.DEClash>
0.0077

> <Gold.Chemscore.DEInternal>
2.9872

> <Gold.Chemscore.Rot>
2.8645

> <Gold.Chemscore.Internal.Correction>
   9.000000E+99

> <Gold.Chemscore.Hbonds>
donor molecule, donor type, donor heavy atom, donor atom, acceptor molecule, acceptor atom, score
      L1  H    23    48       P1  7921  0.98
      P1  H  6934  6947       L1     8  0.69

> <Gold.Chemscore.Hbond.Weighted>
-6.5168

> <Gold.Chemscore.Metal.Weighted>
-0.0000

> <Gold.Chemscore.Lipo.Weighted>
-9.0568

> <Gold.Chemscore.Internal_Hbond.Weighted>
0.0000

> <Gold.Chemscore.DEClash.Weighted>
0.0077

> <Gold.Chemscore.DEInternal.Weighted>
2.9872

> <Gold.Chemscore.Rot.Weighted>
7.3331

> <Gold.Chemscore.Internal.Correction.Weighted>
   9.000000E+99

> <Gold.Protein.RotatedTorsions>
[ 6907 6896 6895 6894 ] final -107.47 input  -60.11 | X-H torsion
[ 7974 7965 7964 7962 ] final -129.42 input  175.53 | X-H torsion
[ 8008 7997 7996 7995 ] final -102.15 input   59.86 | X-H torsion
[ 10167 10162 10161 10158 ] final   67.97 input  -65.29 | X-H torsion
[ 10718 10713 10712 10709 ] final   -8.43 input   66.30 | X-H torsion
[ 10763 10752 10751 10750 ] final  -38.35 input  -60.55 | X-H torsion
[ 11005 11000 10999 10996 ] final -157.43 input  -57.11 | X-H torsion

> <Gold.Protein.ActiveResidues>
 VAL166  LYS551  ARG553  GLY616  TRP617  ASP618  TYR619  PRO620  LYS621  CYS622 
 ASP623  PHE694  ASN695  SER759  ASP760  ASP761  ALA762  ILE779  LEU786  VAL792 
 PHE793  MET794  SER795  GLU796  ALA797  LYS798  CYS799  TRP800  GLU811  SER814 

> <Gold.Protein.RotatedAtoms>
  150.7446  133.9821  159.3579 H   0  0  0  0  0  0  0  0  0  0  0  0  # atno 6907 bound_to 6896
  151.7763  135.0771  160.0376 H   0  0  0  0  0  0  0  0  0  0  0  0  # atno 6908 bound_to 6896
  152.3304  133.5915  159.5842 H   0  0  0  0  0  0  0  0  0  0  0  0  # atno 6909 bound_to 6896
  144.9573  140.7409  143.4750 H   0  0  0  0  0  0  0  0  0  0  0  0  # atno 7974 bound_to 7965
  154.8525  140.0430  157.1613 H   0  0  0  0  0  0  0  0  0  0  0  0  # atno 8008 bound_to 7997
  154.8927  140.2989  155.5341 H   0  0  0  0  0  0  0  0  0  0  0  0  # atno 8009 bound_to 7997
  156.2996  140.2390  156.3945 H   0  0  0  0  0  0  0  0  0  0  0  0  # atno 8010 bound_to 7997
  140.0837  144.5048  150.7145 H   0  0  0  0  0  0  0  0  0  0  0  0  # atno 10167 bound_to 10162
  156.7027  130.5098  149.5913 H   0  0  0  0  0  0  0  0  0  0  0  0  # atno 10718 bound_to 10713
  153.9115  135.6792  153.4751 H   0  0  0  0  0  0  0  0  0  0  0  0  # atno 10763 bound_to 10752
  153.1076  135.4798  154.8976 H   0  0  0  0  0  0  0  0  0  0  0  0  # atno 10764 bound_to 10752
  154.7525  135.3188  154.8487 H   0  0  0  0  0  0  0  0  0  0  0  0  # atno 10765 bound_to 10752
  140.6647  134.4312  157.5233 H   0  0  0  0  0  0  0  0  0  0  0  0  # atno 11005 bound_to 11000
  145.2753  139.1939  143.4820 LP  0  0  0  0  0  0  0  0  0  0  0  0  # atno 17320 bound_to 7965
  146.3341  140.2705  142.8605 LP  0  0  0  0  0  0  0  0  0  0  0  0  # atno 17321 bound_to 7965
  140.7064  143.2471  151.4712 LP  0  0  0  0  0  0  0  0  0  0  0  0  # atno 17342 bound_to 10162
  139.5764  144.1808  152.1909 LP  0  0  0  0  0  0  0  0  0  0  0  0  # atno 17343 bound_to 10162
  156.1717  130.6441  151.0846 LP  0  0  0  0  0  0  0  0  0  0  0  0  # atno 17370 bound_to 10713
  157.6967  131.0791  150.6947 LP  0  0  0  0  0  0  0  0  0  0  0  0  # atno 17371 bound_to 10713
  139.9001  134.8576  156.1932 LP  0  0  0  0  0  0  0  0  0  0  0  0  # atno 17394 bound_to 11000
  141.0438  133.6924  156.1646 LP  0  0  0  0  0  0  0  0  0  0  0  0  # atno 17395 bound_to 11000

$$$$
