AV-unprocessed.smi:818|AV-procd|sdf|3833|dock4
  -GOLD-   22720 1273D 1   1.00000     0.00000
 Structure written by MMmdl.
 44 45  0  0  0  0  0  0  0  0  1 V2000
  143.4648  132.9983  148.4264 C   0  0  0  0  0  0  0  0  0  0  0  0
  144.4627  132.0197  149.0571 C   0  0  0  0  0  0  0  0  0  0  0  0
  144.9860  132.5236  150.3116 N   0  0  0  0  0  0  0  0  0  0  0  0
  146.1481  133.2375  150.5263 C   0  0  0  0  0  0  0  0  0  0  0  0
  146.1991  133.4690  151.8680 C   0  0  0  0  0  0  0  0  0  0  0  0
  147.2390  134.1683  152.5293 N   0  0  0  0  0  0  0  0  0  0  0  0
  147.4445  134.2578  153.8531 C   0  0  0  0  0  0  0  0  0  0  0  0
  146.7173  133.7697  154.7183 O   0  0  0  0  0  0  0  0  0  0  0  0
  148.5548  134.9587  154.1256 N   0  0  0  0  0  0  0  0  0  0  0  0
  149.0569  135.2598  155.4656 C   0  0  1  0  0  0  0  0  0  0  0  0
  149.9144  134.0693  155.9263 C   0  0  0  0  0  0  0  0  0  0  0  0
  149.9544  136.5083  155.4480 C   0  0  0  0  0  0  0  0  0  0  0  0
  150.4758  136.9258  156.4836 O   0  0  0  0  0  0  0  0  0  0  0  0
  150.1073  137.1054  154.2562 N   0  0  0  0  0  0  0  0  0  0  0  0
  150.8930  138.3118  154.0116 C   0  0  0  0  0  0  0  0  0  0  0  0
  152.2350  138.2526  154.7666 C   0  0  0  0  0  0  0  0  0  0  0  0
  152.3740  139.5927  155.4914 C   0  0  0  0  0  0  0  0  0  0  0  0
  150.9371  140.0251  155.7654 C   0  0  0  0  0  0  0  0  0  0  0  0
  150.1664  139.5707  154.5251 C   0  0  0  0  0  0  0  0  0  0  0  0
  145.0310  132.8633  152.4118 C   0  0  0  0  0  0  0  0  0  0  0  0
  144.3052  132.2937  151.4613 N   0  0  0  0  0  0  0  0  0  0  0  0
  143.0784  132.6049  147.4861 H   0  0  0  0  0  0  0  0  0  0  0  0
  143.9335  133.9602  148.2164 H   0  0  0  0  0  0  0  0  0  0  0  0
  142.6159  133.1759  149.0874 H   0  0  0  0  0  0  0  0  0  0  0  0
  143.9827  131.0580  149.2409 H   0  0  0  0  0  0  0  0  0  0  0  0
  145.2947  131.8334  148.3765 H   0  0  0  0  0  0  0  0  0  0  0  0
  146.8200  133.5088  149.7251 H   0  0  0  0  0  0  0  0  0  0  0  0
  147.9028  134.6392  151.9321 H   0  0  0  0  0  0  0  0  0  0  0  0
  149.0847  135.3293  153.3506 H   0  0  0  0  0  0  0  0  0  0  0  0
  148.2239  135.4038  156.1567 H   0  0  0  0  0  0  0  0  0  0  0  0
  150.3100  134.2300  156.9300 H   0  0  0  0  0  0  0  0  0  0  0  0
  150.7598  133.8945  155.2590 H   0  0  0  0  0  0  0  0  0  0  0  0
  149.3236  133.1531  155.9558 H   0  0  0  0  0  0  0  0  0  0  0  0
  149.6432  136.6953  153.4587 H   0  0  0  0  0  0  0  0  0  0  0  0
  151.0862  138.4151  152.9420 H   0  0  0  0  0  0  0  0  0  0  0  0
  152.2267  137.4494  155.5055 H   0  0  0  0  0  0  0  0  0  0  0  0
  153.0751  138.0628  154.0975 H   0  0  0  0  0  0  0  0  0  0  0  0
  152.9721  139.5186  156.4000 H   0  0  0  0  0  0  0  0  0  0  0  0
  152.8555  140.3181  154.8344 H   0  0  0  0  0  0  0  0  0  0  0  0
  150.5578  139.5046  156.6460 H   0  0  0  0  0  0  0  0  0  0  0  0
  150.8478  141.0967  155.9462 H   0  0  0  0  0  0  0  0  0  0  0  0
  150.2208  140.3500  153.7636 H   0  0  0  0  0  0  0  0  0  0  0  0
  149.1090  139.4071  154.7386 H   0  0  0  0  0  0  0  0  0  0  0  0
  144.6877  132.8099  153.4340 H   0  0  0  0  0  0  0  0  0  0  0  0
  1  2  1  0  0  0  0
  1 22  1  0  0  0  0
  1 23  1  0  0  0  0
  1 24  1  0  0  0  0
  2  3  1  0  0  0  0
  2 25  1  0  0  0  0
  2 26  1  0  0  0  0
  3 21  1  0  0  0  0
  3  4  1  0  0  0  0
  4  5  2  0  0  0  0
  4 27  1  0  0  0  0
  5  6  1  0  0  0  0
  5 20  1  0  0  0  0
  6  7  1  0  0  0  0
  6 28  1  0  0  0  0
  7  8  2  0  0  0  0
  7  9  1  0  0  0  0
  9 10  1  0  0  0  0
  9 29  1  0  0  0  0
 10 11  1  0  0  0  0
 10 12  1  0  0  0  0
 10 30  1  0  0  0  0
 11 31  1  0  0  0  0
 11 32  1  0  0  0  0
 11 33  1  0  0  0  0
 12 13  2  0  0  0  0
 12 14  1  0  0  0  0
 14 15  1  0  0  0  0
 14 34  1  0  0  0  0
 15 19  1  0  0  0  0
 15 16  1  0  0  0  0
 15 35  1  0  0  0  0
 16 17  1  0  0  0  0
 16 36  1  0  0  0  0
 16 37  1  0  0  0  0
 17 18  1  0  0  0  0
 17 38  1  0  0  0  0
 17 39  1  0  0  0  0
 18 19  1  0  0  0  0
 18 40  1  0  0  0  0
 18 41  1  0  0  0  0
 19 42  1  0  0  0  0
 19 43  1  0  0  0  0
 20 21  2  0  0  0  0
 20 44  1  0  0  0  0
M  END
> <s_m_source_file>
AV-unprocessed.smi

> <i_m_source_file_index>
818

> <i_lp_mmshare_version>
43012

> <i_f3d_flags>
0

> <s_epik_input>
W0NIM11bQ0gyXW4xW2NIXWMoW2NIXW4xKVtOSF1DKD1PKVtOSF1bQ0BIXShbQ0gzXSlDKD1PKVtOSF1bQ0hdMltDSDJdW0NIMl1bQ0gyXVtDSDJdMg==

> <s_epik_cmdline>
J2VwaWtfcHl0aG9uJywgJy1waCcsICc3LjAnLCAnLXRuJywgJzgnLCAnLW1hJywgJzIwMCcsICctbWV0YWxfYmluZGluZycsICctaW1hZScsICc8aW5maWxlLm1hZT4nLCAnLW9tYWUnLCAnPG91dGZpbGUubWFlPic=

> <r_lp_tautomer_probability>
1

> <r_epik_Ionization_Penalty>
0.00015627

> <r_epik_Ionization_Penalty_Charging>
0

> <r_epik_Ionization_Penalty_Neutral>
0.00015627

> <r_epik_State_Penalty>
-0

> <r_epik_Charging_Adjusted_Penalty>
0

> <i_epik_Tot_Q>
0

> <i_epik_Tot_abs_Q>
0

> <r_epik_Metal_State_Penalty>
-0

> <b_epik_Metal_Only>
0

> <s_lp_Force_Field>
OPLS_2005

> <r_lp_Energy>
21.9602

> <b_lp_Chiralities_Consistent>
1

> <s_lp_Variant>
AV-unprocessed.smi:818-2

> <Gold.Version>
5.8.1

> <Gold.Id.Protein>
6NUR|6NUR_protein|mol2

> <Gold.PLP.Fitness>
44.4502

> <Gold.PLP.PLP>
-35.2880

> <Gold.PLP.part.hbond>
-3.1718

> <Gold.PLP.part.metal>
0.0000

> <Gold.PLP.part.buried>
-1.2340

> <Gold.PLP.part.nonpolar>
-31.8812

> <Gold.PLP.part.repulsive>
0.2615

> <Gold.PLP.ligand.clash>
0.0000

> <Gold.PLP.ligand.torsion>
0.9393

> <Gold.PLP.Chemscore.Hbond>
2.8720

> <Gold.PLP.Chemscore.CHOScore>
0.7984

> <Gold.PLP.Chemscore.Metal>
0.0000

> <Gold.Chemscore.Hbonds>
donor molecule, donor type, donor heavy atom, donor atom, acceptor molecule, acceptor atom, score
      L1  H     6    28       P1  7948  0.85
      L1  H     9    29       P1  7948  0.91
      L1  H    14    34       P1  7948  1.00
      L1  C    20    44       P1 10957  0.74

> <Gold.PLP.Chemscore.Internal.Correction>
0.0296

> <Gold.Rescore>
     Score         DG    S(hbond)    S(metal)    S(lipo)     H(rot)  DE(clash)    DE(int)     intcor
     15.66     -19.65       2.49        0.00      86.90       1.68       1.04       2.95       ----

> <Gold.Chemscore.Fitness>
15.6617

> <Gold.Chemscore.DG>
-19.6503

> <Gold.Chemscore.ZeroCoef>
-5.4800

> <Gold.Chemscore.Hbond>
2.4884

> <Gold.Chemscore.Metal>
0.0000

> <Gold.Chemscore.Lipo>
86.8970

> <Gold.Chemscore.Internal_Hbond>
0.0000

> <Gold.Chemscore.DEClash>
1.0410

> <Gold.Chemscore.DEInternal>
2.9475

> <Gold.Chemscore.Rot>
1.6828

> <Gold.Chemscore.Internal.Correction>
   9.000000E+99

> <Gold.Chemscore.Hbonds>
donor molecule, donor type, donor heavy atom, donor atom, acceptor molecule, acceptor atom, score
      L1  H     6    28       P1  7948  0.22
      L1  H     9    29       P1  7948  0.35
      L1  H    14    34       P1  7948  0.60

> <Gold.Chemscore.Hbond.Weighted>
-8.3114

> <Gold.Chemscore.Metal.Weighted>
-0.0000

> <Gold.Chemscore.Lipo.Weighted>
-10.1670

> <Gold.Chemscore.Internal_Hbond.Weighted>
0.0000

> <Gold.Chemscore.DEClash.Weighted>
1.0410

> <Gold.Chemscore.DEInternal.Weighted>
2.9475

> <Gold.Chemscore.Rot.Weighted>
4.3081

> <Gold.Chemscore.Internal.Correction.Weighted>
   9.000000E+99

> <Gold.Protein.RotatedTorsions>
[ 6907 6896 6895 6894 ] final  127.17 input  -60.11 | X-H torsion
[ 7974 7965 7964 7962 ] final   40.38 input  175.53 | X-H torsion
[ 8008 7997 7996 7995 ] final -119.48 input   59.86 | X-H torsion
[ 10167 10162 10161 10158 ] final   77.24 input  -65.29 | X-H torsion
[ 10718 10713 10712 10709 ] final  103.81 input   66.30 | X-H torsion
[ 10763 10752 10751 10750 ] final -146.58 input  -60.55 | X-H torsion
[ 11005 11000 10999 10996 ] final   62.63 input  -57.11 | X-H torsion

> <Gold.Protein.ActiveResidues>
 VAL166  LYS551  ARG553  GLY616  TRP617  ASP618  TYR619  PRO620  LYS621  CYS622 
 ASP623  PHE694  ASN695  SER759  ASP760  ASP761  ALA762  ILE779  LEU786  VAL792 
 PHE793  MET794  SER795  GLU796  ALA797  LYS798  CYS799  TRP800  GLU811  SER814 

> <Gold.Protein.RotatedAtoms>
  152.3837  133.6581  159.6181 H   0  0  0  0  0  0  0  0  0  0  0  0  # atno 6907 bound_to 6896
  150.7761  133.9071  159.3367 H   0  0  0  0  0  0  0  0  0  0  0  0  # atno 6908 bound_to 6896
  151.6872  135.0953  160.0278 H   0  0  0  0  0  0  0  0  0  0  0  0  # atno 6909 bound_to 6896
  146.0909  139.5540  142.9476 H   0  0  0  0  0  0  0  0  0  0  0  0  # atno 7974 bound_to 7965
  155.1163  140.0398  157.2738 H   0  0  0  0  0  0  0  0  0  0  0  0  # atno 8008 bound_to 7997
  154.6647  140.2599  155.7045 H   0  0  0  0  0  0  0  0  0  0  0  0  # atno 8009 bound_to 7997
  156.2634  140.2810  156.1133 H   0  0  0  0  0  0  0  0  0  0  0  0  # atno 8010 bound_to 7997
  139.9837  144.5808  150.7878 H   0  0  0  0  0  0  0  0  0  0  0  0  # atno 10167 bound_to 10162
  157.6760  131.0788  150.5611 H   0  0  0  0  0  0  0  0  0  0  0  0  # atno 10718 bound_to 10713
  154.8329  135.3382  154.6684 H   0  0  0  0  0  0  0  0  0  0  0  0  # atno 10763 bound_to 10752
  153.7302  135.6952  153.4995 H   0  0  0  0  0  0  0  0  0  0  0  0  # atno 10764 bound_to 10752
  153.2317  135.4414  155.0555 H   0  0  0  0  0  0  0  0  0  0  0  0  # atno 10765 bound_to 10752
  140.0079  134.6341  155.9826 H   0  0  0  0  0  0  0  0  0  0  0  0  # atno 11005 bound_to 11000
  145.6040  141.0350  143.2003 LP  0  0  0  0  0  0  0  0  0  0  0  0  # atno 17320 bound_to 7965
  144.7360  139.7586  143.7329 LP  0  0  0  0  0  0  0  0  0  0  0  0  # atno 17321 bound_to 7965
  140.7480  143.2915  151.3318 LP  0  0  0  0  0  0  0  0  0  0  0  0  # atno 17342 bound_to 10162
  139.6391  144.0574  152.2540 LP  0  0  0  0  0  0  0  0  0  0  0  0  # atno 17343 bound_to 10162
  156.5914  130.4330  149.5935 LP  0  0  0  0  0  0  0  0  0  0  0  0  # atno 17370 bound_to 10713
  156.2580  130.6946  151.1705 LP  0  0  0  0  0  0  0  0  0  0  0  0  # atno 17371 bound_to 10713
  141.1690  133.6537  156.4582 LP  0  0  0  0  0  0  0  0  0  0  0  0  # atno 17394 bound_to 11000
  140.4608  134.6843  157.5084 LP  0  0  0  0  0  0  0  0  0  0  0  0  # atno 17395 bound_to 11000

$$$$
