AV-unprocessed.smi:2816|AV-procd|sdf|10844|dock1
  -GOLD-   2272015283D 1   1.00000     0.00000
 Structure written by MMmdl.
 43 45  0  0  0  0  0  0  0  0  1 V2000
  149.2376  129.8563  157.3907 C   0  0  0  0  0  0  0  0  0  0  0  0
  150.6370  129.5905  156.8091 C   0  0  0  0  0  0  0  0  0  0  0  0
  151.4656  128.7782  157.8213 C   0  0  0  0  0  0  0  0  0  0  0  0
  150.5056  128.8212  155.4820 C   0  0  0  0  0  0  0  0  0  0  0  0
  151.4438  131.2391  156.4972 S   0  0  0  0  0  0  0  0  0  0  0  0
  151.4142  131.9988  157.7572 O   0  0  0  0  0  0  0  0  0  0  0  0
  152.7351  131.0059  155.8310 O   0  0  0  0  0  0  0  0  0  0  0  0
  150.3827  132.0928  155.3291 C   0  0  0  0  0  0  0  0  0  0  0  0
  150.2120  133.4888  155.4217 C   0  0  0  0  0  0  0  0  0  0  0  0
  149.3358  134.1119  154.5138 C   0  0  0  0  0  0  0  0  0  0  0  0
  148.6577  133.3182  153.5582 C   0  0  0  0  0  0  0  0  0  0  0  0
  147.7597  133.8412  152.6163 N   0  0  0  0  0  0  0  0  0  0  0  0
  146.5046  133.1670  152.3033 C   0  0  2  0  0  0  0  0  0  0  0  0
  146.2843  132.9102  150.8079 C   0  0  0  0  0  0  0  0  0  0  0  0
  144.9032  133.5404  150.5807 C   0  0  2  0  0  0  0  0  0  0  0  0
  144.9827  135.0716  150.5531 C   0  0  0  0  0  0  0  0  0  0  0  0
  145.2289  135.3947  152.0253 C   0  0  0  0  0  0  0  0  0  0  0  0
  145.2560  133.9933  152.6611 C   0  0  1  0  0  0  0  0  0  0  0  0
  144.2987  133.3360  151.8473 O   0  0  0  0  0  0  0  0  0  0  0  0
  148.9033  131.9280  153.5644 C   0  0  0  0  0  0  0  0  0  0  0  0
  149.7393  131.3177  154.4302 N   0  0  0  0  0  0  0  0  0  0  0  0
  148.7095  128.9254  157.5996 H   0  0  0  0  0  0  0  0  0  0  0  0
  148.6237  130.4340  156.6989 H   0  0  0  0  0  0  0  0  0  0  0  0
  149.2971  130.4182  158.3234 H   0  0  0  0  0  0  0  0  0  0  0  0
  151.6182  129.3317  158.7482 H   0  0  0  0  0  0  0  0  0  0  0  0
  152.4459  128.5166  157.4248 H   0  0  0  0  0  0  0  0  0  0  0  0
  150.9651  127.8439  158.0776 H   0  0  0  0  0  0  0  0  0  0  0  0
  149.9855  127.8736  155.6262 H   0  0  0  0  0  0  0  0  0  0  0  0
  151.4806  128.5923  155.0521 H   0  0  0  0  0  0  0  0  0  0  0  0
  149.9446  129.3936  154.7429 H   0  0  0  0  0  0  0  0  0  0  0  0
  150.7329  134.0692  156.1685 H   0  0  0  0  0  0  0  0  0  0  0  0
  149.1962  135.1809  154.5672 H   0  0  0  0  0  0  0  0  0  0  0  0
  148.0676  134.5825  152.0032 H   0  0  0  0  0  0  0  0  0  0  0  0
  146.4555  132.2242  152.8494 H   0  0  0  0  0  0  0  0  0  0  0  0
  147.0456  133.3570  150.1666 H   0  0  0  0  0  0  0  0  0  0  0  0
  146.2615  131.8382  150.6086 H   0  0  0  0  0  0  0  0  0  0  0  0
  144.3530  133.1114  149.7430 H   0  0  0  0  0  0  0  0  0  0  0  0
  145.7765  135.4359  149.9001 H   0  0  0  0  0  0  0  0  0  0  0  0
  144.0391  135.5044  150.2192 H   0  0  0  0  0  0  0  0  0  0  0  0
  146.1464  135.9597  152.1892 H   0  0  0  0  0  0  0  0  0  0  0  0
  144.4000  135.9795  152.4259 H   0  0  0  0  0  0  0  0  0  0  0  0
  145.0155  133.9881  153.7245 H   0  0  0  0  0  0  0  0  0  0  0  0
  148.4070  131.2812  152.8557 H   0  0  0  0  0  0  0  0  0  0  0  0
  1  2  1  0  0  0  0
  1 22  1  0  0  0  0
  1 23  1  0  0  0  0
  1 24  1  0  0  0  0
  2  3  1  0  0  0  0
  2  4  1  0  0  0  0
  2  5  1  0  0  0  0
  3 25  1  0  0  0  0
  3 26  1  0  0  0  0
  3 27  1  0  0  0  0
  4 28  1  0  0  0  0
  4 29  1  0  0  0  0
  4 30  1  0  0  0  0
  5  6  2  0  0  0  0
  5  7  2  0  0  0  0
  5  8  1  0  0  0  0
  8 21  1  0  0  0  0
  8  9  2  0  0  0  0
  9 10  1  0  0  0  0
  9 31  1  0  0  0  0
 10 11  2  0  0  0  0
 10 32  1  0  0  0  0
 11 12  1  0  0  0  0
 11 20  1  0  0  0  0
 12 13  1  0  0  0  0
 12 33  1  0  0  0  0
 13 18  1  0  0  0  0
 13 14  1  0  0  0  0
 13 34  1  0  0  0  0
 14 15  1  0  0  0  0
 14 35  1  0  0  0  0
 14 36  1  0  0  0  0
 15 19  1  0  0  0  0
 15 16  1  0  0  0  0
 15 37  1  0  0  0  0
 16 17  1  0  0  0  0
 16 38  1  0  0  0  0
 16 39  1  0  0  0  0
 17 18  1  0  0  0  0
 17 40  1  0  0  0  0
 17 41  1  0  0  0  0
 18 19  1  0  0  0  0
 18 42  1  0  0  0  0
 20 21  2  0  0  0  0
 20 43  1  0  0  0  0
M  END
> <s_m_source_file>
AV-unprocessed.smi

> <i_m_source_file_index>
2816

> <i_lp_mmshare_version>
43012

> <i_f3d_flags>
0

> <s_epik_input>
W0NIM11DKFtDSDNdKShbQ0gzXSlTKD1PKSg9TyljMVtjSF1bY0hdYyhbY0hdbjEpW05IXVtDQEhdKFtDSDJdW0NAQEhdMjMpW0NAQEhdKE8zKVtDSDJdW0NIMl0y

> <s_epik_cmdline>
J2VwaWtfcHl0aG9uJywgJy1waCcsICc3LjAnLCAnLXRuJywgJzgnLCAnLW1hJywgJzIwMCcsICctbWV0YWxfYmluZGluZycsICctaW1hZScsICc8aW5maWxlLm1hZT4nLCAnLW9tYWUnLCAnPG91dGZpbGUubWFlPic=

> <r_lp_tautomer_probability>
1

> <r_epik_Ionization_Penalty>
1.94439e-07

> <r_epik_Ionization_Penalty_Charging>
0

> <r_epik_Ionization_Penalty_Neutral>
1.94439e-07

> <r_epik_State_Penalty>
-0

> <r_epik_Charging_Adjusted_Penalty>
0

> <i_epik_Tot_Q>
0

> <i_epik_Tot_abs_Q>
0

> <r_epik_Metal_State_Penalty>
-0

> <b_epik_Metal_Only>
0

> <s_lp_Force_Field>
OPLS_2005

> <r_lp_Energy>
43.8741

> <b_lp_Chiralities_Consistent>
1

> <s_lp_Variant>
AV-unprocessed.smi:2816-3

> <Gold.Version>
5.8.1

> <Gold.Id.Protein>
6NUR|6NUR_protein|mol2

> <Gold.PLP.Fitness>
37.9426

> <Gold.PLP.PLP>
-29.9189

> <Gold.PLP.part.hbond>
-2.0000

> <Gold.PLP.part.metal>
0.0000

> <Gold.PLP.part.buried>
-2.9989

> <Gold.PLP.part.nonpolar>
-24.7320

> <Gold.PLP.part.repulsive>
0.1736

> <Gold.PLP.ligand.clash>
0.0000

> <Gold.PLP.ligand.torsion>
1.6130

> <Gold.PLP.Chemscore.Hbond>
2.0000

> <Gold.PLP.Chemscore.CHOScore>
1.0000

> <Gold.PLP.Chemscore.Metal>
0.0000

> <Gold.Chemscore.Hbonds>
donor molecule, donor type, donor heavy atom, donor atom, acceptor molecule, acceptor atom, score
      L1  H    12    33       P1  7948  0.82
      P1  H  6896  6907       L1     6  1.00
      L1  C    20    43       P1 10747  0.66

> <Gold.PLP.Chemscore.Internal.Correction>
2.2498

> <Gold.Rescore>
     Score         DG    S(hbond)    S(metal)    S(lipo)     H(rot)  DE(clash)    DE(int)     intcor
     13.57     -16.38       1.86        0.00      65.04       1.15       0.06       2.75       ----

> <Gold.Chemscore.Fitness>
13.5717

> <Gold.Chemscore.DG>
-16.3796

> <Gold.Chemscore.ZeroCoef>
-5.4800

> <Gold.Chemscore.Hbond>
1.8641

> <Gold.Chemscore.Metal>
0.0000

> <Gold.Chemscore.Lipo>
65.0437

> <Gold.Chemscore.Internal_Hbond>
0.0000

> <Gold.Chemscore.DEClash>
0.0598

> <Gold.Chemscore.DEInternal>
2.7481

> <Gold.Chemscore.Rot>
1.1471

> <Gold.Chemscore.Internal.Correction>
   9.000000E+99

> <Gold.Chemscore.Hbonds>
donor molecule, donor type, donor heavy atom, donor atom, acceptor molecule, acceptor atom, score
      L1  H    12    33       P1  7948  0.14
      P1  H  6896  6907       L1     6  0.97

> <Gold.Chemscore.Hbond.Weighted>
-6.2261

> <Gold.Chemscore.Metal.Weighted>
-0.0000

> <Gold.Chemscore.Lipo.Weighted>
-7.6101

> <Gold.Chemscore.Internal_Hbond.Weighted>
0.0000

> <Gold.Chemscore.DEClash.Weighted>
0.0598

> <Gold.Chemscore.DEInternal.Weighted>
2.7481

> <Gold.Chemscore.Rot.Weighted>
2.9366

> <Gold.Chemscore.Internal.Correction.Weighted>
   9.000000E+99

> <Gold.Protein.RotatedTorsions>
[ 6907 6896 6895 6894 ] final -176.06 input  -60.11 | X-H torsion
[ 7974 7965 7964 7962 ] final   40.90 input  175.53 | X-H torsion
[ 8008 7997 7996 7995 ] final   -2.71 input   59.86 | X-H torsion
[ 10167 10162 10161 10158 ] final  110.78 input  -65.29 | X-H torsion
[ 10718 10713 10712 10709 ] final  -65.98 input   66.30 | X-H torsion
[ 10763 10752 10751 10750 ] final -165.94 input  -60.55 | X-H torsion
[ 11005 11000 10999 10996 ] final  110.93 input  -57.11 | X-H torsion

> <Gold.Protein.ActiveResidues>
 VAL166  LYS551  ARG553  GLY616  TRP617  ASP618  TYR619  PRO620  LYS621  CYS622 
 ASP623  PHE694  ASN695  SER759  ASP760  ASP761  ALA762  ILE779  LEU786  VAL792 
 PHE793  MET794  SER795  GLU796  ALA797  LYS798  CYS799  TRP800  GLU811  SER814 

> <Gold.Protein.RotatedAtoms>
  151.5986  133.3359  159.3042 H   0  0  0  0  0  0  0  0  0  0  0  0  # atno 6907 bound_to 6896
  150.8220  134.7436  159.6792 H   0  0  0  0  0  0  0  0  0  0  0  0  # atno 6908 bound_to 6896
  152.4313  134.5778  159.9991 H   0  0  0  0  0  0  0  0  0  0  0  0  # atno 6909 bound_to 6896
  146.0867  139.5478  142.9502 H   0  0  0  0  0  0  0  0  0  0  0  0  # atno 7974 bound_to 7965
  154.6328  140.2527  155.7414 H   0  0  0  0  0  0  0  0  0  0  0  0  # atno 8008 bound_to 7997
  156.2488  140.2903  156.0607 H   0  0  0  0  0  0  0  0  0  0  0  0  # atno 8009 bound_to 7997
  155.1719  140.0387  157.2855 H   0  0  0  0  0  0  0  0  0  0  0  0  # atno 8010 bound_to 7997
  139.6662  144.7127  151.1773 H   0  0  0  0  0  0  0  0  0  0  0  0  # atno 10167 bound_to 10162
  156.0638  130.4255  150.1643 H   0  0  0  0  0  0  0  0  0  0  0  0  # atno 10718 bound_to 10713
  154.6882  135.2966  154.9517 H   0  0  0  0  0  0  0  0  0  0  0  0  # atno 10763 bound_to 10752
  154.0489  135.6647  153.4802 H   0  0  0  0  0  0  0  0  0  0  0  0  # atno 10764 bound_to 10752
  153.0594  135.5125  154.7961 H   0  0  0  0  0  0  0  0  0  0  0  0  # atno 10765 bound_to 10752
  139.8892  134.9496  156.6354 H   0  0  0  0  0  0  0  0  0  0  0  0  # atno 11005 bound_to 11000
  145.6117  141.0338  143.1963 LP  0  0  0  0  0  0  0  0  0  0  0  0  # atno 17320 bound_to 7965
  144.7331  139.7667  143.7340 LP  0  0  0  0  0  0  0  0  0  0  0  0  # atno 17321 bound_to 7965
  140.7600  143.5916  150.8790 LP  0  0  0  0  0  0  0  0  0  0  0  0  # atno 17342 bound_to 10162
  139.9578  143.6199  152.3011 LP  0  0  0  0  0  0  0  0  0  0  0  0  # atno 17343 bound_to 10162
  156.9706  130.9833  151.3459 LP  0  0  0  0  0  0  0  0  0  0  0  0  # atno 17370 bound_to 10713
  157.5666  130.8281  149.8335 LP  0  0  0  0  0  0  0  0  0  0  0  0  # atno 17371 bound_to 10713
  140.7634  133.8798  155.8436 LP  0  0  0  0  0  0  0  0  0  0  0  0  # atno 17394 bound_to 11000
  140.9902  134.1288  157.4414 LP  0  0  0  0  0  0  0  0  0  0  0  0  # atno 17395 bound_to 11000

$$$$
