AV-unprocessed.smi:2391|AV-procd|sdf|9485|dock3
  -GOLD-   2272013113D 1   1.00000     0.00000
 Structure written by MMmdl.
 34 35  0  0  0  0  0  0  0  0  2 V2000
  148.8105  138.1117  158.1251 O   0  0  0  0  0  0  0  0  0  0  0  0
  149.7955  137.4341  158.4269 C   0  0  0  0  0  0  0  0  0  0  0  0
  149.8545  136.4962  159.4010 N   0  5  0  0  0  0  0  0  0  0  0  0
  148.7751  136.2308  160.1523 C   0  0  0  0  0  0  0  0  0  0  0  0
  148.1537  134.9636  160.0846 C   0  0  0  0  0  0  0  0  0  0  0  0
  147.0207  134.7299  160.8818 C   0  0  0  0  0  0  0  0  0  0  0  0
  146.5786  135.7875  161.6940 C   0  0  0  0  0  0  0  0  0  0  0  0
  147.1973  136.9874  161.7225 N   0  0  0  0  0  0  0  0  0  0  0  0
  148.2756  137.2007  160.9599 N   0  0  0  0  0  0  0  0  0  0  0  0
  150.9515  137.5973  157.7676 N   0  0  0  0  0  0  0  0  0  0  0  0
  151.2049  138.5260  156.6637 C   0  0  2  0  0  0  0  0  0  0  0  0
  150.6965  139.9338  157.0672 C   0  0  0  0  0  0  0  0  0  0  0  0
  151.0649  141.0645  156.0976 C   0  0  0  0  0  0  0  0  0  0  0  0
  150.9671  142.3619  156.9096 C   0  0  0  0  0  0  0  0  0  0  0  0
  151.0139  141.9530  158.3879 C   0  0  0  0  0  0  0  0  0  0  0  0
  151.2582  140.4422  158.4016 C   0  0  0  0  0  0  0  0  0  0  0  0
  150.5626  137.9777  155.3660 C   0  0  0  0  0  0  0  0  0  0  0  0
  150.9025  136.7018  155.1800 F   0  0  0  0  0  0  0  0  0  0  0  0
  149.2329  138.0588  155.4308 F   0  0  0  0  0  0  0  0  0  0  0  0
  150.9830  138.6617  154.3027 F   0  0  0  0  0  0  0  0  0  0  0  0
  148.5395  134.1881  159.4391 H   0  0  0  0  0  0  0  0  0  0  0  0
  146.5120  133.7776  160.8702 H   0  0  0  0  0  0  0  0  0  0  0  0
  145.7137  135.6713  162.3301 H   0  0  0  0  0  0  0  0  0  0  0  0
  151.7282  137.0214  158.0571 H   0  0  0  0  0  0  0  0  0  0  0  0
  152.2819  138.6008  156.5026 H   0  0  0  0  0  0  0  0  0  0  0  0
  149.6091  139.9059  157.1549 H   0  0  0  0  0  0  0  0  0  0  0  0
  152.0902  140.9338  155.7487 H   0  0  0  0  0  0  0  0  0  0  0  0
  150.4185  141.0897  155.2203 H   0  0  0  0  0  0  0  0  0  0  0  0
  151.7786  143.0442  156.6540 H   0  0  0  0  0  0  0  0  0  0  0  0
  150.0299  142.8771  156.6955 H   0  0  0  0  0  0  0  0  0  0  0  0
  151.7843  142.4913  158.9410 H   0  0  0  0  0  0  0  0  0  0  0  0
  150.0562  142.1765  158.8594 H   0  0  0  0  0  0  0  0  0  0  0  0
  150.7971  139.9603  159.2644 H   0  0  0  0  0  0  0  0  0  0  0  0
  152.3306  140.2469  158.4508 H   0  0  0  0  0  0  0  0  0  0  0  0
  1  2  2  0  0  0  0
  2  3  1  0  0  0  0
  2 10  1  0  0  0  0
  3  4  1  0  0  0  0
  4  9  1  0  0  0  0
  4  5  2  0  0  0  0
  5  6  1  0  0  0  0
  5 21  1  0  0  0  0
  6  7  2  0  0  0  0
  6 22  1  0  0  0  0
  7  8  1  0  0  0  0
  7 23  1  0  0  0  0
  8  9  2  0  0  0  0
 10 11  1  0  0  0  0
 10 24  1  0  0  0  0
 11 12  1  0  0  0  0
 11 17  1  0  0  0  0
 11 25  1  0  0  0  0
 12 16  1  0  0  0  0
 12 13  1  0  0  0  0
 12 26  1  0  0  0  0
 13 14  1  0  0  0  0
 13 27  1  0  0  0  0
 13 28  1  0  0  0  0
 14 15  1  0  0  0  0
 14 29  1  0  0  0  0
 14 30  1  0  0  0  0
 15 16  1  0  0  0  0
 15 31  1  0  0  0  0
 15 32  1  0  0  0  0
 16 33  1  0  0  0  0
 16 34  1  0  0  0  0
 17 18  1  0  0  0  0
 17 19  1  0  0  0  0
 17 20  1  0  0  0  0
M  CHG  1   3  -1
M  END
> <s_m_source_file>
AV-unprocessed.smi

> <i_m_source_file_index>
2391

> <i_lp_mmshare_version>
43012

> <i_f3d_flags>
0

> <s_epik_input>
W0NIMl0xW0NIMl1bQ0gyXVtDSDJdW0NIXTFbQ0BIXShDKEYpKEYpRilbTkhdQyg9TylbTkhdYzJbY0hdW2NIXVtjSF1ubjI=

> <s_epik_cmdline>
J2VwaWtfcHl0aG9uJywgJy1waCcsICc3LjAnLCAnLXRuJywgJzgnLCAnLW1hJywgJzIwMCcsICctbWV0YWxfYmluZGluZycsICctaW1hZScsICc8aW5maWxlLm1hZT4nLCAnLW9tYWUnLCAnPG91dGZpbGUubWFlPic=

> <r_lp_tautomer_probability>
1

> <r_epik_Ionization_Penalty>
8.90766

> <r_epik_Ionization_Penalty_Charging>
5.82661

> <r_epik_Ionization_Penalty_Neutral>
3.08106

> <r_epik_State_Penalty>
5.83894

> <r_epik_Charging_Adjusted_Penalty>
11.6655

> <i_epik_Tot_Q>
-1

> <i_epik_Tot_abs_Q>
1

> <r_epik_Metal_State_Penalty>
1.80768

> <b_epik_Metal_Only>
1

> <s_lp_Force_Field>
OPLS_2005

> <r_lp_Energy>
28.0244

> <b_lp_Chiralities_Consistent>
1

> <s_lp_Variant>
AV-unprocessed.smi:2391-5

> <Gold.Version>
5.8.1

> <Gold.Id.Protein>
6NUR|6NUR_protein|mol2

> <Gold.PLP.Fitness>
37.0618

> <Gold.PLP.PLP>
-29.7918

> <Gold.PLP.part.hbond>
-4.5764

> <Gold.PLP.part.metal>
0.0000

> <Gold.PLP.part.buried>
-4.5902

> <Gold.PLP.part.nonpolar>
-21.7208

> <Gold.PLP.part.repulsive>
0.0587

> <Gold.PLP.ligand.clash>
0.0000

> <Gold.PLP.ligand.torsion>
0.9525

> <Gold.PLP.Chemscore.Hbond>
2.9280

> <Gold.PLP.Chemscore.CHOScore>
0.0000

> <Gold.PLP.Chemscore.Metal>
0.0000

> <Gold.Chemscore.Hbonds>
donor molecule, donor type, donor heavy atom, donor atom, acceptor molecule, acceptor atom, score
      P1  H  6896  6908       L1     3  1.90
      P1  H  6931  6943       L1     9  0.90

> <Gold.PLP.Chemscore.Internal.Correction>
0.3910

> <Gold.Rescore>
     Score         DG    S(hbond)    S(metal)    S(lipo)     H(rot)  DE(clash)    DE(int)     intcor
     10.12     -14.72       1.81        0.00      56.18       1.32       0.00       4.60       ----

> <Gold.Chemscore.Fitness>
10.1227

> <Gold.Chemscore.DG>
-14.7241

> <Gold.Chemscore.ZeroCoef>
-5.4800

> <Gold.Chemscore.Hbond>
1.8100

> <Gold.Chemscore.Metal>
0.0000

> <Gold.Chemscore.Lipo>
56.1753

> <Gold.Chemscore.Internal_Hbond>
0.0000

> <Gold.Chemscore.DEClash>
0.0048

> <Gold.Chemscore.DEInternal>
4.5966

> <Gold.Chemscore.Rot>
1.3179

> <Gold.Chemscore.Internal.Correction>
   9.000000E+99

> <Gold.Chemscore.Hbonds>
donor molecule, donor type, donor heavy atom, donor atom, acceptor molecule, acceptor atom, score
      P1  H  6896  6908       L1     3  0.21
      P1  H  6931  6943       L1     9  0.19

> <Gold.Chemscore.Hbond.Weighted>
-6.0453

> <Gold.Chemscore.Metal.Weighted>
-0.0000

> <Gold.Chemscore.Lipo.Weighted>
-6.5725

> <Gold.Chemscore.Internal_Hbond.Weighted>
0.0000

> <Gold.Chemscore.DEClash.Weighted>
0.0048

> <Gold.Chemscore.DEInternal.Weighted>
4.5966

> <Gold.Chemscore.Rot.Weighted>
3.3737

> <Gold.Chemscore.Internal.Correction.Weighted>
   9.000000E+99

> <Gold.Protein.RotatedTorsions>
[ 6907 6896 6895 6894 ] final -171.95 input  -60.11 | X-H torsion
[ 7974 7965 7964 7962 ] final  142.29 input  175.53 | X-H torsion
[ 8008 7997 7996 7995 ] final  142.99 input   59.86 | X-H torsion
[ 10167 10162 10161 10158 ] final  -46.89 input  -65.29 | X-H torsion
[ 10718 10713 10712 10709 ] final  -90.74 input   66.30 | X-H torsion
[ 10763 10752 10751 10750 ] final  140.63 input  -60.55 | X-H torsion
[ 11005 11000 10999 10996 ] final -117.78 input  -57.11 | X-H torsion

> <Gold.Protein.ActiveResidues>
 VAL166  LYS551  ARG553  GLY616  TRP617  ASP618  TYR619  PRO620  LYS621  CYS622 
 ASP623  PHE694  ASN695  SER759  ASP760  ASP761  ALA762  ILE779  LEU786  VAL792 
 PHE793  MET794  SER795  GLU796  ALA797  LYS798  CYS799  TRP800  GLU811  SER814 

> <Gold.Protein.RotatedAtoms>
  151.5320  133.3447  159.2919 H   0  0  0  0  0  0  0  0  0  0  0  0  # atno 6907 bound_to 6896
  150.8587  134.7936  159.7077 H   0  0  0  0  0  0  0  0  0  0  0  0  # atno 6908 bound_to 6896
  152.4613  134.5186  159.9827 H   0  0  0  0  0  0  0  0  0  0  0  0  # atno 6909 bound_to 6896
  144.9021  139.5409  143.5749 H   0  0  0  0  0  0  0  0  0  0  0  0  # atno 7974 bound_to 7965
  156.2939  140.2274  156.4817 H   0  0  0  0  0  0  0  0  0  0  0  0  # atno 8008 bound_to 7997
  154.7847  140.0458  157.1176 H   0  0  0  0  0  0  0  0  0  0  0  0  # atno 8009 bound_to 7997
  154.9717  140.3067  155.4988 H   0  0  0  0  0  0  0  0  0  0  0  0  # atno 8010 bound_to 7997
  140.6798  143.2810  151.3847 H   0  0  0  0  0  0  0  0  0  0  0  0  # atno 10167 bound_to 10162
  155.9989  130.4921  150.5368 H   0  0  0  0  0  0  0  0  0  0  0  0  # atno 10718 bound_to 10713
  153.9259  135.2995  155.3447 H   0  0  0  0  0  0  0  0  0  0  0  0  # atno 10763 bound_to 10752
  154.7551  135.4961  153.9363 H   0  0  0  0  0  0  0  0  0  0  0  0  # atno 10764 bound_to 10752
  153.1117  135.6760  153.9593 H   0  0  0  0  0  0  0  0  0  0  0  0  # atno 10765 bound_to 10752
  141.0331  133.9951  157.3112 H   0  0  0  0  0  0  0  0  0  0  0  0  # atno 11005 bound_to 11000
  146.3114  139.7759  142.9017 LP  0  0  0  0  0  0  0  0  0  0  0  0  # atno 17320 bound_to 7965
  145.3599  141.0324  143.3291 LP  0  0  0  0  0  0  0  0  0  0  0  0  # atno 17321 bound_to 7965
  139.6114  144.1091  152.2302 LP  0  0  0  0  0  0  0  0  0  0  0  0  # atno 17342 bound_to 10162
  140.0506  144.5935  150.7339 LP  0  0  0  0  0  0  0  0  0  0  0  0  # atno 17343 bound_to 10162
  157.3310  131.0699  151.1861 LP  0  0  0  0  0  0  0  0  0  0  0  0  # atno 17370 bound_to 10713
  157.2741  130.6718  149.6034 LP  0  0  0  0  0  0  0  0  0  0  0  0  # atno 17371 bound_to 10713
  139.9222  135.0201  156.8104 LP  0  0  0  0  0  0  0  0  0  0  0  0  # atno 17394 bound_to 11000
  140.6371  133.9853  155.7689 LP  0  0  0  0  0  0  0  0  0  0  0  0  # atno 17395 bound_to 11000

$$$$
