AV-unprocessed.smi:1967|AV-procd|sdf|7955|dock8
  -GOLD-   2272010123D 1   1.00000     0.00000
 Structure written by MMmdl.
 36 37  0  0  0  0  0  0  0  0  2 V2000
  152.4587  139.9859  155.2659 O   0  0  0  0  0  0  0  0  0  0  0  0
  151.4443  138.9273  155.3987 S   0  0  0  0  0  0  0  0  0  0  0  0
  151.6990  137.6446  154.7228 O   0  0  0  0  0  0  0  0  0  0  0  0
  150.8911  138.7563  156.9131 N   0  5  0  0  0  0  0  0  0  0  0  0
  150.6630  139.9458  157.7146 C   0  0  0  0  0  0  0  0  0  0  0  0
  152.0136  140.5902  158.0940 C   0  0  0  0  0  0  0  0  0  0  0  0
  151.9079  142.0472  158.5335 C   0  0  0  0  0  0  0  0  0  0  0  0
  152.4376  142.4630  159.7765 C   0  0  0  0  0  0  0  0  0  0  0  0
  152.3233  143.8185  160.1398 C   0  0  0  0  0  0  0  0  0  0  0  0
  151.6923  144.7088  159.2501 C   0  0  0  0  0  0  0  0  0  0  0  0
  151.2026  144.2013  158.0305 C   0  0  0  0  0  0  0  0  0  0  0  0
  151.3069  142.9039  157.6718 N   0  0  0  0  0  0  0  0  0  0  0  0
  149.9801  139.5619  154.7105 N   0  0  0  0  0  0  0  0  0  0  0  0
  148.8589  138.6298  154.4680 C   0  0  0  0  0  0  0  0  0  0  0  0
  147.8677  139.2009  153.4407 C   0  0  0  0  0  0  0  0  0  0  0  0
  147.3755  140.5907  153.8568 C   0  0  0  0  0  0  0  0  0  0  0  0
  148.5800  141.5155  154.0566 C   0  0  0  0  0  0  0  0  0  0  0  0
  149.5678  140.9320  155.0805 C   0  0  0  0  0  0  0  0  0  0  0  0
  150.0549  140.6765  157.1805 H   0  0  0  0  0  0  0  0  0  0  0  0
  150.1155  139.7107  158.6280 H   0  0  0  0  0  0  0  0  0  0  0  0
  152.4806  140.0210  158.8991 H   0  0  0  0  0  0  0  0  0  0  0  0
  152.7004  140.5319  157.2478 H   0  0  0  0  0  0  0  0  0  0  0  0
  152.9152  141.7560  160.4392 H   0  0  0  0  0  0  0  0  0  0  0  0
  152.7129  144.1689  161.0841 H   0  0  0  0  0  0  0  0  0  0  0  0
  151.5866  145.7552  159.4956 H   0  0  0  0  0  0  0  0  0  0  0  0
  150.7151  144.8556  157.3230 H   0  0  0  0  0  0  0  0  0  0  0  0
  149.2414  137.6745  154.1091 H   0  0  0  0  0  0  0  0  0  0  0  0
  148.3529  138.4317  155.4136 H   0  0  0  0  0  0  0  0  0  0  0  0
  148.3493  139.2597  152.4639 H   0  0  0  0  0  0  0  0  0  0  0  0
  147.0209  138.5238  153.3273 H   0  0  0  0  0  0  0  0  0  0  0  0
  146.7076  140.9982  153.0974 H   0  0  0  0  0  0  0  0  0  0  0  0
  146.8011  140.5212  154.7815 H   0  0  0  0  0  0  0  0  0  0  0  0
  149.0896  141.6652  153.1038 H   0  0  0  0  0  0  0  0  0  0  0  0
  148.2444  142.4994  154.3852 H   0  0  0  0  0  0  0  0  0  0  0  0
  149.1158  140.9096  156.0730 H   0  0  0  0  0  0  0  0  0  0  0  0
  150.4428  141.5779  155.1472 H   0  0  0  0  0  0  0  0  0  0  0  0
  1  2  2  0  0  0  0
  2  3  2  0  0  0  0
  2  4  1  0  0  0  0
  2 13  1  0  0  0  0
  4  5  1  0  0  0  0
  5  6  1  0  0  0  0
  5 19  1  0  0  0  0
  5 20  1  0  0  0  0
  6  7  1  0  0  0  0
  6 21  1  0  0  0  0
  6 22  1  0  0  0  0
  7 12  1  0  0  0  0
  7  8  2  0  0  0  0
  8  9  1  0  0  0  0
  8 23  1  0  0  0  0
  9 10  2  0  0  0  0
  9 24  1  0  0  0  0
 10 11  1  0  0  0  0
 10 25  1  0  0  0  0
 11 12  2  0  0  0  0
 11 26  1  0  0  0  0
 13 18  1  0  0  0  0
 13 14  1  0  0  0  0
 14 15  1  0  0  0  0
 14 27  1  0  0  0  0
 14 28  1  0  0  0  0
 15 16  1  0  0  0  0
 15 29  1  0  0  0  0
 15 30  1  0  0  0  0
 16 17  1  0  0  0  0
 16 31  1  0  0  0  0
 16 32  1  0  0  0  0
 17 18  1  0  0  0  0
 17 33  1  0  0  0  0
 17 34  1  0  0  0  0
 18 35  1  0  0  0  0
 18 36  1  0  0  0  0
M  CHG  1   4  -1
M  END
> <s_m_source_file>
AV-unprocessed.smi

> <i_m_source_file_index>
1967

> <i_lp_mmshare_version>
43012

> <i_f3d_flags>
0

> <s_epik_input>
W0NIMl0xW0NIMl1bQ0gyXVtDSDJdW0NIMl1OMVMoPU8pKD1PKVtOSF1bQ0gyXVtDSDJdYzJbY0hdW2NIXVtjSF1bY0hdbjI=

> <s_epik_cmdline>
J2VwaWtfcHl0aG9uJywgJy1waCcsICc3LjAnLCAnLXRuJywgJzgnLCAnLW1hJywgJzIwMCcsICctbWV0YWxfYmluZGluZycsICctaW1hZScsICc8aW5maWxlLm1hZT4nLCAnLW9tYWUnLCAnPG91dGZpbGUubWFlPic=

> <r_epik_Ionization_Penalty>
2.02944

> <r_epik_Ionization_Penalty_Charging>
1.95606

> <r_epik_Ionization_Penalty_Neutral>
0.0733798

> <r_epik_State_Penalty>
2.47711

> <r_epik_Charging_Adjusted_Penalty>
4.43317

> <i_epik_Tot_Q>
-1

> <i_epik_Tot_abs_Q>
1

> <r_epik_Metal_State_Penalty>
0.729901

> <b_epik_Metal_Only>
0

> <s_lp_Force_Field>
OPLS_2005

> <r_lp_Energy>
6.94762

> <b_lp_Chiralities_Consistent>
1

> <s_lp_Variant>
AV-unprocessed.smi:1967-2

> <Gold.Version>
5.8.1

> <Gold.Id.Protein>
6NUR|6NUR_protein|mol2

> <Gold.PLP.Fitness>
45.8263

> <Gold.PLP.PLP>
-38.9570

> <Gold.PLP.part.hbond>
-2.3165

> <Gold.PLP.part.metal>
0.0000

> <Gold.PLP.part.buried>
-2.6639

> <Gold.PLP.part.nonpolar>
-34.8131

> <Gold.PLP.part.repulsive>
0.2224

> <Gold.PLP.ligand.clash>
0.0000

> <Gold.PLP.ligand.torsion>
1.7186

> <Gold.PLP.Chemscore.Hbond>
1.4035

> <Gold.PLP.Chemscore.CHOScore>
1.0000

> <Gold.PLP.Chemscore.Metal>
0.0000

> <Gold.Chemscore.Hbonds>
donor molecule, donor type, donor heavy atom, donor atom, acceptor molecule, acceptor atom, score
      P1  H  7989  7998       L1     1  0.41
      P1  H  7997  8008       L1     1  0.86
      L1  C    11    26       P1  8028  1.00

> <Gold.PLP.Chemscore.Internal.Correction>
3.0960

> <Gold.Rescore>
     Score         DG    S(hbond)    S(metal)    S(lipo)     H(rot)  DE(clash)    DE(int)     intcor
     14.42     -17.39       1.09        0.00      99.07       1.30       0.05       2.92       ----

> <Gold.Chemscore.Fitness>
14.4218

> <Gold.Chemscore.DG>
-17.3919

> <Gold.Chemscore.ZeroCoef>
-5.4800

> <Gold.Chemscore.Hbond>
1.0922

> <Gold.Chemscore.Metal>
0.0000

> <Gold.Chemscore.Lipo>
99.0685

> <Gold.Chemscore.Internal_Hbond>
0.0000

> <Gold.Chemscore.DEClash>
0.0467

> <Gold.Chemscore.DEInternal>
2.9233

> <Gold.Chemscore.Rot>
1.2997

> <Gold.Chemscore.Internal.Correction>
   9.000000E+99

> <Gold.Chemscore.Hbonds>
donor molecule, donor type, donor heavy atom, donor atom, acceptor molecule, acceptor atom, score
      P1  H  7989  7998       L1     1  0.07
      P1  H  7997  8008       L1     1  0.84

> <Gold.Chemscore.Hbond.Weighted>
-3.6481

> <Gold.Chemscore.Metal.Weighted>
-0.0000

> <Gold.Chemscore.Lipo.Weighted>
-11.5910

> <Gold.Chemscore.Internal_Hbond.Weighted>
0.0000

> <Gold.Chemscore.DEClash.Weighted>
0.0467

> <Gold.Chemscore.DEInternal.Weighted>
2.9233

> <Gold.Chemscore.Rot.Weighted>
3.3273

> <Gold.Chemscore.Internal.Correction.Weighted>
   9.000000E+99

> <Gold.Protein.RotatedTorsions>
[ 6907 6896 6895 6894 ] final   45.57 input  -60.11 | X-H torsion
[ 7974 7965 7964 7962 ] final -119.31 input  175.53 | X-H torsion
[ 8008 7997 7996 7995 ] final  -26.35 input   59.86 | X-H torsion
[ 10167 10162 10161 10158 ] final  137.27 input  -65.29 | X-H torsion
[ 10718 10713 10712 10709 ] final   89.94 input   66.30 | X-H torsion
[ 10763 10752 10751 10750 ] final  118.54 input  -60.55 | X-H torsion
[ 11005 11000 10999 10996 ] final  -69.50 input  -57.11 | X-H torsion

> <Gold.Protein.ActiveResidues>
 VAL166  LYS551  ARG553  GLY616  TRP617  ASP618  TYR619  PRO620  LYS621  CYS622 
 ASP623  PHE694  ASN695  SER759  ASP760  ASP761  ALA762  ILE779  LEU786  VAL792 
 PHE793  MET794  SER795  GLU796  ALA797  LYS798  CYS799  TRP800  GLU811  SER814 

> <Gold.Protein.RotatedAtoms>
  152.2462  134.8179  160.0452 H   0  0  0  0  0  0  0  0  0  0  0  0  # atno 6907 bound_to 6896
  151.8876  133.3504  159.3795 H   0  0  0  0  0  0  0  0  0  0  0  0  # atno 6908 bound_to 6896
  150.7069  134.4882  159.5547 H   0  0  0  0  0  0  0  0  0  0  0  0  # atno 6909 bound_to 6896
  145.0640  140.8310  143.4135 H   0  0  0  0  0  0  0  0  0  0  0  0  # atno 7974 bound_to 7965
  154.4429  140.1901  156.0762 H   0  0  0  0  0  0  0  0  0  0  0  0  # atno 8008 bound_to 7997
  156.0473  140.3312  155.7285 H   0  0  0  0  0  0  0  0  0  0  0  0  # atno 8009 bound_to 7997
  155.5609  140.0603  157.2819 H   0  0  0  0  0  0  0  0  0  0  0  0  # atno 8010 bound_to 7997
  139.5150  144.6419  151.5545 H   0  0  0  0  0  0  0  0  0  0  0  0  # atno 10167 bound_to 10162
  157.6957  131.0352  150.3503 H   0  0  0  0  0  0  0  0  0  0  0  0  # atno 10718 bound_to 10713
  153.5692  135.3505  155.2831 H   0  0  0  0  0  0  0  0  0  0  0  0  # atno 10763 bound_to 10752
  154.8684  135.4155  154.2744 H   0  0  0  0  0  0  0  0  0  0  0  0  # atno 10764 bound_to 10752
  153.3506  135.7055  153.6861 H   0  0  0  0  0  0  0  0  0  0  0  0  # atno 10765 bound_to 10752
  141.1555  133.6766  156.6609 H   0  0  0  0  0  0  0  0  0  0  0  0  # atno 11005 bound_to 11000
  145.1374  139.2593  143.5508 LP  0  0  0  0  0  0  0  0  0  0  0  0  # atno 17320 bound_to 7965
  146.3526  140.1042  142.8606 LP  0  0  0  0  0  0  0  0  0  0  0  0  # atno 17321 bound_to 7965
  140.6189  143.9296  150.6510 LP  0  0  0  0  0  0  0  0  0  0  0  0  # atno 17342 bound_to 10162
  140.2563  143.3556  152.1362 LP  0  0  0  0  0  0  0  0  0  0  0  0  # atno 17343 bound_to 10162
  156.3952  130.3905  149.7000 LP  0  0  0  0  0  0  0  0  0  0  0  0  # atno 17370 bound_to 10713
  156.4336  130.7827  151.2847 LP  0  0  0  0  0  0  0  0  0  0  0  0  # atno 17371 bound_to 10713
  140.3248  134.7978  157.4280 LP  0  0  0  0  0  0  0  0  0  0  0  0  # atno 17394 bound_to 11000
  140.1066  134.5401  155.8303 LP  0  0  0  0  0  0  0  0  0  0  0  0  # atno 17395 bound_to 11000

$$$$
