AV-unprocessed.smi:1106|AV-procd|sdf|4778|dock7
  -GOLD-   22720 3323D 1   1.00000     0.00000
 Structure written by MMmdl.
 48 49  0  0  0  0  0  0  0  0  2 V2000
  152.7888  142.3446  159.6575 C   0  0  0  0  0  0  0  0  0  0  0  0
  151.5754  141.6780  158.9926 C   0  0  0  0  0  0  0  0  0  0  0  0
  151.8927  140.4108  158.3875 N   0  0  0  0  0  0  0  0  0  0  0  0
  152.4463  139.3768  159.1174 C   0  0  0  0  0  0  0  0  0  0  0  0
  152.7568  138.1803  158.5734 C   0  0  0  0  0  0  0  0  0  0  0  0
  153.3199  137.1265  159.3507 C   0  0  0  0  0  0  0  0  0  0  0  0
  153.7809  136.2866  159.9996 N   0  0  0  0  0  0  0  0  0  0  0  0
  152.5241  137.9116  157.1560 C   0  0  0  0  0  0  0  0  0  0  0  0
  152.7622  136.8289  156.6162 O   0  0  0  0  0  0  0  0  0  0  0  0
  151.9776  139.0018  156.4325 N   0  0  0  0  0  0  0  0  0  0  0  0
  151.7063  138.8030  155.0177 C   0  0  0  0  0  0  0  0  0  0  0  0
  150.4101  138.0060  154.7534 C   0  0  1  0  0  0  0  0  0  0  0  0
  150.0041  138.2383  153.4187 O   0  0  0  0  0  0  0  0  0  0  0  0
  150.6405  136.4887  154.8979 C   0  0  0  0  0  0  0  0  0  0  0  0
  149.4740  135.7000  154.4268 N   0  3  2  0  0  0  0  0  0  0  0  0
  148.2077  136.0603  155.1173 C   0  0  0  0  0  0  0  0  0  0  0  0
  147.0091  135.3265  154.4936 C   0  0  0  0  0  0  0  0  0  0  0  0
  147.2169  133.8022  154.5094 C   0  0  1  0  0  0  0  0  0  0  0  0
  146.0396  133.0622  153.8590 C   0  0  0  0  0  0  0  0  0  0  0  0
  148.5525  133.4648  153.8250 C   0  0  0  0  0  0  0  0  0  0  0  0
  149.7191  134.2361  154.4653 C   0  0  0  0  0  0  0  0  0  0  0  0
  151.6377  140.2508  157.0054 C   0  0  0  0  0  0  0  0  0  0  0  0
  151.1349  141.1578  156.3365 O   0  0  0  0  0  0  0  0  0  0  0  0
  152.4989  143.2797  160.1362 H   0  0  0  0  0  0  0  0  0  0  0  0
  153.5697  142.5745  158.9324 H   0  0  0  0  0  0  0  0  0  0  0  0
  153.2215  141.6997  160.4228 H   0  0  0  0  0  0  0  0  0  0  0  0
  150.7984  141.4720  159.7300 H   0  0  0  0  0  0  0  0  0  0  0  0
  151.1186  142.3055  158.2251 H   0  0  0  0  0  0  0  0  0  0  0  0
  152.6372  139.5300  160.1702 H   0  0  0  0  0  0  0  0  0  0  0  0
  151.7175  139.7697  154.5111 H   0  0  0  0  0  0  0  0  0  0  0  0
  152.5773  138.2844  154.6132 H   0  0  0  0  0  0  0  0  0  0  0  0
  149.6224  138.3355  155.4304 H   0  0  0  0  0  0  0  0  0  0  0  0
  149.7765  137.4100  153.0232 H   0  0  0  0  0  0  0  0  0  0  0  0
  151.5341  136.2175  154.3330 H   0  0  0  0  0  0  0  0  0  0  0  0
  150.8511  136.2274  155.9363 H   0  0  0  0  0  0  0  0  0  0  0  0
  148.2867  135.8122  156.1769 H   0  0  0  0  0  0  0  0  0  0  0  0
  148.0364  137.1347  155.0594 H   0  0  0  0  0  0  0  0  0  0  0  0
  146.0994  135.5848  155.0365 H   0  0  0  0  0  0  0  0  0  0  0  0
  146.8655  135.6717  153.4685 H   0  0  0  0  0  0  0  0  0  0  0  0
  147.2776  133.4779  155.5493 H   0  0  0  0  0  0  0  0  0  0  0  0
  145.9202  133.3464  152.8131 H   0  0  0  0  0  0  0  0  0  0  0  0
  145.1043  133.2852  154.3731 H   0  0  0  0  0  0  0  0  0  0  0  0
  146.1852  131.9821  153.8959 H   0  0  0  0  0  0  0  0  0  0  0  0
  148.7451  132.3931  153.8861 H   0  0  0  0  0  0  0  0  0  0  0  0
  148.4963  133.7077  152.7629 H   0  0  0  0  0  0  0  0  0  0  0  0
  150.6380  134.0013  153.9265 H   0  0  0  0  0  0  0  0  0  0  0  0
  149.8646  133.9160  155.4983 H   0  0  0  0  0  0  0  0  0  0  0  0
  149.3579  135.9354  153.4510 H   0  0  0  0  0  0  0  0  0  0  0  0
  1  2  1  0  0  0  0
  1 24  1  0  0  0  0
  1 25  1  0  0  0  0
  1 26  1  0  0  0  0
  2  3  1  0  0  0  0
  2 27  1  0  0  0  0
  2 28  1  0  0  0  0
  3 22  1  0  0  0  0
  3  4  1  0  0  0  0
  4  5  2  0  0  0  0
  4 29  1  0  0  0  0
  5  6  1  0  0  0  0
  5  8  1  0  0  0  0
  6  7  3  0  0  0  0
  8  9  2  0  0  0  0
  8 10  1  0  0  0  0
 10 11  1  0  0  0  0
 10 22  1  0  0  0  0
 11 12  1  0  0  0  0
 11 30  1  0  0  0  0
 11 31  1  0  0  0  0
 12 13  1  0  0  0  0
 12 14  1  0  0  0  0
 12 32  1  0  0  0  0
 13 33  1  0  0  0  0
 14 15  1  0  0  0  0
 14 34  1  0  0  0  0
 14 35  1  0  0  0  0
 15 21  1  0  0  0  0
 15 16  1  0  0  0  0
 15 48  1  0  0  0  0
 16 17  1  0  0  0  0
 16 36  1  0  0  0  0
 16 37  1  0  0  0  0
 17 18  1  0  0  0  0
 17 38  1  0  0  0  0
 17 39  1  0  0  0  0
 18 19  1  0  0  0  0
 18 20  1  0  0  0  0
 18 40  1  0  0  0  0
 19 41  1  0  0  0  0
 19 42  1  0  0  0  0
 19 43  1  0  0  0  0
 20 21  1  0  0  0  0
 20 44  1  0  0  0  0
 20 45  1  0  0  0  0
 21 46  1  0  0  0  0
 21 47  1  0  0  0  0
 22 23  2  0  0  0  0
M  CHG  1  15   1
M  END
> <s_m_source_file>
AV-unprocessed.smi

> <i_m_source_file_index>
1106

> <i_lp_mmshare_version>
43012

> <i_f3d_flags>
0

> <s_epik_input>
W0NIM11bQ0gyXW4xW2NIXWMoQyNOKWMoPU8pbihjMT1PKVtDSDJdW0NASF0oW09IXSlbQ0gyXU4yW0NIMl1bQ0gyXVtDSF0oW0NIM10pW0NIMl1bQ0gyXTI=

> <s_epik_cmdline>
J2VwaWtfcHl0aG9uJywgJy1waCcsICc3LjAnLCAnLXRuJywgJzgnLCAnLW1hJywgJzIwMCcsICctbWV0YWxfYmluZGluZycsICctaW1hZScsICc8aW5maWxlLm1hZT4nLCAnLW9tYWUnLCAnPG91dGZpbGUubWFlPic=

> <r_epik_Ionization_Penalty>
0.00136816

> <r_epik_Ionization_Penalty_Charging>
0.00136813

> <r_epik_Ionization_Penalty_Neutral>
3.19882e-08

> <r_epik_State_Penalty>
0.000910892

> <r_epik_Charging_Adjusted_Penalty>
0.00227902

> <i_epik_Tot_Q>
1

> <i_epik_Tot_abs_Q>
1

> <r_epik_Metal_State_Penalty>
-0

> <b_epik_Metal_Only>
0

> <s_lp_Force_Field>
OPLS_2005

> <r_lp_Energy>
28.6797

> <b_lp_Chiralities_Consistent>
1

> <s_lp_Variant>
AV-unprocessed.smi:1106-2

> <Gold.Version>
5.8.1

> <Gold.Id.Protein>
6NUR|6NUR_protein|mol2

> <Gold.PLP.Fitness>
49.8855

> <Gold.PLP.PLP>
-35.8817

> <Gold.PLP.part.hbond>
-5.9843

> <Gold.PLP.part.metal>
0.0000

> <Gold.PLP.part.buried>
-3.3790

> <Gold.PLP.part.nonpolar>
-26.9602

> <Gold.PLP.part.repulsive>
0.0676

> <Gold.PLP.ligand.clash>
0.0000

> <Gold.PLP.ligand.torsion>
0.5093

> <Gold.PLP.Chemscore.Hbond>
4.9825

> <Gold.PLP.Chemscore.CHOScore>
0.0000

> <Gold.PLP.Chemscore.Metal>
0.0000

> <Gold.Chemscore.Hbonds>
donor molecule, donor type, donor heavy atom, donor atom, acceptor molecule, acceptor atom, score
      L1  H    13    33       P1  7948  1.00
      L1  H    15    48       P1  7948  2.00
      P1  H  6896  6908       L1     7  0.86
      P1  H 10752 10765       L1     9  0.96

> <Gold.PLP.Chemscore.Internal.Correction>
0.0750

> <Gold.Rescore>
     Score         DG    S(hbond)    S(metal)    S(lipo)     H(rot)  DE(clash)    DE(int)     intcor
     17.30     -19.26       3.82        0.00      63.00       2.48       0.03       1.93       ----

> <Gold.Chemscore.Fitness>
17.2965

> <Gold.Chemscore.DG>
-19.2631

> <Gold.Chemscore.ZeroCoef>
-5.4800

> <Gold.Chemscore.Hbond>
3.8235

> <Gold.Chemscore.Metal>
0.0000

> <Gold.Chemscore.Lipo>
62.9997

> <Gold.Chemscore.Internal_Hbond>
0.0000

> <Gold.Chemscore.DEClash>
0.0323

> <Gold.Chemscore.DEInternal>
1.9343

> <Gold.Chemscore.Rot>
2.4838

> <Gold.Chemscore.Internal.Correction>
   9.000000E+99

> <Gold.Chemscore.Hbonds>
donor molecule, donor type, donor heavy atom, donor atom, acceptor molecule, acceptor atom, score
      L1  H    13    33       P1  7948  0.44
      L1  H    15    48       P1  7948  0.55
      P1  H  6896  6908       L1     7  0.55
      P1  H 10752 10765       L1     9  0.85

> <Gold.Chemscore.Hbond.Weighted>
-12.7706

> <Gold.Chemscore.Metal.Weighted>
-0.0000

> <Gold.Chemscore.Lipo.Weighted>
-7.3710

> <Gold.Chemscore.Internal_Hbond.Weighted>
0.0000

> <Gold.Chemscore.DEClash.Weighted>
0.0323

> <Gold.Chemscore.DEInternal.Weighted>
1.9343

> <Gold.Chemscore.Rot.Weighted>
6.3585

> <Gold.Chemscore.Internal.Correction.Weighted>
   9.000000E+99

> <Gold.Protein.RotatedTorsions>
[ 6907 6896 6895 6894 ] final  -59.80 input  -60.11 | X-H torsion
[ 7974 7965 7964 7962 ] final  -81.09 input  175.53 | X-H torsion
[ 8008 7997 7996 7995 ] final  178.59 input   59.86 | X-H torsion
[ 10167 10162 10161 10158 ] final   57.75 input  -65.29 | X-H torsion
[ 10718 10713 10712 10709 ] final  107.21 input   66.30 | X-H torsion
[ 10763 10752 10751 10750 ] final -136.72 input  -60.55 | X-H torsion
[ 11005 11000 10999 10996 ] final  129.86 input  -57.11 | X-H torsion

> <Gold.Protein.ActiveResidues>
 VAL166  LYS551  ARG553  GLY616  TRP617  ASP618  TYR619  PRO620  LYS621  CYS622 
 ASP623  PHE694  ASN695  SER759  ASP760  ASP761  ALA762  ILE779  LEU786  VAL792 
 PHE793  MET794  SER795  GLU796  ALA797  LYS798  CYS799  TRP800  GLU811  SER814 

> <Gold.Protein.RotatedAtoms>
  150.7903  134.6921  159.6502 H   0  0  0  0  0  0  0  0  0  0  0  0  # atno 6907 bound_to 6896
  152.4007  134.6287  160.0079 H   0  0  0  0  0  0  0  0  0  0  0  0  # atno 6908 bound_to 6896
  151.6559  133.3282  159.3199 H   0  0  0  0  0  0  0  0  0  0  0  0  # atno 6909 bound_to 6896
  145.5512  140.9496  143.1498 H   0  0  0  0  0  0  0  0  0  0  0  0  # atno 7974 bound_to 7965
  156.0529  140.1329  157.0029 H   0  0  0  0  0  0  0  0  0  0  0  0  # atno 8008 bound_to 7997
  154.4444  140.1007  156.6474 H   0  0  0  0  0  0  0  0  0  0  0  0  # atno 8009 bound_to 7997
  155.5495  140.3462  155.4467 H   0  0  0  0  0  0  0  0  0  0  0  0  # atno 8010 bound_to 7997
  140.1946  144.4050  150.6555 H   0  0  0  0  0  0  0  0  0  0  0  0  # atno 10167 bound_to 10162
  157.6638  131.0867  150.6122 H   0  0  0  0  0  0  0  0  0  0  0  0  # atno 10718 bound_to 10713
  154.8678  135.3664  154.5106 H   0  0  0  0  0  0  0  0  0  0  0  0  # atno 10763 bound_to 10752
  153.5742  135.7020  153.5496 H   0  0  0  0  0  0  0  0  0  0  0  0  # atno 10764 bound_to 10752
  153.3515  135.4071  155.1612 H   0  0  0  0  0  0  0  0  0  0  0  0  # atno 10765 bound_to 10752
  139.9639  134.9595  156.9209 H   0  0  0  0  0  0  0  0  0  0  0  0  # atno 11005 bound_to 11000
  144.7528  139.7150  143.7266 LP  0  0  0  0  0  0  0  0  0  0  0  0  # atno 17320 bound_to 7965
  146.1915  139.5158  142.9802 LP  0  0  0  0  0  0  0  0  0  0  0  0  # atno 17321 bound_to 7965
  140.6432  143.2208  151.6244 LP  0  0  0  0  0  0  0  0  0  0  0  0  # atno 17342 bound_to 10162
  139.5242  144.3112  152.0991 LP  0  0  0  0  0  0  0  0  0  0  0  0  # atno 17343 bound_to 10162
  156.6423  130.4462  149.5748 LP  0  0  0  0  0  0  0  0  0  0  0  0  # atno 17370 bound_to 10713
  156.2200  130.6731  151.1358 LP  0  0  0  0  0  0  0  0  0  0  0  0  # atno 17371 bound_to 10713
  140.5440  134.0692  155.7349 LP  0  0  0  0  0  0  0  0  0  0  0  0  # atno 17394 bound_to 11000
  141.1318  133.9290  157.2520 LP  0  0  0  0  0  0  0  0  0  0  0  0  # atno 17395 bound_to 11000

$$$$
