AV-unprocessed.smi:1734|AV-procd|sdf|6986|dock6
  -GOLD-   22720 8203D 1   1.00000     0.00000
 Structure written by MMmdl.
 51 53  0  0  0  0  0  0  0  0  2 V2000
  147.1495  131.9407  153.2079 C   0  0  0  0  0  0  0  0  0  0  0  0
  146.0775  132.2996  152.1918 C   0  0  0  0  0  0  0  0  0  0  0  0
  145.3960  131.2659  151.5151 C   0  0  0  0  0  0  0  0  0  0  0  0
  144.4041  131.5975  150.5768 C   0  0  0  0  0  0  0  0  0  0  0  0
  144.1343  132.9582  150.3526 C   0  0  0  0  0  0  0  0  0  0  0  0
  144.7816  133.9526  150.9936 N   0  0  0  0  0  0  0  0  0  0  0  0
  145.7428  133.6498  151.9024 C   0  0  0  0  0  0  0  0  0  0  0  0
  146.4640  134.6473  152.6181 N   0  0  0  0  0  0  0  0  0  0  0  0
  146.3015  135.0421  153.8935 C   0  0  0  0  0  0  0  0  0  0  0  0
  145.4499  134.6104  154.6706 O   0  0  0  0  0  0  0  0  0  0  0  0
  147.1989  135.9814  154.2273 N   0  0  0  0  0  0  0  0  0  0  0  0
  147.3054  136.6203  155.5356 C   0  0  0  0  0  0  0  0  0  0  0  0
  148.7761  136.8031  155.9985 C   0  0  2  0  0  0  0  0  0  0  0  0
  149.0183  136.4504  157.4949 C   0  0  1  0  0  0  0  0  0  0  0  0
  148.1513  137.1823  158.5080 C   0  0  0  0  0  0  0  0  0  0  0  0
  148.2382  136.2898  159.7430 C   0  0  0  0  0  0  0  0  0  0  0  0
  148.4963  134.9754  159.2636 O   0  0  0  0  0  0  0  0  0  0  0  0
  148.6659  135.0020  157.8529 C   0  0  0  0  0  0  0  0  0  0  0  0
  149.2754  138.1846  155.7219 N   0  3  0  0  0  0  0  0  0  0  0  0
  150.6934  138.4053  156.0971 C   0  0  0  0  0  0  0  0  0  0  0  0
  151.0483  139.8962  155.9631 C   0  0  0  0  0  0  0  0  0  0  0  0
  150.7814  140.3360  154.6365 O   0  0  0  0  0  0  0  0  0  0  0  0
  149.4070  140.2022  154.2935 C   0  0  0  0  0  0  0  0  0  0  0  0
  149.0022  138.7206  154.3637 C   0  0  0  0  0  0  0  0  0  0  0  0
  147.2661  130.8600  153.2967 H   0  0  0  0  0  0  0  0  0  0  0  0
  146.8893  132.3317  154.1920 H   0  0  0  0  0  0  0  0  0  0  0  0
  148.1119  132.3579  152.9107 H   0  0  0  0  0  0  0  0  0  0  0  0
  145.6282  130.2294  151.7110 H   0  0  0  0  0  0  0  0  0  0  0  0
  143.8647  130.8290  150.0434 H   0  0  0  0  0  0  0  0  0  0  0  0
  143.3791  133.2570  149.6406 H   0  0  0  0  0  0  0  0  0  0  0  0
  147.1942  135.1078  152.0957 H   0  0  0  0  0  0  0  0  0  0  0  0
  147.8572  136.2780  153.5215 H   0  0  0  0  0  0  0  0  0  0  0  0
  146.8043  137.5845  155.4561 H   0  0  0  0  0  0  0  0  0  0  0  0
  146.7553  136.0470  156.2829 H   0  0  0  0  0  0  0  0  0  0  0  0
  149.3967  136.1239  155.4115 H   0  0  0  0  0  0  0  0  0  0  0  0
  150.0628  136.6279  157.7549 H   0  0  0  0  0  0  0  0  0  0  0  0
  148.4937  138.1938  158.7238 H   0  0  0  0  0  0  0  0  0  0  0  0
  147.1190  137.2363  158.1591 H   0  0  0  0  0  0  0  0  0  0  0  0
  149.0699  136.5954  160.3788 H   0  0  0  0  0  0  0  0  0  0  0  0
  147.3266  136.3234  160.3402 H   0  0  0  0  0  0  0  0  0  0  0  0
  147.7242  134.7072  157.3872 H   0  0  0  0  0  0  0  0  0  0  0  0
  149.4326  134.2923  157.5410 H   0  0  0  0  0  0  0  0  0  0  0  0
  150.8646  138.0817  157.1242 H   0  0  0  0  0  0  0  0  0  0  0  0
  151.3496  137.8123  155.4594 H   0  0  0  0  0  0  0  0  0  0  0  0
  150.4831  140.4967  156.6780 H   0  0  0  0  0  0  0  0  0  0  0  0
  152.1049  140.0525  156.1816 H   0  0  0  0  0  0  0  0  0  0  0  0
  148.7908  140.8071  154.9607 H   0  0  0  0  0  0  0  0  0  0  0  0
  149.2556  140.5859  153.2844 H   0  0  0  0  0  0  0  0  0  0  0  0
  149.5633  138.1610  153.6142 H   0  0  0  0  0  0  0  0  0  0  0  0
  147.9455  138.6211  154.1181 H   0  0  0  0  0  0  0  0  0  0  0  0
  148.7508  138.7736  156.3527 H   0  0  0  0  0  0  0  0  0  0  0  0
  1  2  1  0  0  0  0
  1 25  1  0  0  0  0
  1 26  1  0  0  0  0
  1 27  1  0  0  0  0
  2  7  1  0  0  0  0
  2  3  2  0  0  0  0
  3  4  1  0  0  0  0
  3 28  1  0  0  0  0
  4  5  2  0  0  0  0
  4 29  1  0  0  0  0
  5  6  1  0  0  0  0
  5 30  1  0  0  0  0
  6  7  2  0  0  0  0
  7  8  1  0  0  0  0
  8  9  1  0  0  0  0
  8 31  1  0  0  0  0
  9 10  2  0  0  0  0
  9 11  1  0  0  0  0
 11 12  1  0  0  0  0
 11 32  1  0  0  0  0
 12 13  1  0  0  0  0
 12 33  1  0  0  0  0
 12 34  1  0  0  0  0
 13 14  1  0  0  0  0
 13 19  1  0  0  0  0
 13 35  1  0  0  0  0
 14 18  1  0  0  0  0
 14 15  1  0  0  0  0
 14 36  1  0  0  0  0
 15 16  1  0  0  0  0
 15 37  1  0  0  0  0
 15 38  1  0  0  0  0
 16 17  1  0  0  0  0
 16 39  1  0  0  0  0
 16 40  1  0  0  0  0
 17 18  1  0  0  0  0
 18 41  1  0  0  0  0
 18 42  1  0  0  0  0
 19 24  1  0  0  0  0
 19 20  1  0  0  0  0
 19 51  1  0  0  0  0
 20 21  1  0  0  0  0
 20 43  1  0  0  0  0
 20 44  1  0  0  0  0
 21 22  1  0  0  0  0
 21 45  1  0  0  0  0
 21 46  1  0  0  0  0
 22 23  1  0  0  0  0
 23 24  1  0  0  0  0
 23 47  1  0  0  0  0
 23 48  1  0  0  0  0
 24 49  1  0  0  0  0
 24 50  1  0  0  0  0
M  CHG  1  19   1
M  END
> <s_m_source_file>
AV-unprocessed.smi

> <i_m_source_file_index>
1734

> <i_lp_mmshare_version>
43012

> <i_f3d_flags>
0

> <s_epik_input>
W0NIM11jMVtjSF1bY0hdW2NIXW5jMVtOSF1DKD1PKVtOSF1bQ0gyXVtDQEhdKFtDQEBIXTJbQ0gyXVtDSDJdT1tDSDJdMilOM1tDSDJdW0NIMl1PW0NIMl1bQ0gyXTM=

> <s_epik_cmdline>
J2VwaWtfcHl0aG9uJywgJy1waCcsICc3LjAnLCAnLXRuJywgJzgnLCAnLW1hJywgJzIwMCcsICctbWV0YWxfYmluZGluZycsICctaW1hZScsICc8aW5maWxlLm1hZT4nLCAnLW9tYWUnLCAnPG91dGZpbGUubWFlPic=

> <r_epik_Ionization_Penalty>
0.983302

> <r_epik_Ionization_Penalty_Charging>
0.98326

> <r_epik_Ionization_Penalty_Neutral>
4.21967e-05

> <r_epik_State_Penalty>
1.0303

> <r_epik_Charging_Adjusted_Penalty>
2.01356

> <i_epik_Tot_Q>
1

> <i_epik_Tot_abs_Q>
1

> <r_epik_Metal_State_Penalty>
1.03031

> <b_epik_Metal_Only>
0

> <s_lp_Force_Field>
OPLS_2005

> <r_lp_Energy>
41.1253

> <b_lp_Chiralities_Consistent>
1

> <s_lp_Variant>
AV-unprocessed.smi:1734-7

> <Gold.Version>
5.8.1

> <Gold.Id.Protein>
6NUR|6NUR_protein|mol2

> <Gold.PLP.Fitness>
43.7208

> <Gold.PLP.PLP>
-31.3361

> <Gold.PLP.part.hbond>
-3.8149

> <Gold.PLP.part.metal>
0.0000

> <Gold.PLP.part.buried>
-4.5555

> <Gold.PLP.part.nonpolar>
-23.8182

> <Gold.PLP.part.repulsive>
0.3348

> <Gold.PLP.ligand.clash>
0.0000

> <Gold.PLP.ligand.torsion>
1.5105

> <Gold.PLP.Chemscore.Hbond>
4.0000

> <Gold.PLP.Chemscore.CHOScore>
1.0000

> <Gold.PLP.Chemscore.Metal>
0.0000

> <Gold.Chemscore.Hbonds>
donor molecule, donor type, donor heavy atom, donor atom, acceptor molecule, acceptor atom, score
      L1  H     8    31       P1  7948  0.91
      L1  H    11    32       P1  7948  1.00
      P1  H  6896  6907       L1    17  0.21
      P1  H  7989  7998       L1    22  0.96
      L1  C     5    30       P1 10186  0.72

> <Gold.PLP.Chemscore.Internal.Correction>
0.4056

> <Gold.Rescore>
     Score         DG    S(hbond)    S(metal)    S(lipo)     H(rot)  DE(clash)    DE(int)     intcor
     18.91     -20.69       3.13        0.00      77.85       1.70       0.08       1.70       ----

> <Gold.Chemscore.Fitness>
18.9097

> <Gold.Chemscore.DG>
-20.6909

> <Gold.Chemscore.ZeroCoef>
-5.4800

> <Gold.Chemscore.Hbond>
3.1291

> <Gold.Chemscore.Metal>
0.0000

> <Gold.Chemscore.Lipo>
77.8479

> <Gold.Chemscore.Internal_Hbond>
0.0000

> <Gold.Chemscore.DEClash>
0.0777

> <Gold.Chemscore.DEInternal>
1.7036

> <Gold.Chemscore.Rot>
1.6986

> <Gold.Chemscore.Internal.Correction>
   9.000000E+99

> <Gold.Chemscore.Hbonds>
donor molecule, donor type, donor heavy atom, donor atom, acceptor molecule, acceptor atom, score
      L1  H     8    31       P1  7948  0.87
      L1  H    11    32       P1  7948  0.97
      P1  H  6896  6907       L1    17  0.01
      P1  H  7989  7998       L1    22  0.78

> <Gold.Chemscore.Hbond.Weighted>
-10.4512

> <Gold.Chemscore.Metal.Weighted>
-0.0000

> <Gold.Chemscore.Lipo.Weighted>
-9.1082

> <Gold.Chemscore.Internal_Hbond.Weighted>
0.0000

> <Gold.Chemscore.DEClash.Weighted>
0.0777

> <Gold.Chemscore.DEInternal.Weighted>
1.7036

> <Gold.Chemscore.Rot.Weighted>
4.3485

> <Gold.Chemscore.Internal.Correction.Weighted>
   9.000000E+99

> <Gold.Protein.RotatedTorsions>
[ 6907 6896 6895 6894 ] final  -89.22 input  -60.11 | X-H torsion
[ 7974 7965 7964 7962 ] final  160.68 input  175.53 | X-H torsion
[ 8008 7997 7996 7995 ] final  177.54 input   59.86 | X-H torsion
[ 10167 10162 10161 10158 ] final   75.21 input  -65.29 | X-H torsion
[ 10718 10713 10712 10709 ] final  166.40 input   66.30 | X-H torsion
[ 10763 10752 10751 10750 ] final  106.11 input  -60.55 | X-H torsion
[ 11005 11000 10999 10996 ] final   71.65 input  -57.11 | X-H torsion

> <Gold.Protein.ActiveResidues>
 VAL166  LYS551  ARG553  GLY616  TRP617  ASP618  TYR619  PRO620  LYS621  CYS622 
 ASP623  PHE694  ASN695  SER759  ASP760  ASP761  ALA762  ILE779  LEU786  VAL792 
 PHE793  MET794  SER795  GLU796  ALA797  LYS798  CYS799  TRP800  GLU811  SER814 

> <Gold.Protein.RotatedAtoms>
  150.6872  134.2620  159.4552 H   0  0  0  0  0  0  0  0  0  0  0  0  # atno 6907 bound_to 6896
  152.0549  134.9628  160.0584 H   0  0  0  0  0  0  0  0  0  0  0  0  # atno 6908 bound_to 6896
  152.1078  133.4249  159.4653 H   0  0  0  0  0  0  0  0  0  0  0  0  # atno 6909 bound_to 6896
  144.7724  139.7791  143.6292 H   0  0  0  0  0  0  0  0  0  0  0  0  # atno 7974 bound_to 7965
  156.0645  140.1356  156.9901 H   0  0  0  0  0  0  0  0  0  0  0  0  # atno 8008 bound_to 7997
  154.4499  140.0984  156.6638 H   0  0  0  0  0  0  0  0  0  0  0  0  # atno 8009 bound_to 7997
  155.5325  140.3459  155.4431 H   0  0  0  0  0  0  0  0  0  0  0  0  # atno 8010 bound_to 7997
  140.0054  144.5655  150.7703 H   0  0  0  0  0  0  0  0  0  0  0  0  # atno 10167 bound_to 10162
  157.0665  131.0354  151.2628 H   0  0  0  0  0  0  0  0  0  0  0  0  # atno 10718 bound_to 10713
  153.3885  135.3888  155.1906 H   0  0  0  0  0  0  0  0  0  0  0  0  # atno 10763 bound_to 10752
  154.8716  135.3742  154.4768 H   0  0  0  0  0  0  0  0  0  0  0  0  # atno 10764 bound_to 10752
  153.5252  135.7086  153.5772 H   0  0  0  0  0  0  0  0  0  0  0  0  # atno 10765 bound_to 10752
  139.9532  134.7190  156.0813 H   0  0  0  0  0  0  0  0  0  0  0  0  # atno 11005 bound_to 11000
  146.1881  139.5106  142.9823 LP  0  0  0  0  0  0  0  0  0  0  0  0  # atno 17320 bound_to 7965
  145.6284  141.0309  143.1877 LP  0  0  0  0  0  0  0  0  0  0  0  0  # atno 17321 bound_to 7965
  140.7402  143.2802  151.3621 LP  0  0  0  0  0  0  0  0  0  0  0  0  # atno 17342 bound_to 10162
  139.6242  144.0846  152.2419 LP  0  0  0  0  0  0  0  0  0  0  0  0  # atno 17343 bound_to 10162
  157.4913  130.7824  149.7510 LP  0  0  0  0  0  0  0  0  0  0  0  0  # atno 17370 bound_to 10713
  155.9963  130.3906  150.2785 LP  0  0  0  0  0  0  0  0  0  0  0  0  # atno 17371 bound_to 10713
  141.1199  133.6616  156.3188 LP  0  0  0  0  0  0  0  0  0  0  0  0  # atno 17394 bound_to 11000
  140.5669  134.5878  157.5448 LP  0  0  0  0  0  0  0  0  0  0  0  0  # atno 17395 bound_to 11000

$$$$
