AV-unprocessed.smi:623|AV-procd|sdf|3098|dock9
  -GOLD-   22720 0 23D 1   1.00000     0.00000
 Structure written by MMmdl.
 44 46  0  0  0  0  0  0  0  0  2 V2000
  144.3746  134.5825  150.0846 C   0  0  0  0  0  0  0  0  0  0  0  0
  144.5004  133.2837  150.9301 C   0  0  0  0  0  0  0  0  0  0  0  0
  143.3484  133.3539  151.9711 C   0  0  0  0  0  0  0  0  0  0  0  0
  144.5192  131.9869  150.0958 C   0  0  1  0  0  0  0  0  0  0  0  0
  145.8076  132.1127  149.2534 C   0  0  0  0  0  0  0  0  0  0  0  0
  146.7682  132.8350  150.2182 C   0  0  0  0  0  0  0  0  0  0  0  0
  145.9116  132.9865  151.5069 C   0  0  1  0  0  0  0  0  0  0  0  0
  146.4735  134.0331  152.4840 C   0  0  0  0  0  0  0  0  0  0  0  0
  145.7333  131.5754  152.1465 C   0  0  2  0  0  0  0  0  0  0  0  0
  146.9900  130.8487  152.3234 N   0  0  0  0  0  0  0  0  0  0  0  0
  147.3629  130.2094  153.4415 C   0  0  0  0  0  0  0  0  0  0  0  0
  146.6602  130.1556  154.4519 O   0  0  0  0  0  0  0  0  0  0  0  0
  148.7252  129.5042  153.3843 C   0  0  0  0  0  0  0  0  0  0  0  0
  148.6664  128.1687  152.7685 N   0  0  0  0  0  0  0  0  0  0  0  0
  148.1615  128.0764  151.4598 C   0  0  0  0  0  0  0  0  0  0  0  0
  148.0654  126.8973  150.8166 C   0  0  0  0  0  0  0  0  0  0  0  0
  148.5025  125.6938  151.5131 C   0  0  0  0  0  0  0  0  0  0  0  0
  148.4268  124.6090  150.9394 O   0  0  0  0  0  0  0  0  0  0  0  0
  148.9808  125.8344  152.7841 N   0  5  0  0  0  0  0  0  0  0  0  0
  149.0690  127.0401  153.4272 C   0  0  0  0  0  0  0  0  0  0  0  0
  149.4995  127.1441  154.5764 O   0  0  0  0  0  0  0  0  0  0  0  0
  144.7773  130.8824  151.1444 C   0  0  0  0  0  0  0  0  0  0  0  0
  143.3955  134.6349  149.6074 H   0  0  0  0  0  0  0  0  0  0  0  0
  145.1075  134.6898  149.2881 H   0  0  0  0  0  0  0  0  0  0  0  0
  144.4695  135.4664  150.7156 H   0  0  0  0  0  0  0  0  0  0  0  0
  143.2847  132.5068  152.6499 H   0  0  0  0  0  0  0  0  0  0  0  0
  142.3825  133.4162  151.4688 H   0  0  0  0  0  0  0  0  0  0  0  0
  143.4429  134.2440  152.5938 H   0  0  0  0  0  0  0  0  0  0  0  0
  143.6259  131.8112  149.4957 H   0  0  0  0  0  0  0  0  0  0  0  0
  146.1933  131.1418  148.9400 H   0  0  0  0  0  0  0  0  0  0  0  0
  145.6415  132.6976  148.3486 H   0  0  0  0  0  0  0  0  0  0  0  0
  147.6960  132.2827  150.3645 H   0  0  0  0  0  0  0  0  0  0  0  0
  147.0623  133.8052  149.8179 H   0  0  0  0  0  0  0  0  0  0  0  0
  147.4685  133.7504  152.8283 H   0  0  0  0  0  0  0  0  0  0  0  0
  145.8381  134.1369  153.3636 H   0  0  0  0  0  0  0  0  0  0  0  0
  146.5543  135.0133  152.0141 H   0  0  0  0  0  0  0  0  0  0  0  0
  145.2592  131.6619  153.1253 H   0  0  0  0  0  0  0  0  0  0  0  0
  147.6279  130.8442  151.5409 H   0  0  0  0  0  0  0  0  0  0  0  0
  149.4154  130.1440  152.8327 H   0  0  0  0  0  0  0  0  0  0  0  0
  149.1415  129.4372  154.3912 H   0  0  0  0  0  0  0  0  0  0  0  0
  147.8536  129.0133  151.0190 H   0  0  0  0  0  0  0  0  0  0  0  0
  147.6720  126.8435  149.8122 H   0  0  0  0  0  0  0  0  0  0  0  0
  143.8545  130.5731  151.6353 H   0  0  0  0  0  0  0  0  0  0  0  0
  145.2048  129.9863  150.6918 H   0  0  0  0  0  0  0  0  0  0  0  0
  1  2  1  0  0  0  0
  1 23  1  0  0  0  0
  1 24  1  0  0  0  0
  1 25  1  0  0  0  0
  2  7  1  0  0  0  0
  2  3  1  0  0  0  0
  2  4  1  0  0  0  0
  3 26  1  0  0  0  0
  3 27  1  0  0  0  0
  3 28  1  0  0  0  0
  4 22  1  0  0  0  0
  4  5  1  0  0  0  0
  4 29  1  0  0  0  0
  5  6  1  0  0  0  0
  5 30  1  0  0  0  0
  5 31  1  0  0  0  0
  6  7  1  0  0  0  0
  6 32  1  0  0  0  0
  6 33  1  0  0  0  0
  7  8  1  0  0  0  0
  7  9  1  0  0  0  0
  8 34  1  0  0  0  0
  8 35  1  0  0  0  0
  8 36  1  0  0  0  0
  9 10  1  0  0  0  0
  9 22  1  0  0  0  0
  9 37  1  0  0  0  0
 10 11  1  0  0  0  0
 10 38  1  0  0  0  0
 11 12  2  0  0  0  0
 11 13  1  0  0  0  0
 13 14  1  0  0  0  0
 13 39  1  0  0  0  0
 13 40  1  0  0  0  0
 14 20  1  0  0  0  0
 14 15  1  0  0  0  0
 15 16  2  0  0  0  0
 15 41  1  0  0  0  0
 16 17  1  0  0  0  0
 16 42  1  0  0  0  0
 17 18  2  0  0  0  0
 17 19  1  0  0  0  0
 19 20  1  0  0  0  0
 20 21  2  0  0  0  0
 22 43  1  0  0  0  0
 22 44  1  0  0  0  0
M  CHG  1  19  -1
M  END
> <s_m_source_file>
AV-unprocessed.smi

> <i_m_source_file_index>
623

> <i_lp_mmshare_version>
43012

> <i_f3d_flags>
0

> <s_epik_input>
W0NIM11bQ0BdMTJDKFtDSDNdKShbQ0gzXSlbQ0BIXShbQ0gyXVtDSDJdMSlbQ0gyXVtDQEBIXTJbTkhdQyg9TylbQ0gyXW4zW2NIXVtjSF1jKD1PKVtuSF1jMz1P

> <s_epik_cmdline>
J2VwaWtfcHl0aG9uJywgJy1waCcsICc3LjAnLCAnLXRuJywgJzgnLCAnLW1hJywgJzIwMCcsICctbWV0YWxfYmluZGluZycsICctaW1hZScsICc8aW5maWxlLm1hZT4nLCAnLW9tYWUnLCAnPG91dGZpbGUubWFlPic=

> <r_lp_tautomer_probability>
0.999537

> <r_epik_Ionization_Penalty>
3.12624

> <r_epik_Ionization_Penalty_Charging>
3.01273e-08

> <r_epik_Ionization_Penalty_Neutral>
3.12624

> <r_epik_State_Penalty>
3.12534

> <r_epik_Charging_Adjusted_Penalty>
3.12534

> <i_epik_Tot_Q>
-1

> <i_epik_Tot_abs_Q>
1

> <r_epik_Metal_State_Penalty>
0.46406

> <b_epik_Metal_Only>
1

> <s_lp_Force_Field>
OPLS_2005

> <r_lp_Energy>
65.8638

> <b_lp_Chiralities_Consistent>
1

> <s_lp_Variant>
AV-unprocessed.smi:623-8

> <Gold.Version>
5.8.1

> <Gold.Id.Protein>
6NUR|6NUR_protein|mol2

> <Gold.PLP.Fitness>
45.0450

> <Gold.PLP.PLP>
-39.9319

> <Gold.PLP.part.hbond>
-1.0000

> <Gold.PLP.part.metal>
0.0000

> <Gold.PLP.part.buried>
-0.7769

> <Gold.PLP.part.nonpolar>
-36.8534

> <Gold.PLP.part.repulsive>
0.2557

> <Gold.PLP.ligand.clash>
0.0000

> <Gold.PLP.ligand.torsion>
0.4496

> <Gold.PLP.Chemscore.Hbond>
1.0000

> <Gold.PLP.Chemscore.CHOScore>
1.0000

> <Gold.PLP.Chemscore.Metal>
0.0000

> <Gold.Chemscore.Hbonds>
donor molecule, donor type, donor heavy atom, donor atom, acceptor molecule, acceptor atom, score
      L1  H    10    38       P1 10747  1.00
      L1  C    15    41       P1 10747  1.00

> <Gold.PLP.Chemscore.Internal.Correction>
0.0122

> <Gold.Rescore>
     Score         DG    S(hbond)    S(metal)    S(lipo)     H(rot)  DE(clash)    DE(int)     intcor
     15.58     -16.22       1.00        0.00      98.99       1.63       0.12       0.52       ----

> <Gold.Chemscore.Fitness>
15.5757

> <Gold.Chemscore.DG>
-16.2229

> <Gold.Chemscore.ZeroCoef>
-5.4800

> <Gold.Chemscore.Hbond>
1.0000

> <Gold.Chemscore.Metal>
0.0000

> <Gold.Chemscore.Lipo>
98.9854

> <Gold.Chemscore.Internal_Hbond>
0.0000

> <Gold.Chemscore.DEClash>
0.1244

> <Gold.Chemscore.DEInternal>
0.5229

> <Gold.Chemscore.Rot>
1.6322

> <Gold.Chemscore.Internal.Correction>
   9.000000E+99

> <Gold.Chemscore.Hbonds>
donor molecule, donor type, donor heavy atom, donor atom, acceptor molecule, acceptor atom, score
      L1  H    10    38       P1 10747  1.00

> <Gold.Chemscore.Hbond.Weighted>
-3.3399

> <Gold.Chemscore.Metal.Weighted>
-0.0000

> <Gold.Chemscore.Lipo.Weighted>
-11.5813

> <Gold.Chemscore.Internal_Hbond.Weighted>
0.0000

> <Gold.Chemscore.DEClash.Weighted>
0.1244

> <Gold.Chemscore.DEInternal.Weighted>
0.5229

> <Gold.Chemscore.Rot.Weighted>
4.1783

> <Gold.Chemscore.Internal.Correction.Weighted>
   9.000000E+99

> <Gold.Protein.RotatedTorsions>
[ 6907 6896 6895 6894 ] final  -58.50 input  -60.11 | X-H torsion
[ 7974 7965 7964 7962 ] final   -9.35 input  175.53 | X-H torsion
[ 8008 7997 7996 7995 ] final  131.32 input   59.86 | X-H torsion
[ 10167 10162 10161 10158 ] final  -10.71 input  -65.29 | X-H torsion
[ 10718 10713 10712 10709 ] final  -35.21 input   66.30 | X-H torsion
[ 10763 10752 10751 10750 ] final -137.59 input  -60.55 | X-H torsion
[ 11005 11000 10999 10996 ] final   86.68 input  -57.11 | X-H torsion

> <Gold.Protein.ActiveResidues>
 VAL166  LYS551  ARG553  GLY616  TRP617  ASP618  TYR619  PRO620  LYS621  CYS622 
 ASP623  PHE694  ASN695  SER759  ASP760  ASP761  ALA762  ILE779  LEU786  VAL792 
 PHE793  MET794  SER795  GLU796  ALA797  LYS798  CYS799  TRP800  GLU811  SER814 

> <Gold.Protein.RotatedAtoms>
  150.8002  134.7091  159.6593 H   0  0  0  0  0  0  0  0  0  0  0  0  # atno 6907 bound_to 6896
  152.4119  134.6107  160.0034 H   0  0  0  0  0  0  0  0  0  0  0  0  # atno 6908 bound_to 6896
  151.6347  133.3292  159.3153 H   0  0  0  0  0  0  0  0  0  0  0  0  # atno 6909 bound_to 6896
  146.2254  140.2604  142.8351 H   0  0  0  0  0  0  0  0  0  0  0  0  # atno 7974 bound_to 7965
  156.2968  140.2574  156.2905 H   0  0  0  0  0  0  0  0  0  0  0  0  # atno 8008 bound_to 7997
  154.9514  140.0394  157.2164 H   0  0  0  0  0  0  0  0  0  0  0  0  # atno 8009 bound_to 7997
  154.8033  140.2832  155.5910 H   0  0  0  0  0  0  0  0  0  0  0  0  # atno 8010 bound_to 7997
  140.7120  143.5718  150.9084 H   0  0  0  0  0  0  0  0  0  0  0  0  # atno 10167 bound_to 10162
  156.3413  130.4294  149.7785 H   0  0  0  0  0  0  0  0  0  0  0  0  # atno 10718 bound_to 10713
  154.8658  135.3637  154.5248 H   0  0  0  0  0  0  0  0  0  0  0  0  # atno 10763 bound_to 10752
  153.5877  135.7016  153.5441 H   0  0  0  0  0  0  0  0  0  0  0  0  # atno 10764 bound_to 10752
  153.3401  135.4100  155.1527 H   0  0  0  0  0  0  0  0  0  0  0  0  # atno 10765 bound_to 10752
  139.8938  134.8372  156.2755 H   0  0  0  0  0  0  0  0  0  0  0  0  # atno 11005 bound_to 11000
  144.9344  140.8010  143.5669 LP  0  0  0  0  0  0  0  0  0  0  0  0  # atno 17320 bound_to 7965
  145.2550  139.2016  143.4922 LP  0  0  0  0  0  0  0  0  0  0  0  0  # atno 17321 bound_to 7965
  139.9444  143.6344  152.3045 LP  0  0  0  0  0  0  0  0  0  0  0  0  # atno 17342 bound_to 10162
  139.6840  144.7653  151.1556 LP  0  0  0  0  0  0  0  0  0  0  0  0  # atno 17343 bound_to 10162
  156.5020  130.8133  151.3136 LP  0  0  0  0  0  0  0  0  0  0  0  0  # atno 17370 bound_to 10713
  157.7447  130.9941  150.2698 LP  0  0  0  0  0  0  0  0  0  0  0  0  # atno 17371 bound_to 10713
  141.0073  133.7116  156.1055 LP  0  0  0  0  0  0  0  0  0  0  0  0  # atno 17394 bound_to 11000
  140.7416  134.4144  157.5554 LP  0  0  0  0  0  0  0  0  0  0  0  0  # atno 17395 bound_to 11000

$$$$
