AV-unprocessed.smi:1897|AV-procd|sdf|7698|dock7
  -GOLD-   22720 9433D 1   1.00000     0.00000
 Structure written by MMmdl.
 38 40  0  0  0  0  0  0  0  0  3 V2000
  152.8811  138.9562  159.4408 C   0  0  0  0  0  0  0  0  0  0  0  0
  152.5610  139.2391  158.0131 C   0  0  0  0  0  0  0  0  0  0  0  0
  153.4043  138.9628  157.0155 N   0  0  0  0  0  0  0  0  0  0  0  0
  152.8850  139.3163  155.7792 N   0  0  0  0  0  0  0  0  0  0  0  0
  151.6530  139.8401  155.8567 C   0  0  0  0  0  0  0  0  0  0  0  0
  150.9661  140.2354  154.7685 N   0  5  0  0  0  0  0  0  0  0  0  0
  149.6876  140.6884  154.8371 C   0  0  0  0  0  0  0  0  0  0  0  0
  149.2043  141.2027  155.8448 O   0  0  0  0  0  0  0  0  0  0  0  0
  148.9220  140.5744  153.7347 N   0  0  0  0  0  0  0  0  0  0  0  0
  147.5590  141.0729  153.5863 C   0  0  2  0  0  0  0  0  0  0  0  0
  147.3660  142.4744  154.1499 C   0  0  0  0  0  0  0  0  0  0  0  0
  145.8477  142.5643  154.3301 C   0  0  0  0  0  0  0  0  0  0  0  0
  145.3574  141.1797  154.5392 N   0  3  2  0  0  0  0  0  0  0  0  0
  144.5942  140.9940  155.8021 C   0  0  0  0  0  0  0  0  0  0  0  0
  144.4546  139.5039  156.1457 C   0  0  0  0  0  0  0  0  0  0  0  0
  145.8285  138.8474  156.3769 C   0  0  0  0  0  0  0  0  0  0  0  0
  146.9694  139.6036  155.6696 C   0  0  0  0  0  0  0  0  0  0  0  0
  146.5006  140.2442  154.3389 C   0  0  2  0  0  0  0  0  0  0  0  0
  151.0407  139.9558  157.5056 S   0  0  0  0  0  0  0  0  0  0  0  0
  152.6909  137.9064  159.6638 H   0  0  0  0  0  0  0  0  0  0  0  0
  152.2643  139.5718  160.0959 H   0  0  0  0  0  0  0  0  0  0  0  0
  153.9298  139.1745  159.6442 H   0  0  0  0  0  0  0  0  0  0  0  0
  149.3415  140.1450  152.9229 H   0  0  0  0  0  0  0  0  0  0  0  0
  147.2989  141.1031  152.5261 H   0  0  0  0  0  0  0  0  0  0  0  0
  147.8597  142.5644  155.1190 H   0  0  0  0  0  0  0  0  0  0  0  0
  147.7606  143.2542  153.4979 H   0  0  0  0  0  0  0  0  0  0  0  0
  145.5786  143.2436  155.1401 H   0  0  0  0  0  0  0  0  0  0  0  0
  145.3866  142.9475  153.4193 H   0  0  0  0  0  0  0  0  0  0  0  0
  145.0971  141.5056  156.6247 H   0  0  0  0  0  0  0  0  0  0  0  0
  143.6129  141.4570  155.6950 H   0  0  0  0  0  0  0  0  0  0  0  0
  143.8256  139.3710  157.0263 H   0  0  0  0  0  0  0  0  0  0  0  0
  143.9421  138.9983  155.3261 H   0  0  0  0  0  0  0  0  0  0  0  0
  146.0465  138.7985  157.4444 H   0  0  0  0  0  0  0  0  0  0  0  0
  145.7916  137.8147  156.0284 H   0  0  0  0  0  0  0  0  0  0  0  0
  147.3498  140.3837  156.3306 H   0  0  0  0  0  0  0  0  0  0  0  0
  147.8000  138.9163  155.5064 H   0  0  0  0  0  0  0  0  0  0  0  0
  146.1631  139.4358  153.6887 H   0  0  0  0  0  0  0  0  0  0  0  0
  144.7153  140.9901  153.7831 H   0  0  0  0  0  0  0  0  0  0  0  0
  1  2  1  0  0  0  0
  1 20  1  0  0  0  0
  1 21  1  0  0  0  0
  1 22  1  0  0  0  0
  2 19  1  0  0  0  0
  2  3  2  0  0  0  0
  3  4  1  0  0  0  0
  4  5  2  0  0  0  0
  5  6  1  0  0  0  0
  5 19  1  0  0  0  0
  6  7  1  0  0  0  0
  7  8  2  0  0  0  0
  7  9  1  0  0  0  0
  9 10  1  0  0  0  0
  9 23  1  0  0  0  0
 10 18  1  0  0  0  0
 10 11  1  0  0  0  0
 10 24  1  0  0  0  0
 11 12  1  0  0  0  0
 11 25  1  0  0  0  0
 11 26  1  0  0  0  0
 12 13  1  0  0  0  0
 12 27  1  0  0  0  0
 12 28  1  0  0  0  0
 13 18  1  0  0  0  0
 13 14  1  0  0  0  0
 13 38  1  0  0  0  0
 14 15  1  0  0  0  0
 14 29  1  0  0  0  0
 14 30  1  0  0  0  0
 15 16  1  0  0  0  0
 15 31  1  0  0  0  0
 15 32  1  0  0  0  0
 16 17  1  0  0  0  0
 16 33  1  0  0  0  0
 16 34  1  0  0  0  0
 17 18  1  0  0  0  0
 17 35  1  0  0  0  0
 17 36  1  0  0  0  0
 18 37  1  0  0  0  0
M  CHG  1   6  -1
M  CHG  1  13   1
M  END
> <s_m_source_file>
AV-unprocessed.smi

> <i_m_source_file_index>
1897

> <i_lp_mmshare_version>
43012

> <i_f3d_flags>
0

> <s_epik_input>
W0NIM11jMW5uYyhzMSlbTkhdQyg9TylbTkhdW0NASF0oW0NIMl1bQ0gyXTIpW0NAQEhdKE4yMylbQ0gyXVtDSDJdW0NIMl1bQ0gyXTM=

> <s_epik_cmdline>
J2VwaWtfcHl0aG9uJywgJy1waCcsICc3LjAnLCAnLXRuJywgJzgnLCAnLW1hJywgJzIwMCcsICctbWV0YWxfYmluZGluZycsICctaW1hZScsICc8aW5maWxlLm1hZT4nLCAnLW9tYWUnLCAnPG91dGZpbGUubWFlPic=

> <r_lp_tautomer_probability>
1

> <r_epik_Ionization_Penalty>
3.77712

> <r_epik_Ionization_Penalty_Charging>
3.67739

> <r_epik_Ionization_Penalty_Neutral>
0.0997294

> <r_epik_State_Penalty>
3.67514

> <r_epik_Charging_Adjusted_Penalty>
7.35254

> <i_epik_Tot_Q>
0

> <i_epik_Tot_abs_Q>
2

> <r_epik_Metal_State_Penalty>
0.540795

> <b_epik_Metal_Only>
1

> <s_lp_Force_Field>
OPLS_2005

> <r_lp_Energy>
34.1596

> <b_lp_Chiralities_Consistent>
1

> <s_lp_Variant>
AV-unprocessed.smi:1897-15

> <Gold.Version>
5.8.1

> <Gold.Id.Protein>
6NUR|6NUR_protein|mol2

> <Gold.PLP.Fitness>
39.4632

> <Gold.PLP.PLP>
-28.1977

> <Gold.PLP.part.hbond>
-4.9059

> <Gold.PLP.part.metal>
0.0000

> <Gold.PLP.part.buried>
-3.8979

> <Gold.PLP.part.nonpolar>
-19.2564

> <Gold.PLP.part.repulsive>
0.3264

> <Gold.PLP.ligand.clash>
0.0000

> <Gold.PLP.ligand.torsion>
0.3332

> <Gold.PLP.Chemscore.Hbond>
3.9760

> <Gold.PLP.Chemscore.CHOScore>
0.0000

> <Gold.PLP.Chemscore.Metal>
0.0000

> <Gold.Chemscore.Hbonds>
donor molecule, donor type, donor heavy atom, donor atom, acceptor molecule, acceptor atom, score
      L1  H     9    23       P1  7957  1.00
      L1  H    13    38       P1 10175  2.00
      P1  H  7989  7998       L1     6  1.00

> <Gold.PLP.Chemscore.Internal.Correction>
0.0039

> <Gold.Rescore>
     Score         DG    S(hbond)    S(metal)    S(lipo)     H(rot)  DE(clash)    DE(int)     intcor
     11.81     -17.17       2.86        0.00      40.11       1.00       0.01       5.36       ----

> <Gold.Chemscore.Fitness>
11.8074

> <Gold.Chemscore.DG>
-17.1713

> <Gold.Chemscore.ZeroCoef>
-5.4800

> <Gold.Chemscore.Hbond>
2.8620

> <Gold.Chemscore.Metal>
0.0000

> <Gold.Chemscore.Lipo>
40.1054

> <Gold.Chemscore.Internal_Hbond>
0.0000

> <Gold.Chemscore.DEClash>
0.0060

> <Gold.Chemscore.DEInternal>
5.3579

> <Gold.Chemscore.Rot>
1.0000

> <Gold.Chemscore.Internal.Correction>
   9.000000E+99

> <Gold.Chemscore.Hbonds>
donor molecule, donor type, donor heavy atom, donor atom, acceptor molecule, acceptor atom, score
      L1  H     9    23       P1  7957  0.96
      L1  H    13    38       P1 10175  0.78
      P1  H  7989  7998       L1     6  0.63

> <Gold.Chemscore.Hbond.Weighted>
-9.5590

> <Gold.Chemscore.Metal.Weighted>
-0.0000

> <Gold.Chemscore.Lipo.Weighted>
-4.6923

> <Gold.Chemscore.Internal_Hbond.Weighted>
0.0000

> <Gold.Chemscore.DEClash.Weighted>
0.0060

> <Gold.Chemscore.DEInternal.Weighted>
5.3579

> <Gold.Chemscore.Rot.Weighted>
2.5600

> <Gold.Chemscore.Internal.Correction.Weighted>
   9.000000E+99

> <Gold.Protein.RotatedTorsions>
[ 6907 6896 6895 6894 ] final  177.66 input  -60.11 | X-H torsion
[ 7974 7965 7964 7962 ] final   61.70 input  175.53 | X-H torsion
[ 8008 7997 7996 7995 ] final -162.94 input   59.86 | X-H torsion
[ 10167 10162 10161 10158 ] final  141.85 input  -65.29 | X-H torsion
[ 10718 10713 10712 10709 ] final   98.95 input   66.30 | X-H torsion
[ 10763 10752 10751 10750 ] final  -34.88 input  -60.55 | X-H torsion
[ 11005 11000 10999 10996 ] final  105.75 input  -57.11 | X-H torsion

> <Gold.Protein.ActiveResidues>
 VAL166  LYS551  ARG553  GLY616  TRP617  ASP618  TYR619  PRO620  LYS621  CYS622 
 ASP623  PHE694  ASN695  SER759  ASP760  ASP761  ALA762  ILE779  LEU786  VAL792 
 PHE793  MET794  SER795  GLU796  ALA797  LYS798  CYS799  TRP800  GLU811  SER814 

> <Gold.Protein.RotatedAtoms>
  151.7003  133.3311  159.3264 H   0  0  0  0  0  0  0  0  0  0  0  0  # atno 6907 bound_to 6896
  150.7739  134.6621  159.6355 H   0  0  0  0  0  0  0  0  0  0  0  0  # atno 6908 bound_to 6896
  152.3773  134.6646  160.0207 H   0  0  0  0  0  0  0  0  0  0  0  0  # atno 6909 bound_to 6896
  145.8818  139.3449  143.0701 H   0  0  0  0  0  0  0  0  0  0  0  0  # atno 7974 bound_to 7965
  155.8141  140.0910  157.1887 H   0  0  0  0  0  0  0  0  0  0  0  0  # atno 8008 bound_to 7997
  154.3979  140.1449  156.3482 H   0  0  0  0  0  0  0  0  0  0  0  0  # atno 8009 bound_to 7997
  155.8334  140.3442  155.5589 H   0  0  0  0  0  0  0  0  0  0  0  0  # atno 8010 bound_to 7997
  139.5009  144.6145  151.6195 H   0  0  0  0  0  0  0  0  0  0  0  0  # atno 10167 bound_to 10162
  157.6886  131.0655  150.4874 H   0  0  0  0  0  0  0  0  0  0  0  0  # atno 10718 bound_to 10713
  153.8540  135.6846  153.4789 H   0  0  0  0  0  0  0  0  0  0  0  0  # atno 10763 bound_to 10752
  153.1380  135.4669  154.9451 H   0  0  0  0  0  0  0  0  0  0  0  0  # atno 10764 bound_to 10752
  154.7789  135.3262  154.7981 H   0  0  0  0  0  0  0  0  0  0  0  0  # atno 10765 bound_to 10752
  139.8805  134.9346  156.5562 H   0  0  0  0  0  0  0  0  0  0  0  0  # atno 11005 bound_to 11000
  145.9014  140.9240  143.0501 LP  0  0  0  0  0  0  0  0  0  0  0  0  # atno 17320 bound_to 7965
  144.6727  140.1038  143.7459 LP  0  0  0  0  0  0  0  0  0  0  0  0  # atno 17321 bound_to 7965
  140.5829  143.9914  150.6279 LP  0  0  0  0  0  0  0  0  0  0  0  0  # atno 17342 bound_to 10162
  140.3069  143.3223  152.0917 LP  0  0  0  0  0  0  0  0  0  0  0  0  # atno 17343 bound_to 10162
  156.5203  130.4160  149.6254 LP  0  0  0  0  0  0  0  0  0  0  0  0  # atno 17370 bound_to 10713
  156.3161  130.7255  151.2158 LP  0  0  0  0  0  0  0  0  0  0  0  0  # atno 17371 bound_to 10713
  140.8204  133.8358  155.8890 LP  0  0  0  0  0  0  0  0  0  0  0  0  # atno 17394 bound_to 11000
  140.9424  134.1884  157.4788 LP  0  0  0  0  0  0  0  0  0  0  0  0  # atno 17395 bound_to 11000

$$$$
