AV-unprocessed.smi:34|AV-procd|sdf|221|dock2
  -GOLD-   2262015533D 1   1.00000     0.00000
 Structure written by MMmdl.
 55 59  0  0  0  0  0  0  0  0  1 V2000
  153.1001  139.9110  158.0503 O   0  0  0  0  0  0  0  0  0  0  0  0
  152.2745  140.7972  157.8285 C   0  0  0  0  0  0  0  0  0  0  0  0
  151.3246  140.7118  156.7329 N   0  0  0  0  0  0  0  0  0  0  0  0
  151.1192  139.6782  155.8829 C   0  0  0  0  0  0  0  0  0  0  0  0
  150.8833  139.8602  154.5568 N   0  0  0  0  0  0  0  0  0  0  0  0
  150.6941  138.8074  153.7561 C   0  0  0  0  0  0  0  0  0  0  0  0
  150.7008  137.5105  154.0693 N   0  0  0  0  0  0  0  0  0  0  0  0
  150.9365  137.3187  155.3992 C   0  0  0  0  0  0  0  0  0  0  0  0
  151.1532  138.3428  156.3628 C   0  0  0  0  0  0  0  0  0  0  0  0
  151.3617  137.7750  157.6131 N   0  0  0  0  0  0  0  0  0  0  0  0
  151.2745  136.4899  157.3956 C   0  0  0  0  0  0  0  0  0  0  0  0
  151.0181  136.1281  156.0918 N   0  0  0  0  0  0  0  0  0  0  0  0
  150.8738  134.7491  155.5376 C   0  0  2  0  0  0  0  0  0  0  0  0
  149.6092  134.6504  154.9637 O   0  0  0  0  0  0  0  0  0  0  0  0
  149.1495  133.3184  155.1253 C   0  0  2  0  0  0  0  0  0  0  0  0
  147.6294  133.2374  154.9408 C   0  0  0  0  0  0  0  0  0  0  0  0
  147.3313  133.1745  153.5559 O   0  0  0  0  0  0  0  0  0  0  0  0
  146.4909  134.0724  153.0057 C   0  0  0  0  0  0  0  0  0  0  0  0
  146.3572  135.2255  153.4208 O   0  0  0  0  0  0  0  0  0  0  0  0
  145.7373  133.5241  151.8411 C   0  0  0  0  0  0  0  0  0  0  0  0
  145.8069  132.1394  151.5601 C   0  0  0  0  0  0  0  0  0  0  0  0
  145.1048  131.5929  150.4682 C   0  0  0  0  0  0  0  0  0  0  0  0
  144.3235  132.4242  149.6447 C   0  0  0  0  0  0  0  0  0  0  0  0
  144.2454  133.8029  149.9139 C   0  0  0  0  0  0  0  0  0  0  0  0
  144.9473  134.3514  151.0049 C   0  0  0  0  0  0  0  0  0  0  0  0
  149.6372  132.9510  156.5286 C   0  0  2  0  0  0  0  0  0  0  0  0
  148.7948  133.4008  157.4600 F   0  0  0  0  0  0  0  0  0  0  0  0
  150.9673  133.6871  156.6486 C   0  0  1  0  0  0  0  0  0  0  0  0
  152.0326  132.7849  156.4273 O   0  0  0  0  0  0  0  0  0  0  0  0
  152.2515  142.0706  158.6237 C   0  0  0  0  0  0  0  0  0  0  0  0
  151.6796  143.2387  158.0709 C   0  0  0  0  0  0  0  0  0  0  0  0
  151.6687  144.4425  158.8024 C   0  0  0  0  0  0  0  0  0  0  0  0
  152.2356  144.4904  160.0901 C   0  0  0  0  0  0  0  0  0  0  0  0
  152.8186  143.3349  160.6435 C   0  0  0  0  0  0  0  0  0  0  0  0
  152.8306  142.1306  159.9129 C   0  0  0  0  0  0  0  0  0  0  0  0
  150.7258  141.5143  156.6047 H   0  0  0  0  0  0  0  0  0  0  0  0
  150.5118  139.0368  152.7167 H   0  0  0  0  0  0  0  0  0  0  0  0
  151.3961  135.7646  158.1873 H   0  0  0  0  0  0  0  0  0  0  0  0
  151.6514  134.6605  154.7771 H   0  0  0  0  0  0  0  0  0  0  0  0
  149.6541  132.6821  154.3958 H   0  0  0  0  0  0  0  0  0  0  0  0
  147.2439  132.3404  155.4273 H   0  0  0  0  0  0  0  0  0  0  0  0
  147.1414  134.0987  155.3995 H   0  0  0  0  0  0  0  0  0  0  0  0
  146.4003  131.4813  152.1783 H   0  0  0  0  0  0  0  0  0  0  0  0
  145.1662  130.5341  150.2629 H   0  0  0  0  0  0  0  0  0  0  0  0
  143.7849  132.0050  148.8075 H   0  0  0  0  0  0  0  0  0  0  0  0
  143.6455  134.4420  149.2829 H   0  0  0  0  0  0  0  0  0  0  0  0
  144.8641  135.4135  151.1843 H   0  0  0  0  0  0  0  0  0  0  0  0
  149.7151  131.8732  156.6772 H   0  0  0  0  0  0  0  0  0  0  0  0
  151.0877  134.1491  157.6298 H   0  0  0  0  0  0  0  0  0  0  0  0
  152.4689  132.6292  157.2510 H   0  0  0  0  0  0  0  0  0  0  0  0
  151.2415  143.2193  157.0832 H   0  0  0  0  0  0  0  0  0  0  0  0
  151.2261  145.3297  158.3743 H   0  0  0  0  0  0  0  0  0  0  0  0
  152.2270  145.4133  160.6509 H   0  0  0  0  0  0  0  0  0  0  0  0
  153.2598  143.3729  161.6288 H   0  0  0  0  0  0  0  0  0  0  0  0
  153.2926  141.2588  160.3533 H   0  0  0  0  0  0  0  0  0  0  0  0
  1  2  2  0  0  0  0
  2  3  1  0  0  0  0
  2 30  1  0  0  0  0
  3  4  1  0  0  0  0
  3 36  1  0  0  0  0
  4  9  1  0  0  0  0
  4  5  2  0  0  0  0
  5  6  1  0  0  0  0
  6  7  2  0  0  0  0
  6 37  1  0  0  0  0
  7  8  1  0  0  0  0
  8 12  1  0  0  0  0
  8  9  2  0  0  0  0
  9 10  1  0  0  0  0
 10 11  2  0  0  0  0
 11 12  1  0  0  0  0
 11 38  1  0  0  0  0
 12 13  1  0  0  0  0
 13 28  1  0  0  0  0
 13 14  1  0  0  0  0
 13 39  1  0  0  0  0
 14 15  1  0  0  0  0
 15 16  1  0  0  0  0
 15 26  1  0  0  0  0
 15 40  1  0  0  0  0
 16 17  1  0  0  0  0
 16 41  1  0  0  0  0
 16 42  1  0  0  0  0
 17 18  1  0  0  0  0
 18 19  2  0  0  0  0
 18 20  1  0  0  0  0
 20 25  1  0  0  0  0
 20 21  2  0  0  0  0
 21 22  1  0  0  0  0
 21 43  1  0  0  0  0
 22 23  2  0  0  0  0
 22 44  1  0  0  0  0
 23 24  1  0  0  0  0
 23 45  1  0  0  0  0
 24 25  2  0  0  0  0
 24 46  1  0  0  0  0
 25 47  1  0  0  0  0
 26 27  1  0  0  0  0
 26 28  1  0  0  0  0
 26 48  1  0  0  0  0
 28 29  1  0  0  0  0
 28 49  1  0  0  0  0
 29 50  1  0  0  0  0
 30 35  1  0  0  0  0
 30 31  2  0  0  0  0
 31 32  1  0  0  0  0
 31 51  1  0  0  0  0
 32 33  2  0  0  0  0
 32 52  1  0  0  0  0
 33 34  1  0  0  0  0
 33 53  1  0  0  0  0
 34 35  2  0  0  0  0
 34 54  1  0  0  0  0
 35 55  1  0  0  0  0
M  END
> <s_m_source_file>
AV-unprocessed.smi

> <i_m_source_file_index>
34

> <i_lp_mmshare_version>
43012

> <i_f3d_flags>
0

> <s_epik_input>
W2NIXTFbY0hdW2NIXVtjSF1bY0hdYzFDKD1PKVtOSF1jKG5bY0hdbjIpYyhjMjMpbltjSF1uM1tDQEBIXTRPW0NASF0oW0NAQEhdKEYpW0NASF00W09IXSlbQ0gyXU9DKD1PKWM1W2NIXVtjSF1bY0hdW2NIXVtjSF01

> <s_epik_cmdline>
J2VwaWtfcHl0aG9uJywgJy1waCcsICc3LjAnLCAnLXRuJywgJzgnLCAnLW1hJywgJzIwMCcsICctbWV0YWxfYmluZGluZycsICctaW1hZScsICc8aW5maWxlLm1hZT4nLCAnLW9tYWUnLCAnPG91dGZpbGUubWFlPic=

> <r_lp_tautomer_probability>
1

> <r_epik_Ionization_Penalty>
0.00257489

> <r_epik_Ionization_Penalty_Charging>
0

> <r_epik_Ionization_Penalty_Neutral>
0.00257489

> <r_epik_State_Penalty>
0.00519398

> <r_epik_Charging_Adjusted_Penalty>
0.00519398

> <i_epik_Tot_Q>
0

> <i_epik_Tot_abs_Q>
0

> <r_epik_Metal_State_Penalty>
0.335891

> <b_epik_Metal_Only>
0

> <s_epik_Chemistry_Notes>
This compound has an ester and may undergo hydrolysis at high or low pH. This compound contains an acetal/aminal-like group ( X-CH(R)-Y where X, Y are N, S, or O) that may be acid/base labile, releasing an aldehyde.

> <s_lp_Force_Field>
OPLS_2005

> <r_lp_Energy>
45.7986

> <b_lp_Chiralities_Consistent>
1

> <s_lp_Variant>
AV-unprocessed.smi:34-7

> <Gold.Version>
5.8.1

> <Gold.Id.Protein>
6NUR|6NUR_protein|mol2

> <Gold.PLP.Fitness>
59.1964

> <Gold.PLP.PLP>
-52.5082

> <Gold.PLP.part.hbond>
-2.0000

> <Gold.PLP.part.metal>
0.0000

> <Gold.PLP.part.buried>
-7.3201

> <Gold.PLP.part.nonpolar>
-45.0937

> <Gold.PLP.part.repulsive>
1.7660

> <Gold.PLP.ligand.clash>
0.0000

> <Gold.PLP.ligand.torsion>
1.4863

> <Gold.PLP.Chemscore.Hbond>
2.0000

> <Gold.PLP.Chemscore.CHOScore>
1.0000

> <Gold.PLP.Chemscore.Metal>
0.0000

> <Gold.Chemscore.Hbonds>
donor molecule, donor type, donor heavy atom, donor atom, acceptor molecule, acceptor atom, score
      P1  H  7989  7998       L1     5  0.95
      P1  H  7997  8010       L1     1  1.00
      L1  C     6    37       P1  7957  1.00

> <Gold.PLP.Chemscore.Internal.Correction>
0.6607

> <Gold.Rescore>
     Score         DG    S(hbond)    S(metal)    S(lipo)     H(rot)  DE(clash)    DE(int)     intcor
     14.89     -17.70       1.03        0.00     134.64       2.72       0.14       2.67       ----

> <Gold.Chemscore.Fitness>
14.8949

> <Gold.Chemscore.DG>
-17.7010

> <Gold.Chemscore.ZeroCoef>
-5.4800

> <Gold.Chemscore.Hbond>
1.0283

> <Gold.Chemscore.Metal>
0.0000

> <Gold.Chemscore.Lipo>
134.6443

> <Gold.Chemscore.Internal_Hbond>
0.0000

> <Gold.Chemscore.DEClash>
0.1367

> <Gold.Chemscore.DEInternal>
2.6694

> <Gold.Chemscore.Rot>
2.7215

> <Gold.Chemscore.Internal.Correction>
   9.000000E+99

> <Gold.Chemscore.Hbonds>
donor molecule, donor type, donor heavy atom, donor atom, acceptor molecule, acceptor atom, score
      P1  H  7989  7998       L1     5  0.21
      P1  H  7997  8010       L1     1  0.78

> <Gold.Chemscore.Hbond.Weighted>
-3.4346

> <Gold.Chemscore.Metal.Weighted>
-0.0000

> <Gold.Chemscore.Lipo.Weighted>
-15.7534

> <Gold.Chemscore.Internal_Hbond.Weighted>
0.0000

> <Gold.Chemscore.DEClash.Weighted>
0.1367

> <Gold.Chemscore.DEInternal.Weighted>
2.6694

> <Gold.Chemscore.Rot.Weighted>
6.9670

> <Gold.Chemscore.Internal.Correction.Weighted>
   9.000000E+99

> <Gold.Protein.RotatedTorsions>
[ 6907 6896 6895 6894 ] final  127.52 input  -60.11 | X-H torsion
[ 7974 7965 7964 7962 ] final   42.40 input  175.53 | X-H torsion
[ 8008 7997 7996 7995 ] final   41.78 input   59.86 | X-H torsion
[ 10167 10162 10161 10158 ] final  -87.13 input  -65.29 | X-H torsion
[ 10718 10713 10712 10709 ] final  171.70 input   66.30 | X-H torsion
[ 10763 10752 10751 10750 ] final   80.14 input  -60.55 | X-H torsion
[ 11005 11000 10999 10996 ] final   51.16 input  -57.11 | X-H torsion

> <Gold.Protein.ActiveResidues>
 VAL166  LYS551  ARG553  GLY616  TRP617  ASP618  TYR619  PRO620  LYS621  CYS622 
 ASP623  PHE694  ASN695  SER759  ASP760  ASP761  ALA762  ILE779  LEU786  VAL792 
 PHE793  MET794  SER795  GLU796  ALA797  LYS798  CYS799  TRP800  GLU811  SER814 

> <Gold.Protein.RotatedAtoms>
  152.3805  133.6540  159.6157 H   0  0  0  0  0  0  0  0  0  0  0  0  # atno 6907 bound_to 6896
  150.7737  133.9121  159.3381 H   0  0  0  0  0  0  0  0  0  0  0  0  # atno 6908 bound_to 6896
  151.6928  135.0945  160.0288 H   0  0  0  0  0  0  0  0  0  0  0  0  # atno 6909 bound_to 6896
  146.0743  139.5305  142.9577 H   0  0  0  0  0  0  0  0  0  0  0  0  # atno 7974 bound_to 7965
  155.2754  140.3369  155.4262 H   0  0  0  0  0  0  0  0  0  0  0  0  # atno 8008 bound_to 7997
  156.2114  140.1771  156.7728 H   0  0  0  0  0  0  0  0  0  0  0  0  # atno 8009 bound_to 7997
  154.5692  140.0673  156.8922 H   0  0  0  0  0  0  0  0  0  0  0  0  # atno 8010 bound_to 7997
  140.3874  143.2720  151.9307 H   0  0  0  0  0  0  0  0  0  0  0  0  # atno 10167 bound_to 10162
  156.9897  131.0144  151.2860 H   0  0  0  0  0  0  0  0  0  0  0  0  # atno 10718 bound_to 10713
  153.1009  135.4814  154.8864 H   0  0  0  0  0  0  0  0  0  0  0  0  # atno 10763 bound_to 10752
  154.7377  135.3075  154.8785 H   0  0  0  0  0  0  0  0  0  0  0  0  # atno 10764 bound_to 10752
  153.9402  135.6835  153.4798 H   0  0  0  0  0  0  0  0  0  0  0  0  # atno 10765 bound_to 10752
  140.0956  134.5150  155.8810 H   0  0  0  0  0  0  0  0  0  0  0  0  # atno 11005 bound_to 11000
  145.6334  141.0299  143.1851 LP  0  0  0  0  0  0  0  0  0  0  0  0  # atno 17320 bound_to 7965
  144.7252  139.7900  143.7367 LP  0  0  0  0  0  0  0  0  0  0  0  0  # atno 17321 bound_to 7965
  139.4791  144.5760  151.8010 LP  0  0  0  0  0  0  0  0  0  0  0  0  # atno 17342 bound_to 10162
  140.4875  144.1359  150.5944 LP  0  0  0  0  0  0  0  0  0  0  0  0  # atno 17343 bound_to 10162
  157.5468  130.8155  149.8095 LP  0  0  0  0  0  0  0  0  0  0  0  0  # atno 17370 bound_to 10713
  156.0212  130.3795  150.1957 LP  0  0  0  0  0  0  0  0  0  0  0  0  # atno 17371 bound_to 10713
  141.2091  133.6680  156.6416 LP  0  0  0  0  0  0  0  0  0  0  0  0  # atno 17394 bound_to 11000
  140.3290  134.7944  157.4312 LP  0  0  0  0  0  0  0  0  0  0  0  0  # atno 17395 bound_to 11000

$$$$
