AV-unprocessed.smi:102|AV-procd|sdf|969|dock5
  -GOLD-   2262017513D 1   1.00000     0.00000
 Structure written by MMmdl.
 43 44  0  0  0  0  0  0  0  0  2 V2000
  149.9524  131.9499  155.2646 C   0  0  0  0  0  0  0  0  0  0  0  0
  149.7933  132.6095  156.6280 C   0  0  0  0  0  0  0  0  0  0  0  0
  150.7701  132.9201  157.3103 O   0  0  0  0  0  0  0  0  0  0  0  0
  148.5071  132.7889  156.9632 O   0  0  0  0  0  0  0  0  0  0  0  0
  148.1845  133.5425  158.1201 C   0  0  0  0  0  0  0  0  0  0  0  0
  147.9664  135.0134  157.7333 C   0  0  2  0  0  0  0  0  0  0  0  0
  149.1245  135.5372  157.0855 O   0  0  0  0  0  0  0  0  0  0  0  0
  149.7147  136.5274  157.8717 C   0  0  1  0  0  0  0  0  0  0  0  0
  150.5589  137.4447  156.9977 N   0  0  0  0  0  0  0  0  0  0  0  0
  150.4094  138.8236  157.0383 C   0  0  0  0  0  0  0  0  0  0  0  0
  151.1808  139.6409  156.2933 C   0  0  0  0  0  0  0  0  0  0  0  0
  151.0049  140.9718  156.3600 F   0  0  0  0  0  0  0  0  0  0  0  0
  152.2171  139.0721  155.4365 C   0  0  0  0  0  0  0  0  0  0  0  0
  152.8891  139.8173  154.7248 O   0  0  0  0  0  0  0  0  0  0  0  0
  152.4010  137.7216  155.4752 N   0  5  0  0  0  0  0  0  0  0  0  0
  151.6375  136.8932  156.2471 C   0  0  0  0  0  0  0  0  0  0  0  0
  151.8507  135.6839  156.3323 O   0  0  0  0  0  0  0  0  0  0  0  0
  148.5138  137.1876  158.5694 C   0  0  1  0  0  0  0  0  0  0  0  0
  147.7807  138.0301  157.6825 O   0  0  0  0  0  0  0  0  0  0  0  0
  146.6615  138.6457  158.0996 C   0  0  0  0  0  0  0  0  0  0  0  0
  146.0534  139.5322  157.0215 C   0  0  0  0  0  0  0  0  0  0  0  0
  146.1476  138.5405  159.2132 O   0  0  0  0  0  0  0  0  0  0  0  0
  147.6774  135.9626  158.9106 C   0  0  2  0  0  0  0  0  0  0  0  0
  148.1042  135.4238  160.1593 O   0  0  0  0  0  0  0  0  0  0  0  0
  147.7549  136.0173  161.3141 C   0  0  0  0  0  0  0  0  0  0  0  0
  147.6394  135.0248  162.4632 C   0  0  0  0  0  0  0  0  0  0  0  0
  147.5457  137.2189  161.4790 O   0  0  0  0  0  0  0  0  0  0  0  0
  149.3135  132.4378  154.5283 H   0  0  0  0  0  0  0  0  0  0  0  0
  149.6760  130.8969  155.3209 H   0  0  0  0  0  0  0  0  0  0  0  0
  150.9859  132.0183  154.9242 H   0  0  0  0  0  0  0  0  0  0  0  0
  147.2708  133.1348  158.5550 H   0  0  0  0  0  0  0  0  0  0  0  0
  148.9737  133.4565  158.8685 H   0  0  0  0  0  0  0  0  0  0  0  0
  147.1399  135.0840  157.0249 H   0  0  0  0  0  0  0  0  0  0  0  0
  150.4190  136.0826  158.5771 H   0  0  0  0  0  0  0  0  0  0  0  0
  149.6793  139.2773  157.6895 H   0  0  0  0  0  0  0  0  0  0  0  0
  148.8544  137.7382  159.4480 H   0  0  0  0  0  0  0  0  0  0  0  0
  146.7717  140.2888  156.7047 H   0  0  0  0  0  0  0  0  0  0  0  0
  145.1632  140.0372  157.3969 H   0  0  0  0  0  0  0  0  0  0  0  0
  145.7725  138.9352  156.1538 H   0  0  0  0  0  0  0  0  0  0  0  0
  146.6116  136.1932  158.9545 H   0  0  0  0  0  0  0  0  0  0  0  0
  147.0135  134.1802  162.1747 H   0  0  0  0  0  0  0  0  0  0  0  0
  147.1959  135.5010  163.3378 H   0  0  0  0  0  0  0  0  0  0  0  0
  148.6254  134.6486  162.7368 H   0  0  0  0  0  0  0  0  0  0  0  0
  1  2  1  0  0  0  0
  1 28  1  0  0  0  0
  1 29  1  0  0  0  0
  1 30  1  0  0  0  0
  2  3  2  0  0  0  0
  2  4  1  0  0  0  0
  4  5  1  0  0  0  0
  5  6  1  0  0  0  0
  5 31  1  0  0  0  0
  5 32  1  0  0  0  0
  6 23  1  0  0  0  0
  6  7  1  0  0  0  0
  6 33  1  0  0  0  0
  7  8  1  0  0  0  0
  8  9  1  0  0  0  0
  8 18  1  0  0  0  0
  8 34  1  0  0  0  0
  9 16  1  0  0  0  0
  9 10  1  0  0  0  0
 10 11  2  0  0  0  0
 10 35  1  0  0  0  0
 11 12  1  0  0  0  0
 11 13  1  0  0  0  0
 13 14  2  0  0  0  0
 13 15  1  0  0  0  0
 15 16  1  0  0  0  0
 16 17  2  0  0  0  0
 18 19  1  0  0  0  0
 18 23  1  0  0  0  0
 18 36  1  0  0  0  0
 19 20  1  0  0  0  0
 20 21  1  0  0  0  0
 20 22  2  0  0  0  0
 21 37  1  0  0  0  0
 21 38  1  0  0  0  0
 21 39  1  0  0  0  0
 23 24  1  0  0  0  0
 23 40  1  0  0  0  0
 24 25  1  0  0  0  0
 25 26  1  0  0  0  0
 25 27  2  0  0  0  0
 26 41  1  0  0  0  0
 26 42  1  0  0  0  0
 26 43  1  0  0  0  0
M  CHG  1  15  -1
M  END
> <s_m_source_file>
AV-unprocessed.smi

> <i_m_source_file_index>
102

> <i_lp_mmshare_version>
43012

> <i_f3d_flags>
0

> <s_epik_input>
W0NIM11DKD1PKU9bQ0gyXVtDQEBIXTFPW0NASF0oW0NAQEhdKE9DKD1PKVtDSDNdKVtDQEhdMU9DKD1PKVtDSDNdKW4yW2NIXWMoRiljKD1PKVtuSF1jMj1P

> <s_epik_cmdline>
J2VwaWtfcHl0aG9uJywgJy1waCcsICc3LjAnLCAnLXRuJywgJzgnLCAnLW1hJywgJzIwMCcsICctbWV0YWxfYmluZGluZycsICctaW1hZScsICc8aW5maWxlLm1hZT4nLCAnLW9tYWUnLCAnPG91dGZpbGUubWFlPic=

> <r_epik_Ionization_Penalty>
1.40304

> <r_epik_Ionization_Penalty_Charging>
1.43915e-08

> <r_epik_Ionization_Penalty_Neutral>
1.40304

> <r_epik_State_Penalty>
1.48536

> <r_epik_Charging_Adjusted_Penalty>
1.48536

> <i_epik_Tot_Q>
-1

> <i_epik_Tot_abs_Q>
1

> <r_epik_Metal_State_Penalty>
0.00663881

> <b_epik_Metal_Only>
0

> <s_epik_Chemistry_Notes>
This compound has an ester and may undergo hydrolysis at high or low pH. This compound contains an acetal/aminal-like group ( X-CH(R)-Y where X, Y are N, S, or O) that may be acid/base labile, releasing an aldehyde.

> <s_lp_Force_Field>
OPLS_2005

> <r_lp_Energy>
30.6684

> <b_lp_Chiralities_Consistent>
1

> <s_lp_Variant>
AV-unprocessed.smi:102-25

> <Gold.Version>
5.8.1

> <Gold.Id.Protein>
6NUR|6NUR_protein|mol2

> <Gold.PLP.Fitness>
45.7340

> <Gold.PLP.PLP>
-31.6708

> <Gold.PLP.part.hbond>
-7.7774

> <Gold.PLP.part.metal>
0.0000

> <Gold.PLP.part.buried>
-3.9673

> <Gold.PLP.part.nonpolar>
-19.8507

> <Gold.PLP.part.repulsive>
0.0579

> <Gold.PLP.ligand.clash>
0.0000

> <Gold.PLP.ligand.torsion>
0.8696

> <Gold.PLP.Chemscore.Hbond>
5.2080

> <Gold.PLP.Chemscore.CHOScore>
0.0000

> <Gold.PLP.Chemscore.Metal>
0.0000

> <Gold.Chemscore.Hbonds>
donor molecule, donor type, donor heavy atom, donor atom, acceptor molecule, acceptor atom, score
      P1  H  6896  6908       L1     3  1.00
      P1  H  6931  6943       L1    27  0.94
      P1  H  6934  6947       L1    27  0.83
      P1  H  7989  7998       L1    14  0.38
      P1  H  7997  8008       L1    14  1.00
      P1  H 10752 10763       L1    17  1.00

> <Gold.PLP.Chemscore.Internal.Correction>
0.1784

> <Gold.Rescore>
     Score         DG    S(hbond)    S(metal)    S(lipo)     H(rot)  DE(clash)    DE(int)     intcor
      7.16     -13.05       4.21        0.00      31.94       4.00       0.01       5.88       ----

> <Gold.Chemscore.Fitness>
7.1611

> <Gold.Chemscore.DG>
-13.0542

> <Gold.Chemscore.ZeroCoef>
-5.4800

> <Gold.Chemscore.Hbond>
4.2111

> <Gold.Chemscore.Metal>
0.0000

> <Gold.Chemscore.Lipo>
31.9350

> <Gold.Chemscore.Internal_Hbond>
0.0000

> <Gold.Chemscore.DEClash>
0.0126

> <Gold.Chemscore.DEInternal>
5.8805

> <Gold.Chemscore.Rot>
3.9951

> <Gold.Chemscore.Internal.Correction>
   9.000000E+99

> <Gold.Chemscore.Hbonds>
donor molecule, donor type, donor heavy atom, donor atom, acceptor molecule, acceptor atom, score
      P1  H  6896  6908       L1     3  0.94
      P1  H  6931  6943       L1    27  0.84
      P1  H  6934  6947       L1    27  0.83
      P1  H  7989  7998       L1    14  0.30
      P1  H  7997  8008       L1    14  0.63
      P1  H 10752 10763       L1    17  0.30

> <Gold.Chemscore.Hbond.Weighted>
-14.0652

> <Gold.Chemscore.Metal.Weighted>
-0.0000

> <Gold.Chemscore.Lipo.Weighted>
-3.7364

> <Gold.Chemscore.Internal_Hbond.Weighted>
0.0000

> <Gold.Chemscore.DEClash.Weighted>
0.0126

> <Gold.Chemscore.DEInternal.Weighted>
5.8805

> <Gold.Chemscore.Rot.Weighted>
10.2274

> <Gold.Chemscore.Internal.Correction.Weighted>
   9.000000E+99

> <Gold.Protein.RotatedTorsions>
[ 6907 6896 6895 6894 ] final   91.21 input  -60.11 | X-H torsion
[ 7974 7965 7964 7962 ] final  -54.69 input  175.53 | X-H torsion
[ 8008 7997 7996 7995 ] final   -1.45 input   59.86 | X-H torsion
[ 10167 10162 10161 10158 ] final   23.58 input  -65.29 | X-H torsion
[ 10718 10713 10712 10709 ] final -150.75 input   66.30 | X-H torsion
[ 10763 10752 10751 10750 ] final   86.07 input  -60.55 | X-H torsion
[ 11005 11000 10999 10996 ] final  144.45 input  -57.11 | X-H torsion

> <Gold.Protein.ActiveResidues>
 VAL166  LYS551  ARG553  GLY616  TRP617  ASP618  TYR619  PRO620  LYS621  CYS622 
 ASP623  PHE694  ASN695  SER759  ASP760  ASP761  ALA762  ILE779  LEU786  VAL792 
 PHE793  MET794  SER795  GLU796  ALA797  LYS798  CYS799  TRP800  GLU811  SER814 

> <Gold.Protein.RotatedAtoms>
  152.5449  134.1692  159.8589 H   0  0  0  0  0  0  0  0  0  0  0  0  # atno 6907 bound_to 6896
  151.1704  133.4781  159.2601 H   0  0  0  0  0  0  0  0  0  0  0  0  # atno 6908 bound_to 6896
  151.1281  135.0127  159.8625 H   0  0  0  0  0  0  0  0  0  0  0  0  # atno 6909 bound_to 6896
  145.8827  140.8132  142.9831 H   0  0  0  0  0  0  0  0  0  0  0  0  # atno 7974 bound_to 7965
  154.6467  140.2559  155.7260 H   0  0  0  0  0  0  0  0  0  0  0  0  # atno 8008 bound_to 7997
  156.2555  140.2876  156.0804 H   0  0  0  0  0  0  0  0  0  0  0  0  # atno 8009 bound_to 7997
  155.1514  140.0382  157.2812 H   0  0  0  0  0  0  0  0  0  0  0  0  # atno 8010 bound_to 7997
  140.5258  143.9926  150.6439 H   0  0  0  0  0  0  0  0  0  0  0  0  # atno 10167 bound_to 10162
  156.4502  130.8164  151.2395 H   0  0  0  0  0  0  0  0  0  0  0  0  # atno 10718 bound_to 10713
  153.1535  135.4594  154.9670 H   0  0  0  0  0  0  0  0  0  0  0  0  # atno 10763 bound_to 10752
  154.7843  135.3199  154.7923 H   0  0  0  0  0  0  0  0  0  0  0  0  # atno 10764 bound_to 10752
  153.8425  135.6929  153.4855 H   0  0  0  0  0  0  0  0  0  0  0  0  # atno 10765 bound_to 10752
  140.0633  134.9192  157.1222 H   0  0  0  0  0  0  0  0  0  0  0  0  # atno 11005 bound_to 11000
  144.6727  140.1408  143.7437 LP  0  0  0  0  0  0  0  0  0  0  0  0  # atno 17320 bound_to 7965
  145.9004  139.2427  143.1497 LP  0  0  0  0  0  0  0  0  0  0  0  0  # atno 17321 bound_to 7965
  140.3287  143.3091  152.0709 LP  0  0  0  0  0  0  0  0  0  0  0  0  # atno 17342 bound_to 10162
  139.4938  144.6524  151.6647 LP  0  0  0  0  0  0  0  0  0  0  0  0  # atno 17343 bound_to 10162
  157.7503  131.0140  150.3448 LP  0  0  0  0  0  0  0  0  0  0  0  0  # atno 17370 bound_to 10713
  156.3825  130.3883  149.7091 LP  0  0  0  0  0  0  0  0  0  0  0  0  # atno 17371 bound_to 10713
  140.3737  134.2363  155.7176 LP  0  0  0  0  0  0  0  0  0  0  0  0  # atno 17394 bound_to 11000
  141.1982  133.8040  157.0592 LP  0  0  0  0  0  0  0  0  0  0  0  0  # atno 17395 bound_to 11000

$$$$
