AV-unprocessed.smi:867|AV-procd|sdf|3999|dock7
  -GOLD-   22720 1483D 1   1.00000     0.00000
 Structure written by MMmdl.
 54 57  0  0  0  0  0  0  0  0  3 V2000
  151.5677  139.2921  154.6985 O   0  0  0  0  0  0  0  0  0  0  0  0
  150.4624  139.3887  155.2334 C   0  0  0  0  0  0  0  0  0  0  0  0
  149.7166  138.3122  155.5353 N   0  0  0  0  0  0  0  0  0  0  0  0
  150.1068  136.9281  155.2927 C   0  0  0  0  0  0  0  0  0  0  0  0
  149.0525  135.9428  155.8226 C   0  0  0  0  0  0  0  0  0  0  0  0
  149.1981  134.5664  155.2034 C   0  0  0  0  0  0  0  0  0  0  0  0
  148.2697  134.1120  154.2405 C   0  0  0  0  0  0  0  0  0  0  0  0
  148.4255  132.8261  153.6824 C   0  0  0  0  0  0  0  0  0  0  0  0
  149.5059  132.0226  154.1008 C   0  0  0  0  0  0  0  0  0  0  0  0
  150.3731  132.4901  155.0257 N   0  3  0  0  0  0  0  0  0  0  0  0
  150.2591  133.7158  155.5833 C   0  0  0  0  0  0  0  0  0  0  0  0
  149.8652  140.5785  155.4898 N   0  0  0  0  0  0  0  0  0  0  0  0
  148.6780  140.7833  156.3279 C   0  0  0  0  0  0  0  0  0  0  0  0
  149.0994  141.4033  157.6755 C   0  0  0  0  0  0  0  0  0  0  0  0
  149.8944  142.6551  157.4997 N   0  3  0  0  0  0  0  0  0  0  0  0
  150.3730  143.2708  158.7762 C   0  0  1  0  0  0  0  0  0  0  0  0
  151.6011  142.5178  159.3553 C   0  0  0  0  0  0  0  0  0  0  0  0
  152.6492  143.6253  159.5517 C   0  0  2  0  0  0  0  0  0  0  0  0
  152.2133  144.5486  160.7011 C   0  0  0  0  0  0  0  0  0  0  0  0
  151.0386  145.3219  160.0778 C   0  0  0  0  0  0  0  0  0  0  0  0
  150.9352  144.7170  158.6629 C   0  0  1  0  0  0  0  0  0  0  0  0
  152.4047  144.4931  158.3246 C   0  0  0  0  0  0  0  0  0  0  0  0
  151.0103  142.4721  156.5251 C   0  0  0  0  0  0  0  0  0  0  0  0
  150.5217  141.8546  155.2050 C   0  0  0  0  0  0  0  0  0  0  0  0
  148.8051  138.4650  155.9419 H   0  0  0  0  0  0  0  0  0  0  0  0
  150.2353  136.7944  154.2182 H   0  0  0  0  0  0  0  0  0  0  0  0
  151.0791  136.7296  155.7474 H   0  0  0  0  0  0  0  0  0  0  0  0
  149.1304  135.8500  156.9069 H   0  0  0  0  0  0  0  0  0  0  0  0
  148.0501  136.3222  155.6184 H   0  0  0  0  0  0  0  0  0  0  0  0
  147.4460  134.7403  153.9332 H   0  0  0  0  0  0  0  0  0  0  0  0
  147.7254  132.4618  152.9446 H   0  0  0  0  0  0  0  0  0  0  0  0
  149.7006  131.0278  153.7272 H   0  0  0  0  0  0  0  0  0  0  0  0
  151.0138  133.9748  156.3120 H   0  0  0  0  0  0  0  0  0  0  0  0
  147.9918  141.4546  155.8091 H   0  0  0  0  0  0  0  0  0  0  0  0
  148.1086  139.8723  156.5124 H   0  0  0  0  0  0  0  0  0  0  0  0
  148.1867  141.6018  158.2329 H   0  0  0  0  0  0  0  0  0  0  0  0
  149.6824  140.6826  158.2510 H   0  0  0  0  0  0  0  0  0  0  0  0
  149.5435  143.2582  159.4855 H   0  0  0  0  0  0  0  0  0  0  0  0
  151.3680  141.9957  160.2841 H   0  0  0  0  0  0  0  0  0  0  0  0
  151.9971  141.7823  158.6536 H   0  0  0  0  0  0  0  0  0  0  0  0
  153.6678  143.2496  159.6549 H   0  0  0  0  0  0  0  0  0  0  0  0
  151.9208  143.9908  161.5917 H   0  0  0  0  0  0  0  0  0  0  0  0
  153.0173  145.2310  160.9810 H   0  0  0  0  0  0  0  0  0  0  0  0
  150.1162  145.2122  160.6493 H   0  0  0  0  0  0  0  0  0  0  0  0
  151.2705  146.3867  160.0267 H   0  0  0  0  0  0  0  0  0  0  0  0
  150.4076  145.3907  157.9916 H   0  0  0  0  0  0  0  0  0  0  0  0
  152.9935  145.4123  158.3210 H   0  0  0  0  0  0  0  0  0  0  0  0
  152.5572  143.9661  157.3812 H   0  0  0  0  0  0  0  0  0  0  0  0
  151.4946  143.4230  156.3064 H   0  0  0  0  0  0  0  0  0  0  0  0
  151.7735  141.8294  156.9674 H   0  0  0  0  0  0  0  0  0  0  0  0
  151.3550  141.7492  154.5082 H   0  0  0  0  0  0  0  0  0  0  0  0
  149.8129  142.5251  154.7166 H   0  0  0  0  0  0  0  0  0  0  0  0
  149.2621  143.3230  157.0823 H   0  0  0  0  0  0  0  0  0  0  0  0
  151.1473  131.8918  155.3154 H   0  0  0  0  0  0  0  0  0  0  0  0
  1  2  2  0  0  0  0
  2  3  1  0  0  0  0
  2 12  1  0  0  0  0
  3  4  1  0  0  0  0
  3 25  1  0  0  0  0
  4  5  1  0  0  0  0
  4 26  1  0  0  0  0
  4 27  1  0  0  0  0
  5  6  1  0  0  0  0
  5 28  1  0  0  0  0
  5 29  1  0  0  0  0
  6 11  1  0  0  0  0
  6  7  2  0  0  0  0
  7  8  1  0  0  0  0
  7 30  1  0  0  0  0
  8  9  2  0  0  0  0
  8 31  1  0  0  0  0
  9 10  1  0  0  0  0
  9 32  1  0  0  0  0
 10 11  2  0  0  0  0
 10 54  1  0  0  0  0
 11 33  1  0  0  0  0
 12 24  1  0  0  0  0
 12 13  1  0  0  0  0
 13 14  1  0  0  0  0
 13 34  1  0  0  0  0
 13 35  1  0  0  0  0
 14 15  1  0  0  0  0
 14 36  1  0  0  0  0
 14 37  1  0  0  0  0
 15 16  1  0  0  0  0
 15 23  1  0  0  0  0
 15 53  1  0  0  0  0
 16 21  1  0  0  0  0
 16 17  1  0  0  0  0
 16 38  1  0  0  0  0
 17 18  1  0  0  0  0
 17 39  1  0  0  0  0
 17 40  1  0  0  0  0
 18 22  1  0  0  0  0
 18 19  1  0  0  0  0
 18 41  1  0  0  0  0
 19 20  1  0  0  0  0
 19 42  1  0  0  0  0
 19 43  1  0  0  0  0
 20 21  1  0  0  0  0
 20 44  1  0  0  0  0
 20 45  1  0  0  0  0
 21 22  1  0  0  0  0
 21 46  1  0  0  0  0
 22 47  1  0  0  0  0
 22 48  1  0  0  0  0
 23 24  1  0  0  0  0
 23 49  1  0  0  0  0
 23 50  1  0  0  0  0
 24 51  1  0  0  0  0
 24 52  1  0  0  0  0
M  CHG  1  10   1
M  CHG  1  15   1
M  END
> <s_m_source_file>
AV-unprocessed.smi

> <i_m_source_file_index>
867

> <i_lp_mmshare_version>
43012

> <i_f3d_flags>
0

> <s_epik_input>
W0NIMl0xW0NIMl1bQ0BASF0oW0NIMl0yKVtDQEBIXShbQ0gyXVtDQEhdMTIpTihbQ0gyXVtDSDJdMylbQ0gyXVtDSDJdTjNDKD1PKVtOSF1bQ0gyXVtDSDJdYzRbY0hdW2NIXVtjSF1uW2NIXTQ=

> <s_epik_cmdline>
J2VwaWtfcHl0aG9uJywgJy1waCcsICc3LjAnLCAnLXRuJywgJzgnLCAnLW1hJywgJzIwMCcsICctbWV0YWxfYmluZGluZycsICctaW1hZScsICc8aW5maWxlLm1hZT4nLCAnLW9tYWUnLCAnPG91dGZpbGUubWFlPic=

> <r_epik_Ionization_Penalty>
2.25108

> <r_epik_Ionization_Penalty_Charging>
2.25105

> <r_epik_Ionization_Penalty_Neutral>
2.64641e-05

> <r_epik_State_Penalty>
2.39519

> <r_epik_Charging_Adjusted_Penalty>
4.64625

> <i_epik_Tot_Q>
2

> <i_epik_Tot_abs_Q>
2

> <r_epik_Metal_State_Penalty>
2.40865

> <b_epik_Metal_Only>
0

> <s_lp_Force_Field>
OPLS_2005

> <r_lp_Energy>
104.459

> <b_lp_Chiralities_Consistent>
1

> <s_lp_Variant>
AV-unprocessed.smi:867-6

> <Gold.Version>
5.8.1

> <Gold.Id.Protein>
6NUR|6NUR_protein|mol2

> <Gold.PLP.Fitness>
52.3344

> <Gold.PLP.PLP>
-44.0374

> <Gold.PLP.part.hbond>
-2.0000

> <Gold.PLP.part.metal>
0.0000

> <Gold.PLP.part.buried>
-4.0912

> <Gold.PLP.part.nonpolar>
-37.6532

> <Gold.PLP.part.repulsive>
0.1378

> <Gold.PLP.ligand.clash>
0.0000

> <Gold.PLP.ligand.torsion>
0.4179

> <Gold.PLP.Chemscore.Hbond>
3.0000

> <Gold.PLP.Chemscore.CHOScore>
0.0000

> <Gold.PLP.Chemscore.Metal>
0.0000

> <Gold.Chemscore.Hbonds>
donor molecule, donor type, donor heavy atom, donor atom, acceptor molecule, acceptor atom, score
      L1  H    15    53       P1  8028  2.00
      P1  H  7989  7998       L1     1  1.00

> <Gold.PLP.Chemscore.Internal.Correction>
0.1327

> <Gold.Rescore>
     Score         DG    S(hbond)    S(metal)    S(lipo)     H(rot)  DE(clash)    DE(int)     intcor
     18.79     -22.46       1.48        0.00     134.77       1.46       3.08       0.59       ----

> <Gold.Chemscore.Fitness>
18.7879

> <Gold.Chemscore.DG>
-22.4579

> <Gold.Chemscore.ZeroCoef>
-5.4800

> <Gold.Chemscore.Hbond>
1.4792

> <Gold.Chemscore.Metal>
0.0000

> <Gold.Chemscore.Lipo>
134.7670

> <Gold.Chemscore.Internal_Hbond>
0.0000

> <Gold.Chemscore.DEClash>
3.0773

> <Gold.Chemscore.DEInternal>
0.5928

> <Gold.Chemscore.Rot>
1.4572

> <Gold.Chemscore.Internal.Correction>
   9.000000E+99

> <Gold.Chemscore.Hbonds>
donor molecule, donor type, donor heavy atom, donor atom, acceptor molecule, acceptor atom, score
      L1  H    15    53       P1  8028  0.79
      P1  H  7989  7998       L1     1  0.43

> <Gold.Chemscore.Hbond.Weighted>
-4.9407

> <Gold.Chemscore.Metal.Weighted>
-0.0000

> <Gold.Chemscore.Lipo.Weighted>
-15.7677

> <Gold.Chemscore.Internal_Hbond.Weighted>
0.0000

> <Gold.Chemscore.DEClash.Weighted>
3.0773

> <Gold.Chemscore.DEInternal.Weighted>
0.5928

> <Gold.Chemscore.Rot.Weighted>
3.7305

> <Gold.Chemscore.Internal.Correction.Weighted>
   9.000000E+99

> <Gold.Protein.RotatedTorsions>
[ 6907 6896 6895 6894 ] final -105.55 input  -60.11 | X-H torsion
[ 7974 7965 7964 7962 ] final   71.44 input  175.53 | X-H torsion
[ 8008 7997 7996 7995 ] final  -28.95 input   59.86 | X-H torsion
[ 10167 10162 10161 10158 ] final  161.01 input  -65.29 | X-H torsion
[ 10718 10713 10712 10709 ] final   79.83 input   66.30 | X-H torsion
[ 10763 10752 10751 10750 ] final  -83.20 input  -60.55 | X-H torsion
[ 11005 11000 10999 10996 ] final  149.73 input  -57.11 | X-H torsion

> <Gold.Protein.ActiveResidues>
 VAL166  LYS551  ARG553  GLY616  TRP617  ASP618  TYR619  PRO620  LYS621  CYS622 
 ASP623  PHE694  ASN695  SER759  ASP760  ASP761  ALA762  ILE779  LEU786  VAL792 
 PHE793  MET794  SER795  GLU796  ALA797  LYS798  CYS799  TRP800  GLU811  SER814 

> <Gold.Protein.RotatedAtoms>
  150.7343  134.0110  159.3669 H   0  0  0  0  0  0  0  0  0  0  0  0  # atno 6907 bound_to 6896
  151.8069  135.0690  160.0417 H   0  0  0  0  0  0  0  0  0  0  0  0  # atno 6908 bound_to 6896
  152.3100  133.5707  159.5711 H   0  0  0  0  0  0  0  0  0  0  0  0  # atno 6909 bound_to 6896
  145.7657  139.2820  143.1350 H   0  0  0  0  0  0  0  0  0  0  0  0  # atno 7974 bound_to 7965
  154.4310  140.1831  156.1171 H   0  0  0  0  0  0  0  0  0  0  0  0  # atno 8008 bound_to 7997
  156.0172  140.3344  155.6976 H   0  0  0  0  0  0  0  0  0  0  0  0  # atno 8009 bound_to 7997
  155.6027  140.0642  157.2719 H   0  0  0  0  0  0  0  0  0  0  0  0  # atno 8010 bound_to 7997
  139.4845  144.4578  151.8744 H   0  0  0  0  0  0  0  0  0  0  0  0  # atno 10167 bound_to 10162
  157.6788  130.9932  150.1990 H   0  0  0  0  0  0  0  0  0  0  0  0  # atno 10718 bound_to 10713
  154.5849  135.5564  153.7221 H   0  0  0  0  0  0  0  0  0  0  0  0  # atno 10763 bound_to 10752
  153.0095  135.6329  154.1931 H   0  0  0  0  0  0  0  0  0  0  0  0  # atno 10764 bound_to 10752
  154.1871  135.2884  155.3013 H   0  0  0  0  0  0  0  0  0  0  0  0  # atno 10765 bound_to 10752
  140.1070  134.8948  157.1880 H   0  0  0  0  0  0  0  0  0  0  0  0  # atno 11005 bound_to 11000
  146.0220  140.8339  142.9919 LP  0  0  0  0  0  0  0  0  0  0  0  0  # atno 17320 bound_to 7965
  144.6822  140.2642  143.7315 LP  0  0  0  0  0  0  0  0  0  0  0  0  # atno 17321 bound_to 7965
  140.4039  144.2457  150.5891 LP  0  0  0  0  0  0  0  0  0  0  0  0  # atno 17342 bound_to 10162
  140.5031  143.2312  151.8649 LP  0  0  0  0  0  0  0  0  0  0  0  0  # atno 17343 bound_to 10162
  156.2685  130.3719  149.8056 LP  0  0  0  0  0  0  0  0  0  0  0  0  # atno 17370 bound_to 10713
  156.5780  130.8453  151.3375 LP  0  0  0  0  0  0  0  0  0  0  0  0  # atno 17371 bound_to 10713
  140.3142  134.2989  155.7260 LP  0  0  0  0  0  0  0  0  0  0  0  0  # atno 17394 bound_to 11000
  141.2121  133.7669  156.9820 LP  0  0  0  0  0  0  0  0  0  0  0  0  # atno 17395 bound_to 11000

$$$$
