AV-unprocessed.smi:3130|AV-procd|sdf|11926|dock1
  -GOLD-   2272017313D 1   1.00000     0.00000
 Structure written by MMmdl.
 40 40  0  0  0  0  0  0  0  0  2 V2000
  151.4954  145.4421  159.9450 C   0  0  0  0  0  0  0  0  0  0  0  0
  152.0986  144.1336  160.3674 C   0  0  0  0  0  0  0  0  0  0  0  0
  152.1922  143.5959  161.6826 C   0  0  0  0  0  0  0  0  0  0  0  0
  152.7899  142.4157  161.7141 N   0  0  0  0  0  0  0  0  0  0  0  0
  153.0945  142.1574  160.4250 N   0  0  0  0  0  0  0  0  0  0  0  0
  153.7810  140.9273  160.0799 C   0  0  0  0  0  0  0  0  0  0  0  0
  152.8435  139.9192  159.3990 C   0  0  0  0  0  0  0  0  0  0  0  0
  152.3196  140.4567  158.1286 N   0  3  0  0  0  0  0  0  0  0  0  0
  150.9875  141.0813  158.2455 C   0  0  0  0  0  0  0  0  0  0  0  0
  150.6579  141.9160  156.9962 C   0  0  0  0  0  0  0  0  0  0  0  0
  150.3933  141.0530  155.7590 C   0  0  0  0  0  0  0  0  0  0  0  0
  151.2550  140.2775  155.3448 O   0  0  0  0  0  0  0  0  0  0  0  0
  149.1937  141.2026  155.1754 N   0  0  0  0  0  0  0  0  0  0  0  0
  148.7342  140.4899  153.9864 C   0  0  0  0  0  0  0  0  0  0  0  0
  147.3032  140.9304  153.6501 C   0  0  0  0  0  0  0  0  0  0  0  0
  148.8233  138.9705  154.1999 C   0  0  0  0  0  0  0  0  0  0  0  0
  152.6916  143.1787  159.5910 C   0  0  0  0  0  0  0  0  0  0  0  0
  150.9854  145.9400  160.7701 H   0  0  0  0  0  0  0  0  0  0  0  0
  150.7629  145.3095  159.1485 H   0  0  0  0  0  0  0  0  0  0  0  0
  152.2540  146.1316  159.5739 H   0  0  0  0  0  0  0  0  0  0  0  0
  151.8473  144.0278  162.6107 H   0  0  0  0  0  0  0  0  0  0  0  0
  154.6177  141.1706  159.4235 H   0  0  0  0  0  0  0  0  0  0  0  0
  154.2053  140.5025  160.9908 H   0  0  0  0  0  0  0  0  0  0  0  0
  153.3748  138.9877  159.1988 H   0  0  0  0  0  0  0  0  0  0  0  0
  152.0085  139.6800  160.0592 H   0  0  0  0  0  0  0  0  0  0  0  0
  152.9699  141.1462  157.7792 H   0  0  0  0  0  0  0  0  0  0  0  0
  150.2429  140.2961  158.3862 H   0  0  0  0  0  0  0  0  0  0  0  0
  150.9658  141.7124  159.1357 H   0  0  0  0  0  0  0  0  0  0  0  0
  149.7845  142.5400  157.1929 H   0  0  0  0  0  0  0  0  0  0  0  0
  151.4825  142.5930  156.7700 H   0  0  0  0  0  0  0  0  0  0  0  0
  148.5482  141.8641  155.5819 H   0  0  0  0  0  0  0  0  0  0  0  0
  149.3712  140.7599  153.1421 H   0  0  0  0  0  0  0  0  0  0  0  0
  146.9414  140.4340  152.7493 H   0  0  0  0  0  0  0  0  0  0  0  0
  147.2534  142.0055  153.4745 H   0  0  0  0  0  0  0  0  0  0  0  0
  146.6130  140.6922  154.4602 H   0  0  0  0  0  0  0  0  0  0  0  0
  148.4836  138.4312  153.3151 H   0  0  0  0  0  0  0  0  0  0  0  0
  148.2072  138.6503  155.0407 H   0  0  0  0  0  0  0  0  0  0  0  0
  149.8486  138.6569  154.3992 H   0  0  0  0  0  0  0  0  0  0  0  0
  152.8591  143.1444  158.5244 H   0  0  0  0  0  0  0  0  0  0  0  0
  152.2606  139.7004  157.4615 H   0  0  0  0  0  0  0  0  0  0  0  0
  1  2  1  0  0  0  0
  1 18  1  0  0  0  0
  1 19  1  0  0  0  0
  1 20  1  0  0  0  0
  2 17  2  0  0  0  0
  2  3  1  0  0  0  0
  3  4  2  0  0  0  0
  3 21  1  0  0  0  0
  4  5  1  0  0  0  0
  5  6  1  0  0  0  0
  5 17  1  0  0  0  0
  6  7  1  0  0  0  0
  6 22  1  0  0  0  0
  6 23  1  0  0  0  0
  7  8  1  0  0  0  0
  7 24  1  0  0  0  0
  7 25  1  0  0  0  0
  8  9  1  0  0  0  0
  8 26  1  0  0  0  0
  8 40  1  0  0  0  0
  9 10  1  0  0  0  0
  9 27  1  0  0  0  0
  9 28  1  0  0  0  0
 10 11  1  0  0  0  0
 10 29  1  0  0  0  0
 10 30  1  0  0  0  0
 11 12  2  0  0  0  0
 11 13  1  0  0  0  0
 13 14  1  0  0  0  0
 13 31  1  0  0  0  0
 14 15  1  0  0  0  0
 14 16  1  0  0  0  0
 14 32  1  0  0  0  0
 15 33  1  0  0  0  0
 15 34  1  0  0  0  0
 15 35  1  0  0  0  0
 16 36  1  0  0  0  0
 16 37  1  0  0  0  0
 16 38  1  0  0  0  0
 17 39  1  0  0  0  0
M  CHG  1   8   1
M  END
> <s_m_source_file>
AV-unprocessed.smi

> <i_m_source_file_index>
3130

> <i_lp_mmshare_version>
43012

> <i_f3d_flags>
0

> <s_epik_input>
W0NIM11jMVtjSF1ubihbY0hdMSlbQ0gyXVtDSDJdW05IXVtDSDJdW0NIMl1DKD1PKVtOSF1bQ0hdKFtDSDNdKVtDSDNd

> <s_epik_cmdline>
J2VwaWtfcHl0aG9uJywgJy1waCcsICc3LjAnLCAnLXRuJywgJzgnLCAnLW1hJywgJzIwMCcsICctbWV0YWxfYmluZGluZycsICctaW1hZScsICc8aW5maWxlLm1hZT4nLCAnLW9tYWUnLCAnPG91dGZpbGUubWFlPic=

> <r_lp_tautomer_probability>
1

> <r_epik_Ionization_Penalty>
0.00578341

> <r_epik_Ionization_Penalty_Charging>
0.00577767

> <r_epik_Ionization_Penalty_Neutral>
5.73237e-06

> <r_epik_State_Penalty>
-0

> <r_epik_Charging_Adjusted_Penalty>
0.00577767

> <i_epik_Tot_Q>
1

> <i_epik_Tot_abs_Q>
1

> <r_epik_Metal_State_Penalty>
-0

> <b_epik_Metal_Only>
0

> <s_lp_Force_Field>
OPLS_2005

> <r_lp_Energy>
3.33075

> <b_lp_Chiralities_Consistent>
1

> <s_lp_Variant>
AV-unprocessed.smi:3130-1

> <Gold.Version>
5.8.1

> <Gold.Id.Protein>
6NUR|6NUR_protein|mol2

> <Gold.PLP.Fitness>
45.4069

> <Gold.PLP.PLP>
-43.2680

> <Gold.PLP.part.hbond>
-1.0000

> <Gold.PLP.part.metal>
0.0000

> <Gold.PLP.part.buried>
-4.2608

> <Gold.PLP.part.nonpolar>
-37.7620

> <Gold.PLP.part.repulsive>
0.3278

> <Gold.PLP.ligand.clash>
0.0000

> <Gold.PLP.ligand.torsion>
0.5047

> <Gold.PLP.Chemscore.Hbond>
1.0000

> <Gold.PLP.Chemscore.CHOScore>
0.0000

> <Gold.PLP.Chemscore.Metal>
0.0000

> <Gold.Chemscore.Hbonds>
donor molecule, donor type, donor heavy atom, donor atom, acceptor molecule, acceptor atom, score
      P1  H  7989  7998       L1    12  1.00

> <Gold.PLP.Chemscore.Internal.Correction>
0.1484

> <Gold.Rescore>
     Score         DG    S(hbond)    S(metal)    S(lipo)     H(rot)  DE(clash)    DE(int)     intcor
     13.25     -13.93       0.94        0.00      94.73       2.26       0.00       0.68       ----

> <Gold.Chemscore.Fitness>
13.2482

> <Gold.Chemscore.DG>
-13.9309

> <Gold.Chemscore.ZeroCoef>
-5.4800

> <Gold.Chemscore.Hbond>
0.9434

> <Gold.Chemscore.Metal>
0.0000

> <Gold.Chemscore.Lipo>
94.7300

> <Gold.Chemscore.Internal_Hbond>
0.0000

> <Gold.Chemscore.DEClash>
0.0038

> <Gold.Chemscore.DEInternal>
0.6789

> <Gold.Chemscore.Rot>
2.2591

> <Gold.Chemscore.Internal.Correction>
   9.000000E+99

> <Gold.Chemscore.Hbonds>
donor molecule, donor type, donor heavy atom, donor atom, acceptor molecule, acceptor atom, score
      P1  H  7989  7998       L1    12  0.47

> <Gold.Chemscore.Hbond.Weighted>
-3.1509

> <Gold.Chemscore.Metal.Weighted>
-0.0000

> <Gold.Chemscore.Lipo.Weighted>
-11.0834

> <Gold.Chemscore.Internal_Hbond.Weighted>
0.0000

> <Gold.Chemscore.DEClash.Weighted>
0.0038

> <Gold.Chemscore.DEInternal.Weighted>
0.6789

> <Gold.Chemscore.Rot.Weighted>
5.7834

> <Gold.Chemscore.Internal.Correction.Weighted>
   9.000000E+99

> <Gold.Protein.RotatedTorsions>
[ 6907 6896 6895 6894 ] final   78.81 input  -60.11 | X-H torsion
[ 7974 7965 7964 7962 ] final  -96.62 input  175.53 | X-H torsion
[ 8008 7997 7996 7995 ] final  162.54 input   59.86 | X-H torsion
[ 10167 10162 10161 10158 ] final  -81.27 input  -65.29 | X-H torsion
[ 10718 10713 10712 10709 ] final -167.30 input   66.30 | X-H torsion
[ 10763 10752 10751 10750 ] final   -2.12 input  -60.55 | X-H torsion
[ 11005 11000 10999 10996 ] final  -13.42 input  -57.11 | X-H torsion

> <Gold.Protein.ActiveResidues>
 VAL166  LYS551  ARG553  GLY616  TRP617  ASP618  TYR619  PRO620  LYS621  CYS622 
 ASP623  PHE694  ASN695  SER759  ASP760  ASP761  ALA762  ILE779  LEU786  VAL792 
 PHE793  MET794  SER795  GLU796  ALA797  LYS798  CYS799  TRP800  GLU811  SER814 

> <Gold.Protein.RotatedAtoms>
  152.5174  134.3608  159.9283 H   0  0  0  0  0  0  0  0  0  0  0  0  # atno 6907 bound_to 6896
  151.3560  133.3901  159.2692 H   0  0  0  0  0  0  0  0  0  0  0  0  # atno 6908 bound_to 6896
  150.9689  134.9084  159.7834 H   0  0  0  0  0  0  0  0  0  0  0  0  # atno 6909 bound_to 6896
  145.3444  140.9465  143.2589 H   0  0  0  0  0  0  0  0  0  0  0  0  # atno 7974 bound_to 7965
  156.2023  140.1747  156.7873 H   0  0  0  0  0  0  0  0  0  0  0  0  # atno 8008 bound_to 7997
  154.5608  140.0700  156.8847 H   0  0  0  0  0  0  0  0  0  0  0  0  # atno 8009 bound_to 7997
  155.2851  140.3351  155.4258 H   0  0  0  0  0  0  0  0  0  0  0  0  # atno 8010 bound_to 7997
  140.4428  143.2509  151.8602 H   0  0  0  0  0  0  0  0  0  0  0  0  # atno 10167 bound_to 10162
  156.6804  130.9119  151.3056 H   0  0  0  0  0  0  0  0  0  0  0  0  # atno 10718 bound_to 10713
  153.3539  135.6987  153.6766 H   0  0  0  0  0  0  0  0  0  0  0  0  # atno 10763 bound_to 10752
  153.5482  135.3559  155.2748 H   0  0  0  0  0  0  0  0  0  0  0  0  # atno 10764 bound_to 10752
  154.8657  135.4220  154.2780 H   0  0  0  0  0  0  0  0  0  0  0  0  # atno 10765 bound_to 10752
  140.7759  133.8401  155.9249 H   0  0  0  0  0  0  0  0  0  0  0  0  # atno 11005 bound_to 11000
  144.8765  139.4964  143.6743 LP  0  0  0  0  0  0  0  0  0  0  0  0  # atno 17320 bound_to 7965
  146.2994  139.7378  142.9102 LP  0  0  0  0  0  0  0  0  0  0  0  0  # atno 17321 bound_to 7965
  139.4790  144.5210  151.8801 LP  0  0  0  0  0  0  0  0  0  0  0  0  # atno 17342 bound_to 10162
  140.4299  144.2130  150.5888 LP  0  0  0  0  0  0  0  0  0  0  0  0  # atno 17343 bound_to 10162
  157.7045  130.9370  150.0889 LP  0  0  0  0  0  0  0  0  0  0  0  0  # atno 17370 bound_to 10713
  156.1872  130.3653  149.8957 LP  0  0  0  0  0  0  0  0  0  0  0  0  # atno 17371 bound_to 10713
  140.9529  134.1756  157.4714 LP  0  0  0  0  0  0  0  0  0  0  0  0  # atno 17394 bound_to 11000
  139.8749  134.9916  156.5556 LP  0  0  0  0  0  0  0  0  0  0  0  0  # atno 17395 bound_to 11000

$$$$
