AV-unprocessed.smi:3241|AV-procd|sdf|12385|dock4
  -GOLD-   2272018253D 1   1.00000     0.00000
 Structure written by MMmdl.
 44 45  0  0  0  0  0  0  0  0  2 V2000
  151.3153  137.9056  154.6298 C   0  0  0  0  0  0  0  0  0  0  0  0
  150.6803  139.3054  154.6680 C   0  0  2  0  0  0  0  0  0  0  0  0
  151.2725  140.1381  155.8228 C   0  0  0  0  0  0  0  0  0  0  0  0
  150.6540  141.5424  155.8887 C   0  0  0  0  0  0  0  0  0  0  0  0
  149.1259  141.4658  156.0070 C   0  0  0  0  0  0  0  0  0  0  0  0
  148.5241  140.6481  154.8550 C   0  0  0  0  0  0  0  0  0  0  0  0
  149.1400  139.2341  154.7791 C   0  0  1  0  0  0  0  0  0  0  0  0
  148.6522  138.5587  153.6257 O   0  0  0  0  0  0  0  0  0  0  0  0
  147.2393  138.4277  153.5690 C   0  0  0  0  0  0  0  0  0  0  0  0
  146.7798  138.7418  152.1418 C   0  0  0  0  0  0  0  0  0  0  0  0
  145.4299  138.2011  151.8885 N   0  3  0  0  0  0  0  0  0  0  0  0
  145.2666  136.7877  152.2788 C   0  0  0  0  0  0  0  0  0  0  0  0
  144.4127  136.0281  151.2535 C   0  0  0  0  0  0  0  0  0  0  0  0
  144.9792  134.7316  150.9368 N   0  0  0  0  0  0  0  0  0  0  0  0
  144.3718  133.6549  150.3254 C   0  0  0  0  0  0  0  0  0  0  0  0
  145.3005  132.6571  150.2445 C   0  0  0  0  0  0  0  0  0  0  0  0
  146.4597  133.2246  150.8435 C   0  0  0  0  0  0  0  0  0  0  0  0
  146.2636  134.4664  151.2578 N   0  0  0  0  0  0  0  0  0  0  0  0
  151.0884  137.3427  155.5357 H   0  0  0  0  0  0  0  0  0  0  0  0
  152.4000  137.9699  154.5413 H   0  0  0  0  0  0  0  0  0  0  0  0
  150.9539  137.3269  153.7794 H   0  0  0  0  0  0  0  0  0  0  0  0
  150.9303  139.8081  153.7323 H   0  0  0  0  0  0  0  0  0  0  0  0
  151.1059  139.6246  156.7709 H   0  0  0  0  0  0  0  0  0  0  0  0
  152.3534  140.2233  155.7056 H   0  0  0  0  0  0  0  0  0  0  0  0
  151.0658  142.0907  156.7365 H   0  0  0  0  0  0  0  0  0  0  0  0
  150.9256  142.1054  154.9948 H   0  0  0  0  0  0  0  0  0  0  0  0
  148.8542  141.0109  156.9604 H   0  0  0  0  0  0  0  0  0  0  0  0
  148.7026  142.4707  156.0111 H   0  0  0  0  0  0  0  0  0  0  0  0
  147.4438  140.5920  154.9858 H   0  0  0  0  0  0  0  0  0  0  0  0
  148.6938  141.1714  153.9130 H   0  0  0  0  0  0  0  0  0  0  0  0
  148.8846  138.6734  155.6805 H   0  0  0  0  0  0  0  0  0  0  0  0
  146.9569  137.4051  153.8236 H   0  0  0  0  0  0  0  0  0  0  0  0
  146.7465  139.0908  154.2803 H   0  0  0  0  0  0  0  0  0  0  0  0
  146.7871  139.8197  151.9743 H   0  0  0  0  0  0  0  0  0  0  0  0
  147.4755  138.3001  151.4273 H   0  0  0  0  0  0  0  0  0  0  0  0
  144.7582  138.7569  152.3986 H   0  0  0  0  0  0  0  0  0  0  0  0
  146.2496  136.3218  152.3616 H   0  0  0  0  0  0  0  0  0  0  0  0
  144.8028  136.7417  153.2651 H   0  0  0  0  0  0  0  0  0  0  0  0
  143.3996  135.8808  151.6307 H   0  0  0  0  0  0  0  0  0  0  0  0
  144.3270  136.6032  150.3305 H   0  0  0  0  0  0  0  0  0  0  0  0
  143.3418  133.6868  150.0019 H   0  0  0  0  0  0  0  0  0  0  0  0
  145.1714  131.6711  149.8234 H   0  0  0  0  0  0  0  0  0  0  0  0
  147.4304  132.7740  150.9892 H   0  0  0  0  0  0  0  0  0  0  0  0
  145.2358  138.2854  150.9008 H   0  0  0  0  0  0  0  0  0  0  0  0
  1  2  1  0  0  0  0
  1 19  1  0  0  0  0
  1 20  1  0  0  0  0
  1 21  1  0  0  0  0
  2  7  1  0  0  0  0
  2  3  1  0  0  0  0
  2 22  1  0  0  0  0
  3  4  1  0  0  0  0
  3 23  1  0  0  0  0
  3 24  1  0  0  0  0
  4  5  1  0  0  0  0
  4 25  1  0  0  0  0
  4 26  1  0  0  0  0
  5  6  1  0  0  0  0
  5 27  1  0  0  0  0
  5 28  1  0  0  0  0
  6  7  1  0  0  0  0
  6 29  1  0  0  0  0
  6 30  1  0  0  0  0
  7  8  1  0  0  0  0
  7 31  1  0  0  0  0
  8  9  1  0  0  0  0
  9 10  1  0  0  0  0
  9 32  1  0  0  0  0
  9 33  1  0  0  0  0
 10 11  1  0  0  0  0
 10 34  1  0  0  0  0
 10 35  1  0  0  0  0
 11 12  1  0  0  0  0
 11 36  1  0  0  0  0
 11 44  1  0  0  0  0
 12 13  1  0  0  0  0
 12 37  1  0  0  0  0
 12 38  1  0  0  0  0
 13 14  1  0  0  0  0
 13 39  1  0  0  0  0
 13 40  1  0  0  0  0
 14 18  1  0  0  0  0
 14 15  1  0  0  0  0
 15 16  2  0  0  0  0
 15 41  1  0  0  0  0
 16 17  1  0  0  0  0
 16 42  1  0  0  0  0
 17 18  2  0  0  0  0
 17 43  1  0  0  0  0
M  CHG  1  11   1
M  END
> <s_m_source_file>
AV-unprocessed.smi

> <i_m_source_file_index>
3241

> <i_lp_mmshare_version>
43012

> <i_f3d_flags>
0

> <s_epik_input>
W0NIM11bQ0BASF0xW0NIMl1bQ0gyXVtDSDJdW0NIMl1bQ0BIXTFPW0NIMl1bQ0gyXVtOSF1bQ0gyXVtDSDJdbjJbY0hdW2NIXVtjSF1uMg==

> <s_epik_cmdline>
J2VwaWtfcHl0aG9uJywgJy1waCcsICc3LjAnLCAnLXRuJywgJzgnLCAnLW1hJywgJzIwMCcsICctbWV0YWxfYmluZGluZycsICctaW1hZScsICc8aW5maWxlLm1hZT4nLCAnLW9tYWUnLCAnPG91dGZpbGUubWFlPic=

> <r_lp_tautomer_probability>
1

> <r_epik_Ionization_Penalty>
0.00924946

> <r_epik_Ionization_Penalty_Charging>
0.00924645

> <r_epik_Ionization_Penalty_Neutral>
3.00629e-06

> <r_epik_State_Penalty>
0.0070118

> <r_epik_Charging_Adjusted_Penalty>
0.0162583

> <i_epik_Tot_Q>
1

> <i_epik_Tot_abs_Q>
1

> <r_epik_Metal_State_Penalty>
0.00702523

> <b_epik_Metal_Only>
0

> <s_lp_Force_Field>
OPLS_2005

> <r_lp_Energy>
13.7412

> <b_lp_Chiralities_Consistent>
1

> <s_lp_Variant>
AV-unprocessed.smi:3241-1

> <Gold.Version>
5.8.1

> <Gold.Id.Protein>
6NUR|6NUR_protein|mol2

> <Gold.PLP.Fitness>
46.9177

> <Gold.PLP.PLP>
-35.2312

> <Gold.PLP.part.hbond>
-2.0000

> <Gold.PLP.part.metal>
0.0000

> <Gold.PLP.part.buried>
-3.0817

> <Gold.PLP.part.nonpolar>
-32.7518

> <Gold.PLP.part.repulsive>
2.5303

> <Gold.PLP.ligand.clash>
0.0000

> <Gold.PLP.ligand.torsion>
1.2292

> <Gold.PLP.Chemscore.Hbond>
2.6880

> <Gold.PLP.Chemscore.CHOScore>
1.9987

> <Gold.PLP.Chemscore.Metal>
0.0000

> <Gold.Chemscore.Hbonds>
donor molecule, donor type, donor heavy atom, donor atom, acceptor molecule, acceptor atom, score
      L1  H    11    36       P1 10175  1.86
      L1  H    11    44       P1 10171  0.80
      L1  C    15    41       P1 10186  1.00
      L1  C    17    43       P1 10747  0.93

> <Gold.PLP.Chemscore.Internal.Correction>
0.0848

> <Gold.Rescore>
     Score         DG    S(hbond)    S(metal)    S(lipo)     H(rot)  DE(clash)    DE(int)     intcor
     15.81     -17.28       1.80        0.00      90.77       1.89       0.43       1.04       ----

> <Gold.Chemscore.Fitness>
15.8094

> <Gold.Chemscore.DG>
-17.2800

> <Gold.Chemscore.ZeroCoef>
-5.4800

> <Gold.Chemscore.Hbond>
1.8025

> <Gold.Chemscore.Metal>
0.0000

> <Gold.Chemscore.Lipo>
90.7654

> <Gold.Chemscore.Internal_Hbond>
0.0000

> <Gold.Chemscore.DEClash>
0.4320

> <Gold.Chemscore.DEInternal>
1.0387

> <Gold.Chemscore.Rot>
1.8906

> <Gold.Chemscore.Internal.Correction>
   9.000000E+99

> <Gold.Chemscore.Hbonds>
donor molecule, donor type, donor heavy atom, donor atom, acceptor molecule, acceptor atom, score
      L1  H    11    36       P1 10175  0.87
      L1  H    11    44       P1 10171  0.80

> <Gold.Chemscore.Hbond.Weighted>
-6.0205

> <Gold.Chemscore.Metal.Weighted>
-0.0000

> <Gold.Chemscore.Lipo.Weighted>
-10.6195

> <Gold.Chemscore.Internal_Hbond.Weighted>
0.0000

> <Gold.Chemscore.DEClash.Weighted>
0.4320

> <Gold.Chemscore.DEInternal.Weighted>
1.0387

> <Gold.Chemscore.Rot.Weighted>
4.8400

> <Gold.Chemscore.Internal.Correction.Weighted>
   9.000000E+99

> <Gold.Protein.RotatedTorsions>
[ 6907 6896 6895 6894 ] final -114.78 input  -60.11 | X-H torsion
[ 7974 7965 7964 7962 ] final  172.72 input  175.53 | X-H torsion
[ 8008 7997 7996 7995 ] final   60.49 input   59.86 | X-H torsion
[ 10167 10162 10161 10158 ] final   36.53 input  -65.29 | X-H torsion
[ 10718 10713 10712 10709 ] final -122.57 input   66.30 | X-H torsion
[ 10763 10752 10751 10750 ] final -165.83 input  -60.55 | X-H torsion
[ 11005 11000 10999 10996 ] final -121.12 input  -57.11 | X-H torsion

> <Gold.Protein.ActiveResidues>
 VAL166  LYS551  ARG553  GLY616  TRP617  ASP618  TYR619  PRO620  LYS621  CYS622 
 ASP623  PHE694  ASN695  SER759  ASP760  ASP761  ALA762  ILE779  LEU786  VAL792 
 PHE793  MET794  SER795  GLU796  ALA797  LYS798  CYS799  TRP800  GLU811  SER814 

> <Gold.Protein.RotatedAtoms>
  150.7927  133.8753  159.3269 H   0  0  0  0  0  0  0  0  0  0  0  0  # atno 6907 bound_to 6896
  151.6586  135.0990  160.0184 H   0  0  0  0  0  0  0  0  0  0  0  0  # atno 6908 bound_to 6896
  152.4004  133.6771  159.6347 H   0  0  0  0  0  0  0  0  0  0  0  0  # atno 6909 bound_to 6896
  144.7261  139.9541  143.6433 H   0  0  0  0  0  0  0  0  0  0  0  0  # atno 7974 bound_to 7965
  155.5832  140.3492  155.4546 H   0  0  0  0  0  0  0  0  0  0  0  0  # atno 8008 bound_to 7997
  156.0357  140.1284  157.0235 H   0  0  0  0  0  0  0  0  0  0  0  0  # atno 8009 bound_to 7997
  154.4371  140.1034  156.6150 H   0  0  0  0  0  0  0  0  0  0  0  0  # atno 8010 bound_to 7997
  140.4119  144.1581  150.6140 H   0  0  0  0  0  0  0  0  0  0  0  0  # atno 10167 bound_to 10162
  156.1430  130.6479  150.9799 H   0  0  0  0  0  0  0  0  0  0  0  0  # atno 10718 bound_to 10713
  154.6893  135.2968  154.9502 H   0  0  0  0  0  0  0  0  0  0  0  0  # atno 10763 bound_to 10752
  154.0471  135.6649  153.4800 H   0  0  0  0  0  0  0  0  0  0  0  0  # atno 10764 bound_to 10752
  153.0601  135.5121  154.7977 H   0  0  0  0  0  0  0  0  0  0  0  0  # atno 10765 bound_to 10752
  141.0093  134.0288  157.3435 H   0  0  0  0  0  0  0  0  0  0  0  0  # atno 11005 bound_to 11000
  146.0688  139.3678  143.0535 LP  0  0  0  0  0  0  0  0  0  0  0  0  # atno 17320 bound_to 7965
  145.7995  140.9777  143.1006 LP  0  0  0  0  0  0  0  0  0  0  0  0  # atno 17321 bound_to 7965
  140.4629  143.2442  151.9195 LP  0  0  0  0  0  0  0  0  0  0  0  0  # atno 17342 bound_to 10162
  139.4782  144.5449  151.8473 LP  0  0  0  0  0  0  0  0  0  0  0  0  # atno 17343 bound_to 10162
  157.6592  131.0884  150.7878 LP  0  0  0  0  0  0  0  0  0  0  0  0  # atno 17370 bound_to 10713
  156.7951  130.4903  149.5378 LP  0  0  0  0  0  0  0  0  0  0  0  0  # atno 17371 bound_to 10713
  139.9081  135.0184  156.7574 LP  0  0  0  0  0  0  0  0  0  0  0  0  # atno 17394 bound_to 11000
  140.6760  133.9517  155.7883 LP  0  0  0  0  0  0  0  0  0  0  0  0  # atno 17395 bound_to 11000

$$$$
