AV-unprocessed.smi:3241|AV-procd|sdf|12386|dock10
  -GOLD-   2272018253D 1   1.00000     0.00000
 Structure written by MMmdl.
 44 45  0  0  0  0  0  0  0  0  2 V2000
  145.9217  142.9907  153.6058 C   0  0  0  0  0  0  0  0  0  0  0  0
  147.1553  142.4670  154.3573 C   0  0  1  0  0  0  0  0  0  0  0  0
  146.8260  142.1331  155.8258 C   0  0  0  0  0  0  0  0  0  0  0  0
  148.0745  141.6679  156.5912 C   0  0  0  0  0  0  0  0  0  0  0  0
  148.7420  140.4720  155.8960 C   0  0  0  0  0  0  0  0  0  0  0  0
  149.0657  140.7877  154.4256 C   0  0  0  0  0  0  0  0  0  0  0  0
  147.8226  141.2629  153.6503 C   0  0  1  0  0  0  0  0  0  0  0  0
  146.9063  140.1766  153.5859 O   0  0  0  0  0  0  0  0  0  0  0  0
  147.3742  139.0447  152.8688 C   0  0  0  0  0  0  0  0  0  0  0  0
  146.1525  138.2932  152.3330 C   0  0  0  0  0  0  0  0  0  0  0  0
  146.5056  136.8897  152.0477 N   0  3  0  0  0  0  0  0  0  0  0  0
  145.9128  136.3408  150.8128 C   0  0  0  0  0  0  0  0  0  0  0  0
  144.6135  135.5749  151.1108 C   0  0  0  0  0  0  0  0  0  0  0  0
  144.7577  134.1460  150.8921 N   0  0  0  0  0  0  0  0  0  0  0  0
  143.7800  133.1736  150.9088 C   0  0  0  0  0  0  0  0  0  0  0  0
  144.3879  131.9819  150.6356 C   0  0  0  0  0  0  0  0  0  0  0  0
  145.7568  132.3306  150.4656 C   0  0  0  0  0  0  0  0  0  0  0  0
  145.9750  133.6270  150.6179 N   0  0  0  0  0  0  0  0  0  0  0  0
  145.1191  142.2536  153.5900 H   0  0  0  0  0  0  0  0  0  0  0  0
  146.1673  143.2430  152.5740 H   0  0  0  0  0  0  0  0  0  0  0  0
  145.5296  143.8909  154.0797 H   0  0  0  0  0  0  0  0  0  0  0  0
  147.8840  143.2792  154.3649 H   0  0  0  0  0  0  0  0  0  0  0  0
  146.4000  143.0063  156.3211 H   0  0  0  0  0  0  0  0  0  0  0  0
  146.0638  141.3539  155.8668 H   0  0  0  0  0  0  0  0  0  0  0  0
  148.7858  142.4914  156.6640 H   0  0  0  0  0  0  0  0  0  0  0  0
  147.8057  141.4010  157.6137 H   0  0  0  0  0  0  0  0  0  0  0  0
  149.6547  140.1977  156.4257 H   0  0  0  0  0  0  0  0  0  0  0  0
  148.0834  139.6042  155.9493 H   0  0  0  0  0  0  0  0  0  0  0  0
  149.8322  141.5626  154.3860 H   0  0  0  0  0  0  0  0  0  0  0  0
  149.4948  139.9096  153.9423 H   0  0  0  0  0  0  0  0  0  0  0  0
  148.1437  141.5617  152.6502 H   0  0  0  0  0  0  0  0  0  0  0  0
  148.0259  139.3370  152.0439 H   0  0  0  0  0  0  0  0  0  0  0  0
  147.9541  138.4070  153.5373 H   0  0  0  0  0  0  0  0  0  0  0  0
  145.3445  138.3153  153.0652 H   0  0  0  0  0  0  0  0  0  0  0  0
  145.7847  138.7781  151.4279 H   0  0  0  0  0  0  0  0  0  0  0  0
  147.5107  136.8354  151.9567 H   0  0  0  0  0  0  0  0  0  0  0  0
  145.7104  137.1605  150.1226 H   0  0  0  0  0  0  0  0  0  0  0  0
  146.6298  135.6792  150.3246 H   0  0  0  0  0  0  0  0  0  0  0  0
  144.2895  135.7486  152.1383 H   0  0  0  0  0  0  0  0  0  0  0  0
  143.8130  135.9391  150.4659 H   0  0  0  0  0  0  0  0  0  0  0  0
  142.7445  133.4079  151.1087 H   0  0  0  0  0  0  0  0  0  0  0  0
  143.9249  131.0086  150.5676 H   0  0  0  0  0  0  0  0  0  0  0  0
  146.5917  131.6856  150.2337 H   0  0  0  0  0  0  0  0  0  0  0  0
  146.2261  136.3148  152.8296 H   0  0  0  0  0  0  0  0  0  0  0  0
  1  2  1  0  0  0  0
  1 19  1  0  0  0  0
  1 20  1  0  0  0  0
  1 21  1  0  0  0  0
  2  7  1  0  0  0  0
  2  3  1  0  0  0  0
  2 22  1  0  0  0  0
  3  4  1  0  0  0  0
  3 23  1  0  0  0  0
  3 24  1  0  0  0  0
  4  5  1  0  0  0  0
  4 25  1  0  0  0  0
  4 26  1  0  0  0  0
  5  6  1  0  0  0  0
  5 27  1  0  0  0  0
  5 28  1  0  0  0  0
  6  7  1  0  0  0  0
  6 29  1  0  0  0  0
  6 30  1  0  0  0  0
  7  8  1  0  0  0  0
  7 31  1  0  0  0  0
  8  9  1  0  0  0  0
  9 10  1  0  0  0  0
  9 32  1  0  0  0  0
  9 33  1  0  0  0  0
 10 11  1  0  0  0  0
 10 34  1  0  0  0  0
 10 35  1  0  0  0  0
 11 12  1  0  0  0  0
 11 36  1  0  0  0  0
 11 44  1  0  0  0  0
 12 13  1  0  0  0  0
 12 37  1  0  0  0  0
 12 38  1  0  0  0  0
 13 14  1  0  0  0  0
 13 39  1  0  0  0  0
 13 40  1  0  0  0  0
 14 18  1  0  0  0  0
 14 15  1  0  0  0  0
 15 16  2  0  0  0  0
 15 41  1  0  0  0  0
 16 17  1  0  0  0  0
 16 42  1  0  0  0  0
 17 18  2  0  0  0  0
 17 43  1  0  0  0  0
M  CHG  1  11   1
M  END
> <s_m_source_file>
AV-unprocessed.smi

> <i_m_source_file_index>
3241

> <i_lp_mmshare_version>
43012

> <i_f3d_flags>
0

> <s_epik_input>
W0NIM11bQ0BASF0xW0NIMl1bQ0gyXVtDSDJdW0NIMl1bQ0BIXTFPW0NIMl1bQ0gyXVtOSF1bQ0gyXVtDSDJdbjJbY0hdW2NIXVtjSF1uMg==

> <s_epik_cmdline>
J2VwaWtfcHl0aG9uJywgJy1waCcsICc3LjAnLCAnLXRuJywgJzgnLCAnLW1hJywgJzIwMCcsICctbWV0YWxfYmluZGluZycsICctaW1hZScsICc8aW5maWxlLm1hZT4nLCAnLW9tYWUnLCAnPG91dGZpbGUubWFlPic=

> <r_lp_tautomer_probability>
1

> <r_epik_Ionization_Penalty>
0.00924946

> <r_epik_Ionization_Penalty_Charging>
0.00924645

> <r_epik_Ionization_Penalty_Neutral>
3.00629e-06

> <r_epik_State_Penalty>
0.0070118

> <r_epik_Charging_Adjusted_Penalty>
0.0162583

> <i_epik_Tot_Q>
1

> <i_epik_Tot_abs_Q>
1

> <r_epik_Metal_State_Penalty>
0.00702523

> <b_epik_Metal_Only>
0

> <s_lp_Force_Field>
OPLS_2005

> <r_lp_Energy>
14.1188

> <b_lp_Chiralities_Consistent>
1

> <s_lp_Variant>
AV-unprocessed.smi:3241-2

> <Gold.Version>
5.8.1

> <Gold.Id.Protein>
6NUR|6NUR_protein|mol2

> <Gold.PLP.Fitness>
46.6888

> <Gold.PLP.PLP>
-36.9228

> <Gold.PLP.part.hbond>
-0.9364

> <Gold.PLP.part.metal>
0.0000

> <Gold.PLP.part.buried>
-3.0510

> <Gold.PLP.part.nonpolar>
-34.0068

> <Gold.PLP.part.repulsive>
0.5832

> <Gold.PLP.ligand.clash>
0.0000

> <Gold.PLP.ligand.torsion>
1.2029

> <Gold.PLP.Chemscore.Hbond>
2.0000

> <Gold.PLP.Chemscore.CHOScore>
1.9953

> <Gold.PLP.Chemscore.Metal>
0.0000

> <Gold.Chemscore.Hbonds>
donor molecule, donor type, donor heavy atom, donor atom, acceptor molecule, acceptor atom, score
      L1  H    11    36       P1  7948  2.00
      L1  C    15    41       P1 10186  0.97
      L1  C    17    43       P1 10747  1.00

> <Gold.PLP.Chemscore.Internal.Correction>
0.1857

> <Gold.Rescore>
     Score         DG    S(hbond)    S(metal)    S(lipo)     H(rot)  DE(clash)    DE(int)     intcor
     13.93     -15.33       0.98        0.00      97.54       1.89       0.17       1.23       ----

> <Gold.Chemscore.Fitness>
13.9309

> <Gold.Chemscore.DG>
-15.3312

> <Gold.Chemscore.ZeroCoef>
-5.4800

> <Gold.Chemscore.Hbond>
0.9819

> <Gold.Chemscore.Metal>
0.0000

> <Gold.Chemscore.Lipo>
97.5366

> <Gold.Chemscore.Internal_Hbond>
0.0000

> <Gold.Chemscore.DEClash>
0.1715

> <Gold.Chemscore.DEInternal>
1.2288

> <Gold.Chemscore.Rot>
1.8906

> <Gold.Chemscore.Internal.Correction>
   9.000000E+99

> <Gold.Chemscore.Hbonds>
donor molecule, donor type, donor heavy atom, donor atom, acceptor molecule, acceptor atom, score
      L1  H    11    36       P1  7948  0.94

> <Gold.Chemscore.Hbond.Weighted>
-3.2795

> <Gold.Chemscore.Metal.Weighted>
-0.0000

> <Gold.Chemscore.Lipo.Weighted>
-11.4118

> <Gold.Chemscore.Internal_Hbond.Weighted>
0.0000

> <Gold.Chemscore.DEClash.Weighted>
0.1715

> <Gold.Chemscore.DEInternal.Weighted>
1.2288

> <Gold.Chemscore.Rot.Weighted>
4.8400

> <Gold.Chemscore.Internal.Correction.Weighted>
   9.000000E+99

> <Gold.Protein.RotatedTorsions>
[ 6907 6896 6895 6894 ] final -113.56 input  -60.11 | X-H torsion
[ 7974 7965 7964 7962 ] final  -41.23 input  175.53 | X-H torsion
[ 8008 7997 7996 7995 ] final   73.08 input   59.86 | X-H torsion
[ 10167 10162 10161 10158 ] final   73.68 input  -65.29 | X-H torsion
[ 10718 10713 10712 10709 ] final  -46.57 input   66.30 | X-H torsion
[ 10763 10752 10751 10750 ] final  -76.07 input  -60.55 | X-H torsion
[ 11005 11000 10999 10996 ] final   -2.77 input  -57.11 | X-H torsion

> <Gold.Protein.ActiveResidues>
 VAL166  LYS551  ARG553  GLY616  TRP617  ASP618  TYR619  PRO620  LYS621  CYS622 
 ASP623  PHE694  ASN695  SER759  ASP760  ASP761  ALA762  ILE779  LEU786  VAL792 
 PHE793  MET794  SER795  GLU796  ALA797  LYS798  CYS799  TRP800  GLU811  SER814 

> <Gold.Protein.RotatedAtoms>
  150.7838  133.8926  159.3317 H   0  0  0  0  0  0  0  0  0  0  0  0  # atno 6907 bound_to 6896
  151.6782  135.0964  160.0220 H   0  0  0  0  0  0  0  0  0  0  0  0  # atno 6908 bound_to 6896
  152.3897  133.6622  159.6263 H   0  0  0  0  0  0  0  0  0  0  0  0  # atno 6909 bound_to 6896
  146.0231  140.6826  142.9169 H   0  0  0  0  0  0  0  0  0  0  0  0  # atno 7974 bound_to 7965
  155.7784  140.3482  155.5284 H   0  0  0  0  0  0  0  0  0  0  0  0  # atno 8008 bound_to 7997
  155.8753  140.0993  157.1543 H   0  0  0  0  0  0  0  0  0  0  0  0  # atno 8009 bound_to 7997
  154.4020  140.1332  156.4116 H   0  0  0  0  0  0  0  0  0  0  0  0  # atno 8010 bound_to 7997
  140.0219  144.5534  150.7575 H   0  0  0  0  0  0  0  0  0  0  0  0  # atno 10167 bound_to 10162
  156.2169  130.4164  149.9042 H   0  0  0  0  0  0  0  0  0  0  0  0  # atno 10718 bound_to 10713
  154.4949  135.5810  153.6487 H   0  0  0  0  0  0  0  0  0  0  0  0  # atno 10763 bound_to 10752
  152.9868  135.6121  154.3077 H   0  0  0  0  0  0  0  0  0  0  0  0  # atno 10764 bound_to 10752
  154.2980  135.2847  155.2604 H   0  0  0  0  0  0  0  0  0  0  0  0  # atno 10765 bound_to 10752
  140.6620  133.9312  155.8442 H   0  0  0  0  0  0  0  0  0  0  0  0  # atno 11005 bound_to 11000
  144.6998  140.3601  143.7165 LP  0  0  0  0  0  0  0  0  0  0  0  0  # atno 17320 bound_to 7965
  145.7162  139.1697  143.2511 LP  0  0  0  0  0  0  0  0  0  0  0  0  # atno 17321 bound_to 7965
  140.7339  143.2722  151.3852 LP  0  0  0  0  0  0  0  0  0  0  0  0  # atno 17342 bound_to 10162
  139.6134  144.1052  152.2322 LP  0  0  0  0  0  0  0  0  0  0  0  0  # atno 17343 bound_to 10162
  156.6701  130.8817  151.3561 LP  0  0  0  0  0  0  0  0  0  0  0  0  # atno 17370 bound_to 10713
  157.7068  130.9394  150.0957 LP  0  0  0  0  0  0  0  0  0  0  0  0  # atno 17371 bound_to 10713
  141.0458  134.0556  157.3846 LP  0  0  0  0  0  0  0  0  0  0  0  0  # atno 17394 bound_to 11000
  139.9010  135.0164  156.7266 LP  0  0  0  0  0  0  0  0  0  0  0  0  # atno 17395 bound_to 11000

$$$$
