AV-unprocessed.smi:1279|AV-procd|sdf|5355|dock10
  -GOLD-   22720 4493D 1   1.00000     0.00000
 Structure written by MMmdl.
 46 47  0  0  0  0  0  0  0  0  2 V2000
  151.0429  142.8421  156.8660 C   0  0  0  0  0  0  0  0  0  0  0  0
  150.8748  141.6248  156.0055 C   0  0  0  0  0  0  0  0  0  0  0  0
  149.7636  141.2770  155.1833 C   0  0  0  0  0  0  0  0  0  0  0  0
  150.1526  140.0825  154.6413 C   0  0  0  0  0  0  0  0  0  0  0  0
  149.4851  139.2814  153.7689 N   0  0  0  0  0  0  0  0  0  0  0  0
  148.2177  139.3866  153.3326 C   0  0  0  0  0  0  0  0  0  0  0  0
  147.4174  140.2629  153.6604 O   0  0  0  0  0  0  0  0  0  0  0  0
  147.9150  138.3972  152.4798 N   0  0  0  0  0  0  0  0  0  0  0  0
  146.6251  138.2278  151.8206 C   0  0  0  0  0  0  0  0  0  0  0  0
  145.6069  137.5220  152.7375 C   0  0  0  0  0  0  0  0  0  0  0  0
  145.0653  136.2787  152.1331 N   0  3  2  0  0  0  0  0  0  0  0  0
  144.1682  135.5473  153.0650 C   0  0  0  0  0  0  0  0  0  0  0  0
  143.5128  134.3386  152.3759 C   0  0  0  0  0  0  0  0  0  0  0  0
  144.5703  133.3851  151.7958 C   0  0  1  0  0  0  0  0  0  0  0  0
  143.9275  132.1900  151.0780 C   0  0  0  0  0  0  0  0  0  0  0  0
  145.5034  134.1745  150.8629 C   0  0  0  0  0  0  0  0  0  0  0  0
  146.1198  135.3859  151.5822 C   0  0  0  0  0  0  0  0  0  0  0  0
  151.4051  139.7645  155.1176 N   0  0  0  0  0  0  0  0  0  0  0  0
  152.2343  138.6097  154.8325 C   0  0  0  0  0  0  0  0  0  0  0  0
  151.8479  140.7218  155.9609 N   0  0  0  0  0  0  0  0  0  0  0  0
  150.1652  143.4865  156.8125 H   0  0  0  0  0  0  0  0  0  0  0  0
  151.9058  143.4296  156.5511 H   0  0  0  0  0  0  0  0  0  0  0  0
  151.1887  142.5671  157.9109 H   0  0  0  0  0  0  0  0  0  0  0  0
  148.8473  141.8272  155.0310 H   0  0  0  0  0  0  0  0  0  0  0  0
  150.0157  138.4996  153.4137 H   0  0  0  0  0  0  0  0  0  0  0  0
  148.6314  137.7194  152.2627 H   0  0  0  0  0  0  0  0  0  0  0  0
  146.2422  139.1978  151.4984 H   0  0  0  0  0  0  0  0  0  0  0  0
  146.8024  137.6484  150.9155 H   0  0  0  0  0  0  0  0  0  0  0  0
  146.0480  137.2995  153.7105 H   0  0  0  0  0  0  0  0  0  0  0  0
  144.7814  138.2099  152.9257 H   0  0  0  0  0  0  0  0  0  0  0  0
  144.7357  135.2214  153.9383 H   0  0  0  0  0  0  0  0  0  0  0  0
  143.3861  136.2160  153.4264 H   0  0  0  0  0  0  0  0  0  0  0  0
  142.8828  133.8074  153.0903 H   0  0  0  0  0  0  0  0  0  0  0  0
  142.8515  134.6872  151.5812 H   0  0  0  0  0  0  0  0  0  0  0  0
  145.1660  132.9943  152.6221 H   0  0  0  0  0  0  0  0  0  0  0  0
  143.3183  132.5138  150.2335 H   0  0  0  0  0  0  0  0  0  0  0  0
  143.2852  131.6251  151.7543 H   0  0  0  0  0  0  0  0  0  0  0  0
  144.6870  131.5059  150.6979 H   0  0  0  0  0  0  0  0  0  0  0  0
  146.2980  133.5252  150.4933 H   0  0  0  0  0  0  0  0  0  0  0  0
  144.9505  134.5149  149.9859 H   0  0  0  0  0  0  0  0  0  0  0  0
  146.7475  135.9281  150.8764 H   0  0  0  0  0  0  0  0  0  0  0  0
  146.7719  135.0495  152.3898 H   0  0  0  0  0  0  0  0  0  0  0  0
  151.6444  137.6983  154.9337 H   0  0  0  0  0  0  0  0  0  0  0  0
  153.0756  138.5613  155.5257 H   0  0  0  0  0  0  0  0  0  0  0  0
  152.6161  138.6773  153.8138 H   0  0  0  0  0  0  0  0  0  0  0  0
  144.4865  136.5673  151.3572 H   0  0  0  0  0  0  0  0  0  0  0  0
  1  2  1  0  0  0  0
  1 21  1  0  0  0  0
  1 22  1  0  0  0  0
  1 23  1  0  0  0  0
  2 20  2  0  0  0  0
  2  3  1  0  0  0  0
  3  4  2  0  0  0  0
  3 24  1  0  0  0  0
  4  5  1  0  0  0  0
  4 18  1  0  0  0  0
  5  6  1  0  0  0  0
  5 25  1  0  0  0  0
  6  7  2  0  0  0  0
  6  8  1  0  0  0  0
  8  9  1  0  0  0  0
  8 26  1  0  0  0  0
  9 10  1  0  0  0  0
  9 27  1  0  0  0  0
  9 28  1  0  0  0  0
 10 11  1  0  0  0  0
 10 29  1  0  0  0  0
 10 30  1  0  0  0  0
 11 17  1  0  0  0  0
 11 12  1  0  0  0  0
 11 46  1  0  0  0  0
 12 13  1  0  0  0  0
 12 31  1  0  0  0  0
 12 32  1  0  0  0  0
 13 14  1  0  0  0  0
 13 33  1  0  0  0  0
 13 34  1  0  0  0  0
 14 15  1  0  0  0  0
 14 16  1  0  0  0  0
 14 35  1  0  0  0  0
 15 36  1  0  0  0  0
 15 37  1  0  0  0  0
 15 38  1  0  0  0  0
 16 17  1  0  0  0  0
 16 39  1  0  0  0  0
 16 40  1  0  0  0  0
 17 41  1  0  0  0  0
 17 42  1  0  0  0  0
 18 19  1  0  0  0  0
 18 20  1  0  0  0  0
 19 43  1  0  0  0  0
 19 44  1  0  0  0  0
 19 45  1  0  0  0  0
M  CHG  1  11   1
M  END
> <s_m_source_file>
AV-unprocessed.smi

> <i_m_source_file_index>
1279

> <i_lp_mmshare_version>
43012

> <i_f3d_flags>
0

> <s_epik_input>
W0NIM11jMVtjSF1jKG4objEpW0NIM10pW05IXUMoPU8pW05IXVtDSDJdW0NIMl1OMltDSDJdW0NIMl1bQ0hdKFtDSDNdKVtDSDJdW0NIMl0y

> <s_epik_cmdline>
J2VwaWtfcHl0aG9uJywgJy1waCcsICc3LjAnLCAnLXRuJywgJzgnLCAnLW1hJywgJzIwMCcsICctbWV0YWxfYmluZGluZycsICctaW1hZScsICc8aW5maWxlLm1hZT4nLCAnLW9tYWUnLCAnPG91dGZpbGUubWFlPic=

> <r_lp_tautomer_probability>
1

> <r_epik_Ionization_Penalty>
0.00166091

> <r_epik_Ionization_Penalty_Charging>
0.0015841

> <r_epik_Ionization_Penalty_Neutral>
7.68112e-05

> <r_epik_State_Penalty>
0.00106518

> <r_epik_Charging_Adjusted_Penalty>
0.00264928

> <i_epik_Tot_Q>
1

> <i_epik_Tot_abs_Q>
1

> <r_epik_Metal_State_Penalty>
-0

> <b_epik_Metal_Only>
0

> <s_lp_Force_Field>
OPLS_2005

> <r_lp_Energy>
17.7032

> <b_lp_Chiralities_Consistent>
1

> <s_lp_Variant>
AV-unprocessed.smi:1279-1

> <Gold.Version>
5.8.1

> <Gold.Id.Protein>
6NUR|6NUR_protein|mol2

> <Gold.PLP.Fitness>
44.3670

> <Gold.PLP.PLP>
-40.1792

> <Gold.PLP.part.hbond>
-3.9918

> <Gold.PLP.part.metal>
0.0000

> <Gold.PLP.part.buried>
2.9978

> <Gold.PLP.part.nonpolar>
-38.6583

> <Gold.PLP.part.repulsive>
0.3383

> <Gold.PLP.ligand.clash>
0.0000

> <Gold.PLP.ligand.torsion>
0.5856

> <Gold.PLP.Chemscore.Hbond>
1.7738

> <Gold.PLP.Chemscore.CHOScore>
0.0000

> <Gold.PLP.Chemscore.Metal>
0.0000

> <Gold.Chemscore.Hbonds>
donor molecule, donor type, donor heavy atom, donor atom, acceptor molecule, acceptor atom, score
      L1  H     8    26       P1  7948  0.96

> <Gold.PLP.Chemscore.Internal.Correction>
0.0377

> <Gold.Rescore>
     Score         DG    S(hbond)    S(metal)    S(lipo)     H(rot)  DE(clash)    DE(int)     intcor
     14.16     -17.34       1.82        0.00      81.77       1.48       1.48       1.70       ----

> <Gold.Chemscore.Fitness>
14.1646

> <Gold.Chemscore.DG>
-17.3437

> <Gold.Chemscore.ZeroCoef>
-5.4800

> <Gold.Chemscore.Hbond>
1.8249

> <Gold.Chemscore.Metal>
0.0000

> <Gold.Chemscore.Lipo>
81.7697

> <Gold.Chemscore.Internal_Hbond>
0.0000

> <Gold.Chemscore.DEClash>
1.4830

> <Gold.Chemscore.DEInternal>
1.6960

> <Gold.Chemscore.Rot>
1.4838

> <Gold.Chemscore.Internal.Correction>
   9.000000E+99

> <Gold.Chemscore.Hbonds>
donor molecule, donor type, donor heavy atom, donor atom, acceptor molecule, acceptor atom, score
      L1  H     8    26       P1  7948  0.87

> <Gold.Chemscore.Hbond.Weighted>
-6.0951

> <Gold.Chemscore.Metal.Weighted>
-0.0000

> <Gold.Chemscore.Lipo.Weighted>
-9.5671

> <Gold.Chemscore.Internal_Hbond.Weighted>
0.0000

> <Gold.Chemscore.DEClash.Weighted>
1.4830

> <Gold.Chemscore.DEInternal.Weighted>
1.6960

> <Gold.Chemscore.Rot.Weighted>
3.7985

> <Gold.Chemscore.Internal.Correction.Weighted>
   9.000000E+99

> <Gold.Protein.RotatedTorsions>
[ 6907 6896 6895 6894 ] final   52.64 input  -60.11 | X-H torsion
[ 7974 7965 7964 7962 ] final   67.75 input  175.53 | X-H torsion
[ 8008 7997 7996 7995 ] final -178.58 input   59.86 | X-H torsion
[ 10167 10162 10161 10158 ] final  -11.30 input  -65.29 | X-H torsion
[ 10718 10713 10712 10709 ] final -127.09 input   66.30 | X-H torsion
[ 10763 10752 10751 10750 ] final   66.49 input  -60.55 | X-H torsion
[ 11005 11000 10999 10996 ] final   95.75 input  -57.11 | X-H torsion

> <Gold.Protein.ActiveResidues>
 VAL166  LYS551  ARG553  GLY616  TRP617  ASP618  TYR619  PRO620  LYS621  CYS622 
 ASP623  PHE694  ASN695  SER759  ASP760  ASP761  ALA762  ILE779  LEU786  VAL792 
 PHE793  MET794  SER795  GLU796  ALA797  LYS798  CYS799  TRP800  GLU811  SER814 

> <Gold.Protein.RotatedAtoms>
  152.3254  134.7327  160.0302 H   0  0  0  0  0  0  0  0  0  0  0  0  # atno 6907 bound_to 6896
  151.7761  133.3340  159.3466 H   0  0  0  0  0  0  0  0  0  0  0  0  # atno 6908 bound_to 6896
  150.7393  134.5905  159.6029 H   0  0  0  0  0  0  0  0  0  0  0  0  # atno 6909 bound_to 6896
  145.8109  139.3032  143.1099 H   0  0  0  0  0  0  0  0  0  0  0  0  # atno 7974 bound_to 7965
  156.0205  140.1260  157.0362 H   0  0  0  0  0  0  0  0  0  0  0  0  # atno 8008 bound_to 7997
  154.4310  140.1069  156.6027 H   0  0  0  0  0  0  0  0  0  0  0  0  # atno 8009 bound_to 7997
  155.5951  140.3470  155.4580 H   0  0  0  0  0  0  0  0  0  0  0  0  # atno 8010 bound_to 7997
  140.7135  143.5654  150.9150 H   0  0  0  0  0  0  0  0  0  0  0  0  # atno 10167 bound_to 10162
  156.1825  130.6741  151.0322 H   0  0  0  0  0  0  0  0  0  0  0  0  # atno 10718 bound_to 10713
  153.0142  135.5318  154.6832 H   0  0  0  0  0  0  0  0  0  0  0  0  # atno 10763 bound_to 10752
  154.5986  135.2866  155.0561 H   0  0  0  0  0  0  0  0  0  0  0  0  # atno 10764 bound_to 10752
  154.1627  135.6545  153.5042 H   0  0  0  0  0  0  0  0  0  0  0  0  # atno 10765 bound_to 10752
  139.8786  134.8915  156.4057 H   0  0  0  0  0  0  0  0  0  0  0  0  # atno 11005 bound_to 11000
  145.9778  140.8708  143.0130 LP  0  0  0  0  0  0  0  0  0  0  0  0  # atno 17320 bound_to 7965
  144.6757  140.2037  143.7384 LP  0  0  0  0  0  0  0  0  0  0  0  0  # atno 17321 bound_to 7965
  139.9380  143.6415  152.3060 LP  0  0  0  0  0  0  0  0  0  0  0  0  # atno 17342 bound_to 10162
  139.6890  144.7649  151.1473 LP  0  0  0  0  0  0  0  0  0  0  0  0  # atno 17343 bound_to 10162
  157.6877  131.0819  150.7195 LP  0  0  0  0  0  0  0  0  0  0  0  0  # atno 17370 bound_to 10713
  156.7252  130.4693  149.5513 LP  0  0  0  0  0  0  0  0  0  0  0  0  # atno 17371 bound_to 10713
  140.9236  133.7628  155.9937 LP  0  0  0  0  0  0  0  0  0  0  0  0  # atno 17394 bound_to 11000
  140.8411  134.3065  157.5313 LP  0  0  0  0  0  0  0  0  0  0  0  0  # atno 17395 bound_to 11000

$$$$
