AV-unprocessed.smi:3056|AV-procd|sdf|11645|dock8
  -GOLD-   2272017 43D 1   1.00000     0.00000
 Structure written by MMmdl.
 48 49  0  0  0  0  0  0  0  0  2 V2000
  146.3993  142.5751  153.9724 C   0  0  0  0  0  0  0  0  0  0  0  0
  147.6061  141.8158  154.4442 C   0  0  0  0  0  0  0  0  0  0  0  0
  148.3400  140.8164  153.7458 C   0  0  0  0  0  0  0  0  0  0  0  0
  149.3598  140.3462  154.4451 N   0  0  0  0  0  0  0  0  0  0  0  0
  149.3080  141.0112  155.6202 N   0  0  0  0  0  0  0  0  0  0  0  0
  150.3265  140.7462  156.6334 C   0  0  2  0  0  0  0  0  0  0  0  0
  150.0275  139.4507  157.4105 C   0  0  0  0  0  0  0  0  0  0  0  0
  150.5584  141.9603  157.5760 C   0  0  2  0  0  0  0  0  0  0  0  0
  149.3238  142.3403  158.4130 C   0  0  0  0  0  0  0  0  0  0  0  0
  151.0039  143.1523  156.8140 N   0  3  0  0  0  0  0  0  0  0  0  0
  152.1250  143.9202  157.4059 C   0  0  0  0  0  0  0  0  0  0  0  0
  151.8064  144.4923  158.7987 C   0  0  0  0  0  0  0  0  0  0  0  0
  151.4043  145.6540  158.8854 O   0  0  0  0  0  0  0  0  0  0  0  0
  151.9804  143.7056  159.8877 N   0  0  0  0  0  0  0  0  0  0  0  0
  151.7512  144.0964  161.2821 C   0  0  0  0  0  0  0  0  0  0  0  0
  153.0958  144.0388  162.0281 C   0  0  0  0  0  0  0  0  0  0  0  0
  153.6457  142.7278  161.9236 O   0  0  0  0  0  0  0  0  0  0  0  0
  153.8600  142.3081  160.5770 C   0  0  1  0  0  0  0  0  0  0  0  0
  154.4753  140.9048  160.6041 C   0  0  0  0  0  0  0  0  0  0  0  0
  152.5179  142.3436  159.8178 C   0  0  0  0  0  0  0  0  0  0  0  0
  148.2639  141.9171  155.6368 C   0  0  0  0  0  0  0  0  0  0  0  0
  145.9841  142.1508  153.0579 H   0  0  0  0  0  0  0  0  0  0  0  0
  146.6369  143.6184  153.7643 H   0  0  0  0  0  0  0  0  0  0  0  0
  145.6034  142.5687  154.7174 H   0  0  0  0  0  0  0  0  0  0  0  0
  148.1648  140.4243  152.7546 H   0  0  0  0  0  0  0  0  0  0  0  0
  151.2546  140.5463  156.0964 H   0  0  0  0  0  0  0  0  0  0  0  0
  150.8456  139.2059  158.0883 H   0  0  0  0  0  0  0  0  0  0  0  0
  149.9054  138.6065  156.7310 H   0  0  0  0  0  0  0  0  0  0  0  0
  149.1199  139.5272  158.0087 H   0  0  0  0  0  0  0  0  0  0  0  0
  151.3506  141.7004  158.2797 H   0  0  0  0  0  0  0  0  0  0  0  0
  148.9691  141.4997  159.0090 H   0  0  0  0  0  0  0  0  0  0  0  0
  148.4968  142.6808  157.7893 H   0  0  0  0  0  0  0  0  0  0  0  0
  149.5610  143.1483  159.1057 H   0  0  0  0  0  0  0  0  0  0  0  0
  151.2701  142.8423  155.8899 H   0  0  0  0  0  0  0  0  0  0  0  0
  153.0230  143.3039  157.4441 H   0  0  0  0  0  0  0  0  0  0  0  0
  152.3333  144.7557  156.7369 H   0  0  0  0  0  0  0  0  0  0  0  0
  151.3091  145.0841  161.3989 H   0  0  0  0  0  0  0  0  0  0  0  0
  151.0438  143.4008  161.7361 H   0  0  0  0  0  0  0  0  0  0  0  0
  153.7969  144.7715  161.6249 H   0  0  0  0  0  0  0  0  0  0  0  0
  152.9535  144.2780  163.0820 H   0  0  0  0  0  0  0  0  0  0  0  0
  154.5683  142.9893  160.1020 H   0  0  0  0  0  0  0  0  0  0  0  0
  154.6787  140.5461  159.5949 H   0  0  0  0  0  0  0  0  0  0  0  0
  153.8081  140.1896  161.0860 H   0  0  0  0  0  0  0  0  0  0  0  0
  155.4172  140.9034  161.1532 H   0  0  0  0  0  0  0  0  0  0  0  0
  151.8059  141.6513  160.2702 H   0  0  0  0  0  0  0  0  0  0  0  0
  152.6646  141.9987  158.7934 H   0  0  0  0  0  0  0  0  0  0  0  0
  148.0718  142.5565  156.4856 H   0  0  0  0  0  0  0  0  0  0  0  0
  150.2218  143.7857  156.7272 H   0  0  0  0  0  0  0  0  0  0  0  0
  1  2  1  0  0  0  0
  1 22  1  0  0  0  0
  1 23  1  0  0  0  0
  1 24  1  0  0  0  0
  2 21  2  0  0  0  0
  2  3  1  0  0  0  0
  3  4  2  0  0  0  0
  3 25  1  0  0  0  0
  4  5  1  0  0  0  0
  5  6  1  0  0  0  0
  5 21  1  0  0  0  0
  6  7  1  0  0  0  0
  6  8  1  0  0  0  0
  6 26  1  0  0  0  0
  7 27  1  0  0  0  0
  7 28  1  0  0  0  0
  7 29  1  0  0  0  0
  8  9  1  0  0  0  0
  8 10  1  0  0  0  0
  8 30  1  0  0  0  0
  9 31  1  0  0  0  0
  9 32  1  0  0  0  0
  9 33  1  0  0  0  0
 10 11  1  0  0  0  0
 10 34  1  0  0  0  0
 10 48  1  0  0  0  0
 11 12  1  0  0  0  0
 11 35  1  0  0  0  0
 11 36  1  0  0  0  0
 12 13  2  0  0  0  0
 12 14  1  0  0  0  0
 14 20  1  0  0  0  0
 14 15  1  0  0  0  0
 15 16  1  0  0  0  0
 15 37  1  0  0  0  0
 15 38  1  0  0  0  0
 16 17  1  0  0  0  0
 16 39  1  0  0  0  0
 16 40  1  0  0  0  0
 17 18  1  0  0  0  0
 18 19  1  0  0  0  0
 18 20  1  0  0  0  0
 18 41  1  0  0  0  0
 19 42  1  0  0  0  0
 19 43  1  0  0  0  0
 19 44  1  0  0  0  0
 20 45  1  0  0  0  0
 20 46  1  0  0  0  0
 21 47  1  0  0  0  0
M  CHG  1  10   1
M  END
> <s_m_source_file>
AV-unprocessed.smi

> <i_m_source_file_index>
3056

> <i_lp_mmshare_version>
43012

> <i_f3d_flags>
0

> <s_epik_input>
W0NIM11jMVtjSF1ubihbY0hdMSlbQ0BIXShbQ0gzXSlbQ0BIXShbQ0gzXSlbTkhdW0NIMl1DKD1PKU4yW0NIMl1bQ0gyXU9bQ0BASF0oW0NIM10pW0NIMl0y

> <s_epik_cmdline>
J2VwaWtfcHl0aG9uJywgJy1waCcsICc3LjAnLCAnLXRuJywgJzgnLCAnLW1hJywgJzIwMCcsICctbWV0YWxfYmluZGluZycsICctaW1hZScsICc8aW5maWxlLm1hZT4nLCAnLW9tYWUnLCAnPG91dGZpbGUubWFlPic=

> <r_lp_tautomer_probability>
1

> <r_epik_Ionization_Penalty>
0.233715

> <r_epik_Ionization_Penalty_Charging>
0.233698

> <r_epik_Ionization_Penalty_Neutral>
1.68157e-05

> <r_epik_State_Penalty>
0.225221

> <r_epik_Charging_Adjusted_Penalty>
0.458919

> <i_epik_Tot_Q>
1

> <i_epik_Tot_abs_Q>
1

> <r_epik_Metal_State_Penalty>
0.225535

> <b_epik_Metal_Only>
0

> <s_lp_Force_Field>
OPLS_2005

> <r_lp_Energy>
27.9094

> <b_lp_Chiralities_Consistent>
1

> <s_lp_Variant>
AV-unprocessed.smi:3056-1

> <Gold.Version>
5.8.1

> <Gold.Id.Protein>
6NUR|6NUR_protein|mol2

> <Gold.PLP.Fitness>
51.8390

> <Gold.PLP.PLP>
-44.6841

> <Gold.PLP.part.hbond>
-2.0000

> <Gold.PLP.part.metal>
0.0000

> <Gold.PLP.part.buried>
-2.7237

> <Gold.PLP.part.nonpolar>
-39.0577

> <Gold.PLP.part.repulsive>
0.3617

> <Gold.PLP.ligand.clash>
0.0000

> <Gold.PLP.ligand.torsion>
1.5423

> <Gold.PLP.Chemscore.Hbond>
2.0000

> <Gold.PLP.Chemscore.CHOScore>
1.3705

> <Gold.PLP.Chemscore.Metal>
0.0000

> <Gold.Chemscore.Hbonds>
donor molecule, donor type, donor heavy atom, donor atom, acceptor molecule, acceptor atom, score
      L1  H    10    48       P1  8028  2.00
      L1  C     3    25       P1  7957  0.99
      L1  C    21    47       P1  8028  0.44

> <Gold.PLP.Chemscore.Internal.Correction>
0.1281

> <Gold.Rescore>
     Score         DG    S(hbond)    S(metal)    S(lipo)     H(rot)  DE(clash)    DE(int)     intcor
     12.89     -16.26       0.98        0.00     102.28       1.74       0.30       3.07       ----

> <Gold.Chemscore.Fitness>
12.8897

> <Gold.Chemscore.DG>
-16.2609

> <Gold.Chemscore.ZeroCoef>
-5.4800

> <Gold.Chemscore.Hbond>
0.9751

> <Gold.Chemscore.Metal>
0.0000

> <Gold.Chemscore.Lipo>
102.2791

> <Gold.Chemscore.Internal_Hbond>
0.0000

> <Gold.Chemscore.DEClash>
0.2985

> <Gold.Chemscore.DEInternal>
3.0727

> <Gold.Chemscore.Rot>
1.7354

> <Gold.Chemscore.Internal.Correction>
   9.000000E+99

> <Gold.Chemscore.Hbonds>
donor molecule, donor type, donor heavy atom, donor atom, acceptor molecule, acceptor atom, score
      L1  H    10    48       P1  8028  0.96

> <Gold.Chemscore.Hbond.Weighted>
-3.2569

> <Gold.Chemscore.Metal.Weighted>
-0.0000

> <Gold.Chemscore.Lipo.Weighted>
-11.9667

> <Gold.Chemscore.Internal_Hbond.Weighted>
0.0000

> <Gold.Chemscore.DEClash.Weighted>
0.2985

> <Gold.Chemscore.DEInternal.Weighted>
3.0727

> <Gold.Chemscore.Rot.Weighted>
4.4426

> <Gold.Chemscore.Internal.Correction.Weighted>
   9.000000E+99

> <Gold.Protein.RotatedTorsions>
[ 6907 6896 6895 6894 ] final  -76.52 input  -60.11 | X-H torsion
[ 7974 7965 7964 7962 ] final   98.10 input  175.53 | X-H torsion
[ 8008 7997 7996 7995 ] final -165.10 input   59.86 | X-H torsion
[ 10167 10162 10161 10158 ] final  123.30 input  -65.29 | X-H torsion
[ 10718 10713 10712 10709 ] final   70.22 input   66.30 | X-H torsion
[ 10763 10752 10751 10750 ] final -102.17 input  -60.55 | X-H torsion
[ 11005 11000 10999 10996 ] final   46.77 input  -57.11 | X-H torsion

> <Gold.Protein.ActiveResidues>
 VAL166  LYS551  ARG553  GLY616  TRP617  ASP618  TYR619  PRO620  LYS621  CYS622 
 ASP623  PHE694  ASN695  SER759  ASP760  ASP761  ALA762  ILE779  LEU786  VAL792 
 PHE793  MET794  SER795  GLU796  ALA797  LYS798  CYS799  TRP800  GLU811  SER814 

> <Gold.Protein.RotatedAtoms>
  150.7025  134.4559  159.5357 H   0  0  0  0  0  0  0  0  0  0  0  0  # atno 6907 bound_to 6896
  152.2243  134.8380  160.0491 H   0  0  0  0  0  0  0  0  0  0  0  0  # atno 6908 bound_to 6896
  151.9219  133.3553  159.3937 H   0  0  0  0  0  0  0  0  0  0  0  0  # atno 6909 bound_to 6896
  145.4167  139.2326  143.3218 H   0  0  0  0  0  0  0  0  0  0  0  0  # atno 7974 bound_to 7965
  155.8450  140.0954  157.1711 H   0  0  0  0  0  0  0  0  0  0  0  0  # atno 8008 bound_to 7997
  154.3983  140.1394  156.3836 H   0  0  0  0  0  0  0  0  0  0  0  0  # atno 8009 bound_to 7997
  155.8023  140.3452  155.5412 H   0  0  0  0  0  0  0  0  0  0  0  0  # atno 8010 bound_to 7997
  139.5807  144.6985  151.3535 H   0  0  0  0  0  0  0  0  0  0  0  0  # atno 10167 bound_to 10162
  157.6388  130.9466  150.0620 H   0  0  0  0  0  0  0  0  0  0  0  0  # atno 10718 bound_to 10713
  154.7714  135.4870  153.9656 H   0  0  0  0  0  0  0  0  0  0  0  0  # atno 10763 bound_to 10752
  153.1372  135.6765  153.9091 H   0  0  0  0  0  0  0  0  0  0  0  0  # atno 10764 bound_to 10752
  153.8777  135.3136  155.3423 H   0  0  0  0  0  0  0  0  0  0  0  0  # atno 10765 bound_to 10752
  140.1339  134.4670  155.8500 H   0  0  0  0  0  0  0  0  0  0  0  0  # atno 11005 bound_to 11000
  146.2677  140.4886  142.8827 LP  0  0  0  0  0  0  0  0  0  0  0  0  # atno 17320 bound_to 7965
  144.8272  140.6648  143.6314 LP  0  0  0  0  0  0  0  0  0  0  0  0  # atno 17321 bound_to 7965
  140.7086  143.7450  150.7525 LP  0  0  0  0  0  0  0  0  0  0  0  0  # atno 17342 bound_to 10162
  140.0982  143.4813  152.2440 LP  0  0  0  0  0  0  0  0  0  0  0  0  # atno 17343 bound_to 10162
  156.1650  130.3645  149.9245 LP  0  0  0  0  0  0  0  0  0  0  0  0  # atno 17370 bound_to 10713
  156.7234  130.9015  151.3620 LP  0  0  0  0  0  0  0  0  0  0  0  0  # atno 17371 bound_to 10713
  141.2175  133.6806  156.7120 LP  0  0  0  0  0  0  0  0  0  0  0  0  # atno 17394 bound_to 11000
  140.2807  134.8319  157.3931 LP  0  0  0  0  0  0  0  0  0  0  0  0  # atno 17395 bound_to 11000

$$$$
