AV-unprocessed.smi:1424|AV-procd|sdf|5800|dock7
  -GOLD-   22720 5453D 1   1.00000     0.00000
 Structure written by MMmdl.
 45 47  0  0  0  0  0  0  0  0  1 V2000
  149.5510  132.7128  154.9291 O   0  0  0  0  0  0  0  0  0  0  0  0
  149.2677  133.6426  154.1742 C   0  0  0  0  0  0  0  0  0  0  0  0
  149.8399  134.8513  154.2489 N   0  0  0  0  0  0  0  0  0  0  0  0
  150.8473  135.2230  155.2343 C   0  0  0  0  0  0  0  0  0  0  0  0
  150.9257  136.7499  155.4041 C   0  0  1  0  0  0  0  0  0  0  0  0
  151.8210  137.1626  156.5886 C   0  0  0  0  0  0  0  0  0  0  0  0
  152.0579  138.6740  156.5178 C   0  0  0  0  0  0  0  0  0  0  0  0
  152.1383  139.0735  154.7331 S   0  0  0  0  0  0  0  0  0  0  0  0
  151.1952  140.1641  154.4428 O   0  0  0  0  0  0  0  0  0  0  0  0
  153.5454  139.1571  154.3131 O   0  0  0  0  0  0  0  0  0  0  0  0
  151.4379  137.4815  154.1503 C   0  0  0  0  0  0  0  0  0  0  0  0
  148.3744  133.5899  153.1717 N   0  0  0  0  0  0  0  0  0  0  0  0
  147.5602  132.4969  152.7542 C   0  0  0  0  0  0  0  0  0  0  0  0
  147.7743  131.1630  153.1807 C   0  0  0  0  0  0  0  0  0  0  0  0
  146.9060  130.1512  152.7324 C   0  0  0  0  0  0  0  0  0  0  0  0
  145.8471  130.5077  151.8788 C   0  0  0  0  0  0  0  0  0  0  0  0
  145.6204  131.7738  151.4740 N   0  0  0  0  0  0  0  0  0  0  0  0
  146.4541  132.7528  151.9029 C   0  0  0  0  0  0  0  0  0  0  0  0
  146.1944  134.0657  151.4706 N   0  0  0  0  0  0  0  0  0  0  0  0
  145.1971  134.1978  150.4221 C   0  0  0  0  0  0  0  0  0  0  0  0
  144.8475  135.6865  150.3874 C   0  0  0  0  0  0  0  0  0  0  0  0
  145.2013  136.2043  151.7872 C   0  0  0  0  0  0  0  0  0  0  0  0
  145.8092  135.0009  152.5147 C   0  0  0  0  0  0  0  0  0  0  0  0
  149.5595  135.5593  153.5860 H   0  0  0  0  0  0  0  0  0  0  0  0
  150.6003  134.7573  156.1897 H   0  0  0  0  0  0  0  0  0  0  0  0
  151.8163  134.8266  154.9270 H   0  0  0  0  0  0  0  0  0  0  0  0
  149.9227  137.1247  155.6154 H   0  0  0  0  0  0  0  0  0  0  0  0
  151.3850  136.8734  157.5454 H   0  0  0  0  0  0  0  0  0  0  0  0
  152.7817  136.6518  156.5084 H   0  0  0  0  0  0  0  0  0  0  0  0
  151.2161  139.2171  156.9476 H   0  0  0  0  0  0  0  0  0  0  0  0
  152.9723  138.9902  157.0196 H   0  0  0  0  0  0  0  0  0  0  0  0
  152.2410  136.9223  153.6691 H   0  0  0  0  0  0  0  0  0  0  0  0
  150.6551  137.6645  153.4142 H   0  0  0  0  0  0  0  0  0  0  0  0
  148.3149  134.4122  152.5889 H   0  0  0  0  0  0  0  0  0  0  0  0
  148.5746  130.8962  153.8525 H   0  0  0  0  0  0  0  0  0  0  0  0
  147.0461  129.1258  153.0408 H   0  0  0  0  0  0  0  0  0  0  0  0
  145.1601  129.7575  151.5162 H   0  0  0  0  0  0  0  0  0  0  0  0
  145.5856  133.8529  149.4634 H   0  0  0  0  0  0  0  0  0  0  0  0
  144.3090  133.6100  150.6582 H   0  0  0  0  0  0  0  0  0  0  0  0
  145.4554  136.1974  149.6396 H   0  0  0  0  0  0  0  0  0  0  0  0
  143.8001  135.8504  150.1328 H   0  0  0  0  0  0  0  0  0  0  0  0
  145.9272  137.0149  151.7131 H   0  0  0  0  0  0  0  0  0  0  0  0
  144.3288  136.5874  152.3171 H   0  0  0  0  0  0  0  0  0  0  0  0
  145.0702  134.5511  153.1794 H   0  0  0  0  0  0  0  0  0  0  0  0
  146.6709  135.2902  153.1170 H   0  0  0  0  0  0  0  0  0  0  0  0
  1  2  2  0  0  0  0
  2  3  1  0  0  0  0
  2 12  1  0  0  0  0
  3  4  1  0  0  0  0
  3 24  1  0  0  0  0
  4  5  1  0  0  0  0
  4 25  1  0  0  0  0
  4 26  1  0  0  0  0
  5 11  1  0  0  0  0
  5  6  1  0  0  0  0
  5 27  1  0  0  0  0
  6  7  1  0  0  0  0
  6 28  1  0  0  0  0
  6 29  1  0  0  0  0
  7  8  1  0  0  0  0
  7 30  1  0  0  0  0
  7 31  1  0  0  0  0
  8  9  2  0  0  0  0
  8 10  2  0  0  0  0
  8 11  1  0  0  0  0
 11 32  1  0  0  0  0
 11 33  1  0  0  0  0
 12 13  1  0  0  0  0
 12 34  1  0  0  0  0
 13 18  1  0  0  0  0
 13 14  2  0  0  0  0
 14 15  1  0  0  0  0
 14 35  1  0  0  0  0
 15 16  2  0  0  0  0
 15 36  1  0  0  0  0
 16 17  1  0  0  0  0
 16 37  1  0  0  0  0
 17 18  2  0  0  0  0
 18 19  1  0  0  0  0
 19 23  1  0  0  0  0
 19 20  1  0  0  0  0
 20 21  1  0  0  0  0
 20 38  1  0  0  0  0
 20 39  1  0  0  0  0
 21 22  1  0  0  0  0
 21 40  1  0  0  0  0
 21 41  1  0  0  0  0
 22 23  1  0  0  0  0
 22 42  1  0  0  0  0
 22 43  1  0  0  0  0
 23 44  1  0  0  0  0
 23 45  1  0  0  0  0
M  END
> <s_m_source_file>
AV-unprocessed.smi

> <i_m_source_file_index>
1424

> <i_lp_mmshare_version>
43012

> <i_f3d_flags>
0

> <s_epik_input>
Tz1TMSg9TylbQ0gyXVtDSDJdW0NASF0oW0NIMl0xKVtDSDJdW05IXUMoPU8pW05IXWMyW2NIXVtjSF1bY0hdbmMyTjNbQ0gyXVtDSDJdW0NIMl1bQ0gyXTM=

> <s_epik_cmdline>
J2VwaWtfcHl0aG9uJywgJy1waCcsICc3LjAnLCAnLXRuJywgJzgnLCAnLW1hJywgJzIwMCcsICctbWV0YWxfYmluZGluZycsICctaW1hZScsICc8aW5maWxlLm1hZT4nLCAnLW9tYWUnLCAnPG91dGZpbGUubWFlPic=

> <r_lp_tautomer_probability>
1

> <r_epik_Ionization_Penalty>
0.0965651

> <r_epik_Ionization_Penalty_Charging>
0

> <r_epik_Ionization_Penalty_Neutral>
0.0965651

> <r_epik_State_Penalty>
0.0861592

> <r_epik_Charging_Adjusted_Penalty>
0.0861592

> <i_epik_Tot_Q>
0

> <i_epik_Tot_abs_Q>
0

> <r_epik_Metal_State_Penalty>
0.0740444

> <b_epik_Metal_Only>
0

> <s_lp_Force_Field>
OPLS_2005

> <r_lp_Energy>
37.4342

> <b_lp_Chiralities_Consistent>
1

> <s_lp_Variant>
AV-unprocessed.smi:1424-2

> <Gold.Version>
5.8.1

> <Gold.Id.Protein>
6NUR|6NUR_protein|mol2

> <Gold.PLP.Fitness>
49.3814

> <Gold.PLP.PLP>
-38.2960

> <Gold.PLP.part.hbond>
-4.5849

> <Gold.PLP.part.metal>
0.0000

> <Gold.PLP.part.buried>
-3.4093

> <Gold.PLP.part.nonpolar>
-30.2190

> <Gold.PLP.part.repulsive>
0.4268

> <Gold.PLP.ligand.clash>
0.0000

> <Gold.PLP.ligand.torsion>
0.3631

> <Gold.PLP.Chemscore.Hbond>
3.9263

> <Gold.PLP.Chemscore.CHOScore>
0.0000

> <Gold.PLP.Chemscore.Metal>
0.0000

> <Gold.Chemscore.Hbonds>
donor molecule, donor type, donor heavy atom, donor atom, acceptor molecule, acceptor atom, score
      L1  H     3    24       P1  7948  0.85
      L1  H    12    34       P1  7948  0.90
      P1  H  7989  7998       L1     9  0.31
      P1  H  7997  8009       L1    10  0.99

> <Gold.PLP.Chemscore.Internal.Correction>
0.0329

> <Gold.Rescore>
     Score         DG    S(hbond)    S(metal)    S(lipo)     H(rot)  DE(clash)    DE(int)     intcor
     16.46     -20.69       3.06        0.00      74.77       1.47       1.59       2.64       ----

> <Gold.Chemscore.Fitness>
16.4616

> <Gold.Chemscore.DG>
-20.6885

> <Gold.Chemscore.ZeroCoef>
-5.4800

> <Gold.Chemscore.Hbond>
3.0644

> <Gold.Chemscore.Metal>
0.0000

> <Gold.Chemscore.Lipo>
74.7680

> <Gold.Chemscore.Internal_Hbond>
0.0000

> <Gold.Chemscore.DEClash>
1.5875

> <Gold.Chemscore.DEInternal>
2.6394

> <Gold.Chemscore.Rot>
1.4744

> <Gold.Chemscore.Internal.Correction>
   9.000000E+99

> <Gold.Chemscore.Hbonds>
donor molecule, donor type, donor heavy atom, donor atom, acceptor molecule, acceptor atom, score
      L1  H     3    24       P1  7948  0.14
      L1  H    12    34       P1  7948  0.17
      P1  H  7989  7998       L1     9  0.23
      P1  H  7997  8009       L1    10  0.79

> <Gold.Chemscore.Hbond.Weighted>
-10.2351

> <Gold.Chemscore.Metal.Weighted>
-0.0000

> <Gold.Chemscore.Lipo.Weighted>
-8.7479

> <Gold.Chemscore.Internal_Hbond.Weighted>
0.0000

> <Gold.Chemscore.DEClash.Weighted>
1.5875

> <Gold.Chemscore.DEInternal.Weighted>
2.6394

> <Gold.Chemscore.Rot.Weighted>
3.7744

> <Gold.Chemscore.Internal.Correction.Weighted>
   9.000000E+99

> <Gold.Protein.RotatedTorsions>
[ 6907 6896 6895 6894 ] final -162.74 input  -60.11 | X-H torsion
[ 7974 7965 7964 7962 ] final   71.85 input  175.53 | X-H torsion
[ 8008 7997 7996 7995 ] final -113.87 input   59.86 | X-H torsion
[ 10167 10162 10161 10158 ] final  -81.62 input  -65.29 | X-H torsion
[ 10718 10713 10712 10709 ] final  164.11 input   66.30 | X-H torsion
[ 10763 10752 10751 10750 ] final -122.15 input  -60.55 | X-H torsion
[ 11005 11000 10999 10996 ] final  114.07 input  -57.11 | X-H torsion

> <Gold.Protein.ActiveResidues>
 VAL166  LYS551  ARG553  GLY616  TRP617  ASP618  TYR619  PRO620  LYS621  CYS622 
 ASP623  PHE694  ASN695  SER759  ASP760  ASP761  ALA762  ILE779  LEU786  VAL792 
 PHE793  MET794  SER795  GLU796  ALA797  LYS798  CYS799  TRP800  GLU811  SER814 

> <Gold.Protein.RotatedAtoms>
  151.3851  133.3808  159.2714 H   0  0  0  0  0  0  0  0  0  0  0  0  # atno 6907 bound_to 6896
  150.9548  134.8944  159.7704 H   0  0  0  0  0  0  0  0  0  0  0  0  # atno 6908 bound_to 6896
  152.5126  134.3808  159.9402 H   0  0  0  0  0  0  0  0  0  0  0  0  # atno 6909 bound_to 6896
  145.7607  139.2799  143.1378 H   0  0  0  0  0  0  0  0  0  0  0  0  # atno 7974 bound_to 7965
  155.0274  140.0393  157.2461 H   0  0  0  0  0  0  0  0  0  0  0  0  # atno 8008 bound_to 7997
  154.7326  140.2733  155.6419 H   0  0  0  0  0  0  0  0  0  0  0  0  # atno 8009 bound_to 7997
  156.2845  140.2681  156.2030 H   0  0  0  0  0  0  0  0  0  0  0  0  # atno 8010 bound_to 7997
  140.4395  143.2520  151.8646 H   0  0  0  0  0  0  0  0  0  0  0  0  # atno 10167 bound_to 10162
  157.0989  131.0437  151.2506 H   0  0  0  0  0  0  0  0  0  0  0  0  # atno 10718 bound_to 10713
  154.8683  135.4143  154.2735 H   0  0  0  0  0  0  0  0  0  0  0  0  # atno 10763 bound_to 10752
  153.3641  135.7004  153.6694 H   0  0  0  0  0  0  0  0  0  0  0  0  # atno 10764 bound_to 10752
  153.5583  135.3615  155.2761 H   0  0  0  0  0  0  0  0  0  0  0  0  # atno 10765 bound_to 10752
  139.8970  134.9561  156.6836 H   0  0  0  0  0  0  0  0  0  0  0  0  # atno 11005 bound_to 11000
  146.0266  140.8297  142.9896 LP  0  0  0  0  0  0  0  0  0  0  0  0  # atno 17320 bound_to 7965
  144.6831  140.2708  143.7306 LP  0  0  0  0  0  0  0  0  0  0  0  0  # atno 17321 bound_to 7965
  139.4789  144.5245  151.8755 LP  0  0  0  0  0  0  0  0  0  0  0  0  # atno 17342 bound_to 10162
  140.4335  144.2084  150.5888 LP  0  0  0  0  0  0  0  0  0  0  0  0  # atno 17343 bound_to 10162
  157.4657  130.7679  149.7277 LP  0  0  0  0  0  0  0  0  0  0  0  0  # atno 17370 bound_to 10713
  155.9878  130.3963  150.3145 LP  0  0  0  0  0  0  0  0  0  0  0  0  # atno 17371 bound_to 10713
  140.7280  133.9083  155.8192 LP  0  0  0  0  0  0  0  0  0  0  0  0  # atno 17394 bound_to 11000
  141.0175  134.0935  157.4156 LP  0  0  0  0  0  0  0  0  0  0  0  0  # atno 17395 bound_to 11000

$$$$
