AV-unprocessed.smi:132|AV-procd|sdf|1163|dock4
  -GOLD-   2262018303D 1   1.00000     0.00000
 Structure written by MMmdl.
 41 44  0  0  0  0  0  0  0  0  1 V2000
  149.5335  141.1351  154.1364 O   0  0  0  0  0  0  0  0  0  0  0  0
  149.3786  139.9128  154.1399 C   0  0  0  0  0  0  0  0  0  0  0  0
  148.1158  139.2659  154.4795 C   0  0  0  0  0  0  0  0  0  0  0  0
  147.0567  140.0164  154.8272 F   0  0  0  0  0  0  0  0  0  0  0  0
  147.9914  137.9217  154.4496 C   0  0  0  0  0  0  0  0  0  0  0  0
  149.0283  137.0739  154.1012 N   0  0  0  0  0  0  0  0  0  0  0  0
  148.8156  135.5792  154.0750 C   0  0  2  0  0  0  0  0  0  0  0  0
  149.1361  135.0138  152.6847 C   0  0  0  0  0  0  0  0  0  0  0  0
  147.7574  134.7484  152.1148 C   0  0  0  0  0  0  0  0  0  0  0  0
  146.9574  134.4257  153.3704 C   0  0  0  0  0  0  0  0  0  0  0  0
  147.4703  135.3188  154.3505 O   0  0  0  0  0  0  0  0  0  0  0  0
  150.2849  137.6112  153.7452 C   0  0  0  0  0  0  0  0  0  0  0  0
  151.2133  136.8815  153.3894 O   0  0  0  0  0  0  0  0  0  0  0  0
  150.4230  139.0187  153.7962 N   0  0  0  0  0  0  0  0  0  0  0  0
  151.7119  139.5844  153.4282 C   0  0  0  0  0  0  0  0  0  0  0  0
  152.3917  140.2485  154.5898 C   0  0  0  0  0  0  0  0  0  0  0  0
  153.6982  140.3284  154.8594 N   0  0  0  0  0  0  0  0  0  0  0  0
  153.7974  141.0440  156.0300 N   0  0  0  0  0  0  0  0  0  0  0  0
  152.5455  141.3517  156.3863 C   0  0  0  0  0  0  0  0  0  0  0  0
  152.0928  142.1118  157.5509 C   0  0  0  0  0  0  0  0  0  0  0  0
  150.8264  142.7410  157.5591 C   0  0  0  0  0  0  0  0  0  0  0  0
  150.4015  143.4737  158.6846 C   0  0  0  0  0  0  0  0  0  0  0  0
  151.2376  143.5839  159.8118 C   0  0  0  0  0  0  0  0  0  0  0  0
  150.7168  144.4831  161.1891 Cl  0  0  0  0  0  0  0  0  0  0  0  0
  152.4995  142.9595  159.8125 C   0  0  0  0  0  0  0  0  0  0  0  0
  152.9249  142.2267  158.6874 C   0  0  0  0  0  0  0  0  0  0  0  0
  151.6177  140.8734  155.5135 O   0  0  0  0  0  0  0  0  0  0  0  0
  147.0331  137.4965  154.7083 H   0  0  0  0  0  0  0  0  0  0  0  0
  149.4276  135.1472  154.8674 H   0  0  0  0  0  0  0  0  0  0  0  0
  149.7364  135.7001  152.0856 H   0  0  0  0  0  0  0  0  0  0  0  0
  149.6858  134.0800  152.8084 H   0  0  0  0  0  0  0  0  0  0  0  0
  147.3655  135.6469  151.6371 H   0  0  0  0  0  0  0  0  0  0  0  0
  147.7453  133.9407  151.3827 H   0  0  0  0  0  0  0  0  0  0  0  0
  145.8837  134.5545  153.2333 H   0  0  0  0  0  0  0  0  0  0  0  0
  147.1428  133.3989  153.6895 H   0  0  0  0  0  0  0  0  0  0  0  0
  152.3408  138.7943  153.0167 H   0  0  0  0  0  0  0  0  0  0  0  0
  151.5525  140.2945  152.6152 H   0  0  0  0  0  0  0  0  0  0  0  0
  150.1687  142.6706  156.7052 H   0  0  0  0  0  0  0  0  0  0  0  0
  149.4329  143.9515  158.6805 H   0  0  0  0  0  0  0  0  0  0  0  0
  153.1438  143.0418  160.6754 H   0  0  0  0  0  0  0  0  0  0  0  0
  153.8964  141.7545  158.7044 H   0  0  0  0  0  0  0  0  0  0  0  0
  1  2  2  0  0  0  0
  2 14  1  0  0  0  0
  2  3  1  0  0  0  0
  3  4  1  0  0  0  0
  3  5  2  0  0  0  0
  5  6  1  0  0  0  0
  5 28  1  0  0  0  0
  6  7  1  0  0  0  0
  6 12  1  0  0  0  0
  7 11  1  0  0  0  0
  7  8  1  0  0  0  0
  7 29  1  0  0  0  0
  8  9  1  0  0  0  0
  8 30  1  0  0  0  0
  8 31  1  0  0  0  0
  9 10  1  0  0  0  0
  9 32  1  0  0  0  0
  9 33  1  0  0  0  0
 10 11  1  0  0  0  0
 10 34  1  0  0  0  0
 10 35  1  0  0  0  0
 12 13  2  0  0  0  0
 12 14  1  0  0  0  0
 14 15  1  0  0  0  0
 15 16  1  0  0  0  0
 15 36  1  0  0  0  0
 15 37  1  0  0  0  0
 16 27  1  0  0  0  0
 16 17  2  0  0  0  0
 17 18  1  0  0  0  0
 18 19  2  0  0  0  0
 19 20  1  0  0  0  0
 19 27  1  0  0  0  0
 20 26  1  0  0  0  0
 20 21  2  0  0  0  0
 21 22  1  0  0  0  0
 21 38  1  0  0  0  0
 22 23  2  0  0  0  0
 22 39  1  0  0  0  0
 23 24  1  0  0  0  0
 23 25  1  0  0  0  0
 25 26  2  0  0  0  0
 25 40  1  0  0  0  0
 26 41  1  0  0  0  0
M  END
> <s_m_source_file>
AV-unprocessed.smi

> <i_m_source_file_index>
132

> <i_lp_mmshare_version>
43012

> <i_f3d_flags>
0

> <s_epik_input>
TzFbQ0gyXVtDSDJdW0NIMl1bQ0BIXTFuKFtjSF1jKEYpYzI9TyljKD1PKW4yW0NIMl1jM25uYyhvMyktYzRbY0hdW2NIXWMoQ2wpW2NIXVtjSF00

> <s_epik_cmdline>
J2VwaWtfcHl0aG9uJywgJy1waCcsICc3LjAnLCAnLXRuJywgJzgnLCAnLW1hJywgJzIwMCcsICctbWV0YWxfYmluZGluZycsICctaW1hZScsICc8aW5maWxlLm1hZT4nLCAnLW9tYWUnLCAnPG91dGZpbGUubWFlPic=

> <r_lp_tautomer_probability>
1

> <r_epik_Ionization_Penalty>
2.5553e-09

> <r_epik_Ionization_Penalty_Charging>
2.54231e-09

> <r_epik_Ionization_Penalty_Neutral>
1.29923e-11

> <r_epik_State_Penalty>
-0

> <r_epik_Charging_Adjusted_Penalty>
2.54231e-09

> <i_epik_Tot_Q>
0

> <i_epik_Tot_abs_Q>
0

> <r_epik_Metal_State_Penalty>
-0

> <b_epik_Metal_Only>
0

> <s_epik_Chemistry_Notes>
This compound contains an acetal/aminal-like group ( X-CH(R)-Y where X, Y are N, S, or O) that may be acid/base labile, releasing an aldehyde.

> <s_lp_Force_Field>
OPLS_2005

> <r_lp_Energy>
32.6339

> <b_lp_Chiralities_Consistent>
1

> <s_lp_Variant>
AV-unprocessed.smi:132-1

> <Gold.Version>
5.8.1

> <Gold.Id.Protein>
6NUR|6NUR_protein|mol2

> <Gold.PLP.Fitness>
53.2076

> <Gold.PLP.PLP>
-45.5240

> <Gold.PLP.part.hbond>
-3.0000

> <Gold.PLP.part.metal>
0.0000

> <Gold.PLP.part.buried>
-5.0290

> <Gold.PLP.part.nonpolar>
-39.0525

> <Gold.PLP.part.repulsive>
1.9091

> <Gold.PLP.ligand.clash>
0.0000

> <Gold.PLP.ligand.torsion>
0.6437

> <Gold.PLP.Chemscore.Hbond>
2.0880

> <Gold.PLP.Chemscore.CHOScore>
0.8897

> <Gold.PLP.Chemscore.Metal>
0.0000

> <Gold.Chemscore.Hbonds>
donor molecule, donor type, donor heavy atom, donor atom, acceptor molecule, acceptor atom, score
      P1  H  7989  7998       L1     1  0.14
      P1  H  8011  8017       L1     1  0.41

> <Gold.PLP.Chemscore.Internal.Correction>
0.0379

> <Gold.Rescore>
     Score         DG    S(hbond)    S(metal)    S(lipo)     H(rot)  DE(clash)    DE(int)     intcor
     12.04     -18.04       1.91        0.00      89.89       1.70       0.50       5.50       ----

> <Gold.Chemscore.Fitness>
12.0360

> <Gold.Chemscore.DG>
-18.0439

> <Gold.Chemscore.ZeroCoef>
-5.4800

> <Gold.Chemscore.Hbond>
1.9142

> <Gold.Chemscore.Metal>
0.0000

> <Gold.Chemscore.Lipo>
89.8918

> <Gold.Chemscore.Internal_Hbond>
0.0000

> <Gold.Chemscore.DEClash>
0.5043

> <Gold.Chemscore.DEInternal>
5.5036

> <Gold.Chemscore.Rot>
1.6980

> <Gold.Chemscore.Internal.Correction>
   9.000000E+99

> <Gold.Chemscore.Hbonds>
donor molecule, donor type, donor heavy atom, donor atom, acceptor molecule, acceptor atom, score
      P1  H  7989  7998       L1     1  0.01
      P1  H  8011  8017       L1     1  0.41

> <Gold.Chemscore.Hbond.Weighted>
-6.3935

> <Gold.Chemscore.Metal.Weighted>
-0.0000

> <Gold.Chemscore.Lipo.Weighted>
-10.5173

> <Gold.Chemscore.Internal_Hbond.Weighted>
0.0000

> <Gold.Chemscore.DEClash.Weighted>
0.5043

> <Gold.Chemscore.DEInternal.Weighted>
5.5036

> <Gold.Chemscore.Rot.Weighted>
4.3469

> <Gold.Chemscore.Internal.Correction.Weighted>
   9.000000E+99

> <Gold.Protein.RotatedTorsions>
[ 6907 6896 6895 6894 ] final  -50.82 input  -60.11 | X-H torsion
[ 7974 7965 7964 7962 ] final   -7.39 input  175.53 | X-H torsion
[ 8008 7997 7996 7995 ] final  162.40 input   59.86 | X-H torsion
[ 10167 10162 10161 10158 ] final  -98.95 input  -65.29 | X-H torsion
[ 10718 10713 10712 10709 ] final  -31.54 input   66.30 | X-H torsion
[ 10763 10752 10751 10750 ] final  101.17 input  -60.55 | X-H torsion
[ 11005 11000 10999 10996 ] final  124.37 input  -57.11 | X-H torsion

> <Gold.Protein.ActiveResidues>
 VAL166  LYS551  ARG553  GLY616  TRP617  ASP618  TYR619  PRO620  LYS621  CYS622 
 ASP623  PHE694  ASN695  SER759  ASP760  ASP761  ALA762  ILE779  LEU786  VAL792 
 PHE793  MET794  SER795  GLU796  ALA797  LYS798  CYS799  TRP800  GLU811  SER814 

> <Gold.Protein.RotatedAtoms>
  150.8670  134.8036  159.7126 H   0  0  0  0  0  0  0  0  0  0  0  0  # atno 6907 bound_to 6896
  152.4688  134.5007  159.9733 H   0  0  0  0  0  0  0  0  0  0  0  0  # atno 6908 bound_to 6896
  151.5102  133.3448  159.2919 H   0  0  0  0  0  0  0  0  0  0  0  0  # atno 6909 bound_to 6896
  146.2308  140.2312  142.8340 H   0  0  0  0  0  0  0  0  0  0  0  0  # atno 7974 bound_to 7965
  156.2034  140.1751  156.7851 H   0  0  0  0  0  0  0  0  0  0  0  0  # atno 8008 bound_to 7997
  154.5622  140.0697  156.8867 H   0  0  0  0  0  0  0  0  0  0  0  0  # atno 8009 bound_to 7997
  155.2827  140.3350  155.4259 H   0  0  0  0  0  0  0  0  0  0  0  0  # atno 8010 bound_to 7997
  140.2676  143.3365  152.0565 H   0  0  0  0  0  0  0  0  0  0  0  0  # atno 10167 bound_to 10162
  156.3860  130.4364  149.7432 H   0  0  0  0  0  0  0  0  0  0  0  0  # atno 10718 bound_to 10713
  153.3233  135.4053  155.1435 H   0  0  0  0  0  0  0  0  0  0  0  0  # atno 10763 bound_to 10752
  154.8606  135.3593  154.5567 H   0  0  0  0  0  0  0  0  0  0  0  0  # atno 10764 bound_to 10752
  153.6002  135.7071  153.5446 H   0  0  0  0  0  0  0  0  0  0  0  0  # atno 10765 bound_to 10752
  139.9355  134.9639  156.8399 H   0  0  0  0  0  0  0  0  0  0  0  0  # atno 11005 bound_to 11000
  144.9556  140.8223  143.5545 LP  0  0  0  0  0  0  0  0  0  0  0  0  # atno 17320 bound_to 7965
  145.2277  139.2129  143.5059 LP  0  0  0  0  0  0  0  0  0  0  0  0  # atno 17321 bound_to 7965
  139.4998  144.6678  151.6316 LP  0  0  0  0  0  0  0  0  0  0  0  0  # atno 17342 bound_to 10162
  140.5915  143.9770  150.6328 LP  0  0  0  0  0  0  0  0  0  0  0  0  # atno 17343 bound_to 10162
  156.4504  130.7904  151.2925 LP  0  0  0  0  0  0  0  0  0  0  0  0  # atno 17370 bound_to 10713
  157.7496  131.0097  150.3278 LP  0  0  0  0  0  0  0  0  0  0  0  0  # atno 17371 bound_to 10713
  140.6086  134.0104  155.7567 LP  0  0  0  0  0  0  0  0  0  0  0  0  # atno 17394 bound_to 11000
  141.0967  133.9832  157.3148 LP  0  0  0  0  0  0  0  0  0  0  0  0  # atno 17395 bound_to 11000

$$$$
