AV-unprocessed.smi:350|AV-procd|sdf|2398|dock5
  -GOLD-   2262022333D 1   1.00000     0.00000
 Structure written by MMmdl.
 35 36  0  0  0  0  0  0  0  0  1 V2000
  151.8297  142.0518  158.3468 C   0  0  0  0  0  0  0  0  0  0  0  0
  151.3660  141.1747  157.2154 C   0  0  0  0  0  0  0  0  0  0  0  0
  150.5304  141.6979  156.3796 N   0  0  0  0  0  0  0  0  0  0  0  0
  150.0408  140.9794  155.3057 N   0  0  0  0  0  0  0  0  0  0  0  0
  149.0874  141.7245  154.4733 C   0  0  0  0  0  0  0  0  0  0  0  0
  147.7029  141.0418  154.4231 C   0  0  2  0  0  0  0  0  0  0  0  0
  147.5926  140.3063  153.2205 O   0  0  0  0  0  0  0  0  0  0  0  0
  146.5844  142.0664  154.5411 C   0  0  0  0  0  0  0  0  0  0  0  0
  146.3904  143.0202  153.5188 C   0  0  0  0  0  0  0  0  0  0  0  0
  145.3537  143.9686  153.6195 C   0  0  0  0  0  0  0  0  0  0  0  0
  144.5032  143.9674  154.7422 C   0  0  0  0  0  0  0  0  0  0  0  0
  143.2337  145.1292  154.8654 Cl  0  0  0  0  0  0  0  0  0  0  0  0
  144.6894  143.0158  155.7635 C   0  0  0  0  0  0  0  0  0  0  0  0
  145.7258  142.0675  155.6629 C   0  0  0  0  0  0  0  0  0  0  0  0
  150.3752  139.6891  155.0179 C   0  0  0  0  0  0  0  0  0  0  0  0
  149.9170  139.0840  154.0477 O   0  0  0  0  0  0  0  0  0  0  0  0
  151.3217  139.1023  155.9696 C   0  0  0  0  0  0  0  0  0  0  0  0
  151.6968  137.7503  155.7068 C   0  0  0  0  0  0  0  0  0  0  0  0
  151.9899  136.6545  155.4754 N   0  0  0  0  0  0  0  0  0  0  0  0
  151.8072  139.7964  157.0291 C   0  0  0  0  0  0  0  0  0  0  0  0
  152.7905  139.2328  158.0461 C   0  0  0  0  0  0  0  0  0  0  0  0
  152.9164  142.1398  158.3495 H   0  0  0  0  0  0  0  0  0  0  0  0
  151.5209  141.6384  159.3068 H   0  0  0  0  0  0  0  0  0  0  0  0
  151.4194  143.0604  158.2746 H   0  0  0  0  0  0  0  0  0  0  0  0
  148.9756  142.7149  154.9196 H   0  0  0  0  0  0  0  0  0  0  0  0
  149.4692  141.9152  153.4684 H   0  0  0  0  0  0  0  0  0  0  0  0
  147.6094  140.3366  155.2502 H   0  0  0  0  0  0  0  0  0  0  0  0
  148.3859  140.4269  152.7214 H   0  0  0  0  0  0  0  0  0  0  0  0
  147.0353  143.0285  152.6523 H   0  0  0  0  0  0  0  0  0  0  0  0
  145.2119  144.6963  152.8340 H   0  0  0  0  0  0  0  0  0  0  0  0
  144.0378  143.0111  156.6248 H   0  0  0  0  0  0  0  0  0  0  0  0
  145.8590  141.3395  156.4499 H   0  0  0  0  0  0  0  0  0  0  0  0
  153.0383  138.1905  157.8475 H   0  0  0  0  0  0  0  0  0  0  0  0
  152.3726  139.2824  159.0522 H   0  0  0  0  0  0  0  0  0  0  0  0
  153.7220  139.7996  158.0317 H   0  0  0  0  0  0  0  0  0  0  0  0
  1  2  1  0  0  0  0
  1 22  1  0  0  0  0
  1 23  1  0  0  0  0
  1 24  1  0  0  0  0
  2 20  1  0  0  0  0
  2  3  2  0  0  0  0
  3  4  1  0  0  0  0
  4  5  1  0  0  0  0
  4 15  1  0  0  0  0
  5  6  1  0  0  0  0
  5 25  1  0  0  0  0
  5 26  1  0  0  0  0
  6  7  1  0  0  0  0
  6  8  1  0  0  0  0
  6 27  1  0  0  0  0
  7 28  1  0  0  0  0
  8 14  1  0  0  0  0
  8  9  2  0  0  0  0
  9 10  1  0  0  0  0
  9 29  1  0  0  0  0
 10 11  2  0  0  0  0
 10 30  1  0  0  0  0
 11 12  1  0  0  0  0
 11 13  1  0  0  0  0
 13 14  2  0  0  0  0
 13 31  1  0  0  0  0
 14 32  1  0  0  0  0
 15 16  2  0  0  0  0
 15 17  1  0  0  0  0
 17 18  1  0  0  0  0
 17 20  2  0  0  0  0
 18 19  3  0  0  0  0
 20 21  1  0  0  0  0
 21 33  1  0  0  0  0
 21 34  1  0  0  0  0
 21 35  1  0  0  0  0
M  END
> <s_m_source_file>
AV-unprocessed.smi

> <i_m_source_file_index>
350

> <i_lp_mmshare_version>
43012

> <i_f3d_flags>
0

> <s_epik_input>
TiNDYyhjMVtDSDNdKWMoPU8pbihuYzFbQ0gzXSlbQ0gyXVtDQEhdKFtPSF0pYzJbY0hdW2NIXWMoQ2wpW2NIXVtjSF0y

> <s_epik_cmdline>
J2VwaWtfcHl0aG9uJywgJy1waCcsICc3LjAnLCAnLXRuJywgJzgnLCAnLW1hJywgJzIwMCcsICctbWV0YWxfYmluZGluZycsICctaW1hZScsICc8aW5maWxlLm1hZT4nLCAnLW9tYWUnLCAnPG91dGZpbGUubWFlPic=

> <r_lp_tautomer_probability>
1

> <r_epik_Ionization_Penalty>
1.17315e-07

> <r_epik_Ionization_Penalty_Charging>
1.40848e-10

> <r_epik_Ionization_Penalty_Neutral>
1.17174e-07

> <r_epik_State_Penalty>
-0

> <r_epik_Charging_Adjusted_Penalty>
1.40848e-10

> <i_epik_Tot_Q>
0

> <i_epik_Tot_abs_Q>
0

> <r_epik_Metal_State_Penalty>
-0

> <b_epik_Metal_Only>
0

> <s_lp_Force_Field>
OPLS_2005

> <r_lp_Energy>
28.0073

> <b_lp_Chiralities_Consistent>
1

> <s_lp_Variant>
AV-unprocessed.smi:350-1

> <Gold.Version>
5.8.1

> <Gold.Id.Protein>
6NUR|6NUR_protein|mol2

> <Gold.PLP.Fitness>
42.1684

> <Gold.PLP.PLP>
-37.4080

> <Gold.PLP.part.hbond>
-2.0000

> <Gold.PLP.part.metal>
0.0000

> <Gold.PLP.part.buried>
-4.7685

> <Gold.PLP.part.nonpolar>
-30.7593

> <Gold.PLP.part.repulsive>
0.7267

> <Gold.PLP.ligand.clash>
0.0000

> <Gold.PLP.ligand.torsion>
0.6231

> <Gold.PLP.Chemscore.Hbond>
2.0000

> <Gold.PLP.Chemscore.CHOScore>
0.0000

> <Gold.PLP.Chemscore.Metal>
0.0000

> <Gold.Chemscore.Hbonds>
donor molecule, donor type, donor heavy atom, donor atom, acceptor molecule, acceptor atom, score
      L1  H     7    28       P1  7957  1.00
      P1  H 10752 10763       L1    19  1.00

> <Gold.PLP.Chemscore.Internal.Correction>
0.0065

> <Gold.Rescore>
     Score         DG    S(hbond)    S(metal)    S(lipo)     H(rot)  DE(clash)    DE(int)     intcor
     13.05     -16.42       1.88        0.00      81.63       1.90       0.16       3.21       ----

> <Gold.Chemscore.Fitness>
13.0507

> <Gold.Chemscore.DG>
-16.4219

> <Gold.Chemscore.ZeroCoef>
-5.4800

> <Gold.Chemscore.Hbond>
1.8765

> <Gold.Chemscore.Metal>
0.0000

> <Gold.Chemscore.Lipo>
81.6283

> <Gold.Chemscore.Internal_Hbond>
0.0000

> <Gold.Chemscore.DEClash>
0.1577

> <Gold.Chemscore.DEInternal>
3.2135

> <Gold.Chemscore.Rot>
1.9047

> <Gold.Chemscore.Internal.Correction>
   9.000000E+99

> <Gold.Chemscore.Hbonds>
donor molecule, donor type, donor heavy atom, donor atom, acceptor molecule, acceptor atom, score
      L1  H     7    28       P1  7957  0.92
      P1  H 10752 10763       L1    19  0.98

> <Gold.Chemscore.Hbond.Weighted>
-6.2675

> <Gold.Chemscore.Metal.Weighted>
-0.0000

> <Gold.Chemscore.Lipo.Weighted>
-9.5505

> <Gold.Chemscore.Internal_Hbond.Weighted>
0.0000

> <Gold.Chemscore.DEClash.Weighted>
0.1577

> <Gold.Chemscore.DEInternal.Weighted>
3.2135

> <Gold.Chemscore.Rot.Weighted>
4.8760

> <Gold.Chemscore.Internal.Correction.Weighted>
   9.000000E+99

> <Gold.Protein.RotatedTorsions>
[ 6907 6896 6895 6894 ] final -157.37 input  -60.11 | X-H torsion
[ 7974 7965 7964 7962 ] final   60.21 input  175.53 | X-H torsion
[ 8008 7997 7996 7995 ] final  -81.62 input   59.86 | X-H torsion
[ 10167 10162 10161 10158 ] final -111.81 input  -65.29 | X-H torsion
[ 10718 10713 10712 10709 ] final   63.58 input   66.30 | X-H torsion
[ 10763 10752 10751 10750 ] final   72.00 input  -60.55 | X-H torsion
[ 11005 11000 10999 10996 ] final   17.29 input  -57.11 | X-H torsion

> <Gold.Protein.ActiveResidues>
 VAL166  LYS551  ARG553  GLY616  TRP617  ASP618  TYR619  PRO620  LYS621  CYS622 
 ASP623  PHE694  ASN695  SER759  ASP760  ASP761  ALA762  ILE779  LEU786  VAL792 
 PHE793  MET794  SER795  GLU796  ALA797  LYS798  CYS799  TRP800  GLU811  SER814 

> <Gold.Protein.RotatedAtoms>
  151.3018  133.4119  159.2640 H   0  0  0  0  0  0  0  0  0  0  0  0  # atno 6907 bound_to 6896
  151.0189  134.9454  159.8059 H   0  0  0  0  0  0  0  0  0  0  0  0  # atno 6908 bound_to 6896
  152.5319  134.2982  159.9121 H   0  0  0  0  0  0  0  0  0  0  0  0  # atno 6909 bound_to 6896
  145.8986  139.3564  143.0606 H   0  0  0  0  0  0  0  0  0  0  0  0  # atno 7974 bound_to 7965
  154.6002  140.0645  156.9358 H   0  0  0  0  0  0  0  0  0  0  0  0  # atno 8008 bound_to 7997
  155.2145  140.3325  155.4306 H   0  0  0  0  0  0  0  0  0  0  0  0  # atno 8009 bound_to 7997
  156.2313  140.1842  156.7218 H   0  0  0  0  0  0  0  0  0  0  0  0  # atno 8010 bound_to 7997
  140.1295  143.4372  152.1637 H   0  0  0  0  0  0  0  0  0  0  0  0  # atno 10167 bound_to 10162
  157.5981  130.9113  149.9734 H   0  0  0  0  0  0  0  0  0  0  0  0  # atno 10718 bound_to 10713
  153.0432  135.5116  154.7679 H   0  0  0  0  0  0  0  0  0  0  0  0  # atno 10763 bound_to 10752
  154.6599  135.2937  154.9882 H   0  0  0  0  0  0  0  0  0  0  0  0  # atno 10764 bound_to 10752
  154.0737  135.6674  153.4880 H   0  0  0  0  0  0  0  0  0  0  0  0  # atno 10765 bound_to 10752
  140.4376  134.1355  155.7687 H   0  0  0  0  0  0  0  0  0  0  0  0  # atno 11005 bound_to 11000
  145.8819  140.9357  143.0597 LP  0  0  0  0  0  0  0  0  0  0  0  0  # atno 17320 bound_to 7965
  144.6734  140.0791  143.7470 LP  0  0  0  0  0  0  0  0  0  0  0  0  # atno 17321 bound_to 7965
  139.5527  144.7349  151.4388 LP  0  0  0  0  0  0  0  0  0  0  0  0  # atno 17342 bound_to 10162
  140.6825  143.8049  150.7141 LP  0  0  0  0  0  0  0  0  0  0  0  0  # atno 17343 bound_to 10162
  156.1048  130.3653  150.0153 LP  0  0  0  0  0  0  0  0  0  0  0  0  # atno 17370 bound_to 10713
  156.8262  130.9376  151.3639 LP  0  0  0  0  0  0  0  0  0  0  0  0  # atno 17371 bound_to 10713
  141.1719  133.8591  157.1543 LP  0  0  0  0  0  0  0  0  0  0  0  0  # atno 17394 bound_to 11000
  140.0092  134.9995  157.0358 LP  0  0  0  0  0  0  0  0  0  0  0  0  # atno 17395 bound_to 11000

$$$$
