AV-unprocessed.smi:768|AV-procd|sdf|3673|dock10
  -GOLD-   22720 1 83D 1   1.00000     0.00000
 Structure written by MMmdl.
 48 49  0  0  0  0  0  0  0  0  1 V2000
  152.9451  142.7590  162.0445 C   0  0  0  0  0  0  0  0  0  0  0  0
  152.3553  143.5654  160.9009 C   0  0  0  0  0  0  0  0  0  0  0  0
  151.9665  144.8478  161.0704 C   0  0  0  0  0  0  0  0  0  0  0  0
  151.4116  145.6097  159.9781 C   0  0  0  0  0  0  0  0  0  0  0  0
  151.2891  145.0100  158.7855 C   0  0  0  0  0  0  0  0  0  0  0  0
  151.6845  143.6749  158.5824 N   0  0  0  0  0  0  0  0  0  0  0  0
  151.5075  143.1254  157.2248 C   0  0  0  0  0  0  0  0  0  0  0  0
  150.4003  142.0645  157.0952 C   0  0  0  0  0  0  0  0  0  0  0  0
  150.5144  141.0055  157.7105 O   0  0  0  0  0  0  0  0  0  0  0  0
  149.3559  142.3373  156.2951 N   0  0  0  0  0  0  0  0  0  0  0  0
  148.2703  141.4232  155.9583 C   0  0  0  0  0  0  0  0  0  0  0  0
  147.4969  141.0104  157.2210 C   0  0  0  0  0  0  0  0  0  0  0  0
  146.8151  142.1883  157.9332 C   0  0  0  0  0  0  0  0  0  0  0  0
  146.0688  141.6901  159.0333 O   0  0  0  0  0  0  0  0  0  0  0  0
  145.3224  142.6787  159.7324 C   0  0  0  0  0  0  0  0  0  0  0  0
  146.2484  143.5617  160.5964 C   0  0  0  0  0  0  0  0  0  0  0  0
  145.4432  144.5427  161.4634 C   0  0  0  0  0  0  0  0  0  0  0  0
  144.4152  143.8051  162.3355 C   0  0  0  0  0  0  0  0  0  0  0  0
  143.4909  142.9255  161.4790 C   0  0  0  0  0  0  0  0  0  0  0  0
  144.3011  141.9430  160.6179 C   0  0  0  0  0  0  0  0  0  0  0  0
  152.2202  142.9115  159.5858 C   0  0  0  0  0  0  0  0  0  0  0  0
  152.5720  141.7469  159.3896 O   0  0  0  0  0  0  0  0  0  0  0  0
  152.9522  143.3309  162.9729 H   0  0  0  0  0  0  0  0  0  0  0  0
  153.9724  142.4744  161.8185 H   0  0  0  0  0  0  0  0  0  0  0  0
  152.3650  141.8512  162.2135 H   0  0  0  0  0  0  0  0  0  0  0  0
  152.0714  145.3189  162.0368 H   0  0  0  0  0  0  0  0  0  0  0  0
  151.1063  146.6363  160.1171 H   0  0  0  0  0  0  0  0  0  0  0  0
  150.8897  145.5109  157.9156 H   0  0  0  0  0  0  0  0  0  0  0  0
  151.2997  143.9323  156.5194 H   0  0  0  0  0  0  0  0  0  0  0  0
  152.4390  142.6805  156.8726 H   0  0  0  0  0  0  0  0  0  0  0  0
  149.3408  143.2383  155.8394 H   0  0  0  0  0  0  0  0  0  0  0  0
  147.5815  141.8632  155.2356 H   0  0  0  0  0  0  0  0  0  0  0  0
  148.6999  140.5411  155.4832 H   0  0  0  0  0  0  0  0  0  0  0  0
  146.7429  140.2700  156.9515 H   0  0  0  0  0  0  0  0  0  0  0  0
  148.1761  140.5138  157.9150 H   0  0  0  0  0  0  0  0  0  0  0  0
  147.5647  142.9004  158.2761 H   0  0  0  0  0  0  0  0  0  0  0  0
  146.1560  142.7136  157.2406 H   0  0  0  0  0  0  0  0  0  0  0  0
  144.7743  143.3013  159.0225 H   0  0  0  0  0  0  0  0  0  0  0  0
  146.8614  142.9281  161.2386 H   0  0  0  0  0  0  0  0  0  0  0  0
  146.9378  144.1282  159.9715 H   0  0  0  0  0  0  0  0  0  0  0  0
  146.1194  145.1208  162.0940 H   0  0  0  0  0  0  0  0  0  0  0  0
  144.9303  145.2598  160.8212 H   0  0  0  0  0  0  0  0  0  0  0  0
  144.9347  143.1849  163.0674 H   0  0  0  0  0  0  0  0  0  0  0  0
  143.8244  144.5243  162.9034 H   0  0  0  0  0  0  0  0  0  0  0  0
  142.8014  142.3758  162.1205 H   0  0  0  0  0  0  0  0  0  0  0  0
  142.8776  143.5570  160.8348 H   0  0  0  0  0  0  0  0  0  0  0  0
  143.6264  141.3544  159.9958 H   0  0  0  0  0  0  0  0  0  0  0  0
  144.8196  141.2350  161.2661 H   0  0  0  0  0  0  0  0  0  0  0  0
  1  2  1  0  0  0  0
  1 23  1  0  0  0  0
  1 24  1  0  0  0  0
  1 25  1  0  0  0  0
  2 21  1  0  0  0  0
  2  3  2  0  0  0  0
  3  4  1  0  0  0  0
  3 26  1  0  0  0  0
  4  5  2  0  0  0  0
  4 27  1  0  0  0  0
  5  6  1  0  0  0  0
  5 28  1  0  0  0  0
  6  7  1  0  0  0  0
  6 21  1  0  0  0  0
  7  8  1  0  0  0  0
  7 29  1  0  0  0  0
  7 30  1  0  0  0  0
  8  9  2  0  0  0  0
  8 10  1  0  0  0  0
 10 11  1  0  0  0  0
 10 31  1  0  0  0  0
 11 12  1  0  0  0  0
 11 32  1  0  0  0  0
 11 33  1  0  0  0  0
 12 13  1  0  0  0  0
 12 34  1  0  0  0  0
 12 35  1  0  0  0  0
 13 14  1  0  0  0  0
 13 36  1  0  0  0  0
 13 37  1  0  0  0  0
 14 15  1  0  0  0  0
 15 20  1  0  0  0  0
 15 16  1  0  0  0  0
 15 38  1  0  0  0  0
 16 17  1  0  0  0  0
 16 39  1  0  0  0  0
 16 40  1  0  0  0  0
 17 18  1  0  0  0  0
 17 41  1  0  0  0  0
 17 42  1  0  0  0  0
 18 19  1  0  0  0  0
 18 43  1  0  0  0  0
 18 44  1  0  0  0  0
 19 20  1  0  0  0  0
 19 45  1  0  0  0  0
 19 46  1  0  0  0  0
 20 47  1  0  0  0  0
 20 48  1  0  0  0  0
 21 22  2  0  0  0  0
M  END
> <s_m_source_file>
AV-unprocessed.smi

> <i_m_source_file_index>
768

> <i_lp_mmshare_version>
43012

> <i_f3d_flags>
0

> <s_epik_input>
W0NIM11jMVtjSF1bY0hdW2NIXW4oYzE9TylbQ0gyXUMoPU8pW05IXVtDSDJdW0NIMl1bQ0gyXU9bQ0hdMltDSDJdW0NIMl1bQ0gyXVtDSDJdW0NIMl0y

> <s_epik_cmdline>
J2VwaWtfcHl0aG9uJywgJy1waCcsICc3LjAnLCAnLXRuJywgJzgnLCAnLW1hJywgJzIwMCcsICctbWV0YWxfYmluZGluZycsICctaW1hZScsICc8aW5maWxlLm1hZT4nLCAnLW9tYWUnLCAnPG91dGZpbGUubWFlPic=

> <r_lp_tautomer_probability>
1

> <r_epik_Ionization_Penalty>
7.81262e-07

> <r_epik_Ionization_Penalty_Charging>
7.6198e-07

> <r_epik_Ionization_Penalty_Neutral>
1.92812e-08

> <r_epik_State_Penalty>
-0

> <r_epik_Charging_Adjusted_Penalty>
7.6198e-07

> <i_epik_Tot_Q>
0

> <i_epik_Tot_abs_Q>
0

> <r_epik_Metal_State_Penalty>
-0

> <b_epik_Metal_Only>
0

> <s_lp_Force_Field>
OPLS_2005

> <r_lp_Energy>
20.2971

> <b_lp_Chiralities_Consistent>
1

> <s_lp_Variant>
AV-unprocessed.smi:768-1

> <Gold.Version>
5.8.1

> <Gold.Id.Protein>
6NUR|6NUR_protein|mol2

> <Gold.PLP.Fitness>
54.6553

> <Gold.PLP.PLP>
-50.0115

> <Gold.PLP.part.hbond>
-2.0000

> <Gold.PLP.part.metal>
0.0000

> <Gold.PLP.part.buried>
-8.2632

> <Gold.PLP.part.nonpolar>
-40.3880

> <Gold.PLP.part.repulsive>
0.0847

> <Gold.PLP.ligand.clash>
0.0000

> <Gold.PLP.ligand.torsion>
0.2273

> <Gold.PLP.Chemscore.Hbond>
1.6720

> <Gold.PLP.Chemscore.CHOScore>
0.0000

> <Gold.PLP.Chemscore.Metal>
0.0000

> <Gold.Chemscore.Hbonds>
donor molecule, donor type, donor heavy atom, donor atom, acceptor molecule, acceptor atom, score
      L1  H    10    31       P1  8028  1.00
      P1  H  6934  6946       L1    14  0.69

> <Gold.PLP.Chemscore.Internal.Correction>
0.0823

> <Gold.Rescore>
     Score         DG    S(hbond)    S(metal)    S(lipo)     H(rot)  DE(clash)    DE(int)     intcor
     15.06     -17.00       1.10        0.00     109.94       1.97       0.28       1.65       ----

> <Gold.Chemscore.Fitness>
15.0628

> <Gold.Chemscore.DG>
-16.9962

> <Gold.Chemscore.ZeroCoef>
-5.4800

> <Gold.Chemscore.Hbond>
1.1045

> <Gold.Chemscore.Metal>
0.0000

> <Gold.Chemscore.Lipo>
109.9416

> <Gold.Chemscore.Internal_Hbond>
0.0000

> <Gold.Chemscore.DEClash>
0.2816

> <Gold.Chemscore.DEInternal>
1.6519

> <Gold.Chemscore.Rot>
1.9671

> <Gold.Chemscore.Internal.Correction>
   9.000000E+99

> <Gold.Chemscore.Hbonds>
donor molecule, donor type, donor heavy atom, donor atom, acceptor molecule, acceptor atom, score
      L1  H    10    31       P1  8028  0.94
      P1  H  6934  6946       L1    14  0.09

> <Gold.Chemscore.Hbond.Weighted>
-3.6889

> <Gold.Chemscore.Metal.Weighted>
-0.0000

> <Gold.Chemscore.Lipo.Weighted>
-12.8632

> <Gold.Chemscore.Internal_Hbond.Weighted>
0.0000

> <Gold.Chemscore.DEClash.Weighted>
0.2816

> <Gold.Chemscore.DEInternal.Weighted>
1.6519

> <Gold.Chemscore.Rot.Weighted>
5.0359

> <Gold.Chemscore.Internal.Correction.Weighted>
   9.000000E+99

> <Gold.Protein.RotatedTorsions>
[ 6907 6896 6895 6894 ] final   80.30 input  -60.11 | X-H torsion
[ 7974 7965 7964 7962 ] final  159.90 input  175.53 | X-H torsion
[ 8008 7997 7996 7995 ] final  167.52 input   59.86 | X-H torsion
[ 10167 10162 10161 10158 ] final   12.65 input  -65.29 | X-H torsion
[ 10718 10713 10712 10709 ] final  -40.70 input   66.30 | X-H torsion
[ 10763 10752 10751 10750 ] final   13.08 input  -60.55 | X-H torsion
[ 11005 11000 10999 10996 ] final  177.52 input  -57.11 | X-H torsion

> <Gold.Protein.ActiveResidues>
 VAL166  LYS551  ARG553  GLY616  TRP617  ASP618  TYR619  PRO620  LYS621  CYS622 
 ASP623  PHE694  ASN695  SER759  ASP760  ASP761  ALA762  ILE779  LEU786  VAL792 
 PHE793  MET794  SER795  GLU796  ALA797  LYS798  CYS799  TRP800  GLU811  SER814 

> <Gold.Protein.RotatedAtoms>
  152.5230  134.3379  159.9206 H   0  0  0  0  0  0  0  0  0  0  0  0  # atno 6907 bound_to 6896
  151.3329  133.3987  159.2672 H   0  0  0  0  0  0  0  0  0  0  0  0  # atno 6908 bound_to 6896
  150.9866  134.9228  159.7933 H   0  0  0  0  0  0  0  0  0  0  0  0  # atno 6909 bound_to 6896
  144.7765  139.7682  143.6276 H   0  0  0  0  0  0  0  0  0  0  0  0  # atno 7974 bound_to 7965
  156.1626  140.1614  156.8585 H   0  0  0  0  0  0  0  0  0  0  0  0  # atno 8008 bound_to 7997
  154.5176  140.0786  156.8146 H   0  0  0  0  0  0  0  0  0  0  0  0  # atno 8009 bound_to 7997
  155.3676  140.3398  155.4244 H   0  0  0  0  0  0  0  0  0  0  0  0  # atno 8010 bound_to 7997
  140.6054  143.8518  150.7008 H   0  0  0  0  0  0  0  0  0  0  0  0  # atno 10167 bound_to 10162
  156.2785  130.4214  149.8362 H   0  0  0  0  0  0  0  0  0  0  0  0  # atno 10718 bound_to 10713
  153.1757  135.6819  153.8546 H   0  0  0  0  0  0  0  0  0  0  0  0  # atno 10763 bound_to 10752
  153.7895  135.3171  155.3378 H   0  0  0  0  0  0  0  0  0  0  0  0  # atno 10764 bound_to 10752
  154.8027  135.4768  154.0409 H   0  0  0  0  0  0  0  0  0  0  0  0  # atno 10765 bound_to 10752
  140.3850  134.6913  157.4473 H   0  0  0  0  0  0  0  0  0  0  0  0  # atno 11005 bound_to 11000
  146.1948  139.5208  142.9782 LP  0  0  0  0  0  0  0  0  0  0  0  0  # atno 17320 bound_to 7965
  145.6170  141.0329  143.1935 LP  0  0  0  0  0  0  0  0  0  0  0  0  # atno 17321 bound_to 7965
  140.2074  143.3910  152.1745 LP  0  0  0  0  0  0  0  0  0  0  0  0  # atno 17342 bound_to 10162
  139.5321  144.7170  151.5019 LP  0  0  0  0  0  0  0  0  0  0  0  0  # atno 17343 bound_to 10162
  156.5818  130.8469  151.3385 LP  0  0  0  0  0  0  0  0  0  0  0  0  # atno 17370 bound_to 10713
  157.7307  130.9689  150.1844 LP  0  0  0  0  0  0  0  0  0  0  0  0  # atno 17371 bound_to 10713
  140.0450  134.6213  155.8933 LP  0  0  0  0  0  0  0  0  0  0  0  0  # atno 17394 bound_to 11000
  141.1910  133.6570  156.5439 LP  0  0  0  0  0  0  0  0  0  0  0  0  # atno 17395 bound_to 11000

$$$$
