AV-unprocessed.smi:17|AV-procd|sdf|106|dock4
  -GOLD-   2262015263D 1   1.00000     0.00000
 Structure written by MMmdl.
 57 59  0  0  0  0  0  0  0  0  1 V2000
  150.0590  135.7158  156.0847 C   0  0  0  0  0  0  0  0  0  0  0  0
  149.2356  135.5325  157.3706 C   0  0  0  0  0  0  0  0  0  0  0  0
  148.9500  136.7894  158.0665 N   0  0  0  0  0  0  0  0  0  0  0  0
  150.0400  137.5254  158.4054 C   0  0  0  0  0  0  0  0  0  0  0  0
  150.9872  136.9216  159.1657 N   0  0  0  0  0  0  0  0  0  0  0  0
  152.0757  137.5947  159.5475 C   0  0  0  0  0  0  0  0  0  0  0  0
  152.4084  138.8597  159.2853 N   0  0  0  0  0  0  0  0  0  0  0  0
  151.4592  139.4752  158.5234 C   0  0  0  0  0  0  0  0  0  0  0  0
  150.2506  138.8901  158.0499 C   0  0  0  0  0  0  0  0  0  0  0  0
  149.5316  139.8274  157.3180 N   0  0  0  0  0  0  0  0  0  0  0  0
  150.2714  140.9008  157.3555 C   0  0  0  0  0  0  0  0  0  0  0  0
  151.4567  140.7749  158.0443 N   0  0  0  0  0  0  0  0  0  0  0  0
  152.4670  141.8049  158.2420 C   0  0  0  0  0  0  0  0  0  0  0  0
  152.7738  142.1266  159.7307 C   0  0  1  0  0  0  0  0  0  0  0  0
  154.1175  141.5185  160.1970 C   0  0  0  0  0  0  0  0  0  0  0  0
  154.1908  141.4720  161.6063 O   0  0  0  0  0  0  0  0  0  0  0  0
  152.7124  143.6468  160.0355 C   0  0  1  0  0  0  0  0  0  0  0  0
  151.6795  144.4153  159.2280 C   0  0  0  0  0  0  0  0  0  0  0  0
  151.5271  145.6995  160.0348 C   0  0  0  0  0  0  0  0  0  0  0  0
  151.7380  145.3260  161.3912 O   0  0  0  0  0  0  0  0  0  0  0  0
  152.2572  144.0016  161.4558 C   0  0  0  0  0  0  0  0  0  0  0  0
  147.8558  136.7566  159.0505 C   0  0  1  0  0  0  0  0  0  0  0  0
  146.5550  136.1534  158.4865 C   0  0  0  0  0  0  0  0  0  0  0  0
  148.2415  136.0989  160.3935 C   0  0  0  0  0  0  0  0  0  0  0  0
  147.1581  136.6758  161.7733 S   0  0  0  0  0  0  0  0  0  0  0  0
  146.4782  135.0887  162.4049 C   0  0  0  0  0  0  0  0  0  0  0  0
  147.9964  137.2715  162.8243 O   0  0  0  0  0  0  0  0  0  0  0  0
  146.0545  137.4596  161.1980 O   0  0  0  0  0  0  0  0  0  0  0  0
  150.1773  134.7638  155.5674 H   0  0  0  0  0  0  0  0  0  0  0  0
  151.0581  136.1009  156.2899 H   0  0  0  0  0  0  0  0  0  0  0  0
  149.5660  136.4061  155.3994 H   0  0  0  0  0  0  0  0  0  0  0  0
  148.2870  135.0649  157.1049 H   0  0  0  0  0  0  0  0  0  0  0  0
  149.7367  134.8328  158.0386 H   0  0  0  0  0  0  0  0  0  0  0  0
  152.7799  137.0400  160.1498 H   0  0  0  0  0  0  0  0  0  0  0  0
  149.9682  141.8173  156.8725 H   0  0  0  0  0  0  0  0  0  0  0  0
  153.3745  141.4948  157.7237 H   0  0  0  0  0  0  0  0  0  0  0  0
  152.1373  142.7070  157.7257 H   0  0  0  0  0  0  0  0  0  0  0  0
  151.9882  141.6532  160.3217 H   0  0  0  0  0  0  0  0  0  0  0  0
  154.2670  140.5191  159.7883 H   0  0  0  0  0  0  0  0  0  0  0  0
  154.9574  142.1240  159.8586 H   0  0  0  0  0  0  0  0  0  0  0  0
  154.8012  142.1331  161.8969 H   0  0  0  0  0  0  0  0  0  0  0  0
  153.6925  144.0976  159.8740 H   0  0  0  0  0  0  0  0  0  0  0  0
  151.9799  144.6081  158.1987 H   0  0  0  0  0  0  0  0  0  0  0  0
  150.7324  143.8741  159.2086 H   0  0  0  0  0  0  0  0  0  0  0  0
  152.2937  146.4209  159.7496 H   0  0  0  0  0  0  0  0  0  0  0  0
  150.5520  146.1665  159.8958 H   0  0  0  0  0  0  0  0  0  0  0  0
  151.4567  143.3371  161.7836 H   0  0  0  0  0  0  0  0  0  0  0  0
  153.0669  143.9387  162.1829 H   0  0  0  0  0  0  0  0  0  0  0  0
  147.6240  137.7972  159.2798 H   0  0  0  0  0  0  0  0  0  0  0  0
  145.7357  136.2662  159.1968 H   0  0  0  0  0  0  0  0  0  0  0  0
  146.6601  135.0879  158.2809 H   0  0  0  0  0  0  0  0  0  0  0  0
  146.2503  136.6475  157.5638 H   0  0  0  0  0  0  0  0  0  0  0  0
  148.1063  135.0194  160.3264 H   0  0  0  0  0  0  0  0  0  0  0  0
  149.2841  136.2652  160.6612 H   0  0  0  0  0  0  0  0  0  0  0  0
  145.8021  135.2908  163.2352 H   0  0  0  0  0  0  0  0  0  0  0  0
  147.2941  134.4534  162.7487 H   0  0  0  0  0  0  0  0  0  0  0  0
  145.9319  134.5825  161.6096 H   0  0  0  0  0  0  0  0  0  0  0  0
  1  2  1  0  0  0  0
  1 29  1  0  0  0  0
  1 30  1  0  0  0  0
  1 31  1  0  0  0  0
  2  3  1  0  0  0  0
  2 32  1  0  0  0  0
  2 33  1  0  0  0  0
  3  4  1  0  0  0  0
  3 22  1  0  0  0  0
  4  9  1  0  0  0  0
  4  5  2  0  0  0  0
  5  6  1  0  0  0  0
  6  7  2  0  0  0  0
  6 34  1  0  0  0  0
  7  8  1  0  0  0  0
  8 12  1  0  0  0  0
  8  9  2  0  0  0  0
  9 10  1  0  0  0  0
 10 11  2  0  0  0  0
 11 12  1  0  0  0  0
 11 35  1  0  0  0  0
 12 13  1  0  0  0  0
 13 14  1  0  0  0  0
 13 36  1  0  0  0  0
 13 37  1  0  0  0  0
 14 15  1  0  0  0  0
 14 17  1  0  0  0  0
 14 38  1  0  0  0  0
 15 16  1  0  0  0  0
 15 39  1  0  0  0  0
 15 40  1  0  0  0  0
 16 41  1  0  0  0  0
 17 21  1  0  0  0  0
 17 18  1  0  0  0  0
 17 42  1  0  0  0  0
 18 19  1  0  0  0  0
 18 43  1  0  0  0  0
 18 44  1  0  0  0  0
 19 20  1  0  0  0  0
 19 45  1  0  0  0  0
 19 46  1  0  0  0  0
 20 21  1  0  0  0  0
 21 47  1  0  0  0  0
 21 48  1  0  0  0  0
 22 23  1  0  0  0  0
 22 24  1  0  0  0  0
 22 49  1  0  0  0  0
 23 50  1  0  0  0  0
 23 51  1  0  0  0  0
 23 52  1  0  0  0  0
 24 25  1  0  0  0  0
 24 53  1  0  0  0  0
 24 54  1  0  0  0  0
 25 26  1  0  0  0  0
 25 27  2  0  0  0  0
 25 28  2  0  0  0  0
 26 55  1  0  0  0  0
 26 56  1  0  0  0  0
 26 57  1  0  0  0  0
M  END
> <s_m_source_file>
AV-unprocessed.smi

> <i_m_source_file_index>
17

> <i_lp_mmshare_version>
43012

> <i_f3d_flags>
0

> <s_epik_input>
W0NIM11TKD1PKSg9TylbQ0gyXVtDQEBIXShbQ0gzXSlOKFtDSDJdW0NIM10pYyhuW2NIXW4xKWMoYzEyKW5bY0hdbjJbQ0gyXVtDQEhdKFtDSDJdW09IXSlbQ0BASF0zW0NIMl1bQ0gyXU9bQ0gyXTM=

> <s_epik_cmdline>
J2VwaWtfcHl0aG9uJywgJy1waCcsICc3LjAnLCAnLXRuJywgJzgnLCAnLW1hJywgJzIwMCcsICctbWV0YWxfYmluZGluZycsICctaW1hZScsICc8aW5maWxlLm1hZT4nLCAnLW9tYWUnLCAnPG91dGZpbGUubWFlPic=

> <r_lp_tautomer_probability>
1

> <r_epik_Ionization_Penalty>
0.00119955

> <r_epik_Ionization_Penalty_Charging>
0

> <r_epik_Ionization_Penalty_Neutral>
0.00119955

> <r_epik_State_Penalty>
0.000665399

> <r_epik_Charging_Adjusted_Penalty>
0.000665399

> <i_epik_Tot_Q>
0

> <i_epik_Tot_abs_Q>
0

> <r_epik_Metal_State_Penalty>
-0

> <b_epik_Metal_Only>
0

> <s_lp_Force_Field>
OPLS_2005

> <r_lp_Energy>
32.9267

> <b_lp_Chiralities_Consistent>
1

> <s_lp_Variant>
AV-unprocessed.smi:17-8

> <Gold.Version>
5.8.1

> <Gold.Id.Protein>
6NUR|6NUR_protein|mol2

> <Gold.PLP.Fitness>
53.3683

> <Gold.PLP.PLP>
-48.0060

> <Gold.PLP.part.hbond>
-3.9854

> <Gold.PLP.part.metal>
0.0000

> <Gold.PLP.part.buried>
-9.4207

> <Gold.PLP.part.nonpolar>
-38.3547

> <Gold.PLP.part.repulsive>
3.7515

> <Gold.PLP.ligand.clash>
0.0000

> <Gold.PLP.ligand.torsion>
2.1629

> <Gold.PLP.Chemscore.Hbond>
2.7680

> <Gold.PLP.Chemscore.CHOScore>
0.0000

> <Gold.PLP.Chemscore.Metal>
0.0000

> <Gold.Chemscore.Hbonds>
donor molecule, donor type, donor heavy atom, donor atom, acceptor molecule, acceptor atom, score
      P1  H  6896  6907       L1     5  1.00
      P1  H  6931  6943       L1    27  0.74
      P1  H  6934  6947       L1    28  0.70

> <Gold.PLP.Chemscore.Internal.Correction>
1.3840

> <Gold.Rescore>
     Score         DG    S(hbond)    S(metal)    S(lipo)     H(rot)  DE(clash)    DE(int)     intcor
     10.63     -14.71       1.88        0.00     108.15       3.79       2.05       2.03       ----

> <Gold.Chemscore.Fitness>
10.6306

> <Gold.Chemscore.DG>
-14.7081

> <Gold.Chemscore.ZeroCoef>
-5.4800

> <Gold.Chemscore.Hbond>
1.8790

> <Gold.Chemscore.Metal>
0.0000

> <Gold.Chemscore.Lipo>
108.1485

> <Gold.Chemscore.Internal_Hbond>
0.0000

> <Gold.Chemscore.DEClash>
2.0451

> <Gold.Chemscore.DEInternal>
2.0324

> <Gold.Chemscore.Rot>
3.7894

> <Gold.Chemscore.Internal.Correction>
   9.000000E+99

> <Gold.Chemscore.Hbonds>
donor molecule, donor type, donor heavy atom, donor atom, acceptor molecule, acceptor atom, score
      P1  H  6896  6907       L1     5  0.71
      P1  H  6931  6943       L1    27  0.29
      P1  H  6934  6947       L1    28  0.07

> <Gold.Chemscore.Hbond.Weighted>
-6.2757

> <Gold.Chemscore.Metal.Weighted>
-0.0000

> <Gold.Chemscore.Lipo.Weighted>
-12.6534

> <Gold.Chemscore.Internal_Hbond.Weighted>
0.0000

> <Gold.Chemscore.DEClash.Weighted>
2.0451

> <Gold.Chemscore.DEInternal.Weighted>
2.0324

> <Gold.Chemscore.Rot.Weighted>
9.7010

> <Gold.Chemscore.Internal.Correction.Weighted>
   9.000000E+99

> <Gold.Protein.RotatedTorsions>
[ 6907 6896 6895 6894 ] final  -31.44 input  -60.11 | X-H torsion
[ 7974 7965 7964 7962 ] final   25.34 input  175.53 | X-H torsion
[ 8008 7997 7996 7995 ] final  166.85 input   59.86 | X-H torsion
[ 10167 10162 10161 10158 ] final  110.38 input  -65.29 | X-H torsion
[ 10718 10713 10712 10709 ] final   98.03 input   66.30 | X-H torsion
[ 10763 10752 10751 10750 ] final   81.70 input  -60.55 | X-H torsion
[ 11005 11000 10999 10996 ] final -138.65 input  -57.11 | X-H torsion

> <Gold.Protein.ActiveResidues>
 VAL166  LYS551  ARG553  GLY616  TRP617  ASP618  TYR619  PRO620  LYS621  CYS622 
 ASP623  PHE694  ASN695  SER759  ASP760  ASP761  ALA762  ILE779  LEU786  VAL792 
 PHE793  MET794  SER795  GLU796  ALA797  LYS798  CYS799  TRP800  GLU811  SER814 

> <Gold.Protein.RotatedAtoms>
  151.0920  134.9922  159.8407 H   0  0  0  0  0  0  0  0  0  0  0  0  # atno 6907 bound_to 6896
  152.5430  134.2054  159.8739 H   0  0  0  0  0  0  0  0  0  0  0  0  # atno 6908 bound_to 6896
  151.2091  133.4522  159.2631 H   0  0  0  0  0  0  0  0  0  0  0  0  # atno 6909 bound_to 6896
  146.1893  139.7480  142.8843 H   0  0  0  0  0  0  0  0  0  0  0  0  # atno 7974 bound_to 7965
  156.1684  140.1632  156.8491 H   0  0  0  0  0  0  0  0  0  0  0  0  # atno 8008 bound_to 7997
  154.5231  140.0774  156.8243 H   0  0  0  0  0  0  0  0  0  0  0  0  # atno 8009 bound_to 7997
  155.3564  140.3393  155.4242 H   0  0  0  0  0  0  0  0  0  0  0  0  # atno 8010 bound_to 7997
  139.6693  144.7126  151.1718 H   0  0  0  0  0  0  0  0  0  0  0  0  # atno 10167 bound_to 10162
  157.6903  131.0627  150.4733 H   0  0  0  0  0  0  0  0  0  0  0  0  # atno 10718 bound_to 10713
  153.1139  135.4756  154.9082 H   0  0  0  0  0  0  0  0  0  0  0  0  # atno 10763 bound_to 10752
  154.7508  135.3105  154.8562 H   0  0  0  0  0  0  0  0  0  0  0  0  # atno 10764 bound_to 10752
  153.9144  135.6861  153.4803 H   0  0  0  0  0  0  0  0  0  0  0  0  # atno 10765 bound_to 10752
  140.8595  134.2186  157.4715 H   0  0  0  0  0  0  0  0  0  0  0  0  # atno 11005 bound_to 11000
  145.3841  141.0363  143.3161 LP  0  0  0  0  0  0  0  0  0  0  0  0  # atno 17320 bound_to 7965
  144.8457  139.5401  143.6880 LP  0  0  0  0  0  0  0  0  0  0  0  0  # atno 17321 bound_to 7965
  140.7612  143.5869  150.8836 LP  0  0  0  0  0  0  0  0  0  0  0  0  # atno 17342 bound_to 10162
  139.9534  143.6246  152.3023 LP  0  0  0  0  0  0  0  0  0  0  0  0  # atno 17343 bound_to 10162
  156.5070  130.4130  149.6322 LP  0  0  0  0  0  0  0  0  0  0  0  0  # atno 17370 bound_to 10713
  156.3276  130.7314  151.2237 LP  0  0  0  0  0  0  0  0  0  0  0  0  # atno 17371 bound_to 10713
  139.8706  134.9723  156.4767 LP  0  0  0  0  0  0  0  0  0  0  0  0  # atno 17394 bound_to 11000
  140.8699  133.7996  155.9353 LP  0  0  0  0  0  0  0  0  0  0  0  0  # atno 17395 bound_to 11000

$$$$
