AV-unprocessed.smi:2078|AV-procd|sdf|8472|dock10
  -GOLD-   2272011173D 1   1.00000     0.00000
 Structure written by MMmdl.
 41 42  0  0  0  0  0  0  0  0  3 V2000
  149.8478  132.8528  155.0621 C   0  0  0  0  0  0  0  0  0  0  0  0
  150.3555  134.2374  155.2789 C   0  0  0  0  0  0  0  0  0  0  0  0
  149.8766  135.4672  154.9248 C   0  0  0  0  0  0  0  0  0  0  0  0
  150.8564  136.3554  155.4432 C   0  0  0  0  0  0  0  0  0  0  0  0
  150.7206  137.7587  155.2754 N   0  0  0  0  0  0  0  0  0  0  0  0
  151.6658  138.6681  154.9766 C   0  0  0  0  0  0  0  0  0  0  0  0
  152.8446  138.3218  154.8331 O   0  0  0  0  0  0  0  0  0  0  0  0
  151.1553  139.9265  154.8742 N   0  5  0  0  0  0  0  0  0  0  0  0
  151.2033  140.9354  155.9307 C   0  0  0  0  0  0  0  0  0  0  0  0
  151.7385  140.3171  157.2378 C   0  0  0  0  0  0  0  0  0  0  0  0
  152.1937  141.3647  158.1889 N   0  3  2  0  0  0  0  0  0  0  0  0
  152.7661  140.8143  159.4484 C   0  0  0  0  0  0  0  0  0  0  0  0
  153.3839  141.9298  160.3055 C   0  0  0  0  0  0  0  0  0  0  0  0
  152.3543  143.0297  160.6013 C   0  0  0  0  0  0  0  0  0  0  0  0
  151.7095  143.5571  159.3057 C   0  0  1  0  0  0  0  0  0  0  0  0
  152.6569  144.4570  158.4927 C   0  0  0  0  0  0  0  0  0  0  0  0
  151.1526  142.3905  158.4635 C   0  0  0  0  0  0  0  0  0  0  0  0
  151.8438  135.7233  156.0606 N   0  0  0  0  0  0  0  0  0  0  0  0
  151.5284  134.3632  155.9576 O   0  0  0  0  0  0  0  0  0  0  0  0
  148.7578  132.8350  155.0660 H   0  0  0  0  0  0  0  0  0  0  0  0
  150.1984  132.1804  155.8453 H   0  0  0  0  0  0  0  0  0  0  0  0
  150.1890  132.4635  154.1029 H   0  0  0  0  0  0  0  0  0  0  0  0
  148.9716  135.6935  154.3807 H   0  0  0  0  0  0  0  0  0  0  0  0
  149.7847  138.1209  155.3822 H   0  0  0  0  0  0  0  0  0  0  0  0
  151.8231  141.7901  155.6562 H   0  0  0  0  0  0  0  0  0  0  0  0
  150.2126  141.3488  156.1214 H   0  0  0  0  0  0  0  0  0  0  0  0
  150.9376  139.7277  157.6871 H   0  0  0  0  0  0  0  0  0  0  0  0
  152.5501  139.6150  157.0388 H   0  0  0  0  0  0  0  0  0  0  0  0
  151.9852  140.2980  160.0089 H   0  0  0  0  0  0  0  0  0  0  0  0
  153.5323  140.0721  159.2204 H   0  0  0  0  0  0  0  0  0  0  0  0
  153.7600  141.5136  161.2405 H   0  0  0  0  0  0  0  0  0  0  0  0
  154.2470  142.3538  159.7915 H   0  0  0  0  0  0  0  0  0  0  0  0
  151.5762  142.6222  161.2482 H   0  0  0  0  0  0  0  0  0  0  0  0
  152.8183  143.8441  161.1588 H   0  0  0  0  0  0  0  0  0  0  0  0
  150.8650  144.1836  159.5953 H   0  0  0  0  0  0  0  0  0  0  0  0
  153.5243  143.9089  158.1247 H   0  0  0  0  0  0  0  0  0  0  0  0
  153.0216  145.2888  159.0958 H   0  0  0  0  0  0  0  0  0  0  0  0
  152.1458  144.8799  157.6274 H   0  0  0  0  0  0  0  0  0  0  0  0
  150.7563  142.7795  157.5241 H   0  0  0  0  0  0  0  0  0  0  0  0
  150.3174  141.9188  158.9838 H   0  0  0  0  0  0  0  0  0  0  0  0
  152.9417  141.8504  157.7149 H   0  0  0  0  0  0  0  0  0  0  0  0
  1  2  1  0  0  0  0
  1 20  1  0  0  0  0
  1 21  1  0  0  0  0
  1 22  1  0  0  0  0
  2 19  1  0  0  0  0
  2  3  2  0  0  0  0
  3  4  1  0  0  0  0
  3 23  1  0  0  0  0
  4  5  1  0  0  0  0
  4 18  2  0  0  0  0
  5  6  1  0  0  0  0
  5 24  1  0  0  0  0
  6  7  2  0  0  0  0
  6  8  1  0  0  0  0
  8  9  1  0  0  0  0
  9 10  1  0  0  0  0
  9 25  1  0  0  0  0
  9 26  1  0  0  0  0
 10 11  1  0  0  0  0
 10 27  1  0  0  0  0
 10 28  1  0  0  0  0
 11 17  1  0  0  0  0
 11 12  1  0  0  0  0
 11 41  1  0  0  0  0
 12 13  1  0  0  0  0
 12 29  1  0  0  0  0
 12 30  1  0  0  0  0
 13 14  1  0  0  0  0
 13 31  1  0  0  0  0
 13 32  1  0  0  0  0
 14 15  1  0  0  0  0
 14 33  1  0  0  0  0
 14 34  1  0  0  0  0
 15 16  1  0  0  0  0
 15 17  1  0  0  0  0
 15 35  1  0  0  0  0
 16 36  1  0  0  0  0
 16 37  1  0  0  0  0
 16 38  1  0  0  0  0
 17 39  1  0  0  0  0
 17 40  1  0  0  0  0
 18 19  1  0  0  0  0
M  CHG  1   8  -1
M  CHG  1  11   1
M  END
> <s_m_source_file>
AV-unprocessed.smi

> <i_m_source_file_index>
2078

> <i_lp_mmshare_version>
43012

> <i_f3d_flags>
0

> <s_epik_input>
W0NIM11jMVtjSF1jKG5vMSlbTkhdQyg9TylbTkhdW0NIMl1bQ0gyXU4yW0NIMl1bQ0gyXVtDSDJdW0NAQEhdKFtDSDNdKVtDSDJdMg==

> <s_epik_cmdline>
J2VwaWtfcHl0aG9uJywgJy1waCcsICc3LjAnLCAnLXRuJywgJzgnLCAnLW1hJywgJzIwMCcsICctbWV0YWxfYmluZGluZycsICctaW1hZScsICc8aW5maWxlLm1hZT4nLCAnLW9tYWUnLCAnPG91dGZpbGUubWFlPic=

> <r_epik_Ionization_Penalty>
6.76934

> <r_epik_Ionization_Penalty_Charging>
6.76934

> <r_epik_Ionization_Penalty_Neutral>
5.77849e-06

> <r_epik_State_Penalty>
6.79457

> <r_epik_Charging_Adjusted_Penalty>
13.5639

> <i_epik_Tot_Q>
0

> <i_epik_Tot_abs_Q>
2

> <r_epik_Metal_State_Penalty>
2.72837

> <b_epik_Metal_Only>
1

> <s_lp_Force_Field>
OPLS_2005

> <r_lp_Energy>
14.163

> <b_lp_Chiralities_Consistent>
1

> <s_lp_Variant>
AV-unprocessed.smi:2078-10

> <Gold.Version>
5.8.1

> <Gold.Id.Protein>
6NUR|6NUR_protein|mol2

> <Gold.PLP.Fitness>
42.0748

> <Gold.PLP.PLP>
-39.4303

> <Gold.PLP.part.hbond>
-2.9758

> <Gold.PLP.part.metal>
0.0000

> <Gold.PLP.part.buried>
-4.5008

> <Gold.PLP.part.nonpolar>
-32.0730

> <Gold.PLP.part.repulsive>
0.2468

> <Gold.PLP.ligand.clash>
0.0000

> <Gold.PLP.ligand.torsion>
1.1668

> <Gold.PLP.Chemscore.Hbond>
1.6500

> <Gold.PLP.Chemscore.CHOScore>
0.0000

> <Gold.PLP.Chemscore.Metal>
0.0000

> <Gold.Chemscore.Hbonds>
donor molecule, donor type, donor heavy atom, donor atom, acceptor molecule, acceptor atom, score
      P1  H  7989  7998       L1     8  1.00
      P1  H 10752 10763       L1    18  0.45

> <Gold.PLP.Chemscore.Internal.Correction>
0.0281

> <Gold.Rescore>
     Score         DG    S(hbond)    S(metal)    S(lipo)     H(rot)  DE(clash)    DE(int)     intcor
     12.18     -14.36       0.76        0.00      87.91       1.54       0.01       2.17       ----

> <Gold.Chemscore.Fitness>
12.1756

> <Gold.Chemscore.DG>
-14.3579

> <Gold.Chemscore.ZeroCoef>
-5.4800

> <Gold.Chemscore.Hbond>
0.7596

> <Gold.Chemscore.Metal>
0.0000

> <Gold.Chemscore.Lipo>
87.9110

> <Gold.Chemscore.Internal_Hbond>
0.0000

> <Gold.Chemscore.DEClash>
0.0077

> <Gold.Chemscore.DEInternal>
2.1746

> <Gold.Chemscore.Rot>
1.5409

> <Gold.Chemscore.Internal.Correction>
   9.000000E+99

> <Gold.Chemscore.Hbonds>
donor molecule, donor type, donor heavy atom, donor atom, acceptor molecule, acceptor atom, score
      P1  H  7989  7998       L1     8  0.28

> <Gold.Chemscore.Hbond.Weighted>
-2.5370

> <Gold.Chemscore.Metal.Weighted>
-0.0000

> <Gold.Chemscore.Lipo.Weighted>
-10.2856

> <Gold.Chemscore.Internal_Hbond.Weighted>
0.0000

> <Gold.Chemscore.DEClash.Weighted>
0.0077

> <Gold.Chemscore.DEInternal.Weighted>
2.1746

> <Gold.Chemscore.Rot.Weighted>
3.9446

> <Gold.Chemscore.Internal.Correction.Weighted>
   9.000000E+99

> <Gold.Protein.RotatedTorsions>
[ 6907 6896 6895 6894 ] final   64.49 input  -60.11 | X-H torsion
[ 7974 7965 7964 7962 ] final   -4.98 input  175.53 | X-H torsion
[ 8008 7997 7996 7995 ] final   37.01 input   59.86 | X-H torsion
[ 10167 10162 10161 10158 ] final   49.86 input  -65.29 | X-H torsion
[ 10718 10713 10712 10709 ] final  168.12 input   66.30 | X-H torsion
[ 10763 10752 10751 10750 ] final   69.10 input  -60.55 | X-H torsion
[ 11005 11000 10999 10996 ] final  101.02 input  -57.11 | X-H torsion

> <Gold.Protein.ActiveResidues>
 VAL166  LYS551  ARG553  GLY616  TRP617  ASP618  TYR619  PRO620  LYS621  CYS622 
 ASP623  PHE694  ASN695  SER759  ASP760  ASP761  ALA762  ILE779  LEU786  VAL792 
 PHE793  MET794  SER795  GLU796  ALA797  LYS798  CYS799  TRP800  GLU811  SER814 

> <Gold.Protein.RotatedAtoms>
  152.4336  134.5731  159.9926 H   0  0  0  0  0  0  0  0  0  0  0  0  # atno 6907 bound_to 6896
  151.5847  133.3368  159.3023 H   0  0  0  0  0  0  0  0  0  0  0  0  # atno 6908 bound_to 6896
  150.8231  134.7484  159.6854 H   0  0  0  0  0  0  0  0  0  0  0  0  # atno 6909 bound_to 6896
  146.2362  140.1953  142.8333 H   0  0  0  0  0  0  0  0  0  0  0  0  # atno 7974 bound_to 7965
  155.1968  140.3312  155.4349 H   0  0  0  0  0  0  0  0  0  0  0  0  # atno 8008 bound_to 7997
  156.2421  140.1900  156.7008 H   0  0  0  0  0  0  0  0  0  0  0  0  # atno 8009 bound_to 7997
  154.6168  140.0601  156.9550 H   0  0  0  0  0  0  0  0  0  0  0  0  # atno 8010 bound_to 7997
  140.2785  144.3184  150.6270 H   0  0  0  0  0  0  0  0  0  0  0  0  # atno 10167 bound_to 10162
  157.0417  131.0288  151.2711 H   0  0  0  0  0  0  0  0  0  0  0  0  # atno 10718 bound_to 10713
  153.0269  135.5223  154.7236 H   0  0  0  0  0  0  0  0  0  0  0  0  # atno 10763 bound_to 10752
  154.6284  135.2897  155.0247 H   0  0  0  0  0  0  0  0  0  0  0  0  # atno 10764 bound_to 10752
  154.1208  135.6608  153.4955 H   0  0  0  0  0  0  0  0  0  0  0  0  # atno 10765 bound_to 10752
  139.8772  134.9165  156.4843 H   0  0  0  0  0  0  0  0  0  0  0  0  # atno 11005 bound_to 11000
  144.9825  140.8473  143.5388 LP  0  0  0  0  0  0  0  0  0  0  0  0  # atno 17320 bound_to 7965
  145.1948  139.2282  143.5224 LP  0  0  0  0  0  0  0  0  0  0  0  0  # atno 17321 bound_to 7965
  140.5831  143.2171  151.7391 LP  0  0  0  0  0  0  0  0  0  0  0  0  # atno 17342 bound_to 10162
  139.4969  144.4050  152.0141 LP  0  0  0  0  0  0  0  0  0  0  0  0  # atno 17343 bound_to 10162
  157.5099  130.7932  149.7694 LP  0  0  0  0  0  0  0  0  0  0  0  0  # atno 17370 bound_to 10713
  156.0036  130.3867  150.2514 LP  0  0  0  0  0  0  0  0  0  0  0  0  # atno 17371 bound_to 10713
  140.8704  133.7992  155.9359 LP  0  0  0  0  0  0  0  0  0  0  0  0  # atno 17394 bound_to 11000
  140.8958  134.2439  157.5069 LP  0  0  0  0  0  0  0  0  0  0  0  0  # atno 17395 bound_to 11000

$$$$
