AV-unprocessed.smi:2856|AV-procd|sdf|10993|dock9
  -GOLD-   2272015443D 1   1.00000     0.00000
 Structure written by MMmdl.
 37 38  0  0  0  0  0  0  0  0  1 V2000
  151.9588  138.5953  154.3551 C   0  0  0  0  0  0  0  0  0  0  0  0
  150.2987  137.9911  154.7657 S   0  0  0  0  0  0  0  0  0  0  0  0
  149.2543  139.2916  154.0323 C   0  0  2  0  0  0  0  0  0  0  0  0
  149.5168  140.6255  154.7571 C   0  0  0  0  0  0  0  0  0  0  0  0
  148.6344  141.7585  154.2144 C   0  0  0  0  0  0  0  0  0  0  0  0
  147.1491  141.3863  154.3077 C   0  0  0  0  0  0  0  0  0  0  0  0
  146.8661  140.0718  153.5667 C   0  0  0  0  0  0  0  0  0  0  0  0
  147.7517  138.9180  154.0814 C   0  0  1  0  0  0  0  0  0  0  0  0
  147.4981  137.7266  153.2745 N   0  0  0  0  0  0  0  0  0  0  0  0
  146.3314  137.0714  153.1949 C   0  0  0  0  0  0  0  0  0  0  0  0
  145.3080  137.4255  153.7809 O   0  0  0  0  0  0  0  0  0  0  0  0
  146.4348  135.9929  152.4000 N   0  0  0  0  0  0  0  0  0  0  0  0
  145.4287  135.0397  152.1005 C   0  0  0  0  0  0  0  0  0  0  0  0
  145.6276  134.0643  151.0874 C   0  0  0  0  0  0  0  0  0  0  0  0
  144.4597  133.3552  151.1095 C   0  0  0  0  0  0  0  0  0  0  0  0
  143.9647  132.1909  150.3221 C   0  0  0  0  0  0  0  0  0  0  0  0
  143.6197  133.8547  152.0562 O   0  0  0  0  0  0  0  0  0  0  0  0
  144.2469  134.9346  152.6886 N   0  0  0  0  0  0  0  0  0  0  0  0
  152.7109  137.9206  154.7636 H   0  0  0  0  0  0  0  0  0  0  0  0
  152.1198  139.5862  154.7792 H   0  0  0  0  0  0  0  0  0  0  0  0
  152.1005  138.6494  153.2762 H   0  0  0  0  0  0  0  0  0  0  0  0
  149.5567  139.4174  152.9916 H   0  0  0  0  0  0  0  0  0  0  0  0
  149.3312  140.5050  155.8254 H   0  0  0  0  0  0  0  0  0  0  0  0
  150.5671  140.9015  154.6577 H   0  0  0  0  0  0  0  0  0  0  0  0
  148.8232  142.6764  154.7718 H   0  0  0  0  0  0  0  0  0  0  0  0
  148.8986  141.9655  153.1767 H   0  0  0  0  0  0  0  0  0  0  0  0
  146.8601  141.2869  155.3547 H   0  0  0  0  0  0  0  0  0  0  0  0
  146.5373  142.1872  153.8917 H   0  0  0  0  0  0  0  0  0  0  0  0
  145.8125  139.8119  153.6764 H   0  0  0  0  0  0  0  0  0  0  0  0
  147.0366  140.2193  152.4992 H   0  0  0  0  0  0  0  0  0  0  0  0
  147.4904  138.7222  155.1232 H   0  0  0  0  0  0  0  0  0  0  0  0
  148.2813  137.3630  152.7519 H   0  0  0  0  0  0  0  0  0  0  0  0
  147.3341  135.8290  151.9726 H   0  0  0  0  0  0  0  0  0  0  0  0
  146.4836  133.9077  150.4480 H   0  0  0  0  0  0  0  0  0  0  0  0
  144.7087  131.8684  149.5935 H   0  0  0  0  0  0  0  0  0  0  0  0
  143.0532  132.4487  149.7827 H   0  0  0  0  0  0  0  0  0  0  0  0
  143.7445  131.3473  150.9766 H   0  0  0  0  0  0  0  0  0  0  0  0
  1  2  1  0  0  0  0
  1 19  1  0  0  0  0
  1 20  1  0  0  0  0
  1 21  1  0  0  0  0
  2  3  1  0  0  0  0
  3  8  1  0  0  0  0
  3  4  1  0  0  0  0
  3 22  1  0  0  0  0
  4  5  1  0  0  0  0
  4 23  1  0  0  0  0
  4 24  1  0  0  0  0
  5  6  1  0  0  0  0
  5 25  1  0  0  0  0
  5 26  1  0  0  0  0
  6  7  1  0  0  0  0
  6 27  1  0  0  0  0
  6 28  1  0  0  0  0
  7  8  1  0  0  0  0
  7 29  1  0  0  0  0
  7 30  1  0  0  0  0
  8  9  1  0  0  0  0
  8 31  1  0  0  0  0
  9 10  1  0  0  0  0
  9 32  1  0  0  0  0
 10 11  2  0  0  0  0
 10 12  1  0  0  0  0
 12 13  1  0  0  0  0
 12 33  1  0  0  0  0
 13 18  2  0  0  0  0
 13 14  1  0  0  0  0
 14 15  2  0  0  0  0
 14 34  1  0  0  0  0
 15 16  1  0  0  0  0
 15 17  1  0  0  0  0
 16 35  1  0  0  0  0
 16 36  1  0  0  0  0
 16 37  1  0  0  0  0
 17 18  1  0  0  0  0
M  END
> <s_m_source_file>
AV-unprocessed.smi

> <i_m_source_file_index>
2856

> <i_lp_mmshare_version>
43012

> <i_f3d_flags>
0

> <s_epik_input>
W0NIM11TW0NAQEhdMVtDSDJdW0NIMl1bQ0gyXVtDSDJdW0NASF0xW05IXUMoPU8pW05IXWMyW2NIXWMoW0NIM10pb24y

> <s_epik_cmdline>
J2VwaWtfcHl0aG9uJywgJy1waCcsICc3LjAnLCAnLXRuJywgJzgnLCAnLW1hJywgJzIwMCcsICctbWV0YWxfYmluZGluZycsICctaW1hZScsICc8aW5maWxlLm1hZT4nLCAnLW9tYWUnLCAnPG91dGZpbGUubWFlPic=

> <r_lp_tautomer_probability>
1

> <r_epik_Ionization_Penalty>
2.20874e-05

> <r_epik_Ionization_Penalty_Charging>
0

> <r_epik_Ionization_Penalty_Neutral>
2.20874e-05

> <r_epik_State_Penalty>
-0

> <r_epik_Charging_Adjusted_Penalty>
0

> <i_epik_Tot_Q>
0

> <i_epik_Tot_abs_Q>
0

> <r_epik_Metal_State_Penalty>
-0

> <b_epik_Metal_Only>
0

> <s_lp_Force_Field>
OPLS_2005

> <r_lp_Energy>
6.84472

> <b_lp_Chiralities_Consistent>
1

> <s_lp_Variant>
AV-unprocessed.smi:2856-1

> <Gold.Version>
5.8.1

> <Gold.Id.Protein>
6NUR|6NUR_protein|mol2

> <Gold.PLP.Fitness>
36.5588

> <Gold.PLP.PLP>
-30.6817

> <Gold.PLP.part.hbond>
-1.9497

> <Gold.PLP.part.metal>
0.0000

> <Gold.PLP.part.buried>
-2.4254

> <Gold.PLP.part.nonpolar>
-27.2409

> <Gold.PLP.part.repulsive>
0.5103

> <Gold.PLP.ligand.clash>
0.0000

> <Gold.PLP.ligand.torsion>
0.0648

> <Gold.PLP.Chemscore.Hbond>
2.0000

> <Gold.PLP.Chemscore.CHOScore>
0.0000

> <Gold.PLP.Chemscore.Metal>
0.0000

> <Gold.Chemscore.Hbonds>
donor molecule, donor type, donor heavy atom, donor atom, acceptor molecule, acceptor atom, score
      L1  H     9    32       P1  7948  1.00
      L1  H    12    33       P1  7948  1.00

> <Gold.PLP.Chemscore.Internal.Correction>
0.0068

> <Gold.Rescore>
     Score         DG    S(hbond)    S(metal)    S(lipo)     H(rot)  DE(clash)    DE(int)     intcor
     16.07     -17.46       1.92        0.00      74.16       1.21       0.07       1.32       ----

> <Gold.Chemscore.Fitness>
16.0674

> <Gold.Chemscore.DG>
-17.4588

> <Gold.Chemscore.ZeroCoef>
-5.4800

> <Gold.Chemscore.Hbond>
1.9169

> <Gold.Chemscore.Metal>
0.0000

> <Gold.Chemscore.Lipo>
74.1559

> <Gold.Chemscore.Internal_Hbond>
0.0000

> <Gold.Chemscore.DEClash>
0.0749

> <Gold.Chemscore.DEInternal>
1.3165

> <Gold.Chemscore.Rot>
1.2109

> <Gold.Chemscore.Internal.Correction>
   9.000000E+99

> <Gold.Chemscore.Hbonds>
donor molecule, donor type, donor heavy atom, donor atom, acceptor molecule, acceptor atom, score
      L1  H     9    32       P1  7948  0.94
      L1  H    12    33       P1  7948  0.94

> <Gold.Chemscore.Hbond.Weighted>
-6.4025

> <Gold.Chemscore.Metal.Weighted>
-0.0000

> <Gold.Chemscore.Lipo.Weighted>
-8.6762

> <Gold.Chemscore.Internal_Hbond.Weighted>
0.0000

> <Gold.Chemscore.DEClash.Weighted>
0.0749

> <Gold.Chemscore.DEInternal.Weighted>
1.3165

> <Gold.Chemscore.Rot.Weighted>
3.1000

> <Gold.Chemscore.Internal.Correction.Weighted>
   9.000000E+99

> <Gold.Protein.RotatedTorsions>
[ 6907 6896 6895 6894 ] final   31.99 input  -60.11 | X-H torsion
[ 7974 7965 7964 7962 ] final   -4.16 input  175.53 | X-H torsion
[ 8008 7997 7996 7995 ] final -103.38 input   59.86 | X-H torsion
[ 10167 10162 10161 10158 ] final  -14.30 input  -65.29 | X-H torsion
[ 10718 10713 10712 10709 ] final  123.32 input   66.30 | X-H torsion
[ 10763 10752 10751 10750 ] final  -35.94 input  -60.55 | X-H torsion
[ 11005 11000 10999 10996 ] final -118.86 input  -57.11 | X-H torsion

> <Gold.Protein.ActiveResidues>
 VAL166  LYS551  ARG553  GLY616  TRP617  ASP618  TYR619  PRO620  LYS621  CYS622 
 ASP623  PHE694  ASN695  SER759  ASP760  ASP761  ALA762  ILE779  LEU786  VAL792 
 PHE793  MET794  SER795  GLU796  ALA797  LYS798  CYS799  TRP800  GLU811  SER814 

> <Gold.Protein.RotatedAtoms>
  152.0681  134.9551  160.0574 H   0  0  0  0  0  0  0  0  0  0  0  0  # atno 6907 bound_to 6896
  152.0888  133.4185  159.4542 H   0  0  0  0  0  0  0  0  0  0  0  0  # atno 6908 bound_to 6896
  150.6836  134.2816  159.4673 H   0  0  0  0  0  0  0  0  0  0  0  0  # atno 6909 bound_to 6896
  146.2377  140.1829  142.8332 H   0  0  0  0  0  0  0  0  0  0  0  0  # atno 7974 bound_to 7965
  154.8701  140.0423  157.1719 H   0  0  0  0  0  0  0  0  0  0  0  0  # atno 8008 bound_to 7997
  154.8748  140.2963  155.5439 H   0  0  0  0  0  0  0  0  0  0  0  0  # atno 8009 bound_to 7997
  156.2999  140.2422  156.3742 H   0  0  0  0  0  0  0  0  0  0  0  0  # atno 8010 bound_to 7997
  140.7198  143.5336  150.9491 H   0  0  0  0  0  0  0  0  0  0  0  0  # atno 10167 bound_to 10162
  157.5673  131.1085  150.8430 H   0  0  0  0  0  0  0  0  0  0  0  0  # atno 10718 bound_to 10713
  153.8715  135.6830  153.4774 H   0  0  0  0  0  0  0  0  0  0  0  0  # atno 10763 bound_to 10752
  153.1285  135.4708  154.9308 H   0  0  0  0  0  0  0  0  0  0  0  0  # atno 10764 bound_to 10752
  154.7712  135.3239  154.8136 H   0  0  0  0  0  0  0  0  0  0  0  0  # atno 10765 bound_to 10752
  141.0256  134.0059  157.3219 H   0  0  0  0  0  0  0  0  0  0  0  0  # atno 11005 bound_to 11000
  144.9919  140.8555  143.5334 LP  0  0  0  0  0  0  0  0  0  0  0  0  # atno 17320 bound_to 7965
  145.1837  139.2338  143.5279 LP  0  0  0  0  0  0  0  0  0  0  0  0  # atno 17321 bound_to 7965
  139.9057  143.6781  152.3124 LP  0  0  0  0  0  0  0  0  0  0  0  0  # atno 17342 bound_to 10162
  139.7147  144.7614  151.1054 LP  0  0  0  0  0  0  0  0  0  0  0  0  # atno 17343 bound_to 10162
  156.8911  130.5213  149.5286 LP  0  0  0  0  0  0  0  0  0  0  0  0  # atno 17370 bound_to 10713
  156.0721  130.5751  150.9403 LP  0  0  0  0  0  0  0  0  0  0  0  0  # atno 17371 bound_to 10713
  139.9174  135.0198  156.7933 LP  0  0  0  0  0  0  0  0  0  0  0  0  # atno 17394 bound_to 11000
  140.6497  133.9743  155.7749 LP  0  0  0  0  0  0  0  0  0  0  0  0  # atno 17395 bound_to 11000

$$$$
