AV-unprocessed.smi:2252|AV-procd|sdf|9104|dock4
  -GOLD-   2272012303D 1   1.00000     0.00000
 Structure written by MMmdl.
 46 48  0  0  0  0  0  0  0  0  3 V2000
  148.8078  141.1183  155.1776 C   0  0  0  0  0  0  0  0  0  0  0  0
  147.4761  141.4180  154.6470 N   0  0  0  0  0  0  0  0  0  0  0  0
  146.7471  142.5568  154.8757 C   0  0  0  0  0  0  0  0  0  0  0  0
  145.5670  142.4115  154.1948 C   0  0  0  0  0  0  0  0  0  0  0  0
  145.6248  141.1917  153.5777 N   0  3  0  0  0  0  0  0  0  0  0  0
  146.7863  140.5848  153.8491 C   0  0  0  0  0  0  0  0  0  0  0  0
  147.1895  139.2279  153.3508 C   0  0  0  0  0  0  0  0  0  0  0  0
  146.0597  138.4752  152.6291 C   0  0  0  0  0  0  0  0  0  0  0  0
  146.3707  137.0572  152.4731 N   0  0  0  0  0  0  0  0  0  0  0  0
  145.6565  136.0496  152.9985 C   0  0  0  0  0  0  0  0  0  0  0  0
  144.6463  136.2222  153.6810 O   0  0  0  0  0  0  0  0  0  0  0  0
  146.1719  134.6260  152.7326 C   0  0  1  0  0  0  0  0  0  0  0  0
  146.1027  134.3570  151.2130 C   0  0  0  0  0  0  0  0  0  0  0  0
  144.8314  133.8421  150.5720 C   0  0  0  0  0  0  0  0  0  0  0  0
  146.0407  132.9488  150.6610 C   0  0  0  0  0  0  0  0  0  0  0  0
  147.5555  134.4298  153.2535 N   0  3  0  0  0  0  0  0  0  0  0  0
  147.7371  134.6975  154.6972 C   0  0  0  0  0  0  0  0  0  0  0  0
  149.0631  134.0343  155.0505 C   0  0  0  0  0  0  0  0  0  0  0  0
  149.0761  132.7780  154.1834 C   0  0  0  0  0  0  0  0  0  0  0  0
  148.1472  133.0929  153.0013 C   0  0  0  0  0  0  0  0  0  0  0  0
  149.0931  141.8832  155.9008 H   0  0  0  0  0  0  0  0  0  0  0  0
  149.5270  141.1085  154.3581 H   0  0  0  0  0  0  0  0  0  0  0  0
  148.7939  140.1464  155.6717 H   0  0  0  0  0  0  0  0  0  0  0  0
  147.1113  143.3667  155.4914 H   0  0  0  0  0  0  0  0  0  0  0  0
  144.7131  143.0675  154.1053 H   0  0  0  0  0  0  0  0  0  0  0  0
  148.0342  139.3795  152.6781 H   0  0  0  0  0  0  0  0  0  0  0  0
  147.5608  138.6496  154.1968 H   0  0  0  0  0  0  0  0  0  0  0  0
  145.1338  138.6031  153.1927 H   0  0  0  0  0  0  0  0  0  0  0  0
  145.8903  138.9110  151.6441 H   0  0  0  0  0  0  0  0  0  0  0  0
  147.1859  136.8264  151.9235 H   0  0  0  0  0  0  0  0  0  0  0  0
  145.5172  133.9204  153.2482 H   0  0  0  0  0  0  0  0  0  0  0  0
  146.6603  135.0781  150.6170 H   0  0  0  0  0  0  0  0  0  0  0  0
  143.9927  133.6026  151.2207 H   0  0  0  0  0  0  0  0  0  0  0  0
  144.5661  134.2370  149.5932 H   0  0  0  0  0  0  0  0  0  0  0  0
  146.5859  132.7464  149.7414 H   0  0  0  0  0  0  0  0  0  0  0  0
  145.9981  132.1228  151.3685 H   0  0  0  0  0  0  0  0  0  0  0  0
  147.7422  135.7642  154.9237 H   0  0  0  0  0  0  0  0  0  0  0  0
  146.9280  134.2330  155.2637 H   0  0  0  0  0  0  0  0  0  0  0  0
  149.8889  134.6879  154.7656 H   0  0  0  0  0  0  0  0  0  0  0  0
  149.1586  133.8174  156.1150 H   0  0  0  0  0  0  0  0  0  0  0  0
  150.0846  132.5166  153.8611 H   0  0  0  0  0  0  0  0  0  0  0  0
  148.6812  131.9322  154.7475 H   0  0  0  0  0  0  0  0  0  0  0  0
  147.3727  132.3272  152.9420 H   0  0  0  0  0  0  0  0  0  0  0  0
  148.6854  133.0974  152.0528 H   0  0  0  0  0  0  0  0  0  0  0  0
  148.1484  135.0922  152.7732 H   0  0  0  0  0  0  0  0  0  0  0  0
  144.8935  140.8018  152.9959 H   0  0  0  0  0  0  0  0  0  0  0  0
  1  2  1  0  0  0  0
  1 21  1  0  0  0  0
  1 22  1  0  0  0  0
  1 23  1  0  0  0  0
  2  6  1  0  0  0  0
  2  3  1  0  0  0  0
  3  4  2  0  0  0  0
  3 24  1  0  0  0  0
  4  5  1  0  0  0  0
  4 25  1  0  0  0  0
  5  6  2  0  0  0  0
  5 46  1  0  0  0  0
  6  7  1  0  0  0  0
  7  8  1  0  0  0  0
  7 26  1  0  0  0  0
  7 27  1  0  0  0  0
  8  9  1  0  0  0  0
  8 28  1  0  0  0  0
  8 29  1  0  0  0  0
  9 10  1  0  0  0  0
  9 30  1  0  0  0  0
 10 11  2  0  0  0  0
 10 12  1  0  0  0  0
 12 13  1  0  0  0  0
 12 16  1  0  0  0  0
 12 31  1  0  0  0  0
 13 15  1  0  0  0  0
 13 14  1  0  0  0  0
 13 32  1  0  0  0  0
 14 15  1  0  0  0  0
 14 33  1  0  0  0  0
 14 34  1  0  0  0  0
 15 35  1  0  0  0  0
 15 36  1  0  0  0  0
 16 20  1  0  0  0  0
 16 17  1  0  0  0  0
 16 45  1  0  0  0  0
 17 18  1  0  0  0  0
 17 37  1  0  0  0  0
 17 38  1  0  0  0  0
 18 19  1  0  0  0  0
 18 39  1  0  0  0  0
 18 40  1  0  0  0  0
 19 20  1  0  0  0  0
 19 41  1  0  0  0  0
 19 42  1  0  0  0  0
 20 43  1  0  0  0  0
 20 44  1  0  0  0  0
M  CHG  1   5   1
M  CHG  1  16   1
M  END
> <s_m_source_file>
AV-unprocessed.smi

> <i_m_source_file_index>
2252

> <i_lp_mmshare_version>
43012

> <i_f3d_flags>
0

> <s_epik_input>
W0NIM11uMVtjSF1bY0hdbmMxW0NIMl1bQ0gyXVtOSF1DKD1PKVtDQEhdKFtDSF0yW0NIMl1bQ0gyXTIpTjNbQ0gyXVtDSDJdW0NIMl1bQ0gyXTM=

> <s_epik_cmdline>
J2VwaWtfcHl0aG9uJywgJy1waCcsICc3LjAnLCAnLXRuJywgJzgnLCAnLW1hJywgJzIwMCcsICctbWV0YWxfYmluZGluZycsICctaW1hZScsICc8aW5maWxlLm1hZT4nLCAnLW9tYWUnLCAnPG91dGZpbGUubWFlPic=

> <r_lp_tautomer_probability>
1

> <r_epik_Ionization_Penalty>
0.116886

> <r_epik_Ionization_Penalty_Charging>
0.00955009

> <r_epik_Ionization_Penalty_Neutral>
0.107336

> <r_epik_State_Penalty>
0.0956868

> <r_epik_Charging_Adjusted_Penalty>
0.105237

> <i_epik_Tot_Q>
2

> <i_epik_Tot_abs_Q>
2

> <r_epik_Metal_State_Penalty>
0.438836

> <b_epik_Metal_Only>
0

> <s_lp_Force_Field>
OPLS_2005

> <r_lp_Energy>
43.7014

> <b_lp_Chiralities_Consistent>
1

> <s_lp_Variant>
AV-unprocessed.smi:2252-2

> <Gold.Version>
5.8.1

> <Gold.Id.Protein>
6NUR|6NUR_protein|mol2

> <Gold.PLP.Fitness>
54.1443

> <Gold.PLP.PLP>
-38.0418

> <Gold.PLP.part.hbond>
-2.9497

> <Gold.PLP.part.metal>
0.0000

> <Gold.PLP.part.buried>
1.8604

> <Gold.PLP.part.nonpolar>
-37.6491

> <Gold.PLP.part.repulsive>
0.1259

> <Gold.PLP.ligand.clash>
0.0000

> <Gold.PLP.ligand.torsion>
0.6787

> <Gold.PLP.Chemscore.Hbond>
4.6880

> <Gold.PLP.Chemscore.CHOScore>
0.7519

> <Gold.PLP.Chemscore.Metal>
0.0000

> <Gold.Chemscore.Hbonds>
donor molecule, donor type, donor heavy atom, donor atom, acceptor molecule, acceptor atom, score
      L1  H     5    46       P1 10175  1.07
      L1  H     9    30       P1  7948  1.00
      L1  H    16    45       P1  7948  2.00
      L1  C     3    24       P1  8028  0.39

> <Gold.PLP.Chemscore.Internal.Correction>
1.1402

> <Gold.Rescore>
     Score         DG    S(hbond)    S(metal)    S(lipo)     H(rot)  DE(clash)    DE(int)     intcor
     16.28     -17.98       2.56        0.00      78.39       2.05       0.48       1.22       ----

> <Gold.Chemscore.Fitness>
16.2751

> <Gold.Chemscore.DG>
-17.9757

> <Gold.Chemscore.ZeroCoef>
-5.4800

> <Gold.Chemscore.Hbond>
2.5632

> <Gold.Chemscore.Metal>
0.0000

> <Gold.Chemscore.Lipo>
78.3897

> <Gold.Chemscore.Internal_Hbond>
0.0000

> <Gold.Chemscore.DEClash>
0.4810

> <Gold.Chemscore.DEInternal>
1.2196

> <Gold.Chemscore.Rot>
2.0456

> <Gold.Chemscore.Internal.Correction>
   9.000000E+99

> <Gold.Chemscore.Hbonds>
donor molecule, donor type, donor heavy atom, donor atom, acceptor molecule, acceptor atom, score
      L1  H     5    46       P1 10175  0.30
      L1  H     9    30       P1  7948  0.94
      L1  H    16    45       P1  7948  0.92

> <Gold.Chemscore.Hbond.Weighted>
-8.5610

> <Gold.Chemscore.Metal.Weighted>
-0.0000

> <Gold.Chemscore.Lipo.Weighted>
-9.1716

> <Gold.Chemscore.Internal_Hbond.Weighted>
0.0000

> <Gold.Chemscore.DEClash.Weighted>
0.4810

> <Gold.Chemscore.DEInternal.Weighted>
1.2196

> <Gold.Chemscore.Rot.Weighted>
5.2368

> <Gold.Chemscore.Internal.Correction.Weighted>
   9.000000E+99

> <Gold.Protein.RotatedTorsions>
[ 6907 6896 6895 6894 ] final  -89.21 input  -60.11 | X-H torsion
[ 7974 7965 7964 7962 ] final  141.45 input  175.53 | X-H torsion
[ 8008 7997 7996 7995 ] final  -48.38 input   59.86 | X-H torsion
[ 10167 10162 10161 10158 ] final  -44.15 input  -65.29 | X-H torsion
[ 10718 10713 10712 10709 ] final  -34.69 input   66.30 | X-H torsion
[ 10763 10752 10751 10750 ] final   87.01 input  -60.55 | X-H torsion
[ 11005 11000 10999 10996 ] final   17.13 input  -57.11 | X-H torsion

> <Gold.Protein.ActiveResidues>
 VAL166  LYS551  ARG553  GLY616  TRP617  ASP618  TYR619  PRO620  LYS621  CYS622 
 ASP623  PHE694  ASN695  SER759  ASP760  ASP761  ALA762  ILE779  LEU786  VAL792 
 PHE793  MET794  SER795  GLU796  ALA797  LYS798  CYS799  TRP800  GLU811  SER814 

> <Gold.Protein.RotatedAtoms>
  150.6872  134.2622  159.4553 H   0  0  0  0  0  0  0  0  0  0  0  0  # atno 6907 bound_to 6896
  152.0551  134.9627  160.0584 H   0  0  0  0  0  0  0  0  0  0  0  0  # atno 6908 bound_to 6896
  152.1076  133.4248  159.4653 H   0  0  0  0  0  0  0  0  0  0  0  0  # atno 6909 bound_to 6896
  144.9096  139.5311  143.5715 H   0  0  0  0  0  0  0  0  0  0  0  0  # atno 7974 bound_to 7965
  154.4028  140.1323  156.4329 H   0  0  0  0  0  0  0  0  0  0  0  0  # atno 8008 bound_to 7997
  155.7533  140.3487  155.5141 H   0  0  0  0  0  0  0  0  0  0  0  0  # atno 8009 bound_to 7997
  155.8928  140.1006  157.1396 H   0  0  0  0  0  0  0  0  0  0  0  0  # atno 8010 bound_to 7997
  140.6908  143.2945  151.3454 H   0  0  0  0  0  0  0  0  0  0  0  0  # atno 10167 bound_to 10162
  156.3475  130.4303  149.7733 H   0  0  0  0  0  0  0  0  0  0  0  0  # atno 10718 bound_to 10713
  153.1626  135.4559  154.9793 H   0  0  0  0  0  0  0  0  0  0  0  0  # atno 10763 bound_to 10752
  154.7908  135.3220  154.7783 H   0  0  0  0  0  0  0  0  0  0  0  0  # atno 10764 bound_to 10752
  153.8271  135.6942  153.4874 H   0  0  0  0  0  0  0  0  0  0  0  0  # atno 10765 bound_to 10752
  140.4394  134.1338  155.7689 H   0  0  0  0  0  0  0  0  0  0  0  0  # atno 11005 bound_to 11000
  146.3151  139.7891  142.8989 LP  0  0  0  0  0  0  0  0  0  0  0  0  # atno 17320 bound_to 7965
  145.3477  141.0301  143.3356 LP  0  0  0  0  0  0  0  0  0  0  0  0  # atno 17321 bound_to 7965
  139.6308  144.0724  152.2475 LP  0  0  0  0  0  0  0  0  0  0  0  0  # atno 17342 bound_to 10162
  140.0198  144.6161  150.7576 LP  0  0  0  0  0  0  0  0  0  0  0  0  # atno 17343 bound_to 10162
  156.4946  130.8101  151.3108 LP  0  0  0  0  0  0  0  0  0  0  0  0  # atno 17370 bound_to 10713
  157.7456  130.9964  150.2779 LP  0  0  0  0  0  0  0  0  0  0  0  0  # atno 17371 bound_to 10713
  141.1712  133.8605  157.1564 LP  0  0  0  0  0  0  0  0  0  0  0  0  # atno 17394 bound_to 11000
  140.0080  135.0000  157.0335 LP  0  0  0  0  0  0  0  0  0  0  0  0  # atno 17395 bound_to 11000

$$$$
