AV-unprocessed.smi:809|AV-procd|sdf|3808|dock3
  -GOLD-   22720 1243D 1   1.00000     0.00000
 Structure written by MMmdl.
 39 40  0  0  0  0  0  0  0  0  3 V2000
  146.8312  137.6573  163.3733 C   0  0  0  0  0  0  0  0  0  0  0  0
  147.1917  136.4799  162.5233 C   0  0  0  0  0  0  0  0  0  0  0  0
  146.8399  135.1718  162.7321 C   0  0  0  0  0  0  0  0  0  0  0  0
  147.4798  134.1288  161.4943 S   0  0  0  0  0  0  0  0  0  0  0  0
  148.2150  135.5292  160.7107 C   0  0  0  0  0  0  0  0  0  0  0  0
  148.9474  135.4837  159.5859 N   0  5  0  0  0  0  0  0  0  0  0  0
  149.1505  136.6099  158.8671 C   0  0  0  0  0  0  0  0  0  0  0  0
  148.5431  137.6753  158.9958 O   0  0  0  0  0  0  0  0  0  0  0  0
  150.1045  136.4849  157.9326 N   0  0  0  0  0  0  0  0  0  0  0  0
  150.5057  137.4935  156.9530 C   0  0  0  0  0  0  0  0  0  0  0  0
  150.5547  136.9386  155.5029 C   0  0  1  0  0  0  0  0  0  0  0  0
  151.6626  136.0594  155.4490 O   0  0  0  0  0  0  0  0  0  0  0  0
  149.2967  136.1642  155.0433 C   0  0  0  0  0  0  0  0  0  0  0  0
  148.0977  137.1007  154.8162 C   0  0  0  0  0  0  0  0  0  0  0  0
  148.4282  138.1544  153.8258 N   0  3  1  0  0  0  0  0  0  0  0  0
  147.2610  139.0009  153.4980 C   0  0  0  0  0  0  0  0  0  0  0  0
  149.6103  138.9553  154.2309 C   0  0  0  0  0  0  0  0  0  0  0  0
  150.8391  138.0576  154.4767 C   0  0  0  0  0  0  0  0  0  0  0  0
  147.9735  136.6618  161.3800 N   0  0  0  0  0  0  0  0  0  0  0  0
  146.0328  137.4129  164.0742 H   0  0  0  0  0  0  0  0  0  0  0  0
  146.4882  138.4940  162.7640 H   0  0  0  0  0  0  0  0  0  0  0  0
  147.6883  137.9986  163.9540 H   0  0  0  0  0  0  0  0  0  0  0  0
  146.2476  134.7590  163.5346 H   0  0  0  0  0  0  0  0  0  0  0  0
  150.5730  135.5921  157.8746 H   0  0  0  0  0  0  0  0  0  0  0  0
  149.8339  138.3492  157.0092 H   0  0  0  0  0  0  0  0  0  0  0  0
  151.4825  137.8827  157.2433 H   0  0  0  0  0  0  0  0  0  0  0  0
  151.3823  135.1991  155.7203 H   0  0  0  0  0  0  0  0  0  0  0  0
  149.5115  135.6506  154.1047 H   0  0  0  0  0  0  0  0  0  0  0  0
  149.0312  135.3770  155.7491 H   0  0  0  0  0  0  0  0  0  0  0  0
  147.2483  136.5183  154.4571 H   0  0  0  0  0  0  0  0  0  0  0  0
  147.7862  137.5646  155.7516 H   0  0  0  0  0  0  0  0  0  0  0  0
  146.9191  139.5515  154.3754 H   0  0  0  0  0  0  0  0  0  0  0  0
  146.4336  138.3917  153.1324 H   0  0  0  0  0  0  0  0  0  0  0  0
  147.5138  139.7206  152.7186 H   0  0  0  0  0  0  0  0  0  0  0  0
  149.8431  139.6745  153.4448 H   0  0  0  0  0  0  0  0  0  0  0  0
  149.3705  139.5382  155.1206 H   0  0  0  0  0  0  0  0  0  0  0  0
  151.6846  138.6654  154.8017 H   0  0  0  0  0  0  0  0  0  0  0  0
  151.1343  137.6143  153.5239 H   0  0  0  0  0  0  0  0  0  0  0  0
  148.6830  137.6754  152.9740 H   0  0  0  0  0  0  0  0  0  0  0  0
  1  2  1  0  0  0  0
  1 20  1  0  0  0  0
  1 21  1  0  0  0  0
  1 22  1  0  0  0  0
  2 19  1  0  0  0  0
  2  3  2  0  0  0  0
  3  4  1  0  0  0  0
  3 23  1  0  0  0  0
  4  5  1  0  0  0  0
  5  6  1  0  0  0  0
  5 19  2  0  0  0  0
  6  7  1  0  0  0  0
  7  8  2  0  0  0  0
  7  9  1  0  0  0  0
  9 10  1  0  0  0  0
  9 24  1  0  0  0  0
 10 11  1  0  0  0  0
 10 25  1  0  0  0  0
 10 26  1  0  0  0  0
 11 18  1  0  0  0  0
 11 12  1  0  0  0  0
 11 13  1  0  0  0  0
 12 27  1  0  0  0  0
 13 14  1  0  0  0  0
 13 28  1  0  0  0  0
 13 29  1  0  0  0  0
 14 15  1  0  0  0  0
 14 30  1  0  0  0  0
 14 31  1  0  0  0  0
 15 16  1  0  0  0  0
 15 17  1  0  0  0  0
 15 39  1  0  0  0  0
 16 32  1  0  0  0  0
 16 33  1  0  0  0  0
 16 34  1  0  0  0  0
 17 18  1  0  0  0  0
 17 35  1  0  0  0  0
 17 36  1  0  0  0  0
 18 37  1  0  0  0  0
 18 38  1  0  0  0  0
M  CHG  1   6  -1
M  CHG  1  15   1
M  END
> <s_m_source_file>
AV-unprocessed.smi

> <i_m_source_file_index>
809

> <i_lp_mmshare_version>
43012

> <i_f3d_flags>
0

> <s_epik_input>
W0NIM11jMVtjSF1zYyhuMSlbTkhdQyg9TylbTkhdW0NIMl1DMihbT0hdKVtDSDJdW0NIMl1OKFtDSDNdKVtDSDJdW0NIMl0y

> <s_epik_cmdline>
J2VwaWtfcHl0aG9uJywgJy1waCcsICc3LjAnLCAnLXRuJywgJzgnLCAnLW1hJywgJzIwMCcsICctbWV0YWxfYmluZGluZycsICctaW1hZScsICc8aW5maWxlLm1hZT4nLCAnLW9tYWUnLCAnPG91dGZpbGUubWFlPic=

> <r_lp_tautomer_probability>
0.999

> <r_epik_Ionization_Penalty>
8.50704

> <r_epik_Ionization_Penalty_Charging>
6.65046

> <r_epik_Ionization_Penalty_Neutral>
1.85657

> <r_epik_State_Penalty>
6.64992

> <r_epik_Charging_Adjusted_Penalty>
13.3004

> <i_epik_Tot_Q>
0

> <i_epik_Tot_abs_Q>
2

> <r_epik_Metal_State_Penalty>
2.57297

> <b_epik_Metal_Only>
1

> <s_lp_Force_Field>
OPLS_2005

> <r_lp_Energy>
8.4344

> <b_lp_Chiralities_Consistent>
1

> <s_lp_Variant>
AV-unprocessed.smi:809-4

> <Gold.Version>
5.8.1

> <Gold.Id.Protein>
6NUR|6NUR_protein|mol2

> <Gold.PLP.Fitness>
48.3505

> <Gold.PLP.PLP>
-30.7258

> <Gold.PLP.part.hbond>
-4.8330

> <Gold.PLP.part.metal>
0.0000

> <Gold.PLP.part.buried>
-3.5835

> <Gold.PLP.part.nonpolar>
-23.3998

> <Gold.PLP.part.repulsive>
0.1002

> <Gold.PLP.ligand.clash>
0.0000

> <Gold.PLP.ligand.torsion>
0.2226

> <Gold.PLP.Chemscore.Hbond>
6.0187

> <Gold.PLP.Chemscore.CHOScore>
0.0000

> <Gold.PLP.Chemscore.Metal>
0.0000

> <Gold.Chemscore.Hbonds>
donor molecule, donor type, donor heavy atom, donor atom, acceptor molecule, acceptor atom, score
      L1  H    15    39       P1  7948  2.00
      P1  H  6896  6908       L1     6  2.00
      P1  H  6931  6943       L1    19  1.00
      P1  H 10752 10764       L1    12  0.80

> <Gold.PLP.Chemscore.Internal.Correction>
0.0137

> <Gold.Rescore>
     Score         DG    S(hbond)    S(metal)    S(lipo)     H(rot)  DE(clash)    DE(int)     intcor
     15.05     -17.06       2.33        0.00      72.38       1.82       0.27       1.74       ----

> <Gold.Chemscore.Fitness>
15.0473

> <Gold.Chemscore.DG>
-17.0624

> <Gold.Chemscore.ZeroCoef>
-5.4800

> <Gold.Chemscore.Hbond>
2.3264

> <Gold.Chemscore.Metal>
0.0000

> <Gold.Chemscore.Lipo>
72.3773

> <Gold.Chemscore.Internal_Hbond>
0.0000

> <Gold.Chemscore.DEClash>
0.2747

> <Gold.Chemscore.DEInternal>
1.7404

> <Gold.Chemscore.Rot>
1.8186

> <Gold.Chemscore.Internal.Correction>
   9.000000E+99

> <Gold.Chemscore.Hbonds>
donor molecule, donor type, donor heavy atom, donor atom, acceptor molecule, acceptor atom, score
      L1  H    15    39       P1  7948  0.99
      P1  H  6896  6908       L1     6  0.47
      P1  H  6931  6943       L1    19  0.29
      P1  H 10752 10764       L1    12  0.12

> <Gold.Chemscore.Hbond.Weighted>
-7.7700

> <Gold.Chemscore.Metal.Weighted>
-0.0000

> <Gold.Chemscore.Lipo.Weighted>
-8.4681

> <Gold.Chemscore.Internal_Hbond.Weighted>
0.0000

> <Gold.Chemscore.DEClash.Weighted>
0.2747

> <Gold.Chemscore.DEInternal.Weighted>
1.7404

> <Gold.Chemscore.Rot.Weighted>
4.6557

> <Gold.Chemscore.Internal.Correction.Weighted>
   9.000000E+99

> <Gold.Protein.RotatedTorsions>
[ 6907 6896 6895 6894 ] final  166.32 input  -60.11 | X-H torsion
[ 7974 7965 7964 7962 ] final   50.44 input  175.53 | X-H torsion
[ 8008 7997 7996 7995 ] final  -17.30 input   59.86 | X-H torsion
[ 10167 10162 10161 10158 ] final   97.48 input  -65.29 | X-H torsion
[ 10718 10713 10712 10709 ] final  -81.29 input   66.30 | X-H torsion
[ 10763 10752 10751 10750 ] final  -59.40 input  -60.55 | X-H torsion
[ 11005 11000 10999 10996 ] final  141.64 input  -57.11 | X-H torsion

> <Gold.Protein.ActiveResidues>
 VAL166  LYS551  ARG553  GLY616  TRP617  ASP618  TYR619  PRO620  LYS621  CYS622 
 ASP623  PHE694  ASN695  SER759  ASP760  ASP761  ALA762  ILE779  LEU786  VAL792 
 PHE793  MET794  SER795  GLU796  ALA797  LYS798  CYS799  TRP800  GLU811  SER814 

> <Gold.Protein.RotatedAtoms>
  151.8807  133.3494  159.3764 H   0  0  0  0  0  0  0  0  0  0  0  0  # atno 6907 bound_to 6896
  150.7128  134.5022  159.5576 H   0  0  0  0  0  0  0  0  0  0  0  0  # atno 6908 bound_to 6896
  152.2573  134.8071  160.0487 H   0  0  0  0  0  0  0  0  0  0  0  0  # atno 6909 bound_to 6896
  146.0012  139.4441  143.0014 H   0  0  0  0  0  0  0  0  0  0  0  0  # atno 7974 bound_to 7965
  154.4988  140.2146  155.9390 H   0  0  0  0  0  0  0  0  0  0  0  0  # atno 8008 bound_to 7997
  156.1406  140.3180  155.8458 H   0  0  0  0  0  0  0  0  0  0  0  0  # atno 8009 bound_to 7997
  155.4126  140.0491  157.3021 H   0  0  0  0  0  0  0  0  0  0  0  0  # atno 8010 bound_to 7997
  139.7797  144.6893  151.0039 H   0  0  0  0  0  0  0  0  0  0  0  0  # atno 10167 bound_to 10162
  156.0053  130.4599  150.3930 H   0  0  0  0  0  0  0  0  0  0  0  0  # atno 10718 bound_to 10713
  154.2532  135.6322  153.5247 H   0  0  0  0  0  0  0  0  0  0  0  0  # atno 10763 bound_to 10752
  152.9908  135.5569  154.5785 H   0  0  0  0  0  0  0  0  0  0  0  0  # atno 10764 bound_to 10752
  154.5317  135.2889  155.1149 H   0  0  0  0  0  0  0  0  0  0  0  0  # atno 10765 bound_to 10752
  140.0417  134.9301  157.0855 H   0  0  0  0  0  0  0  0  0  0  0  0  # atno 11005 bound_to 11000
  145.7485  140.9981  143.1263 LP  0  0  0  0  0  0  0  0  0  0  0  0  # atno 17320 bound_to 7965
  144.6920  139.9185  143.7467 LP  0  0  0  0  0  0  0  0  0  0  0  0  # atno 17321 bound_to 7965
  140.7818  143.4496  151.0432 LP  0  0  0  0  0  0  0  0  0  0  0  0  # atno 17342 bound_to 10162
  139.8177  143.7863  152.3175 LP  0  0  0  0  0  0  0  0  0  0  0  0  # atno 17343 bound_to 10162
  157.2004  131.0436  151.2653 LP  0  0  0  0  0  0  0  0  0  0  0  0  # atno 17370 bound_to 10713
  157.3981  130.7318  149.6746 LP  0  0  0  0  0  0  0  0  0  0  0  0  # atno 17371 bound_to 10713
  140.4059  134.2033  155.7163 LP  0  0  0  0  0  0  0  0  0  0  0  0  # atno 17394 bound_to 11000
  141.1886  133.8256  157.0988 LP  0  0  0  0  0  0  0  0  0  0  0  0  # atno 17395 bound_to 11000

$$$$
