AV-unprocessed.smi:1685|AV-procd|sdf|6757|dock1
  -GOLD-   22720 7513D 1   1.00000     0.00000
 Structure written by MMmdl.
 40 41  0  0  0  0  0  0  0  0  1 V2000
  149.3051  130.5942  154.0287 C   0  0  0  0  0  0  0  0  0  0  0  0
  149.9995  131.9566  154.1297 C   0  0  0  0  0  0  0  0  0  0  0  0
  150.1188  132.4376  155.5413 C   0  0  0  0  0  0  0  0  0  0  0  0
  150.6840  131.7612  156.5331 N   0  0  0  0  0  0  0  0  0  0  0  0
  150.5319  132.5910  157.6278 N   0  0  0  0  0  0  0  0  0  0  0  0
  149.9069  133.6869  157.3077 N   0  0  0  0  0  0  0  0  0  0  0  0
  149.6320  133.6069  155.9816 N   0  0  0  0  0  0  0  0  0  0  0  0
  148.9305  134.6828  155.2996 C   0  0  0  0  0  0  0  0  0  0  0  0
  149.6193  136.0302  155.5248 C   0  0  0  0  0  0  0  0  0  0  0  0
  149.9289  136.3784  156.6637 O   0  0  0  0  0  0  0  0  0  0  0  0
  149.8559  136.7738  154.4327 N   0  0  0  0  0  0  0  0  0  0  0  0
  150.4786  138.0930  154.4249 C   0  0  0  0  0  0  0  0  0  0  0  0
  151.8942  137.9962  155.0334 C   0  0  0  0  0  0  0  0  0  0  0  0
  152.5146  139.3905  155.2302 C   0  0  0  0  0  0  0  0  0  0  0  0
  151.6121  140.1933  156.0645 N   0  0  0  0  0  0  0  0  0  0  0  0
  151.8404  140.5450  157.3528 C   0  0  0  0  0  0  0  0  0  0  0  0
  150.7673  141.3237  158.1172 C   0  0  0  0  0  0  0  0  0  0  0  0
  152.8849  140.2685  157.9429 O   0  0  0  0  0  0  0  0  0  0  0  0
  150.3369  140.4498  155.3855 C   0  0  0  0  0  0  0  0  0  0  0  0
  149.6013  139.1119  155.1884 C   0  0  0  0  0  0  0  0  0  0  0  0
  149.2381  130.2683  152.9908 H   0  0  0  0  0  0  0  0  0  0  0  0
  148.2924  130.6386  154.4303 H   0  0  0  0  0  0  0  0  0  0  0  0
  149.8525  129.8312  154.5832 H   0  0  0  0  0  0  0  0  0  0  0  0
  150.9997  131.8914  153.7001 H   0  0  0  0  0  0  0  0  0  0  0  0
  149.4606  132.6955  153.5364 H   0  0  0  0  0  0  0  0  0  0  0  0
  148.8844  134.4553  154.2340 H   0  0  0  0  0  0  0  0  0  0  0  0
  147.9018  134.7317  155.6599 H   0  0  0  0  0  0  0  0  0  0  0  0
  149.5679  136.4029  153.5384 H   0  0  0  0  0  0  0  0  0  0  0  0
  150.5863  138.4351  153.3938 H   0  0  0  0  0  0  0  0  0  0  0  0
  151.8502  137.4870  155.9976 H   0  0  0  0  0  0  0  0  0  0  0  0
  152.5360  137.3898  154.3931 H   0  0  0  0  0  0  0  0  0  0  0  0
  153.5196  139.2962  155.6389 H   0  0  0  0  0  0  0  0  0  0  0  0
  152.6403  139.8808  154.2639 H   0  0  0  0  0  0  0  0  0  0  0  0
  150.5351  142.2617  157.6118 H   0  0  0  0  0  0  0  0  0  0  0  0
  151.1113  141.5654  159.1235 H   0  0  0  0  0  0  0  0  0  0  0  0
  149.8548  140.7343  158.2096 H   0  0  0  0  0  0  0  0  0  0  0  0
  149.6998  141.1466  155.9317 H   0  0  0  0  0  0  0  0  0  0  0  0
  150.5279  140.9189  154.4193 H   0  0  0  0  0  0  0  0  0  0  0  0
  148.6658  139.2791  154.6535 H   0  0  0  0  0  0  0  0  0  0  0  0
  149.3304  138.7079  156.1651 H   0  0  0  0  0  0  0  0  0  0  0  0
  1  2  1  0  0  0  0
  1 21  1  0  0  0  0
  1 22  1  0  0  0  0
  1 23  1  0  0  0  0
  2  3  1  0  0  0  0
  2 24  1  0  0  0  0
  2 25  1  0  0  0  0
  3  7  1  0  0  0  0
  3  4  2  0  0  0  0
  4  5  1  0  0  0  0
  5  6  2  0  0  0  0
  6  7  1  0  0  0  0
  7  8  1  0  0  0  0
  8  9  1  0  0  0  0
  8 26  1  0  0  0  0
  8 27  1  0  0  0  0
  9 10  2  0  0  0  0
  9 11  1  0  0  0  0
 11 12  1  0  0  0  0
 11 28  1  0  0  0  0
 12 20  1  0  0  0  0
 12 13  1  0  0  0  0
 12 29  1  0  0  0  0
 13 14  1  0  0  0  0
 13 30  1  0  0  0  0
 13 31  1  0  0  0  0
 14 15  1  0  0  0  0
 14 32  1  0  0  0  0
 14 33  1  0  0  0  0
 15 16  1  0  0  0  0
 15 19  1  0  0  0  0
 16 17  1  0  0  0  0
 16 18  2  0  0  0  0
 17 34  1  0  0  0  0
 17 35  1  0  0  0  0
 17 36  1  0  0  0  0
 19 20  1  0  0  0  0
 19 37  1  0  0  0  0
 19 38  1  0  0  0  0
 20 39  1  0  0  0  0
 20 40  1  0  0  0  0
M  END
> <s_m_source_file>
AV-unprocessed.smi

> <i_m_source_file_index>
1685

> <i_lp_mmshare_version>
43012

> <i_f3d_flags>
0

> <s_epik_input>
W0NIM11bQ0gyXWMxbm5ubjFbQ0gyXUMoPU8pW05IXVtDSF0yW0NIMl1bQ0gyXU4oQyg9TylbQ0gzXSlbQ0gyXVtDSDJdMg==

> <s_epik_cmdline>
J2VwaWtfcHl0aG9uJywgJy1waCcsICc3LjAnLCAnLXRuJywgJzgnLCAnLW1hJywgJzIwMCcsICctbWV0YWxfYmluZGluZycsICctaW1hZScsICc8aW5maWxlLm1hZT4nLCAnLW9tYWUnLCAnPG91dGZpbGUubWFlPic=

> <r_lp_tautomer_probability>
1

> <r_epik_Ionization_Penalty>
1.8486e-06

> <r_epik_Ionization_Penalty_Charging>
0

> <r_epik_Ionization_Penalty_Neutral>
1.8486e-06

> <r_epik_State_Penalty>
-0

> <r_epik_Charging_Adjusted_Penalty>
0

> <i_epik_Tot_Q>
0

> <i_epik_Tot_abs_Q>
0

> <r_epik_Metal_State_Penalty>
-0

> <b_epik_Metal_Only>
0

> <s_lp_Force_Field>
OPLS_2005

> <r_lp_Energy>
22.135

> <b_lp_Chiralities_Consistent>
1

> <s_lp_Variant>
AV-unprocessed.smi:1685-1

> <Gold.Version>
5.8.1

> <Gold.Id.Protein>
6NUR|6NUR_protein|mol2

> <Gold.PLP.Fitness>
39.0611

> <Gold.PLP.PLP>
-30.5533

> <Gold.PLP.part.hbond>
-3.2273

> <Gold.PLP.part.metal>
0.0000

> <Gold.PLP.part.buried>
-1.6841

> <Gold.PLP.part.nonpolar>
-25.4723

> <Gold.PLP.part.repulsive>
0.0350

> <Gold.PLP.ligand.clash>
0.0000

> <Gold.PLP.ligand.torsion>
0.1763

> <Gold.PLP.Chemscore.Hbond>
2.9440

> <Gold.PLP.Chemscore.CHOScore>
0.0000

> <Gold.PLP.Chemscore.Metal>
0.0000

> <Gold.Chemscore.Hbonds>
donor molecule, donor type, donor heavy atom, donor atom, acceptor molecule, acceptor atom, score
      L1  H    11    28       P1  7948  1.00
      P1  H  6896  6907       L1     5  0.60
      P1  H  7997  8010       L1    18  0.93

> <Gold.PLP.Chemscore.Internal.Correction>
0.0285

> <Gold.Rescore>
     Score         DG    S(hbond)    S(metal)    S(lipo)     H(rot)  DE(clash)    DE(int)     intcor
     11.00     -13.39       1.87        0.00      54.72       1.85       0.06       2.33       ----

> <Gold.Chemscore.Fitness>
11.0030

> <Gold.Chemscore.DG>
-13.3933

> <Gold.Chemscore.ZeroCoef>
-5.4800

> <Gold.Chemscore.Hbond>
1.8686

> <Gold.Chemscore.Metal>
0.0000

> <Gold.Chemscore.Lipo>
54.7165

> <Gold.Chemscore.Internal_Hbond>
0.0000

> <Gold.Chemscore.DEClash>
0.0582

> <Gold.Chemscore.DEInternal>
2.3320

> <Gold.Chemscore.Rot>
1.8476

> <Gold.Chemscore.Internal.Correction>
   9.000000E+99

> <Gold.Chemscore.Hbonds>
donor molecule, donor type, donor heavy atom, donor atom, acceptor molecule, acceptor atom, score
      L1  H    11    28       P1  7948  0.60
      P1  H  6896  6907       L1     5  0.04
      P1  H  7997  8010       L1    18  0.84

> <Gold.Chemscore.Hbond.Weighted>
-6.2412

> <Gold.Chemscore.Metal.Weighted>
-0.0000

> <Gold.Chemscore.Lipo.Weighted>
-6.4018

> <Gold.Chemscore.Internal_Hbond.Weighted>
0.0000

> <Gold.Chemscore.DEClash.Weighted>
0.0582

> <Gold.Chemscore.DEInternal.Weighted>
2.3320

> <Gold.Chemscore.Rot.Weighted>
4.7298

> <Gold.Chemscore.Internal.Correction.Weighted>
   9.000000E+99

> <Gold.Protein.RotatedTorsions>
[ 6907 6896 6895 6894 ] final -155.33 input  -60.11 | X-H torsion
[ 7974 7965 7964 7962 ] final   85.77 input  175.53 | X-H torsion
[ 8008 7997 7996 7995 ] final   48.37 input   59.86 | X-H torsion
[ 10167 10162 10161 10158 ] final -107.43 input  -65.29 | X-H torsion
[ 10718 10713 10712 10709 ] final  126.06 input   66.30 | X-H torsion
[ 10763 10752 10751 10750 ] final -136.13 input  -60.55 | X-H torsion
[ 11005 11000 10999 10996 ] final -109.63 input  -57.11 | X-H torsion

> <Gold.Protein.ActiveResidues>
 VAL166  LYS551  ARG553  GLY616  TRP617  ASP618  TYR619  PRO620  LYS621  CYS622 
 ASP623  PHE694  ASN695  SER759  ASP760  ASP761  ALA762  ILE779  LEU786  VAL792 
 PHE793  MET794  SER795  GLU796  ALA797  LYS798  CYS799  TRP800  GLU811  SER814 

> <Gold.Protein.RotatedAtoms>
  151.2709  133.4255  159.2620 H   0  0  0  0  0  0  0  0  0  0  0  0  # atno 6907 bound_to 6896
  151.0446  134.9631  159.8190 H   0  0  0  0  0  0  0  0  0  0  0  0  # atno 6908 bound_to 6896
  152.5371  134.2666  159.9008 H   0  0  0  0  0  0  0  0  0  0  0  0  # atno 6909 bound_to 6896
  145.5811  139.2325  143.2352 H   0  0  0  0  0  0  0  0  0  0  0  0  # atno 7974 bound_to 7965
  155.3844  140.3430  155.4248 H   0  0  0  0  0  0  0  0  0  0  0  0  # atno 8008 bound_to 7997
  156.1592  140.1595  156.8674 H   0  0  0  0  0  0  0  0  0  0  0  0  # atno 8009 bound_to 7997
  154.5124  140.0787  156.7997 H   0  0  0  0  0  0  0  0  0  0  0  0  # atno 8010 bound_to 7997
  140.1770  143.3997  152.1311 H   0  0  0  0  0  0  0  0  0  0  0  0  # atno 10167 bound_to 10162
  157.5451  131.1096  150.8795 H   0  0  0  0  0  0  0  0  0  0  0  0  # atno 10718 bound_to 10713
  154.8690  135.3682  154.5011 H   0  0  0  0  0  0  0  0  0  0  0  0  # atno 10763 bound_to 10752
  153.5652  135.7022  153.5534 H   0  0  0  0  0  0  0  0  0  0  0  0  # atno 10764 bound_to 10752
  153.3592  135.4051  155.1668 H   0  0  0  0  0  0  0  0  0  0  0  0  # atno 10765 bound_to 10752
  141.0837  133.9176  157.2233 H   0  0  0  0  0  0  0  0  0  0  0  0  # atno 11005 bound_to 11000
  146.1715  140.6638  142.9231 LP  0  0  0  0  0  0  0  0  0  0  0  0  # atno 17320 bound_to 7965
  144.7393  140.4898  143.6880 LP  0  0  0  0  0  0  0  0  0  0  0  0  # atno 17321 bound_to 7965
  139.5313  144.7161  151.5047 LP  0  0  0  0  0  0  0  0  0  0  0  0  # atno 17342 bound_to 10162
  140.6545  143.8628  150.6820 LP  0  0  0  0  0  0  0  0  0  0  0  0  # atno 17343 bound_to 10162
  156.9336  130.5359  149.5279 LP  0  0  0  0  0  0  0  0  0  0  0  0  # atno 17370 bound_to 10713
  156.0529  130.5595  150.9028 LP  0  0  0  0  0  0  0  0  0  0  0  0  # atno 17371 bound_to 10713
  139.9653  135.0143  156.9369 LP  0  0  0  0  0  0  0  0  0  0  0  0  # atno 17394 bound_to 11000
  140.5412  134.0718  155.7342 LP  0  0  0  0  0  0  0  0  0  0  0  0  # atno 17395 bound_to 11000

$$$$
