AV-unprocessed.smi:812|AV-procd|sdf|3816|dock1
  -GOLD-   22720 1253D 1   1.00000     0.00000
 Structure written by MMmdl.
 38 40  0  0  0  0  0  0  0  0  1 V2000
  145.6212  142.8089  157.5989 C   0  0  0  0  0  0  0  0  0  0  0  0
  146.8190  142.3210  156.8900 N   0  0  0  0  0  0  0  0  0  0  0  0
  147.9605  142.1040  157.6163 C   0  0  0  0  0  0  0  0  0  0  0  0
  148.0663  142.2866  158.8297 O   0  0  0  0  0  0  0  0  0  0  0  0
  149.0924  141.6228  156.8155 C   0  0  0  0  0  0  0  0  0  0  0  0
  149.0149  141.4163  155.4776 C   0  0  0  0  0  0  0  0  0  0  0  0
  150.2279  140.9690  154.9654 N   0  0  0  0  0  0  0  0  0  0  0  0
  150.9948  140.9303  156.0554 C   0  0  0  0  0  0  0  0  0  0  0  0
  150.3948  141.3064  157.2025 N   0  0  0  0  0  0  0  0  0  0  0  0
  151.0181  141.3559  158.5172 C   0  0  0  0  0  0  0  0  0  0  0  0
  151.9052  142.6031  158.7102 C   0  0  1  0  0  0  0  0  0  0  0  0
  151.1785  143.7790  158.4099 O   0  0  0  0  0  0  0  0  0  0  0  0
  152.5010  142.6454  160.1083 C   0  0  0  0  0  0  0  0  0  0  0  0
  152.2319  143.7336  160.9675 C   0  0  0  0  0  0  0  0  0  0  0  0
  152.7829  143.7687  162.2630 C   0  0  0  0  0  0  0  0  0  0  0  0
  153.6043  142.7152  162.7079 C   0  0  0  0  0  0  0  0  0  0  0  0
  154.1337  142.7486  163.9536 F   0  0  0  0  0  0  0  0  0  0  0  0
  153.8733  141.6261  161.8568 C   0  0  0  0  0  0  0  0  0  0  0  0
  153.3223  141.5904  160.5609 C   0  0  0  0  0  0  0  0  0  0  0  0
  147.7824  141.6747  154.8237 N   0  0  0  0  0  0  0  0  0  0  0  0
  147.6827  141.4596  153.3775 C   0  0  0  0  0  0  0  0  0  0  0  0
  146.6932  142.1277  155.5251 C   0  0  0  0  0  0  0  0  0  0  0  0
  145.6290  142.3570  154.9429 O   0  0  0  0  0  0  0  0  0  0  0  0
  145.7310  142.8952  158.6803 H   0  0  0  0  0  0  0  0  0  0  0  0
  144.7758  142.1394  157.4308 H   0  0  0  0  0  0  0  0  0  0  0  0
  145.3432  143.7982  157.2323 H   0  0  0  0  0  0  0  0  0  0  0  0
  152.0290  140.6207  156.0179 H   0  0  0  0  0  0  0  0  0  0  0  0
  150.2489  141.2959  159.2858 H   0  0  0  0  0  0  0  0  0  0  0  0
  151.6236  140.4562  158.6348 H   0  0  0  0  0  0  0  0  0  0  0  0
  152.7243  142.5575  157.9910 H   0  0  0  0  0  0  0  0  0  0  0  0
  150.6040  143.5988  157.6815 H   0  0  0  0  0  0  0  0  0  0  0  0
  151.6004  144.5448  160.6348 H   0  0  0  0  0  0  0  0  0  0  0  0
  152.5744  144.6038  162.9153 H   0  0  0  0  0  0  0  0  0  0  0  0
  154.5024  140.8171  162.1980 H   0  0  0  0  0  0  0  0  0  0  0  0
  153.5339  140.7494  159.9169 H   0  0  0  0  0  0  0  0  0  0  0  0
  146.8992  140.7353  153.1498 H   0  0  0  0  0  0  0  0  0  0  0  0
  148.6072  141.0827  152.9411 H   0  0  0  0  0  0  0  0  0  0  0  0
  147.4412  142.3938  152.8689 H   0  0  0  0  0  0  0  0  0  0  0  0
  1  2  1  0  0  0  0
  1 24  1  0  0  0  0
  1 25  1  0  0  0  0
  1 26  1  0  0  0  0
  2 22  1  0  0  0  0
  2  3  1  0  0  0  0
  3  4  2  0  0  0  0
  3  5  1  0  0  0  0
  5  9  1  0  0  0  0
  5  6  2  0  0  0  0
  6  7  1  0  0  0  0
  6 20  1  0  0  0  0
  7  8  2  0  0  0  0
  8  9  1  0  0  0  0
  8 27  1  0  0  0  0
  9 10  1  0  0  0  0
 10 11  1  0  0  0  0
 10 28  1  0  0  0  0
 10 29  1  0  0  0  0
 11 12  1  0  0  0  0
 11 13  1  0  0  0  0
 11 30  1  0  0  0  0
 12 31  1  0  0  0  0
 13 19  1  0  0  0  0
 13 14  2  0  0  0  0
 14 15  1  0  0  0  0
 14 32  1  0  0  0  0
 15 16  2  0  0  0  0
 15 33  1  0  0  0  0
 16 17  1  0  0  0  0
 16 18  1  0  0  0  0
 18 19  2  0  0  0  0
 18 34  1  0  0  0  0
 19 35  1  0  0  0  0
 20 21  1  0  0  0  0
 20 22  1  0  0  0  0
 21 36  1  0  0  0  0
 21 37  1  0  0  0  0
 21 38  1  0  0  0  0
 22 23  2  0  0  0  0
M  END
> <s_m_source_file>
AV-unprocessed.smi

> <i_m_source_file_index>
812

> <i_lp_mmshare_version>
43012

> <i_f3d_flags>
0

> <s_epik_input>
Tz1jMW4oW0NIM10pYyg9TyluKFtDSDNdKWMoYzEyKW5bY0hdbjJbQ0gyXVtDQEhdKFtPSF0pYzNbY0hdW2NIXWMoRilbY0hdW2NIXTM=

> <s_epik_cmdline>
J2VwaWtfcHl0aG9uJywgJy1waCcsICc3LjAnLCAnLXRuJywgJzgnLCAnLW1hJywgJzIwMCcsICctbWV0YWxfYmluZGluZycsICctaW1hZScsICc8aW5maWxlLm1hZT4nLCAnLW9tYWUnLCAnPG91dGZpbGUubWFlPic=

> <r_lp_tautomer_probability>
1

> <r_epik_Ionization_Penalty>
1.45649e-06

> <r_epik_Ionization_Penalty_Charging>
3.74189e-09

> <r_epik_Ionization_Penalty_Neutral>
1.45275e-06

> <r_epik_State_Penalty>
-0

> <r_epik_Charging_Adjusted_Penalty>
3.74189e-09

> <i_epik_Tot_Q>
0

> <i_epik_Tot_abs_Q>
0

> <r_epik_Metal_State_Penalty>
-0

> <b_epik_Metal_Only>
0

> <s_lp_Force_Field>
OPLS_2005

> <r_lp_Energy>
35.4349

> <b_lp_Chiralities_Consistent>
1

> <s_lp_Variant>
AV-unprocessed.smi:812-2

> <Gold.Version>
5.8.1

> <Gold.Id.Protein>
6NUR|6NUR_protein|mol2

> <Gold.PLP.Fitness>
51.6070

> <Gold.PLP.PLP>
-49.8852

> <Gold.PLP.part.hbond>
-1.9559

> <Gold.PLP.part.metal>
0.0000

> <Gold.PLP.part.buried>
-6.5337

> <Gold.PLP.part.nonpolar>
-41.1347

> <Gold.PLP.part.repulsive>
0.3820

> <Gold.PLP.ligand.clash>
0.0000

> <Gold.PLP.ligand.torsion>
0.2795

> <Gold.PLP.Chemscore.Hbond>
0.7520

> <Gold.PLP.Chemscore.CHOScore>
0.0000

> <Gold.PLP.Chemscore.Metal>
0.0000

> <Gold.Chemscore.Hbonds>
donor molecule, donor type, donor heavy atom, donor atom, acceptor molecule, acceptor atom, score
      P1  H  7989  7998       L1     7  0.72

> <Gold.PLP.Chemscore.Internal.Correction>
0.0249

> <Gold.Rescore>
     Score         DG    S(hbond)    S(metal)    S(lipo)     H(rot)  DE(clash)    DE(int)     intcor
     12.27     -12.95       0.53        0.00      97.67       2.24       0.40       0.28       ----

> <Gold.Chemscore.Fitness>
12.2714

> <Gold.Chemscore.DG>
-12.9475

> <Gold.Chemscore.ZeroCoef>
-5.4800

> <Gold.Chemscore.Hbond>
0.5296

> <Gold.Chemscore.Metal>
0.0000

> <Gold.Chemscore.Lipo>
97.6689

> <Gold.Chemscore.Internal_Hbond>
0.0000

> <Gold.Chemscore.DEClash>
0.3981

> <Gold.Chemscore.DEInternal>
0.2780

> <Gold.Chemscore.Rot>
2.2377

> <Gold.Chemscore.Internal.Correction>
   9.000000E+99

> <Gold.Chemscore.Hbonds>
donor molecule, donor type, donor heavy atom, donor atom, acceptor molecule, acceptor atom, score
      P1  H  7989  7998       L1     7  0.20

> <Gold.Chemscore.Hbond.Weighted>
-1.7689

> <Gold.Chemscore.Metal.Weighted>
-0.0000

> <Gold.Chemscore.Lipo.Weighted>
-11.4273

> <Gold.Chemscore.Internal_Hbond.Weighted>
0.0000

> <Gold.Chemscore.DEClash.Weighted>
0.3981

> <Gold.Chemscore.DEInternal.Weighted>
0.2780

> <Gold.Chemscore.Rot.Weighted>
5.7286

> <Gold.Chemscore.Internal.Correction.Weighted>
   9.000000E+99

> <Gold.Protein.RotatedTorsions>
[ 6907 6896 6895 6894 ] final  119.05 input  -60.11 | X-H torsion
[ 7974 7965 7964 7962 ] final -103.45 input  175.53 | X-H torsion
[ 8008 7997 7996 7995 ] final  -59.33 input   59.86 | X-H torsion
[ 10167 10162 10161 10158 ] final  104.01 input  -65.29 | X-H torsion
[ 10718 10713 10712 10709 ] final   87.14 input   66.30 | X-H torsion
[ 10763 10752 10751 10750 ] final  126.17 input  -60.55 | X-H torsion
[ 11005 11000 10999 10996 ] final -172.17 input  -57.11 | X-H torsion

> <Gold.Protein.ActiveResidues>
 VAL166  LYS551  ARG553  GLY616  TRP617  ASP618  TYR619  PRO620  LYS621  CYS622 
 ASP623  PHE694  ASN695  SER759  ASP760  ASP761  ALA762  ILE779  LEU786  VAL792 
 PHE793  MET794  SER795  GLU796  ALA797  LYS798  CYS799  TRP800  GLU811  SER814 

> <Gold.Protein.RotatedAtoms>
  152.4499  133.7609  159.6745 H   0  0  0  0  0  0  0  0  0  0  0  0  # atno 6907 bound_to 6896
  150.8408  133.7928  159.3067 H   0  0  0  0  0  0  0  0  0  0  0  0  # atno 6908 bound_to 6896
  151.5553  135.1069  160.0011 H   0  0  0  0  0  0  0  0  0  0  0  0  # atno 6909 bound_to 6896
  145.2557  140.9253  143.3069 H   0  0  0  0  0  0  0  0  0  0  0  0  # atno 7974 bound_to 7965
  154.4348  140.1064  156.6099 H   0  0  0  0  0  0  0  0  0  0  0  0  # atno 8008 bound_to 7997
  155.5821  140.3491  155.4524 H   0  0  0  0  0  0  0  0  0  0  0  0  # atno 8009 bound_to 7997
  156.0311  140.1260  157.0247 H   0  0  0  0  0  0  0  0  0  0  0  0  # atno 8010 bound_to 7997
  139.7214  144.7057  151.0866 H   0  0  0  0  0  0  0  0  0  0  0  0  # atno 10167 bound_to 10162
  157.6937  131.0244  150.3079 H   0  0  0  0  0  0  0  0  0  0  0  0  # atno 10718 bound_to 10713
  153.6890  135.3302  155.3197 H   0  0  0  0  0  0  0  0  0  0  0  0  # atno 10763 bound_to 10752
  154.8445  135.4427  154.1528 H   0  0  0  0  0  0  0  0  0  0  0  0  # atno 10764 bound_to 10752
  153.2565  135.6987  153.7701 H   0  0  0  0  0  0  0  0  0  0  0  0  # atno 10765 bound_to 10752
  140.5000  134.5903  157.4984 H   0  0  0  0  0  0  0  0  0  0  0  0  # atno 11005 bound_to 11000
  144.9463  139.4133  143.6424 LP  0  0  0  0  0  0  0  0  0  0  0  0  # atno 17320 bound_to 7965
  146.3290  139.8448  142.8884 LP  0  0  0  0  0  0  0  0  0  0  0  0  # atno 17321 bound_to 7965
  140.7754  143.5161  150.9593 LP  0  0  0  0  0  0  0  0  0  0  0  0  # atno 17342 bound_to 10162
  139.8848  143.7026  152.3152 LP  0  0  0  0  0  0  0  0  0  0  0  0  # atno 17343 bound_to 10162
  156.3585  130.3843  149.7271 LP  0  0  0  0  0  0  0  0  0  0  0  0  # atno 17370 bound_to 10713
  156.4725  130.8003  151.3021 LP  0  0  0  0  0  0  0  0  0  0  0  0  # atno 17371 bound_to 10713
  139.9719  134.7279  156.0025 LP  0  0  0  0  0  0  0  0  0  0  0  0  # atno 17394 bound_to 11000
  141.1440  133.6559  156.3814 LP  0  0  0  0  0  0  0  0  0  0  0  0  # atno 17395 bound_to 11000

$$$$
