AV-unprocessed.smi:2944|AV-procd|sdf|11275|dock8
  -GOLD-   2272016163D 1   1.00000     0.00000
 Structure written by MMmdl.
 45 47  0  0  0  0  0  0  0  0  2 V2000
  153.3803  138.7790  154.3650 C   0  0  0  0  0  0  0  0  0  0  0  0
  152.8753  139.6396  155.3704 O   0  0  0  0  0  0  0  0  0  0  0  0
  151.7056  139.1262  155.9863 C   0  0  0  0  0  0  0  0  0  0  0  0
  151.5585  139.6947  157.4051 C   0  0  0  0  0  0  0  0  0  0  0  0
  151.1063  141.0940  157.4026 N   0  0  0  0  0  0  0  0  0  0  0  0
  150.1267  141.7030  156.6783 C   0  0  0  0  0  0  0  0  0  0  0  0
  149.0725  140.9480  155.4860 S   0  0  0  0  0  0  0  0  0  0  0  0
  147.5001  141.8478  155.6405 C   0  0  1  0  0  0  0  0  0  0  0  0
  146.4867  141.3210  154.6142 C   0  0  0  0  0  0  0  0  0  0  0  0
  146.9294  141.7484  157.0720 C   0  0  0  0  0  0  0  0  0  0  0  0
  147.5028  140.9870  157.8541 O   0  0  0  0  0  0  0  0  0  0  0  0
  145.8712  142.4965  157.4885 N   0  0  0  0  0  0  0  0  0  0  0  0
  145.0858  143.2726  156.5271 C   0  0  0  0  0  0  0  0  0  0  0  0
  143.9854  143.9133  157.3632 C   0  0  0  0  0  0  0  0  0  0  0  0
  144.3228  143.4661  158.6911 N   0  0  0  0  0  0  0  0  0  0  0  0
  145.4071  142.6891  158.7470 C   0  0  0  0  0  0  0  0  0  0  0  0
  145.8677  142.2598  159.8039 O   0  0  0  0  0  0  0  0  0  0  0  0
  150.0869  143.0117  157.0484 N   0  3  0  0  0  0  0  0  0  0  0  0
  151.0563  143.2484  158.0240 C   0  0  0  0  0  0  0  0  0  0  0  0
  151.3984  144.4143  158.7022 C   0  0  0  0  0  0  0  0  0  0  0  0
  152.4392  144.3139  159.6485 C   0  0  0  0  0  0  0  0  0  0  0  0
  153.0938  143.0891  159.8927 C   0  0  0  0  0  0  0  0  0  0  0  0
  152.7386  141.9135  159.1990 C   0  0  0  0  0  0  0  0  0  0  0  0
  151.7120  142.0211  158.2605 C   0  0  0  0  0  0  0  0  0  0  0  0
  154.2658  139.2246  153.9120 H   0  0  0  0  0  0  0  0  0  0  0  0
  152.6438  138.6154  153.5774 H   0  0  0  0  0  0  0  0  0  0  0  0
  153.6676  137.8138  154.7828 H   0  0  0  0  0  0  0  0  0  0  0  0
  150.8273  139.3791  155.3910 H   0  0  0  0  0  0  0  0  0  0  0  0
  151.7608  138.0399  156.0325 H   0  0  0  0  0  0  0  0  0  0  0  0
  150.8671  139.0947  157.9965 H   0  0  0  0  0  0  0  0  0  0  0  0
  152.5169  139.6556  157.9237 H   0  0  0  0  0  0  0  0  0  0  0  0
  147.7593  142.8726  155.3894 H   0  0  0  0  0  0  0  0  0  0  0  0
  145.5494  141.8767  154.6611 H   0  0  0  0  0  0  0  0  0  0  0  0
  146.2585  140.2677  154.7821 H   0  0  0  0  0  0  0  0  0  0  0  0
  146.8734  141.4187  153.5995 H   0  0  0  0  0  0  0  0  0  0  0  0
  145.7043  144.0331  156.0467 H   0  0  0  0  0  0  0  0  0  0  0  0
  144.6657  142.6291  155.7521 H   0  0  0  0  0  0  0  0  0  0  0  0
  144.0029  145.0021  157.3035 H   0  0  0  0  0  0  0  0  0  0  0  0
  142.9947  143.5564  157.0800 H   0  0  0  0  0  0  0  0  0  0  0  0
  143.8005  143.7571  159.5051 H   0  0  0  0  0  0  0  0  0  0  0  0
  150.8964  145.3533  158.5194 H   0  0  0  0  0  0  0  0  0  0  0  0
  152.7402  145.1930  160.1997 H   0  0  0  0  0  0  0  0  0  0  0  0
  153.8845  143.0500  160.6279 H   0  0  0  0  0  0  0  0  0  0  0  0
  153.2435  140.9803  159.3995 H   0  0  0  0  0  0  0  0  0  0  0  0
  149.4430  143.6895  156.6611 H   0  0  0  0  0  0  0  0  0  0  0  0
  1  2  1  0  0  0  0
  1 25  1  0  0  0  0
  1 26  1  0  0  0  0
  1 27  1  0  0  0  0
  2  3  1  0  0  0  0
  3  4  1  0  0  0  0
  3 28  1  0  0  0  0
  3 29  1  0  0  0  0
  4  5  1  0  0  0  0
  4 30  1  0  0  0  0
  4 31  1  0  0  0  0
  5 24  1  0  0  0  0
  5  6  1  0  0  0  0
  6  7  1  0  0  0  0
  6 18  2  0  0  0  0
  7  8  1  0  0  0  0
  8  9  1  0  0  0  0
  8 10  1  0  0  0  0
  8 32  1  0  0  0  0
  9 33  1  0  0  0  0
  9 34  1  0  0  0  0
  9 35  1  0  0  0  0
 10 11  2  0  0  0  0
 10 12  1  0  0  0  0
 12 16  1  0  0  0  0
 12 13  1  0  0  0  0
 13 14  1  0  0  0  0
 13 36  1  0  0  0  0
 13 37  1  0  0  0  0
 14 15  1  0  0  0  0
 14 38  1  0  0  0  0
 14 39  1  0  0  0  0
 15 16  1  0  0  0  0
 15 40  1  0  0  0  0
 16 17  2  0  0  0  0
 18 19  1  0  0  0  0
 18 45  1  0  0  0  0
 19 24  2  0  0  0  0
 19 20  1  0  0  0  0
 20 21  2  0  0  0  0
 20 41  1  0  0  0  0
 21 22  1  0  0  0  0
 21 42  1  0  0  0  0
 22 23  2  0  0  0  0
 22 43  1  0  0  0  0
 23 24  1  0  0  0  0
 23 44  1  0  0  0  0
M  CHG  1  18   1
M  END
> <s_m_source_file>
AV-unprocessed.smi

> <i_m_source_file_index>
2944

> <i_lp_mmshare_version>
43012

> <i_f3d_flags>
0

> <s_epik_input>
W2NIXTFbY0hdW2NIXVtjSF1jKGMxMiluKFtDSDJdW0NIMl1PW0NIM10pYyhuMilTW0NASF0oW0NIM10pQyg9TylOM1tDSDJdW0NIMl1bTkhdQzM9Tw==

> <s_epik_cmdline>
J2VwaWtfcHl0aG9uJywgJy1waCcsICc3LjAnLCAnLXRuJywgJzgnLCAnLW1hJywgJzIwMCcsICctbWV0YWxfYmluZGluZycsICctaW1hZScsICc8aW5maWxlLm1hZT4nLCAnLW9tYWUnLCAnPG91dGZpbGUubWFlPic=

> <r_lp_tautomer_probability>
0.9999

> <r_epik_Ionization_Penalty>
1.88808

> <r_epik_Ionization_Penalty_Charging>
1.88806

> <r_epik_Ionization_Penalty_Neutral>
2.68145e-05

> <r_epik_State_Penalty>
2.00836

> <r_epik_Charging_Adjusted_Penalty>
3.89641

> <i_epik_Tot_Q>
1

> <i_epik_Tot_abs_Q>
1

> <r_epik_Metal_State_Penalty>
2.03272

> <b_epik_Metal_Only>
0

> <s_lp_Force_Field>
OPLS_2005

> <r_lp_Energy>
44.4651

> <b_lp_Chiralities_Consistent>
1

> <s_lp_Variant>
AV-unprocessed.smi:2944-4

> <Gold.Version>
5.8.1

> <Gold.Id.Protein>
6NUR|6NUR_protein|mol2

> <Gold.PLP.Fitness>
52.9361

> <Gold.PLP.PLP>
-42.6069

> <Gold.PLP.part.hbond>
-3.4225

> <Gold.PLP.part.metal>
0.0000

> <Gold.PLP.part.buried>
-6.2420

> <Gold.PLP.part.nonpolar>
-33.1574

> <Gold.PLP.part.repulsive>
0.0332

> <Gold.PLP.ligand.clash>
0.0000

> <Gold.PLP.ligand.torsion>
0.9258

> <Gold.PLP.Chemscore.Hbond>
4.0000

> <Gold.PLP.Chemscore.CHOScore>
0.0000

> <Gold.PLP.Chemscore.Metal>
0.0000

> <Gold.Chemscore.Hbonds>
donor molecule, donor type, donor heavy atom, donor atom, acceptor molecule, acceptor atom, score
      L1  H    18    45       P1  8028  2.00
      P1  H  6934  6946       L1    17  1.00
      P1  H  7997  8008       L1     2  1.00

> <Gold.PLP.Chemscore.Internal.Correction>
0.1807

> <Gold.Rescore>
     Score         DG    S(hbond)    S(metal)    S(lipo)     H(rot)  DE(clash)    DE(int)     intcor
     19.05     -21.51       2.87        0.00     105.36       2.30       0.03       2.43       ----

> <Gold.Chemscore.Fitness>
19.0494

> <Gold.Chemscore.DG>
-21.5101

> <Gold.Chemscore.ZeroCoef>
-5.4800

> <Gold.Chemscore.Hbond>
2.8705

> <Gold.Chemscore.Metal>
0.0000

> <Gold.Chemscore.Lipo>
105.3648

> <Gold.Chemscore.Internal_Hbond>
0.0000

> <Gold.Chemscore.DEClash>
0.0262

> <Gold.Chemscore.DEInternal>
2.4345

> <Gold.Chemscore.Rot>
2.2988

> <Gold.Chemscore.Internal.Correction>
   9.000000E+99

> <Gold.Chemscore.Hbonds>
donor molecule, donor type, donor heavy atom, donor atom, acceptor molecule, acceptor atom, score
      L1  H    18    45       P1  8028  0.91
      P1  H  6934  6946       L1    17  0.98
      P1  H  7997  8008       L1     2  0.42

> <Gold.Chemscore.Hbond.Weighted>
-9.5874

> <Gold.Chemscore.Metal.Weighted>
-0.0000

> <Gold.Chemscore.Lipo.Weighted>
-12.3277

> <Gold.Chemscore.Internal_Hbond.Weighted>
0.0000

> <Gold.Chemscore.DEClash.Weighted>
0.0262

> <Gold.Chemscore.DEInternal.Weighted>
2.4345

> <Gold.Chemscore.Rot.Weighted>
5.8850

> <Gold.Chemscore.Internal.Correction.Weighted>
   9.000000E+99

> <Gold.Protein.RotatedTorsions>
[ 6907 6896 6895 6894 ] final   84.98 input  -60.11 | X-H torsion
[ 7974 7965 7964 7962 ] final  -82.87 input  175.53 | X-H torsion
[ 8008 7997 7996 7995 ] final  -44.06 input   59.86 | X-H torsion
[ 10167 10162 10161 10158 ] final -118.51 input  -65.29 | X-H torsion
[ 10718 10713 10712 10709 ] final  -18.47 input   66.30 | X-H torsion
[ 10763 10752 10751 10750 ] final   92.34 input  -60.55 | X-H torsion
[ 11005 11000 10999 10996 ] final -106.36 input  -57.11 | X-H torsion

> <Gold.Protein.ActiveResidues>
 VAL166  LYS551  ARG553  GLY616  TRP617  ASP618  TYR619  PRO620  LYS621  CYS622 
 ASP623  PHE694  ASN695  SER759  ASP760  ASP761  ALA762  ILE779  LEU786  VAL792 
 PHE793  MET794  SER795  GLU796  ALA797  LYS798  CYS799  TRP800  GLU811  SER814 

> <Gold.Protein.RotatedAtoms>
  152.5365  134.2657  159.8951 H   0  0  0  0  0  0  0  0  0  0  0  0  # atno 6907 bound_to 6896
  151.2615  133.4293  159.2624 H   0  0  0  0  0  0  0  0  0  0  0  0  # atno 6908 bound_to 6896
  151.0448  134.9647  159.8237 H   0  0  0  0  0  0  0  0  0  0  0  0  # atno 6909 bound_to 6896
  145.5276  140.9525  143.1621 H   0  0  0  0  0  0  0  0  0  0  0  0  # atno 7974 bound_to 7965
  154.3997  140.1431  156.3622 H   0  0  0  0  0  0  0  0  0  0  0  0  # atno 8008 bound_to 7997
  155.8170  140.3471  155.5471 H   0  0  0  0  0  0  0  0  0  0  0  0  # atno 8009 bound_to 7997
  155.8327  140.0914  157.1773 H   0  0  0  0  0  0  0  0  0  0  0  0  # atno 8010 bound_to 7997
  140.0567  143.5008  152.2054 H   0  0  0  0  0  0  0  0  0  0  0  0  # atno 10167 bound_to 10162
  156.5591  130.4721  149.6415 H   0  0  0  0  0  0  0  0  0  0  0  0  # atno 10718 bound_to 10713
  153.2181  135.4365  155.0458 H   0  0  0  0  0  0  0  0  0  0  0  0  # atno 10763 bound_to 10752
  154.8236  135.3349  154.6968 H   0  0  0  0  0  0  0  0  0  0  0  0  # atno 10764 bound_to 10752
  153.7402  135.7005  153.5025 H   0  0  0  0  0  0  0  0  0  0  0  0  # atno 10765 bound_to 10752
  141.1008  133.8887  157.1847 H   0  0  0  0  0  0  0  0  0  0  0  0  # atno 11005 bound_to 11000
  144.7643  139.6882  143.7221 LP  0  0  0  0  0  0  0  0  0  0  0  0  # atno 17320 bound_to 7965
  146.2065  139.5393  142.9709 LP  0  0  0  0  0  0  0  0  0  0  0  0  # atno 17321 bound_to 7965
  139.5919  144.7553  151.3379 LP  0  0  0  0  0  0  0  0  0  0  0  0  # atno 17342 bound_to 10162
  140.7191  143.7184  150.7715 LP  0  0  0  0  0  0  0  0  0  0  0  0  # atno 17343 bound_to 10162
  156.2815  130.7073  151.1899 LP  0  0  0  0  0  0  0  0  0  0  0  0  # atno 17370 bound_to 10713
  157.7372  131.0554  150.5368 LP  0  0  0  0  0  0  0  0  0  0  0  0  # atno 17371 bound_to 10713
  139.9859  135.0082  156.9861 LP  0  0  0  0  0  0  0  0  0  0  0  0  # atno 17394 bound_to 11000
  140.5026  134.1082  155.7253 LP  0  0  0  0  0  0  0  0  0  0  0  0  # atno 17395 bound_to 11000

$$$$
