AV-unprocessed.smi:1584|AV-procd|sdf|6368|dock5
  -GOLD-   22720 6593D 1   1.00000     0.00000
 Structure written by MMmdl.
 39 40  0  0  0  0  0  0  0  0  1 V2000
  151.8676  137.4011  155.6502 C   0  0  0  0  0  0  0  0  0  0  0  0
  151.1805  138.7339  155.3195 C   0  0  1  0  0  0  0  0  0  0  0  0
  149.7569  138.5209  154.7693 C   0  0  0  0  0  0  0  0  0  0  0  0
  149.1335  139.7669  154.3587 N   0  0  0  0  0  0  0  0  0  0  0  0
  147.8641  139.9661  153.8574 C   0  0  0  0  0  0  0  0  0  0  0  0
  147.7228  141.3050  153.6300 C   0  0  0  0  0  0  0  0  0  0  0  0
  148.9764  141.8489  154.0261 C   0  0  0  0  0  0  0  0  0  0  0  0
  149.8189  140.9258  154.4615 N   0  0  0  0  0  0  0  0  0  0  0  0
  151.1300  139.5708  156.5168 N   0  0  0  0  0  0  0  0  0  0  0  0
  152.1420  139.7748  157.3739 C   0  0  0  0  0  0  0  0  0  0  0  0
  153.2390  139.2248  157.2712 O   0  0  0  0  0  0  0  0  0  0  0  0
  151.8713  140.7583  158.5198 C   0  0  1  0  0  0  0  0  0  0  0  0
  153.0909  140.8758  159.4419 C   0  0  0  0  0  0  0  0  0  0  0  0
  152.7716  141.8098  160.6165 C   0  0  0  0  0  0  0  0  0  0  0  0
  152.1365  143.0718  160.2102 N   0  0  0  0  0  0  0  0  0  0  0  0
  152.1640  144.1302  161.2211 C   0  0  0  0  0  0  0  0  0  0  0  0
  151.4946  143.2654  159.0325 C   0  0  0  0  0  0  0  0  0  0  0  0
  150.9215  144.3202  158.7586 O   0  0  0  0  0  0  0  0  0  0  0  0
  151.5000  142.1509  157.9728 C   0  0  0  0  0  0  0  0  0  0  0  0
  151.9332  136.7650  154.7672 H   0  0  0  0  0  0  0  0  0  0  0  0
  151.3207  136.8513  156.4169 H   0  0  0  0  0  0  0  0  0  0  0  0
  152.8828  137.5622  156.0144 H   0  0  0  0  0  0  0  0  0  0  0  0
  151.7683  139.2297  154.5445 H   0  0  0  0  0  0  0  0  0  0  0  0
  149.7810  137.8515  153.9083 H   0  0  0  0  0  0  0  0  0  0  0  0
  149.1229  138.0427  155.5173 H   0  0  0  0  0  0  0  0  0  0  0  0
  147.1736  139.1487  153.7112 H   0  0  0  0  0  0  0  0  0  0  0  0
  146.8558  141.8179  153.2411 H   0  0  0  0  0  0  0  0  0  0  0  0
  149.2968  142.8800  154.0114 H   0  0  0  0  0  0  0  0  0  0  0  0
  150.2643  140.0613  156.6880 H   0  0  0  0  0  0  0  0  0  0  0  0
  151.0316  140.3821  159.1077 H   0  0  0  0  0  0  0  0  0  0  0  0
  153.3889  139.8966  159.8194 H   0  0  0  0  0  0  0  0  0  0  0  0
  153.9455  141.2698  158.8885 H   0  0  0  0  0  0  0  0  0  0  0  0
  152.0982  141.3044  161.3099 H   0  0  0  0  0  0  0  0  0  0  0  0
  153.6911  142.0132  161.1672 H   0  0  0  0  0  0  0  0  0  0  0  0
  151.1528  144.4605  161.4643 H   0  0  0  0  0  0  0  0  0  0  0  0
  152.7268  144.9909  160.8574 H   0  0  0  0  0  0  0  0  0  0  0  0
  152.6277  143.8000  162.1514 H   0  0  0  0  0  0  0  0  0  0  0  0
  152.2024  142.4551  157.1950 H   0  0  0  0  0  0  0  0  0  0  0  0
  150.5175  142.1107  157.5003 H   0  0  0  0  0  0  0  0  0  0  0  0
  1  2  1  0  0  0  0
  1 20  1  0  0  0  0
  1 21  1  0  0  0  0
  1 22  1  0  0  0  0
  2  3  1  0  0  0  0
  2  9  1  0  0  0  0
  2 23  1  0  0  0  0
  3  4  1  0  0  0  0
  3 24  1  0  0  0  0
  3 25  1  0  0  0  0
  4  8  1  0  0  0  0
  4  5  1  0  0  0  0
  5  6  2  0  0  0  0
  5 26  1  0  0  0  0
  6  7  1  0  0  0  0
  6 27  1  0  0  0  0
  7  8  2  0  0  0  0
  7 28  1  0  0  0  0
  9 10  1  0  0  0  0
  9 29  1  0  0  0  0
 10 11  2  0  0  0  0
 10 12  1  0  0  0  0
 12 19  1  0  0  0  0
 12 13  1  0  0  0  0
 12 30  1  0  0  0  0
 13 14  1  0  0  0  0
 13 31  1  0  0  0  0
 13 32  1  0  0  0  0
 14 15  1  0  0  0  0
 14 33  1  0  0  0  0
 14 34  1  0  0  0  0
 15 16  1  0  0  0  0
 15 17  1  0  0  0  0
 16 35  1  0  0  0  0
 16 36  1  0  0  0  0
 16 37  1  0  0  0  0
 17 18  2  0  0  0  0
 17 19  1  0  0  0  0
 19 38  1  0  0  0  0
 19 39  1  0  0  0  0
M  END
> <s_m_source_file>
AV-unprocessed.smi

> <i_m_source_file_index>
1584

> <i_lp_mmshare_version>
43012

> <i_f3d_flags>
0

> <s_epik_input>
bjFbY0hdW2NIXVtjSF1uMVtDSDJdW0NAQEhdKFtDSDNdKVtOSF1DKD1PKVtDQEBIXTJbQ0gyXVtDSDJdTihbQ0gzXSlDKD1PKVtDSDJdMg==

> <s_epik_cmdline>
J2VwaWtfcHl0aG9uJywgJy1waCcsICc3LjAnLCAnLXRuJywgJzgnLCAnLW1hJywgJzIwMCcsICctbWV0YWxfYmluZGluZycsICctaW1hZScsICc8aW5maWxlLm1hZT4nLCAnLW9tYWUnLCAnPG91dGZpbGUubWFlPic=

> <r_lp_tautomer_probability>
1

> <r_epik_Ionization_Penalty>
0.000299422

> <r_epik_Ionization_Penalty_Charging>
0

> <r_epik_Ionization_Penalty_Neutral>
0.000299422

> <r_epik_State_Penalty>
-0

> <r_epik_Charging_Adjusted_Penalty>
0

> <i_epik_Tot_Q>
0

> <i_epik_Tot_abs_Q>
0

> <r_epik_Metal_State_Penalty>
-0

> <b_epik_Metal_Only>
0

> <s_lp_Force_Field>
OPLS_2005

> <r_lp_Energy>
13.2703

> <b_lp_Chiralities_Consistent>
1

> <s_lp_Variant>
AV-unprocessed.smi:1584-4

> <Gold.Version>
5.8.1

> <Gold.Id.Protein>
6NUR|6NUR_protein|mol2

> <Gold.PLP.Fitness>
44.0471

> <Gold.PLP.PLP>
-36.8372

> <Gold.PLP.part.hbond>
-1.9109

> <Gold.PLP.part.metal>
0.0000

> <Gold.PLP.part.buried>
-2.3089

> <Gold.PLP.part.nonpolar>
-33.8726

> <Gold.PLP.part.repulsive>
0.3370

> <Gold.PLP.ligand.clash>
0.0000

> <Gold.PLP.ligand.torsion>
0.1651

> <Gold.PLP.Chemscore.Hbond>
1.5054

> <Gold.PLP.Chemscore.CHOScore>
1.0000

> <Gold.PLP.Chemscore.Metal>
0.0000

> <Gold.Chemscore.Hbonds>
donor molecule, donor type, donor heavy atom, donor atom, acceptor molecule, acceptor atom, score
      P1  H  7989  7998       L1     8  0.62
      P1  H  7997  8010       L1    11  1.00
      L1  C     7    28       P1  8028  1.00

> <Gold.PLP.Chemscore.Internal.Correction>
0.0240

> <Gold.Rescore>
     Score         DG    S(hbond)    S(metal)    S(lipo)     H(rot)  DE(clash)    DE(int)     intcor
     13.26     -16.05       1.47        0.00      85.13       1.67       1.20       1.60       ----

> <Gold.Chemscore.Fitness>
13.2586

> <Gold.Chemscore.DG>
-16.0531

> <Gold.Chemscore.ZeroCoef>
-5.4800

> <Gold.Chemscore.Hbond>
1.4662

> <Gold.Chemscore.Metal>
0.0000

> <Gold.Chemscore.Lipo>
85.1288

> <Gold.Chemscore.Internal_Hbond>
0.0000

> <Gold.Chemscore.DEClash>
1.1980

> <Gold.Chemscore.DEInternal>
1.5966

> <Gold.Chemscore.Rot>
1.6734

> <Gold.Chemscore.Internal.Correction>
   9.000000E+99

> <Gold.Chemscore.Hbonds>
donor molecule, donor type, donor heavy atom, donor atom, acceptor molecule, acceptor atom, score
      P1  H  7989  7998       L1     8  0.45
      P1  H  7997  8010       L1    11  0.90

> <Gold.Chemscore.Hbond.Weighted>
-4.8971

> <Gold.Chemscore.Metal.Weighted>
-0.0000

> <Gold.Chemscore.Lipo.Weighted>
-9.9601

> <Gold.Chemscore.Internal_Hbond.Weighted>
0.0000

> <Gold.Chemscore.DEClash.Weighted>
1.1980

> <Gold.Chemscore.DEInternal.Weighted>
1.5966

> <Gold.Chemscore.Rot.Weighted>
4.2840

> <Gold.Chemscore.Internal.Correction.Weighted>
   9.000000E+99

> <Gold.Protein.RotatedTorsions>
[ 6907 6896 6895 6894 ] final -164.84 input  -60.11 | X-H torsion
[ 7974 7965 7964 7962 ] final -158.17 input  175.53 | X-H torsion
[ 8008 7997 7996 7995 ] final   60.13 input   59.86 | X-H torsion
[ 10167 10162 10161 10158 ] final  141.76 input  -65.29 | X-H torsion
[ 10718 10713 10712 10709 ] final  -58.39 input   66.30 | X-H torsion
[ 10763 10752 10751 10750 ] final  161.54 input  -60.55 | X-H torsion
[ 11005 11000 10999 10996 ] final  101.44 input  -57.11 | X-H torsion

> <Gold.Protein.ActiveResidues>
 VAL166  LYS551  ARG553  GLY616  TRP617  ASP618  TYR619  PRO620  LYS621  CYS622 
 ASP623  PHE694  ASN695  SER759  ASP760  ASP761  ALA762  ILE779  LEU786  VAL792 
 PHE793  MET794  SER795  GLU796  ALA797  LYS798  CYS799  TRP800  GLU811  SER814 

> <Gold.Protein.RotatedAtoms>
  151.4182  133.3706  159.2752 H   0  0  0  0  0  0  0  0  0  0  0  0  # atno 6907 bound_to 6896
  150.9312  134.8729  159.7563 H   0  0  0  0  0  0  0  0  0  0  0  0  # atno 6908 bound_to 6896
  152.5029  134.4127  159.9506 H   0  0  0  0  0  0  0  0  0  0  0  0  # atno 6909 bound_to 6896
  144.7517  140.3865  143.6043 H   0  0  0  0  0  0  0  0  0  0  0  0  # atno 7974 bound_to 7965
  155.5774  140.3491  155.4531 H   0  0  0  0  0  0  0  0  0  0  0  0  # atno 8008 bound_to 7997
  156.0399  140.1293  157.0192 H   0  0  0  0  0  0  0  0  0  0  0  0  # atno 8009 bound_to 7997
  154.4387  140.1026  156.6207 H   0  0  0  0  0  0  0  0  0  0  0  0  # atno 8010 bound_to 7997
  139.5012  144.6151  151.6183 H   0  0  0  0  0  0  0  0  0  0  0  0  # atno 10167 bound_to 10162
  156.1139  130.4172  150.0570 H   0  0  0  0  0  0  0  0  0  0  0  0  # atno 10718 bound_to 10713
  154.2645  135.2767  155.2764 H   0  0  0  0  0  0  0  0  0  0  0  0  # atno 10763 bound_to 10752
  154.5355  135.5717  153.6798 H   0  0  0  0  0  0  0  0  0  0  0  0  # atno 10764 bound_to 10752
  152.9956  135.6238  154.2797 H   0  0  0  0  0  0  0  0  0  0  0  0  # atno 10765 bound_to 10752
  139.8773  134.9183  156.4908 H   0  0  0  0  0  0  0  0  0  0  0  0  # atno 11005 bound_to 11000
  145.6922  139.1641  143.2640 LP  0  0  0  0  0  0  0  0  0  0  0  0  # atno 17320 bound_to 7965
  146.1475  140.6972  142.9338 LP  0  0  0  0  0  0  0  0  0  0  0  0  # atno 17321 bound_to 7965
  140.5836  143.9903  150.6282 LP  0  0  0  0  0  0  0  0  0  0  0  0  # atno 17342 bound_to 10162
  140.3060  143.3229  152.0925 LP  0  0  0  0  0  0  0  0  0  0  0  0  # atno 17343 bound_to 10162
  156.8527  130.9464  151.3624 LP  0  0  0  0  0  0  0  0  0  0  0  0  # atno 17370 bound_to 10713
  157.6321  130.8738  149.9293 LP  0  0  0  0  0  0  0  0  0  0  0  0  # atno 17371 bound_to 10713
  140.8660  133.8024  155.9314 LP  0  0  0  0  0  0  0  0  0  0  0  0  # atno 17394 bound_to 11000
  140.9001  134.2389  157.5046 LP  0  0  0  0  0  0  0  0  0  0  0  0  # atno 17395 bound_to 11000

$$$$
