AV-unprocessed.smi:194|AV-procd|sdf|1520|dock5
  -GOLD-   2262019363D 1   1.00000     0.00000
 Structure written by MMmdl.
 53 55  0  0  0  0  0  0  0  0  1 V2000
  147.6628  136.3563  162.5637 C   0  0  0  0  0  0  0  0  0  0  0  0
  146.9310  136.2914  161.2133 C   0  0  2  0  0  0  0  0  0  0  0  0
  145.4275  136.0026  161.3985 C   0  0  0  0  0  0  0  0  0  0  0  0
  144.5731  136.1605  159.7572 S   0  0  1  0  0  0  0  0  0  0  0  0
  142.8725  135.7343  160.3588 C   0  0  0  0  0  0  0  0  0  0  0  0
  144.5599  137.6499  159.4080 O   0  0  0  0  0  0  0  0  0  0  0  0
  147.5835  135.3301  160.3129 N   0  0  0  0  0  0  0  0  0  0  0  0
  147.9526  133.9973  160.7806 C   0  0  0  0  0  0  0  0  0  0  0  0
  148.1171  135.7781  159.1452 C   0  0  0  0  0  0  0  0  0  0  0  0
  149.0041  134.9785  158.4970 N   0  0  0  0  0  0  0  0  0  0  0  0
  149.5687  135.3747  157.3539 C   0  0  0  0  0  0  0  0  0  0  0  0
  149.3917  136.5172  156.6899 N   0  0  0  0  0  0  0  0  0  0  0  0
  148.5042  137.3299  157.3311 C   0  0  0  0  0  0  0  0  0  0  0  0
  147.8228  137.0410  158.5493 C   0  0  0  0  0  0  0  0  0  0  0  0
  146.9796  138.0988  158.8725 N   0  0  0  0  0  0  0  0  0  0  0  0
  147.1565  138.9598  157.9091 C   0  0  0  0  0  0  0  0  0  0  0  0
  148.0706  138.5887  156.9499 N   0  0  0  0  0  0  0  0  0  0  0  0
  148.4492  139.3547  155.7710 C   0  0  0  0  0  0  0  0  0  0  0  0
  149.7270  140.2367  155.9141 C   0  0  0  0  0  0  0  0  0  0  0  0
  149.4961  141.6576  155.3168 C   0  0  0  0  0  0  0  0  0  0  0  0
  149.1313  141.6517  153.9511 O   0  0  0  0  0  0  0  0  0  0  0  0
  150.1972  140.3014  157.3899 C   0  0  0  0  0  0  0  0  0  0  0  0
  151.6157  140.8784  157.5348 C   0  0  0  0  0  0  0  0  0  0  0  0
  152.5323  140.0922  156.7848 O   0  0  0  0  0  0  0  0  0  0  0  0
  152.2562  140.1039  155.3906 C   0  0  0  0  0  0  0  0  0  0  0  0
  150.8530  139.5256  155.1200 C   0  0  0  0  0  0  0  0  0  0  0  0
  147.2380  137.1314  163.2021 H   0  0  0  0  0  0  0  0  0  0  0  0
  148.7193  136.5887  162.4257 H   0  0  0  0  0  0  0  0  0  0  0  0
  147.5964  135.4114  163.1040 H   0  0  0  0  0  0  0  0  0  0  0  0
  147.0058  137.2943  160.7927 H   0  0  0  0  0  0  0  0  0  0  0  0
  145.2484  135.0136  161.8192 H   0  0  0  0  0  0  0  0  0  0  0  0
  144.9876  136.7271  162.0844 H   0  0  0  0  0  0  0  0  0  0  0  0
  142.8649  134.7417  160.8089 H   0  0  0  0  0  0  0  0  0  0  0  0
  142.1677  135.7435  159.5276 H   0  0  0  0  0  0  0  0  0  0  0  0
  142.5398  136.4582  161.1029 H   0  0  0  0  0  0  0  0  0  0  0  0
  148.0381  133.3007  159.9459 H   0  0  0  0  0  0  0  0  0  0  0  0
  147.2069  133.5957  161.4649 H   0  0  0  0  0  0  0  0  0  0  0  0
  148.9069  134.0267  161.3071 H   0  0  0  0  0  0  0  0  0  0  0  0
  150.2629  134.6766  156.9095 H   0  0  0  0  0  0  0  0  0  0  0  0
  146.6292  139.9020  157.8768 H   0  0  0  0  0  0  0  0  0  0  0  0
  148.5720  138.6472  154.9497 H   0  0  0  0  0  0  0  0  0  0  0  0
  147.5989  139.9797  155.4940 H   0  0  0  0  0  0  0  0  0  0  0  0
  148.7027  142.1870  155.8408 H   0  0  0  0  0  0  0  0  0  0  0  0
  150.3930  142.2665  155.4337 H   0  0  0  0  0  0  0  0  0  0  0  0
  149.5557  140.9200  153.5296 H   0  0  0  0  0  0  0  0  0  0  0  0
  149.5033  140.8776  158.0019 H   0  0  0  0  0  0  0  0  0  0  0  0
  150.1998  139.2954  157.8109 H   0  0  0  0  0  0  0  0  0  0  0  0
  151.6580  141.9207  157.2166 H   0  0  0  0  0  0  0  0  0  0  0  0
  151.9180  140.8575  158.5817 H   0  0  0  0  0  0  0  0  0  0  0  0
  152.3649  141.1139  154.9955 H   0  0  0  0  0  0  0  0  0  0  0  0
  153.0072  139.4964  154.8855 H   0  0  0  0  0  0  0  0  0  0  0  0
  150.8758  138.4685  155.3895 H   0  0  0  0  0  0  0  0  0  0  0  0
  150.6413  139.5569  154.0504 H   0  0  0  0  0  0  0  0  0  0  0  0
  1  2  1  0  0  0  0
  1 27  1  0  0  0  0
  1 28  1  0  0  0  0
  1 29  1  0  0  0  0
  2  3  1  0  0  0  0
  2  7  1  0  0  0  0
  2 30  1  0  0  0  0
  3  4  1  0  0  0  0
  3 31  1  0  0  0  0
  3 32  1  0  0  0  0
  4  5  1  0  0  0  0
  4  6  2  0  0  0  0
  5 33  1  0  0  0  0
  5 34  1  0  0  0  0
  5 35  1  0  0  0  0
  7  8  1  0  0  0  0
  7  9  1  0  0  0  0
  8 36  1  0  0  0  0
  8 37  1  0  0  0  0
  8 38  1  0  0  0  0
  9 14  1  0  0  0  0
  9 10  2  0  0  0  0
 10 11  1  0  0  0  0
 11 12  2  0  0  0  0
 11 39  1  0  0  0  0
 12 13  1  0  0  0  0
 13 17  1  0  0  0  0
 13 14  2  0  0  0  0
 14 15  1  0  0  0  0
 15 16  2  0  0  0  0
 16 17  1  0  0  0  0
 16 40  1  0  0  0  0
 17 18  1  0  0  0  0
 18 19  1  0  0  0  0
 18 41  1  0  0  0  0
 18 42  1  0  0  0  0
 19 26  1  0  0  0  0
 19 20  1  0  0  0  0
 19 22  1  0  0  0  0
 20 21  1  0  0  0  0
 20 43  1  0  0  0  0
 20 44  1  0  0  0  0
 21 45  1  0  0  0  0
 22 23  1  0  0  0  0
 22 46  1  0  0  0  0
 22 47  1  0  0  0  0
 23 24  1  0  0  0  0
 23 48  1  0  0  0  0
 23 49  1  0  0  0  0
 24 25  1  0  0  0  0
 25 26  1  0  0  0  0
 25 50  1  0  0  0  0
 25 51  1  0  0  0  0
 26 52  1  0  0  0  0
 26 53  1  0  0  0  0
M  END
> <s_m_source_file>
AV-unprocessed.smi

> <i_m_source_file_index>
194

> <i_lp_mmshare_version>
43012

> <i_f3d_flags>
0

> <s_epik_input>
W0NIM11bU0BAXSg9TylbQ0gyXVtDQEBIXShbQ0gzXSlOKFtDSDNdKWMobltjSF1uMSljKGMxMiluW2NIXW4yW0NIMl1DMyhbQ0gyXVtPSF0pW0NIMl1bQ0gyXU9bQ0gyXVtDSDJdMw==

> <s_epik_cmdline>
J2VwaWtfcHl0aG9uJywgJy1waCcsICc3LjAnLCAnLXRuJywgJzgnLCAnLW1hJywgJzIwMCcsICctbWV0YWxfYmluZGluZycsICctaW1hZScsICc8aW5maWxlLm1hZT4nLCAnLW9tYWUnLCAnPG91dGZpbGUubWFlPic=

> <r_lp_tautomer_probability>
1

> <r_epik_Ionization_Penalty>
0.00101625

> <r_epik_Ionization_Penalty_Charging>
0

> <r_epik_Ionization_Penalty_Neutral>
0.00101625

> <r_epik_State_Penalty>
0.000568005

> <r_epik_Charging_Adjusted_Penalty>
0.000568005

> <i_epik_Tot_Q>
0

> <i_epik_Tot_abs_Q>
0

> <r_epik_Metal_State_Penalty>
-0

> <b_epik_Metal_Only>
0

> <s_lp_Force_Field>
OPLS_2005

> <r_lp_Energy>
28.4609

> <b_lp_Chiralities_Consistent>
1

> <s_lp_Variant>
AV-unprocessed.smi:194-1

> <Gold.Version>
5.8.1

> <Gold.Id.Protein>
6NUR|6NUR_protein|mol2

> <Gold.PLP.Fitness>
40.0272

> <Gold.PLP.PLP>
-32.3042

> <Gold.PLP.part.hbond>
-6.0000

> <Gold.PLP.part.metal>
0.0000

> <Gold.PLP.part.buried>
-2.5471

> <Gold.PLP.part.nonpolar>
-22.8992

> <Gold.PLP.part.repulsive>
0.0133

> <Gold.PLP.ligand.clash>
0.0000

> <Gold.PLP.ligand.torsion>
1.6925

> <Gold.PLP.Chemscore.Hbond>
3.5116

> <Gold.PLP.Chemscore.CHOScore>
0.0000

> <Gold.PLP.Chemscore.Metal>
0.0000

> <Gold.Chemscore.Hbonds>
donor molecule, donor type, donor heavy atom, donor atom, acceptor molecule, acceptor atom, score
      P1  H  6896  6907       L1    10  0.95
      P1  H  6934  6947       L1    15  0.24
      P1  H  7997  8009       L1    24  0.30

> <Gold.PLP.Chemscore.Internal.Correction>
0.5731

> <Gold.Rescore>
     Score         DG    S(hbond)    S(metal)    S(lipo)     H(rot)  DE(clash)    DE(int)     intcor
      5.62     -10.30       1.22        0.00      72.54       3.03       0.39       4.29       ----

> <Gold.Chemscore.Fitness>
5.6187

> <Gold.Chemscore.DG>
-10.2987

> <Gold.Chemscore.ZeroCoef>
-5.4800

> <Gold.Chemscore.Hbond>
1.2236

> <Gold.Chemscore.Metal>
0.0000

> <Gold.Chemscore.Lipo>
72.5435

> <Gold.Chemscore.Internal_Hbond>
0.0000

> <Gold.Chemscore.DEClash>
0.3893

> <Gold.Chemscore.DEInternal>
4.2908

> <Gold.Chemscore.Rot>
3.0295

> <Gold.Chemscore.Internal.Correction>
   9.000000E+99

> <Gold.Chemscore.Hbonds>
donor molecule, donor type, donor heavy atom, donor atom, acceptor molecule, acceptor atom, score
      L1  H    21    45       P1  7957  0.01
      P1  H  6896  6907       L1    10  0.20
      P1  H  6934  6947       L1    15  0.19

> <Gold.Chemscore.Hbond.Weighted>
-4.0867

> <Gold.Chemscore.Metal.Weighted>
-0.0000

> <Gold.Chemscore.Lipo.Weighted>
-8.4876

> <Gold.Chemscore.Internal_Hbond.Weighted>
0.0000

> <Gold.Chemscore.DEClash.Weighted>
0.3893

> <Gold.Chemscore.DEInternal.Weighted>
4.2908

> <Gold.Chemscore.Rot.Weighted>
7.7555

> <Gold.Chemscore.Internal.Correction.Weighted>
   9.000000E+99

> <Gold.Protein.RotatedTorsions>
[ 6907 6896 6895 6894 ] final  -79.96 input  -60.11 | X-H torsion
[ 7974 7965 7964 7962 ] final  -59.91 input  175.53 | X-H torsion
[ 8008 7997 7996 7995 ] final -158.28 input   59.86 | X-H torsion
[ 10167 10162 10161 10158 ] final  -13.31 input  -65.29 | X-H torsion
[ 10718 10713 10712 10709 ] final  -77.02 input   66.30 | X-H torsion
[ 10763 10752 10751 10750 ] final -129.96 input  -60.55 | X-H torsion
[ 11005 11000 10999 10996 ] final -137.88 input  -57.11 | X-H torsion

> <Gold.Protein.ActiveResidues>
 VAL166  LYS551  ARG553  GLY616  TRP617  ASP618  TYR619  PRO620  LYS621  CYS622 
 ASP623  PHE694  ASN695  SER759  ASP760  ASP761  ALA762  ILE779  LEU786  VAL792 
 PHE793  MET794  SER795  GLU796  ALA797  LYS798  CYS799  TRP800  GLU811  SER814 

> <Gold.Protein.RotatedAtoms>
  150.6939  134.4041  159.5131 H   0  0  0  0  0  0  0  0  0  0  0  0  # atno 6907 bound_to 6896
  152.1810  134.8751  160.0535 H   0  0  0  0  0  0  0  0  0  0  0  0  # atno 6908 bound_to 6896
  151.9742  133.3701  159.4119 H   0  0  0  0  0  0  0  0  0  0  0  0  # atno 6909 bound_to 6896
  145.8219  140.8535  143.0128 H   0  0  0  0  0  0  0  0  0  0  0  0  # atno 7974 bound_to 7965
  155.7451  140.0819  157.2227 H   0  0  0  0  0  0  0  0  0  0  0  0  # atno 8008 bound_to 7997
  154.4018  140.1570  156.2716 H   0  0  0  0  0  0  0  0  0  0  0  0  # atno 8009 bound_to 7997
  155.8983  140.3411  155.6010 H   0  0  0  0  0  0  0  0  0  0  0  0  # atno 8010 bound_to 7997
  140.7179  143.5440  150.9377 H   0  0  0  0  0  0  0  0  0  0  0  0  # atno 10167 bound_to 10162
  156.0157  130.4480  150.3282 H   0  0  0  0  0  0  0  0  0  0  0  0  # atno 10718 bound_to 10713
  154.8756  135.3878  154.4005 H   0  0  0  0  0  0  0  0  0  0  0  0  # atno 10763 bound_to 10752
  153.4730  135.7030  153.5987 H   0  0  0  0  0  0  0  0  0  0  0  0  # atno 10764 bound_to 10752
  153.4436  135.3850  155.2210 H   0  0  0  0  0  0  0  0  0  0  0  0  # atno 10765 bound_to 10752
  140.8669  134.2100  157.4675 H   0  0  0  0  0  0  0  0  0  0  0  0  # atno 11005 bound_to 11000
  144.6747  140.0545  143.7478 LP  0  0  0  0  0  0  0  0  0  0  0  0  # atno 17320 bound_to 7965
  145.9666  139.2839  143.1124 LP  0  0  0  0  0  0  0  0  0  0  0  0  # atno 17321 bound_to 7965
  139.9163  143.6660  152.3105 LP  0  0  0  0  0  0  0  0  0  0  0  0  # atno 17342 bound_to 10162
  139.7061  144.7628  151.1191 LP  0  0  0  0  0  0  0  0  0  0  0  0  # atno 17343 bound_to 10162
  157.1381  131.0289  151.2940 LP  0  0  0  0  0  0  0  0  0  0  0  0  # atno 17370 bound_to 10713
  157.4495  130.7590  149.7139 LP  0  0  0  0  0  0  0  0  0  0  0  0  # atno 17371 bound_to 10713
  139.8710  134.9756  156.4888 LP  0  0  0  0  0  0  0  0  0  0  0  0  # atno 17394 bound_to 11000
  140.8619  133.8053  155.9274 LP  0  0  0  0  0  0  0  0  0  0  0  0  # atno 17395 bound_to 11000

$$$$
