AV-unprocessed.smi:2139|AV-procd|sdf|8713|dock7
  -GOLD-   2272011473D 1   1.00000     0.00000
 Structure written by MMmdl.
 40 41  0  0  0  0  0  0  0  0  1 V2000
  152.4404  144.9242  158.6976 C   0  0  0  0  0  0  0  0  0  0  0  0
  151.6709  144.3797  157.4855 C   0  0  0  0  0  0  0  0  0  0  0  0
  151.4159  142.8610  157.5394 C   0  0  1  0  0  0  0  0  0  0  0  0
  150.9685  142.4104  158.9367 C   0  0  0  0  0  0  0  0  0  0  0  0
  150.3996  142.4725  156.5626 N   0  0  0  0  0  0  0  0  0  0  0  0
  150.0310  141.2149  156.2657 C   0  0  0  0  0  0  0  0  0  0  0  0
  150.5377  140.2157  156.7767 O   0  0  0  0  0  0  0  0  0  0  0  0
  148.9584  141.0966  155.2137 C   0  0  0  0  0  0  0  0  0  0  0  0
  148.0399  142.1577  155.0378 C   0  0  0  0  0  0  0  0  0  0  0  0
  147.0063  142.0335  154.0928 C   0  0  0  0  0  0  0  0  0  0  0  0
  146.9197  140.8404  153.3559 C   0  0  0  0  0  0  0  0  0  0  0  0
  147.7825  139.8161  153.5087 N   0  0  0  0  0  0  0  0  0  0  0  0
  148.7858  139.9268  154.4148 C   0  0  0  0  0  0  0  0  0  0  0  0
  149.6826  138.8430  154.4941 N   0  0  0  0  0  0  0  0  0  0  0  0
  151.1005  139.1235  154.2966 C   0  0  0  0  0  0  0  0  0  0  0  0
  151.8776  137.8017  154.1712 C   0  0  0  0  0  0  0  0  0  0  0  0
  151.6349  136.9928  155.3196 O   0  0  0  0  0  0  0  0  0  0  0  0
  150.2550  136.6665  155.4656 C   0  0  0  0  0  0  0  0  0  0  0  0
  149.4333  137.9570  155.6234 C   0  0  0  0  0  0  0  0  0  0  0  0
  152.5238  146.0098  158.6464 H   0  0  0  0  0  0  0  0  0  0  0  0
  153.4511  144.5202  158.7434 H   0  0  0  0  0  0  0  0  0  0  0  0
  151.9354  144.6727  159.6307 H   0  0  0  0  0  0  0  0  0  0  0  0
  150.7136  144.8987  157.4236 H   0  0  0  0  0  0  0  0  0  0  0  0
  152.2113  144.6329  156.5725 H   0  0  0  0  0  0  0  0  0  0  0  0
  152.3589  142.3560  157.3232 H   0  0  0  0  0  0  0  0  0  0  0  0
  151.7167  142.6624  159.6886 H   0  0  0  0  0  0  0  0  0  0  0  0
  150.8195  141.3306  158.9714 H   0  0  0  0  0  0  0  0  0  0  0  0
  150.0312  142.8858  159.2277 H   0  0  0  0  0  0  0  0  0  0  0  0
  149.9354  143.2237  156.0731 H   0  0  0  0  0  0  0  0  0  0  0  0
  148.1136  143.0603  155.6273 H   0  0  0  0  0  0  0  0  0  0  0  0
  146.2928  142.8303  153.9428 H   0  0  0  0  0  0  0  0  0  0  0  0
  146.1378  140.7044  152.6235 H   0  0  0  0  0  0  0  0  0  0  0  0
  151.2387  139.7276  153.3993 H   0  0  0  0  0  0  0  0  0  0  0  0
  151.4845  139.6982  155.1404 H   0  0  0  0  0  0  0  0  0  0  0  0
  151.5866  137.2643  153.2674 H   0  0  0  0  0  0  0  0  0  0  0  0
  152.9467  137.9998  154.0948 H   0  0  0  0  0  0  0  0  0  0  0  0
  149.9124  136.0921  154.6031 H   0  0  0  0  0  0  0  0  0  0  0  0
  150.1300  136.0309  156.3424 H   0  0  0  0  0  0  0  0  0  0  0  0
  149.7109  138.4676  156.5466 H   0  0  0  0  0  0  0  0  0  0  0  0
  148.3733  137.7179  155.6988 H   0  0  0  0  0  0  0  0  0  0  0  0
  1  2  1  0  0  0  0
  1 20  1  0  0  0  0
  1 21  1  0  0  0  0
  1 22  1  0  0  0  0
  2  3  1  0  0  0  0
  2 23  1  0  0  0  0
  2 24  1  0  0  0  0
  3  4  1  0  0  0  0
  3  5  1  0  0  0  0
  3 25  1  0  0  0  0
  4 26  1  0  0  0  0
  4 27  1  0  0  0  0
  4 28  1  0  0  0  0
  5  6  1  0  0  0  0
  5 29  1  0  0  0  0
  6  7  2  0  0  0  0
  6  8  1  0  0  0  0
  8 13  1  0  0  0  0
  8  9  2  0  0  0  0
  9 10  1  0  0  0  0
  9 30  1  0  0  0  0
 10 11  2  0  0  0  0
 10 31  1  0  0  0  0
 11 12  1  0  0  0  0
 11 32  1  0  0  0  0
 12 13  2  0  0  0  0
 13 14  1  0  0  0  0
 14 19  1  0  0  0  0
 14 15  1  0  0  0  0
 15 16  1  0  0  0  0
 15 33  1  0  0  0  0
 15 34  1  0  0  0  0
 16 17  1  0  0  0  0
 16 35  1  0  0  0  0
 16 36  1  0  0  0  0
 17 18  1  0  0  0  0
 18 19  1  0  0  0  0
 18 37  1  0  0  0  0
 18 38  1  0  0  0  0
 19 39  1  0  0  0  0
 19 40  1  0  0  0  0
M  END
> <s_m_source_file>
AV-unprocessed.smi

> <i_m_source_file_index>
2139

> <i_lp_mmshare_version>
43012

> <i_f3d_flags>
0

> <s_epik_input>
W0NIM11bQ0gyXVtDQEhdKFtDSDNdKVtOSF1DKD1PKWMxW2NIXVtjSF1bY0hdbmMxTjJbQ0gyXVtDSDJdT1tDSDJdW0NIMl0y

> <s_epik_cmdline>
J2VwaWtfcHl0aG9uJywgJy1waCcsICc3LjAnLCAnLXRuJywgJzgnLCAnLW1hJywgJzIwMCcsICctbWV0YWxfYmluZGluZycsICctaW1hZScsICc8aW5maWxlLm1hZT4nLCAnLW9tYWUnLCAnPG91dGZpbGUubWFlPic=

> <r_lp_tautomer_probability>
1

> <r_epik_Ionization_Penalty>
1.73125e-05

> <r_epik_Ionization_Penalty_Charging>
0

> <r_epik_Ionization_Penalty_Neutral>
1.73125e-05

> <r_epik_State_Penalty>
-0

> <r_epik_Charging_Adjusted_Penalty>
0

> <i_epik_Tot_Q>
0

> <i_epik_Tot_abs_Q>
0

> <r_epik_Metal_State_Penalty>
-0

> <b_epik_Metal_Only>
0

> <s_lp_Force_Field>
OPLS_2005

> <r_lp_Energy>
25.2402

> <b_lp_Chiralities_Consistent>
1

> <s_lp_Variant>
AV-unprocessed.smi:2139-2

> <Gold.Version>
5.8.1

> <Gold.Id.Protein>
6NUR|6NUR_protein|mol2

> <Gold.PLP.Fitness>
40.0941

> <Gold.PLP.PLP>
-33.7502

> <Gold.PLP.part.hbond>
-2.0000

> <Gold.PLP.part.metal>
0.0000

> <Gold.PLP.part.buried>
-1.6363

> <Gold.PLP.part.nonpolar>
-31.0480

> <Gold.PLP.part.repulsive>
1.4464

> <Gold.PLP.ligand.clash>
0.0000

> <Gold.PLP.ligand.torsion>
0.7051

> <Gold.PLP.Chemscore.Hbond>
1.5000

> <Gold.PLP.Chemscore.CHOScore>
1.0000

> <Gold.PLP.Chemscore.Metal>
0.0000

> <Gold.Chemscore.Hbonds>
donor molecule, donor type, donor heavy atom, donor atom, acceptor molecule, acceptor atom, score
      L1  H     5    29       P1  8028  1.00
      P1  H 10752 10764       L1    17  0.44
      L1  C    11    32       P1 10175  1.00

> <Gold.PLP.Chemscore.Internal.Correction>
0.2541

> <Gold.Rescore>
     Score         DG    S(hbond)    S(metal)    S(lipo)     H(rot)  DE(clash)    DE(int)     intcor
      9.86     -16.50       0.99        0.00      94.52       1.30       0.96       5.68       ----

> <Gold.Chemscore.Fitness>
9.8574

> <Gold.Chemscore.DG>
-16.5021

> <Gold.Chemscore.ZeroCoef>
-5.4800

> <Gold.Chemscore.Hbond>
0.9886

> <Gold.Chemscore.Metal>
0.0000

> <Gold.Chemscore.Lipo>
94.5189

> <Gold.Chemscore.Internal_Hbond>
0.0000

> <Gold.Chemscore.DEClash>
0.9608

> <Gold.Chemscore.DEInternal>
5.6838

> <Gold.Chemscore.Rot>
1.3041

> <Gold.Chemscore.Internal.Correction>
   9.000000E+99

> <Gold.Chemscore.Hbonds>
donor molecule, donor type, donor heavy atom, donor atom, acceptor molecule, acceptor atom, score
      L1  H     5    29       P1  8028  1.00
      P1  H 10752 10764       L1    17  0.01

> <Gold.Chemscore.Hbond.Weighted>
-3.3019

> <Gold.Chemscore.Metal.Weighted>
-0.0000

> <Gold.Chemscore.Lipo.Weighted>
-11.0587

> <Gold.Chemscore.Internal_Hbond.Weighted>
0.0000

> <Gold.Chemscore.DEClash.Weighted>
0.9608

> <Gold.Chemscore.DEInternal.Weighted>
5.6838

> <Gold.Chemscore.Rot.Weighted>
3.3385

> <Gold.Chemscore.Internal.Correction.Weighted>
   9.000000E+99

> <Gold.Protein.RotatedTorsions>
[ 6907 6896 6895 6894 ] final -125.50 input  -60.11 | X-H torsion
[ 7974 7965 7964 7962 ] final  105.41 input  175.53 | X-H torsion
[ 8008 7997 7996 7995 ] final  162.99 input   59.86 | X-H torsion
[ 10167 10162 10161 10158 ] final   -5.77 input  -65.29 | X-H torsion
[ 10718 10713 10712 10709 ] final  169.53 input   66.30 | X-H torsion
[ 10763 10752 10751 10750 ] final  -61.26 input  -60.55 | X-H torsion
[ 11005 11000 10999 10996 ] final -137.96 input  -57.11 | X-H torsion

> <Gold.Protein.ActiveResidues>
 VAL166  LYS551  ARG553  GLY616  TRP617  ASP618  TYR619  PRO620  LYS621  CYS622 
 ASP623  PHE694  ASN695  SER759  ASP760  ASP761  ALA762  ILE779  LEU786  VAL792 
 PHE793  MET794  SER795  GLU796  ALA797  LYS798  CYS799  TRP800  GLU811  SER814 

> <Gold.Protein.RotatedAtoms>
  150.8874  133.7289  159.2914 H   0  0  0  0  0  0  0  0  0  0  0  0  # atno 6907 bound_to 6896
  151.4851  135.1053  159.9798 H   0  0  0  0  0  0  0  0  0  0  0  0  # atno 6908 bound_to 6896
  152.4798  133.8181  159.7094 H   0  0  0  0  0  0  0  0  0  0  0  0  # atno 6909 bound_to 6896
  145.3201  139.2515  143.3716 H   0  0  0  0  0  0  0  0  0  0  0  0  # atno 7974 bound_to 7965
  156.1991  140.1735  156.7937 H   0  0  0  0  0  0  0  0  0  0  0  0  # atno 8008 bound_to 7997
  154.5568  140.0707  156.8786 H   0  0  0  0  0  0  0  0  0  0  0  0  # atno 8009 bound_to 7997
  155.2924  140.3356  155.4254 H   0  0  0  0  0  0  0  0  0  0  0  0  # atno 8010 bound_to 7997
  140.6974  143.6270  150.8558 H   0  0  0  0  0  0  0  0  0  0  0  0  # atno 10167 bound_to 10162
  157.0213  131.0232  151.2774 H   0  0  0  0  0  0  0  0  0  0  0  0  # atno 10718 bound_to 10713
  154.2818  135.6270  153.5350 H   0  0  0  0  0  0  0  0  0  0  0  0  # atno 10763 bound_to 10752
  152.9865  135.5635  154.5487 H   0  0  0  0  0  0  0  0  0  0  0  0  # atno 10764 bound_to 10752
  154.5079  135.2875  155.1342 H   0  0  0  0  0  0  0  0  0  0  0  0  # atno 10765 bound_to 10752
  140.8662  134.2108  157.4678 H   0  0  0  0  0  0  0  0  0  0  0  0  # atno 11005 bound_to 11000
  146.3085  140.3756  142.8678 LP  0  0  0  0  0  0  0  0  0  0  0  0  # atno 17320 bound_to 7965
  144.8946  140.7567  143.5905 LP  0  0  0  0  0  0  0  0  0  0  0  0  # atno 17321 bound_to 7965
  139.9989  143.5765  152.2883 LP  0  0  0  0  0  0  0  0  0  0  0  0  # atno 17342 bound_to 10162
  139.6448  144.7657  151.2267 LP  0  0  0  0  0  0  0  0  0  0  0  0  # atno 17343 bound_to 10162
  157.5248  130.8021  149.7849 LP  0  0  0  0  0  0  0  0  0  0  0  0  # atno 17370 bound_to 10713
  156.0101  130.3837  150.2293 LP  0  0  0  0  0  0  0  0  0  0  0  0  # atno 17371 bound_to 10713
  139.8709  134.9753  156.4877 LP  0  0  0  0  0  0  0  0  0  0  0  0  # atno 17394 bound_to 11000
  140.8626  133.8048  155.9281 LP  0  0  0  0  0  0  0  0  0  0  0  0  # atno 17395 bound_to 11000

$$$$
