AV-unprocessed.smi:101|AV-procd|sdf|932|dock8
  -GOLD-   2262017443D 1   1.00000     0.00000
 Structure written by MMmdl.
 43 45  0  0  0  0  0  0  0  0  2 V2000
  144.4593  141.3677  158.2023 C   0  0  0  0  0  0  0  0  0  0  0  0
  144.7882  142.0328  156.8772 C   0  0  0  0  0  0  0  0  0  0  0  0
  145.8467  141.6577  156.1249 C   0  0  0  0  0  0  0  0  0  0  0  0
  146.1414  142.2673  154.9169 N   0  0  0  0  0  0  0  0  0  0  0  0
  147.3323  141.8399  154.0785 C   0  0  1  0  0  0  0  0  0  0  0  0
  148.4459  141.6540  154.9063 O   0  0  0  0  0  0  0  0  0  0  0  0
  148.7625  140.2694  154.9941 C   0  0  2  0  0  0  0  0  0  0  0  0
  150.2426  140.1113  155.3628 C   0  0  0  0  0  0  0  0  0  0  0  0
  150.5503  140.9426  156.4698 O   0  0  0  0  0  0  0  0  0  0  0  0
  151.7136  140.7851  157.1294 C   0  0  0  0  0  0  0  0  0  0  0  0
  152.5281  139.8961  156.8729 O   0  0  0  0  0  0  0  0  0  0  0  0
  151.9135  141.8006  158.2035 C   0  0  0  0  0  0  0  0  0  0  0  0
  151.2719  143.0569  158.0977 C   0  0  0  0  0  0  0  0  0  0  0  0
  151.4440  144.0368  159.0947 C   0  0  0  0  0  0  0  0  0  0  0  0
  152.2613  143.7731  160.2091 C   0  0  0  0  0  0  0  0  0  0  0  0
  152.9059  142.5278  160.3258 C   0  0  0  0  0  0  0  0  0  0  0  0
  152.7339  141.5459  159.3303 C   0  0  0  0  0  0  0  0  0  0  0  0
  148.3927  139.7606  153.6018 C   0  0  1  0  0  0  0  0  0  0  0  0
  148.2485  138.3543  153.5325 O   0  0  0  0  0  0  0  0  0  0  0  0
  147.0963  140.5119  153.3174 C   0  0  1  0  0  0  0  0  0  0  0  0
  145.9591  139.7919  153.7718 O   0  0  0  0  0  0  0  0  0  0  0  0
  145.3105  143.3139  154.4395 C   0  0  0  0  0  0  0  0  0  0  0  0
  145.5898  143.8199  153.3522 O   0  0  0  0  0  0  0  0  0  0  0  0
  144.2425  143.7014  155.1928 N   0  5  0  0  0  0  0  0  0  0  0  0
  143.9325  143.1200  156.3870 C   0  0  0  0  0  0  0  0  0  0  0  0
  142.9641  143.4785  157.0566 O   0  0  0  0  0  0  0  0  0  0  0  0
  145.1824  140.5887  158.4458 H   0  0  0  0  0  0  0  0  0  0  0  0
  143.4703  140.9102  158.1635 H   0  0  0  0  0  0  0  0  0  0  0  0
  144.4683  142.1012  159.0093 H   0  0  0  0  0  0  0  0  0  0  0  0
  146.4723  140.8567  156.4870 H   0  0  0  0  0  0  0  0  0  0  0  0
  147.5497  142.6838  153.4217 H   0  0  0  0  0  0  0  0  0  0  0  0
  148.1254  139.8115  155.7529 H   0  0  0  0  0  0  0  0  0  0  0  0
  150.4669  139.0690  155.5942 H   0  0  0  0  0  0  0  0  0  0  0  0
  150.8667  140.4005  154.5161 H   0  0  0  0  0  0  0  0  0  0  0  0
  150.6399  143.2825  157.2507 H   0  0  0  0  0  0  0  0  0  0  0  0
  150.9482  144.9921  159.0035 H   0  0  0  0  0  0  0  0  0  0  0  0
  152.3938  144.5251  160.9732 H   0  0  0  0  0  0  0  0  0  0  0  0
  153.5348  142.3246  161.1800 H   0  0  0  0  0  0  0  0  0  0  0  0
  153.2452  140.6017  159.4496 H   0  0  0  0  0  0  0  0  0  0  0  0
  149.1552  140.0742  152.8873 H   0  0  0  0  0  0  0  0  0  0  0  0
  148.6709  138.0553  152.7413 H   0  0  0  0  0  0  0  0  0  0  0  0
  146.9745  140.7160  152.2530 H   0  0  0  0  0  0  0  0  0  0  0  0
  145.2957  139.8333  153.0990 H   0  0  0  0  0  0  0  0  0  0  0  0
  1  2  1  0  0  0  0
  1 27  1  0  0  0  0
  1 28  1  0  0  0  0
  1 29  1  0  0  0  0
  2 25  1  0  0  0  0
  2  3  2  0  0  0  0
  3  4  1  0  0  0  0
  3 30  1  0  0  0  0
  4  5  1  0  0  0  0
  4 22  1  0  0  0  0
  5 20  1  0  0  0  0
  5  6  1  0  0  0  0
  5 31  1  0  0  0  0
  6  7  1  0  0  0  0
  7  8  1  0  0  0  0
  7 18  1  0  0  0  0
  7 32  1  0  0  0  0
  8  9  1  0  0  0  0
  8 33  1  0  0  0  0
  8 34  1  0  0  0  0
  9 10  1  0  0  0  0
 10 11  2  0  0  0  0
 10 12  1  0  0  0  0
 12 17  1  0  0  0  0
 12 13  2  0  0  0  0
 13 14  1  0  0  0  0
 13 35  1  0  0  0  0
 14 15  2  0  0  0  0
 14 36  1  0  0  0  0
 15 16  1  0  0  0  0
 15 37  1  0  0  0  0
 16 17  2  0  0  0  0
 16 38  1  0  0  0  0
 17 39  1  0  0  0  0
 18 19  1  0  0  0  0
 18 20  1  0  0  0  0
 18 40  1  0  0  0  0
 19 41  1  0  0  0  0
 20 21  1  0  0  0  0
 20 42  1  0  0  0  0
 21 43  1  0  0  0  0
 22 23  2  0  0  0  0
 22 24  1  0  0  0  0
 24 25  1  0  0  0  0
 25 26  2  0  0  0  0
M  CHG  1  24  -1
M  END
> <s_m_source_file>
AV-unprocessed.smi

> <i_m_source_file_index>
101

> <i_lp_mmshare_version>
43012

> <i_f3d_flags>
0

> <s_epik_input>
Tz1jMVtuSF1jKD1PKW4oW2NIXWMxW0NIM10pW0NAQEhdMk9bQ0BIXShbQ0BASF0oW09IXSlbQ0BIXTJbT0hdKVtDSDJdT0MoPU8pYzNbY0hdW2NIXVtjSF1bY0hdW2NIXTM=

> <s_epik_cmdline>
J2VwaWtfcHl0aG9uJywgJy1waCcsICc3LjAnLCAnLXRuJywgJzgnLCAnLW1hJywgJzIwMCcsICctbWV0YWxfYmluZGluZycsICctaW1hZScsICc8aW5maWxlLm1hZT4nLCAnLW9tYWUnLCAnPG91dGZpbGUubWFlPic=

> <r_lp_tautomer_probability>
0.999537

> <r_epik_Ionization_Penalty>
3.21006

> <r_epik_Ionization_Penalty_Charging>
5.75142e-08

> <r_epik_Ionization_Penalty_Neutral>
3.21006

> <r_epik_State_Penalty>
3.20925

> <r_epik_Charging_Adjusted_Penalty>
3.20925

> <i_epik_Tot_Q>
-1

> <i_epik_Tot_abs_Q>
1

> <r_epik_Metal_State_Penalty>
0.119957

> <b_epik_Metal_Only>
1

> <s_epik_Chemistry_Notes>
This compound has an ester and may undergo hydrolysis at high or low pH. This compound contains an acetal/aminal-like group ( X-CH(R)-Y where X, Y are N, S, or O) that may be acid/base labile, releasing an aldehyde.

> <s_lp_Force_Field>
OPLS_2005

> <r_lp_Energy>
48.7646

> <b_lp_Chiralities_Consistent>
1

> <s_lp_Variant>
AV-unprocessed.smi:101-20

> <Gold.Version>
5.8.1

> <Gold.Id.Protein>
6NUR|6NUR_protein|mol2

> <Gold.PLP.Fitness>
51.7162

> <Gold.PLP.PLP>
-44.4527

> <Gold.PLP.part.hbond>
-4.0000

> <Gold.PLP.part.metal>
0.0000

> <Gold.PLP.part.buried>
-4.2419

> <Gold.PLP.part.nonpolar>
-37.7243

> <Gold.PLP.part.repulsive>
0.5709

> <Gold.PLP.ligand.clash>
0.0000

> <Gold.PLP.ligand.torsion>
0.8735

> <Gold.PLP.Chemscore.Hbond>
2.9760

> <Gold.PLP.Chemscore.CHOScore>
0.0000

> <Gold.PLP.Chemscore.Metal>
0.0000

> <Gold.Chemscore.Hbonds>
donor molecule, donor type, donor heavy atom, donor atom, acceptor molecule, acceptor atom, score
      L1  H    19    41       P1  7948  0.72
      L1  H    21    43       P1 10175  1.00
      P1  H  7997  8008       L1    11  1.00

> <Gold.PLP.Chemscore.Internal.Correction>
0.0825

> <Gold.Rescore>
     Score         DG    S(hbond)    S(metal)    S(lipo)     H(rot)  DE(clash)    DE(int)     intcor
     16.44     -17.46       2.90        0.00      91.15       3.27       0.09       0.93       ----

> <Gold.Chemscore.Fitness>
16.4405

> <Gold.Chemscore.DG>
-17.4553

> <Gold.Chemscore.ZeroCoef>
-5.4800

> <Gold.Chemscore.Hbond>
2.8953

> <Gold.Chemscore.Metal>
0.0000

> <Gold.Chemscore.Lipo>
91.1522

> <Gold.Chemscore.Internal_Hbond>
0.0000

> <Gold.Chemscore.DEClash>
0.0886

> <Gold.Chemscore.DEInternal>
0.9262

> <Gold.Chemscore.Rot>
3.2656

> <Gold.Chemscore.Internal.Correction>
   9.000000E+99

> <Gold.Chemscore.Hbonds>
donor molecule, donor type, donor heavy atom, donor atom, acceptor molecule, acceptor atom, score
      L1  H    19    41       P1  7948  0.68
      L1  H    21    43       P1 10175  0.95
      P1  H  7997  8008       L1    11  1.00

> <Gold.Chemscore.Hbond.Weighted>
-9.6704

> <Gold.Chemscore.Metal.Weighted>
-0.0000

> <Gold.Chemscore.Lipo.Weighted>
-10.6648

> <Gold.Chemscore.Internal_Hbond.Weighted>
0.0000

> <Gold.Chemscore.DEClash.Weighted>
0.0886

> <Gold.Chemscore.DEInternal.Weighted>
0.9262

> <Gold.Chemscore.Rot.Weighted>
8.3598

> <Gold.Chemscore.Internal.Correction.Weighted>
   9.000000E+99

> <Gold.Protein.RotatedTorsions>
[ 6907 6896 6895 6894 ] final    0.77 input  -60.11 | X-H torsion
[ 7974 7965 7964 7962 ] final   68.71 input  175.53 | X-H torsion
[ 8008 7997 7996 7995 ] final  -57.09 input   59.86 | X-H torsion
[ 10167 10162 10161 10158 ] final   69.58 input  -65.29 | X-H torsion
[ 10718 10713 10712 10709 ] final   23.32 input   66.30 | X-H torsion
[ 10763 10752 10751 10750 ] final   45.45 input  -60.55 | X-H torsion
[ 11005 11000 10999 10996 ] final   45.33 input  -57.11 | X-H torsion

> <Gold.Protein.ActiveResidues>
 VAL166  LYS551  ARG553  GLY616  TRP617  ASP618  TYR619  PRO620  LYS621  CYS622 
 ASP623  PHE694  ASN695  SER759  ASP760  ASP761  ALA762  ILE779  LEU786  VAL792 
 PHE793  MET794  SER795  GLU796  ALA797  LYS798  CYS799  TRP800  GLU811  SER814 

> <Gold.Protein.RotatedAtoms>
  151.5818  135.1058  160.0018 H   0  0  0  0  0  0  0  0  0  0  0  0  # atno 6907 bound_to 6896
  152.4350  133.7341  159.6614 H   0  0  0  0  0  0  0  0  0  0  0  0  # atno 6908 bound_to 6896
  150.8247  133.8122  159.3147 H   0  0  0  0  0  0  0  0  0  0  0  0  # atno 6909 bound_to 6896
  145.7993  139.2974  143.1164 H   0  0  0  0  0  0  0  0  0  0  0  0  # atno 7974 bound_to 7965
  154.4254  140.1115  156.5742 H   0  0  0  0  0  0  0  0  0  0  0  0  # atno 8008 bound_to 7997
  155.6180  140.3495  155.4624 H   0  0  0  0  0  0  0  0  0  0  0  0  # atno 8009 bound_to 7997
  156.0046  140.1206  157.0503 H   0  0  0  0  0  0  0  0  0  0  0  0  # atno 8010 bound_to 7997
  140.0662  144.5191  150.7259 H   0  0  0  0  0  0  0  0  0  0  0  0  # atno 10167 bound_to 10162
  157.1644  130.6731  149.6055 H   0  0  0  0  0  0  0  0  0  0  0  0  # atno 10718 bound_to 10713
  152.9824  135.6039  154.3438 H   0  0  0  0  0  0  0  0  0  0  0  0  # atno 10763 bound_to 10752
  154.3133  135.2771  155.2557 H   0  0  0  0  0  0  0  0  0  0  0  0  # atno 10764 bound_to 10752
  154.4757  135.5930  153.6409 H   0  0  0  0  0  0  0  0  0  0  0  0  # atno 10765 bound_to 10752
  140.1469  134.4511  155.8409 H   0  0  0  0  0  0  0  0  0  0  0  0  # atno 11005 bound_to 11000
  145.9895  140.8615  143.0074 LP  0  0  0  0  0  0  0  0  0  0  0  0  # atno 17320 bound_to 7965
  144.6771  140.2195  143.7368 LP  0  0  0  0  0  0  0  0  0  0  0  0  # atno 17321 bound_to 7965
  140.7148  143.2535  151.4469 LP  0  0  0  0  0  0  0  0  0  0  0  0  # atno 17342 bound_to 10162
  139.5863  144.1596  152.2033 LP  0  0  0  0  0  0  0  0  0  0  0  0  # atno 17343 bound_to 10162
  155.9748  130.4700  150.6416 LP  0  0  0  0  0  0  0  0  0  0  0  0  # atno 17370 bound_to 10713
  157.4102  131.0822  151.1228 LP  0  0  0  0  0  0  0  0  0  0  0  0  # atno 17371 bound_to 10713
  141.2194  133.6856  156.7350 LP  0  0  0  0  0  0  0  0  0  0  0  0  # atno 17394 bound_to 11000
  140.2652  134.8435  157.3796 LP  0  0  0  0  0  0  0  0  0  0  0  0  # atno 17395 bound_to 11000

$$$$
