AV-unprocessed.smi:1428|AV-procd|sdf|5814|dock5
  -GOLD-   22720 5473D 1   1.00000     0.00000
 Structure written by MMmdl.
 44 45  0  0  0  0  0  0  0  0  2 V2000
  151.2216  138.1539  155.8979 C   0  0  0  0  0  0  0  0  0  0  0  0
  149.9737  138.0400  155.2226 O   0  0  0  0  0  0  0  0  0  0  0  0
  149.2816  139.1959  154.9144 C   0  0  0  0  0  0  0  0  0  0  0  0
  149.8080  140.3841  155.3044 N   0  0  0  0  0  0  0  0  0  0  0  0
  149.1379  141.5143  155.0018 C   0  0  0  0  0  0  0  0  0  0  0  0
  147.9206  141.5215  154.2977 C   0  0  0  0  0  0  0  0  0  0  0  0
  147.3725  140.2907  153.8915 C   0  0  0  0  0  0  0  0  0  0  0  0
  148.0597  139.0922  154.2079 C   0  0  0  0  0  0  0  0  0  0  0  0
  147.6144  137.7878  153.8479 N   0  0  0  0  0  0  0  0  0  0  0  0
  146.4322  137.3903  153.3464 C   0  0  0  0  0  0  0  0  0  0  0  0
  145.4723  138.1196  153.1013 O   0  0  0  0  0  0  0  0  0  0  0  0
  146.4183  136.0652  153.1422 N   0  0  0  0  0  0  0  0  0  0  0  0
  145.2910  135.3097  152.6036 C   0  0  2  0  0  0  0  0  0  0  0  0
  145.6169  133.8075  152.6085 C   0  0  0  0  0  0  0  0  0  0  0  0
  144.4838  132.9906  151.9650 C   0  0  0  0  0  0  0  0  0  0  0  0
  144.2042  133.4580  150.5831 N   0  3  1  0  0  0  0  0  0  0  0  0
  143.2145  132.5990  149.8832 C   0  0  0  0  0  0  0  0  0  0  0  0
  142.9876  133.0110  148.4248 C   0  0  0  0  0  0  0  0  0  0  0  0
  142.0186  132.3741  147.7636 N   0  0  0  0  0  0  0  0  0  0  0  0
  143.6820  133.8774  147.8959 O   0  0  0  0  0  0  0  0  0  0  0  0
  143.8462  134.9019  150.5572 C   0  0  0  0  0  0  0  0  0  0  0  0
  144.9648  135.7617  151.1685 C   0  0  0  0  0  0  0  0  0  0  0  0
  151.6349  137.1589  156.0620 H   0  0  0  0  0  0  0  0  0  0  0  0
  151.1068  138.6288  156.8733 H   0  0  0  0  0  0  0  0  0  0  0  0
  151.9445  138.7181  155.3069 H   0  0  0  0  0  0  0  0  0  0  0  0
  149.5874  142.4406  155.3275 H   0  0  0  0  0  0  0  0  0  0  0  0
  147.4191  142.4507  154.0713 H   0  0  0  0  0  0  0  0  0  0  0  0
  146.4450  140.3035  153.3428 H   0  0  0  0  0  0  0  0  0  0  0  0
  148.2854  137.0533  154.0195 H   0  0  0  0  0  0  0  0  0  0  0  0
  147.2499  135.5417  153.3749 H   0  0  0  0  0  0  0  0  0  0  0  0
  144.4157  135.4709  153.2364 H   0  0  0  0  0  0  0  0  0  0  0  0
  146.5459  133.6258  152.0657 H   0  0  0  0  0  0  0  0  0  0  0  0
  145.7830  133.4639  153.6303 H   0  0  0  0  0  0  0  0  0  0  0  0
  144.7696  131.9382  151.9481 H   0  0  0  0  0  0  0  0  0  0  0  0
  143.5760  133.0637  152.5662 H   0  0  0  0  0  0  0  0  0  0  0  0
  143.5723  131.5688  149.8629 H   0  0  0  0  0  0  0  0  0  0  0  0
  142.2705  132.5921  150.4309 H   0  0  0  0  0  0  0  0  0  0  0  0
  141.8209  132.6068  146.8010 H   0  0  0  0  0  0  0  0  0  0  0  0
  141.4798  131.6598  148.2325 H   0  0  0  0  0  0  0  0  0  0  0  0
  143.6665  135.2271  149.5321 H   0  0  0  0  0  0  0  0  0  0  0  0
  142.9150  135.0577  151.1041 H   0  0  0  0  0  0  0  0  0  0  0  0
  144.6639  136.8100  151.1621 H   0  0  0  0  0  0  0  0  0  0  0  0
  145.8571  135.6925  150.5443 H   0  0  0  0  0  0  0  0  0  0  0  0
  145.0688  133.3597  150.0695 H   0  0  0  0  0  0  0  0  0  0  0  0
  1  2  1  0  0  0  0
  1 23  1  0  0  0  0
  1 24  1  0  0  0  0
  1 25  1  0  0  0  0
  2  3  1  0  0  0  0
  3  8  1  0  0  0  0
  3  4  2  0  0  0  0
  4  5  1  0  0  0  0
  5  6  2  0  0  0  0
  5 26  1  0  0  0  0
  6  7  1  0  0  0  0
  6 27  1  0  0  0  0
  7  8  2  0  0  0  0
  7 28  1  0  0  0  0
  8  9  1  0  0  0  0
  9 10  1  0  0  0  0
  9 29  1  0  0  0  0
 10 11  2  0  0  0  0
 10 12  1  0  0  0  0
 12 13  1  0  0  0  0
 12 30  1  0  0  0  0
 13 22  1  0  0  0  0
 13 14  1  0  0  0  0
 13 31  1  0  0  0  0
 14 15  1  0  0  0  0
 14 32  1  0  0  0  0
 14 33  1  0  0  0  0
 15 16  1  0  0  0  0
 15 34  1  0  0  0  0
 15 35  1  0  0  0  0
 16 17  1  0  0  0  0
 16 21  1  0  0  0  0
 16 44  1  0  0  0  0
 17 18  1  0  0  0  0
 17 36  1  0  0  0  0
 17 37  1  0  0  0  0
 18 19  1  0  0  0  0
 18 20  2  0  0  0  0
 19 38  1  0  0  0  0
 19 39  1  0  0  0  0
 21 22  1  0  0  0  0
 21 40  1  0  0  0  0
 21 41  1  0  0  0  0
 22 42  1  0  0  0  0
 22 43  1  0  0  0  0
M  CHG  1  16   1
M  END
> <s_m_source_file>
AV-unprocessed.smi

> <i_m_source_file_index>
1428

> <i_lp_mmshare_version>
43012

> <i_f3d_flags>
0

> <s_epik_input>
W0NIM11PYzFuW2NIXVtjSF1bY0hdYzFbTkhdQyg9TylbTkhdW0NIXTJbQ0gyXVtDSDJdTihbQ0gyXVtDSDJdMilbQ0gyXUMoPU8pW05IMl0=

> <s_epik_cmdline>
J2VwaWtfcHl0aG9uJywgJy1waCcsICc3LjAnLCAnLXRuJywgJzgnLCAnLW1hJywgJzIwMCcsICctbWV0YWxfYmluZGluZycsICctaW1hZScsICc8aW5maWxlLm1hZT4nLCAnLW9tYWUnLCAnPG91dGZpbGUubWFlPic=

> <r_lp_tautomer_probability>
1

> <r_epik_Ionization_Penalty>
0.838963

> <r_epik_Ionization_Penalty_Charging>
0.838844

> <r_epik_Ionization_Penalty_Neutral>
0.000119189

> <r_epik_State_Penalty>
0.8734

> <r_epik_Charging_Adjusted_Penalty>
1.71224

> <i_epik_Tot_Q>
1

> <i_epik_Tot_abs_Q>
1

> <r_epik_Metal_State_Penalty>
0.890706

> <b_epik_Metal_Only>
0

> <s_lp_Force_Field>
OPLS_2005

> <r_lp_Energy>
15.1646

> <b_lp_Chiralities_Consistent>
1

> <s_lp_Variant>
AV-unprocessed.smi:1428-2

> <Gold.Version>
5.8.1

> <Gold.Id.Protein>
6NUR|6NUR_protein|mol2

> <Gold.PLP.Fitness>
50.5499

> <Gold.PLP.PLP>
-34.8574

> <Gold.PLP.part.hbond>
-4.8764

> <Gold.PLP.part.metal>
0.0000

> <Gold.PLP.part.buried>
0.1073

> <Gold.PLP.part.nonpolar>
-35.5030

> <Gold.PLP.part.repulsive>
5.1472

> <Gold.PLP.ligand.clash>
0.0000

> <Gold.PLP.ligand.torsion>
0.0915

> <Gold.PLP.Chemscore.Hbond>
4.2828

> <Gold.PLP.Chemscore.CHOScore>
1.0000

> <Gold.PLP.Chemscore.Metal>
0.0000

> <Gold.Chemscore.Hbonds>
donor molecule, donor type, donor heavy atom, donor atom, acceptor molecule, acceptor atom, score
      L1  H     9    29       P1  7948  0.01
      L1  H    12    30       P1  7948  0.02
      L1  H    19    38       P1 10195  0.62
      L1  H    19    39       P1 10952  1.00
      P1  H  7918  7932       L1    20  0.01
      P1  H 10192 10197       L1    20  0.43
      L1  C     5    26       P1  8028  1.00

> <Gold.PLP.Chemscore.Internal.Correction>
0.0269

> <Gold.Rescore>
     Score         DG    S(hbond)    S(metal)    S(lipo)     H(rot)  DE(clash)    DE(int)     intcor
     12.84     -20.97       3.95        0.00      70.58       2.33       5.36       2.78       ----

> <Gold.Chemscore.Fitness>
12.8352

> <Gold.Chemscore.DG>
-20.9679

> <Gold.Chemscore.ZeroCoef>
-5.4800

> <Gold.Chemscore.Hbond>
3.9485

> <Gold.Chemscore.Metal>
0.0000

> <Gold.Chemscore.Lipo>
70.5755

> <Gold.Chemscore.Internal_Hbond>
0.0000

> <Gold.Chemscore.DEClash>
5.3550

> <Gold.Chemscore.DEInternal>
2.7777

> <Gold.Chemscore.Rot>
2.3271

> <Gold.Chemscore.Internal.Correction>
   9.000000E+99

> <Gold.Chemscore.Hbonds>
donor molecule, donor type, donor heavy atom, donor atom, acceptor molecule, acceptor atom, score
      L1  H     9    29       P1  7948  0.02
      L1  H    12    30       P1  7948  0.03
      L1  H    19    38       P1 10195  0.60
      L1  H    19    39       P1 10952  0.99
      P1  H  7918  7932       L1    20  0.06
      P1  H 10192 10197       L1    20  0.07

> <Gold.Chemscore.Hbond.Weighted>
-13.1879

> <Gold.Chemscore.Metal.Weighted>
-0.0000

> <Gold.Chemscore.Lipo.Weighted>
-8.2573

> <Gold.Chemscore.Internal_Hbond.Weighted>
0.0000

> <Gold.Chemscore.DEClash.Weighted>
5.3550

> <Gold.Chemscore.DEInternal.Weighted>
2.7777

> <Gold.Chemscore.Rot.Weighted>
5.9573

> <Gold.Chemscore.Internal.Correction.Weighted>
   9.000000E+99

> <Gold.Protein.RotatedTorsions>
[ 6907 6896 6895 6894 ] final  -45.22 input  -60.11 | X-H torsion
[ 7974 7965 7964 7962 ] final -164.47 input  175.53 | X-H torsion
[ 8008 7997 7996 7995 ] final  144.74 input   59.86 | X-H torsion
[ 10167 10162 10161 10158 ] final  -61.97 input  -65.29 | X-H torsion
[ 10718 10713 10712 10709 ] final -132.14 input   66.30 | X-H torsion
[ 10763 10752 10751 10750 ] final -153.45 input  -60.55 | X-H torsion
[ 11005 11000 10999 10996 ] final  130.49 input  -57.11 | X-H torsion

> <Gold.Protein.ActiveResidues>
 VAL166  LYS551  ARG553  GLY616  TRP617  ASP618  TYR619  PRO620  LYS621  CYS622 
 ASP623  PHE694  ASN695  SER759  ASP760  ASP761  ALA762  ILE779  LEU786  VAL792 
 PHE793  MET794  SER795  GLU796  ALA797  LYS798  CYS799  TRP800  GLU811  SER814 

> <Gold.Protein.RotatedAtoms>
  150.9243  134.8660  159.7509 H   0  0  0  0  0  0  0  0  0  0  0  0  # atno 6907 bound_to 6896
  152.5008  134.4171  159.9478 H   0  0  0  0  0  0  0  0  0  0  0  0  # atno 6908 bound_to 6896
  151.4203  133.3660  159.2790 H   0  0  0  0  0  0  0  0  0  0  0  0  # atno 6909 bound_to 6896
  144.7296  140.2956  143.6213 H   0  0  0  0  0  0  0  0  0  0  0  0  # atno 7974 bound_to 7965
  156.2901  140.2228  156.5102 H   0  0  0  0  0  0  0  0  0  0  0  0  # atno 8008 bound_to 7997
  154.7615  140.0473  157.0999 H   0  0  0  0  0  0  0  0  0  0  0  0  # atno 8009 bound_to 7997
  154.9985  140.3099  155.4880 H   0  0  0  0  0  0  0  0  0  0  0  0  # atno 8010 bound_to 7997
  140.5970  143.2353  151.6013 H   0  0  0  0  0  0  0  0  0  0  0  0  # atno 10167 bound_to 10162
  156.2315  130.7040  151.0863 H   0  0  0  0  0  0  0  0  0  0  0  0  # atno 10718 bound_to 10713
  154.7926  135.3212  154.7741 H   0  0  0  0  0  0  0  0  0  0  0  0  # atno 10763 bound_to 10752
  153.8426  135.6869  153.4805 H   0  0  0  0  0  0  0  0  0  0  0  0  # atno 10764 bound_to 10752
  153.1603  135.4663  154.9704 H   0  0  0  0  0  0  0  0  0  0  0  0  # atno 10765 bound_to 10752
  139.9675  134.9586  156.9301 H   0  0  0  0  0  0  0  0  0  0  0  0  # atno 11005 bound_to 11000
  145.7812  139.1892  143.2157 LP  0  0  0  0  0  0  0  0  0  0  0  0  # atno 17320 bound_to 7965
  146.0832  140.7740  142.9631 LP  0  0  0  0  0  0  0  0  0  0  0  0  # atno 17321 bound_to 7965
  139.5265  144.3044  152.1046 LP  0  0  0  0  0  0  0  0  0  0  0  0  # atno 17342 bound_to 10162
  140.2218  144.4458  150.6338 LP  0  0  0  0  0  0  0  0  0  0  0  0  # atno 17343 bound_to 10162
  157.7135  131.0722  150.6413 LP  0  0  0  0  0  0  0  0  0  0  0  0  # atno 17370 bound_to 10713
  156.6481  130.4477  149.5729 LP  0  0  0  0  0  0  0  0  0  0  0  0  # atno 17371 bound_to 10713
  140.5365  134.0762  155.7329 LP  0  0  0  0  0  0  0  0  0  0  0  0  # atno 17394 bound_to 11000
  141.1355  133.9229  157.2443 LP  0  0  0  0  0  0  0  0  0  0  0  0  # atno 17395 bound_to 11000

$$$$
