AV-unprocessed.smi:674|AV-procd|sdf|3302|dock8
  -GOLD-   22720 0263D 1   1.00000     0.00000
 Structure written by MMmdl.
 47 48  0  0  0  0  0  0  0  0  1 V2000
  144.9832  131.2303  151.3309 C   0  0  0  0  0  0  0  0  0  0  0  0
  143.9143  132.0535  150.6029 C   0  0  0  0  0  0  0  0  0  0  0  0
  143.8785  133.4783  151.0793 C   0  0  0  0  0  0  0  0  0  0  0  0
  144.8638  134.4894  150.8866 C   0  0  0  0  0  0  0  0  0  0  0  0
  144.3179  135.5697  151.5248 C   0  0  0  0  0  0  0  0  0  0  0  0
  144.8287  136.8216  151.6679 N   0  0  0  0  0  0  0  0  0  0  0  0
  145.9068  137.2147  152.3681 C   0  0  0  0  0  0  0  0  0  0  0  0
  146.6692  136.4705  152.9853 O   0  0  0  0  0  0  0  0  0  0  0  0
  146.0580  138.5451  152.3174 N   0  0  0  0  0  0  0  0  0  0  0  0
  147.1216  139.2793  152.9954 C   0  0  1  0  0  0  0  0  0  0  0  0
  147.0993  140.7738  152.6804 C   0  0  0  0  0  0  0  0  0  0  0  0
  147.4974  141.0143  154.1493 C   0  0  2  0  0  0  0  0  0  0  0  0
  146.9934  142.2716  154.8695 C   0  0  0  0  0  0  0  0  0  0  0  0
  148.9170  140.8794  154.3042 O   0  0  0  0  0  0  0  0  0  0  0  0
  149.4558  141.1017  155.6016 C   0  0  0  0  0  0  0  0  0  0  0  0
  146.8316  139.6378  154.4762 C   0  0  0  0  0  0  0  0  0  0  0  0
  145.3510  139.6886  154.8994 C   0  0  0  0  0  0  0  0  0  0  0  0
  147.5341  138.7704  155.5269 C   0  0  0  0  0  0  0  0  0  0  0  0
  143.1005  135.2027  152.0571 N   0  0  0  0  0  0  0  0  0  0  0  0
  142.1423  135.9772  152.8219 C   0  0  0  0  0  0  0  0  0  0  0  0
  142.8317  133.9103  151.7744 N   0  0  0  0  0  0  0  0  0  0  0  0
  144.9961  130.2026  150.9679 H   0  0  0  0  0  0  0  0  0  0  0  0
  144.7954  131.2012  152.4046 H   0  0  0  0  0  0  0  0  0  0  0  0
  145.9767  131.6516  151.1750 H   0  0  0  0  0  0  0  0  0  0  0  0
  144.1091  132.0281  149.5304 H   0  0  0  0  0  0  0  0  0  0  0  0
  142.9379  131.5881  150.7429 H   0  0  0  0  0  0  0  0  0  0  0  0
  145.8066  134.4114  150.3668 H   0  0  0  0  0  0  0  0  0  0  0  0
  144.3176  137.5507  151.1929 H   0  0  0  0  0  0  0  0  0  0  0  0
  145.3912  139.0870  151.7876 H   0  0  0  0  0  0  0  0  0  0  0  0
  148.1160  138.8512  152.8482 H   0  0  0  0  0  0  0  0  0  0  0  0
  147.8254  141.0828  151.9290 H   0  0  0  0  0  0  0  0  0  0  0  0
  146.1049  141.1562  152.4434 H   0  0  0  0  0  0  0  0  0  0  0  0
  145.9064  142.3395  154.8549 H   0  0  0  0  0  0  0  0  0  0  0  0
  147.3583  143.1848  154.4002 H   0  0  0  0  0  0  0  0  0  0  0  0
  147.3073  142.2820  155.9135 H   0  0  0  0  0  0  0  0  0  0  0  0
  150.5430  141.1285  155.5352 H   0  0  0  0  0  0  0  0  0  0  0  0
  149.1961  140.2948  156.2869 H   0  0  0  0  0  0  0  0  0  0  0  0
  149.1274  142.0470  156.0327 H   0  0  0  0  0  0  0  0  0  0  0  0
  145.2335  140.1317  155.8889 H   0  0  0  0  0  0  0  0  0  0  0  0
  144.9090  138.6926  154.9405 H   0  0  0  0  0  0  0  0  0  0  0  0
  144.7452  140.2763  154.2097 H   0  0  0  0  0  0  0  0  0  0  0  0
  147.5490  139.2592  156.5015 H   0  0  0  0  0  0  0  0  0  0  0  0
  148.5681  138.5573  155.2550 H   0  0  0  0  0  0  0  0  0  0  0  0
  147.0395  137.8063  155.6485 H   0  0  0  0  0  0  0  0  0  0  0  0
  142.5891  136.9097  153.1665 H   0  0  0  0  0  0  0  0  0  0  0  0
  141.8148  135.4057  153.6910 H   0  0  0  0  0  0  0  0  0  0  0  0
  141.2771  136.2064  152.1992 H   0  0  0  0  0  0  0  0  0  0  0  0
  1  2  1  0  0  0  0
  1 22  1  0  0  0  0
  1 23  1  0  0  0  0
  1 24  1  0  0  0  0
  2  3  1  0  0  0  0
  2 25  1  0  0  0  0
  2 26  1  0  0  0  0
  3 21  2  0  0  0  0
  3  4  1  0  0  0  0
  4  5  2  0  0  0  0
  4 27  1  0  0  0  0
  5  6  1  0  0  0  0
  5 19  1  0  0  0  0
  6  7  1  0  0  0  0
  6 28  1  0  0  0  0
  7  8  2  0  0  0  0
  7  9  1  0  0  0  0
  9 10  1  0  0  0  0
  9 29  1  0  0  0  0
 10 16  1  0  0  0  0
 10 11  1  0  0  0  0
 10 30  1  0  0  0  0
 11 12  1  0  0  0  0
 11 31  1  0  0  0  0
 11 32  1  0  0  0  0
 12 13  1  0  0  0  0
 12 14  1  0  0  0  0
 12 16  1  0  0  0  0
 13 33  1  0  0  0  0
 13 34  1  0  0  0  0
 13 35  1  0  0  0  0
 14 15  1  0  0  0  0
 15 36  1  0  0  0  0
 15 37  1  0  0  0  0
 15 38  1  0  0  0  0
 16 17  1  0  0  0  0
 16 18  1  0  0  0  0
 17 39  1  0  0  0  0
 17 40  1  0  0  0  0
 17 41  1  0  0  0  0
 18 42  1  0  0  0  0
 18 43  1  0  0  0  0
 18 44  1  0  0  0  0
 19 20  1  0  0  0  0
 19 21  1  0  0  0  0
 20 45  1  0  0  0  0
 20 46  1  0  0  0  0
 20 47  1  0  0  0  0
M  END
> <s_m_source_file>
AV-unprocessed.smi

> <i_m_source_file_index>
674

> <i_lp_mmshare_version>
43012

> <i_f3d_flags>
0

> <s_epik_input>
W0NIM11bQ0gyXWMxW2NIXWMobihuMSlbQ0gzXSlbTkhdQyg9TylbTkhdW0NAQEhdKEMyKFtDSDNdKVtDSDNdKVtDSDJdW0NAQF0yKFtDSDNdKU9bQ0gzXQ==

> <s_epik_cmdline>
J2VwaWtfcHl0aG9uJywgJy1waCcsICc3LjAnLCAnLXRuJywgJzgnLCAnLW1hJywgJzIwMCcsICctbWV0YWxfYmluZGluZycsICctaW1hZScsICc8aW5maWxlLm1hZT4nLCAnLW9tYWUnLCAnPG91dGZpbGUubWFlPic=

> <r_lp_tautomer_probability>
1

> <r_epik_Ionization_Penalty>
0.000101626

> <r_epik_Ionization_Penalty_Charging>
0

> <r_epik_Ionization_Penalty_Neutral>
0.000101626

> <r_epik_State_Penalty>
-0

> <r_epik_Charging_Adjusted_Penalty>
0

> <i_epik_Tot_Q>
0

> <i_epik_Tot_abs_Q>
0

> <r_epik_Metal_State_Penalty>
-0

> <b_epik_Metal_Only>
0

> <s_lp_Force_Field>
OPLS_2005

> <r_lp_Energy>
22.7899

> <b_lp_Chiralities_Consistent>
1

> <s_lp_Variant>
AV-unprocessed.smi:674-4

> <Gold.Version>
5.8.1

> <Gold.Id.Protein>
6NUR|6NUR_protein|mol2

> <Gold.PLP.Fitness>
36.1391

> <Gold.PLP.PLP>
-31.5131

> <Gold.PLP.part.hbond>
-3.6611

> <Gold.PLP.part.metal>
0.0000

> <Gold.PLP.part.buried>
-4.4100

> <Gold.PLP.part.nonpolar>
-29.3231

> <Gold.PLP.part.repulsive>
6.6652

> <Gold.PLP.ligand.clash>
0.0000

> <Gold.PLP.ligand.torsion>
1.1168

> <Gold.PLP.Chemscore.Hbond>
2.1596

> <Gold.PLP.Chemscore.CHOScore>
0.0000

> <Gold.PLP.Chemscore.Metal>
0.0000

> <Gold.Chemscore.Hbonds>
donor molecule, donor type, donor heavy atom, donor atom, acceptor molecule, acceptor atom, score
      L1  H     6    28       P1 10171  1.00
      L1  H     9    29       P1 10175  0.23

> <Gold.PLP.Chemscore.Internal.Correction>
0.3806

> <Gold.Rescore>
     Score         DG    S(hbond)    S(metal)    S(lipo)     H(rot)  DE(clash)    DE(int)     intcor
     13.35     -16.43       1.65        0.00      76.23       1.37       1.94       1.14       ----

> <Gold.Chemscore.Fitness>
13.3479

> <Gold.Chemscore.DG>
-16.4296

> <Gold.Chemscore.ZeroCoef>
-5.4800

> <Gold.Chemscore.Hbond>
1.6547

> <Gold.Chemscore.Metal>
0.0000

> <Gold.Chemscore.Lipo>
76.2322

> <Gold.Chemscore.Internal_Hbond>
0.0000

> <Gold.Chemscore.DEClash>
1.9381

> <Gold.Chemscore.DEInternal>
1.1435

> <Gold.Chemscore.Rot>
1.3658

> <Gold.Chemscore.Internal.Correction>
   9.000000E+99

> <Gold.Chemscore.Hbonds>
donor molecule, donor type, donor heavy atom, donor atom, acceptor molecule, acceptor atom, score
      L1  H     6    28       P1 10171  0.99
      L1  H     9    29       P1 10175  0.23

> <Gold.Chemscore.Hbond.Weighted>
-5.5267

> <Gold.Chemscore.Metal.Weighted>
-0.0000

> <Gold.Chemscore.Lipo.Weighted>
-8.9192

> <Gold.Chemscore.Internal_Hbond.Weighted>
0.0000

> <Gold.Chemscore.DEClash.Weighted>
1.9381

> <Gold.Chemscore.DEInternal.Weighted>
1.1435

> <Gold.Chemscore.Rot.Weighted>
3.4963

> <Gold.Chemscore.Internal.Correction.Weighted>
   9.000000E+99

> <Gold.Protein.RotatedTorsions>
[ 6907 6896 6895 6894 ] final   25.45 input  -60.11 | X-H torsion
[ 7974 7965 7964 7962 ] final  -19.80 input  175.53 | X-H torsion
[ 8008 7997 7996 7995 ] final  -50.29 input   59.86 | X-H torsion
[ 10167 10162 10161 10158 ] final  162.97 input  -65.29 | X-H torsion
[ 10718 10713 10712 10709 ] final -115.70 input   66.30 | X-H torsion
[ 10763 10752 10751 10750 ] final -140.02 input  -60.55 | X-H torsion
[ 11005 11000 10999 10996 ] final  -28.29 input  -57.11 | X-H torsion

> <Gold.Protein.ActiveResidues>
 VAL166  LYS551  ARG553  GLY616  TRP617  ASP618  TYR619  PRO620  LYS621  CYS622 
 ASP623  PHE694  ASN695  SER759  ASP760  ASP761  ALA762  ILE779  LEU786  VAL792 
 PHE793  MET794  SER795  GLU796  ALA797  LYS798  CYS799  TRP800  GLU811  SER814 

> <Gold.Protein.RotatedAtoms>
  151.9728  135.0068  160.0553 H   0  0  0  0  0  0  0  0  0  0  0  0  # atno 6907 bound_to 6896
  152.1768  133.4675  159.4945 H   0  0  0  0  0  0  0  0  0  0  0  0  # atno 6908 bound_to 6896
  150.6910  134.1801  159.4288 H   0  0  0  0  0  0  0  0  0  0  0  0  # atno 6909 bound_to 6896
  146.1822  140.4113  142.8490 H   0  0  0  0  0  0  0  0  0  0  0  0  # atno 7974 bound_to 7965
  154.4059  140.1276  156.4641 H   0  0  0  0  0  0  0  0  0  0  0  0  # atno 8008 bound_to 7997
  155.7244  140.3492  155.5011 H   0  0  0  0  0  0  0  0  0  0  0  0  # atno 8009 bound_to 7997
  155.9185  140.1048  157.1215 H   0  0  0  0  0  0  0  0  0  0  0  0  # atno 8010 bound_to 7997
  139.4867  144.4384  151.8983 H   0  0  0  0  0  0  0  0  0  0  0  0  # atno 10167 bound_to 10162
  156.0913  130.6095  150.8940 H   0  0  0  0  0  0  0  0  0  0  0  0  # atno 10718 bound_to 10713
  154.8591  135.3565  154.5640 H   0  0  0  0  0  0  0  0  0  0  0  0  # atno 10763 bound_to 10752
  153.6254  135.7004  153.5299 H   0  0  0  0  0  0  0  0  0  0  0  0  # atno 10764 bound_to 10752
  153.3094  135.4183  155.1282 H   0  0  0  0  0  0  0  0  0  0  0  0  # atno 10765 bound_to 10752
  140.9195  133.7408  156.0782 H   0  0  0  0  0  0  0  0  0  0  0  0  # atno 11005 bound_to 11000
  144.8335  140.6744  143.6276 LP  0  0  0  0  0  0  0  0  0  0  0  0  # atno 17320 bound_to 7965
  145.4043  139.1592  143.4160 LP  0  0  0  0  0  0  0  0  0  0  0  0  # atno 17321 bound_to 7965
  140.3835  144.2706  150.5906 LP  0  0  0  0  0  0  0  0  0  0  0  0  # atno 17342 bound_to 10162
  140.5212  143.2265  151.8386 LP  0  0  0  0  0  0  0  0  0  0  0  0  # atno 17343 bound_to 10162
  157.6063  131.0939  150.8873 LP  0  0  0  0  0  0  0  0  0  0  0  0  # atno 17370 bound_to 10713
  156.9021  130.5250  149.5282 LP  0  0  0  0  0  0  0  0  0  0  0  0  # atno 17371 bound_to 10713
  140.8006  134.3513  157.5440 LP  0  0  0  0  0  0  0  0  0  0  0  0  # atno 17394 bound_to 11000
  139.8772  134.9195  156.3229 LP  0  0  0  0  0  0  0  0  0  0  0  0  # atno 17395 bound_to 11000

$$$$
