AV-unprocessed.smi:3258|AV-procd|sdf|12468|dock7
  -GOLD-   2272018363D 1   1.00000     0.00000
 Structure written by MMmdl.
 38 39  0  0  0  0  0  0  0  0  1 V2000
  148.5241  131.5658  153.6911 C   0  0  0  0  0  0  0  0  0  0  0  0
  147.5290  132.7086  153.4308 C   0  0  2  0  0  0  0  0  0  0  0  0
  146.8702  132.6373  152.0357 C   0  0  0  0  0  0  0  0  0  0  0  0
  145.7087  133.5000  151.9189 N   0  0  0  0  0  0  0  0  0  0  0  0
  145.6735  134.8761  151.8427 C   0  0  0  0  0  0  0  0  0  0  0  0
  144.3623  135.2436  151.7417 C   0  0  0  0  0  0  0  0  0  0  0  0
  143.6616  134.0052  151.7625 C   0  0  0  0  0  0  0  0  0  0  0  0
  144.4703  132.9629  151.8667 N   0  0  0  0  0  0  0  0  0  0  0  0
  148.2146  133.9871  153.5974 N   0  0  0  0  0  0  0  0  0  0  0  0
  148.9696  134.3287  154.6511 C   0  0  0  0  0  0  0  0  0  0  0  0
  149.1798  133.5944  155.6165 O   0  0  0  0  0  0  0  0  0  0  0  0
  149.4598  135.5702  154.5285 N   0  0  0  0  0  0  0  0  0  0  0  0
  150.3064  136.2457  155.5066 C   0  0  0  0  0  0  0  0  0  0  0  0
  150.9316  137.5314  154.9333 C   0  0  2  0  0  0  0  0  0  0  0  0
  151.9342  138.1898  155.8592 C   0  0  0  0  0  0  0  0  0  0  0  0
  152.0207  139.6038  155.2893 C   0  0  0  0  0  0  0  0  0  0  0  0
  150.7589  139.8618  154.6791 O   0  0  0  0  0  0  0  0  0  0  0  0
  149.9556  138.6867  154.7060 C   0  0  0  0  0  0  0  0  0  0  0  0
  148.0325  130.5931  153.6652 H   0  0  0  0  0  0  0  0  0  0  0  0
  148.9885  131.6662  154.6727 H   0  0  0  0  0  0  0  0  0  0  0  0
  149.3195  131.5565  152.9452 H   0  0  0  0  0  0  0  0  0  0  0  0
  146.7462  132.6360  154.1884 H   0  0  0  0  0  0  0  0  0  0  0  0
  147.5819  132.9323  151.2635 H   0  0  0  0  0  0  0  0  0  0  0  0
  146.5746  131.6116  151.8079 H   0  0  0  0  0  0  0  0  0  0  0  0
  146.5744  135.4715  151.8678 H   0  0  0  0  0  0  0  0  0  0  0  0
  143.9646  136.2446  151.6643 H   0  0  0  0  0  0  0  0  0  0  0  0
  142.5970  133.8336  151.7041 H   0  0  0  0  0  0  0  0  0  0  0  0
  148.1009  134.6626  152.8557 H   0  0  0  0  0  0  0  0  0  0  0  0
  149.2266  136.0911  153.6957 H   0  0  0  0  0  0  0  0  0  0  0  0
  149.7504  136.4604  156.4210 H   0  0  0  0  0  0  0  0  0  0  0  0
  151.0984  135.5518  155.7892 H   0  0  0  0  0  0  0  0  0  0  0  0
  151.4316  137.3036  153.9903 H   0  0  0  0  0  0  0  0  0  0  0  0
  151.5456  138.2223  156.8783 H   0  0  0  0  0  0  0  0  0  0  0  0
  152.8988  137.6817  155.8789 H   0  0  0  0  0  0  0  0  0  0  0  0
  152.2501  140.3446  156.0557 H   0  0  0  0  0  0  0  0  0  0  0  0
  152.7937  139.6604  154.5224 H   0  0  0  0  0  0  0  0  0  0  0  0
  149.3794  138.5778  153.7869 H   0  0  0  0  0  0  0  0  0  0  0  0
  149.2540  138.7684  155.5374 H   0  0  0  0  0  0  0  0  0  0  0  0
  1  2  1  0  0  0  0
  1 19  1  0  0  0  0
  1 20  1  0  0  0  0
  1 21  1  0  0  0  0
  2  3  1  0  0  0  0
  2  9  1  0  0  0  0
  2 22  1  0  0  0  0
  3  4  1  0  0  0  0
  3 23  1  0  0  0  0
  3 24  1  0  0  0  0
  4  8  1  0  0  0  0
  4  5  1  0  0  0  0
  5  6  2  0  0  0  0
  5 25  1  0  0  0  0
  6  7  1  0  0  0  0
  6 26  1  0  0  0  0
  7  8  2  0  0  0  0
  7 27  1  0  0  0  0
  9 10  1  0  0  0  0
  9 28  1  0  0  0  0
 10 11  2  0  0  0  0
 10 12  1  0  0  0  0
 12 13  1  0  0  0  0
 12 29  1  0  0  0  0
 13 14  1  0  0  0  0
 13 30  1  0  0  0  0
 13 31  1  0  0  0  0
 14 18  1  0  0  0  0
 14 15  1  0  0  0  0
 14 32  1  0  0  0  0
 15 16  1  0  0  0  0
 15 33  1  0  0  0  0
 15 34  1  0  0  0  0
 16 17  1  0  0  0  0
 16 35  1  0  0  0  0
 16 36  1  0  0  0  0
 17 18  1  0  0  0  0
 18 37  1  0  0  0  0
 18 38  1  0  0  0  0
M  END
> <s_m_source_file>
AV-unprocessed.smi

> <i_m_source_file_index>
3258

> <i_lp_mmshare_version>
43012

> <i_f3d_flags>
0

> <s_epik_input>
bjFbY0hdW2NIXVtjSF1uMVtDSDJdW0NAQEhdKFtDSDNdKVtOSF1DKD1PKVtOSF1bQ0gyXVtDQEBIXTJbQ0gyXVtDSDJdT1tDSDJdMg==

> <s_epik_cmdline>
J2VwaWtfcHl0aG9uJywgJy1waCcsICc3LjAnLCAnLXRuJywgJzgnLCAnLW1hJywgJzIwMCcsICctbWV0YWxfYmluZGluZycsICctaW1hZScsICc8aW5maWxlLm1hZT4nLCAnLW9tYWUnLCAnPG91dGZpbGUubWFlPic=

> <r_lp_tautomer_probability>
1

> <r_epik_Ionization_Penalty>
6.85079e-05

> <r_epik_Ionization_Penalty_Charging>
0

> <r_epik_Ionization_Penalty_Neutral>
6.85079e-05

> <r_epik_State_Penalty>
-0

> <r_epik_Charging_Adjusted_Penalty>
0

> <i_epik_Tot_Q>
0

> <i_epik_Tot_abs_Q>
0

> <r_epik_Metal_State_Penalty>
-0

> <b_epik_Metal_Only>
0

> <s_lp_Force_Field>
OPLS_2005

> <r_lp_Energy>
16.0555

> <b_lp_Chiralities_Consistent>
1

> <s_lp_Variant>
AV-unprocessed.smi:3258-1

> <Gold.Version>
5.8.1

> <Gold.Id.Protein>
6NUR|6NUR_protein|mol2

> <Gold.PLP.Fitness>
46.6655

> <Gold.PLP.PLP>
-32.4064

> <Gold.PLP.part.hbond>
-3.0211

> <Gold.PLP.part.metal>
0.0000

> <Gold.PLP.part.buried>
-3.3646

> <Gold.PLP.part.nonpolar>
-26.4004

> <Gold.PLP.part.repulsive>
0.2584

> <Gold.PLP.ligand.clash>
0.0000

> <Gold.PLP.ligand.torsion>
0.3773

> <Gold.PLP.Chemscore.Hbond>
2.9920

> <Gold.PLP.Chemscore.CHOScore>
1.9981

> <Gold.PLP.Chemscore.Metal>
0.0000

> <Gold.Chemscore.Hbonds>
donor molecule, donor type, donor heavy atom, donor atom, acceptor molecule, acceptor atom, score
      L1  H     9    28       P1  7948  0.91
      L1  H    12    29       P1  7948  1.00
      P1  H  7989  7998       L1    17  0.35
      L1  C     5    25       P1  7948  1.00
      L1  C     7    27       P1 10186  0.43

> <Gold.PLP.Chemscore.Internal.Correction>
0.0434

> <Gold.Rescore>
     Score         DG    S(hbond)    S(metal)    S(lipo)     H(rot)  DE(clash)    DE(int)     intcor
     15.29     -15.56       2.45        0.00      57.21       1.87       0.00       0.27       ----

> <Gold.Chemscore.Fitness>
15.2934

> <Gold.Chemscore.DG>
-15.5614

> <Gold.Chemscore.ZeroCoef>
-5.4800

> <Gold.Chemscore.Hbond>
2.4494

> <Gold.Chemscore.Metal>
0.0000

> <Gold.Chemscore.Lipo>
57.2122

> <Gold.Chemscore.Internal_Hbond>
0.0000

> <Gold.Chemscore.DEClash>
0.0029

> <Gold.Chemscore.DEInternal>
0.2651

> <Gold.Chemscore.Rot>
1.8724

> <Gold.Chemscore.Internal.Correction>
   9.000000E+99

> <Gold.Chemscore.Hbonds>
donor molecule, donor type, donor heavy atom, donor atom, acceptor molecule, acceptor atom, score
      L1  H     9    28       P1  7948  0.59
      L1  H    12    29       P1  7948  0.81
      P1  H  7989  7998       L1    17  0.01

> <Gold.Chemscore.Hbond.Weighted>
-8.1809

> <Gold.Chemscore.Metal.Weighted>
-0.0000

> <Gold.Chemscore.Lipo.Weighted>
-6.6938

> <Gold.Chemscore.Internal_Hbond.Weighted>
0.0000

> <Gold.Chemscore.DEClash.Weighted>
0.0029

> <Gold.Chemscore.DEInternal.Weighted>
0.2651

> <Gold.Chemscore.Rot.Weighted>
4.7933

> <Gold.Chemscore.Internal.Correction.Weighted>
   9.000000E+99

> <Gold.Protein.RotatedTorsions>
[ 6907 6896 6895 6894 ] final  134.15 input  -60.11 | X-H torsion
[ 7974 7965 7964 7962 ] final  -35.13 input  175.53 | X-H torsion
[ 8008 7997 7996 7995 ] final  -33.69 input   59.86 | X-H torsion
[ 10167 10162 10161 10158 ] final   40.14 input  -65.29 | X-H torsion
[ 10718 10713 10712 10709 ] final   15.03 input   66.30 | X-H torsion
[ 10763 10752 10751 10750 ] final  108.84 input  -60.55 | X-H torsion
[ 11005 11000 10999 10996 ] final  -73.04 input  -57.11 | X-H torsion

> <Gold.Protein.ActiveResidues>
 VAL166  LYS551  ARG553  GLY616  TRP617  ASP618  TYR619  PRO620  LYS621  CYS622 
 ASP623  PHE694  ASN695  SER759  ASP760  ASP761  ALA762  ILE779  LEU786  VAL792 
 PHE793  MET794  SER795  GLU796  ALA797  LYS798  CYS799  TRP800  GLU811  SER814 

> <Gold.Protein.RotatedAtoms>
  152.3143  133.5786  159.5701 H   0  0  0  0  0  0  0  0  0  0  0  0  # atno 6907 bound_to 6896
  150.7339  134.0105  159.3677 H   0  0  0  0  0  0  0  0  0  0  0  0  # atno 6908 bound_to 6896
  151.7995  135.0713  160.0449 H   0  0  0  0  0  0  0  0  0  0  0  0  # atno 6909 bound_to 6896
  146.0772  140.6122  142.8925 H   0  0  0  0  0  0  0  0  0  0  0  0  # atno 7974 bound_to 7965
  154.4141  140.1704  156.1929 H   0  0  0  0  0  0  0  0  0  0  0  0  # atno 8008 bound_to 7997
  155.9588  140.3395  155.6448 H   0  0  0  0  0  0  0  0  0  0  0  0  # atno 8009 bound_to 7997
  155.6775  140.0719  157.2488 H   0  0  0  0  0  0  0  0  0  0  0  0  # atno 8010 bound_to 7997
  140.3770  144.2029  150.6131 H   0  0  0  0  0  0  0  0  0  0  0  0  # atno 10167 bound_to 10162
  157.0477  130.6257  149.5762 H   0  0  0  0  0  0  0  0  0  0  0  0  # atno 10718 bound_to 10713
  153.4263  135.3799  155.2142 H   0  0  0  0  0  0  0  0  0  0  0  0  # atno 10763 bound_to 10752
  154.8747  135.3829  154.4323 H   0  0  0  0  0  0  0  0  0  0  0  0  # atno 10764 bound_to 10752
  153.4849  135.7088  153.5979 H   0  0  0  0  0  0  0  0  0  0  0  0  # atno 10765 bound_to 10752
  141.1617  133.6865  156.7150 H   0  0  0  0  0  0  0  0  0  0  0  0  # atno 11005 bound_to 11000
  144.7269  140.4553  143.6966 LP  0  0  0  0  0  0  0  0  0  0  0  0  # atno 17320 bound_to 7965
  145.6284  139.1533  143.2983 LP  0  0  0  0  0  0  0  0  0  0  0  0  # atno 17321 bound_to 7965
  140.4975  143.2328  151.8727 LP  0  0  0  0  0  0  0  0  0  0  0  0  # atno 17342 bound_to 10162
  139.4798  144.5096  151.8950 LP  0  0  0  0  0  0  0  0  0  0  0  0  # atno 17343 bound_to 10162
  156.0017  130.5098  150.7688 LP  0  0  0  0  0  0  0  0  0  0  0  0  # atno 17370 bound_to 10713
  157.5055  131.0922  151.0263 LP  0  0  0  0  0  0  0  0  0  0  0  0  # atno 17371 bound_to 10713
  140.2858  134.8280  157.3974 LP  0  0  0  0  0  0  0  0  0  0  0  0  # atno 17394 bound_to 11000
  140.1391  134.4995  155.8045 LP  0  0  0  0  0  0  0  0  0  0  0  0  # atno 17395 bound_to 11000

$$$$
