AV-unprocessed.smi:743|AV-procd|sdf|3567|dock9
  -GOLD-   22720 0563D 1   1.00000     0.00000
 Structure written by MMmdl.
 28 29  0  0  0  0  0  0  0  0  1 V2000
  152.3213  138.7865  155.8787 C   0  0  0  0  0  0  0  0  0  0  0  0
  151.6661  140.0474  156.1524 N   0  0  0  0  0  0  0  0  0  0  0  0
  151.7537  140.8358  157.2787 C   0  0  0  0  0  0  0  0  0  0  0  0
  150.9628  141.9351  157.0795 C   0  0  0  0  0  0  0  0  0  0  0  0
  150.7002  143.1167  157.9936 C   0  0  1  0  0  0  0  0  0  0  0  0
  150.8352  142.7233  159.3989 N   0  0  0  0  0  0  0  0  0  0  0  0
  151.9111  142.9129  160.1863 C   0  0  0  0  0  0  0  0  0  0  0  0
  151.9659  142.4397  161.3188 O   0  0  0  0  0  0  0  0  0  0  0  0
  153.0737  143.7822  159.6767 C   0  0  0  0  0  0  0  0  0  0  0  0
  153.0424  144.0592  158.1629 C   0  0  0  0  0  0  0  0  0  0  0  0
  151.6094  144.3330  157.6896 C   0  0  1  0  0  0  0  0  0  0  0  0
  151.5893  144.7074  156.2869 N   0  0  0  0  0  0  0  0  0  0  0  0
  150.4240  141.7110  155.7791 C   0  0  0  0  0  0  0  0  0  0  0  0
  150.8452  140.5845  155.2282 N   0  0  0  0  0  0  0  0  0  0  0  0
  151.2313  145.1915  158.2465 H   0  0  0  0  0  0  0  0  0  0  0  0
  152.9647  138.5102  156.7145 H   0  0  0  0  0  0  0  0  0  0  0  0
  152.9295  138.8742  154.9780 H   0  0  0  0  0  0  0  0  0  0  0  0
  151.5740  138.0058  155.7332 H   0  0  0  0  0  0  0  0  0  0  0  0
  152.3699  140.5556  158.1204 H   0  0  0  0  0  0  0  0  0  0  0  0
  149.6657  143.4390  157.8698 H   0  0  0  0  0  0  0  0  0  0  0  0
  150.0725  142.1854  159.7848 H   0  0  0  0  0  0  0  0  0  0  0  0
  153.0233  144.7299  160.2138 H   0  0  0  0  0  0  0  0  0  0  0  0
  154.0225  143.3212  159.9523 H   0  0  0  0  0  0  0  0  0  0  0  0
  153.6830  144.9131  157.9398 H   0  0  0  0  0  0  0  0  0  0  0  0
  153.4663  143.2111  157.6232 H   0  0  0  0  0  0  0  0  0  0  0  0
  152.2776  144.1693  155.7801 H   0  0  0  0  0  0  0  0  0  0  0  0
  150.6907  144.4798  155.8858 H   0  0  0  0  0  0  0  0  0  0  0  0
  149.7421  142.3354  155.2211 H   0  0  0  0  0  0  0  0  0  0  0  0
  1  2  1  0  0  0  0
  1 16  1  0  0  0  0
  1 17  1  0  0  0  0
  1 18  1  0  0  0  0
  2 14  1  0  0  0  0
  2  3  1  0  0  0  0
  3  4  2  0  0  0  0
  3 19  1  0  0  0  0
  4  5  1  0  0  0  0
  4 13  1  0  0  0  0
  5 11  1  0  0  0  0
  5  6  1  0  0  0  0
  5 20  1  0  0  0  0
  6  7  1  0  0  0  0
  6 21  1  0  0  0  0
  7  8  2  0  0  0  0
  7  9  1  0  0  0  0
  9 10  1  0  0  0  0
  9 22  1  0  0  0  0
  9 23  1  0  0  0  0
 10 11  1  0  0  0  0
 10 24  1  0  0  0  0
 10 25  1  0  0  0  0
 11 15  1  0  0  0  0
 11 12  1  0  0  0  0
 12 26  1  0  0  0  0
 12 27  1  0  0  0  0
 13 14  2  0  0  0  0
 13 28  1  0  0  0  0
M  END
> <s_m_source_file>
AV-unprocessed.smi

> <i_m_source_file_index>
743

> <i_lp_mmshare_version>
43012

> <i_f3d_flags>
0

> <s_epik_input>
W0NIM11uMVtjSF1jKFtjSF1uMSlbQ0BASF0yW05IXUMoPU8pW0NIMl1bQ0gyXVtDQEBIXTJbTkgyXQ==

> <s_epik_cmdline>
J2VwaWtfcHl0aG9uJywgJy1waCcsICc3LjAnLCAnLXRuJywgJzgnLCAnLW1hJywgJzIwMCcsICctbWV0YWxfYmluZGluZycsICctaW1hZScsICc8aW5maWxlLm1hZT4nLCAnLW9tYWUnLCAnPG91dGZpbGUubWFlPic=

> <r_lp_tautomer_probability>
1

> <r_epik_Ionization_Penalty>
2.50279

> <r_epik_Ionization_Penalty_Charging>
0

> <r_epik_Ionization_Penalty_Neutral>
2.50279

> <r_epik_State_Penalty>
2.66754

> <r_epik_Charging_Adjusted_Penalty>
2.66754

> <i_epik_Tot_Q>
0

> <i_epik_Tot_abs_Q>
0

> <r_epik_Metal_State_Penalty>
2.66721

> <b_epik_Metal_Only>
0

> <s_lp_Force_Field>
OPLS_2005

> <r_lp_Energy>
9.07018

> <b_lp_Chiralities_Consistent>
1

> <s_lp_Variant>
AV-unprocessed.smi:743-8

> <Gold.Version>
5.8.1

> <Gold.Id.Protein>
6NUR|6NUR_protein|mol2

> <Gold.PLP.Fitness>
35.0552

> <Gold.PLP.PLP>
-26.7960

> <Gold.PLP.part.hbond>
-3.0000

> <Gold.PLP.part.metal>
0.0000

> <Gold.PLP.part.buried>
-1.0095

> <Gold.PLP.part.nonpolar>
-23.7217

> <Gold.PLP.part.repulsive>
0.4286

> <Gold.PLP.ligand.clash>
0.0000

> <Gold.PLP.ligand.torsion>
0.7157

> <Gold.PLP.Chemscore.Hbond>
2.2342

> <Gold.PLP.Chemscore.CHOScore>
0.9901

> <Gold.PLP.Chemscore.Metal>
0.0000

> <Gold.Chemscore.Hbonds>
donor molecule, donor type, donor heavy atom, donor atom, acceptor molecule, acceptor atom, score
      L1  H    12    27       P1  8028  1.00
      P1  H  6933  6945       L1     8  0.29
      P1  H  7989  7998       L1    14  0.94
      L1  C    13    28       P1  8028  0.91

> <Gold.PLP.Chemscore.Internal.Correction>
0.0179

> <Gold.Rescore>
     Score         DG    S(hbond)    S(metal)    S(lipo)     H(rot)  DE(clash)    DE(int)     intcor
     17.10     -19.57       2.31        0.00      76.31       1.00       1.91       0.57       ----

> <Gold.Chemscore.Fitness>
17.0951

> <Gold.Chemscore.DG>
-19.5741

> <Gold.Chemscore.ZeroCoef>
-5.4800

> <Gold.Chemscore.Hbond>
2.3130

> <Gold.Chemscore.Metal>
0.0000

> <Gold.Chemscore.Lipo>
76.3137

> <Gold.Chemscore.Internal_Hbond>
0.0000

> <Gold.Chemscore.DEClash>
1.9104

> <Gold.Chemscore.DEInternal>
0.5686

> <Gold.Chemscore.Rot>
1.0000

> <Gold.Chemscore.Internal.Correction>
   9.000000E+99

> <Gold.Chemscore.Hbonds>
donor molecule, donor type, donor heavy atom, donor atom, acceptor molecule, acceptor atom, score
      L1  H    12    27       P1  8028  0.96
      P1  H  6933  6945       L1     8  0.27
      P1  H  7989  7998       L1    14  0.67

> <Gold.Chemscore.Hbond.Weighted>
-7.7254

> <Gold.Chemscore.Metal.Weighted>
-0.0000

> <Gold.Chemscore.Lipo.Weighted>
-8.9287

> <Gold.Chemscore.Internal_Hbond.Weighted>
0.0000

> <Gold.Chemscore.DEClash.Weighted>
1.9104

> <Gold.Chemscore.DEInternal.Weighted>
0.5686

> <Gold.Chemscore.Rot.Weighted>
2.5600

> <Gold.Chemscore.Internal.Correction.Weighted>
   9.000000E+99

> <Gold.Protein.RotatedTorsions>
[ 6907 6896 6895 6894 ] final   54.56 input  -60.11 | X-H torsion
[ 7974 7965 7964 7962 ] final   26.18 input  175.53 | X-H torsion
[ 8008 7997 7996 7995 ] final  -93.75 input   59.86 | X-H torsion
[ 10167 10162 10161 10158 ] final   68.08 input  -65.29 | X-H torsion
[ 10718 10713 10712 10709 ] final   89.08 input   66.30 | X-H torsion
[ 10763 10752 10751 10750 ] final  -38.32 input  -60.55 | X-H torsion
[ 11005 11000 10999 10996 ] final -171.55 input  -57.11 | X-H torsion

> <Gold.Protein.ActiveResidues>
 VAL166  LYS551  ARG553  GLY616  TRP617  ASP618  TYR619  PRO620  LYS621  CYS622 
 ASP623  PHE694  ASN695  SER759  ASP760  ASP761  ALA762  ILE779  LEU786  VAL792 
 PHE793  MET794  SER795  GLU796  ALA797  LYS798  CYS799  TRP800  GLU811  SER814 

> <Gold.Protein.RotatedAtoms>
  152.3451  134.7081  160.0252 H   0  0  0  0  0  0  0  0  0  0  0  0  # atno 6907 bound_to 6896
  151.7454  133.3319  159.3385 H   0  0  0  0  0  0  0  0  0  0  0  0  # atno 6908 bound_to 6896
  150.7504  134.6173  159.6162 H   0  0  0  0  0  0  0  0  0  0  0  0  # atno 6909 bound_to 6896
  146.1851  139.7363  142.8873 H   0  0  0  0  0  0  0  0  0  0  0  0  # atno 7974 bound_to 7965
  154.7397  140.0496  157.0800 H   0  0  0  0  0  0  0  0  0  0  0  0  # atno 8008 bound_to 7997
  155.0195  140.3145  155.4780 H   0  0  0  0  0  0  0  0  0  0  0  0  # atno 8009 bound_to 7997
  156.2861  140.2169  156.5312 H   0  0  0  0  0  0  0  0  0  0  0  0  # atno 8010 bound_to 7997
  140.0826  144.5058  150.7152 H   0  0  0  0  0  0  0  0  0  0  0  0  # atno 10167 bound_to 10162
  157.6953  131.0319  150.3371 H   0  0  0  0  0  0  0  0  0  0  0  0  # atno 10718 bound_to 10713
  153.9108  135.6792  153.4751 H   0  0  0  0  0  0  0  0  0  0  0  0  # atno 10763 bound_to 10752
  153.1079  135.4797  154.8981 H   0  0  0  0  0  0  0  0  0  0  0  0  # atno 10764 bound_to 10752
  154.7528  135.3189  154.8481 H   0  0  0  0  0  0  0  0  0  0  0  0  # atno 10765 bound_to 10752
  140.5070  134.5838  157.5006 H   0  0  0  0  0  0  0  0  0  0  0  0  # atno 11005 bound_to 11000
  145.3964  141.0379  143.3095 LP  0  0  0  0  0  0  0  0  0  0  0  0  # atno 17320 bound_to 7965
  144.8382  139.5515  143.6912 LP  0  0  0  0  0  0  0  0  0  0  0  0  # atno 17321 bound_to 7965
  140.7070  143.2475  151.4696 LP  0  0  0  0  0  0  0  0  0  0  0  0  # atno 17342 bound_to 10162
  139.5771  144.1794  152.1918 LP  0  0  0  0  0  0  0  0  0  0  0  0  # atno 17343 bound_to 10162
  156.3837  130.3885  149.7082 LP  0  0  0  0  0  0  0  0  0  0  0  0  # atno 17370 bound_to 10713
  156.4455  130.7882  151.2903 LP  0  0  0  0  0  0  0  0  0  0  0  0  # atno 17371 bound_to 10713
  139.9680  134.7340  156.0098 LP  0  0  0  0  0  0  0  0  0  0  0  0  # atno 17394 bound_to 11000
  141.1406  133.6565  156.3718 LP  0  0  0  0  0  0  0  0  0  0  0  0  # atno 17395 bound_to 11000

$$$$
