AV-unprocessed.smi:1831|AV-procd|sdf|7458|dock10
  -GOLD-   22720 9153D 1   1.00000     0.00000
 Structure written by MMmdl.
 41 42  0  0  0  0  0  0  0  0  2 V2000
  151.5048  141.4392  156.4115 C   0  0  0  0  0  0  0  0  0  0  0  0
  151.3612  140.1399  155.6960 C   0  0  0  0  0  0  0  0  0  0  0  0
  152.2980  139.6671  154.8654 N   0  0  0  0  0  0  0  0  0  0  0  0
  151.9441  138.4432  154.3153 N   0  0  0  0  0  0  0  0  0  0  0  0
  150.7457  138.0283  154.7484 C   0  0  0  0  0  0  0  0  0  0  0  0
  150.1404  136.8082  154.3456 N   0  0  0  0  0  0  0  0  0  0  0  0
  150.1878  135.6132  154.9607 C   0  0  0  0  0  0  0  0  0  0  0  0
  150.7819  135.3759  156.0125 O   0  0  0  0  0  0  0  0  0  0  0  0
  149.4931  134.6889  154.2831 N   0  0  0  0  0  0  0  0  0  0  0  0
  149.3301  133.3038  154.7090 C   0  0  0  0  0  0  0  0  0  0  0  0
  148.8037  132.4251  153.5624 C   0  0  2  0  0  0  0  0  0  0  0  0
  147.2978  132.5413  153.3389 C   0  0  0  0  0  0  0  0  0  0  0  0
  146.8960  131.2173  152.6760 C   0  0  0  0  0  0  0  0  0  0  0  0
  148.0366  130.2804  152.8393 N   0  3  2  0  0  0  0  0  0  0  0  0
  147.6620  128.8742  153.1619 C   0  0  0  0  0  0  0  0  0  0  0  0
  148.9036  127.9797  153.3405 C   0  0  0  0  0  0  0  0  0  0  0  0
  146.7536  128.2780  152.0702 C   0  0  0  0  0  0  0  0  0  0  0  0
  148.9832  130.9220  153.7779 C   0  0  0  0  0  0  0  0  0  0  0  0
  149.9429  139.1132  155.8707 S   0  0  0  0  0  0  0  0  0  0  0  0
  152.5278  141.5637  156.7679 H   0  0  0  0  0  0  0  0  0  0  0  0
  150.8313  141.4771  157.2677 H   0  0  0  0  0  0  0  0  0  0  0  0
  151.2642  142.2627  155.7393 H   0  0  0  0  0  0  0  0  0  0  0  0
  149.6021  136.8543  153.4934 H   0  0  0  0  0  0  0  0  0  0  0  0
  149.0281  134.9678  153.4314 H   0  0  0  0  0  0  0  0  0  0  0  0
  150.2798  132.9071  155.0726 H   0  0  0  0  0  0  0  0  0  0  0  0
  148.6343  133.2785  155.5487 H   0  0  0  0  0  0  0  0  0  0  0  0
  149.3078  132.7042  152.6351 H   0  0  0  0  0  0  0  0  0  0  0  0
  146.7832  132.6362  154.2962 H   0  0  0  0  0  0  0  0  0  0  0  0
  147.0317  133.4095  152.7350 H   0  0  0  0  0  0  0  0  0  0  0  0
  145.9838  130.8373  153.1387 H   0  0  0  0  0  0  0  0  0  0  0  0
  146.6975  131.3522  151.6124 H   0  0  0  0  0  0  0  0  0  0  0  0
  147.1109  128.8773  154.1037 H   0  0  0  0  0  0  0  0  0  0  0  0
  148.6149  126.9452  153.5289 H   0  0  0  0  0  0  0  0  0  0  0  0
  149.5167  128.2925  154.1859 H   0  0  0  0  0  0  0  0  0  0  0  0
  149.5309  127.9884  152.4485 H   0  0  0  0  0  0  0  0  0  0  0  0
  146.5000  127.2418  152.2961 H   0  0  0  0  0  0  0  0  0  0  0  0
  147.2448  128.2913  151.0965 H   0  0  0  0  0  0  0  0  0  0  0  0
  145.8127  128.8199  151.9749 H   0  0  0  0  0  0  0  0  0  0  0  0
  150.0097  130.6019  153.5967 H   0  0  0  0  0  0  0  0  0  0  0  0
  148.7197  130.6565  154.8036 H   0  0  0  0  0  0  0  0  0  0  0  0
  148.5083  130.2613  151.9463 H   0  0  0  0  0  0  0  0  0  0  0  0
  1  2  1  0  0  0  0
  1 20  1  0  0  0  0
  1 21  1  0  0  0  0
  1 22  1  0  0  0  0
  2 19  1  0  0  0  0
  2  3  2  0  0  0  0
  3  4  1  0  0  0  0
  4  5  2  0  0  0  0
  5  6  1  0  0  0  0
  5 19  1  0  0  0  0
  6  7  1  0  0  0  0
  6 23  1  0  0  0  0
  7  8  2  0  0  0  0
  7  9  1  0  0  0  0
  9 10  1  0  0  0  0
  9 24  1  0  0  0  0
 10 11  1  0  0  0  0
 10 25  1  0  0  0  0
 10 26  1  0  0  0  0
 11 18  1  0  0  0  0
 11 12  1  0  0  0  0
 11 27  1  0  0  0  0
 12 13  1  0  0  0  0
 12 28  1  0  0  0  0
 12 29  1  0  0  0  0
 13 14  1  0  0  0  0
 13 30  1  0  0  0  0
 13 31  1  0  0  0  0
 14 15  1  0  0  0  0
 14 18  1  0  0  0  0
 14 41  1  0  0  0  0
 15 16  1  0  0  0  0
 15 17  1  0  0  0  0
 15 32  1  0  0  0  0
 16 33  1  0  0  0  0
 16 34  1  0  0  0  0
 16 35  1  0  0  0  0
 17 36  1  0  0  0  0
 17 37  1  0  0  0  0
 17 38  1  0  0  0  0
 18 39  1  0  0  0  0
 18 40  1  0  0  0  0
M  CHG  1  14   1
M  END
> <s_m_source_file>
AV-unprocessed.smi

> <i_m_source_file_index>
1831

> <i_lp_mmshare_version>
43012

> <i_f3d_flags>
0

> <s_epik_input>
W0NIM11jMW5uYyhzMSlbTkhdQyg9TylbTkhdW0NIMl1bQ0BASF0yW0NIMl1bQ0gyXU4oW0NIMl0yKVtDSF0oW0NIM10pW0NIM10=

> <s_epik_cmdline>
J2VwaWtfcHl0aG9uJywgJy1waCcsICc3LjAnLCAnLXRuJywgJzgnLCAnLW1hJywgJzIwMCcsICctbWV0YWxfYmluZGluZycsICctaW1hZScsICc8aW5maWxlLm1hZT4nLCAnLW9tYWUnLCAnPG91dGZpbGUubWFlPic=

> <r_lp_tautomer_probability>
1

> <r_epik_Ionization_Penalty>
0.00080807

> <r_epik_Ionization_Penalty_Charging>
0.000218981

> <r_epik_Ionization_Penalty_Neutral>
0.00058909

> <r_epik_State_Penalty>
-0

> <r_epik_Charging_Adjusted_Penalty>
0.000218981

> <i_epik_Tot_Q>
1

> <i_epik_Tot_abs_Q>
1

> <r_epik_Metal_State_Penalty>
0.236062

> <b_epik_Metal_Only>
0

> <s_lp_Force_Field>
OPLS_2005

> <r_lp_Energy>
30.7631

> <b_lp_Chiralities_Consistent>
1

> <s_lp_Variant>
AV-unprocessed.smi:1831-3

> <Gold.Version>
5.8.1

> <Gold.Id.Protein>
6NUR|6NUR_protein|mol2

> <Gold.PLP.Fitness>
41.6558

> <Gold.PLP.PLP>
-32.1303

> <Gold.PLP.part.hbond>
-4.1431

> <Gold.PLP.part.metal>
0.0000

> <Gold.PLP.part.buried>
-4.4282

> <Gold.PLP.part.nonpolar>
-24.1114

> <Gold.PLP.part.repulsive>
0.2822

> <Gold.PLP.ligand.clash>
0.0000

> <Gold.PLP.ligand.torsion>
1.0129

> <Gold.PLP.Chemscore.Hbond>
3.8400

> <Gold.PLP.Chemscore.CHOScore>
0.0000

> <Gold.PLP.Chemscore.Metal>
0.0000

> <Gold.Chemscore.Hbonds>
donor molecule, donor type, donor heavy atom, donor atom, acceptor molecule, acceptor atom, score
      L1  H     6    23       P1  7948  1.00
      L1  H     9    24       P1  7948  0.94
      L1  H    14    41       P1 10747  1.00
      P1  H  7989  7998       L1     3  0.37

> <Gold.PLP.Chemscore.Internal.Correction>
0.0314

> <Gold.Rescore>
     Score         DG    S(hbond)    S(metal)    S(lipo)     H(rot)  DE(clash)    DE(int)     intcor
     18.08     -19.25       2.92        0.00      67.94       1.54       0.07       1.10       ----

> <Gold.Chemscore.Fitness>
18.0768

> <Gold.Chemscore.DG>
-19.2507

> <Gold.Chemscore.ZeroCoef>
-5.4800

> <Gold.Chemscore.Hbond>
2.9230

> <Gold.Chemscore.Metal>
0.0000

> <Gold.Chemscore.Lipo>
67.9423

> <Gold.Chemscore.Internal_Hbond>
0.0000

> <Gold.Chemscore.DEClash>
0.0726

> <Gold.Chemscore.DEInternal>
1.1012

> <Gold.Chemscore.Rot>
1.5396

> <Gold.Chemscore.Internal.Correction>
   9.000000E+99

> <Gold.Chemscore.Hbonds>
donor molecule, donor type, donor heavy atom, donor atom, acceptor molecule, acceptor atom, score
      L1  H     6    23       P1  7948  0.73
      L1  H     9    24       P1  7948  0.23
      L1  H    14    41       P1 10747  0.69
      P1  H  7997  8008       L1     3  0.02

> <Gold.Chemscore.Hbond.Weighted>
-9.7627

> <Gold.Chemscore.Metal.Weighted>
-0.0000

> <Gold.Chemscore.Lipo.Weighted>
-7.9493

> <Gold.Chemscore.Internal_Hbond.Weighted>
0.0000

> <Gold.Chemscore.DEClash.Weighted>
0.0726

> <Gold.Chemscore.DEInternal.Weighted>
1.1012

> <Gold.Chemscore.Rot.Weighted>
3.9413

> <Gold.Chemscore.Internal.Correction.Weighted>
   9.000000E+99

> <Gold.Protein.RotatedTorsions>
[ 6907 6896 6895 6894 ] final -120.85 input  -60.11 | X-H torsion
[ 7974 7965 7964 7962 ] final    8.64 input  175.53 | X-H torsion
[ 8008 7997 7996 7995 ] final  -26.96 input   59.86 | X-H torsion
[ 10167 10162 10161 10158 ] final -151.26 input  -65.29 | X-H torsion
[ 10718 10713 10712 10709 ] final  162.90 input   66.30 | X-H torsion
[ 10763 10752 10751 10750 ] final -170.48 input  -60.55 | X-H torsion
[ 11005 11000 10999 10996 ] final   49.77 input  -57.11 | X-H torsion

> <Gold.Protein.ActiveResidues>
 VAL166  LYS551  ARG553  GLY616  TRP617  ASP618  TYR619  PRO620  LYS621  CYS622 
 ASP623  PHE694  ASN695  SER759  ASP760  ASP761  ALA762  ILE779  LEU786  VAL792 
 PHE793  MET794  SER795  GLU796  ALA797  LYS798  CYS799  TRP800  GLU811  SER814 

> <Gold.Protein.RotatedAtoms>
  150.8430  133.7906  159.3053 H   0  0  0  0  0  0  0  0  0  0  0  0  # atno 6907 bound_to 6896
  151.5601  135.1064  159.9980 H   0  0  0  0  0  0  0  0  0  0  0  0  # atno 6908 bound_to 6896
  152.4490  133.7549  159.6771 H   0  0  0  0  0  0  0  0  0  0  0  0  # atno 6909 bound_to 6896
  146.2414  139.9902  142.8426 H   0  0  0  0  0  0  0  0  0  0  0  0  # atno 7974 bound_to 7965
  154.4400  140.1885  156.0857 H   0  0  0  0  0  0  0  0  0  0  0  0  # atno 8008 bound_to 7997
  156.0404  140.3320  155.7211 H   0  0  0  0  0  0  0  0  0  0  0  0  # atno 8009 bound_to 7997
  155.5708  140.0612  157.2798 H   0  0  0  0  0  0  0  0  0  0  0  0  # atno 8010 bound_to 7997
  139.7282  143.8849  152.2526 H   0  0  0  0  0  0  0  0  0  0  0  0  # atno 10167 bound_to 10162
  157.1160  131.0480  151.2436 H   0  0  0  0  0  0  0  0  0  0  0  0  # atno 10718 bound_to 10713
  154.6410  135.2898  155.0103 H   0  0  0  0  0  0  0  0  0  0  0  0  # atno 10763 bound_to 10752
  154.1230  135.6545  153.4910 H   0  0  0  0  0  0  0  0  0  0  0  0  # atno 10764 bound_to 10752
  153.0326  135.5292  154.7277 H   0  0  0  0  0  0  0  0  0  0  0  0  # atno 10765 bound_to 10752
  140.1074  134.5000  155.8707 H   0  0  0  0  0  0  0  0  0  0  0  0  # atno 11005 bound_to 11000
  145.1510  140.9623  143.4433 LP  0  0  0  0  0  0  0  0  0  0  0  0  # atno 17320 bound_to 7965
  145.0205  139.3428  143.6074 LP  0  0  0  0  0  0  0  0  0  0  0  0  # atno 17321 bound_to 7965
  139.8765  144.7041  150.8927 LP  0  0  0  0  0  0  0  0  0  0  0  0  # atno 17342 bound_to 10162
  140.7766  143.3696  151.1675 LP  0  0  0  0  0  0  0  0  0  0  0  0  # atno 17343 bound_to 10162
  157.4518  130.7602  149.7157 LP  0  0  0  0  0  0  0  0  0  0  0  0  # atno 17370 bound_to 10713
  155.9839  130.3996  150.3338 LP  0  0  0  0  0  0  0  0  0  0  0  0  # atno 17371 bound_to 10713
  141.2122  133.6716  156.6639 LP  0  0  0  0  0  0  0  0  0  0  0  0  # atno 17394 bound_to 11000
  140.3137  134.8065  157.4196 LP  0  0  0  0  0  0  0  0  0  0  0  0  # atno 17395 bound_to 11000

$$$$
