AV-unprocessed.smi:1875|AV-procd|sdf|7614|dock4
  -GOLD-   22720 9333D 1   1.00000     0.00000
 Structure written by MMmdl.
 47 49  0  0  0  0  0  0  0  0  1 V2000
  143.4712  146.1228  157.3188 C   0  0  0  0  0  0  0  0  0  0  0  0
  144.0405  145.3857  156.1242 C   0  0  0  0  0  0  0  0  0  0  0  0
  143.8134  145.9171  154.9187 N   0  0  0  0  0  0  0  0  0  0  0  0
  144.3224  145.2576  153.8552 C   0  0  0  0  0  0  0  0  0  0  0  0
  145.0599  144.0656  154.0041 C   0  0  0  0  0  0  0  0  0  0  0  0
  145.2339  143.6019  155.3254 C   0  0  0  0  0  0  0  0  0  0  0  0
  146.0026  142.3292  155.6190 C   0  0  0  0  0  0  0  0  0  0  0  0
  147.3642  142.3762  155.0961 N   0  0  0  0  0  0  0  0  0  0  0  0
  148.1404  141.1789  155.4066 C   0  0  0  0  0  0  0  0  0  0  0  0
  149.5114  141.2030  154.7107 C   0  0  2  0  0  0  0  0  0  0  0  0
  149.3022  141.3044  153.3157 O   0  0  0  0  0  0  0  0  0  0  0  0
  150.3184  139.9231  155.0025 C   0  0  0  0  0  0  0  0  0  0  0  0
  150.8447  139.8913  156.3556 N   0  0  0  0  0  0  0  0  0  0  0  0
  151.0399  138.8057  157.1289 C   0  0  0  0  0  0  0  0  0  0  0  0
  151.5325  139.0072  158.3478 N   0  0  0  0  0  0  0  0  0  0  0  0
  151.6742  140.3842  158.3670 C   0  0  0  0  0  0  0  0  0  0  0  0
  152.1506  141.2431  159.3816 C   0  0  0  0  0  0  0  0  0  0  0  0
  152.2064  142.6407  159.1811 C   0  0  0  0  0  0  0  0  0  0  0  0
  152.7222  143.5272  160.3010 C   0  0  0  0  0  0  0  0  0  0  0  0
  151.7834  143.1993  157.9480 C   0  0  0  0  0  0  0  0  0  0  0  0
  151.8347  144.6981  157.7102 C   0  0  0  0  0  0  0  0  0  0  0  0
  151.3060  142.3557  156.9231 C   0  0  0  0  0  0  0  0  0  0  0  0
  151.2531  140.9667  157.1359 C   0  0  0  0  0  0  0  0  0  0  0  0
  144.7216  144.2660  156.3853 N   0  0  0  0  0  0  0  0  0  0  0  0
  142.9427  147.0277  157.0161 H   0  0  0  0  0  0  0  0  0  0  0  0
  144.2706  146.4099  158.0024 H   0  0  0  0  0  0  0  0  0  0  0  0
  142.7707  145.4849  157.8584 H   0  0  0  0  0  0  0  0  0  0  0  0
  144.1411  145.6836  152.8795 H   0  0  0  0  0  0  0  0  0  0  0  0
  145.4669  143.5399  153.1532 H   0  0  0  0  0  0  0  0  0  0  0  0
  146.0190  142.1782  156.6991 H   0  0  0  0  0  0  0  0  0  0  0  0
  145.4666  141.4797  155.1930 H   0  0  0  0  0  0  0  0  0  0  0  0
  147.8394  143.1908  155.4714 H   0  0  0  0  0  0  0  0  0  0  0  0
  148.2945  141.1316  156.4855 H   0  0  0  0  0  0  0  0  0  0  0  0
  147.5892  140.2774  155.1348 H   0  0  0  0  0  0  0  0  0  0  0  0
  150.0845  142.0688  155.0462 H   0  0  0  0  0  0  0  0  0  0  0  0
  148.3714  141.3549  153.1578 H   0  0  0  0  0  0  0  0  0  0  0  0
  149.6905  139.0422  154.8642 H   0  0  0  0  0  0  0  0  0  0  0  0
  151.1489  139.8258  154.3015 H   0  0  0  0  0  0  0  0  0  0  0  0
  150.8084  137.8111  156.7763 H   0  0  0  0  0  0  0  0  0  0  0  0
  152.4732  140.8169  160.3201 H   0  0  0  0  0  0  0  0  0  0  0  0
  151.9595  144.2458  160.6015 H   0  0  0  0  0  0  0  0  0  0  0  0
  153.6075  144.0755  159.9782 H   0  0  0  0  0  0  0  0  0  0  0  0
  152.9935  142.9413  161.1798 H   0  0  0  0  0  0  0  0  0  0  0  0
  151.4883  144.9542  156.7086 H   0  0  0  0  0  0  0  0  0  0  0  0
  152.8551  145.0670  157.8156 H   0  0  0  0  0  0  0  0  0  0  0  0
  151.2009  145.2202  158.4274 H   0  0  0  0  0  0  0  0  0  0  0  0
  150.9802  142.7668  155.9792 H   0  0  0  0  0  0  0  0  0  0  0  0
  1  2  1  0  0  0  0
  1 25  1  0  0  0  0
  1 26  1  0  0  0  0
  1 27  1  0  0  0  0
  2 24  1  0  0  0  0
  2  3  2  0  0  0  0
  3  4  1  0  0  0  0
  4  5  2  0  0  0  0
  4 28  1  0  0  0  0
  5  6  1  0  0  0  0
  5 29  1  0  0  0  0
  6  7  1  0  0  0  0
  6 24  2  0  0  0  0
  7  8  1  0  0  0  0
  7 30  1  0  0  0  0
  7 31  1  0  0  0  0
  8  9  1  0  0  0  0
  8 32  1  0  0  0  0
  9 10  1  0  0  0  0
  9 33  1  0  0  0  0
  9 34  1  0  0  0  0
 10 11  1  0  0  0  0
 10 12  1  0  0  0  0
 10 35  1  0  0  0  0
 11 36  1  0  0  0  0
 12 13  1  0  0  0  0
 12 37  1  0  0  0  0
 12 38  1  0  0  0  0
 13 23  1  0  0  0  0
 13 14  1  0  0  0  0
 14 15  2  0  0  0  0
 14 39  1  0  0  0  0
 15 16  1  0  0  0  0
 16 23  2  0  0  0  0
 16 17  1  0  0  0  0
 17 18  2  0  0  0  0
 17 40  1  0  0  0  0
 18 19  1  0  0  0  0
 18 20  1  0  0  0  0
 19 41  1  0  0  0  0
 19 42  1  0  0  0  0
 19 43  1  0  0  0  0
 20 21  1  0  0  0  0
 20 22  2  0  0  0  0
 21 44  1  0  0  0  0
 21 45  1  0  0  0  0
 21 46  1  0  0  0  0
 22 23  1  0  0  0  0
 22 47  1  0  0  0  0
M  END
> <s_m_source_file>
AV-unprocessed.smi

> <i_m_source_file_index>
1875

> <i_lp_mmshare_version>
43012

> <i_f3d_flags>
0

> <s_epik_input>
W0NIM11jMW5bY0hdW2NIXWMobjEpW0NIMl1bTkhdW0NIMl1bQ0BIXShbT0hdKVtDSDJdbihbY0hdbjIpYyhjMjMpW2NIXWMoW0NIM10pYyhbY0hdMylbQ0gzXQ==

> <s_epik_cmdline>
J2VwaWtfcHl0aG9uJywgJy1waCcsICc3LjAnLCAnLXRuJywgJzgnLCAnLW1hJywgJzIwMCcsICctbWV0YWxfYmluZGluZycsICctaW1hZScsICc8aW5maWxlLm1hZT4nLCAnLW9tYWUnLCAnPG91dGZpbGUubWFlPic=

> <r_lp_tautomer_probability>
1

> <r_epik_Ionization_Penalty>
1.21192

> <r_epik_Ionization_Penalty_Charging>
0

> <r_epik_Ionization_Penalty_Neutral>
1.21192

> <r_epik_State_Penalty>
1.26105

> <r_epik_Charging_Adjusted_Penalty>
1.26105

> <i_epik_Tot_Q>
0

> <i_epik_Tot_abs_Q>
0

> <r_epik_Metal_State_Penalty>
1.2224

> <b_epik_Metal_Only>
0

> <s_epik_Chemistry_Notes>
This compound contains an electron-poor aromatic ring that is susceptible to covalent hydrolysis at low pH, typically resulting in measured values for nitrogen ring protonation that are around two units higher than predicted values.

> <s_lp_Force_Field>
OPLS_2005

> <r_lp_Energy>
12.1971

> <b_lp_Chiralities_Consistent>
1

> <s_lp_Variant>
AV-unprocessed.smi:1875-3

> <Gold.Version>
5.8.1

> <Gold.Id.Protein>
6NUR|6NUR_protein|mol2

> <Gold.PLP.Fitness>
52.6763

> <Gold.PLP.PLP>
-47.5233

> <Gold.PLP.part.hbond>
-3.8401

> <Gold.PLP.part.metal>
0.0000

> <Gold.PLP.part.buried>
-6.2733

> <Gold.PLP.part.nonpolar>
-37.5035

> <Gold.PLP.part.repulsive>
0.1444

> <Gold.PLP.ligand.clash>
0.0000

> <Gold.PLP.ligand.torsion>
0.4799

> <Gold.PLP.Chemscore.Hbond>
2.0000

> <Gold.PLP.Chemscore.CHOScore>
0.0000

> <Gold.PLP.Chemscore.Metal>
0.0000

> <Gold.Chemscore.Hbonds>
donor molecule, donor type, donor heavy atom, donor atom, acceptor molecule, acceptor atom, score
      L1  H     8    32       P1  8028  1.00
      P1  H  8011  8017       L1    11  1.00

> <Gold.PLP.Chemscore.Internal.Correction>
0.1128

> <Gold.Rescore>
     Score         DG    S(hbond)    S(metal)    S(lipo)     H(rot)  DE(clash)    DE(int)     intcor
     15.26     -15.78       1.10        0.00     116.03       2.72       0.06       0.46       ----

> <Gold.Chemscore.Fitness>
15.2560

> <Gold.Chemscore.DG>
-15.7753

> <Gold.Chemscore.ZeroCoef>
-5.4800

> <Gold.Chemscore.Hbond>
1.1049

> <Gold.Chemscore.Metal>
0.0000

> <Gold.Chemscore.Lipo>
116.0270

> <Gold.Chemscore.Internal_Hbond>
0.0000

> <Gold.Chemscore.DEClash>
0.0580

> <Gold.Chemscore.DEInternal>
0.4613

> <Gold.Chemscore.Rot>
2.7228

> <Gold.Chemscore.Internal.Correction>
   9.000000E+99

> <Gold.Chemscore.Hbonds>
donor molecule, donor type, donor heavy atom, donor atom, acceptor molecule, acceptor atom, score
      L1  H     8    32       P1  8028  0.55
      P1  H  8011  8017       L1    11  0.24

> <Gold.Chemscore.Hbond.Weighted>
-3.6904

> <Gold.Chemscore.Metal.Weighted>
-0.0000

> <Gold.Chemscore.Lipo.Weighted>
-13.5752

> <Gold.Chemscore.Internal_Hbond.Weighted>
0.0000

> <Gold.Chemscore.DEClash.Weighted>
0.0580

> <Gold.Chemscore.DEInternal.Weighted>
0.4613

> <Gold.Chemscore.Rot.Weighted>
6.9702

> <Gold.Chemscore.Internal.Correction.Weighted>
   9.000000E+99

> <Gold.Protein.RotatedTorsions>
[ 6907 6896 6895 6894 ] final   90.75 input  -60.11 | X-H torsion
[ 7974 7965 7964 7962 ] final  112.69 input  175.53 | X-H torsion
[ 8008 7997 7996 7995 ] final -170.45 input   59.86 | X-H torsion
[ 10167 10162 10161 10158 ] final  124.09 input  -65.29 | X-H torsion
[ 10718 10713 10712 10709 ] final -152.87 input   66.30 | X-H torsion
[ 10763 10752 10751 10750 ] final -160.82 input  -60.55 | X-H torsion
[ 11005 11000 10999 10996 ] final  166.95 input  -57.11 | X-H torsion

> <Gold.Protein.ActiveResidues>
 VAL166  LYS551  ARG553  GLY616  TRP617  ASP618  TYR619  PRO620  LYS621  CYS622 
 ASP623  PHE694  ASN695  SER759  ASP760  ASP761  ALA762  ILE779  LEU786  VAL792 
 PHE793  MET794  SER795  GLU796  ALA797  LYS798  CYS799  TRP800  GLU811  SER814 

> <Gold.Protein.RotatedAtoms>
  152.5446  134.1763  159.8617 H   0  0  0  0  0  0  0  0  0  0  0  0  # atno 6907 bound_to 6896
  151.1769  133.4742  159.2601 H   0  0  0  0  0  0  0  0  0  0  0  0  # atno 6908 bound_to 6896
  151.1218  135.0095  159.8597 H   0  0  0  0  0  0  0  0  0  0  0  0  # atno 6909 bound_to 6896
  145.2264  139.2839  143.4191 H   0  0  0  0  0  0  0  0  0  0  0  0  # atno 7974 bound_to 7965
  155.9185  140.1070  157.1225 H   0  0  0  0  0  0  0  0  0  0  0  0  # atno 8008 bound_to 7997
  154.4050  140.1260  156.4713 H   0  0  0  0  0  0  0  0  0  0  0  0  # atno 8009 bound_to 7997
  155.7225  140.3469  155.5024 H   0  0  0  0  0  0  0  0  0  0  0  0  # atno 8010 bound_to 7997
  139.5762  144.6964  151.3648 H   0  0  0  0  0  0  0  0  0  0  0  0  # atno 10167 bound_to 10162
  156.4782  130.8291  151.2518 H   0  0  0  0  0  0  0  0  0  0  0  0  # atno 10718 bound_to 10713
  154.7357  135.3057  154.8815 H   0  0  0  0  0  0  0  0  0  0  0  0  # atno 10763 bound_to 10752
  153.9644  135.6749  153.4750 H   0  0  0  0  0  0  0  0  0  0  0  0  # atno 10764 bound_to 10752
  153.0960  135.4935  154.8703 H   0  0  0  0  0  0  0  0  0  0  0  0  # atno 10765 bound_to 10752
  140.2717  134.7821  157.3681 H   0  0  0  0  0  0  0  0  0  0  0  0  # atno 11005 bound_to 11000
  146.3363  140.2586  142.8601 LP  0  0  0  0  0  0  0  0  0  0  0  0  # atno 17320 bound_to 7965
  144.9717  140.8375  143.5451 LP  0  0  0  0  0  0  0  0  0  0  0  0  # atno 17321 bound_to 7965
  140.7044  143.7551  150.7457 LP  0  0  0  0  0  0  0  0  0  0  0  0  # atno 17342 bound_to 10162
  140.1071  143.4733  152.2392 LP  0  0  0  0  0  0  0  0  0  0  0  0  # atno 17343 bound_to 10162
  157.7485  131.0053  150.3111 LP  0  0  0  0  0  0  0  0  0  0  0  0  # atno 17370 bound_to 10713
  156.3548  130.3837  149.7299 LP  0  0  0  0  0  0  0  0  0  0  0  0  # atno 17371 bound_to 10713
  140.1367  134.5025  155.8063 LP  0  0  0  0  0  0  0  0  0  0  0  0  # atno 17394 bound_to 11000
  141.2176  133.6810  156.7136 LP  0  0  0  0  0  0  0  0  0  0  0  0  # atno 17395 bound_to 11000

$$$$
