AV-unprocessed.smi:2889|AV-procd|sdf|11108|dock3
  -GOLD-   2272015573D 1   1.00000     0.00000
 Structure written by MMmdl.
 36 37  0  0  0  0  0  0  0  0  1 V2000
  151.5354  144.5705  158.6395 C   0  0  0  0  0  0  0  0  0  0  0  0
  152.4933  143.0313  158.5903 S   0  0  0  0  0  0  0  0  0  0  0  0
  152.5051  142.5640  160.3510 C   0  0  2  0  0  0  0  0  0  0  0  0
  152.4264  143.8342  161.2192 C   0  0  0  0  0  0  0  0  0  0  0  0
  152.4790  143.5087  162.7190 C   0  0  0  0  0  0  0  0  0  0  0  0
  153.7432  142.7088  163.0625 C   0  0  0  0  0  0  0  0  0  0  0  0
  153.8269  141.4264  162.2223 C   0  0  0  0  0  0  0  0  0  0  0  0
  153.7562  141.7281  160.7126 C   0  0  1  0  0  0  0  0  0  0  0  0
  153.7535  140.4636  159.9723 N   0  0  0  0  0  0  0  0  0  0  0  0
  155.0531  139.3548  160.2044 S   0  0  0  0  0  0  0  0  0  0  0  0
  155.6178  139.0425  158.8824 O   0  0  0  0  0  0  0  0  0  0  0  0
  155.9174  139.8989  161.2628 O   0  0  0  0  0  0  0  0  0  0  0  0
  154.1859  137.8587  160.8380 C   0  0  0  0  0  0  0  0  0  0  0  0
  154.6349  137.5748  162.2424 C   0  0  0  0  0  0  0  0  0  0  0  0
  153.8594  137.1113  163.3411 C   0  0  0  0  0  0  0  0  0  0  0  0
  154.7659  137.0303  164.3587 C   0  0  0  0  0  0  0  0  0  0  0  0
  155.9956  137.4135  163.9315 O   0  0  0  0  0  0  0  0  0  0  0  0
  155.9017  137.7608  162.5790 N   0  0  0  0  0  0  0  0  0  0  0  0
  151.4579  144.9926  157.6376 H   0  0  0  0  0  0  0  0  0  0  0  0
  152.0229  145.3022  159.2838 H   0  0  0  0  0  0  0  0  0  0  0  0
  150.5276  144.3933  159.0130 H   0  0  0  0  0  0  0  0  0  0  0  0
  151.6099  141.9723  160.5480 H   0  0  0  0  0  0  0  0  0  0  0  0
  153.2514  144.5023  160.9673 H   0  0  0  0  0  0  0  0  0  0  0  0
  151.5095  144.3807  160.9958 H   0  0  0  0  0  0  0  0  0  0  0  0
  152.4537  144.4311  163.3001 H   0  0  0  0  0  0  0  0  0  0  0  0
  151.5934  142.9389  163.0033 H   0  0  0  0  0  0  0  0  0  0  0  0
  154.6267  143.3229  162.8832 H   0  0  0  0  0  0  0  0  0  0  0  0
  153.7493  142.4593  164.1239 H   0  0  0  0  0  0  0  0  0  0  0  0
  154.7511  140.8968  162.4564 H   0  0  0  0  0  0  0  0  0  0  0  0
  153.0102  140.7599  162.5039 H   0  0  0  0  0  0  0  0  0  0  0  0
  154.6406  142.3015  160.4315 H   0  0  0  0  0  0  0  0  0  0  0  0
  152.8504  139.9959  160.0457 H   0  0  0  0  0  0  0  0  0  0  0  0
  153.1110  138.0348  160.7885 H   0  0  0  0  0  0  0  0  0  0  0  0
  154.4179  137.0230  160.1779 H   0  0  0  0  0  0  0  0  0  0  0  0
  152.8069  136.8722  163.3752 H   0  0  0  0  0  0  0  0  0  0  0  0
  154.6943  136.7326  165.3944 H   0  0  0  0  0  0  0  0  0  0  0  0
  1  2  1  0  0  0  0
  1 19  1  0  0  0  0
  1 20  1  0  0  0  0
  1 21  1  0  0  0  0
  2  3  1  0  0  0  0
  3  8  1  0  0  0  0
  3  4  1  0  0  0  0
  3 22  1  0  0  0  0
  4  5  1  0  0  0  0
  4 23  1  0  0  0  0
  4 24  1  0  0  0  0
  5  6  1  0  0  0  0
  5 25  1  0  0  0  0
  5 26  1  0  0  0  0
  6  7  1  0  0  0  0
  6 27  1  0  0  0  0
  6 28  1  0  0  0  0
  7  8  1  0  0  0  0
  7 29  1  0  0  0  0
  7 30  1  0  0  0  0
  8  9  1  0  0  0  0
  8 31  1  0  0  0  0
  9 10  1  0  0  0  0
  9 32  1  0  0  0  0
 10 11  2  0  0  0  0
 10 12  2  0  0  0  0
 10 13  1  0  0  0  0
 13 14  1  0  0  0  0
 13 33  1  0  0  0  0
 13 34  1  0  0  0  0
 14 18  2  0  0  0  0
 14 15  1  0  0  0  0
 15 16  2  0  0  0  0
 15 35  1  0  0  0  0
 16 17  1  0  0  0  0
 16 36  1  0  0  0  0
 17 18  1  0  0  0  0
M  END
> <s_m_source_file>
AV-unprocessed.smi

> <i_m_source_file_index>
2889

> <i_lp_mmshare_version>
43012

> <i_f3d_flags>
0

> <s_epik_input>
W0NIM11TW0NAQEhdMVtDSDJdW0NIMl1bQ0gyXVtDSDJdW0NASF0xW05IXVMoPU8pKD1PKVtDSDJdYzJbY0hdW2NIXW9uMg==

> <s_epik_cmdline>
J2VwaWtfcHl0aG9uJywgJy1waCcsICc3LjAnLCAnLXRuJywgJzgnLCAnLW1hJywgJzIwMCcsICctbWV0YWxfYmluZGluZycsICctaW1hZScsICc8aW5maWxlLm1hZT4nLCAnLW9tYWUnLCAnPG91dGZpbGUubWFlPic=

> <r_lp_tautomer_probability>
1

> <r_epik_Ionization_Penalty>
0.000229547

> <r_epik_Ionization_Penalty_Charging>
0

> <r_epik_Ionization_Penalty_Neutral>
0.000229547

> <r_epik_State_Penalty>
-0

> <r_epik_Charging_Adjusted_Penalty>
0

> <i_epik_Tot_Q>
0

> <i_epik_Tot_abs_Q>
0

> <r_epik_Metal_State_Penalty>
0.145979

> <b_epik_Metal_Only>
0

> <s_lp_Force_Field>
OPLS_2005

> <r_lp_Energy>
3.33114

> <b_lp_Chiralities_Consistent>
1

> <s_lp_Variant>
AV-unprocessed.smi:2889-1

> <Gold.Version>
5.8.1

> <Gold.Id.Protein>
6NUR|6NUR_protein|mol2

> <Gold.PLP.Fitness>
44.0093

> <Gold.PLP.PLP>
-42.3726

> <Gold.PLP.part.hbond>
-1.0000

> <Gold.PLP.part.metal>
0.0000

> <Gold.PLP.part.buried>
-2.3420

> <Gold.PLP.part.nonpolar>
-38.3568

> <Gold.PLP.part.repulsive>
0.0467

> <Gold.PLP.ligand.clash>
0.0000

> <Gold.PLP.ligand.torsion>
0.7610

> <Gold.PLP.Chemscore.Hbond>
1.0000

> <Gold.PLP.Chemscore.CHOScore>
0.0000

> <Gold.PLP.Chemscore.Metal>
0.0000

> <Gold.Chemscore.Hbonds>
donor molecule, donor type, donor heavy atom, donor atom, acceptor molecule, acceptor atom, score
      P1  H  7997  8008       L1    11  1.00

> <Gold.PLP.Chemscore.Internal.Correction>
0.1586

> <Gold.Rescore>
     Score         DG    S(hbond)    S(metal)    S(lipo)     H(rot)  DE(clash)    DE(int)     intcor
     14.89     -18.89       0.99        0.00     125.86       1.81       0.35       3.66       ----

> <Gold.Chemscore.Fitness>
14.8860

> <Gold.Chemscore.DG>
-18.8926

> <Gold.Chemscore.ZeroCoef>
-5.4800

> <Gold.Chemscore.Hbond>
0.9910

> <Gold.Chemscore.Metal>
0.0000

> <Gold.Chemscore.Lipo>
125.8593

> <Gold.Chemscore.Internal_Hbond>
0.0000

> <Gold.Chemscore.DEClash>
0.3513

> <Gold.Chemscore.DEInternal>
3.6554

> <Gold.Chemscore.Rot>
1.8058

> <Gold.Chemscore.Internal.Correction>
   9.000000E+99

> <Gold.Chemscore.Hbonds>
donor molecule, donor type, donor heavy atom, donor atom, acceptor molecule, acceptor atom, score
      P1  H  7997  8008       L1    11  1.00

> <Gold.Chemscore.Hbond.Weighted>
-3.3099

> <Gold.Chemscore.Metal.Weighted>
-0.0000

> <Gold.Chemscore.Lipo.Weighted>
-14.7255

> <Gold.Chemscore.Internal_Hbond.Weighted>
0.0000

> <Gold.Chemscore.DEClash.Weighted>
0.3513

> <Gold.Chemscore.DEInternal.Weighted>
3.6554

> <Gold.Chemscore.Rot.Weighted>
4.6228

> <Gold.Chemscore.Internal.Correction.Weighted>
   9.000000E+99

> <Gold.Protein.RotatedTorsions>
[ 6907 6896 6895 6894 ] final -173.13 input  -60.11 | X-H torsion
[ 7974 7965 7964 7962 ] final  -76.83 input  175.53 | X-H torsion
[ 8008 7997 7996 7995 ] final -140.62 input   59.86 | X-H torsion
[ 10167 10162 10161 10158 ] final   77.63 input  -65.29 | X-H torsion
[ 10718 10713 10712 10709 ] final -108.32 input   66.30 | X-H torsion
[ 10763 10752 10751 10750 ] final  132.28 input  -60.55 | X-H torsion
[ 11005 11000 10999 10996 ] final -151.59 input  -57.11 | X-H torsion

> <Gold.Protein.ActiveResidues>
 VAL166  LYS551  ARG553  GLY616  TRP617  ASP618  TYR619  PRO620  LYS621  CYS622 
 ASP623  PHE694  ASN695  SER759  ASP760  ASP761  ALA762  ILE779  LEU786  VAL792 
 PHE793  MET794  SER795  GLU796  ALA797  LYS798  CYS799  TRP800  GLU811  SER814 

> <Gold.Protein.RotatedAtoms>
  151.5513  133.3417  159.2953 H   0  0  0  0  0  0  0  0  0  0  0  0  # atno 6907 bound_to 6896
  150.8477  134.7794  159.6995 H   0  0  0  0  0  0  0  0  0  0  0  0  # atno 6908 bound_to 6896
  152.4531  134.5359  159.9876 H   0  0  0  0  0  0  0  0  0  0  0  0  # atno 6909 bound_to 6896
  145.6077  140.9394  143.1206 H   0  0  0  0  0  0  0  0  0  0  0  0  # atno 7974 bound_to 7965
  155.4644  140.0548  157.2987 H   0  0  0  0  0  0  0  0  0  0  0  0  # atno 8008 bound_to 7997
  154.4724  140.2046  155.9916 H   0  0  0  0  0  0  0  0  0  0  0  0  # atno 8009 bound_to 7997
  156.1077  140.3209  155.8034 H   0  0  0  0  0  0  0  0  0  0  0  0  # atno 8010 bound_to 7997
  139.9796  144.5836  150.7913 H   0  0  0  0  0  0  0  0  0  0  0  0  # atno 10167 bound_to 10162
  156.0479  130.5707  150.7944 H   0  0  0  0  0  0  0  0  0  0  0  0  # atno 10718 bound_to 10713
  153.7882  135.3159  155.3375 H   0  0  0  0  0  0  0  0  0  0  0  0  # atno 10763 bound_to 10752
  154.8136  135.4651  154.0585 H   0  0  0  0  0  0  0  0  0  0  0  0  # atno 10764 bound_to 10752
  153.1894  135.6906  153.8458 H   0  0  0  0  0  0  0  0  0  0  0  0  # atno 10765 bound_to 10752
  140.7279  134.3654  157.5172 H   0  0  0  0  0  0  0  0  0  0  0  0  # atno 11005 bound_to 11000
  144.7283  139.7806  143.7357 LP  0  0  0  0  0  0  0  0  0  0  0  0  # atno 17320 bound_to 7965
  146.1528  139.4616  143.0038 LP  0  0  0  0  0  0  0  0  0  0  0  0  # atno 17321 bound_to 7965
  140.7494  143.2938  151.3260 LP  0  0  0  0  0  0  0  0  0  0  0  0  # atno 17342 bound_to 10162
  139.6420  144.0522  152.2562 LP  0  0  0  0  0  0  0  0  0  0  0  0  # atno 17343 bound_to 10162
  157.5375  131.0939  150.9872 LP  0  0  0  0  0  0  0  0  0  0  0  0  # atno 17370 bound_to 10713
  157.0163  130.5656  149.5326 LP  0  0  0  0  0  0  0  0  0  0  0  0  # atno 17371 bound_to 10713
  139.8833  134.8999  156.2776 LP  0  0  0  0  0  0  0  0  0  0  0  0  # atno 17394 bound_to 11000
  140.9946  133.7188  156.0866 LP  0  0  0  0  0  0  0  0  0  0  0  0  # atno 17395 bound_to 11000

$$$$
