AV-unprocessed.smi:92|AV-procd|sdf|846|dock9
  -GOLD-   2262017283D 1   1.00000     0.00000
 Structure written by MMmdl.
 61 64  0  0  0  0  0  0  0  0  2 V2000
  151.5659  144.4861  158.3677 C   0  0  0  0  0  0  0  0  0  0  0  0
  151.5789  143.2474  157.4606 C   0  0  0  0  0  0  0  0  0  0  0  0
  150.9283  142.0698  158.0951 N   0  3  1  0  0  0  0  0  0  0  0  0
  149.4464  142.1591  158.1282 C   0  0  0  0  0  0  0  0  0  0  0  0
  148.8315  141.9042  156.7431 C   0  0  0  0  0  0  0  0  0  0  0  0
  149.2705  140.5340  156.1865 C   0  0  1  0  0  0  0  0  0  0  0  0
  148.6801  140.2711  154.8660 N   0  0  0  0  0  0  0  0  0  0  0  0
  148.4109  141.3714  153.9430 C   0  0  0  0  0  0  0  0  0  0  0  0
  148.0350  139.0950  154.6288 C   0  0  0  0  0  0  0  0  0  0  0  0
  147.9471  138.1708  155.6228 N   0  0  0  0  0  0  0  0  0  0  0  0
  147.3121  137.0132  155.4223 C   0  0  0  0  0  0  0  0  0  0  0  0
  146.7037  136.5777  154.3193 N   0  0  0  0  0  0  0  0  0  0  0  0
  146.7911  137.4899  153.3099 C   0  0  0  0  0  0  0  0  0  0  0  0
  147.4324  138.7611  153.3791 C   0  0  0  0  0  0  0  0  0  0  0  0
  147.3284  139.4032  152.1502 N   0  0  0  0  0  0  0  0  0  0  0  0
  146.6585  138.5686  151.4046 C   0  0  0  0  0  0  0  0  0  0  0  0
  146.2933  137.3927  152.0195 N   0  0  0  0  0  0  0  0  0  0  0  0
  145.5568  136.3135  151.4207 C   0  0  0  0  0  0  0  0  0  0  0  0
  144.1966  135.8720  151.9711 C   0  0  0  0  0  0  0  0  0  0  0  0
  144.5446  134.3971  151.6587 C   0  0  0  0  0  0  0  0  0  0  0  0
  144.2229  133.3712  152.7619 C   0  0  0  0  0  0  0  0  0  0  0  0
  144.0372  133.9670  154.0303 O   0  0  0  0  0  0  0  0  0  0  0  0
  143.9252  133.8084  150.3731 C   0  0  0  0  0  0  0  0  0  0  0  0
  144.0597  134.6500  149.2454 O   0  0  0  0  0  0  0  0  0  0  0  0
  146.0182  134.8585  151.5577 C   0  0  0  0  0  0  0  0  0  0  0  0
  150.8156  140.4170  156.1813 C   0  0  2  0  0  0  0  0  0  0  0  0
  151.2846  139.0188  155.7419 C   0  0  0  0  0  0  0  0  0  0  0  0
  151.3831  140.7489  157.5817 C   0  0  0  0  0  0  0  0  0  0  0  0
  151.9601  145.3523  157.8359 H   0  0  0  0  0  0  0  0  0  0  0  0
  152.1782  144.3501  159.2583 H   0  0  0  0  0  0  0  0  0  0  0  0
  150.5524  144.7298  158.6875 H   0  0  0  0  0  0  0  0  0  0  0  0
  151.0361  143.5024  156.5497 H   0  0  0  0  0  0  0  0  0  0  0  0
  152.5969  143.0134  157.1501 H   0  0  0  0  0  0  0  0  0  0  0  0
  149.0707  141.4172  158.8343 H   0  0  0  0  0  0  0  0  0  0  0  0
  149.1331  143.1297  158.5143 H   0  0  0  0  0  0  0  0  0  0  0  0
  147.7447  141.9462  156.8188 H   0  0  0  0  0  0  0  0  0  0  0  0
  149.1179  142.7067  156.0630 H   0  0  0  0  0  0  0  0  0  0  0  0
  148.9200  139.7692  156.8807 H   0  0  0  0  0  0  0  0  0  0  0  0
  147.3937  141.3207  153.5529 H   0  0  0  0  0  0  0  0  0  0  0  0
  149.1052  141.3362  153.1035 H   0  0  0  0  0  0  0  0  0  0  0  0
  148.5249  142.3410  154.4258 H   0  0  0  0  0  0  0  0  0  0  0  0
  147.2868  136.3396  156.2659 H   0  0  0  0  0  0  0  0  0  0  0  0
  146.4133  138.7917  150.3764 H   0  0  0  0  0  0  0  0  0  0  0  0
  145.4571  136.5669  150.3642 H   0  0  0  0  0  0  0  0  0  0  0  0
  144.0857  136.0794  153.0358 H   0  0  0  0  0  0  0  0  0  0  0  0
  143.3443  136.2655  151.4163 H   0  0  0  0  0  0  0  0  0  0  0  0
  143.3153  132.8162  152.5217 H   0  0  0  0  0  0  0  0  0  0  0  0
  145.0245  132.6376  152.8550 H   0  0  0  0  0  0  0  0  0  0  0  0
  143.3904  133.4684  154.5058 H   0  0  0  0  0  0  0  0  0  0  0  0
  144.3865  132.8516  150.1254 H   0  0  0  0  0  0  0  0  0  0  0  0
  142.8611  133.6143  150.5122 H   0  0  0  0  0  0  0  0  0  0  0  0
  144.7158  134.2831  148.6726 H   0  0  0  0  0  0  0  0  0  0  0  0
  146.5548  134.4796  150.6873 H   0  0  0  0  0  0  0  0  0  0  0  0
  146.5950  134.6835  152.4662 H   0  0  0  0  0  0  0  0  0  0  0  0
  151.2281  141.1331  155.4713 H   0  0  0  0  0  0  0  0  0  0  0  0
  150.8840  138.2422  156.3943 H   0  0  0  0  0  0  0  0  0  0  0  0
  152.3722  138.9443  155.7657 H   0  0  0  0  0  0  0  0  0  0  0  0
  150.9686  138.7914  154.7236 H   0  0  0  0  0  0  0  0  0  0  0  0
  152.4711  140.6976  157.5743 H   0  0  0  0  0  0  0  0  0  0  0  0
  151.0575  139.9871  158.2914 H   0  0  0  0  0  0  0  0  0  0  0  0
  151.2176  142.1065  159.0622 H   0  0  0  0  0  0  0  0  0  0  0  0
  1  2  1  0  0  0  0
  1 29  1  0  0  0  0
  1 30  1  0  0  0  0
  1 31  1  0  0  0  0
  2  3  1  0  0  0  0
  2 32  1  0  0  0  0
  2 33  1  0  0  0  0
  3 28  1  0  0  0  0
  3  4  1  0  0  0  0
  3 61  1  0  0  0  0
  4  5  1  0  0  0  0
  4 34  1  0  0  0  0
  4 35  1  0  0  0  0
  5  6  1  0  0  0  0
  5 36  1  0  0  0  0
  5 37  1  0  0  0  0
  6  7  1  0  0  0  0
  6 26  1  0  0  0  0
  6 38  1  0  0  0  0
  7  8  1  0  0  0  0
  7  9  1  0  0  0  0
  8 39  1  0  0  0  0
  8 40  1  0  0  0  0
  8 41  1  0  0  0  0
  9 14  1  0  0  0  0
  9 10  2  0  0  0  0
 10 11  1  0  0  0  0
 11 12  2  0  0  0  0
 11 42  1  0  0  0  0
 12 13  1  0  0  0  0
 13 17  1  0  0  0  0
 13 14  2  0  0  0  0
 14 15  1  0  0  0  0
 15 16  2  0  0  0  0
 16 17  1  0  0  0  0
 16 43  1  0  0  0  0
 17 18  1  0  0  0  0
 18 25  1  0  0  0  0
 18 19  1  0  0  0  0
 18 44  1  0  0  0  0
 19 20  1  0  0  0  0
 19 45  1  0  0  0  0
 19 46  1  0  0  0  0
 20 21  1  0  0  0  0
 20 23  1  0  0  0  0
 20 25  1  0  0  0  0
 21 22  1  0  0  0  0
 21 47  1  0  0  0  0
 21 48  1  0  0  0  0
 22 49  1  0  0  0  0
 23 24  1  0  0  0  0
 23 50  1  0  0  0  0
 23 51  1  0  0  0  0
 24 52  1  0  0  0  0
 25 53  1  0  0  0  0
 25 54  1  0  0  0  0
 26 27  1  0  0  0  0
 26 28  1  0  0  0  0
 26 55  1  0  0  0  0
 27 56  1  0  0  0  0
 27 57  1  0  0  0  0
 27 58  1  0  0  0  0
 28 59  1  0  0  0  0
 28 60  1  0  0  0  0
M  CHG  1   3   1
M  END
> <s_m_source_file>
AV-unprocessed.smi

> <i_m_source_file_index>
92

> <i_lp_mmshare_version>
43012

> <i_f3d_flags>
0

> <s_epik_input>
W0NIM11bQ0gyXU4xW0NIMl1bQ0gyXVtDQEhdKFtDQEBIXShbQ0gzXSlbQ0gyXTEpTihbQ0gzXSljKG5bY0hdbjIpYyhjMjMpbltjSF1uM1tDSF0oW0NIMl00KVtDSDJdQzQoW0NIMl1bT0hdKVtDSDJdW09IXQ==

> <s_epik_cmdline>
J2VwaWtfcHl0aG9uJywgJy1waCcsICc3LjAnLCAnLXRuJywgJzgnLCAnLW1hJywgJzIwMCcsICctbWV0YWxfYmluZGluZycsICctaW1hZScsICc8aW5maWxlLm1hZT4nLCAnLW9tYWUnLCAnPG91dGZpbGUubWFlPic=

> <r_lp_tautomer_probability>
1

> <r_epik_Ionization_Penalty>
0.00235514

> <r_epik_Ionization_Penalty_Charging>
0.00137877

> <r_epik_Ionization_Penalty_Neutral>
0.000976366

> <r_epik_State_Penalty>
-0

> <r_epik_Charging_Adjusted_Penalty>
0.00137877

> <i_epik_Tot_Q>
1

> <i_epik_Tot_abs_Q>
1

> <r_epik_Metal_State_Penalty>
-0

> <b_epik_Metal_Only>
0

> <s_lp_Force_Field>
OPLS_2005

> <r_lp_Energy>
55.2069

> <b_lp_Chiralities_Consistent>
1

> <s_lp_Variant>
AV-unprocessed.smi:92-6

> <Gold.Version>
5.8.1

> <Gold.Id.Protein>
6NUR|6NUR_protein|mol2

> <Gold.PLP.Fitness>
46.1700

> <Gold.PLP.PLP>
-39.4902

> <Gold.PLP.part.hbond>
-3.0000

> <Gold.PLP.part.metal>
0.0000

> <Gold.PLP.part.buried>
0.7427

> <Gold.PLP.part.nonpolar>
-41.6648

> <Gold.PLP.part.repulsive>
3.3424

> <Gold.PLP.ligand.clash>
0.0000

> <Gold.PLP.ligand.torsion>
1.5665

> <Gold.PLP.Chemscore.Hbond>
2.0000

> <Gold.PLP.Chemscore.CHOScore>
0.9907

> <Gold.PLP.Chemscore.Metal>
0.0000

> <Gold.Chemscore.Hbonds>
donor molecule, donor type, donor heavy atom, donor atom, acceptor molecule, acceptor atom, score
      L1  H    22    49       P1 10957  0.91
      L1  H    24    52       P1  7921  0.82
      L1  C    16    43       P1 10171  0.61

> <Gold.PLP.Chemscore.Internal.Correction>
0.8407

> <Gold.Rescore>
     Score         DG    S(hbond)    S(metal)    S(lipo)     H(rot)  DE(clash)    DE(int)     intcor
      9.34     -14.74       1.98        0.00      93.25       3.22       1.97       3.43       ----

> <Gold.Chemscore.Fitness>
9.3432

> <Gold.Chemscore.DG>
-14.7390

> <Gold.Chemscore.ZeroCoef>
-5.4800

> <Gold.Chemscore.Hbond>
1.9750

> <Gold.Chemscore.Metal>
0.0000

> <Gold.Chemscore.Lipo>
93.2530

> <Gold.Chemscore.Internal_Hbond>
0.0000

> <Gold.Chemscore.DEClash>
1.9700

> <Gold.Chemscore.DEInternal>
3.4258

> <Gold.Chemscore.Rot>
3.2219

> <Gold.Chemscore.Internal.Correction>
   9.000000E+99

> <Gold.Chemscore.Hbonds>
donor molecule, donor type, donor heavy atom, donor atom, acceptor molecule, acceptor atom, score
      L1  H    22    49       P1 10957  0.88
      L1  H    24    52       P1  7921  0.80

> <Gold.Chemscore.Hbond.Weighted>
-6.5966

> <Gold.Chemscore.Metal.Weighted>
-0.0000

> <Gold.Chemscore.Lipo.Weighted>
-10.9106

> <Gold.Chemscore.Internal_Hbond.Weighted>
0.0000

> <Gold.Chemscore.DEClash.Weighted>
1.9700

> <Gold.Chemscore.DEInternal.Weighted>
3.4258

> <Gold.Chemscore.Rot.Weighted>
8.2482

> <Gold.Chemscore.Internal.Correction.Weighted>
   9.000000E+99

> <Gold.Protein.RotatedTorsions>
[ 6907 6896 6895 6894 ] final   86.19 input  -60.11 | X-H torsion
[ 7974 7965 7964 7962 ] final   57.08 input  175.53 | X-H torsion
[ 8008 7997 7996 7995 ] final  -10.09 input   59.86 | X-H torsion
[ 10167 10162 10161 10158 ] final   34.11 input  -65.29 | X-H torsion
[ 10718 10713 10712 10709 ] final    9.07 input   66.30 | X-H torsion
[ 10763 10752 10751 10750 ] final -170.95 input  -60.55 | X-H torsion
[ 11005 11000 10999 10996 ] final   14.32 input  -57.11 | X-H torsion

> <Gold.Protein.ActiveResidues>
 VAL166  LYS551  ARG553  GLY616  TRP617  ASP618  TYR619  PRO620  LYS621  CYS622 
 ASP623  PHE694  ASN695  SER759  ASP760  ASP761  ALA762  ILE779  LEU786  VAL792 
 PHE793  MET794  SER795  GLU796  ALA797  LYS798  CYS799  TRP800  GLU811  SER814 

> <Gold.Protein.RotatedAtoms>
  152.5390  134.2469  159.8883 H   0  0  0  0  0  0  0  0  0  0  0  0  # atno 6907 bound_to 6896
  151.2434  133.4381  159.2616 H   0  0  0  0  0  0  0  0  0  0  0  0  # atno 6908 bound_to 6896
  151.0606  134.9748  159.8314 H   0  0  0  0  0  0  0  0  0  0  0  0  # atno 6909 bound_to 6896
  145.9328  139.3822  143.0410 H   0  0  0  0  0  0  0  0  0  0  0  0  # atno 7974 bound_to 7965
  154.5586  140.2338  155.8371 H   0  0  0  0  0  0  0  0  0  0  0  0  # atno 8008 bound_to 7997
  156.2010  140.3052  155.9486 H   0  0  0  0  0  0  0  0  0  0  0  0  # atno 8009 bound_to 7997
  155.2932  140.0427  157.3015 H   0  0  0  0  0  0  0  0  0  0  0  0  # atno 8010 bound_to 7997
  140.4345  144.1277  150.6164 H   0  0  0  0  0  0  0  0  0  0  0  0  # atno 10167 bound_to 10162
  156.9608  130.5932  149.5662 H   0  0  0  0  0  0  0  0  0  0  0  0  # atno 10718 bound_to 10713
  154.6358  135.2892  155.0162 H   0  0  0  0  0  0  0  0  0  0  0  0  # atno 10763 bound_to 10752
  154.1306  135.6534  153.4925 H   0  0  0  0  0  0  0  0  0  0  0  0  # atno 10764 bound_to 10752
  153.0302  135.5309  154.7205 H   0  0  0  0  0  0  0  0  0  0  0  0  # atno 10765 bound_to 10752
  140.4708  134.1033  155.7732 H   0  0  0  0  0  0  0  0  0  0  0  0  # atno 11005 bound_to 11000
  145.8403  140.9584  143.0803 LP  0  0  0  0  0  0  0  0  0  0  0  0  # atno 17320 bound_to 7965
  144.6767  140.0275  143.7483 LP  0  0  0  0  0  0  0  0  0  0  0  0  # atno 17321 bound_to 7965
  140.4389  143.2535  151.9499 LP  0  0  0  0  0  0  0  0  0  0  0  0  # atno 17342 bound_to 10162
  139.4786  144.5673  151.8144 LP  0  0  0  0  0  0  0  0  0  0  0  0  # atno 17343 bound_to 10162
  156.0323  130.5413  150.8565 LP  0  0  0  0  0  0  0  0  0  0  0  0  # atno 17370 bound_to 10713
  157.5659  131.0946  150.9491 LP  0  0  0  0  0  0  0  0  0  0  0  0  # atno 17371 bound_to 10713
  141.1578  133.8850  157.1931 LP  0  0  0  0  0  0  0  0  0  0  0  0  # atno 17394 bound_to 11000
  139.9886  135.0073  156.9922 LP  0  0  0  0  0  0  0  0  0  0  0  0  # atno 17395 bound_to 11000

$$$$
