AV-unprocessed.smi:1853|AV-procd|sdf|7528|dock5
  -GOLD-   22720 9233D 1   1.00000     0.00000
 Structure written by MMmdl.
 43 45  0  0  0  0  0  0  0  0  2 V2000
  153.0789  143.7462  161.8578 C   0  0  0  0  0  0  0  0  0  0  0  0
  152.9623  142.6937  160.7748 C   0  0  0  0  0  0  0  0  0  0  0  0
  153.7937  141.5565  160.7927 C   0  0  0  0  0  0  0  0  0  0  0  0
  153.6797  140.5833  159.7818 C   0  0  0  0  0  0  0  0  0  0  0  0
  152.7396  140.7277  158.7410 C   0  0  0  0  0  0  0  0  0  0  0  0
  152.6934  139.7257  157.7961 O   0  0  0  0  0  0  0  0  0  0  0  0
  151.4521  139.4601  157.1564 C   0  0  0  0  0  0  0  0  0  0  0  0
  151.4945  140.0083  155.7231 C   0  0  0  0  0  0  0  0  0  0  0  0
  150.3724  139.5228  154.9068 N   0  0  0  0  0  0  0  0  0  0  0  0
  150.1133  138.2802  154.4056 C   0  0  0  0  0  0  0  0  0  0  0  0
  150.9548  137.0509  154.5842 C   0  0  0  0  0  0  0  0  0  0  0  0
  150.1885  135.8236  154.7802 N   0  0  0  0  0  0  0  0  0  0  0  0
  150.4165  134.9211  155.7456 C   0  0  0  0  0  0  0  0  0  0  0  0
  151.2727  135.0418  156.6198 O   0  0  0  0  0  0  0  0  0  0  0  0
  148.9437  138.3673  153.7077 N   0  3  0  0  0  0  0  0  0  0  0  0
  148.4427  139.6668  153.7797 C   0  0  0  0  0  0  0  0  0  0  0  0
  147.2888  140.2305  153.2439 C   0  0  0  0  0  0  0  0  0  0  0  0
  147.0699  141.5979  153.5114 C   0  0  0  0  0  0  0  0  0  0  0  0
  147.9789  142.3497  154.2843 C   0  0  0  0  0  0  0  0  0  0  0  0
  149.1459  141.7668  154.8212 C   0  0  0  0  0  0  0  0  0  0  0  0
  149.3549  140.4147  154.5510 C   0  0  0  0  0  0  0  0  0  0  0  0
  151.9089  141.8766  158.7269 C   0  0  0  0  0  0  0  0  0  0  0  0
  152.0217  142.8506  159.7380 C   0  0  0  0  0  0  0  0  0  0  0  0
  153.6268  143.3660  162.7207 H   0  0  0  0  0  0  0  0  0  0  0  0
  152.0903  144.0582  162.1960 H   0  0  0  0  0  0  0  0  0  0  0  0
  153.6040  144.6220  161.4762 H   0  0  0  0  0  0  0  0  0  0  0  0
  154.5217  141.4254  161.5800 H   0  0  0  0  0  0  0  0  0  0  0  0
  154.3242  139.7173  159.8048 H   0  0  0  0  0  0  0  0  0  0  0  0
  151.2588  138.3866  157.1337 H   0  0  0  0  0  0  0  0  0  0  0  0
  150.6382  139.9383  157.7033 H   0  0  0  0  0  0  0  0  0  0  0  0
  151.4858  141.0985  155.7216 H   0  0  0  0  0  0  0  0  0  0  0  0
  152.4210  139.7088  155.2326 H   0  0  0  0  0  0  0  0  0  0  0  0
  151.5822  136.9292  153.7011 H   0  0  0  0  0  0  0  0  0  0  0  0
  151.6298  137.1880  155.4297 H   0  0  0  0  0  0  0  0  0  0  0  0
  149.4580  135.6287  154.1107 H   0  0  0  0  0  0  0  0  0  0  0  0
  149.7330  134.0630  155.6515 H   0  0  0  0  0  0  0  0  0  0  0  0
  146.5902  139.6560  152.6536 H   0  0  0  0  0  0  0  0  0  0  0  0
  146.1864  142.0793  153.1177 H   0  0  0  0  0  0  0  0  0  0  0  0
  147.7766  143.3945  154.4702 H   0  0  0  0  0  0  0  0  0  0  0  0
  149.8344  142.3505  155.4141 H   0  0  0  0  0  0  0  0  0  0  0  0
  151.1752  142.0349  157.9513 H   0  0  0  0  0  0  0  0  0  0  0  0
  151.3820  143.7209  159.7151 H   0  0  0  0  0  0  0  0  0  0  0  0
  148.5153  137.5852  153.2297 H   0  0  0  0  0  0  0  0  0  0  0  0
  1  2  1  0  0  0  0
  1 24  1  0  0  0  0
  1 25  1  0  0  0  0
  1 26  1  0  0  0  0
  2 23  1  0  0  0  0
  2  3  2  0  0  0  0
  3  4  1  0  0  0  0
  3 27  1  0  0  0  0
  4  5  2  0  0  0  0
  4 28  1  0  0  0  0
  5  6  1  0  0  0  0
  5 22  1  0  0  0  0
  6  7  1  0  0  0  0
  7  8  1  0  0  0  0
  7 29  1  0  0  0  0
  7 30  1  0  0  0  0
  8  9  1  0  0  0  0
  8 31  1  0  0  0  0
  8 32  1  0  0  0  0
  9 21  1  0  0  0  0
  9 10  1  0  0  0  0
 10 11  1  0  0  0  0
 10 15  2  0  0  0  0
 11 12  1  0  0  0  0
 11 33  1  0  0  0  0
 11 34  1  0  0  0  0
 12 13  1  0  0  0  0
 12 35  1  0  0  0  0
 13 14  2  0  0  0  0
 13 36  1  0  0  0  0
 15 16  1  0  0  0  0
 15 43  1  0  0  0  0
 16 21  2  0  0  0  0
 16 17  1  0  0  0  0
 17 18  2  0  0  0  0
 17 37  1  0  0  0  0
 18 19  1  0  0  0  0
 18 38  1  0  0  0  0
 19 20  2  0  0  0  0
 19 39  1  0  0  0  0
 20 21  1  0  0  0  0
 20 40  1  0  0  0  0
 22 23  2  0  0  0  0
 22 41  1  0  0  0  0
 23 42  1  0  0  0  0
M  CHG  1  15   1
M  END
> <s_m_source_file>
AV-unprocessed.smi

> <i_m_source_file_index>
1853

> <i_lp_mmshare_version>
43012

> <i_f3d_flags>
0

> <s_epik_input>
W0NIM11jMVtjSF1bY0hdYyhbY0hdW2NIXTEpT1tDSDJdW0NIMl1uKGMobjIpW0NIMl1bTkhdW0NIXT1PKWMoYzIzKVtjSF1bY0hdW2NIXVtjSF0z

> <s_epik_cmdline>
J2VwaWtfcHl0aG9uJywgJy1waCcsICc3LjAnLCAnLXRuJywgJzgnLCAnLW1hJywgJzIwMCcsICctbWV0YWxfYmluZGluZycsICctaW1hZScsICc8aW5maWxlLm1hZT4nLCAnLW9tYWUnLCAnPG91dGZpbGUubWFlPic=

> <r_lp_tautomer_probability>
1

> <r_epik_Ionization_Penalty>
1.39966

> <r_epik_Ionization_Penalty_Charging>
1.39966

> <r_epik_Ionization_Penalty_Neutral>
7.38905e-08

> <r_epik_State_Penalty>
1.4817

> <r_epik_Charging_Adjusted_Penalty>
2.88136

> <i_epik_Tot_Q>
1

> <i_epik_Tot_abs_Q>
1

> <r_epik_Metal_State_Penalty>
1.53574

> <b_epik_Metal_Only>
0

> <s_lp_Force_Field>
OPLS_2005

> <r_lp_Energy>
13.1997

> <b_lp_Chiralities_Consistent>
1

> <s_lp_Variant>
AV-unprocessed.smi:1853-2

> <Gold.Version>
5.8.1

> <Gold.Id.Protein>
6NUR|6NUR_protein|mol2

> <Gold.PLP.Fitness>
61.7820

> <Gold.PLP.PLP>
-50.0610

> <Gold.PLP.part.hbond>
-6.0000

> <Gold.PLP.part.metal>
0.0000

> <Gold.PLP.part.buried>
4.8220

> <Gold.PLP.part.nonpolar>
-47.7705

> <Gold.PLP.part.repulsive>
0.1467

> <Gold.PLP.ligand.clash>
0.0000

> <Gold.PLP.ligand.torsion>
1.2068

> <Gold.PLP.Chemscore.Hbond>
4.6944

> <Gold.PLP.Chemscore.CHOScore>
0.0000

> <Gold.PLP.Chemscore.Metal>
0.0000

> <Gold.Chemscore.Hbonds>
donor molecule, donor type, donor heavy atom, donor atom, acceptor molecule, acceptor atom, score
      L1  H    12    35       P1  7948  0.14
      L1  H    15    43       P1  7948  1.54
      P1  H  7997  8009       L1     6  0.99

> <Gold.PLP.Chemscore.Internal.Correction>
0.0513

> <Gold.Rescore>
     Score         DG    S(hbond)    S(metal)    S(lipo)     H(rot)  DE(clash)    DE(int)     intcor
     18.71     -20.90       1.78        0.00     134.70       2.46       1.20       1.00       ----

> <Gold.Chemscore.Fitness>
18.7072

> <Gold.Chemscore.DG>
-20.9022

> <Gold.Chemscore.ZeroCoef>
-5.4800

> <Gold.Chemscore.Hbond>
1.7844

> <Gold.Chemscore.Metal>
0.0000

> <Gold.Chemscore.Lipo>
134.7045

> <Gold.Chemscore.Internal_Hbond>
0.0000

> <Gold.Chemscore.DEClash>
1.1977

> <Gold.Chemscore.DEInternal>
0.9973

> <Gold.Chemscore.Rot>
2.4603

> <Gold.Chemscore.Internal.Correction>
   9.000000E+99

> <Gold.Chemscore.Hbonds>
donor molecule, donor type, donor heavy atom, donor atom, acceptor molecule, acceptor atom, score
      L1  H    12    35       P1  7948  0.08
      L1  H    15    43       P1  7948  0.77
      P1  H  7997  8009       L1     6  0.24

> <Gold.Chemscore.Hbond.Weighted>
-5.9600

> <Gold.Chemscore.Metal.Weighted>
-0.0000

> <Gold.Chemscore.Lipo.Weighted>
-15.7604

> <Gold.Chemscore.Internal_Hbond.Weighted>
0.0000

> <Gold.Chemscore.DEClash.Weighted>
1.1977

> <Gold.Chemscore.DEInternal.Weighted>
0.9973

> <Gold.Chemscore.Rot.Weighted>
6.2983

> <Gold.Chemscore.Internal.Correction.Weighted>
   9.000000E+99

> <Gold.Protein.RotatedTorsions>
[ 6907 6896 6895 6894 ] final  101.71 input  -60.11 | X-H torsion
[ 7974 7965 7964 7962 ] final  160.77 input  175.53 | X-H torsion
[ 8008 7997 7996 7995 ] final  166.66 input   59.86 | X-H torsion
[ 10167 10162 10161 10158 ] final  -27.41 input  -65.29 | X-H torsion
[ 10718 10713 10712 10709 ] final -112.77 input   66.30 | X-H torsion
[ 10763 10752 10751 10750 ] final  -27.74 input  -60.55 | X-H torsion
[ 11005 11000 10999 10996 ] final -103.26 input  -57.11 | X-H torsion

> <Gold.Protein.ActiveResidues>
 VAL166  LYS551  ARG553  GLY616  TRP617  ASP618  TYR619  PRO620  LYS621  CYS622 
 ASP623  PHE694  ASN695  SER759  ASP760  ASP761  ALA762  ILE779  LEU786  VAL792 
 PHE793  MET794  SER795  GLU796  ALA797  LYS798  CYS799  TRP800  GLU811  SER814 

> <Gold.Protein.RotatedAtoms>
  152.5342  134.0085  159.7927 H   0  0  0  0  0  0  0  0  0  0  0  0  # atno 6907 bound_to 6896
  151.0292  133.5798  159.2670 H   0  0  0  0  0  0  0  0  0  0  0  0  # atno 6908 bound_to 6896
  151.2809  135.0720  159.9222 H   0  0  0  0  0  0  0  0  0  0  0  0  # atno 6909 bound_to 6896
  144.7719  139.7804  143.6293 H   0  0  0  0  0  0  0  0  0  0  0  0  # atno 7974 bound_to 7965
  156.1700  140.1637  156.8464 H   0  0  0  0  0  0  0  0  0  0  0  0  # atno 8008 bound_to 7997
  154.5247  140.0770  156.8270 H   0  0  0  0  0  0  0  0  0  0  0  0  # atno 8009 bound_to 7997
  155.3533  140.3391  155.4242 H   0  0  0  0  0  0  0  0  0  0  0  0  # atno 8010 bound_to 7997
  140.7277  143.4096  151.1128 H   0  0  0  0  0  0  0  0  0  0  0  0  # atno 10167 bound_to 10162
  156.0725  130.5937  150.8552 H   0  0  0  0  0  0  0  0  0  0  0  0  # atno 10718 bound_to 10713
  153.7370  135.6935  153.4976 H   0  0  0  0  0  0  0  0  0  0  0  0  # atno 10763 bound_to 10752
  153.2096  135.4407  155.0363 H   0  0  0  0  0  0  0  0  0  0  0  0  # atno 10764 bound_to 10752
  154.8234  135.3433  154.6897 H   0  0  0  0  0  0  0  0  0  0  0  0  # atno 10765 bound_to 10752
  141.1154  133.8625  157.1463 H   0  0  0  0  0  0  0  0  0  0  0  0  # atno 11005 bound_to 11000
  146.1872  139.5094  142.9828 LP  0  0  0  0  0  0  0  0  0  0  0  0  # atno 17320 bound_to 7965
  145.6298  141.0306  143.1869 LP  0  0  0  0  0  0  0  0  0  0  0  0  # atno 17321 bound_to 7965
  139.7727  143.8470  152.3123 LP  0  0  0  0  0  0  0  0  0  0  0  0  # atno 17342 bound_to 10162
  139.8394  144.7217  150.9350 LP  0  0  0  0  0  0  0  0  0  0  0  0  # atno 17343 bound_to 10162
  157.5804  131.0946  150.9280 LP  0  0  0  0  0  0  0  0  0  0  0  0  # atno 17370 bound_to 10713
  156.9477  130.5408  149.5281 LP  0  0  0  0  0  0  0  0  0  0  0  0  # atno 17371 bound_to 10713
  140.0072  135.0003  157.0318 LP  0  0  0  0  0  0  0  0  0  0  0  0  # atno 17394 bound_to 11000
  140.4661  134.1434  155.7197 LP  0  0  0  0  0  0  0  0  0  0  0  0  # atno 17395 bound_to 11000

$$$$
