AV-unprocessed.smi:3345|AV-procd|sdf|12901|dock3
  -GOLD-   2272019313D 1   1.00000     0.00000
 Structure written by MMmdl.
 40 41  0  0  0  0  0  0  0  0  1 V2000
  151.3561  139.7863  155.5960 C   0  0  0  0  0  0  0  0  0  0  0  0
  150.9296  141.1910  156.0502 C   0  0  2  0  0  0  0  0  0  0  0  0
  150.9701  141.3264  157.5882 C   0  0  0  0  0  0  0  0  0  0  0  0
  151.9254  142.3083  158.1021 N   0  0  0  0  0  0  0  0  0  0  0  0
  151.6549  143.6632  157.6262 C   0  0  0  0  0  0  0  0  0  0  0  0
  152.6541  144.6838  158.1986 C   0  0  0  0  0  0  0  0  0  0  0  0
  152.6320  144.6301  159.6212 O   0  0  0  0  0  0  0  0  0  0  0  0
  152.9406  143.3351  160.1258 C   0  0  0  0  0  0  0  0  0  0  0  0
  151.9401  142.3118  159.5613 C   0  0  0  0  0  0  0  0  0  0  0  0
  149.5756  141.4469  155.5643 N   0  0  0  0  0  0  0  0  0  0  0  0
  149.1492  141.2609  154.3050 C   0  0  0  0  0  0  0  0  0  0  0  0
  149.8764  140.8552  153.3978 O   0  0  0  0  0  0  0  0  0  0  0  0
  147.6703  141.5712  154.0348 C   0  0  1  0  0  0  0  0  0  0  0  0
  146.9478  140.3866  153.3615 C   0  0  0  0  0  0  0  0  0  0  0  0
  147.0199  142.0018  155.2675 N   0  0  0  0  0  0  0  0  0  0  0  0
  146.3173  143.1081  155.5214 C   0  0  0  0  0  0  0  0  0  0  0  0
  145.9089  143.2119  156.7785 N   0  0  0  0  0  0  0  0  0  0  0  0
  146.4440  142.0626  157.2870 C   0  0  0  0  0  0  0  0  0  0  0  0
  147.1294  141.3081  156.4284 N   0  0  0  0  0  0  0  0  0  0  0  0
  152.3743  139.5629  155.9155 H   0  0  0  0  0  0  0  0  0  0  0  0
  151.3289  139.6986  154.5094 H   0  0  0  0  0  0  0  0  0  0  0  0
  150.7011  139.0183  156.0090 H   0  0  0  0  0  0  0  0  0  0  0  0
  151.6349  141.9033  155.6174 H   0  0  0  0  0  0  0  0  0  0  0  0
  149.9716  141.5246  157.9823 H   0  0  0  0  0  0  0  0  0  0  0  0
  151.2494  140.3537  157.9955 H   0  0  0  0  0  0  0  0  0  0  0  0
  151.7092  143.6988  156.5387 H   0  0  0  0  0  0  0  0  0  0  0  0
  150.6405  143.9566  157.9008 H   0  0  0  0  0  0  0  0  0  0  0  0
  153.6631  144.4806  157.8362 H   0  0  0  0  0  0  0  0  0  0  0  0
  152.3947  145.6918  157.8749 H   0  0  0  0  0  0  0  0  0  0  0  0
  153.9633  143.0655  159.8574 H   0  0  0  0  0  0  0  0  0  0  0  0
  152.8889  143.3549  161.2143 H   0  0  0  0  0  0  0  0  0  0  0  0
  150.9424  142.5379  159.9409 H   0  0  0  0  0  0  0  0  0  0  0  0
  152.1969  141.3187  159.9316 H   0  0  0  0  0  0  0  0  0  0  0  0
  148.9090  141.7862  156.2424 H   0  0  0  0  0  0  0  0  0  0  0  0
  147.6210  142.4132  153.3420 H   0  0  0  0  0  0  0  0  0  0  0  0
  147.4206  140.1292  152.4130 H   0  0  0  0  0  0  0  0  0  0  0  0
  145.9074  140.6353  153.1504 H   0  0  0  0  0  0  0  0  0  0  0  0
  146.9537  139.4913  153.9845 H   0  0  0  0  0  0  0  0  0  0  0  0
  146.1041  143.8558  154.7717 H   0  0  0  0  0  0  0  0  0  0  0  0
  146.3307  141.7765  158.3223 H   0  0  0  0  0  0  0  0  0  0  0  0
  1  2  1  0  0  0  0
  1 20  1  0  0  0  0
  1 21  1  0  0  0  0
  1 22  1  0  0  0  0
  2  3  1  0  0  0  0
  2 10  1  0  0  0  0
  2 23  1  0  0  0  0
  3  4  1  0  0  0  0
  3 24  1  0  0  0  0
  3 25  1  0  0  0  0
  4  9  1  0  0  0  0
  4  5  1  0  0  0  0
  5  6  1  0  0  0  0
  5 26  1  0  0  0  0
  5 27  1  0  0  0  0
  6  7  1  0  0  0  0
  6 28  1  0  0  0  0
  6 29  1  0  0  0  0
  7  8  1  0  0  0  0
  8  9  1  0  0  0  0
  8 30  1  0  0  0  0
  8 31  1  0  0  0  0
  9 32  1  0  0  0  0
  9 33  1  0  0  0  0
 10 11  1  0  0  0  0
 10 34  1  0  0  0  0
 11 12  2  0  0  0  0
 11 13  1  0  0  0  0
 13 14  1  0  0  0  0
 13 15  1  0  0  0  0
 13 35  1  0  0  0  0
 14 36  1  0  0  0  0
 14 37  1  0  0  0  0
 14 38  1  0  0  0  0
 15 19  1  0  0  0  0
 15 16  1  0  0  0  0
 16 17  2  0  0  0  0
 16 39  1  0  0  0  0
 17 18  1  0  0  0  0
 18 19  2  0  0  0  0
 18 40  1  0  0  0  0
M  END
> <s_m_source_file>
AV-unprocessed.smi

> <i_m_source_file_index>
3345

> <i_lp_mmshare_version>
43012

> <i_f3d_flags>
0

> <s_epik_input>
W0NIMl0xW0NIMl1PW0NIMl1bQ0gyXU4xW0NIMl1bQ0BASF0oW0NIM10pW05IXUMoPU8pW0NASF0oW0NIM10pbjJbY0hdbltjSF1uMg==

> <s_epik_cmdline>
J2VwaWtfcHl0aG9uJywgJy1waCcsICc3LjAnLCAnLXRuJywgJzgnLCAnLW1hJywgJzIwMCcsICctbWV0YWxfYmluZGluZycsICctaW1hZScsICc8aW5maWxlLm1hZT4nLCAnLW9tYWUnLCAnPG91dGZpbGUubWFlPic=

> <r_lp_tautomer_probability>
1

> <r_epik_Ionization_Penalty>
0.211373

> <r_epik_Ionization_Penalty_Charging>
0

> <r_epik_Ionization_Penalty_Neutral>
0.211373

> <r_epik_State_Penalty>
0.201459

> <r_epik_Charging_Adjusted_Penalty>
0.201459

> <i_epik_Tot_Q>
0

> <i_epik_Tot_abs_Q>
0

> <r_epik_Metal_State_Penalty>
0.201458

> <b_epik_Metal_Only>
0

> <s_lp_Force_Field>
OPLS_2005

> <r_lp_Energy>
31.9389

> <b_lp_Chiralities_Consistent>
1

> <s_lp_Variant>
AV-unprocessed.smi:3345-3

> <Gold.Version>
5.8.1

> <Gold.Id.Protein>
6NUR|6NUR_protein|mol2

> <Gold.PLP.Fitness>
35.2982

> <Gold.PLP.PLP>
-33.3262

> <Gold.PLP.part.hbond>
-1.6591

> <Gold.PLP.part.metal>
0.0000

> <Gold.PLP.part.buried>
-2.7771

> <Gold.PLP.part.nonpolar>
-32.0897

> <Gold.PLP.part.repulsive>
4.7386

> <Gold.PLP.ligand.clash>
0.0000

> <Gold.PLP.ligand.torsion>
1.1138

> <Gold.PLP.Chemscore.Hbond>
1.3520

> <Gold.PLP.Chemscore.CHOScore>
0.0000

> <Gold.PLP.Chemscore.Metal>
0.0000

> <Gold.Chemscore.Hbonds>
donor molecule, donor type, donor heavy atom, donor atom, acceptor molecule, acceptor atom, score
      P1  H  7989  7998       L1    12  0.29
      P1  H  8011  8017       L1    12  0.90

> <Gold.PLP.Chemscore.Internal.Correction>
0.1436

> <Gold.Rescore>
     Score         DG    S(hbond)    S(metal)    S(lipo)     H(rot)  DE(clash)    DE(int)     intcor
      7.53     -12.35       1.20        0.00      79.82       2.54       1.43       3.39       ----

> <Gold.Chemscore.Fitness>
7.5255

> <Gold.Chemscore.DG>
-12.3461

> <Gold.Chemscore.ZeroCoef>
-5.4800

> <Gold.Chemscore.Hbond>
1.2029

> <Gold.Chemscore.Metal>
0.0000

> <Gold.Chemscore.Lipo>
79.8198

> <Gold.Chemscore.Internal_Hbond>
0.0000

> <Gold.Chemscore.DEClash>
1.4273

> <Gold.Chemscore.DEInternal>
3.3933

> <Gold.Chemscore.Rot>
2.5353

> <Gold.Chemscore.Internal.Correction>
   9.000000E+99

> <Gold.Chemscore.Hbonds>
donor molecule, donor type, donor heavy atom, donor atom, acceptor molecule, acceptor atom, score
      P1  H  7989  7998       L1    12  0.28
      P1  H  8011  8017       L1    12  0.18

> <Gold.Chemscore.Hbond.Weighted>
-4.0177

> <Gold.Chemscore.Metal.Weighted>
-0.0000

> <Gold.Chemscore.Lipo.Weighted>
-9.3389

> <Gold.Chemscore.Internal_Hbond.Weighted>
0.0000

> <Gold.Chemscore.DEClash.Weighted>
1.4273

> <Gold.Chemscore.DEInternal.Weighted>
3.3933

> <Gold.Chemscore.Rot.Weighted>
6.4905

> <Gold.Chemscore.Internal.Correction.Weighted>
   9.000000E+99

> <Gold.Protein.RotatedTorsions>
[ 6907 6896 6895 6894 ] final  100.01 input  -60.11 | X-H torsion
[ 7974 7965 7964 7962 ] final  -80.81 input  175.53 | X-H torsion
[ 8008 7997 7996 7995 ] final  171.67 input   59.86 | X-H torsion
[ 10167 10162 10161 10158 ] final -179.10 input  -65.29 | X-H torsion
[ 10718 10713 10712 10709 ] final   77.06 input   66.30 | X-H torsion
[ 10763 10752 10751 10750 ] final -111.82 input  -60.55 | X-H torsion
[ 11005 11000 10999 10996 ] final -117.18 input  -57.11 | X-H torsion

> <Gold.Protein.ActiveResidues>
 VAL166  LYS551  ARG553  GLY616  TRP617  ASP618  TYR619  PRO620  LYS621  CYS622 
 ASP623  PHE694  ASN695  SER759  ASP760  ASP761  ALA762  ILE779  LEU786  VAL792 
 PHE793  MET794  SER795  GLU796  ALA797  LYS798  CYS799  TRP800  GLU811  SER814 

> <Gold.Protein.RotatedAtoms>
  152.5381  134.0342  159.8038 H   0  0  0  0  0  0  0  0  0  0  0  0  # atno 6907 bound_to 6896
  151.0508  133.5618  159.2649 H   0  0  0  0  0  0  0  0  0  0  0  0  # atno 6908 bound_to 6896
  151.2553  135.0643  159.9131 H   0  0  0  0  0  0  0  0  0  0  0  0  # atno 6909 bound_to 6896
  145.5550  140.9491  143.1478 H   0  0  0  0  0  0  0  0  0  0  0  0  # atno 7974 bound_to 7965
  156.1249  140.1506  156.9151 H   0  0  0  0  0  0  0  0  0  0  0  0  # atno 8008 bound_to 7997
  154.4864  140.0864  156.7536 H   0  0  0  0  0  0  0  0  0  0  0  0  # atno 8009 bound_to 7997
  155.4362  140.3429  155.4287 H   0  0  0  0  0  0  0  0  0  0  0  0  # atno 8010 bound_to 7997
  139.5401  144.2386  152.0878 H   0  0  0  0  0  0  0  0  0  0  0  0  # atno 10167 bound_to 10162
  157.6697  130.9804  150.1587 H   0  0  0  0  0  0  0  0  0  0  0  0  # atno 10718 bound_to 10713
  154.8319  135.4513  154.1098 H   0  0  0  0  0  0  0  0  0  0  0  0  # atno 10763 bound_to 10752
  153.2364  135.6911  153.7838 H   0  0  0  0  0  0  0  0  0  0  0  0  # atno 10764 bound_to 10752
  153.7202  135.3343  155.3241 H   0  0  0  0  0  0  0  0  0  0  0  0  # atno 10765 bound_to 10752
  141.0372  133.9891  157.3052 H   0  0  0  0  0  0  0  0  0  0  0  0  # atno 11005 bound_to 11000
  144.7511  139.7192  143.7273 LP  0  0  0  0  0  0  0  0  0  0  0  0  # atno 17320 bound_to 7965
  146.1891  139.5121  142.9817 LP  0  0  0  0  0  0  0  0  0  0  0  0  # atno 17321 bound_to 7965
  140.1863  144.4795  150.6502 LP  0  0  0  0  0  0  0  0  0  0  0  0  # atno 17342 bound_to 10162
  140.6627  143.2257  151.5817 LP  0  0  0  0  0  0  0  0  0  0  0  0  # atno 17343 bound_to 10162
  156.2368  130.3687  149.8382 LP  0  0  0  0  0  0  0  0  0  0  0  0  # atno 17370 bound_to 10713
  156.6193  130.8619  151.3472 LP  0  0  0  0  0  0  0  0  0  0  0  0  # atno 17371 bound_to 10713
  139.9249  135.0201  156.8199 LP  0  0  0  0  0  0  0  0  0  0  0  0  # atno 17394 bound_to 11000
  140.6301  133.9914  155.7658 LP  0  0  0  0  0  0  0  0  0  0  0  0  # atno 17395 bound_to 11000

$$$$
