AV-unprocessed.smi:2090|AV-procd|sdf|8537|dock1
  -GOLD-   2272011253D 1   1.00000     0.00000
 Structure written by MMmdl.
 41 42  0  0  0  0  0  0  0  0  3 V2000
  154.4571  137.9256  154.7714 C   0  0  0  0  0  0  0  0  0  0  0  0
  153.0480  138.3696  154.5749 C   0  0  0  0  0  0  0  0  0  0  0  0
  151.9471  137.7584  154.0448 C   0  0  0  0  0  0  0  0  0  0  0  0
  150.9385  138.7512  154.1660 C   0  0  0  0  0  0  0  0  0  0  0  0
  149.6152  138.4969  153.7180 N   0  0  0  0  0  0  0  0  0  0  0  0
  148.4545  138.9723  154.2052 C   0  0  0  0  0  0  0  0  0  0  0  0
  148.4512  139.7436  155.1722 O   0  0  0  0  0  0  0  0  0  0  0  0
  147.3757  138.5006  153.5203 N   0  5  0  0  0  0  0  0  0  0  0  0
  146.1685  137.9557  154.1394 C   0  0  0  0  0  0  0  0  0  0  0  0
  146.2949  136.4274  154.3057 C   0  0  0  0  0  0  0  0  0  0  0  0
  146.2252  135.7216  152.9988 N   0  3  2  0  0  0  0  0  0  0  0  0
  145.0477  136.1134  152.1751 C   0  0  0  0  0  0  0  0  0  0  0  0
  145.1114  135.4743  150.7765 C   0  0  0  0  0  0  0  0  0  0  0  0
  145.2373  133.9411  150.8428 C   0  0  2  0  0  0  0  0  0  0  0  0
  143.9221  133.2525  151.2478 C   0  0  0  0  0  0  0  0  0  0  0  0
  146.4144  133.5623  151.7602 C   0  0  0  0  0  0  0  0  0  0  0  0
  146.3257  134.2453  153.1368 C   0  0  0  0  0  0  0  0  0  0  0  0
  151.3850  139.8679  154.7221 N   0  0  0  0  0  0  0  0  0  0  0  0
  152.7389  139.6293  154.9857 O   0  0  0  0  0  0  0  0  0  0  0  0
  154.5102  136.8427  154.8845 H   0  0  0  0  0  0  0  0  0  0  0  0
  154.8880  138.3791  155.6641 H   0  0  0  0  0  0  0  0  0  0  0  0
  155.0725  138.2076  153.9169 H   0  0  0  0  0  0  0  0  0  0  0  0
  151.8766  136.7616  153.6354 H   0  0  0  0  0  0  0  0  0  0  0  0
  149.5355  137.8775  152.9253 H   0  0  0  0  0  0  0  0  0  0  0  0
  145.9665  138.4084  155.1110 H   0  0  0  0  0  0  0  0  0  0  0  0
  145.2872  138.1693  153.5342 H   0  0  0  0  0  0  0  0  0  0  0  0
  147.2504  136.2195  154.7904 H   0  0  0  0  0  0  0  0  0  0  0  0
  145.5289  136.0375  154.9781 H   0  0  0  0  0  0  0  0  0  0  0  0
  144.1291  135.8223  152.6861 H   0  0  0  0  0  0  0  0  0  0  0  0
  145.0102  137.1978  152.0675 H   0  0  0  0  0  0  0  0  0  0  0  0
  144.2332  135.7580  150.1952 H   0  0  0  0  0  0  0  0  0  0  0  0
  145.9712  135.8807  150.2419 H   0  0  0  0  0  0  0  0  0  0  0  0
  145.4742  133.5860  149.8391 H   0  0  0  0  0  0  0  0  0  0  0  0
  143.5950  133.5423  152.2461 H   0  0  0  0  0  0  0  0  0  0  0  0
  144.0315  132.1677  151.2396 H   0  0  0  0  0  0  0  0  0  0  0  0
  143.1205  133.5042  150.5528 H   0  0  0  0  0  0  0  0  0  0  0  0
  146.4663  132.4798  151.8815 H   0  0  0  0  0  0  0  0  0  0  0  0
  147.3491  133.8570  151.2807 H   0  0  0  0  0  0  0  0  0  0  0  0
  147.2165  133.9922  153.7128 H   0  0  0  0  0  0  0  0  0  0  0  0
  145.4700  133.8702  153.6999 H   0  0  0  0  0  0  0  0  0  0  0  0
  147.0487  136.0104  152.4903 H   0  0  0  0  0  0  0  0  0  0  0  0
  1  2  1  0  0  0  0
  1 20  1  0  0  0  0
  1 21  1  0  0  0  0
  1 22  1  0  0  0  0
  2 19  1  0  0  0  0
  2  3  2  0  0  0  0
  3  4  1  0  0  0  0
  3 23  1  0  0  0  0
  4  5  1  0  0  0  0
  4 18  2  0  0  0  0
  5  6  1  0  0  0  0
  5 24  1  0  0  0  0
  6  7  2  0  0  0  0
  6  8  1  0  0  0  0
  8  9  1  0  0  0  0
  9 10  1  0  0  0  0
  9 25  1  0  0  0  0
  9 26  1  0  0  0  0
 10 11  1  0  0  0  0
 10 27  1  0  0  0  0
 10 28  1  0  0  0  0
 11 17  1  0  0  0  0
 11 12  1  0  0  0  0
 11 41  1  0  0  0  0
 12 13  1  0  0  0  0
 12 29  1  0  0  0  0
 12 30  1  0  0  0  0
 13 14  1  0  0  0  0
 13 31  1  0  0  0  0
 13 32  1  0  0  0  0
 14 15  1  0  0  0  0
 14 16  1  0  0  0  0
 14 33  1  0  0  0  0
 15 34  1  0  0  0  0
 15 35  1  0  0  0  0
 15 36  1  0  0  0  0
 16 17  1  0  0  0  0
 16 37  1  0  0  0  0
 16 38  1  0  0  0  0
 17 39  1  0  0  0  0
 17 40  1  0  0  0  0
 18 19  1  0  0  0  0
M  CHG  1   8  -1
M  CHG  1  11   1
M  END
> <s_m_source_file>
AV-unprocessed.smi

> <i_m_source_file_index>
2090

> <i_lp_mmshare_version>
43012

> <i_f3d_flags>
0

> <s_epik_input>
W0NIM11jMVtjSF1jKG5vMSlbTkhdQyg9TylbTkhdW0NIMl1bQ0gyXU4yW0NIMl1bQ0gyXVtDSF0oW0NIM10pW0NIMl1bQ0gyXTI=

> <s_epik_cmdline>
J2VwaWtfcHl0aG9uJywgJy1waCcsICc3LjAnLCAnLXRuJywgJzgnLCAnLW1hJywgJzIwMCcsICctbWV0YWxfYmluZGluZycsICctaW1hZScsICc8aW5maWxlLm1hZT4nLCAnLW9tYWUnLCAnPG91dGZpbGUubWFlPic=

> <r_epik_Ionization_Penalty>
6.7721

> <r_epik_Ionization_Penalty_Charging>
6.7721

> <r_epik_Ionization_Penalty_Neutral>
5.78572e-06

> <r_epik_State_Penalty>
6.79704

> <r_epik_Charging_Adjusted_Penalty>
13.5691

> <i_epik_Tot_Q>
0

> <i_epik_Tot_abs_Q>
2

> <r_epik_Metal_State_Penalty>
2.73105

> <b_epik_Metal_Only>
1

> <s_lp_Force_Field>
OPLS_2005

> <r_lp_Energy>
13.6419

> <b_lp_Chiralities_Consistent>
1

> <s_lp_Variant>
AV-unprocessed.smi:2090-6

> <Gold.Version>
5.8.1

> <Gold.Id.Protein>
6NUR|6NUR_protein|mol2

> <Gold.PLP.Fitness>
41.2635

> <Gold.PLP.PLP>
-28.1196

> <Gold.PLP.part.hbond>
-6.0000

> <Gold.PLP.part.metal>
0.0000

> <Gold.PLP.part.buried>
-0.1496

> <Gold.PLP.part.nonpolar>
-23.4904

> <Gold.PLP.part.repulsive>
0.4199

> <Gold.PLP.ligand.clash>
0.0000

> <Gold.PLP.ligand.torsion>
0.8396

> <Gold.PLP.Chemscore.Hbond>
4.8913

> <Gold.PLP.Chemscore.CHOScore>
0.0000

> <Gold.PLP.Chemscore.Metal>
0.0000

> <Gold.Chemscore.Hbonds>
donor molecule, donor type, donor heavy atom, donor atom, acceptor molecule, acceptor atom, score
      L1  H     5    24       P1  7948  1.00
      L1  H    11    41       P1  7948  2.00
      P1  H  7989  7998       L1    18  0.75
      P1  H  7997  8008       L1    19  1.00

> <Gold.PLP.Chemscore.Internal.Correction>
0.1494

> <Gold.Rescore>
     Score         DG    S(hbond)    S(metal)    S(lipo)     H(rot)  DE(clash)    DE(int)     intcor
     13.16     -17.96       2.65        0.00      64.61       1.54       2.82       1.97       ----

> <Gold.Chemscore.Fitness>
13.1649

> <Gold.Chemscore.DG>
-17.9580

> <Gold.Chemscore.ZeroCoef>
-5.4800

> <Gold.Chemscore.Hbond>
2.6537

> <Gold.Chemscore.Metal>
0.0000

> <Gold.Chemscore.Lipo>
64.6082

> <Gold.Chemscore.Internal_Hbond>
0.0000

> <Gold.Chemscore.DEClash>
2.8208

> <Gold.Chemscore.DEInternal>
1.9723

> <Gold.Chemscore.Rot>
1.5409

> <Gold.Chemscore.Internal.Correction>
   9.000000E+99

> <Gold.Chemscore.Hbonds>
donor molecule, donor type, donor heavy atom, donor atom, acceptor molecule, acceptor atom, score
      L1  H     5    24       P1  7948  0.78
      L1  H    11    41       P1  7948  0.96
      P1  H  7989  7998       L1    18  0.05
      P1  H  7997  8008       L1    19  0.33

> <Gold.Chemscore.Hbond.Weighted>
-8.8634

> <Gold.Chemscore.Metal.Weighted>
-0.0000

> <Gold.Chemscore.Lipo.Weighted>
-7.5592

> <Gold.Chemscore.Internal_Hbond.Weighted>
0.0000

> <Gold.Chemscore.DEClash.Weighted>
2.8208

> <Gold.Chemscore.DEInternal.Weighted>
1.9723

> <Gold.Chemscore.Rot.Weighted>
3.9446

> <Gold.Chemscore.Internal.Correction.Weighted>
   9.000000E+99

> <Gold.Protein.RotatedTorsions>
[ 6907 6896 6895 6894 ] final  115.43 input  -60.11 | X-H torsion
[ 7974 7965 7964 7962 ] final  166.35 input  175.53 | X-H torsion
[ 8008 7997 7996 7995 ] final  -16.30 input   59.86 | X-H torsion
[ 10167 10162 10161 10158 ] final   22.76 input  -65.29 | X-H torsion
[ 10718 10713 10712 10709 ] final -116.85 input   66.30 | X-H torsion
[ 10763 10752 10751 10750 ] final  106.64 input  -60.55 | X-H torsion
[ 11005 11000 10999 10996 ] final -156.36 input  -57.11 | X-H torsion

> <Gold.Protein.ActiveResidues>
 VAL166  LYS551  ARG553  GLY616  TRP617  ASP618  TYR619  PRO620  LYS621  CYS622 
 ASP623  PHE694  ASN695  SER759  ASP760  ASP761  ALA762  ILE779  LEU786  VAL792 
 PHE793  MET794  SER795  GLU796  ALA797  LYS798  CYS799  TRP800  GLU811  SER814 

> <Gold.Protein.RotatedAtoms>
  152.4742  133.8099  159.6997 H   0  0  0  0  0  0  0  0  0  0  0  0  # atno 6907 bound_to 6896
  150.8749  133.7444  159.2956 H   0  0  0  0  0  0  0  0  0  0  0  0  # atno 6908 bound_to 6896
  151.4967  135.1063  159.9870 H   0  0  0  0  0  0  0  0  0  0  0  0  # atno 6909 bound_to 6896
  144.7466  139.8602  143.6380 H   0  0  0  0  0  0  0  0  0  0  0  0  # atno 7974 bound_to 7965
  154.5064  140.2173  155.9243 H   0  0  0  0  0  0  0  0  0  0  0  0  # atno 8008 bound_to 7997
  156.1498  140.3163  155.8597 H   0  0  0  0  0  0  0  0  0  0  0  0  # atno 8009 bound_to 7997
  155.3960  140.0481  157.3029 H   0  0  0  0  0  0  0  0  0  0  0  0  # atno 8010 bound_to 7997
  140.5322  143.9821  150.6472 H   0  0  0  0  0  0  0  0  0  0  0  0  # atno 10167 bound_to 10162
  156.0992  130.6158  150.9088 H   0  0  0  0  0  0  0  0  0  0  0  0  # atno 10718 bound_to 10713
  153.3958  135.3870  155.1954 H   0  0  0  0  0  0  0  0  0  0  0  0  # atno 10763 bound_to 10752
  154.8724  135.3759  154.4680 H   0  0  0  0  0  0  0  0  0  0  0  0  # atno 10764 bound_to 10752
  153.5172  135.7087  153.5812 H   0  0  0  0  0  0  0  0  0  0  0  0  # atno 10765 bound_to 10752
  140.6765  134.4191  157.5229 H   0  0  0  0  0  0  0  0  0  0  0  0  # atno 11005 bound_to 11000
  146.1354  139.4398  143.0142 LP  0  0  0  0  0  0  0  0  0  0  0  0  # atno 17320 bound_to 7965
  145.7100  141.0109  143.1458 LP  0  0  0  0  0  0  0  0  0  0  0  0  # atno 17321 bound_to 7965
  140.3199  143.3144  152.0794 LP  0  0  0  0  0  0  0  0  0  0  0  0  # atno 17342 bound_to 10162
  139.4958  144.6580  151.6528 LP  0  0  0  0  0  0  0  0  0  0  0  0  # atno 17343 bound_to 10162
  157.6159  131.0933  150.8711 LP  0  0  0  0  0  0  0  0  0  0  0  0  # atno 17370 bound_to 10713
  156.8843  130.5190  149.5289 LP  0  0  0  0  0  0  0  0  0  0  0  0  # atno 17371 bound_to 10713
  139.8965  134.8658  156.2084 LP  0  0  0  0  0  0  0  0  0  0  0  0  # atno 17394 bound_to 11000
  141.0351  133.6967  156.1499 LP  0  0  0  0  0  0  0  0  0  0  0  0  # atno 17395 bound_to 11000

$$$$
