AV-unprocessed.smi:1721|AV-procd|sdf|6939|dock3
  -GOLD-   22720 8143D 1   1.00000     0.00000
 Structure written by MMmdl.
 44 46  0  0  0  0  0  0  0  0  2 V2000
  151.4476  138.1421  154.3933 C   0  0  0  0  0  0  0  0  0  0  0  0
  150.1225  138.1796  153.8743 O   0  0  0  0  0  0  0  0  0  0  0  0
  149.4087  139.3589  153.9734 C   0  0  0  0  0  0  0  0  0  0  0  0
  149.9902  140.4146  154.5963 N   0  0  0  0  0  0  0  0  0  0  0  0
  149.2932  141.5650  154.6975 C   0  0  0  0  0  0  0  0  0  0  0  0
  147.9888  141.7220  154.1946 C   0  0  0  0  0  0  0  0  0  0  0  0
  147.3836  140.6287  153.5477 C   0  0  0  0  0  0  0  0  0  0  0  0
  148.1087  139.4192  153.4191 C   0  0  0  0  0  0  0  0  0  0  0  0
  147.5860  138.2503  152.8001 N   0  0  0  0  0  0  0  0  0  0  0  0
  146.3009  137.9233  152.5843 C   0  0  0  0  0  0  0  0  0  0  0  0
  145.3275  138.6042  152.9055 O   0  0  0  0  0  0  0  0  0  0  0  0
  146.2011  136.7543  151.9352 N   0  0  0  0  0  0  0  0  0  0  0  0
  144.9481  136.1143  151.5365 C   0  0  2  0  0  0  0  0  0  0  0  0
  143.9331  136.0112  152.6916 C   0  0  0  0  0  0  0  0  0  0  0  0
  143.3073  134.6213  152.5363 C   0  0  0  0  0  0  0  0  0  0  0  0
  144.4131  133.8214  151.9971 N   0  3  1  0  0  0  0  0  0  0  0  0
  144.1200  132.4681  151.4829 C   0  0  0  0  0  0  0  0  0  0  0  0
  145.4572  131.7720  151.1494 C   0  0  0  0  0  0  0  0  0  0  0  0
  146.3486  132.6294  150.2223 C   0  0  0  0  0  0  0  0  0  0  0  0
  146.5094  134.0709  150.7520 C   0  0  0  0  0  0  0  0  0  0  0  0
  145.1144  134.6664  151.0150 C   0  0  2  0  0  0  0  0  0  0  0  0
  151.8681  137.1490  154.2363 H   0  0  0  0  0  0  0  0  0  0  0  0
  151.4620  138.3418  155.4656 H   0  0  0  0  0  0  0  0  0  0  0  0
  152.0953  138.8591  153.8866 H   0  0  0  0  0  0  0  0  0  0  0  0
  149.7884  142.3826  155.2000 H   0  0  0  0  0  0  0  0  0  0  0  0
  147.4625  142.6584  154.3064 H   0  0  0  0  0  0  0  0  0  0  0  0
  146.3758  140.7349  153.1776 H   0  0  0  0  0  0  0  0  0  0  0  0
  148.2767  137.6297  152.4038 H   0  0  0  0  0  0  0  0  0  0  0  0
  147.0553  136.2668  151.7069 H   0  0  0  0  0  0  0  0  0  0  0  0
  144.4891  136.7099  150.7445 H   0  0  0  0  0  0  0  0  0  0  0  0
  144.4455  136.0681  153.6534 H   0  0  0  0  0  0  0  0  0  0  0  0
  143.1883  136.8075  152.6694 H   0  0  0  0  0  0  0  0  0  0  0  0
  142.9334  134.2195  153.4785 H   0  0  0  0  0  0  0  0  0  0  0  0
  142.4858  134.6467  151.8185 H   0  0  0  0  0  0  0  0  0  0  0  0
  143.5760  131.8970  152.2362 H   0  0  0  0  0  0  0  0  0  0  0  0
  143.4819  132.5307  150.5999 H   0  0  0  0  0  0  0  0  0  0  0  0
  145.9969  131.5746  152.0765 H   0  0  0  0  0  0  0  0  0  0  0  0
  145.2693  130.7997  150.6927 H   0  0  0  0  0  0  0  0  0  0  0  0
  147.3265  132.1620  150.1053 H   0  0  0  0  0  0  0  0  0  0  0  0
  145.9036  132.6609  149.2268 H   0  0  0  0  0  0  0  0  0  0  0  0
  147.1024  134.0699  151.6677 H   0  0  0  0  0  0  0  0  0  0  0  0
  147.0518  134.6705  150.0207 H   0  0  0  0  0  0  0  0  0  0  0  0
  144.5510  134.6152  150.0805 H   0  0  0  0  0  0  0  0  0  0  0  0
  145.0556  133.7010  152.7670 H   0  0  0  0  0  0  0  0  0  0  0  0
  1  2  1  0  0  0  0
  1 22  1  0  0  0  0
  1 23  1  0  0  0  0
  1 24  1  0  0  0  0
  2  3  1  0  0  0  0
  3  8  1  0  0  0  0
  3  4  2  0  0  0  0
  4  5  1  0  0  0  0
  5  6  2  0  0  0  0
  5 25  1  0  0  0  0
  6  7  1  0  0  0  0
  6 26  1  0  0  0  0
  7  8  2  0  0  0  0
  7 27  1  0  0  0  0
  8  9  1  0  0  0  0
  9 10  1  0  0  0  0
  9 28  1  0  0  0  0
 10 11  2  0  0  0  0
 10 12  1  0  0  0  0
 12 13  1  0  0  0  0
 12 29  1  0  0  0  0
 13 21  1  0  0  0  0
 13 14  1  0  0  0  0
 13 30  1  0  0  0  0
 14 15  1  0  0  0  0
 14 31  1  0  0  0  0
 14 32  1  0  0  0  0
 15 16  1  0  0  0  0
 15 33  1  0  0  0  0
 15 34  1  0  0  0  0
 16 21  1  0  0  0  0
 16 17  1  0  0  0  0
 16 44  1  0  0  0  0
 17 18  1  0  0  0  0
 17 35  1  0  0  0  0
 17 36  1  0  0  0  0
 18 19  1  0  0  0  0
 18 37  1  0  0  0  0
 18 38  1  0  0  0  0
 19 20  1  0  0  0  0
 19 39  1  0  0  0  0
 19 40  1  0  0  0  0
 20 21  1  0  0  0  0
 20 41  1  0  0  0  0
 20 42  1  0  0  0  0
 21 43  1  0  0  0  0
M  CHG  1  16   1
M  END
> <s_m_source_file>
AV-unprocessed.smi

> <i_m_source_file_index>
1721

> <i_lp_mmshare_version>
43012

> <i_f3d_flags>
0

> <s_epik_input>
W0NIM11PYzFuW2NIXVtjSF1bY0hdYzFbTkhdQyg9TylbTkhdW0NASF0oW0NIMl1bQ0gyXTIpW0NAQEhdKE4yMylbQ0gyXVtDSDJdW0NIMl1bQ0gyXTM=

> <s_epik_cmdline>
J2VwaWtfcHl0aG9uJywgJy1waCcsICc3LjAnLCAnLXRuJywgJzgnLCAnLW1hJywgJzIwMCcsICctbWV0YWxfYmluZGluZycsICctaW1hZScsICc8aW5maWxlLm1hZT4nLCAnLW9tYWUnLCAnPG91dGZpbGUubWFlPic=

> <r_lp_tautomer_probability>
1

> <r_epik_Ionization_Penalty>
0.00104793

> <r_epik_Ionization_Penalty_Charging>
0.000974069

> <r_epik_Ionization_Penalty_Neutral>
7.38649e-05

> <r_epik_State_Penalty>
0.000633842

> <r_epik_Charging_Adjusted_Penalty>
0.00160791

> <i_epik_Tot_Q>
1

> <i_epik_Tot_abs_Q>
1

> <r_epik_Metal_State_Penalty>
-0

> <b_epik_Metal_Only>
0

> <s_lp_Force_Field>
OPLS_2005

> <r_lp_Energy>
43.7376

> <b_lp_Chiralities_Consistent>
1

> <s_lp_Variant>
AV-unprocessed.smi:1721-5

> <Gold.Version>
5.8.1

> <Gold.Id.Protein>
6NUR|6NUR_protein|mol2

> <Gold.PLP.Fitness>
44.9558

> <Gold.PLP.PLP>
-33.8287

> <Gold.PLP.part.hbond>
-3.6150

> <Gold.PLP.part.metal>
0.0000

> <Gold.PLP.part.buried>
-0.5251

> <Gold.PLP.part.nonpolar>
-33.9932

> <Gold.PLP.part.repulsive>
5.2888

> <Gold.PLP.ligand.clash>
0.0000

> <Gold.PLP.ligand.torsion>
0.1928

> <Gold.PLP.Chemscore.Hbond>
2.8799

> <Gold.PLP.Chemscore.CHOScore>
0.9573

> <Gold.PLP.Chemscore.Metal>
0.0000

> <Gold.Chemscore.Hbonds>
donor molecule, donor type, donor heavy atom, donor atom, acceptor molecule, acceptor atom, score
      L1  H     9    28       P1  7948  1.00
      L1  H    12    29       P1  7948  0.96
      P1  H  7989  7998       L1     4  0.93
      L1  C     5    25       P1  8028  0.93

> <Gold.PLP.Chemscore.Internal.Correction>
0.0012

> <Gold.Rescore>
     Score         DG    S(hbond)    S(metal)    S(lipo)     H(rot)  DE(clash)    DE(int)     intcor
     14.57     -19.55       2.08        0.00      88.19       1.25       2.50       2.48       ----

> <Gold.Chemscore.Fitness>
14.5712

> <Gold.Chemscore.DG>
-19.5503

> <Gold.Chemscore.ZeroCoef>
-5.4800

> <Gold.Chemscore.Hbond>
2.0795

> <Gold.Chemscore.Metal>
0.0000

> <Gold.Chemscore.Lipo>
88.1892

> <Gold.Chemscore.Internal_Hbond>
0.0000

> <Gold.Chemscore.DEClash>
2.5020

> <Gold.Chemscore.DEInternal>
2.4771

> <Gold.Chemscore.Rot>
1.2474

> <Gold.Chemscore.Internal.Correction>
   9.000000E+99

> <Gold.Chemscore.Hbonds>
donor molecule, donor type, donor heavy atom, donor atom, acceptor molecule, acceptor atom, score
      L1  H     9    28       P1  7948  0.99
      L1  H    12    29       P1  7948  0.92
      P1  H  7989  7998       L1     4  0.23

> <Gold.Chemscore.Hbond.Weighted>
-6.9456

> <Gold.Chemscore.Metal.Weighted>
-0.0000

> <Gold.Chemscore.Lipo.Weighted>
-10.3181

> <Gold.Chemscore.Internal_Hbond.Weighted>
0.0000

> <Gold.Chemscore.DEClash.Weighted>
2.5020

> <Gold.Chemscore.DEInternal.Weighted>
2.4771

> <Gold.Chemscore.Rot.Weighted>
3.1934

> <Gold.Chemscore.Internal.Correction.Weighted>
   9.000000E+99

> <Gold.Protein.RotatedTorsions>
[ 6907 6896 6895 6894 ] final -105.74 input  -60.11 | X-H torsion
[ 7974 7965 7964 7962 ] final  -70.60 input  175.53 | X-H torsion
[ 8008 7997 7996 7995 ] final   91.70 input   59.86 | X-H torsion
[ 10167 10162 10161 10158 ] final   -1.65 input  -65.29 | X-H torsion
[ 10718 10713 10712 10709 ] final -102.23 input   66.30 | X-H torsion
[ 10763 10752 10751 10750 ] final   -3.86 input  -60.55 | X-H torsion
[ 11005 11000 10999 10996 ] final  -20.73 input  -57.11 | X-H torsion

> <Gold.Protein.ActiveResidues>
 VAL166  LYS551  ARG553  GLY616  TRP617  ASP618  TYR619  PRO620  LYS621  CYS622 
 ASP623  PHE694  ASN695  SER759  ASP760  ASP761  ALA762  ILE779  LEU786  VAL792 
 PHE793  MET794  SER795  GLU796  ALA797  LYS798  CYS799  TRP800  GLU811  SER814 

> <Gold.Protein.RotatedAtoms>
  150.7352  134.0081  159.3660 H   0  0  0  0  0  0  0  0  0  0  0  0  # atno 6907 bound_to 6896
  151.8039  135.0698  160.0413 H   0  0  0  0  0  0  0  0  0  0  0  0  # atno 6908 bound_to 6896
  152.3121  133.5727  159.5724 H   0  0  0  0  0  0  0  0  0  0  0  0  # atno 6909 bound_to 6896
  145.6888  140.9160  143.0792 H   0  0  0  0  0  0  0  0  0  0  0  0  # atno 7974 bound_to 7965
  156.0269  140.3334  155.7097 H   0  0  0  0  0  0  0  0  0  0  0  0  # atno 8008 bound_to 7997
  155.5942  140.0649  157.2768 H   0  0  0  0  0  0  0  0  0  0  0  0  # atno 8009 bound_to 7997
  154.4337  140.1822  156.1094 H   0  0  0  0  0  0  0  0  0  0  0  0  # atno 8010 bound_to 7997
  140.6819  143.6750  150.8153 H   0  0  0  0  0  0  0  0  0  0  0  0  # atno 10167 bound_to 10162
  156.0221  130.5410  150.7078 H   0  0  0  0  0  0  0  0  0  0  0  0  # atno 10718 bound_to 10713
  153.3771  135.6997  153.6594 H   0  0  0  0  0  0  0  0  0  0  0  0  # atno 10763 bound_to 10752
  153.5220  135.3610  155.2637 H   0  0  0  0  0  0  0  0  0  0  0  0  # atno 10764 bound_to 10752
  154.8688  135.4160  154.3061 H   0  0  0  0  0  0  0  0  0  0  0  0  # atno 10765 bound_to 10752
  140.8493  133.7868  155.9948 H   0  0  0  0  0  0  0  0  0  0  0  0  # atno 11005 bound_to 11000
  144.7003  139.8794  143.7446 LP  0  0  0  0  0  0  0  0  0  0  0  0  # atno 17320 bound_to 7965
  146.0900  139.3889  143.0412 LP  0  0  0  0  0  0  0  0  0  0  0  0  # atno 17321 bound_to 7965
  140.0452  143.5306  152.2699 LP  0  0  0  0  0  0  0  0  0  0  0  0  # atno 17342 bound_to 10162
  139.6147  144.7617  151.2872 LP  0  0  0  0  0  0  0  0  0  0  0  0  # atno 17343 bound_to 10162
  157.4724  131.0894  151.0628 LP  0  0  0  0  0  0  0  0  0  0  0  0  # atno 17370 bound_to 10713
  157.1085  130.6011  149.5476 LP  0  0  0  0  0  0  0  0  0  0  0  0  # atno 17371 bound_to 10713
  140.8808  134.2613  157.5145 LP  0  0  0  0  0  0  0  0  0  0  0  0  # atno 17394 bound_to 11000
  139.8704  134.9614  156.4395 LP  0  0  0  0  0  0  0  0  0  0  0  0  # atno 17395 bound_to 11000

$$$$
