AV-unprocessed.smi:1370|AV-procd|sdf|5580|dock5
  -GOLD-   22720 5173D 1   1.00000     0.00000
 Structure written by MMmdl.
 39 40  0  0  0  0  0  0  0  0  1 V2000
  147.0229  137.6718  154.6086 O   0  0  0  0  0  0  0  0  0  0  0  0
  146.4417  138.4773  153.8800 C   0  0  0  0  0  0  0  0  0  0  0  0
  147.1236  139.7836  153.4493 C   0  0  0  0  0  0  0  0  0  0  0  0
  148.3807  140.0485  154.1682 N   0  0  0  0  0  0  0  0  0  0  0  0
  149.3664  139.0421  154.1302 C   0  0  0  0  0  0  0  0  0  0  0  0
  150.5482  139.1819  154.7518 C   0  0  0  0  0  0  0  0  0  0  0  0
  150.7987  140.4066  155.4737 C   0  0  0  0  0  0  0  0  0  0  0  0
  149.8614  141.3740  155.5197 C   0  0  0  0  0  0  0  0  0  0  0  0
  148.5666  141.2235  154.8454 C   0  0  0  0  0  0  0  0  0  0  0  0
  147.7029  142.1004  154.8861 O   0  0  0  0  0  0  0  0  0  0  0  0
  145.2085  138.2711  153.3948 N   0  0  0  0  0  0  0  0  0  0  0  0
  144.3936  137.0864  153.6439 C   0  0  0  0  0  0  0  0  0  0  0  0
  143.8993  136.4450  152.3373 C   0  0  0  0  0  0  0  0  0  0  0  0
  143.4133  134.7107  152.5716 S   0  0  0  0  0  0  0  0  0  0  0  0
  144.2199  133.9516  151.1331 C   0  0  0  0  0  0  0  0  0  0  0  0
  143.9918  132.4425  151.0647 C   0  0  0  0  0  0  0  0  0  0  0  0
  145.1016  131.9481  150.1384 C   0  0  0  0  0  0  0  0  0  0  0  0
  146.2999  132.8661  150.4140 C   0  0  0  0  0  0  0  0  0  0  0  0
  145.7463  134.0991  151.1459 C   0  0  0  0  0  0  0  0  0  0  0  0
  147.3017  139.7320  152.3745 H   0  0  0  0  0  0  0  0  0  0  0  0
  146.4322  140.6179  153.5828 H   0  0  0  0  0  0  0  0  0  0  0  0
  149.0975  138.1552  153.5750 H   0  0  0  0  0  0  0  0  0  0  0  0
  151.2897  138.3975  154.7159 H   0  0  0  0  0  0  0  0  0  0  0  0
  151.7419  140.5478  155.9806 H   0  0  0  0  0  0  0  0  0  0  0  0
  150.0665  142.2834  156.0652 H   0  0  0  0  0  0  0  0  0  0  0  0
  144.8093  138.9797  152.7964 H   0  0  0  0  0  0  0  0  0  0  0  0
  144.9630  136.3599  154.2259 H   0  0  0  0  0  0  0  0  0  0  0  0
  143.5434  137.3750  154.2622 H   0  0  0  0  0  0  0  0  0  0  0  0
  143.0547  137.0036  151.9328 H   0  0  0  0  0  0  0  0  0  0  0  0
  144.6911  136.4844  151.5892 H   0  0  0  0  0  0  0  0  0  0  0  0
  143.8204  134.4053  150.2248 H   0  0  0  0  0  0  0  0  0  0  0  0
  144.1145  131.9973  152.0533 H   0  0  0  0  0  0  0  0  0  0  0  0
  142.9969  132.1834  150.7020 H   0  0  0  0  0  0  0  0  0  0  0  0
  145.3363  130.8950  150.2950 H   0  0  0  0  0  0  0  0  0  0  0  0
  144.7859  132.0643  149.1009 H   0  0  0  0  0  0  0  0  0  0  0  0
  147.0353  132.3594  151.0402 H   0  0  0  0  0  0  0  0  0  0  0  0
  146.7992  133.1414  149.4846 H   0  0  0  0  0  0  0  0  0  0  0  0
  146.0668  135.0308  150.6789 H   0  0  0  0  0  0  0  0  0  0  0  0
  146.1173  134.1048  152.1719 H   0  0  0  0  0  0  0  0  0  0  0  0
  1  2  2  0  0  0  0
  2  3  1  0  0  0  0
  2 11  1  0  0  0  0
  3  4  1  0  0  0  0
  3 20  1  0  0  0  0
  3 21  1  0  0  0  0
  4  9  1  0  0  0  0
  4  5  1  0  0  0  0
  5  6  2  0  0  0  0
  5 22  1  0  0  0  0
  6  7  1  0  0  0  0
  6 23  1  0  0  0  0
  7  8  2  0  0  0  0
  7 24  1  0  0  0  0
  8  9  1  0  0  0  0
  8 25  1  0  0  0  0
  9 10  2  0  0  0  0
 11 12  1  0  0  0  0
 11 26  1  0  0  0  0
 12 13  1  0  0  0  0
 12 27  1  0  0  0  0
 12 28  1  0  0  0  0
 13 14  1  0  0  0  0
 13 29  1  0  0  0  0
 13 30  1  0  0  0  0
 14 15  1  0  0  0  0
 15 19  1  0  0  0  0
 15 16  1  0  0  0  0
 15 31  1  0  0  0  0
 16 17  1  0  0  0  0
 16 32  1  0  0  0  0
 16 33  1  0  0  0  0
 17 18  1  0  0  0  0
 17 34  1  0  0  0  0
 17 35  1  0  0  0  0
 18 19  1  0  0  0  0
 18 36  1  0  0  0  0
 18 37  1  0  0  0  0
 19 38  1  0  0  0  0
 19 39  1  0  0  0  0
M  END
> <s_m_source_file>
AV-unprocessed.smi

> <i_m_source_file_index>
1370

> <i_lp_mmshare_version>
43012

> <i_f3d_flags>
0

> <s_epik_input>
Tz1jMVtjSF1bY0hdW2NIXVtjSF1uMVtDSDJdQyg9TylbTkhdW0NIMl1bQ0gyXVNbQ0hdMltDSDJdW0NIMl1bQ0gyXVtDSDJdMg==

> <s_epik_cmdline>
J2VwaWtfcHl0aG9uJywgJy1waCcsICc3LjAnLCAnLXRuJywgJzgnLCAnLW1hJywgJzIwMCcsICctbWV0YWxfYmluZGluZycsICctaW1hZScsICc8aW5maWxlLm1hZT4nLCAnLW9tYWUnLCAnPG91dGZpbGUubWFlPic=

> <r_lp_tautomer_probability>
1

> <r_epik_Ionization_Penalty>
3.75756e-07

> <r_epik_Ionization_Penalty_Charging>
3.52005e-07

> <r_epik_Ionization_Penalty_Neutral>
2.37506e-08

> <r_epik_State_Penalty>
-0

> <r_epik_Charging_Adjusted_Penalty>
3.52005e-07

> <i_epik_Tot_Q>
0

> <i_epik_Tot_abs_Q>
0

> <r_epik_Metal_State_Penalty>
-0

> <b_epik_Metal_Only>
0

> <s_lp_Force_Field>
OPLS_2005

> <r_lp_Energy>
28.6611

> <b_lp_Chiralities_Consistent>
1

> <s_lp_Variant>
AV-unprocessed.smi:1370-1

> <Gold.Version>
5.8.1

> <Gold.Id.Protein>
6NUR|6NUR_protein|mol2

> <Gold.PLP.Fitness>
42.1173

> <Gold.PLP.PLP>
-37.1842

> <Gold.PLP.part.hbond>
-1.0000

> <Gold.PLP.part.metal>
0.0000

> <Gold.PLP.part.buried>
-4.1470

> <Gold.PLP.part.nonpolar>
-33.2104

> <Gold.PLP.part.repulsive>
0.9130

> <Gold.PLP.ligand.clash>
0.0000

> <Gold.PLP.ligand.torsion>
0.5518

> <Gold.PLP.Chemscore.Hbond>
0.9920

> <Gold.PLP.Chemscore.CHOScore>
1.0000

> <Gold.PLP.Chemscore.Metal>
0.0000

> <Gold.Chemscore.Hbonds>
donor molecule, donor type, donor heavy atom, donor atom, acceptor molecule, acceptor atom, score
      L1  H    11    26       P1 10175  1.00
      L1  C     5    22       P1  7948  0.94

> <Gold.PLP.Chemscore.Internal.Correction>
0.0608

> <Gold.Rescore>
     Score         DG    S(hbond)    S(metal)    S(lipo)     H(rot)  DE(clash)    DE(int)     intcor
     11.85     -13.88       0.98        0.00      84.64       1.87       0.05       1.98       ----

> <Gold.Chemscore.Fitness>
11.8480

> <Gold.Chemscore.DG>
-13.8751

> <Gold.Chemscore.ZeroCoef>
-5.4800

> <Gold.Chemscore.Hbond>
0.9804

> <Gold.Chemscore.Metal>
0.0000

> <Gold.Chemscore.Lipo>
84.6413

> <Gold.Chemscore.Internal_Hbond>
0.0000

> <Gold.Chemscore.DEClash>
0.0464

> <Gold.Chemscore.DEInternal>
1.9807

> <Gold.Chemscore.Rot>
1.8682

> <Gold.Chemscore.Internal.Correction>
   9.000000E+99

> <Gold.Chemscore.Hbonds>
donor molecule, donor type, donor heavy atom, donor atom, acceptor molecule, acceptor atom, score
      L1  H    11    26       P1 10175  0.97

> <Gold.Chemscore.Hbond.Weighted>
-3.2747

> <Gold.Chemscore.Metal.Weighted>
-0.0000

> <Gold.Chemscore.Lipo.Weighted>
-9.9030

> <Gold.Chemscore.Internal_Hbond.Weighted>
0.0000

> <Gold.Chemscore.DEClash.Weighted>
0.0464

> <Gold.Chemscore.DEInternal.Weighted>
1.9807

> <Gold.Chemscore.Rot.Weighted>
4.7827

> <Gold.Chemscore.Internal.Correction.Weighted>
   9.000000E+99

> <Gold.Protein.RotatedTorsions>
[ 6907 6896 6895 6894 ] final -137.32 input  -60.11 | X-H torsion
[ 7974 7965 7964 7962 ] final   13.53 input  175.53 | X-H torsion
[ 8008 7997 7996 7995 ] final  141.20 input   59.86 | X-H torsion
[ 10167 10162 10161 10158 ] final   23.09 input  -65.29 | X-H torsion
[ 10718 10713 10712 10709 ] final  -84.31 input   66.30 | X-H torsion
[ 10763 10752 10751 10750 ] final -157.96 input  -60.55 | X-H torsion
[ 11005 11000 10999 10996 ] final -140.86 input  -57.11 | X-H torsion

> <Gold.Protein.ActiveResidues>
 VAL166  LYS551  ARG553  GLY616  TRP617  ASP618  TYR619  PRO620  LYS621  CYS622 
 ASP623  PHE694  ASN695  SER759  ASP760  ASP761  ALA762  ILE779  LEU786  VAL792 
 PHE793  MET794  SER795  GLU796  ALA797  LYS798  CYS799  TRP800  GLU811  SER814 

> <Gold.Protein.RotatedAtoms>
  151.0210  133.5877  159.2671 H   0  0  0  0  0  0  0  0  0  0  0  0  # atno 6907 bound_to 6896
  151.2994  135.0763  159.9242 H   0  0  0  0  0  0  0  0  0  0  0  0  # atno 6908 bound_to 6896
  152.5323  133.9894  159.7898 H   0  0  0  0  0  0  0  0  0  0  0  0  # atno 6909 bound_to 6896
  146.2327  139.9175  142.8515 H   0  0  0  0  0  0  0  0  0  0  0  0  # atno 7974 bound_to 7965
  156.2969  140.2321  156.4526 H   0  0  0  0  0  0  0  0  0  0  0  0  # atno 8008 bound_to 7997
  154.8089  140.0444  157.1348 H   0  0  0  0  0  0  0  0  0  0  0  0  # atno 8009 bound_to 7997
  154.9447  140.3034  155.5107 H   0  0  0  0  0  0  0  0  0  0  0  0  # atno 8010 bound_to 7997
  140.5296  143.9863  150.6459 H   0  0  0  0  0  0  0  0  0  0  0  0  # atno 10167 bound_to 10162
  156.0008  130.4693  150.4390 H   0  0  0  0  0  0  0  0  0  0  0  0  # atno 10718 bound_to 10713
  154.7595  135.3114  154.8406 H   0  0  0  0  0  0  0  0  0  0  0  0  # atno 10763 bound_to 10752
  153.9170  135.6799  153.4753 H   0  0  0  0  0  0  0  0  0  0  0  0  # atno 10764 bound_to 10752
  153.1194  135.4829  154.9102 H   0  0  0  0  0  0  0  0  0  0  0  0  # atno 10765 bound_to 10752
  140.8381  134.2435  157.4824 H   0  0  0  0  0  0  0  0  0  0  0  0  # atno 11005 bound_to 11000
  145.2169  140.9919  143.4068 LP  0  0  0  0  0  0  0  0  0  0  0  0  # atno 17320 bound_to 7965
  144.9643  139.3946  143.6340 LP  0  0  0  0  0  0  0  0  0  0  0  0  # atno 17321 bound_to 7965
  140.3235  143.3122  152.0760 LP  0  0  0  0  0  0  0  0  0  0  0  0  # atno 17342 bound_to 10162
  139.4950  144.6558  151.6576 LP  0  0  0  0  0  0  0  0  0  0  0  0  # atno 17343 bound_to 10162
  157.2432  131.0530  151.2424 LP  0  0  0  0  0  0  0  0  0  0  0  0  # atno 17370 bound_to 10713
  157.3600  130.7126  149.6495 LP  0  0  0  0  0  0  0  0  0  0  0  0  # atno 17371 bound_to 10713
  139.8703  134.9621  156.4419 LP  0  0  0  0  0  0  0  0  0  0  0  0  # atno 17394 bound_to 11000
  140.8925  133.7838  155.9588 LP  0  0  0  0  0  0  0  0  0  0  0  0  # atno 17395 bound_to 11000

$$$$
