AV-unprocessed.smi:1293|AV-procd|sdf|5399|dock8
  -GOLD-   22720 4563D 1   1.00000     0.00000
 Structure written by MMmdl.
 39 40  0  0  0  0  0  0  0  0  1 V2000
  148.7134  136.4664  159.3546 C   0  0  0  0  0  0  0  0  0  0  0  0
  149.4966  135.6692  158.4841 O   0  0  0  0  0  0  0  0  0  0  0  0
  149.8358  136.3452  157.2842 C   0  0  0  0  0  0  0  0  0  0  0  0
  150.8771  135.5217  156.5090 C   0  0  0  0  0  0  0  0  0  0  0  0
  150.2717  134.3523  155.8549 N   0  0  0  0  0  0  0  0  0  0  0  0
  149.3923  134.6039  154.7834 C   0  0  0  0  0  0  0  0  0  0  0  0
  148.7786  133.6125  154.1003 C   0  0  0  0  0  0  0  0  0  0  0  0
  147.9053  133.7860  153.0157 N   0  0  0  0  0  0  0  0  0  0  0  0
  146.9426  132.9669  152.5458 C   0  0  0  0  0  0  0  0  0  0  0  0
  146.6719  131.8555  153.0006 O   0  0  0  0  0  0  0  0  0  0  0  0
  146.1513  133.5052  151.3410 C   0  0  0  0  0  0  0  0  0  0  0  0
  144.6346  133.5078  151.6121 C   0  0  0  0  0  0  0  0  0  0  0  0
  144.1001  132.2339  150.9599 C   0  0  0  0  0  0  0  0  0  0  0  0
  144.9533  132.0831  149.7036 C   0  0  0  0  0  0  0  0  0  0  0  0
  146.3381  132.6247  150.0828 C   0  0  0  0  0  0  0  0  0  0  0  0
  149.0680  132.2573  154.5176 C   0  0  0  0  0  0  0  0  0  0  0  0
  149.9142  132.0050  155.5348 C   0  0  0  0  0  0  0  0  0  0  0  0
  150.5783  133.0862  156.2660 C   0  0  0  0  0  0  0  0  0  0  0  0
  151.3629  132.8657  157.1891 O   0  0  0  0  0  0  0  0  0  0  0  0
  148.4834  135.9029  160.2591 H   0  0  0  0  0  0  0  0  0  0  0  0
  147.7703  136.7513  158.8863 H   0  0  0  0  0  0  0  0  0  0  0  0
  149.2471  137.3711  159.6481 H   0  0  0  0  0  0  0  0  0  0  0  0
  148.9465  136.5138  156.6746 H   0  0  0  0  0  0  0  0  0  0  0  0
  150.2528  137.3240  157.5251 H   0  0  0  0  0  0  0  0  0  0  0  0
  151.3646  136.1558  155.7666 H   0  0  0  0  0  0  0  0  0  0  0  0
  151.6790  135.2150  157.1824 H   0  0  0  0  0  0  0  0  0  0  0  0
  149.2809  135.6540  154.5661 H   0  0  0  0  0  0  0  0  0  0  0  0
  148.0220  134.6567  152.5180 H   0  0  0  0  0  0  0  0  0  0  0  0
  146.4768  134.5255  151.1297 H   0  0  0  0  0  0  0  0  0  0  0  0
  144.3815  133.5578  152.6724 H   0  0  0  0  0  0  0  0  0  0  0  0
  144.1831  134.3790  151.1358 H   0  0  0  0  0  0  0  0  0  0  0  0
  144.2598  131.3815  151.6216 H   0  0  0  0  0  0  0  0  0  0  0  0
  143.0338  132.2900  150.7396 H   0  0  0  0  0  0  0  0  0  0  0  0
  144.9904  131.0537  149.3465 H   0  0  0  0  0  0  0  0  0  0  0  0
  144.5311  132.6934  148.9043 H   0  0  0  0  0  0  0  0  0  0  0  0
  146.7635  133.2000  149.2597 H   0  0  0  0  0  0  0  0  0  0  0  0
  147.0217  131.7934  150.2647 H   0  0  0  0  0  0  0  0  0  0  0  0
  148.6000  131.4284  154.0065 H   0  0  0  0  0  0  0  0  0  0  0  0
  150.1089  130.9816  155.8199 H   0  0  0  0  0  0  0  0  0  0  0  0
  1  2  1  0  0  0  0
  1 20  1  0  0  0  0
  1 21  1  0  0  0  0
  1 22  1  0  0  0  0
  2  3  1  0  0  0  0
  3  4  1  0  0  0  0
  3 23  1  0  0  0  0
  3 24  1  0  0  0  0
  4  5  1  0  0  0  0
  4 25  1  0  0  0  0
  4 26  1  0  0  0  0
  5 18  1  0  0  0  0
  5  6  1  0  0  0  0
  6  7  2  0  0  0  0
  6 27  1  0  0  0  0
  7  8  1  0  0  0  0
  7 16  1  0  0  0  0
  8  9  1  0  0  0  0
  8 28  1  0  0  0  0
  9 10  2  0  0  0  0
  9 11  1  0  0  0  0
 11 15  1  0  0  0  0
 11 12  1  0  0  0  0
 11 29  1  0  0  0  0
 12 13  1  0  0  0  0
 12 30  1  0  0  0  0
 12 31  1  0  0  0  0
 13 14  1  0  0  0  0
 13 32  1  0  0  0  0
 13 33  1  0  0  0  0
 14 15  1  0  0  0  0
 14 34  1  0  0  0  0
 14 35  1  0  0  0  0
 15 36  1  0  0  0  0
 15 37  1  0  0  0  0
 16 17  2  0  0  0  0
 16 38  1  0  0  0  0
 17 18  1  0  0  0  0
 17 39  1  0  0  0  0
 18 19  2  0  0  0  0
M  END
> <s_m_source_file>
AV-unprocessed.smi

> <i_m_source_file_index>
1293

> <i_lp_mmshare_version>
43012

> <i_f3d_flags>
0

> <s_epik_input>
W0NIM11PW0NIMl1bQ0gyXW4xW2NIXWMoW2NIXVtjSF1jMT1PKVtOSF1DKD1PKVtDSF0yW0NIMl1bQ0gyXVtDSDJdW0NIMl0y

> <s_epik_cmdline>
J2VwaWtfcHl0aG9uJywgJy1waCcsICc3LjAnLCAnLXRuJywgJzgnLCAnLW1hJywgJzIwMCcsICctbWV0YWxfYmluZGluZycsICctaW1hZScsICc8aW5maWxlLm1hZT4nLCAnLW9tYWUnLCAnPG91dGZpbGUubWFlPic=

> <r_lp_tautomer_probability>
1

> <r_epik_Ionization_Penalty>
2.42474e-06

> <r_epik_Ionization_Penalty_Charging>
2.30353e-06

> <r_epik_Ionization_Penalty_Neutral>
1.21208e-07

> <r_epik_State_Penalty>
-0

> <r_epik_Charging_Adjusted_Penalty>
2.30353e-06

> <i_epik_Tot_Q>
0

> <i_epik_Tot_abs_Q>
0

> <r_epik_Metal_State_Penalty>
-0

> <b_epik_Metal_Only>
0

> <s_lp_Force_Field>
OPLS_2005

> <r_lp_Energy>
36.4395

> <b_lp_Chiralities_Consistent>
1

> <s_lp_Variant>
AV-unprocessed.smi:1293-1

> <Gold.Version>
5.8.1

> <Gold.Id.Protein>
6NUR|6NUR_protein|mol2

> <Gold.PLP.Fitness>
43.9576

> <Gold.PLP.PLP>
-34.3480

> <Gold.PLP.part.hbond>
-3.0000

> <Gold.PLP.part.metal>
0.0000

> <Gold.PLP.part.buried>
-5.1740

> <Gold.PLP.part.nonpolar>
-27.2243

> <Gold.PLP.part.repulsive>
0.1307

> <Gold.PLP.ligand.clash>
0.0000

> <Gold.PLP.ligand.torsion>
0.2966

> <Gold.PLP.Chemscore.Hbond>
2.8143

> <Gold.PLP.Chemscore.CHOScore>
0.5789

> <Gold.PLP.Chemscore.Metal>
0.0000

> <Gold.Chemscore.Hbonds>
donor molecule, donor type, donor heavy atom, donor atom, acceptor molecule, acceptor atom, score
      L1  H     8    28       P1  7948  1.00
      P1  H  6896  6907       L1     2  1.00
      P1  H  6896  6909       L1    19  0.79
      L1  C     6    27       P1  7948  0.29

> <Gold.PLP.Chemscore.Internal.Correction>
0.0231

> <Gold.Rescore>
     Score         DG    S(hbond)    S(metal)    S(lipo)     H(rot)  DE(clash)    DE(int)     intcor
     17.00     -18.61       2.71        0.00      68.50       1.53       0.00       1.61       ----

> <Gold.Chemscore.Fitness>
16.9955

> <Gold.Chemscore.DG>
-18.6100

> <Gold.Chemscore.ZeroCoef>
-5.4800

> <Gold.Chemscore.Hbond>
2.7056

> <Gold.Chemscore.Metal>
0.0000

> <Gold.Chemscore.Lipo>
68.4967

> <Gold.Chemscore.Internal_Hbond>
0.0000

> <Gold.Chemscore.DEClash>
0.0000

> <Gold.Chemscore.DEInternal>
1.6145

> <Gold.Chemscore.Rot>
1.5316

> <Gold.Chemscore.Internal.Correction>
   9.000000E+99

> <Gold.Chemscore.Hbonds>
donor molecule, donor type, donor heavy atom, donor atom, acceptor molecule, acceptor atom, score
      L1  H     8    28       P1  7948  0.54
      P1  H  6896  6907       L1     2  0.42
      P1  H  6896  6909       L1    19  0.74

> <Gold.Chemscore.Hbond.Weighted>
-9.0368

> <Gold.Chemscore.Metal.Weighted>
-0.0000

> <Gold.Chemscore.Lipo.Weighted>
-8.0141

> <Gold.Chemscore.Internal_Hbond.Weighted>
0.0000

> <Gold.Chemscore.DEClash.Weighted>
0.0000

> <Gold.Chemscore.DEInternal.Weighted>
1.6145

> <Gold.Chemscore.Rot.Weighted>
3.9209

> <Gold.Chemscore.Internal.Correction.Weighted>
   9.000000E+99

> <Gold.Protein.RotatedTorsions>
[ 6907 6896 6895 6894 ] final  -48.65 input  -60.11 | X-H torsion
[ 7974 7965 7964 7962 ] final  120.93 input  175.53 | X-H torsion
[ 8008 7997 7996 7995 ] final  -92.86 input   59.86 | X-H torsion
[ 10167 10162 10161 10158 ] final  179.09 input  -65.29 | X-H torsion
[ 10718 10713 10712 10709 ] final  -15.72 input   66.30 | X-H torsion
[ 10763 10752 10751 10750 ] final   95.82 input  -60.55 | X-H torsion
[ 11005 11000 10999 10996 ] final  145.98 input  -57.11 | X-H torsion

> <Gold.Protein.ActiveResidues>
 VAL166  LYS551  ARG553  GLY616  TRP617  ASP618  TYR619  PRO620  LYS621  CYS622 
 ASP623  PHE694  ASN695  SER759  ASP760  ASP761  ALA762  ILE779  LEU786  VAL792 
 PHE793  MET794  SER795  GLU796  ALA797  LYS798  CYS799  TRP800  GLU811  SER814 

> <Gold.Protein.RotatedAtoms>
  150.8883  134.8284  159.7275 H   0  0  0  0  0  0  0  0  0  0  0  0  # atno 6907 bound_to 6896
  152.4821  134.4687  159.9638 H   0  0  0  0  0  0  0  0  0  0  0  0  # atno 6908 bound_to 6896
  151.4753  133.3520  159.2865 H   0  0  0  0  0  0  0  0  0  0  0  0  # atno 6909 bound_to 6896
  145.1253  139.3362  143.4693 H   0  0  0  0  0  0  0  0  0  0  0  0  # atno 7974 bound_to 7965
  154.7284  140.0504  157.0704 H   0  0  0  0  0  0  0  0  0  0  0  0  # atno 8008 bound_to 7997
  155.0334  140.3160  155.4731 H   0  0  0  0  0  0  0  0  0  0  0  0  # atno 8009 bound_to 7997
  156.2835  140.2146  156.5456 H   0  0  0  0  0  0  0  0  0  0  0  0  # atno 8010 bound_to 7997
  139.5321  144.2602  152.0713 H   0  0  0  0  0  0  0  0  0  0  0  0  # atno 10167 bound_to 10162
  156.5977  130.4816  149.6252 H   0  0  0  0  0  0  0  0  0  0  0  0  # atno 10718 bound_to 10713
  153.2577  135.4240  155.0862 H   0  0  0  0  0  0  0  0  0  0  0  0  # atno 10763 bound_to 10752
  154.8407  135.3441  154.6422 H   0  0  0  0  0  0  0  0  0  0  0  0  # atno 10764 bound_to 10752
  153.6842  135.7037  153.5166 H   0  0  0  0  0  0  0  0  0  0  0  0  # atno 10765 bound_to 10752
  140.0756  134.9127  157.1417 H   0  0  0  0  0  0  0  0  0  0  0  0  # atno 11005 bound_to 11000
  146.3518  140.1229  142.8599 LP  0  0  0  0  0  0  0  0  0  0  0  0  # atno 17320 bound_to 7965
  145.0695  140.9145  143.4890 LP  0  0  0  0  0  0  0  0  0  0  0  0  # atno 17321 bound_to 7965
  140.2067  144.4603  150.6405 LP  0  0  0  0  0  0  0  0  0  0  0  0  # atno 17342 bound_to 10162
  140.6506  143.2224  151.6085 LP  0  0  0  0  0  0  0  0  0  0  0  0  # atno 17343 bound_to 10162
  156.2495  130.6899  151.1632 LP  0  0  0  0  0  0  0  0  0  0  0  0  # atno 17370 bound_to 10713
  157.7287  131.0629  150.5806 LP  0  0  0  0  0  0  0  0  0  0  0  0  # atno 17371 bound_to 10713
  140.3562  134.2544  155.7192 LP  0  0  0  0  0  0  0  0  0  0  0  0  # atno 17394 bound_to 11000
  141.2028  133.7928  157.0371 LP  0  0  0  0  0  0  0  0  0  0  0  0  # atno 17395 bound_to 11000

$$$$
