AV-unprocessed.smi:2792|AV-procd|sdf|10773|dock1
  -GOLD-   2272015213D 1   1.00000     0.00000
 Structure written by MMmdl.
 44 46  0  0  0  0  0  0  0  0  1 V2000
  150.1078  141.6556  156.0202 C   0  0  0  0  0  0  0  0  0  0  0  0
  149.3637  141.2649  154.7326 C   0  0  0  0  0  0  0  0  0  0  0  0
  148.8731  139.7952  154.6627 C   0  0  2  0  0  0  0  0  0  0  0  0
  147.8685  139.5683  153.5174 C   0  0  0  0  0  0  0  0  0  0  0  0
  148.2014  139.5051  155.8741 O   0  0  0  0  0  0  0  0  0  0  0  0
  150.0502  138.7960  154.5138 C   0  0  0  0  0  0  0  0  0  0  0  0
  151.0117  138.8313  155.6057 N   0  0  0  0  0  0  0  0  0  0  0  0
  152.1962  139.5337  155.6398 C   0  0  0  0  0  0  0  0  0  0  0  0
  152.8894  139.4066  156.7386 N   0  0  0  0  0  0  0  0  0  0  0  0
  152.1300  138.5407  157.5148 C   0  0  0  0  0  0  0  0  0  0  0  0
  152.2895  137.9850  158.8102 C   0  0  0  0  0  0  0  0  0  0  0  0
  153.3695  138.2767  159.5680 N   0  0  0  0  0  0  0  0  0  0  0  0
  154.1317  139.4970  159.3235 C   0  0  0  0  0  0  0  0  0  0  0  0
  153.6584  140.7152  160.1010 C   0  0  0  0  0  0  0  0  0  0  0  0
  152.8779  141.7082  159.4705 C   0  0  0  0  0  0  0  0  0  0  0  0
  152.4393  142.8322  160.1970 C   0  0  0  0  0  0  0  0  0  0  0  0
  152.7809  142.9696  161.5562 C   0  0  0  0  0  0  0  0  0  0  0  0
  153.5621  141.9828  162.1883 C   0  0  0  0  0  0  0  0  0  0  0  0
  154.0015  140.8589  161.4617 C   0  0  0  0  0  0  0  0  0  0  0  0
  151.3235  137.1417  159.2604 N   0  0  0  0  0  0  0  0  0  0  0  0
  150.2632  136.8677  158.4939 C   0  0  0  0  0  0  0  0  0  0  0  0
  149.9791  137.3181  157.2694 N   0  0  0  0  0  0  0  0  0  0  0  0
  150.9498  138.1627  156.8158 C   0  0  0  0  0  0  0  0  0  0  0  0
  150.4841  142.6761  155.9482 H   0  0  0  0  0  0  0  0  0  0  0  0
  150.9625  141.0040  156.2031 H   0  0  0  0  0  0  0  0  0  0  0  0
  149.4558  141.6138  156.8924 H   0  0  0  0  0  0  0  0  0  0  0  0
  148.5115  141.9341  154.6093 H   0  0  0  0  0  0  0  0  0  0  0  0
  150.0285  141.4700  153.8928 H   0  0  0  0  0  0  0  0  0  0  0  0
  148.3042  139.8362  152.5544 H   0  0  0  0  0  0  0  0  0  0  0  0
  146.9601  140.1571  153.6460 H   0  0  0  0  0  0  0  0  0  0  0  0
  147.5633  138.5229  153.4594 H   0  0  0  0  0  0  0  0  0  0  0  0
  148.4202  140.1717  156.5074 H   0  0  0  0  0  0  0  0  0  0  0  0
  149.6743  137.7752  154.4276 H   0  0  0  0  0  0  0  0  0  0  0  0
  150.5901  138.9964  153.5871 H   0  0  0  0  0  0  0  0  0  0  0  0
  152.5275  140.1555  154.8209 H   0  0  0  0  0  0  0  0  0  0  0  0
  153.8196  137.5917  160.1578 H   0  0  0  0  0  0  0  0  0  0  0  0
  155.1865  139.3104  159.5289 H   0  0  0  0  0  0  0  0  0  0  0  0
  154.0653  139.7282  158.2603 H   0  0  0  0  0  0  0  0  0  0  0  0
  152.6108  141.6095  158.4285 H   0  0  0  0  0  0  0  0  0  0  0  0
  151.8399  143.5882  159.7117 H   0  0  0  0  0  0  0  0  0  0  0  0
  152.4433  143.8308  162.1140 H   0  0  0  0  0  0  0  0  0  0  0  0
  153.8237  142.0869  163.2309 H   0  0  0  0  0  0  0  0  0  0  0  0
  154.5978  140.1048  161.9541 H   0  0  0  0  0  0  0  0  0  0  0  0
  149.5394  136.1909  158.9230 H   0  0  0  0  0  0  0  0  0  0  0  0
  1  2  1  0  0  0  0
  1 24  1  0  0  0  0
  1 25  1  0  0  0  0
  1 26  1  0  0  0  0
  2  3  1  0  0  0  0
  2 27  1  0  0  0  0
  2 28  1  0  0  0  0
  3  4  1  0  0  0  0
  3  5  1  0  0  0  0
  3  6  1  0  0  0  0
  4 29  1  0  0  0  0
  4 30  1  0  0  0  0
  4 31  1  0  0  0  0
  5 32  1  0  0  0  0
  6  7  1  0  0  0  0
  6 33  1  0  0  0  0
  6 34  1  0  0  0  0
  7 23  1  0  0  0  0
  7  8  1  0  0  0  0
  8  9  2  0  0  0  0
  8 35  1  0  0  0  0
  9 10  1  0  0  0  0
 10 23  2  0  0  0  0
 10 11  1  0  0  0  0
 11 12  1  0  0  0  0
 11 20  2  0  0  0  0
 12 13  1  0  0  0  0
 12 36  1  0  0  0  0
 13 14  1  0  0  0  0
 13 37  1  0  0  0  0
 13 38  1  0  0  0  0
 14 19  1  0  0  0  0
 14 15  2  0  0  0  0
 15 16  1  0  0  0  0
 15 39  1  0  0  0  0
 16 17  2  0  0  0  0
 16 40  1  0  0  0  0
 17 18  1  0  0  0  0
 17 41  1  0  0  0  0
 18 19  2  0  0  0  0
 18 42  1  0  0  0  0
 19 43  1  0  0  0  0
 20 21  1  0  0  0  0
 21 22  2  0  0  0  0
 21 44  1  0  0  0  0
 22 23  1  0  0  0  0
M  END
> <s_m_source_file>
AV-unprocessed.smi

> <i_m_source_file_index>
2792

> <i_lp_mmshare_version>
43012

> <i_f3d_flags>
0

> <s_epik_input>
W0NIM11bQ0gyXVtDQEBdKFtDSDNdKShbT0hdKVtDSDJdbihbY0hdbjEpYyhjMTIpbltjSF1uYzJbTkhdW0NIMl1jM1tjSF1bY0hdW2NIXVtjSF1bY0hdMw==

> <s_epik_cmdline>
J2VwaWtfcHl0aG9uJywgJy1waCcsICc3LjAnLCAnLXRuJywgJzgnLCAnLW1hJywgJzIwMCcsICctbWV0YWxfYmluZGluZycsICctaW1hZScsICc8aW5maWxlLm1hZT4nLCAnLW9tYWUnLCAnPG91dGZpbGUubWFlPic=

> <r_lp_tautomer_probability>
1

> <r_epik_Ionization_Penalty>
0.00163025

> <r_epik_Ionization_Penalty_Charging>
0

> <r_epik_Ionization_Penalty_Neutral>
0.00163025

> <r_epik_State_Penalty>
-0

> <r_epik_Charging_Adjusted_Penalty>
0

> <i_epik_Tot_Q>
0

> <i_epik_Tot_abs_Q>
0

> <r_epik_Metal_State_Penalty>
-0

> <b_epik_Metal_Only>
0

> <s_lp_Force_Field>
OPLS_2005

> <r_lp_Energy>
12.9035

> <b_lp_Chiralities_Consistent>
1

> <s_lp_Variant>
AV-unprocessed.smi:2792-2

> <Gold.Version>
5.8.1

> <Gold.Id.Protein>
6NUR|6NUR_protein|mol2

> <Gold.PLP.Fitness>
46.6879

> <Gold.PLP.PLP>
-43.2524

> <Gold.PLP.part.hbond>
-1.7859

> <Gold.PLP.part.metal>
0.0000

> <Gold.PLP.part.buried>
-2.9992

> <Gold.PLP.part.nonpolar>
-39.0628

> <Gold.PLP.part.repulsive>
0.0803

> <Gold.PLP.ligand.clash>
0.0000

> <Gold.PLP.ligand.torsion>
0.9980

> <Gold.PLP.Chemscore.Hbond>
1.7101

> <Gold.PLP.Chemscore.CHOScore>
0.0000

> <Gold.PLP.Chemscore.Metal>
0.0000

> <Gold.Chemscore.Hbonds>
donor molecule, donor type, donor heavy atom, donor atom, acceptor molecule, acceptor atom, score
      P1  H  6896  6907       L1    20  0.61
      P1  H  7997  8008       L1     9  1.00

> <Gold.PLP.Chemscore.Internal.Correction>
0.3011

> <Gold.Rescore>
     Score         DG    S(hbond)    S(metal)    S(lipo)     H(rot)  DE(clash)    DE(int)     intcor
     13.94     -16.39       1.62        0.00     102.19       2.52       0.08       2.37       ----

> <Gold.Chemscore.Fitness>
13.9426

> <Gold.Chemscore.DG>
-16.3908

> <Gold.Chemscore.ZeroCoef>
-5.4800

> <Gold.Chemscore.Hbond>
1.6222

> <Gold.Chemscore.Metal>
0.0000

> <Gold.Chemscore.Lipo>
102.1943

> <Gold.Chemscore.Internal_Hbond>
0.0000

> <Gold.Chemscore.DEClash>
0.0777

> <Gold.Chemscore.DEInternal>
2.3705

> <Gold.Chemscore.Rot>
2.5250

> <Gold.Chemscore.Internal.Correction>
   9.000000E+99

> <Gold.Chemscore.Hbonds>
donor molecule, donor type, donor heavy atom, donor atom, acceptor molecule, acceptor atom, score
      P1  H  6896  6907       L1    20  0.07
      P1  H  7997  8008       L1     9  0.78

> <Gold.Chemscore.Hbond.Weighted>
-5.4180

> <Gold.Chemscore.Metal.Weighted>
-0.0000

> <Gold.Chemscore.Lipo.Weighted>
-11.9567

> <Gold.Chemscore.Internal_Hbond.Weighted>
0.0000

> <Gold.Chemscore.DEClash.Weighted>
0.0777

> <Gold.Chemscore.DEInternal.Weighted>
2.3705

> <Gold.Chemscore.Rot.Weighted>
6.4639

> <Gold.Chemscore.Internal.Correction.Weighted>
   9.000000E+99

> <Gold.Protein.RotatedTorsions>
[ 6907 6896 6895 6894 ] final   -1.98 input  -60.11 | X-H torsion
[ 7974 7965 7964 7962 ] final  -13.35 input  175.53 | X-H torsion
[ 8008 7997 7996 7995 ] final  -56.27 input   59.86 | X-H torsion
[ 10167 10162 10161 10158 ] final -123.64 input  -65.29 | X-H torsion
[ 10718 10713 10712 10709 ] final  165.17 input   66.30 | X-H torsion
[ 10763 10752 10751 10750 ] final  -33.29 input  -60.55 | X-H torsion
[ 11005 11000 10999 10996 ] final  -83.48 input  -57.11 | X-H torsion

> <Gold.Protein.ActiveResidues>
 VAL166  LYS551  ARG553  GLY616  TRP617  ASP618  TYR619  PRO620  LYS621  CYS622 
 ASP623  PHE694  ASN695  SER759  ASP760  ASP761  ALA762  ILE779  LEU786  VAL792 
 PHE793  MET794  SER795  GLU796  ALA797  LYS798  CYS799  TRP800  GLU811  SER814 

> <Gold.Protein.RotatedAtoms>
  151.5373  135.1068  159.9917 H   0  0  0  0  0  0  0  0  0  0  0  0  # atno 6907 bound_to 6896
  152.4551  133.7703  159.6806 H   0  0  0  0  0  0  0  0  0  0  0  0  # atno 6908 bound_to 6896
  150.8492  133.7747  159.3056 H   0  0  0  0  0  0  0  0  0  0  0  0  # atno 6909 bound_to 6896
  146.2117  140.3191  142.8389 H   0  0  0  0  0  0  0  0  0  0  0  0  # atno 7974 bound_to 7965
  154.4224  140.1133  156.5610 H   0  0  0  0  0  0  0  0  0  0  0  0  # atno 8008 bound_to 7997
  155.6311  140.3495  155.4664 H   0  0  0  0  0  0  0  0  0  0  0  0  # atno 8009 bound_to 7997
  155.9947  140.1186  157.0594 H   0  0  0  0  0  0  0  0  0  0  0  0  # atno 8010 bound_to 7997
  140.0013  143.5537  152.2302 H   0  0  0  0  0  0  0  0  0  0  0  0  # atno 10167 bound_to 10162
  157.0840  131.0400  151.2564 H   0  0  0  0  0  0  0  0  0  0  0  0  # atno 10718 bound_to 10713
  153.8278  135.6869  153.4818 H   0  0  0  0  0  0  0  0  0  0  0  0  # atno 10763 bound_to 10752
  153.1529  135.4610  154.9661 H   0  0  0  0  0  0  0  0  0  0  0  0  # atno 10764 bound_to 10752
  154.7900  135.3298  154.7744 H   0  0  0  0  0  0  0  0  0  0  0  0  # atno 10765 bound_to 10752
  141.1657  133.7297  156.8727 H   0  0  0  0  0  0  0  0  0  0  0  0  # atno 11005 bound_to 11000
  144.8933  140.7551  143.5913 LP  0  0  0  0  0  0  0  0  0  0  0  0  # atno 17320 bound_to 7965
  145.3114  139.1817  143.4637 LP  0  0  0  0  0  0  0  0  0  0  0  0  # atno 17321 bound_to 7965
  139.6269  144.7638  151.2618 LP  0  0  0  0  0  0  0  0  0  0  0  0  # atno 17342 bound_to 10162
  140.7417  143.6547  150.8217 LP  0  0  0  0  0  0  0  0  0  0  0  0  # atno 17343 bound_to 10162
  157.4776  130.7746  149.7383 LP  0  0  0  0  0  0  0  0  0  0  0  0  # atno 17370 bound_to 10713
  155.9916  130.3937  150.2979 LP  0  0  0  0  0  0  0  0  0  0  0  0  # atno 17371 bound_to 10713
  140.1770  134.9060  157.2903 LP  0  0  0  0  0  0  0  0  0  0  0  0  # atno 17394 bound_to 11000
  140.2437  134.3765  155.7470 LP  0  0  0  0  0  0  0  0  0  0  0  0  # atno 17395 bound_to 11000

$$$$
