AV-unprocessed.smi:1736|AV-procd|sdf|6990|dock7
  -GOLD-   22720 8203D 1   1.00000     0.00000
 Structure written by MMmdl.
 45 46  0  0  0  0  0  0  0  0  2 V2000
  145.3321  131.0948  151.1772 C   0  0  0  0  0  0  0  0  0  0  0  0
  146.4972  131.9824  151.3978 N   0  3  0  0  0  0  0  0  0  0  0  0
  146.6756  132.4017  152.8066 C   0  0  0  0  0  0  0  0  0  0  0  0
  145.6657  133.4973  153.2024 C   0  0  0  0  0  0  0  0  0  0  0  0
  145.8164  134.6752  152.3314 N   0  0  0  0  0  0  0  0  0  0  0  0
  145.0659  135.8793  152.7814 C   0  0  0  0  0  0  0  0  0  0  0  0
  143.5456  135.6529  152.5819 C   0  0  0  0  0  0  0  0  0  0  0  0
  145.3242  136.1927  154.2745 C   0  0  0  0  0  0  0  0  0  0  0  0
  145.4732  137.1223  151.9353 C   0  0  0  0  0  0  0  0  0  0  0  0
  146.7788  137.6677  152.3087 N   0  0  0  0  0  0  0  0  0  0  0  0
  146.9896  138.6931  153.1462 C   0  0  0  0  0  0  0  0  0  0  0  0
  146.0881  139.3039  153.7198 O   0  0  0  0  0  0  0  0  0  0  0  0
  148.2995  138.9638  153.2612 N   0  0  0  0  0  0  0  0  0  0  0  0
  148.9015  139.9583  154.0715 C   0  0  0  0  0  0  0  0  0  0  0  0
  150.0789  139.8798  154.8723 C   0  0  0  0  0  0  0  0  0  0  0  0
  150.3224  141.0323  155.4804 N   0  0  0  0  0  0  0  0  0  0  0  0
  149.3173  141.8418  155.0772 N   0  0  0  0  0  0  0  0  0  0  0  0
  148.4316  141.2290  154.2187 C   0  0  0  0  0  0  0  0  0  0  0  0
  145.5257  134.2425  150.9539 C   0  0  0  0  0  0  0  0  0  0  0  0
  146.5310  133.1628  150.5051 C   0  0  0  0  0  0  0  0  0  0  0  0
  149.2513  142.7991  155.3922 H   0  0  0  0  0  0  0  0  0  0  0  0
  144.3893  131.5959  151.3965 H   0  0  0  0  0  0  0  0  0  0  0  0
  145.4008  130.2102  151.8112 H   0  0  0  0  0  0  0  0  0  0  0  0
  145.3027  130.7559  150.1412 H   0  0  0  0  0  0  0  0  0  0  0  0
  146.5819  131.5386  153.4665 H   0  0  0  0  0  0  0  0  0  0  0  0
  147.6917  132.7781  152.9340 H   0  0  0  0  0  0  0  0  0  0  0  0
  144.6480  133.1097  153.1573 H   0  0  0  0  0  0  0  0  0  0  0  0
  145.8595  133.7489  154.2425 H   0  0  0  0  0  0  0  0  0  0  0  0
  142.9920  136.5861  152.6924 H   0  0  0  0  0  0  0  0  0  0  0  0
  143.1242  134.9680  153.3174 H   0  0  0  0  0  0  0  0  0  0  0  0
  143.3193  135.2599  151.5900 H   0  0  0  0  0  0  0  0  0  0  0  0
  144.7462  137.0626  154.5886 H   0  0  0  0  0  0  0  0  0  0  0  0
  146.3698  136.4253  154.4749 H   0  0  0  0  0  0  0  0  0  0  0  0
  145.0325  135.3715  154.9287 H   0  0  0  0  0  0  0  0  0  0  0  0
  145.4598  136.8637  150.8748 H   0  0  0  0  0  0  0  0  0  0  0  0
  144.7377  137.9212  152.0191 H   0  0  0  0  0  0  0  0  0  0  0  0
  147.5844  137.2356  151.8816 H   0  0  0  0  0  0  0  0  0  0  0  0
  148.9327  138.3970  152.7168 H   0  0  0  0  0  0  0  0  0  0  0  0
  150.7551  139.0532  155.0327 H   0  0  0  0  0  0  0  0  0  0  0  0
  147.5737  141.7361  153.8025 H   0  0  0  0  0  0  0  0  0  0  0  0
  144.5043  133.8713  150.8709 H   0  0  0  0  0  0  0  0  0  0  0  0
  145.6182  135.0690  150.2528 H   0  0  0  0  0  0  0  0  0  0  0  0
  147.5401  133.5780  150.5123 H   0  0  0  0  0  0  0  0  0  0  0  0
  146.3316  132.8579  149.4772 H   0  0  0  0  0  0  0  0  0  0  0  0
  147.3058  131.4246  151.1627 H   0  0  0  0  0  0  0  0  0  0  0  0
  1  2  1  0  0  0  0
  1 22  1  0  0  0  0
  1 23  1  0  0  0  0
  1 24  1  0  0  0  0
  2 20  1  0  0  0  0
  2  3  1  0  0  0  0
  2 45  1  0  0  0  0
  3  4  1  0  0  0  0
  3 25  1  0  0  0  0
  3 26  1  0  0  0  0
  4  5  1  0  0  0  0
  4 27  1  0  0  0  0
  4 28  1  0  0  0  0
  5  6  1  0  0  0  0
  5 19  1  0  0  0  0
  6  7  1  0  0  0  0
  6  8  1  0  0  0  0
  6  9  1  0  0  0  0
  7 29  1  0  0  0  0
  7 30  1  0  0  0  0
  7 31  1  0  0  0  0
  8 32  1  0  0  0  0
  8 33  1  0  0  0  0
  8 34  1  0  0  0  0
  9 10  1  0  0  0  0
  9 35  1  0  0  0  0
  9 36  1  0  0  0  0
 10 11  1  0  0  0  0
 10 37  1  0  0  0  0
 11 12  2  0  0  0  0
 11 13  1  0  0  0  0
 13 14  1  0  0  0  0
 13 38  1  0  0  0  0
 14 18  2  0  0  0  0
 14 15  1  0  0  0  0
 15 16  2  0  0  0  0
 15 39  1  0  0  0  0
 16 17  1  0  0  0  0
 17 21  1  0  0  0  0
 17 18  1  0  0  0  0
 18 40  1  0  0  0  0
 19 20  1  0  0  0  0
 19 41  1  0  0  0  0
 19 42  1  0  0  0  0
 20 43  1  0  0  0  0
 20 44  1  0  0  0  0
M  CHG  1   2   1
M  END
> <s_m_source_file>
AV-unprocessed.smi

> <i_m_source_file_index>
1736

> <i_lp_mmshare_version>
43012

> <i_f3d_flags>
0

> <s_epik_input>
W0NIM11OMVtDSDJdW0NIMl1OKFtDSDJdW0NIMl0xKUMoW0NIM10pKFtDSDNdKVtDSDJdW05IXUMoPU8pW05IXWMyW2NIXW5bbkhdW2NIXTI=

> <s_epik_cmdline>
J2VwaWtfcHl0aG9uJywgJy1waCcsICc3LjAnLCAnLXRuJywgJzgnLCAnLW1hJywgJzIwMCcsICctbWV0YWxfYmluZGluZycsICctaW1hZScsICc8aW5maWxlLm1hZT4nLCAnLW9tYWUnLCAnPG91dGZpbGUubWFlPic=

> <r_lp_tautomer_probability>
0.5

> <r_epik_Ionization_Penalty>
0.0248316

> <r_epik_Ionization_Penalty_Charging>
0.0238192

> <r_epik_Ionization_Penalty_Neutral>
0.00101244

> <r_epik_State_Penalty>
0.139266

> <r_epik_Charging_Adjusted_Penalty>
0.163085

> <i_epik_Tot_Q>
1

> <i_epik_Tot_abs_Q>
1

> <r_epik_Metal_State_Penalty>
0.139266

> <b_epik_Metal_Only>
0

> <s_lp_Force_Field>
OPLS_2005

> <r_lp_Energy>
29.1357

> <b_lp_Chiralities_Consistent>
1

> <s_lp_Variant>
AV-unprocessed.smi:1736-1

> <Gold.Version>
5.8.1

> <Gold.Id.Protein>
6NUR|6NUR_protein|mol2

> <Gold.PLP.Fitness>
38.7135

> <Gold.PLP.PLP>
-30.1641

> <Gold.PLP.part.hbond>
-5.9421

> <Gold.PLP.part.metal>
0.0000

> <Gold.PLP.part.buried>
-1.9420

> <Gold.PLP.part.nonpolar>
-23.8877

> <Gold.PLP.part.repulsive>
1.4334

> <Gold.PLP.ligand.clash>
0.0000

> <Gold.PLP.ligand.torsion>
0.7675

> <Gold.PLP.Chemscore.Hbond>
3.3501

> <Gold.PLP.Chemscore.CHOScore>
0.0000

> <Gold.PLP.Chemscore.Metal>
0.0000

> <Gold.Chemscore.Hbonds>
donor molecule, donor type, donor heavy atom, donor atom, acceptor molecule, acceptor atom, score
      L1  H     2    45       P1 10747  1.00
      L1  H    10    37       P1  7948  1.00
      L1  H    13    38       P1  7948  0.26
      L1  H    17    21       P1  8028  1.00

> <Gold.PLP.Chemscore.Internal.Correction>
0.0343

> <Gold.Rescore>
     Score         DG    S(hbond)    S(metal)    S(lipo)     H(rot)  DE(clash)    DE(int)     intcor
     18.96     -20.01       3.24        0.00      67.25       1.63       0.23       0.83       ----

> <Gold.Chemscore.Fitness>
18.9556

> <Gold.Chemscore.DG>
-20.0127

> <Gold.Chemscore.ZeroCoef>
-5.4800

> <Gold.Chemscore.Hbond>
3.2422

> <Gold.Chemscore.Metal>
0.0000

> <Gold.Chemscore.Lipo>
67.2498

> <Gold.Chemscore.Internal_Hbond>
0.0000

> <Gold.Chemscore.DEClash>
0.2315

> <Gold.Chemscore.DEInternal>
0.8256

> <Gold.Chemscore.Rot>
1.6267

> <Gold.Chemscore.Internal.Correction>
   9.000000E+99

> <Gold.Chemscore.Hbonds>
donor molecule, donor type, donor heavy atom, donor atom, acceptor molecule, acceptor atom, score
      L1  H     2    45       P1 10747  0.97
      L1  H    10    37       P1  7948  0.98
      L1  H    13    38       P1  7948  0.26
      L1  H    17    21       P1  8028  0.98

> <Gold.Chemscore.Hbond.Weighted>
-10.8289

> <Gold.Chemscore.Metal.Weighted>
-0.0000

> <Gold.Chemscore.Lipo.Weighted>
-7.8682

> <Gold.Chemscore.Internal_Hbond.Weighted>
0.0000

> <Gold.Chemscore.DEClash.Weighted>
0.2315

> <Gold.Chemscore.DEInternal.Weighted>
0.8256

> <Gold.Chemscore.Rot.Weighted>
4.1645

> <Gold.Chemscore.Internal.Correction.Weighted>
   9.000000E+99

> <Gold.Protein.RotatedTorsions>
[ 6907 6896 6895 6894 ] final   37.44 input  -60.11 | X-H torsion
[ 7974 7965 7964 7962 ] final   59.41 input  175.53 | X-H torsion
[ 8008 7997 7996 7995 ] final  -18.73 input   59.86 | X-H torsion
[ 10167 10162 10161 10158 ] final -114.01 input  -65.29 | X-H torsion
[ 10718 10713 10712 10709 ] final   94.30 input   66.30 | X-H torsion
[ 10763 10752 10751 10750 ] final  -72.16 input  -60.55 | X-H torsion
[ 11005 11000 10999 10996 ] final  168.48 input  -57.11 | X-H torsion

> <Gold.Protein.ActiveResidues>
 VAL166  LYS551  ARG553  GLY616  TRP617  ASP618  TYR619  PRO620  LYS621  CYS622 
 ASP623  PHE694  ASN695  SER759  ASP760  ASP761  ALA762  ILE779  LEU786  VAL792 
 PHE793  MET794  SER795  GLU796  ALA797  LYS798  CYS799  TRP800  GLU811  SER814 

> <Gold.Protein.RotatedAtoms>
  152.1432  134.9046  160.0552 H   0  0  0  0  0  0  0  0  0  0  0  0  # atno 6907 bound_to 6896
  152.0106  133.3855  159.4226 H   0  0  0  0  0  0  0  0  0  0  0  0  # atno 6908 bound_to 6896
  150.6867  134.3657  159.5013 H   0  0  0  0  0  0  0  0  0  0  0  0  # atno 6909 bound_to 6896
  145.9075  139.3628  143.0556 H   0  0  0  0  0  0  0  0  0  0  0  0  # atno 7974 bound_to 7965
  154.4886  140.2108  155.9599 H   0  0  0  0  0  0  0  0  0  0  0  0  # atno 8008 bound_to 7997
  156.1272  140.3203  155.8264 H   0  0  0  0  0  0  0  0  0  0  0  0  # atno 8009 bound_to 7997
  155.4362  140.0507  157.3005 H   0  0  0  0  0  0  0  0  0  0  0  0  # atno 8010 bound_to 7997
  140.1056  143.4573  152.1785 H   0  0  0  0  0  0  0  0  0  0  0  0  # atno 10167 bound_to 10162
  157.6949  131.0508  150.4165 H   0  0  0  0  0  0  0  0  0  0  0  0  # atno 10718 bound_to 10713
  154.4418  135.5939  153.6134 H   0  0  0  0  0  0  0  0  0  0  0  0  # atno 10763 bound_to 10752
  152.9806  135.6000  154.3713 H   0  0  0  0  0  0  0  0  0  0  0  0  # atno 10764 bound_to 10752
  154.3564  135.2841  155.2323 H   0  0  0  0  0  0  0  0  0  0  0  0  # atno 10765 bound_to 10752
  140.2877  134.7699  157.3812 H   0  0  0  0  0  0  0  0  0  0  0  0  # atno 11005 bound_to 11000
  145.8714  140.9417  143.0649 LP  0  0  0  0  0  0  0  0  0  0  0  0  # atno 17320 bound_to 7965
  144.6740  140.0660  143.7474 LP  0  0  0  0  0  0  0  0  0  0  0  0  # atno 17321 bound_to 7965
  139.5647  144.7428  151.4056 LP  0  0  0  0  0  0  0  0  0  0  0  0  # atno 17342 bound_to 10162
  140.6954  143.7762  150.7318 LP  0  0  0  0  0  0  0  0  0  0  0  0  # atno 17343 bound_to 10162
  156.4544  130.4018  149.6615 LP  0  0  0  0  0  0  0  0  0  0  0  0  # atno 17370 bound_to 10713
  156.3753  130.7551  151.2539 LP  0  0  0  0  0  0  0  0  0  0  0  0  # atno 17371 bound_to 10713
  140.1225  134.5202  155.8172 LP  0  0  0  0  0  0  0  0  0  0  0  0  # atno 17394 bound_to 11000
  141.2152  133.6761  156.6891 LP  0  0  0  0  0  0  0  0  0  0  0  0  # atno 17395 bound_to 11000

$$$$
