AV-unprocessed.smi:1430|AV-procd|sdf|5822|dock10
  -GOLD-   22720 5483D 1   1.00000     0.00000
 Structure written by MMmdl.
 46 47  0  0  0  0  0  0  0  0  1 V2000
  149.0560  130.1352  154.1480 C   0  0  0  0  0  0  0  0  0  0  0  0
  149.8765  130.6851  155.1730 O   0  0  0  0  0  0  0  0  0  0  0  0
  150.0417  132.0544  155.2158 C   0  0  0  0  0  0  0  0  0  0  0  0
  150.9100  132.5987  156.1824 C   0  0  0  0  0  0  0  0  0  0  0  0
  151.0783  133.9952  156.2327 C   0  0  0  0  0  0  0  0  0  0  0  0
  150.3711  134.8078  155.3238 C   0  0  0  0  0  0  0  0  0  0  0  0
  150.5744  136.2129  155.3939 N   0  0  0  0  0  0  0  0  0  0  0  0
  151.2481  136.9214  156.3167 C   0  0  0  0  0  0  0  0  0  0  0  0
  151.8331  136.4510  157.2918 O   0  0  0  0  0  0  0  0  0  0  0  0
  151.2212  138.2312  156.0332 N   0  0  0  0  0  0  0  0  0  0  0  0
  151.8676  139.2732  156.8216 C   0  0  0  0  0  0  0  0  0  0  0  0
  150.8301  140.1456  157.5524 C   0  0  0  0  0  0  0  0  0  0  0  0
  151.3837  141.0563  158.5533 N   0  0  0  0  0  0  0  0  0  0  0  0
  152.6284  140.5618  159.1369 C   0  0  0  0  0  0  0  0  0  0  0  0
  153.2144  141.5454  160.1684 C   0  0  1  0  0  0  0  0  0  0  0  0
  154.5646  141.0724  160.7170 C   0  0  0  0  0  0  0  0  0  0  0  0
  153.4024  142.8156  159.5503 O   0  0  0  0  0  0  0  0  0  0  0  0
  152.2017  143.3611  159.0110 C   0  0  1  0  0  0  0  0  0  0  0  0
  152.5262  144.7250  158.3925 C   0  0  0  0  0  0  0  0  0  0  0  0
  151.6237  142.3750  157.9781 C   0  0  0  0  0  0  0  0  0  0  0  0
  149.5323  134.1642  154.3810 C   0  0  0  0  0  0  0  0  0  0  0  0
  149.3674  132.8250  154.3273 N   0  0  0  0  0  0  0  0  0  0  0  0
  149.0260  129.0510  154.2534 H   0  0  0  0  0  0  0  0  0  0  0  0
  149.4519  130.3600  153.1566 H   0  0  0  0  0  0  0  0  0  0  0  0
  148.0310  130.5026  154.2161 H   0  0  0  0  0  0  0  0  0  0  0  0
  151.4374  131.9565  156.8723 H   0  0  0  0  0  0  0  0  0  0  0  0
  151.7404  134.4344  156.9649 H   0  0  0  0  0  0  0  0  0  0  0  0
  150.2082  136.7398  154.6148 H   0  0  0  0  0  0  0  0  0  0  0  0
  150.7194  138.5301  155.2098 H   0  0  0  0  0  0  0  0  0  0  0  0
  152.5647  138.8293  157.5345 H   0  0  0  0  0  0  0  0  0  0  0  0
  152.4633  139.8727  156.1340 H   0  0  0  0  0  0  0  0  0  0  0  0
  150.2489  140.7107  156.8221 H   0  0  0  0  0  0  0  0  0  0  0  0
  150.1218  139.4781  158.0454 H   0  0  0  0  0  0  0  0  0  0  0  0
  152.4602  139.6044  159.6287 H   0  0  0  0  0  0  0  0  0  0  0  0
  153.3602  140.3843  158.3472 H   0  0  0  0  0  0  0  0  0  0  0  0
  152.5185  141.6581  161.0014 H   0  0  0  0  0  0  0  0  0  0  0  0
  154.4695  140.1059  161.2126 H   0  0  0  0  0  0  0  0  0  0  0  0
  154.9598  141.7815  161.4450 H   0  0  0  0  0  0  0  0  0  0  0  0
  155.3003  140.9691  159.9189 H   0  0  0  0  0  0  0  0  0  0  0  0
  151.4838  143.5055  159.8204 H   0  0  0  0  0  0  0  0  0  0  0  0
  151.6325  145.1885  157.9742 H   0  0  0  0  0  0  0  0  0  0  0  0
  153.2606  144.6308  157.5917 H   0  0  0  0  0  0  0  0  0  0  0  0
  152.9343  145.4048  159.1409 H   0  0  0  0  0  0  0  0  0  0  0  0
  152.3112  142.2888  157.1349 H   0  0  0  0  0  0  0  0  0  0  0  0
  150.6917  142.7775  157.5793 H   0  0  0  0  0  0  0  0  0  0  0  0
  148.9856  134.7118  153.6298 H   0  0  0  0  0  0  0  0  0  0  0  0
  1  2  1  0  0  0  0
  1 23  1  0  0  0  0
  1 24  1  0  0  0  0
  1 25  1  0  0  0  0
  2  3  1  0  0  0  0
  3 22  1  0  0  0  0
  3  4  2  0  0  0  0
  4  5  1  0  0  0  0
  4 26  1  0  0  0  0
  5  6  2  0  0  0  0
  5 27  1  0  0  0  0
  6  7  1  0  0  0  0
  6 21  1  0  0  0  0
  7  8  1  0  0  0  0
  7 28  1  0  0  0  0
  8  9  2  0  0  0  0
  8 10  1  0  0  0  0
 10 11  1  0  0  0  0
 10 29  1  0  0  0  0
 11 12  1  0  0  0  0
 11 30  1  0  0  0  0
 11 31  1  0  0  0  0
 12 13  1  0  0  0  0
 12 32  1  0  0  0  0
 12 33  1  0  0  0  0
 13 20  1  0  0  0  0
 13 14  1  0  0  0  0
 14 15  1  0  0  0  0
 14 34  1  0  0  0  0
 14 35  1  0  0  0  0
 15 16  1  0  0  0  0
 15 17  1  0  0  0  0
 15 36  1  0  0  0  0
 16 37  1  0  0  0  0
 16 38  1  0  0  0  0
 16 39  1  0  0  0  0
 17 18  1  0  0  0  0
 18 19  1  0  0  0  0
 18 20  1  0  0  0  0
 18 40  1  0  0  0  0
 19 41  1  0  0  0  0
 19 42  1  0  0  0  0
 19 43  1  0  0  0  0
 20 44  1  0  0  0  0
 20 45  1  0  0  0  0
 21 22  2  0  0  0  0
 21 46  1  0  0  0  0
M  END
> <s_m_source_file>
AV-unprocessed.smi

> <i_m_source_file_index>
1430

> <i_lp_mmshare_version>
43012

> <i_f3d_flags>
0

> <s_epik_input>
W0NIM11PYzFbY0hdW2NIXWMoW2NIXW4xKVtOSF1DKD1PKVtOSF1bQ0gyXVtDSDJdTjJbQ0gyXVtDQEBIXShbQ0gzXSlPW0NAQEhdKFtDSDNdKVtDSDJdMg==

> <s_epik_cmdline>
J2VwaWtfcHl0aG9uJywgJy1waCcsICc3LjAnLCAnLXRuJywgJzgnLCAnLW1hJywgJzIwMCcsICctbWV0YWxfYmluZGluZycsICctaW1hZScsICc8aW5maWxlLm1hZT4nLCAnLW9tYWUnLCAnPG91dGZpbGUubWFlPic=

> <r_lp_tautomer_probability>
1

> <r_epik_Ionization_Penalty>
0.266083

> <r_epik_Ionization_Penalty_Charging>
0

> <r_epik_Ionization_Penalty_Neutral>
0.266083

> <r_epik_State_Penalty>
0.257924

> <r_epik_Charging_Adjusted_Penalty>
0.257924

> <i_epik_Tot_Q>
0

> <i_epik_Tot_abs_Q>
0

> <r_epik_Metal_State_Penalty>
0.257922

> <b_epik_Metal_Only>
0

> <s_lp_Force_Field>
OPLS_2005

> <r_lp_Energy>
23.3408

> <b_lp_Chiralities_Consistent>
1

> <s_lp_Variant>
AV-unprocessed.smi:1430-1

> <Gold.Version>
5.8.1

> <Gold.Id.Protein>
6NUR|6NUR_protein|mol2

> <Gold.PLP.Fitness>
39.8773

> <Gold.PLP.PLP>
-37.9200

> <Gold.PLP.part.hbond>
0.0000

> <Gold.PLP.part.metal>
0.0000

> <Gold.PLP.part.buried>
-6.1976

> <Gold.PLP.part.nonpolar>
-31.6586

> <Gold.PLP.part.repulsive>
0.2243

> <Gold.PLP.ligand.clash>
0.0000

> <Gold.PLP.ligand.torsion>
0.5391

> <Gold.PLP.Chemscore.Hbond>
0.0000

> <Gold.PLP.Chemscore.CHOScore>
1.0000

> <Gold.PLP.Chemscore.Metal>
0.0000

> <Gold.Chemscore.Hbonds>
donor molecule, donor type, donor heavy atom, donor atom, acceptor molecule, acceptor atom, score
      L1  C    21    46       P1  7948  0.99

> <Gold.PLP.Chemscore.Internal.Correction>
0.0354

> <Gold.Rescore>
     Score         DG    S(hbond)    S(metal)    S(lipo)     H(rot)  DE(clash)    DE(int)     intcor
     11.12     -13.11       0.00        0.00     102.60       1.71       0.05       1.94       ----

> <Gold.Chemscore.Fitness>
11.1151

> <Gold.Chemscore.DG>
-13.1053

> <Gold.Chemscore.ZeroCoef>
-5.4800

> <Gold.Chemscore.Hbond>
0.0000

> <Gold.Chemscore.Metal>
0.0000

> <Gold.Chemscore.Lipo>
102.6048

> <Gold.Chemscore.Internal_Hbond>
0.0000

> <Gold.Chemscore.DEClash>
0.0484

> <Gold.Chemscore.DEInternal>
1.9419

> <Gold.Chemscore.Rot>
1.7107

> <Gold.Chemscore.Internal.Correction>
   9.000000E+99

> <Gold.Chemscore.Hbond.Weighted>
-0.0000

> <Gold.Chemscore.Metal.Weighted>
-0.0000

> <Gold.Chemscore.Lipo.Weighted>
-12.0048

> <Gold.Chemscore.Internal_Hbond.Weighted>
0.0000

> <Gold.Chemscore.DEClash.Weighted>
0.0484

> <Gold.Chemscore.DEInternal.Weighted>
1.9419

> <Gold.Chemscore.Rot.Weighted>
4.3794

> <Gold.Chemscore.Internal.Correction.Weighted>
   9.000000E+99

> <Gold.Protein.RotatedTorsions>
[ 6907 6896 6895 6894 ] final   29.73 input  -60.11 | X-H torsion
[ 7974 7965 7964 7962 ] final  -69.48 input  175.53 | X-H torsion
[ 8008 7997 7996 7995 ] final   88.44 input   59.86 | X-H torsion
[ 10167 10162 10161 10158 ] final  -57.41 input  -65.29 | X-H torsion
[ 10718 10713 10712 10709 ] final   57.51 input   66.30 | X-H torsion
[ 10763 10752 10751 10750 ] final -165.82 input  -60.55 | X-H torsion
[ 11005 11000 10999 10996 ] final -116.86 input  -57.11 | X-H torsion

> <Gold.Protein.ActiveResidues>
 VAL166  LYS551  ARG553  GLY616  TRP617  ASP618  TYR619  PRO620  LYS621  CYS622 
 ASP623  PHE694  ASN695  SER759  ASP760  ASP761  ALA762  ILE779  LEU786  VAL792 
 PHE793  MET794  SER795  GLU796  ALA797  LYS798  CYS799  TRP800  GLU811  SER814 

> <Gold.Protein.RotatedAtoms>
  152.0357  134.9741  160.0573 H   0  0  0  0  0  0  0  0  0  0  0  0  # atno 6907 bound_to 6896
  152.1200  133.4343  159.4679 H   0  0  0  0  0  0  0  0  0  0  0  0  # atno 6908 bound_to 6896
  150.6848  134.2465  159.4537 H   0  0  0  0  0  0  0  0  0  0  0  0  # atno 6909 bound_to 6896
  145.7032  140.9108  143.0720 H   0  0  0  0  0  0  0  0  0  0  0  0  # atno 7974 bound_to 7965
  155.9878  140.3371  155.6724 H   0  0  0  0  0  0  0  0  0  0  0  0  # atno 8008 bound_to 7997
  155.6461  140.0700  157.2620 H   0  0  0  0  0  0  0  0  0  0  0  0  # atno 8009 bound_to 7997
  154.4210  140.1734  156.1613 H   0  0  0  0  0  0  0  0  0  0  0  0  # atno 8010 bound_to 7997
  140.6259  143.2438  151.5364 H   0  0  0  0  0  0  0  0  0  0  0  0  # atno 10167 bound_to 10162
  157.5520  130.8772  149.8978 H   0  0  0  0  0  0  0  0  0  0  0  0  # atno 10718 bound_to 10713
  154.6894  135.2968  154.9501 H   0  0  0  0  0  0  0  0  0  0  0  0  # atno 10763 bound_to 10752
  154.0470  135.6650  153.4800 H   0  0  0  0  0  0  0  0  0  0  0  0  # atno 10764 bound_to 10752
  153.0601  135.5120  154.7978 H   0  0  0  0  0  0  0  0  0  0  0  0  # atno 10765 bound_to 10752
  141.0394  133.9859  157.3019 H   0  0  0  0  0  0  0  0  0  0  0  0  # atno 11005 bound_to 11000
  144.6962  139.8976  143.7456 LP  0  0  0  0  0  0  0  0  0  0  0  0  # atno 17320 bound_to 7965
  146.0779  139.3767  143.0483 LP  0  0  0  0  0  0  0  0  0  0  0  0  # atno 17321 bound_to 7965
  139.5480  144.2470  152.1478 LP  0  0  0  0  0  0  0  0  0  0  0  0  # atno 17342 bound_to 10162
  140.1702  144.4943  150.6584 LP  0  0  0  0  0  0  0  0  0  0  0  0  # atno 17343 bound_to 10162
  156.0585  130.3704  150.1036 LP  0  0  0  0  0  0  0  0  0  0  0  0  # atno 17370 bound_to 10713
  156.9208  130.9682  151.3549 LP  0  0  0  0  0  0  0  0  0  0  0  0  # atno 17371 bound_to 10713
  139.9264  135.0201  156.8250 LP  0  0  0  0  0  0  0  0  0  0  0  0  # atno 17394 bound_to 11000
  140.6262  133.9947  155.7641 LP  0  0  0  0  0  0  0  0  0  0  0  0  # atno 17395 bound_to 11000

$$$$
