AV-unprocessed.smi:2124|AV-procd|sdf|8667|dock5
  -GOLD-   2272011413D 1   1.00000     0.00000
 Structure written by MMmdl.
 46 48  0  0  0  0  0  0  0  0  2 V2000
  152.0919  131.3202  156.7713 C   0  0  0  0  0  0  0  0  0  0  0  0
  151.0912  132.3451  156.2815 C   0  0  0  0  0  0  0  0  0  0  0  0
  150.6762  132.2873  155.0735 N   0  0  0  0  0  0  0  0  0  0  0  0
  149.7495  133.2389  154.6142 C   0  0  0  0  0  0  0  0  0  0  0  0
  149.3163  133.0977  153.1653 C   0  0  0  0  0  0  0  0  0  0  0  0
  149.2839  134.2233  155.4354 C   0  0  0  0  0  0  0  0  0  0  0  0
  148.2842  135.2894  154.9868 C   0  0  0  0  0  0  0  0  0  0  0  0
  146.9394  134.7850  154.4567 C   0  0  0  0  0  0  0  0  0  0  0  0
  146.0959  134.3134  155.2201 O   0  0  0  0  0  0  0  0  0  0  0  0
  146.7612  134.8879  153.1310 N   0  0  0  0  0  0  0  0  0  0  0  0
  145.5785  134.4515  152.3927 C   0  0  1  0  0  0  0  0  0  0  0  0
  145.2333  135.5010  151.3237 C   0  0  0  0  0  0  0  0  0  0  0  0
  145.8318  133.0537  151.7806 C   0  0  2  0  0  0  0  0  0  0  0  0
  146.4682  133.0665  150.3725 C   0  0  0  0  0  0  0  0  0  0  0  0
  145.5548  132.1205  149.5699 C   0  0  2  0  0  0  0  0  0  0  0  0
  144.2193  132.8320  149.2846 C   0  0  0  0  0  0  0  0  0  0  0  0
  143.5375  132.8356  150.6646 C   0  0  0  0  0  0  0  0  0  0  0  0
  144.5877  132.1542  151.5666 C   0  0  1  0  0  0  0  0  0  0  0  0
  145.1474  131.0954  150.6220 C   0  0  0  0  0  0  0  0  0  0  0  0
  149.7775  134.2473  156.8235 C   0  0  0  0  0  0  0  0  0  0  0  0
  149.3730  135.1019  157.6111 O   0  0  0  0  0  0  0  0  0  0  0  0
  150.6821  133.2951  157.1904 N   0  5  0  0  0  0  0  0  0  0  0  0
  152.4131  130.6652  155.9604 H   0  0  0  0  0  0  0  0  0  0  0  0
  151.6482  130.7041  157.5539 H   0  0  0  0  0  0  0  0  0  0  0  0
  152.9737  131.8157  157.1789 H   0  0  0  0  0  0  0  0  0  0  0  0
  148.2303  133.0413  153.0909 H   0  0  0  0  0  0  0  0  0  0  0  0
  149.7282  132.1932  152.7167 H   0  0  0  0  0  0  0  0  0  0  0  0
  149.6614  133.9494  152.5797 H   0  0  0  0  0  0  0  0  0  0  0  0
  148.1018  135.9960  155.7975 H   0  0  0  0  0  0  0  0  0  0  0  0
  148.7415  135.8878  154.1990 H   0  0  0  0  0  0  0  0  0  0  0  0
  147.5096  135.2928  152.5875 H   0  0  0  0  0  0  0  0  0  0  0  0
  144.7273  134.3827  153.0713 H   0  0  0  0  0  0  0  0  0  0  0  0
  144.3378  135.2234  150.7681 H   0  0  0  0  0  0  0  0  0  0  0  0
  146.0460  135.6208  150.6066 H   0  0  0  0  0  0  0  0  0  0  0  0
  145.0453  136.4747  151.7776 H   0  0  0  0  0  0  0  0  0  0  0  0
  146.5053  132.5162  152.4511 H   0  0  0  0  0  0  0  0  0  0  0  0
  146.5059  134.0618  149.9281 H   0  0  0  0  0  0  0  0  0  0  0  0
  147.4893  132.6851  150.4118 H   0  0  0  0  0  0  0  0  0  0  0  0
  146.0277  131.7065  148.6789 H   0  0  0  0  0  0  0  0  0  0  0  0
  144.3617  133.8381  148.8880 H   0  0  0  0  0  0  0  0  0  0  0  0
  143.6235  132.2697  148.5645 H   0  0  0  0  0  0  0  0  0  0  0  0
  143.2616  133.8354  150.9979 H   0  0  0  0  0  0  0  0  0  0  0  0
  142.6224  132.2429  150.6342 H   0  0  0  0  0  0  0  0  0  0  0  0
  144.1718  131.7559  152.4927 H   0  0  0  0  0  0  0  0  0  0  0  0
  144.3957  130.3872  150.2688 H   0  0  0  0  0  0  0  0  0  0  0  0
  145.9919  130.5426  151.0375 H   0  0  0  0  0  0  0  0  0  0  0  0
  1  2  1  0  0  0  0
  1 23  1  0  0  0  0
  1 24  1  0  0  0  0
  1 25  1  0  0  0  0
  2 22  1  0  0  0  0
  2  3  2  0  0  0  0
  3  4  1  0  0  0  0
  4  5  1  0  0  0  0
  4  6  2  0  0  0  0
  5 26  1  0  0  0  0
  5 27  1  0  0  0  0
  5 28  1  0  0  0  0
  6  7  1  0  0  0  0
  6 20  1  0  0  0  0
  7  8  1  0  0  0  0
  7 29  1  0  0  0  0
  7 30  1  0  0  0  0
  8  9  2  0  0  0  0
  8 10  1  0  0  0  0
 10 11  1  0  0  0  0
 10 31  1  0  0  0  0
 11 12  1  0  0  0  0
 11 13  1  0  0  0  0
 11 32  1  0  0  0  0
 12 33  1  0  0  0  0
 12 34  1  0  0  0  0
 12 35  1  0  0  0  0
 13 18  1  0  0  0  0
 13 14  1  0  0  0  0
 13 36  1  0  0  0  0
 14 15  1  0  0  0  0
 14 37  1  0  0  0  0
 14 38  1  0  0  0  0
 15 19  1  0  0  0  0
 15 16  1  0  0  0  0
 15 39  1  0  0  0  0
 16 17  1  0  0  0  0
 16 40  1  0  0  0  0
 16 41  1  0  0  0  0
 17 18  1  0  0  0  0
 17 42  1  0  0  0  0
 17 43  1  0  0  0  0
 18 19  1  0  0  0  0
 18 44  1  0  0  0  0
 19 45  1  0  0  0  0
 19 46  1  0  0  0  0
 20 21  2  0  0  0  0
 20 22  1  0  0  0  0
M  CHG  1  22  -1
M  END
> <s_m_source_file>
AV-unprocessed.smi

> <i_m_source_file_index>
2124

> <i_lp_mmshare_version>
43012

> <i_f3d_flags>
0

> <s_epik_input>
W0NIM11jMW5jKFtDSDNdKWMoYyg9TylbbkhdMSlbQ0gyXUMoPU8pW05IXVtDQEhdKFtDSDNdKVtDQEhdKFtDSDJdW0NASF0yMylbQ0BIXShbQ0gyXTMpW0NIMl1bQ0gyXTI=

> <s_epik_cmdline>
J2VwaWtfcHl0aG9uJywgJy1waCcsICc3LjAnLCAnLXRuJywgJzgnLCAnLW1hJywgJzIwMCcsICctbWV0YWxfYmluZGluZycsICctaW1hZScsICc8aW5maWxlLm1hZT4nLCAnLW9tYWUnLCAnPG91dGZpbGUubWFlPic=

> <r_lp_tautomer_probability>
0.839158

> <r_epik_Ionization_Penalty>
6.63797

> <r_epik_Ionization_Penalty_Charging>
7.48558e-08

> <r_epik_Ionization_Penalty_Neutral>
6.63797

> <r_epik_State_Penalty>
4.49496

> <r_epik_Charging_Adjusted_Penalty>
4.49496

> <i_epik_Tot_Q>
-1

> <i_epik_Tot_abs_Q>
1

> <r_epik_Metal_State_Penalty>
0.841241

> <b_epik_Metal_Only>
1

> <s_lp_Force_Field>
OPLS_2005

> <r_lp_Energy>
55.4984

> <b_lp_Chiralities_Consistent>
1

> <s_lp_Variant>
AV-unprocessed.smi:2124-18

> <Gold.Version>
5.8.1

> <Gold.Id.Protein>
6NUR|6NUR_protein|mol2

> <Gold.PLP.Fitness>
43.7391

> <Gold.PLP.PLP>
-37.3299

> <Gold.PLP.part.hbond>
-2.0000

> <Gold.PLP.part.metal>
0.0000

> <Gold.PLP.part.buried>
-5.5558

> <Gold.PLP.part.nonpolar>
-31.1418

> <Gold.PLP.part.repulsive>
0.0421

> <Gold.PLP.ligand.clash>
0.0000

> <Gold.PLP.ligand.torsion>
1.0964

> <Gold.PLP.Chemscore.Hbond>
2.8560

> <Gold.PLP.Chemscore.CHOScore>
0.0000

> <Gold.PLP.Chemscore.Metal>
0.0000

> <Gold.Chemscore.Hbonds>
donor molecule, donor type, donor heavy atom, donor atom, acceptor molecule, acceptor atom, score
      L1  H    10    31       P1  7948  1.00
      P1  H  6896  6909       L1    22  1.49

> <Gold.PLP.Chemscore.Internal.Correction>
0.0339

> <Gold.Rescore>
     Score         DG    S(hbond)    S(metal)    S(lipo)     H(rot)  DE(clash)    DE(int)     intcor
     18.00     -19.05       1.90        0.00      96.86       1.61       0.04       1.00       ----

> <Gold.Chemscore.Fitness>
18.0049

> <Gold.Chemscore.DG>
-19.0483

> <Gold.Chemscore.ZeroCoef>
-5.4800

> <Gold.Chemscore.Hbond>
1.8997

> <Gold.Chemscore.Metal>
0.0000

> <Gold.Chemscore.Lipo>
96.8572

> <Gold.Chemscore.Internal_Hbond>
0.0000

> <Gold.Chemscore.DEClash>
0.0388

> <Gold.Chemscore.DEInternal>
1.0046

> <Gold.Chemscore.Rot>
1.6051

> <Gold.Chemscore.Internal.Correction>
   9.000000E+99

> <Gold.Chemscore.Hbonds>
donor molecule, donor type, donor heavy atom, donor atom, acceptor molecule, acceptor atom, score
      L1  H    10    31       P1  7948  1.00
      P1  H  6896  6909       L1    22  0.25

> <Gold.Chemscore.Hbond.Weighted>
-6.3450

> <Gold.Chemscore.Metal.Weighted>
-0.0000

> <Gold.Chemscore.Lipo.Weighted>
-11.3323

> <Gold.Chemscore.Internal_Hbond.Weighted>
0.0000

> <Gold.Chemscore.DEClash.Weighted>
0.0388

> <Gold.Chemscore.DEInternal.Weighted>
1.0046

> <Gold.Chemscore.Rot.Weighted>
4.1090

> <Gold.Chemscore.Internal.Correction.Weighted>
   9.000000E+99

> <Gold.Protein.RotatedTorsions>
[ 6907 6896 6895 6894 ] final   -8.07 input  -60.11 | X-H torsion
[ 7974 7965 7964 7962 ] final -104.08 input  175.53 | X-H torsion
[ 8008 7997 7996 7995 ] final  175.21 input   59.86 | X-H torsion
[ 10167 10162 10161 10158 ] final  -97.45 input  -65.29 | X-H torsion
[ 10718 10713 10712 10709 ] final   81.24 input   66.30 | X-H torsion
[ 10763 10752 10751 10750 ] final   57.46 input  -60.55 | X-H torsion
[ 11005 11000 10999 10996 ] final  171.90 input  -57.11 | X-H torsion

> <Gold.Protein.ActiveResidues>
 VAL166  LYS551  ARG553  GLY616  TRP617  ASP618  TYR619  PRO620  LYS621  CYS622 
 ASP623  PHE694  ASN695  SER759  ASP760  ASP761  ALA762  ILE779  LEU786  VAL792 
 PHE793  MET794  SER795  GLU796  ALA797  LYS798  CYS799  TRP800  GLU811  SER814 

> <Gold.Protein.RotatedAtoms>
  151.4395  135.1018  159.9665 H   0  0  0  0  0  0  0  0  0  0  0  0  # atno 6907 bound_to 6896
  152.4928  133.8542  159.7228 H   0  0  0  0  0  0  0  0  0  0  0  0  # atno 6908 bound_to 6896
  150.9098  133.6953  159.2885 H   0  0  0  0  0  0  0  0  0  0  0  0  # atno 6909 bound_to 6896
  145.2476  140.9227  143.3113 H   0  0  0  0  0  0  0  0  0  0  0  0  # atno 7974 bound_to 7965
  156.0894  140.1414  156.9612 H   0  0  0  0  0  0  0  0  0  0  0  0  # atno 8008 bound_to 7997
  154.4632  140.0935  156.6998 H   0  0  0  0  0  0  0  0  0  0  0  0  # atno 8009 bound_to 7997
  155.4945  140.3449  155.4363 H   0  0  0  0  0  0  0  0  0  0  0  0  # atno 8010 bound_to 7997
  140.2833  143.3268  152.0419 H   0  0  0  0  0  0  0  0  0  0  0  0  # atno 10167 bound_to 10162
  157.6828  130.9995  150.2197 H   0  0  0  0  0  0  0  0  0  0  0  0  # atno 10718 bound_to 10713
  152.9850  135.5641  154.5394 H   0  0  0  0  0  0  0  0  0  0  0  0  # atno 10763 bound_to 10752
  154.4851  135.2790  155.1542 H   0  0  0  0  0  0  0  0  0  0  0  0  # atno 10764 bound_to 10752
  154.3035  135.6303  153.5488 H   0  0  0  0  0  0  0  0  0  0  0  0  # atno 10765 bound_to 10752
  140.3240  134.7413  157.4085 H   0  0  0  0  0  0  0  0  0  0  0  0  # atno 11005 bound_to 11000
  144.9532  139.4060  143.6392 LP  0  0  0  0  0  0  0  0  0  0  0  0  # atno 17320 bound_to 7965
  146.3311  139.8549  142.8866 LP  0  0  0  0  0  0  0  0  0  0  0  0  # atno 17321 bound_to 7965
  139.4957  144.6576  151.6537 LP  0  0  0  0  0  0  0  0  0  0  0  0  # atno 17342 bound_to 10162
  140.5793  143.9973  150.6259 LP  0  0  0  0  0  0  0  0  0  0  0  0  # atno 17343 bound_to 10162
  156.2851  130.3738  149.7896 LP  0  0  0  0  0  0  0  0  0  0  0  0  # atno 17370 bound_to 10713
  156.5573  130.8368  151.3318 LP  0  0  0  0  0  0  0  0  0  0  0  0  # atno 17371 bound_to 10713
  140.0917  134.5591  155.8437 LP  0  0  0  0  0  0  0  0  0  0  0  0  # atno 17394 bound_to 11000
  141.2080  133.6669  156.6340 LP  0  0  0  0  0  0  0  0  0  0  0  0  # atno 17395 bound_to 11000

$$$$
