AV-unprocessed.smi:2216|AV-procd|sdf|8967|dock9
  -GOLD-   2272012183D 1   1.00000     0.00000
 Structure written by MMmdl.
 40 41  0  0  0  0  0  0  0  0  2 V2000
  137.8758  139.5219  154.1726 C   0  0  0  0  0  0  0  0  0  0  0  0
  139.0377  138.5456  154.2431 C   0  0  0  0  0  0  0  0  0  0  0  0
  140.2413  138.8294  153.6851 C   0  0  0  0  0  0  0  0  0  0  0  0
  141.3671  137.8981  153.7556 C   0  0  0  0  0  0  0  0  0  0  0  0
  142.6517  138.0835  153.2282 N   0  0  0  0  0  0  0  0  0  0  0  0
  143.5780  137.1559  152.9286 C   0  0  0  0  0  0  0  0  0  0  0  0
  143.4683  135.9427  153.1039 O   0  0  0  0  0  0  0  0  0  0  0  0
  144.6746  137.7271  152.4104 N   0  0  0  0  0  0  0  0  0  0  0  0
  145.8790  137.0140  152.0011 C   0  0  0  0  0  0  0  0  0  0  0  0
  145.6033  136.0923  150.8011 C   0  0  0  0  0  0  0  0  0  0  0  0
  145.1611  134.6814  151.2194 C   0  0  1  0  0  0  0  0  0  0  0  0
  143.9484  134.1922  150.4037 C   0  0  0  0  0  0  0  0  0  0  0  0
  143.5822  132.7548  150.7900 C   0  0  0  0  0  0  0  0  0  0  0  0
  144.8191  131.8577  150.6750 C   0  0  0  0  0  0  0  0  0  0  0  0
  145.9910  132.4601  151.4660 C   0  0  0  0  0  0  0  0  0  0  0  0
  146.2521  133.7855  151.0144 O   0  0  0  0  0  0  0  0  0  0  0  0
  141.0571  136.7434  154.4452 C   0  0  0  0  0  0  0  0  0  0  0  0
  139.8889  136.3889  155.0226 N   0  5  0  0  0  0  0  0  0  0  0  0
  138.8428  137.2607  154.9447 C   0  0  0  0  0  0  0  0  0  0  0  0
  137.7474  137.0040  155.4425 O   0  0  0  0  0  0  0  0  0  0  0  0
  138.1482  140.4267  153.6285 H   0  0  0  0  0  0  0  0  0  0  0  0
  137.5623  139.8135  155.1755 H   0  0  0  0  0  0  0  0  0  0  0  0
  137.0255  139.0665  153.6640 H   0  0  0  0  0  0  0  0  0  0  0  0
  140.3494  139.7810  153.1908 H   0  0  0  0  0  0  0  0  0  0  0  0
  142.9040  139.0455  153.0558 H   0  0  0  0  0  0  0  0  0  0  0  0
  144.6787  138.7304  152.2999 H   0  0  0  0  0  0  0  0  0  0  0  0
  146.6758  137.7228  151.7695 H   0  0  0  0  0  0  0  0  0  0  0  0
  146.2270  136.4252  152.8500 H   0  0  0  0  0  0  0  0  0  0  0  0
  144.8259  136.5430  150.1830 H   0  0  0  0  0  0  0  0  0  0  0  0
  146.4925  136.0228  150.1730 H   0  0  0  0  0  0  0  0  0  0  0  0
  144.9006  134.6940  152.2795 H   0  0  0  0  0  0  0  0  0  0  0  0
  143.0933  134.8493  150.5650 H   0  0  0  0  0  0  0  0  0  0  0  0
  144.1791  134.2357  149.3385 H   0  0  0  0  0  0  0  0  0  0  0  0
  143.2066  132.7335  151.8138 H   0  0  0  0  0  0  0  0  0  0  0  0
  142.7801  132.3813  150.1527 H   0  0  0  0  0  0  0  0  0  0  0  0
  144.5933  130.8544  151.0373 H   0  0  0  0  0  0  0  0  0  0  0  0
  145.1021  131.7558  149.6266 H   0  0  0  0  0  0  0  0  0  0  0  0
  145.7773  132.4652  152.5358 H   0  0  0  0  0  0  0  0  0  0  0  0
  146.8880  131.8573  151.3239 H   0  0  0  0  0  0  0  0  0  0  0  0
  141.8679  135.9897  154.5441 H   0  0  0  0  0  0  0  0  0  0  0  0
  1  2  1  0  0  0  0
  1 21  1  0  0  0  0
  1 22  1  0  0  0  0
  1 23  1  0  0  0  0
  2 19  1  0  0  0  0
  2  3  2  0  0  0  0
  3  4  1  0  0  0  0
  3 24  1  0  0  0  0
  4  5  1  0  0  0  0
  4 17  2  0  0  0  0
  5  6  1  0  0  0  0
  5 25  1  0  0  0  0
  6  7  2  0  0  0  0
  6  8  1  0  0  0  0
  8  9  1  0  0  0  0
  8 26  1  0  0  0  0
  9 10  1  0  0  0  0
  9 27  1  0  0  0  0
  9 28  1  0  0  0  0
 10 11  1  0  0  0  0
 10 29  1  0  0  0  0
 10 30  1  0  0  0  0
 11 16  1  0  0  0  0
 11 12  1  0  0  0  0
 11 31  1  0  0  0  0
 12 13  1  0  0  0  0
 12 32  1  0  0  0  0
 12 33  1  0  0  0  0
 13 14  1  0  0  0  0
 13 34  1  0  0  0  0
 13 35  1  0  0  0  0
 14 15  1  0  0  0  0
 14 36  1  0  0  0  0
 14 37  1  0  0  0  0
 15 16  1  0  0  0  0
 15 38  1  0  0  0  0
 15 39  1  0  0  0  0
 17 18  1  0  0  0  0
 17 40  1  0  0  0  0
 18 19  1  0  0  0  0
 19 20  2  0  0  0  0
M  CHG  1  18  -1
M  END
> <s_m_source_file>
AV-unprocessed.smi

> <i_m_source_file_index>
2216

> <i_lp_mmshare_version>
43012

> <i_f3d_flags>
0

> <s_epik_input>
Tz1jMVtuSF1bY0hdYyhbY0hdYzFbQ0gzXSlbTkhdQyg9TylbTkhdW0NIMl1bQ0gyXVtDQEBIXTJbQ0gyXVtDSDJdW0NIMl1bQ0gyXU8y

> <s_epik_cmdline>
J2VwaWtfcHl0aG9uJywgJy1waCcsICc3LjAnLCAnLXRuJywgJzgnLCAnLW1hJywgJzIwMCcsICctbWV0YWxfYmluZGluZycsICctaW1hZScsICc8aW5maWxlLm1hZT4nLCAnLW9tYWUnLCAnPG91dGZpbGUubWFlPic=

> <r_lp_tautomer_probability>
1

> <r_epik_Ionization_Penalty>
7.55627

> <r_epik_Ionization_Penalty_Charging>
1.50531

> <r_epik_Ionization_Penalty_Neutral>
6.05097

> <r_epik_State_Penalty>
6.05091

> <r_epik_Charging_Adjusted_Penalty>
7.55622

> <i_epik_Tot_Q>
-1

> <i_epik_Tot_abs_Q>
1

> <r_epik_Metal_State_Penalty>
2.00009

> <b_epik_Metal_Only>
1

> <s_lp_Force_Field>
OPLS_2005

> <r_lp_Energy>
20.9745

> <b_lp_Chiralities_Consistent>
1

> <s_lp_Variant>
AV-unprocessed.smi:2216-4

> <Gold.Version>
5.8.1

> <Gold.Id.Protein>
6NUR|6NUR_protein|mol2

> <Gold.PLP.Fitness>
44.2941

> <Gold.PLP.PLP>
-37.3265

> <Gold.PLP.part.hbond>
-4.0000

> <Gold.PLP.part.metal>
0.0000

> <Gold.PLP.part.buried>
-4.5853

> <Gold.PLP.part.nonpolar>
-30.5041

> <Gold.PLP.part.repulsive>
0.5366

> <Gold.PLP.ligand.clash>
0.0000

> <Gold.PLP.ligand.torsion>
0.9453

> <Gold.PLP.Chemscore.Hbond>
2.9513

> <Gold.PLP.Chemscore.CHOScore>
0.0000

> <Gold.PLP.Chemscore.Metal>
0.0000

> <Gold.Chemscore.Hbonds>
donor molecule, donor type, donor heavy atom, donor atom, acceptor molecule, acceptor atom, score
      L1  H     5    25       P1 10175  1.00
      L1  H     8    26       P1 10175  0.94
      P1  H 11000 11005       L1    18  1.00

> <Gold.PLP.Chemscore.Internal.Correction>
0.0045

> <Gold.Rescore>
     Score         DG    S(hbond)    S(metal)    S(lipo)     H(rot)  DE(clash)    DE(int)     intcor
     17.42     -21.19       2.82        0.00      85.90       1.47       0.17       3.60       ----

> <Gold.Chemscore.Fitness>
17.4166

> <Gold.Chemscore.DG>
-21.1871

> <Gold.Chemscore.ZeroCoef>
-5.4800

> <Gold.Chemscore.Hbond>
2.8210

> <Gold.Chemscore.Metal>
0.0000

> <Gold.Chemscore.Lipo>
85.9016

> <Gold.Chemscore.Internal_Hbond>
0.0000

> <Gold.Chemscore.DEClash>
0.1707

> <Gold.Chemscore.DEInternal>
3.5998

> <Gold.Chemscore.Rot>
1.4709

> <Gold.Chemscore.Internal.Correction>
   9.000000E+99

> <Gold.Chemscore.Hbonds>
donor molecule, donor type, donor heavy atom, donor atom, acceptor molecule, acceptor atom, score
      L1  H     5    25       P1 10175  1.00
      L1  H     8    26       P1 10175  0.88
      P1  H 11000 11005       L1    18  0.86

> <Gold.Chemscore.Hbond.Weighted>
-9.4220

> <Gold.Chemscore.Metal.Weighted>
-0.0000

> <Gold.Chemscore.Lipo.Weighted>
-10.0505

> <Gold.Chemscore.Internal_Hbond.Weighted>
0.0000

> <Gold.Chemscore.DEClash.Weighted>
0.1707

> <Gold.Chemscore.DEInternal.Weighted>
3.5998

> <Gold.Chemscore.Rot.Weighted>
3.7654

> <Gold.Chemscore.Internal.Correction.Weighted>
   9.000000E+99

> <Gold.Protein.RotatedTorsions>
[ 6907 6896 6895 6894 ] final   -6.95 input  -60.11 | X-H torsion
[ 7974 7965 7964 7962 ] final  153.51 input  175.53 | X-H torsion
[ 8008 7997 7996 7995 ] final   66.72 input   59.86 | X-H torsion
[ 10167 10162 10161 10158 ] final  -39.48 input  -65.29 | X-H torsion
[ 10718 10713 10712 10709 ] final  116.69 input   66.30 | X-H torsion
[ 10763 10752 10751 10750 ] final -114.43 input  -60.55 | X-H torsion
[ 11005 11000 10999 10996 ] final   68.41 input  -57.11 | X-H torsion

> <Gold.Protein.ActiveResidues>
 VAL166  LYS551  ARG553  GLY616  TRP617  ASP618  TYR619  PRO620  LYS621  CYS622 
 ASP623  PHE694  ASN695  SER759  ASP760  ASP761  ALA762  ILE779  LEU786  VAL792 
 PHE793  MET794  SER795  GLU796  ALA797  LYS798  CYS799  TRP800  GLU811  SER814 

> <Gold.Protein.RotatedAtoms>
  151.4574  135.1035  159.9714 H   0  0  0  0  0  0  0  0  0  0  0  0  # atno 6907 bound_to 6896
  152.4866  133.8384  159.7150 H   0  0  0  0  0  0  0  0  0  0  0  0  # atno 6908 bound_to 6896
  150.8980  133.7095  159.2913 H   0  0  0  0  0  0  0  0  0  0  0  0  # atno 6909 bound_to 6896
  144.8150  139.6810  143.6125 H   0  0  0  0  0  0  0  0  0  0  0  0  # atno 7974 bound_to 7965
  155.6817  140.3496  155.4858 H   0  0  0  0  0  0  0  0  0  0  0  0  # atno 8008 bound_to 7997
  155.9601  140.1135  157.0925 H   0  0  0  0  0  0  0  0  0  0  0  0  # atno 8009 bound_to 7997
  154.4141  140.1177  156.5154 H   0  0  0  0  0  0  0  0  0  0  0  0  # atno 8010 bound_to 7997
  140.7063  143.3211  151.2789 H   0  0  0  0  0  0  0  0  0  0  0  0  # atno 10167 bound_to 10162
  157.6144  131.1028  150.7509 H   0  0  0  0  0  0  0  0  0  0  0  0  # atno 10718 bound_to 10713
  154.8439  135.4418  154.1504 H   0  0  0  0  0  0  0  0  0  0  0  0  # atno 10763 bound_to 10752
  153.2666  135.6941  153.7529 H   0  0  0  0  0  0  0  0  0  0  0  0  # atno 10764 bound_to 10752
  153.6786  135.3407  155.3147 H   0  0  0  0  0  0  0  0  0  0  0  0  # atno 10765 bound_to 10752
  139.9713  134.6895  156.0441 H   0  0  0  0  0  0  0  0  0  0  0  0  # atno 11005 bound_to 11000
  146.2452  139.6083  142.9464 LP  0  0  0  0  0  0  0  0  0  0  0  0  # atno 17320 bound_to 7965
  145.5236  141.0431  143.2422 LP  0  0  0  0  0  0  0  0  0  0  0  0  # atno 17321 bound_to 7965
  139.6666  144.0095  152.2726 LP  0  0  0  0  0  0  0  0  0  0  0  0  # atno 17342 bound_to 10162
  139.9679  144.6513  150.8017 LP  0  0  0  0  0  0  0  0  0  0  0  0  # atno 17343 bound_to 10162
  156.7879  130.4880  149.5390 LP  0  0  0  0  0  0  0  0  0  0  0  0  # atno 17370 bound_to 10713
  156.1260  130.6144  151.0264 LP  0  0  0  0  0  0  0  0  0  0  0  0  # atno 17371 bound_to 10713
  141.1393  133.6568  156.3682 LP  0  0  0  0  0  0  0  0  0  0  0  0  # atno 17394 bound_to 11000
  140.5287  134.6234  157.5343 LP  0  0  0  0  0  0  0  0  0  0  0  0  # atno 17395 bound_to 11000

$$$$
