AV-unprocessed.smi:2158|AV-procd|sdf|8788|dock2
  -GOLD-   2272011563D 1   1.00000     0.00000
 Structure written by MMmdl.
 31 31  0  0  0  0  0  0  0  0  1 V2000
  151.7695  145.6486  160.4635 C   0  0  0  0  0  0  0  0  0  0  0  0
  151.0379  144.6071  159.6042 C   0  0  0  0  0  0  0  0  0  0  0  0
  151.4665  144.6003  158.1229 C   0  0  1  0  0  0  0  0  0  0  0  0
  152.9942  144.5623  157.9774 C   0  0  0  0  0  0  0  0  0  0  0  0
  150.8922  143.4550  157.4180 N   0  0  0  0  0  0  0  0  0  0  0  0
  151.2406  142.1694  157.5870 C   0  0  0  0  0  0  0  0  0  0  0  0
  152.1250  141.8042  158.3630 O   0  0  0  0  0  0  0  0  0  0  0  0
  150.4836  141.1506  156.7226 C   0  0  0  0  0  0  0  0  0  0  0  0
  151.0699  139.8029  156.7680 N   0  0  0  0  0  0  0  0  0  0  0  0
  151.3324  139.1945  157.9873 C   0  0  0  0  0  0  0  0  0  0  0  0
  151.8626  137.9538  158.1027 C   0  0  0  0  0  0  0  0  0  0  0  0
  152.1907  137.1771  156.9120 C   0  0  0  0  0  0  0  0  0  0  0  0
  152.6765  136.0483  156.9132 O   0  0  0  0  0  0  0  0  0  0  0  0
  151.9077  137.8215  155.7048 N   0  0  0  0  0  0  0  0  0  0  0  0
  151.3599  139.0991  155.5789 C   0  0  0  0  0  0  0  0  0  0  0  0
  151.1458  139.5728  154.4636 O   0  0  0  0  0  0  0  0  0  0  0  0
  152.1134  137.3208  154.8525 H   0  0  0  0  0  0  0  0  0  0  0  0
  151.4765  145.5612  161.5097 H   0  0  0  0  0  0  0  0  0  0  0  0
  151.5404  146.6654  160.1440 H   0  0  0  0  0  0  0  0  0  0  0  0
  152.8502  145.5150  160.4085 H   0  0  0  0  0  0  0  0  0  0  0  0
  151.2216  143.6204  160.0305 H   0  0  0  0  0  0  0  0  0  0  0  0
  149.9622  144.7713  159.6775 H   0  0  0  0  0  0  0  0  0  0  0  0
  151.1241  145.5301  157.6654 H   0  0  0  0  0  0  0  0  0  0  0  0
  153.4561  145.4217  158.4643 H   0  0  0  0  0  0  0  0  0  0  0  0
  153.2891  144.5827  156.9276 H   0  0  0  0  0  0  0  0  0  0  0  0
  153.4149  143.6611  158.4245 H   0  0  0  0  0  0  0  0  0  0  0  0
  150.1623  143.6579  156.7502 H   0  0  0  0  0  0  0  0  0  0  0  0
  149.4363  141.1147  157.0301 H   0  0  0  0  0  0  0  0  0  0  0  0
  150.4694  141.5208  155.6965 H   0  0  0  0  0  0  0  0  0  0  0  0
  151.1010  139.7311  158.8965 H   0  0  0  0  0  0  0  0  0  0  0  0
  152.0441  137.5334  159.0813 H   0  0  0  0  0  0  0  0  0  0  0  0
  1  2  1  0  0  0  0
  1 18  1  0  0  0  0
  1 19  1  0  0  0  0
  1 20  1  0  0  0  0
  2  3  1  0  0  0  0
  2 21  1  0  0  0  0
  2 22  1  0  0  0  0
  3  4  1  0  0  0  0
  3  5  1  0  0  0  0
  3 23  1  0  0  0  0
  4 24  1  0  0  0  0
  4 25  1  0  0  0  0
  4 26  1  0  0  0  0
  5  6  1  0  0  0  0
  5 27  1  0  0  0  0
  6  7  2  0  0  0  0
  6  8  1  0  0  0  0
  8  9  1  0  0  0  0
  8 28  1  0  0  0  0
  8 29  1  0  0  0  0
  9 15  1  0  0  0  0
  9 10  1  0  0  0  0
 10 11  2  0  0  0  0
 10 30  1  0  0  0  0
 11 12  1  0  0  0  0
 11 31  1  0  0  0  0
 12 13  2  0  0  0  0
 12 14  1  0  0  0  0
 14 17  1  0  0  0  0
 14 15  1  0  0  0  0
 15 16  2  0  0  0  0
M  END
> <s_m_source_file>
AV-unprocessed.smi

> <i_m_source_file_index>
2158

> <i_lp_mmshare_version>
43012

> <i_f3d_flags>
0

> <s_epik_input>
W0NIM11bQ0gyXVtDQEhdKFtDSDNdKVtOSF1DKD1PKVtDSDJdbjFbY0hdW2NIXWMoPU8pW25IXWMxPU8=

> <s_epik_cmdline>
J2VwaWtfcHl0aG9uJywgJy1waCcsICc3LjAnLCAnLXRuJywgJzgnLCAnLW1hJywgJzIwMCcsICctbWV0YWxfYmluZGluZycsICctaW1hZScsICc8aW5maWxlLm1hZT4nLCAnLW9tYWUnLCAnPG91dGZpbGUubWFlPic=

> <r_lp_tautomer_probability>
0.999537

> <r_epik_Ionization_Penalty>
0.00326083

> <r_epik_Ionization_Penalty_Charging>
0.00326081

> <r_epik_Ionization_Penalty_Neutral>
1.93017e-08

> <r_epik_State_Penalty>
0.00230249

> <r_epik_Charging_Adjusted_Penalty>
0.0055633

> <i_epik_Tot_Q>
0

> <i_epik_Tot_abs_Q>
0

> <r_epik_Metal_State_Penalty>
0.364899

> <b_epik_Metal_Only>
0

> <s_lp_Force_Field>
OPLS_2005

> <r_lp_Energy>
2.92089

> <b_lp_Chiralities_Consistent>
1

> <s_lp_Variant>
AV-unprocessed.smi:2158-2

> <Gold.Version>
5.8.1

> <Gold.Id.Protein>
6NUR|6NUR_protein|mol2

> <Gold.PLP.Fitness>
38.8820

> <Gold.PLP.PLP>
-30.4469

> <Gold.PLP.part.hbond>
-3.0000

> <Gold.PLP.part.metal>
0.0000

> <Gold.PLP.part.buried>
-4.0099

> <Gold.PLP.part.nonpolar>
-23.6903

> <Gold.PLP.part.repulsive>
0.2650

> <Gold.PLP.ligand.clash>
0.0000

> <Gold.PLP.ligand.torsion>
0.2964

> <Gold.PLP.Chemscore.Hbond>
3.0000

> <Gold.PLP.Chemscore.CHOScore>
0.0000

> <Gold.PLP.Chemscore.Metal>
0.0000

> <Gold.Chemscore.Hbonds>
donor molecule, donor type, donor heavy atom, donor atom, acceptor molecule, acceptor atom, score
      L1  H     5    27       P1  8028  1.00
      P1  H  7989  7998       L1    16  1.00
      P1  H 10752 10764       L1    13  1.00

> <Gold.PLP.Chemscore.Internal.Correction>
0.0279

> <Gold.Rescore>
     Score         DG    S(hbond)    S(metal)    S(lipo)     H(rot)  DE(clash)    DE(int)     intcor
     15.47     -17.90       2.95        0.00      65.56       1.99       0.15       2.28       ----

> <Gold.Chemscore.Fitness>
15.4690

> <Gold.Chemscore.DG>
-17.8960

> <Gold.Chemscore.ZeroCoef>
-5.4800

> <Gold.Chemscore.Hbond>
2.9465

> <Gold.Chemscore.Metal>
0.0000

> <Gold.Chemscore.Lipo>
65.5565

> <Gold.Chemscore.Internal_Hbond>
0.0000

> <Gold.Chemscore.DEClash>
0.1452

> <Gold.Chemscore.DEInternal>
2.2818

> <Gold.Chemscore.Rot>
1.9904

> <Gold.Chemscore.Internal.Correction>
   9.000000E+99

> <Gold.Chemscore.Hbonds>
donor molecule, donor type, donor heavy atom, donor atom, acceptor molecule, acceptor atom, score
      L1  H     5    27       P1  8028  0.97
      P1  H  7989  7998       L1    16  1.00
      P1  H 10752 10764       L1    13  0.97

> <Gold.Chemscore.Hbond.Weighted>
-9.8414

> <Gold.Chemscore.Metal.Weighted>
-0.0000

> <Gold.Chemscore.Lipo.Weighted>
-7.6701

> <Gold.Chemscore.Internal_Hbond.Weighted>
0.0000

> <Gold.Chemscore.DEClash.Weighted>
0.1452

> <Gold.Chemscore.DEInternal.Weighted>
2.2818

> <Gold.Chemscore.Rot.Weighted>
5.0955

> <Gold.Chemscore.Internal.Correction.Weighted>
   9.000000E+99

> <Gold.Protein.RotatedTorsions>
[ 6907 6896 6895 6894 ] final  -94.51 input  -60.11 | X-H torsion
[ 7974 7965 7964 7962 ] final    9.49 input  175.53 | X-H torsion
[ 8008 7997 7996 7995 ] final  118.67 input   59.86 | X-H torsion
[ 10167 10162 10161 10158 ] final  -56.27 input  -65.29 | X-H torsion
[ 10718 10713 10712 10709 ] final -133.64 input   66.30 | X-H torsion
[ 10763 10752 10751 10750 ] final    5.52 input  -60.55 | X-H torsion
[ 11005 11000 10999 10996 ] final  170.33 input  -57.11 | X-H torsion

> <Gold.Protein.ActiveResidues>
 VAL166  LYS551  ARG553  GLY616  TRP617  ASP618  TYR619  PRO620  LYS621  CYS622 
 ASP623  PHE694  ASN695  SER759  ASP760  ASP761  ALA762  ILE779  LEU786  VAL792 
 PHE793  MET794  SER795  GLU796  ALA797  LYS798  CYS799  TRP800  GLU811  SER814 

> <Gold.Protein.RotatedAtoms>
  150.6943  134.1801  159.4244 H   0  0  0  0  0  0  0  0  0  0  0  0  # atno 6907 bound_to 6896
  151.9775  135.0043  160.0565 H   0  0  0  0  0  0  0  0  0  0  0  0  # atno 6908 bound_to 6896
  152.1785  133.4656  159.4982 H   0  0  0  0  0  0  0  0  0  0  0  0  # atno 6909 bound_to 6896
  146.2402  139.9776  142.8440 H   0  0  0  0  0  0  0  0  0  0  0  0  # atno 7974 bound_to 7965
  156.2558  140.2869  156.0871 H   0  0  0  0  0  0  0  0  0  0  0  0  # atno 8008 bound_to 7997
  155.1503  140.0397  157.2837 H   0  0  0  0  0  0  0  0  0  0  0  0  # atno 8009 bound_to 7997
  154.6465  140.2534  155.7268 H   0  0  0  0  0  0  0  0  0  0  0  0  # atno 8010 bound_to 7997
  140.6327  143.2467  151.5200 H   0  0  0  0  0  0  0  0  0  0  0  0  # atno 10167 bound_to 10162
  156.2471  130.7131  151.1015 H   0  0  0  0  0  0  0  0  0  0  0  0  # atno 10718 bound_to 10713
  153.2585  135.6921  153.7604 H   0  0  0  0  0  0  0  0  0  0  0  0  # atno 10763 bound_to 10752
  153.6672  135.3350  155.3144 H   0  0  0  0  0  0  0  0  0  0  0  0  # atno 10764 bound_to 10752
  154.8421  135.4491  154.1567 H   0  0  0  0  0  0  0  0  0  0  0  0  # atno 10765 bound_to 10752
  140.3072  134.7546  157.3963 H   0  0  0  0  0  0  0  0  0  0  0  0  # atno 11005 bound_to 11000
  145.1622  140.9679  143.4370 LP  0  0  0  0  0  0  0  0  0  0  0  0  # atno 17320 bound_to 7965
  145.0105  139.3514  143.6122 LP  0  0  0  0  0  0  0  0  0  0  0  0  # atno 17321 bound_to 7965
  139.5539  144.2324  152.1579 LP  0  0  0  0  0  0  0  0  0  0  0  0  # atno 17342 bound_to 10162
  140.1572  144.5059  150.6653 LP  0  0  0  0  0  0  0  0  0  0  0  0  # atno 17343 bound_to 10162
  157.7199  131.0688  150.6177 LP  0  0  0  0  0  0  0  0  0  0  0  0  # atno 17370 bound_to 10713
  156.6254  130.4417  149.5806 LP  0  0  0  0  0  0  0  0  0  0  0  0  # atno 17371 bound_to 10713
  140.1056  134.5414  155.8312 LP  0  0  0  0  0  0  0  0  0  0  0  0  # atno 17394 bound_to 11000
  141.2116  133.6708  156.6593 LP  0  0  0  0  0  0  0  0  0  0  0  0  # atno 17395 bound_to 11000

$$$$
