AV-unprocessed.smi:1080|AV-procd|sdf|4707|dock4
  -GOLD-   22720 3233D 1   1.00000     0.00000
 Structure written by MMmdl.
 48 50  0  0  0  0  0  0  0  0  1 V2000
  149.1576  133.9561  155.5647 O   0  0  0  0  0  0  0  0  0  0  0  0
  148.8950  134.8308  154.7396 C   0  0  0  0  0  0  0  0  0  0  0  0
  148.0892  134.6785  153.6737 N   0  0  0  0  0  0  0  0  0  0  0  0
  147.3248  133.5439  153.2869 C   0  0  0  0  0  0  0  0  0  0  0  0
  147.4990  132.3541  154.0239 C   0  0  0  0  0  0  0  0  0  0  0  0
  146.7678  131.2092  153.6491 C   0  0  0  0  0  0  0  0  0  0  0  0
  145.9088  131.1851  152.6086 N   0  0  0  0  0  0  0  0  0  0  0  0
  145.7533  132.3206  151.8957 C   0  0  0  0  0  0  0  0  0  0  0  0
  146.4346  133.5198  152.1860 C   0  0  0  0  0  0  0  0  0  0  0  0
  149.4023  136.0717  154.7842 N   0  0  0  0  0  0  0  0  0  0  0  0
  150.3078  136.5939  155.8044 C   0  0  2  0  0  0  0  0  0  0  0  0
  149.5186  137.4704  156.7927 C   0  0  0  0  0  0  0  0  0  0  0  0
  150.4403  138.1599  157.8195 C   0  0  0  0  0  0  0  0  0  0  0  0
  151.6380  138.9221  157.1958 C   0  0  2  0  0  0  0  0  0  0  0  0
  151.2561  140.2917  156.5802 C   0  0  0  0  0  0  0  0  0  0  0  0
  151.2542  140.4095  155.3544 O   0  0  0  0  0  0  0  0  0  0  0  0
  150.8989  141.3222  157.3897 N   0  0  0  0  0  0  0  0  0  0  0  0
  151.0364  141.2540  158.8505 C   0  0  0  0  0  0  0  0  0  0  0  0
  152.3066  142.0146  159.2680 C   0  0  0  0  0  0  0  0  0  0  0  0
  152.1925  143.7768  158.8234 S   0  0  0  0  0  0  0  0  0  0  0  0
  151.6746  143.6231  157.0849 C   0  0  0  0  0  0  0  0  0  0  0  0
  150.4830  142.6608  156.9523 C   0  0  0  0  0  0  0  0  0  0  0  0
  152.3766  138.0177  156.1825 C   0  0  0  0  0  0  0  0  0  0  0  0
  151.4361  137.3978  155.1350 C   0  0  0  0  0  0  0  0  0  0  0  0
  148.0425  135.4635  153.0408 H   0  0  0  0  0  0  0  0  0  0  0  0
  148.1760  132.3153  154.8648 H   0  0  0  0  0  0  0  0  0  0  0  0
  146.8787  130.2864  154.1993 H   0  0  0  0  0  0  0  0  0  0  0  0
  145.0685  132.2712  151.0621 H   0  0  0  0  0  0  0  0  0  0  0  0
  146.2711  134.3806  151.5568 H   0  0  0  0  0  0  0  0  0  0  0  0
  149.1319  136.7160  154.0556 H   0  0  0  0  0  0  0  0  0  0  0  0
  150.7619  135.7760  156.3669 H   0  0  0  0  0  0  0  0  0  0  0  0
  148.9405  138.2141  156.2450 H   0  0  0  0  0  0  0  0  0  0  0  0
  148.7859  136.8594  157.3211 H   0  0  0  0  0  0  0  0  0  0  0  0
  149.8514  138.8309  158.4462 H   0  0  0  0  0  0  0  0  0  0  0  0
  150.8315  137.3978  158.4948 H   0  0  0  0  0  0  0  0  0  0  0  0
  152.3047  139.1148  158.0348 H   0  0  0  0  0  0  0  0  0  0  0  0
  150.1610  141.6894  159.3343 H   0  0  0  0  0  0  0  0  0  0  0  0
  151.0842  140.2274  159.2164 H   0  0  0  0  0  0  0  0  0  0  0  0
  152.4625  141.9347  160.3438 H   0  0  0  0  0  0  0  0  0  0  0  0
  153.1838  141.5822  158.7852 H   0  0  0  0  0  0  0  0  0  0  0  0
  151.4092  144.6120  156.7106 H   0  0  0  0  0  0  0  0  0  0  0  0
  152.5191  143.2719  156.4909 H   0  0  0  0  0  0  0  0  0  0  0  0
  150.0904  142.6745  155.9370 H   0  0  0  0  0  0  0  0  0  0  0  0
  149.6550  143.0123  157.5694 H   0  0  0  0  0  0  0  0  0  0  0  0
  153.1642  138.5748  155.6743 H   0  0  0  0  0  0  0  0  0  0  0  0
  152.8824  137.2173  156.7240 H   0  0  0  0  0  0  0  0  0  0  0  0
  152.0094  136.7487  154.4720 H   0  0  0  0  0  0  0  0  0  0  0  0
  151.0148  138.1828  154.5055 H   0  0  0  0  0  0  0  0  0  0  0  0
  1  2  2  0  0  0  0
  2  3  1  0  0  0  0
  2 10  1  0  0  0  0
  3  4  1  0  0  0  0
  3 25  1  0  0  0  0
  4  9  1  0  0  0  0
  4  5  2  0  0  0  0
  5  6  1  0  0  0  0
  5 26  1  0  0  0  0
  6  7  2  0  0  0  0
  6 27  1  0  0  0  0
  7  8  1  0  0  0  0
  8  9  2  0  0  0  0
  8 28  1  0  0  0  0
  9 29  1  0  0  0  0
 10 11  1  0  0  0  0
 10 30  1  0  0  0  0
 11 24  1  0  0  0  0
 11 12  1  0  0  0  0
 11 31  1  0  0  0  0
 12 13  1  0  0  0  0
 12 32  1  0  0  0  0
 12 33  1  0  0  0  0
 13 14  1  0  0  0  0
 13 34  1  0  0  0  0
 13 35  1  0  0  0  0
 14 15  1  0  0  0  0
 14 23  1  0  0  0  0
 14 36  1  0  0  0  0
 15 16  2  0  0  0  0
 15 17  1  0  0  0  0
 17 22  1  0  0  0  0
 17 18  1  0  0  0  0
 18 19  1  0  0  0  0
 18 37  1  0  0  0  0
 18 38  1  0  0  0  0
 19 20  1  0  0  0  0
 19 39  1  0  0  0  0
 19 40  1  0  0  0  0
 20 21  1  0  0  0  0
 21 22  1  0  0  0  0
 21 41  1  0  0  0  0
 21 42  1  0  0  0  0
 22 43  1  0  0  0  0
 22 44  1  0  0  0  0
 23 24  1  0  0  0  0
 23 45  1  0  0  0  0
 23 46  1  0  0  0  0
 24 47  1  0  0  0  0
 24 48  1  0  0  0  0
M  END
> <s_m_source_file>
AV-unprocessed.smi

> <i_m_source_file_index>
1080

> <i_lp_mmshare_version>
43012

> <i_f3d_flags>
0

> <s_epik_input>
W2NIXTFbY0hdbltjSF1bY0hdYzFbTkhdQyg9TylbTkhdW0NAQEhdMltDSDJdW0NIMl1bQ0BIXShbQ0gyXVtDSDJdMilDKD1PKU4zW0NIMl1bQ0gyXVNbQ0gyXVtDSDJdMw==

> <s_epik_cmdline>
J2VwaWtfcHl0aG9uJywgJy1waCcsICc3LjAnLCAnLXRuJywgJzgnLCAnLW1hJywgJzIwMCcsICctbWV0YWxfYmluZGluZycsICctaW1hZScsICc8aW5maWxlLm1hZT4nLCAnLW9tYWUnLCAnPG91dGZpbGUubWFlPic=

> <r_epik_Ionization_Penalty>
0.118325

> <r_epik_Ionization_Penalty_Charging>
0

> <r_epik_Ionization_Penalty_Neutral>
0.118325

> <r_epik_State_Penalty>
0.107868

> <r_epik_Charging_Adjusted_Penalty>
0.107868

> <i_epik_Tot_Q>
0

> <i_epik_Tot_abs_Q>
0

> <r_epik_Metal_State_Penalty>
0.0897632

> <b_epik_Metal_Only>
0

> <s_lp_Force_Field>
OPLS_2005

> <r_lp_Energy>
32.5604

> <b_lp_Chiralities_Consistent>
1

> <s_lp_Variant>
AV-unprocessed.smi:1080-2

> <Gold.Version>
5.8.1

> <Gold.Id.Protein>
6NUR|6NUR_protein|mol2

> <Gold.PLP.Fitness>
45.5629

> <Gold.PLP.PLP>
-41.1440

> <Gold.PLP.part.hbond>
-3.0000

> <Gold.PLP.part.metal>
0.0000

> <Gold.PLP.part.buried>
-2.3355

> <Gold.PLP.part.nonpolar>
-36.8391

> <Gold.PLP.part.repulsive>
0.2823

> <Gold.PLP.ligand.clash>
0.0000

> <Gold.PLP.ligand.torsion>
0.5765

> <Gold.PLP.Chemscore.Hbond>
1.8331

> <Gold.PLP.Chemscore.CHOScore>
0.0000

> <Gold.PLP.Chemscore.Metal>
0.0000

> <Gold.Chemscore.Hbonds>
donor molecule, donor type, donor heavy atom, donor atom, acceptor molecule, acceptor atom, score
      L1  H     3    25       P1  7948  0.78
      L1  H    10    30       P1  7948  0.25
      P1  H  7989  7998       L1    16  0.96

> <Gold.PLP.Chemscore.Internal.Correction>
0.0724

> <Gold.Rescore>
     Score         DG    S(hbond)    S(metal)    S(lipo)     H(rot)  DE(clash)    DE(int)     intcor
     18.89     -21.76       2.12        0.00     105.55       1.23       0.19       2.68       ----

> <Gold.Chemscore.Fitness>
18.8921

> <Gold.Chemscore.DG>
-21.7637

> <Gold.Chemscore.ZeroCoef>
-5.4800

> <Gold.Chemscore.Hbond>
2.1242

> <Gold.Chemscore.Metal>
0.0000

> <Gold.Chemscore.Lipo>
105.5465

> <Gold.Chemscore.Internal_Hbond>
0.0000

> <Gold.Chemscore.DEClash>
0.1922

> <Gold.Chemscore.DEInternal>
2.6794

> <Gold.Chemscore.Rot>
1.2344

> <Gold.Chemscore.Internal.Correction>
   9.000000E+99

> <Gold.Chemscore.Hbonds>
donor molecule, donor type, donor heavy atom, donor atom, acceptor molecule, acceptor atom, score
      L1  H     3    25       P1  7948  0.78
      L1  H    10    30       P1  7948  0.24
      P1  H  7989  7998       L1    16  0.91

> <Gold.Chemscore.Hbond.Weighted>
-7.0947

> <Gold.Chemscore.Metal.Weighted>
-0.0000

> <Gold.Chemscore.Lipo.Weighted>
-12.3489

> <Gold.Chemscore.Internal_Hbond.Weighted>
0.0000

> <Gold.Chemscore.DEClash.Weighted>
0.1922

> <Gold.Chemscore.DEInternal.Weighted>
2.6794

> <Gold.Chemscore.Rot.Weighted>
3.1600

> <Gold.Chemscore.Internal.Correction.Weighted>
   9.000000E+99

> <Gold.Protein.RotatedTorsions>
[ 6907 6896 6895 6894 ] final    9.62 input  -60.11 | X-H torsion
[ 7974 7965 7964 7962 ] final  158.31 input  175.53 | X-H torsion
[ 8008 7997 7996 7995 ] final   17.96 input   59.86 | X-H torsion
[ 10167 10162 10161 10158 ] final -177.13 input  -65.29 | X-H torsion
[ 10718 10713 10712 10709 ] final  -29.46 input   66.30 | X-H torsion
[ 10763 10752 10751 10750 ] final -172.25 input  -60.55 | X-H torsion
[ 11005 11000 10999 10996 ] final  -26.37 input  -57.11 | X-H torsion

> <Gold.Protein.ActiveResidues>
 VAL166  LYS551  ARG553  GLY616  TRP617  ASP618  TYR619  PRO620  LYS621  CYS622 
 ASP623  PHE694  ASN695  SER759  ASP760  ASP761  ALA762  ILE779  LEU786  VAL792 
 PHE793  MET794  SER795  GLU796  ALA797  LYS798  CYS799  TRP800  GLU811  SER814 

> <Gold.Protein.RotatedAtoms>
  151.7252  135.0886  160.0290 H   0  0  0  0  0  0  0  0  0  0  0  0  # atno 6907 bound_to 6896
  152.3577  133.6253  159.6000 H   0  0  0  0  0  0  0  0  0  0  0  0  # atno 6908 bound_to 6896
  150.7582  133.9390  159.3492 H   0  0  0  0  0  0  0  0  0  0  0  0  # atno 6909 bound_to 6896
  144.7853  139.7461  143.6243 H   0  0  0  0  0  0  0  0  0  0  0  0  # atno 7974 bound_to 7965
  154.8991  140.2998  155.5328 H   0  0  0  0  0  0  0  0  0  0  0  0  # atno 8008 bound_to 7997
  156.3019  140.2410  156.3951 H   0  0  0  0  0  0  0  0  0  0  0  0  # atno 8009 bound_to 7997
  154.8540  140.0408  157.1611 H   0  0  0  0  0  0  0  0  0  0  0  0  # atno 8010 bound_to 7997
  139.5495  144.2147  152.1051 H   0  0  0  0  0  0  0  0  0  0  0  0  # atno 10167 bound_to 10162
  156.4122  130.4410  149.7244 H   0  0  0  0  0  0  0  0  0  0  0  0  # atno 10718 bound_to 10713
  154.6214  135.2876  155.0321 H   0  0  0  0  0  0  0  0  0  0  0  0  # atno 10763 bound_to 10752
  154.1515  135.6503  153.4968 H   0  0  0  0  0  0  0  0  0  0  0  0  # atno 10764 bound_to 10752
  153.0238  135.5356  154.7006 H   0  0  0  0  0  0  0  0  0  0  0  0  # atno 10765 bound_to 10752
  140.9023  133.7516  156.0560 H   0  0  0  0  0  0  0  0  0  0  0  0  # atno 11005 bound_to 11000
  146.2082  139.5420  142.9699 LP  0  0  0  0  0  0  0  0  0  0  0  0  # atno 17320 bound_to 7965
  145.5939  141.0365  143.2055 LP  0  0  0  0  0  0  0  0  0  0  0  0  # atno 17321 bound_to 7965
  140.1639  144.4999  150.6617 LP  0  0  0  0  0  0  0  0  0  0  0  0  # atno 17342 bound_to 10162
  140.6753  143.2303  151.5521 LP  0  0  0  0  0  0  0  0  0  0  0  0  # atno 17343 bound_to 10162
  156.4218  130.7772  151.2790 LP  0  0  0  0  0  0  0  0  0  0  0  0  # atno 17370 bound_to 10713
  157.7507  131.0180  150.3610 LP  0  0  0  0  0  0  0  0  0  0  0  0  # atno 17371 bound_to 10713
  140.8215  134.3284  157.5380 LP  0  0  0  0  0  0  0  0  0  0  0  0  # atno 17394 bound_to 11000
  139.8744  134.9312  156.3521 LP  0  0  0  0  0  0  0  0  0  0  0  0  # atno 17395 bound_to 11000

$$$$
