AV-unprocessed.smi:840|AV-procd|sdf|3912|dock3
  -GOLD-   22720 1373D 1   1.00000     0.00000
 Structure written by MMmdl.
 37 38  0  0  0  0  0  0  0  0  1 V2000
  146.7577  139.7468  151.8048 C   0  0  0  0  0  0  0  0  0  0  0  0
  146.5065  138.6642  152.8676 C   0  0  1  0  0  0  0  0  0  0  0  0
  146.7175  137.3583  152.2452 N   0  0  0  0  0  0  0  0  0  0  0  0
  145.7424  136.5215  151.8591 C   0  0  0  0  0  0  0  0  0  0  0  0
  144.5434  136.7774  151.9774 O   0  0  0  0  0  0  0  0  0  0  0  0
  146.2488  135.3889  151.3411 N   0  0  0  0  0  0  0  0  0  0  0  0
  145.5454  134.2771  150.8077 C   0  0  0  0  0  0  0  0  0  0  0  0
  144.2362  134.2745  150.5305 N   0  0  0  0  0  0  0  0  0  0  0  0
  143.8126  133.0490  150.0101 C   0  0  0  0  0  0  0  0  0  0  0  0
  144.8196  132.1230  149.8971 C   0  0  0  0  0  0  0  0  0  0  0  0
  146.3494  132.7575  150.4423 S   0  0  0  0  0  0  0  0  0  0  0  0
  147.5028  138.8744  154.0184 C   0  0  0  0  0  0  0  0  0  0  0  0
  147.3045  139.7445  154.8680 O   0  0  0  0  0  0  0  0  0  0  0  0
  148.5695  138.0614  154.0325 N   0  0  0  0  0  0  0  0  0  0  0  0
  149.6432  138.0987  155.0214 C   0  0  0  0  0  0  0  0  0  0  0  0
  150.0078  139.5473  155.4042 C   0  0  0  0  0  0  0  0  0  0  0  0
  151.3620  139.8255  154.7519 C   0  0  0  0  0  0  0  0  0  0  0  0
  152.0547  138.4667  154.7417 C   0  0  0  0  0  0  0  0  0  0  0  0
  150.9305  137.4695  154.4541 C   0  0  0  0  0  0  0  0  0  0  0  0
  146.6226  140.7469  152.2187 H   0  0  0  0  0  0  0  0  0  0  0  0
  146.0592  139.6442  150.9740 H   0  0  0  0  0  0  0  0  0  0  0  0
  147.7673  139.6898  151.3945 H   0  0  0  0  0  0  0  0  0  0  0  0
  145.4803  138.7426  153.2327 H   0  0  0  0  0  0  0  0  0  0  0  0
  147.6752  137.0665  152.1177 H   0  0  0  0  0  0  0  0  0  0  0  0
  147.2552  135.3143  151.3222 H   0  0  0  0  0  0  0  0  0  0  0  0
  142.7730  132.9224  149.7462 H   0  0  0  0  0  0  0  0  0  0  0  0
  144.7541  131.1106  149.5272 H   0  0  0  0  0  0  0  0  0  0  0  0
  148.6537  137.3790  153.2931 H   0  0  0  0  0  0  0  0  0  0  0  0
  149.3349  137.5521  155.9147 H   0  0  0  0  0  0  0  0  0  0  0  0
  149.2549  140.2802  155.1102 H   0  0  0  0  0  0  0  0  0  0  0  0
  150.1114  139.6150  156.4879 H   0  0  0  0  0  0  0  0  0  0  0  0
  151.2136  140.1704  153.7277 H   0  0  0  0  0  0  0  0  0  0  0  0
  151.9355  140.5871  155.2813 H   0  0  0  0  0  0  0  0  0  0  0  0
  152.8619  138.4120  154.0108 H   0  0  0  0  0  0  0  0  0  0  0  0
  152.4809  138.2667  155.7256 H   0  0  0  0  0  0  0  0  0  0  0  0
  151.1355  136.4905  154.8888 H   0  0  0  0  0  0  0  0  0  0  0  0
  150.8485  137.3301  153.3745 H   0  0  0  0  0  0  0  0  0  0  0  0
  1  2  1  0  0  0  0
  1 20  1  0  0  0  0
  1 21  1  0  0  0  0
  1 22  1  0  0  0  0
  2  3  1  0  0  0  0
  2 12  1  0  0  0  0
  2 23  1  0  0  0  0
  3  4  1  0  0  0  0
  3 24  1  0  0  0  0
  4  5  2  0  0  0  0
  4  6  1  0  0  0  0
  6  7  1  0  0  0  0
  6 25  1  0  0  0  0
  7 11  1  0  0  0  0
  7  8  2  0  0  0  0
  8  9  1  0  0  0  0
  9 10  2  0  0  0  0
  9 26  1  0  0  0  0
 10 11  1  0  0  0  0
 10 27  1  0  0  0  0
 12 13  2  0  0  0  0
 12 14  1  0  0  0  0
 14 15  1  0  0  0  0
 14 28  1  0  0  0  0
 15 19  1  0  0  0  0
 15 16  1  0  0  0  0
 15 29  1  0  0  0  0
 16 17  1  0  0  0  0
 16 30  1  0  0  0  0
 16 31  1  0  0  0  0
 17 18  1  0  0  0  0
 17 32  1  0  0  0  0
 17 33  1  0  0  0  0
 18 19  1  0  0  0  0
 18 34  1  0  0  0  0
 18 35  1  0  0  0  0
 19 36  1  0  0  0  0
 19 37  1  0  0  0  0
M  END
> <s_m_source_file>
AV-unprocessed.smi

> <i_m_source_file_index>
840

> <i_lp_mmshare_version>
43012

> <i_f3d_flags>
0

> <s_epik_input>
W0NIMl0xW0NIMl1bQ0gyXVtDSDJdW0NIXTFbTkhdQyg9TylbQ0BIXShbQ0gzXSlbTkhdQyg9TylbTkhdYzJuW2NIXVtjSF1zMg==

> <s_epik_cmdline>
J2VwaWtfcHl0aG9uJywgJy1waCcsICc3LjAnLCAnLXRuJywgJzgnLCAnLW1hJywgJzIwMCcsICctbWV0YWxfYmluZGluZycsICctaW1hZScsICc8aW5maWxlLm1hZT4nLCAnLW9tYWUnLCAnPG91dGZpbGUubWFlPic=

> <r_lp_tautomer_probability>
1

> <r_epik_Ionization_Penalty>
0.000138928

> <r_epik_Ionization_Penalty_Charging>
0

> <r_epik_Ionization_Penalty_Neutral>
0.000138928

> <r_epik_State_Penalty>
-0

> <r_epik_Charging_Adjusted_Penalty>
0

> <i_epik_Tot_Q>
0

> <i_epik_Tot_abs_Q>
0

> <r_epik_Metal_State_Penalty>
0.0502858

> <b_epik_Metal_Only>
0

> <s_lp_Force_Field>
OPLS_2005

> <r_lp_Energy>
16.0697

> <b_lp_Chiralities_Consistent>
1

> <s_lp_Variant>
AV-unprocessed.smi:840-2

> <Gold.Version>
5.8.1

> <Gold.Id.Protein>
6NUR|6NUR_protein|mol2

> <Gold.PLP.Fitness>
40.7791

> <Gold.PLP.PLP>
-31.1595

> <Gold.PLP.part.hbond>
-2.9577

> <Gold.PLP.part.metal>
0.0000

> <Gold.PLP.part.buried>
2.1324

> <Gold.PLP.part.nonpolar>
-31.5911

> <Gold.PLP.part.repulsive>
1.8650

> <Gold.PLP.ligand.clash>
0.0000

> <Gold.PLP.ligand.torsion>
1.0639

> <Gold.PLP.Chemscore.Hbond>
2.9120

> <Gold.PLP.Chemscore.CHOScore>
1.0000

> <Gold.PLP.Chemscore.Metal>
0.0000

> <Gold.Chemscore.Hbonds>
donor molecule, donor type, donor heavy atom, donor atom, acceptor molecule, acceptor atom, score
      L1  H     3    24       P1  7948  1.00
      L1  H     6    25       P1  7948  0.91
      L1  H    14    28       P1  7948  1.00
      L1  C     9    26       P1 10186  1.00

> <Gold.PLP.Chemscore.Internal.Correction>
0.0114

> <Gold.Rescore>
     Score         DG    S(hbond)    S(metal)    S(lipo)     H(rot)  DE(clash)    DE(int)     intcor
     14.68     -19.65       2.86        0.00      75.55       1.65       1.28       3.68       ----

> <Gold.Chemscore.Fitness>
14.6799

> <Gold.Chemscore.DG>
-19.6477

> <Gold.Chemscore.ZeroCoef>
-5.4800

> <Gold.Chemscore.Hbond>
2.8591

> <Gold.Chemscore.Metal>
0.0000

> <Gold.Chemscore.Lipo>
75.5527

> <Gold.Chemscore.Internal_Hbond>
0.0000

> <Gold.Chemscore.DEClash>
1.2831

> <Gold.Chemscore.DEInternal>
3.6847

> <Gold.Chemscore.Rot>
1.6490

> <Gold.Chemscore.Internal.Correction>
   9.000000E+99

> <Gold.Chemscore.Hbonds>
donor molecule, donor type, donor heavy atom, donor atom, acceptor molecule, acceptor atom, score
      L1  H     3    24       P1  7948  0.93
      L1  H     6    25       P1  7948  0.72
      L1  H    14    28       P1  7948  1.00

> <Gold.Chemscore.Hbond.Weighted>
-9.5495

> <Gold.Chemscore.Metal.Weighted>
-0.0000

> <Gold.Chemscore.Lipo.Weighted>
-8.8397

> <Gold.Chemscore.Internal_Hbond.Weighted>
0.0000

> <Gold.Chemscore.DEClash.Weighted>
1.2831

> <Gold.Chemscore.DEInternal.Weighted>
3.6847

> <Gold.Chemscore.Rot.Weighted>
4.2215

> <Gold.Chemscore.Internal.Correction.Weighted>
   9.000000E+99

> <Gold.Protein.RotatedTorsions>
[ 6907 6896 6895 6894 ] final -170.75 input  -60.11 | X-H torsion
[ 7974 7965 7964 7962 ] final  -38.34 input  175.53 | X-H torsion
[ 8008 7997 7996 7995 ] final  -97.87 input   59.86 | X-H torsion
[ 10167 10162 10161 10158 ] final  132.58 input  -65.29 | X-H torsion
[ 10718 10713 10712 10709 ] final  -67.88 input   66.30 | X-H torsion
[ 10763 10752 10751 10750 ] final   35.47 input  -60.55 | X-H torsion
[ 11005 11000 10999 10996 ] final  137.71 input  -57.11 | X-H torsion

> <Gold.Protein.ActiveResidues>
 VAL166  LYS551  ARG553  GLY616  TRP617  ASP618  TYR619  PRO620  LYS621  CYS622 
 ASP623  PHE694  ASN695  SER759  ASP760  ASP761  ALA762  ILE779  LEU786  VAL792 
 PHE793  MET794  SER795  GLU796  ALA797  LYS798  CYS799  TRP800  GLU811  SER814 

> <Gold.Protein.RotatedAtoms>
  151.5127  133.3482  159.2887 H   0  0  0  0  0  0  0  0  0  0  0  0  # atno 6907 bound_to 6896
  150.8702  134.8076  159.7160 H   0  0  0  0  0  0  0  0  0  0  0  0  # atno 6908 bound_to 6896
  152.4693  134.5010  159.9776 H   0  0  0  0  0  0  0  0  0  0  0  0  # atno 6909 bound_to 6896
  146.0495  140.6500  142.9048 H   0  0  0  0  0  0  0  0  0  0  0  0  # atno 7974 bound_to 7965
  154.7935  140.0459  157.1219 H   0  0  0  0  0  0  0  0  0  0  0  0  # atno 8008 bound_to 7997
  154.9563  140.3071  155.5032 H   0  0  0  0  0  0  0  0  0  0  0  0  # atno 8009 bound_to 7997
  156.2953  140.2279  156.4645 H   0  0  0  0  0  0  0  0  0  0  0  0  # atno 8010 bound_to 7997
  139.5333  144.6655  151.4873 H   0  0  0  0  0  0  0  0  0  0  0  0  # atno 10167 bound_to 10162
  156.0534  130.4285  150.1919 H   0  0  0  0  0  0  0  0  0  0  0  0  # atno 10718 bound_to 10713
  153.0118  135.6332  154.1831 H   0  0  0  0  0  0  0  0  0  0  0  0  # atno 10763 bound_to 10752
  154.1573  135.2825  155.3120 H   0  0  0  0  0  0  0  0  0  0  0  0  # atno 10764 bound_to 10752
  154.6008  135.5588  153.7433 H   0  0  0  0  0  0  0  0  0  0  0  0  # atno 10765 bound_to 10752
  140.0133  134.9429  157.0323 H   0  0  0  0  0  0  0  0  0  0  0  0  # atno 11005 bound_to 11000
  144.7115  140.4057  143.7077 LP  0  0  0  0  0  0  0  0  0  0  0  0  # atno 17320 bound_to 7965
  145.6748  139.1606  143.2734 LP  0  0  0  0  0  0  0  0  0  0  0  0  # atno 17321 bound_to 7965
  140.6525  143.8667  150.6800 LP  0  0  0  0  0  0  0  0  0  0  0  0  # atno 17342 bound_to 10162
  140.2036  143.3939  152.1772 LP  0  0  0  0  0  0  0  0  0  0  0  0  # atno 17343 bound_to 10162
  156.9999  130.9919  151.3393 LP  0  0  0  0  0  0  0  0  0  0  0  0  # atno 17370 bound_to 10713
  157.5482  130.8165  149.8112 LP  0  0  0  0  0  0  0  0  0  0  0  0  # atno 17371 bound_to 10713
  140.4516  134.1576  155.7182 LP  0  0  0  0  0  0  0  0  0  0  0  0  # atno 17394 bound_to 11000
  141.1725  133.8579  157.1524 LP  0  0  0  0  0  0  0  0  0  0  0  0  # atno 17395 bound_to 11000

$$$$
