AV-unprocessed.smi:2328|AV-procd|sdf|9301|dock6
  -GOLD-   2272012523D 1   1.00000     0.00000
 Structure written by MMmdl.
 40 40  0  0  0  0  0  0  0  0  1 V2000
  148.4779  138.9517  153.9175 C   0  0  0  0  0  0  0  0  0  0  0  0
  149.2865  140.0908  154.5736 C   0  0  0  0  0  0  0  0  0  0  0  0
  148.6127  140.9154  155.7282 C   0  0  2  0  0  0  0  0  0  0  0  0
  149.4608  142.0854  156.0510 N   0  0  0  0  0  0  0  0  0  0  0  0
  150.7313  142.2204  156.4866 C   0  0  0  0  0  0  0  0  0  0  0  0
  151.4158  141.2167  156.6787 O   0  0  0  0  0  0  0  0  0  0  0  0
  151.3459  143.6094  156.7364 C   0  0  0  0  0  0  0  0  0  0  0  0
  151.7135  143.8041  158.1983 C   0  0  0  0  0  0  0  0  0  0  0  0
  152.7642  143.0709  158.7880 C   0  0  0  0  0  0  0  0  0  0  0  0
  153.0643  143.2893  160.1464 C   0  0  0  0  0  0  0  0  0  0  0  0
  152.2991  144.2343  160.8587 C   0  0  0  0  0  0  0  0  0  0  0  0
  151.2906  144.9417  160.3050 N   0  0  0  0  0  0  0  0  0  0  0  0
  151.0092  144.7259  159.0022 C   0  0  0  0  0  0  0  0  0  0  0  0
  148.3758  140.0149  156.9805 C   0  0  0  0  0  0  0  0  0  0  0  0
  148.7687  138.7359  156.9452 N   0  0  0  0  0  0  0  0  0  0  0  0
  147.8609  140.4748  157.9968 O   0  0  0  0  0  0  0  0  0  0  0  0
  147.2279  141.4983  155.2604 C   0  0  0  0  0  0  0  0  0  0  0  0
  147.2990  142.2589  153.9163 C   0  0  0  0  0  0  0  0  0  0  0  0
  146.5410  142.4183  156.2986 C   0  0  0  0  0  0  0  0  0  0  0  0
  149.0688  138.4828  153.1306 H   0  0  0  0  0  0  0  0  0  0  0  0
  147.5609  139.3076  153.4502 H   0  0  0  0  0  0  0  0  0  0  0  0
  148.2131  138.1639  154.6202 H   0  0  0  0  0  0  0  0  0  0  0  0
  150.2038  139.6294  154.9331 H   0  0  0  0  0  0  0  0  0  0  0  0
  149.6070  140.7707  153.7832 H   0  0  0  0  0  0  0  0  0  0  0  0
  149.0005  142.9651  155.8671 H   0  0  0  0  0  0  0  0  0  0  0  0
  152.2493  143.7636  156.1504 H   0  0  0  0  0  0  0  0  0  0  0  0
  150.6306  144.3748  156.4340 H   0  0  0  0  0  0  0  0  0  0  0  0
  153.3320  142.3555  158.2113 H   0  0  0  0  0  0  0  0  0  0  0  0
  153.8623  142.7465  160.6309 H   0  0  0  0  0  0  0  0  0  0  0  0
  152.5024  144.4265  161.9018 H   0  0  0  0  0  0  0  0  0  0  0  0
  150.1982  145.3072  158.5881 H   0  0  0  0  0  0  0  0  0  0  0  0
  148.6164  138.1407  157.7467 H   0  0  0  0  0  0  0  0  0  0  0  0
  149.2110  138.3697  156.1146 H   0  0  0  0  0  0  0  0  0  0  0  0
  146.5424  140.6632  155.1126 H   0  0  0  0  0  0  0  0  0  0  0  0
  147.9391  143.1391  153.9812 H   0  0  0  0  0  0  0  0  0  0  0  0
  146.3096  142.6020  153.6130 H   0  0  0  0  0  0  0  0  0  0  0  0
  147.6737  141.6379  153.1041 H   0  0  0  0  0  0  0  0  0  0  0  0
  147.1522  143.2892  156.5371 H   0  0  0  0  0  0  0  0  0  0  0  0
  146.3194  141.9008  157.2317 H   0  0  0  0  0  0  0  0  0  0  0  0
  145.5882  142.7878  155.9187 H   0  0  0  0  0  0  0  0  0  0  0  0
  1  2  1  0  0  0  0
  1 20  1  0  0  0  0
  1 21  1  0  0  0  0
  1 22  1  0  0  0  0
  2  3  1  0  0  0  0
  2 23  1  0  0  0  0
  2 24  1  0  0  0  0
  3  4  1  0  0  0  0
  3 14  1  0  0  0  0
  3 17  1  0  0  0  0
  4  5  1  0  0  0  0
  4 25  1  0  0  0  0
  5  6  2  0  0  0  0
  5  7  1  0  0  0  0
  7  8  1  0  0  0  0
  7 26  1  0  0  0  0
  7 27  1  0  0  0  0
  8 13  1  0  0  0  0
  8  9  2  0  0  0  0
  9 10  1  0  0  0  0
  9 28  1  0  0  0  0
 10 11  2  0  0  0  0
 10 29  1  0  0  0  0
 11 12  1  0  0  0  0
 11 30  1  0  0  0  0
 12 13  2  0  0  0  0
 13 31  1  0  0  0  0
 14 15  1  0  0  0  0
 14 16  2  0  0  0  0
 15 32  1  0  0  0  0
 15 33  1  0  0  0  0
 17 18  1  0  0  0  0
 17 19  1  0  0  0  0
 17 34  1  0  0  0  0
 18 35  1  0  0  0  0
 18 36  1  0  0  0  0
 18 37  1  0  0  0  0
 19 38  1  0  0  0  0
 19 39  1  0  0  0  0
 19 40  1  0  0  0  0
M  END
> <s_m_source_file>
AV-unprocessed.smi

> <i_m_source_file_index>
2328

> <i_lp_mmshare_version>
43012

> <i_f3d_flags>
0

> <s_epik_input>
W0NIM11bQ0gyXVtDQEBdKEMoPU8pW05IMl0pKFtDSF0oW0NIM10pW0NIM10pW05IXUMoPU8pW0NIMl1jMVtjSF1bY0hdW2NIXW5bY0hdMQ==

> <s_epik_cmdline>
J2VwaWtfcHl0aG9uJywgJy1waCcsICc3LjAnLCAnLXRuJywgJzgnLCAnLW1hJywgJzIwMCcsICctbWV0YWxfYmluZGluZycsICctaW1hZScsICc8aW5maWxlLm1hZT4nLCAnLW9tYWUnLCAnPG91dGZpbGUubWFlPic=

> <r_epik_Ionization_Penalty>
0.00378489

> <r_epik_Ionization_Penalty_Charging>
0

> <r_epik_Ionization_Penalty_Neutral>
0.00378489

> <r_epik_State_Penalty>
0.00269972

> <r_epik_Charging_Adjusted_Penalty>
0.00269972

> <i_epik_Tot_Q>
0

> <i_epik_Tot_abs_Q>
0

> <r_epik_Metal_State_Penalty>
-0

> <b_epik_Metal_Only>
0

> <s_lp_Force_Field>
OPLS_2005

> <r_lp_Energy>
16.0565

> <b_lp_Chiralities_Consistent>
1

> <s_lp_Variant>
AV-unprocessed.smi:2328-2

> <Gold.Version>
5.8.1

> <Gold.Id.Protein>
6NUR|6NUR_protein|mol2

> <Gold.PLP.Fitness>
40.4265

> <Gold.PLP.PLP>
-34.6615

> <Gold.PLP.part.hbond>
-1.9581

> <Gold.PLP.part.metal>
0.0000

> <Gold.PLP.part.buried>
-3.1799

> <Gold.PLP.part.nonpolar>
-30.1942

> <Gold.PLP.part.repulsive>
0.3652

> <Gold.PLP.ligand.clash>
0.0000

> <Gold.PLP.ligand.torsion>
0.1908

> <Gold.PLP.Chemscore.Hbond>
1.0000

> <Gold.PLP.Chemscore.CHOScore>
1.0000

> <Gold.PLP.Chemscore.Metal>
0.0000

> <Gold.Chemscore.Hbonds>
donor molecule, donor type, donor heavy atom, donor atom, acceptor molecule, acceptor atom, score
      L1  H     4    25       P1  8028  1.00
      L1  C    13    31       P1  8029  0.55

> <Gold.PLP.Chemscore.Internal.Correction>
0.1466

> <Gold.Rescore>
     Score         DG    S(hbond)    S(metal)    S(lipo)     H(rot)  DE(clash)    DE(int)     intcor
     12.52     -14.65       0.99        0.00     100.35       2.29       0.37       1.76       ----

> <Gold.Chemscore.Fitness>
12.5184

> <Gold.Chemscore.DG>
-14.6535

> <Gold.Chemscore.ZeroCoef>
-5.4800

> <Gold.Chemscore.Hbond>
0.9881

> <Gold.Chemscore.Metal>
0.0000

> <Gold.Chemscore.Lipo>
100.3511

> <Gold.Chemscore.Internal_Hbond>
0.0000

> <Gold.Chemscore.DEClash>
0.3702

> <Gold.Chemscore.DEInternal>
1.7649

> <Gold.Chemscore.Rot>
2.2921

> <Gold.Chemscore.Internal.Correction>
   9.000000E+99

> <Gold.Chemscore.Hbonds>
donor molecule, donor type, donor heavy atom, donor atom, acceptor molecule, acceptor atom, score
      L1  H     4    25       P1  8028  0.99

> <Gold.Chemscore.Hbond.Weighted>
-3.3001

> <Gold.Chemscore.Metal.Weighted>
-0.0000

> <Gold.Chemscore.Lipo.Weighted>
-11.7411

> <Gold.Chemscore.Internal_Hbond.Weighted>
0.0000

> <Gold.Chemscore.DEClash.Weighted>
0.3702

> <Gold.Chemscore.DEInternal.Weighted>
1.7649

> <Gold.Chemscore.Rot.Weighted>
5.8677

> <Gold.Chemscore.Internal.Correction.Weighted>
   9.000000E+99

> <Gold.Protein.RotatedTorsions>
[ 6907 6896 6895 6894 ] final    3.92 input  -60.11 | X-H torsion
[ 7974 7965 7964 7962 ] final   74.07 input  175.53 | X-H torsion
[ 8008 7997 7996 7995 ] final  171.86 input   59.86 | X-H torsion
[ 10167 10162 10161 10158 ] final  -56.43 input  -65.29 | X-H torsion
[ 10718 10713 10712 10709 ] final   73.60 input   66.30 | X-H torsion
[ 10763 10752 10751 10750 ] final  -54.90 input  -60.55 | X-H torsion
[ 11005 11000 10999 10996 ] final  169.31 input  -57.11 | X-H torsion

> <Gold.Protein.ActiveResidues>
 VAL166  LYS551  ARG553  GLY616  TRP617  ASP618  TYR619  PRO620  LYS621  CYS622 
 ASP623  PHE694  ASN695  SER759  ASP760  ASP761  ALA762  ILE779  LEU786  VAL792 
 PHE793  MET794  SER795  GLU796  ALA797  LYS798  CYS799  TRP800  GLU811  SER814 

> <Gold.Protein.RotatedAtoms>
  151.6328  135.1021  160.0125 H   0  0  0  0  0  0  0  0  0  0  0  0  # atno 6907 bound_to 6896
  152.4097  133.6939  159.6395 H   0  0  0  0  0  0  0  0  0  0  0  0  # atno 6908 bound_to 6896
  150.7988  133.8563  159.3260 H   0  0  0  0  0  0  0  0  0  0  0  0  # atno 6909 bound_to 6896
  145.7329  139.2691  143.1531 H   0  0  0  0  0  0  0  0  0  0  0  0  # atno 7974 bound_to 7965
  156.1230  140.1501  156.9176 H   0  0  0  0  0  0  0  0  0  0  0  0  # atno 8008 bound_to 7997
  154.4850  140.0868  156.7507 H   0  0  0  0  0  0  0  0  0  0  0  0  # atno 8009 bound_to 7997
  155.4393  140.3430  155.4290 H   0  0  0  0  0  0  0  0  0  0  0  0  # atno 8010 bound_to 7997
  140.6317  143.2463  151.5223 H   0  0  0  0  0  0  0  0  0  0  0  0  # atno 10167 bound_to 10162
  157.6555  130.9636  150.1092 H   0  0  0  0  0  0  0  0  0  0  0  0  # atno 10718 bound_to 10713
  154.1822  135.6441  153.5037 H   0  0  0  0  0  0  0  0  0  0  0  0  # atno 10763 bound_to 10752
  153.0056  135.5408  154.6503 H   0  0  0  0  0  0  0  0  0  0  0  0  # atno 10764 bound_to 10752
  154.5870  135.2930  155.0647 H   0  0  0  0  0  0  0  0  0  0  0  0  # atno 10765 bound_to 10752
  140.2964  134.7631  157.3880 H   0  0  0  0  0  0  0  0  0  0  0  0  # atno 11005 bound_to 11000
  146.0520  140.8059  142.9777 LP  0  0  0  0  0  0  0  0  0  0  0  0  # atno 17320 bound_to 7965
  144.6888  140.3068  143.7254 LP  0  0  0  0  0  0  0  0  0  0  0  0  # atno 17321 bound_to 7965
  139.5531  144.2345  152.1565 LP  0  0  0  0  0  0  0  0  0  0  0  0  # atno 17342 bound_to 10162
  140.1590  144.5043  150.6643 LP  0  0  0  0  0  0  0  0  0  0  0  0  # atno 17343 bound_to 10162
  156.1993  130.3659  149.8808 LP  0  0  0  0  0  0  0  0  0  0  0  0  # atno 17370 bound_to 10713
  156.6716  130.8822  151.3563 LP  0  0  0  0  0  0  0  0  0  0  0  0  # atno 17371 bound_to 10713
  140.1149  134.5296  155.8233 LP  0  0  0  0  0  0  0  0  0  0  0  0  # atno 17394 bound_to 11000
  141.2136  133.6737  156.6758 LP  0  0  0  0  0  0  0  0  0  0  0  0  # atno 17395 bound_to 11000

$$$$
