AV-unprocessed.smi:1363|AV-procd|sdf|5566|dock2
  -GOLD-   22720 5163D 1   1.00000     0.00000
 Structure written by MMmdl.
 43 44  0  0  0  0  0  0  0  0  2 V2000
  143.9841  142.5948  158.4657 C   0  0  0  0  0  0  0  0  0  0  0  0
  145.0134  142.1829  157.4350 C   0  0  0  0  0  0  0  0  0  0  0  0
  144.9483  142.6710  156.2553 N   0  0  0  0  0  0  0  0  0  0  0  0
  145.9040  142.2932  155.2969 C   0  0  0  0  0  0  0  0  0  0  0  0
  145.7553  142.9284  153.9253 C   0  0  0  0  0  0  0  0  0  0  0  0
  146.8987  141.4111  155.6014 C   0  0  0  0  0  0  0  0  0  0  0  0
  147.9671  140.9788  154.5969 C   0  0  0  0  0  0  0  0  0  0  0  0
  149.4207  141.1587  155.0421 C   0  0  0  0  0  0  0  0  0  0  0  0
  150.3244  140.5184  154.5042 O   0  0  0  0  0  0  0  0  0  0  0  0
  149.6318  142.0443  156.0276 N   0  0  0  0  0  0  0  0  0  0  0  0
  150.9356  142.3843  156.5845 C   0  0  0  0  0  0  0  0  0  0  0  0
  151.4911  141.2383  157.4529 C   0  0  0  0  0  0  0  0  0  0  0  0
  152.1863  141.6604  158.7436 C   0  0  0  0  0  0  0  0  0  0  0  0
  152.1283  142.9033  159.2686 C   0  0  0  0  0  0  0  0  0  0  0  0
  152.7921  143.3122  160.5721 C   0  0  0  0  0  0  0  0  0  0  0  0
  153.2300  142.1026  161.4127 C   0  0  0  0  0  0  0  0  0  0  0  0
  153.9041  141.0410  160.5371 C   0  0  0  0  0  0  0  0  0  0  0  0
  152.9553  140.5396  159.4340 C   0  0  0  0  0  0  0  0  0  0  0  0
  146.9325  140.8640  156.9696 C   0  0  0  0  0  0  0  0  0  0  0  0
  147.7982  140.0516  157.2928 O   0  0  0  0  0  0  0  0  0  0  0  0
  145.9761  141.2880  157.8444 N   0  5  0  0  0  0  0  0  0  0  0  0
  143.2784  143.3161  158.0515 H   0  0  0  0  0  0  0  0  0  0  0  0
  144.4729  143.0512  159.3268 H   0  0  0  0  0  0  0  0  0  0  0  0
  143.4225  141.7248  158.8071 H   0  0  0  0  0  0  0  0  0  0  0  0
  146.6185  143.5541  153.6989 H   0  0  0  0  0  0  0  0  0  0  0  0
  144.8643  143.5554  153.8754 H   0  0  0  0  0  0  0  0  0  0  0  0
  145.6673  142.1631  153.1540 H   0  0  0  0  0  0  0  0  0  0  0  0
  147.8026  139.9264  154.3634 H   0  0  0  0  0  0  0  0  0  0  0  0
  147.8371  141.4948  153.6454 H   0  0  0  0  0  0  0  0  0  0  0  0
  148.8310  142.5243  156.4120 H   0  0  0  0  0  0  0  0  0  0  0  0
  151.6083  142.5834  155.7500 H   0  0  0  0  0  0  0  0  0  0  0  0
  150.8619  143.3083  157.1607 H   0  0  0  0  0  0  0  0  0  0  0  0
  150.6797  140.5602  157.7212 H   0  0  0  0  0  0  0  0  0  0  0  0
  152.1991  140.6537  156.8641 H   0  0  0  0  0  0  0  0  0  0  0  0
  151.5926  143.6929  158.7647 H   0  0  0  0  0  0  0  0  0  0  0  0
  153.6533  143.9358  160.3306 H   0  0  0  0  0  0  0  0  0  0  0  0
  152.1030  143.9316  161.1468 H   0  0  0  0  0  0  0  0  0  0  0  0
  153.9027  142.4242  162.2083 H   0  0  0  0  0  0  0  0  0  0  0  0
  152.3595  141.6633  161.9020 H   0  0  0  0  0  0  0  0  0  0  0  0
  154.7983  141.4688  160.0816 H   0  0  0  0  0  0  0  0  0  0  0  0
  154.2402  140.2027  161.1478 H   0  0  0  0  0  0  0  0  0  0  0  0
  152.2280  139.8460  159.8578 H   0  0  0  0  0  0  0  0  0  0  0  0
  153.5281  139.9796  158.6941 H   0  0  0  0  0  0  0  0  0  0  0  0
  1  2  1  0  0  0  0
  1 22  1  0  0  0  0
  1 23  1  0  0  0  0
  1 24  1  0  0  0  0
  2 21  1  0  0  0  0
  2  3  2  0  0  0  0
  3  4  1  0  0  0  0
  4  5  1  0  0  0  0
  4  6  2  0  0  0  0
  5 25  1  0  0  0  0
  5 26  1  0  0  0  0
  5 27  1  0  0  0  0
  6  7  1  0  0  0  0
  6 19  1  0  0  0  0
  7  8  1  0  0  0  0
  7 28  1  0  0  0  0
  7 29  1  0  0  0  0
  8  9  2  0  0  0  0
  8 10  1  0  0  0  0
 10 11  1  0  0  0  0
 10 30  1  0  0  0  0
 11 12  1  0  0  0  0
 11 31  1  0  0  0  0
 11 32  1  0  0  0  0
 12 13  1  0  0  0  0
 12 33  1  0  0  0  0
 12 34  1  0  0  0  0
 13 18  1  0  0  0  0
 13 14  2  0  0  0  0
 14 15  1  0  0  0  0
 14 35  1  0  0  0  0
 15 16  1  0  0  0  0
 15 36  1  0  0  0  0
 15 37  1  0  0  0  0
 16 17  1  0  0  0  0
 16 38  1  0  0  0  0
 16 39  1  0  0  0  0
 17 18  1  0  0  0  0
 17 40  1  0  0  0  0
 17 41  1  0  0  0  0
 18 42  1  0  0  0  0
 18 43  1  0  0  0  0
 19 20  2  0  0  0  0
 19 21  1  0  0  0  0
M  CHG  1  21  -1
M  END
> <s_m_source_file>
AV-unprocessed.smi

> <i_m_source_file_index>
1363

> <i_lp_mmshare_version>
43012

> <i_f3d_flags>
0

> <s_epik_input>
W0NIM11jMW5jKFtDSDNdKWMoYyg9TylbbkhdMSlbQ0gyXUMoPU8pW05IXVtDSDJdW0NIMl1DMj1bQ0hdW0NIMl1bQ0gyXVtDSDJdW0NIMl0y

> <s_epik_cmdline>
J2VwaWtfcHl0aG9uJywgJy1waCcsICc3LjAnLCAnLXRuJywgJzgnLCAnLW1hJywgJzIwMCcsICctbWV0YWxfYmluZGluZycsICctaW1hZScsICc8aW5maWxlLm1hZT4nLCAnLW9tYWUnLCAnPG91dGZpbGUubWFlPic=

> <r_lp_tautomer_probability>
0.839158

> <r_epik_Ionization_Penalty>
6.61902

> <r_epik_Ionization_Penalty_Charging>
7.01438e-08

> <r_epik_Ionization_Penalty_Neutral>
6.61902

> <r_epik_State_Penalty>
4.43873

> <r_epik_Charging_Adjusted_Penalty>
4.43873

> <i_epik_Tot_Q>
-1

> <i_epik_Tot_abs_Q>
1

> <r_epik_Metal_State_Penalty>
0.802113

> <b_epik_Metal_Only>
1

> <s_lp_Force_Field>
OPLS_2005

> <r_lp_Energy>
12.6483

> <b_lp_Chiralities_Consistent>
1

> <s_lp_Variant>
AV-unprocessed.smi:1363-3

> <Gold.Version>
5.8.1

> <Gold.Id.Protein>
6NUR|6NUR_protein|mol2

> <Gold.PLP.Fitness>
43.2081

> <Gold.PLP.PLP>
-40.5809

> <Gold.PLP.part.hbond>
-2.0000

> <Gold.PLP.part.metal>
0.0000

> <Gold.PLP.part.buried>
-6.1575

> <Gold.PLP.part.nonpolar>
-32.1059

> <Gold.PLP.part.repulsive>
0.4621

> <Gold.PLP.ligand.clash>
0.0000

> <Gold.PLP.ligand.torsion>
0.8125

> <Gold.PLP.Chemscore.Hbond>
1.4080

> <Gold.PLP.Chemscore.CHOScore>
0.0000

> <Gold.PLP.Chemscore.Metal>
0.0000

> <Gold.Chemscore.Hbonds>
donor molecule, donor type, donor heavy atom, donor atom, acceptor molecule, acceptor atom, score
      L1  H    10    30       P1  8028  0.05
      P1  H  7989  7998       L1     9  0.94

> <Gold.PLP.Chemscore.Internal.Correction>
0.0282

> <Gold.Rescore>
     Score         DG    S(hbond)    S(metal)    S(lipo)     H(rot)  DE(clash)    DE(int)     intcor
     16.43     -17.32       1.36        0.00     101.87       1.80       0.01       0.89       ----

> <Gold.Chemscore.Fitness>
16.4280

> <Gold.Chemscore.DG>
-17.3238

> <Gold.Chemscore.ZeroCoef>
-5.4800

> <Gold.Chemscore.Hbond>
1.3586

> <Gold.Chemscore.Metal>
0.0000

> <Gold.Chemscore.Lipo>
101.8700

> <Gold.Chemscore.Internal_Hbond>
0.0000

> <Gold.Chemscore.DEClash>
0.0084

> <Gold.Chemscore.DEInternal>
0.8875

> <Gold.Chemscore.Rot>
1.8018

> <Gold.Chemscore.Internal.Correction>
   9.000000E+99

> <Gold.Chemscore.Hbonds>
donor molecule, donor type, donor heavy atom, donor atom, acceptor molecule, acceptor atom, score
      L1  H    10    30       P1  8028  0.05
      P1  H  7989  7998       L1     9  0.91

> <Gold.Chemscore.Hbond.Weighted>
-4.5376

> <Gold.Chemscore.Metal.Weighted>
-0.0000

> <Gold.Chemscore.Lipo.Weighted>
-11.9188

> <Gold.Chemscore.Internal_Hbond.Weighted>
0.0000

> <Gold.Chemscore.DEClash.Weighted>
0.0084

> <Gold.Chemscore.DEInternal.Weighted>
0.8875

> <Gold.Chemscore.Rot.Weighted>
4.6126

> <Gold.Chemscore.Internal.Correction.Weighted>
   9.000000E+99

> <Gold.Protein.RotatedTorsions>
[ 6907 6896 6895 6894 ] final   52.79 input  -60.11 | X-H torsion
[ 7974 7965 7964 7962 ] final  -80.49 input  175.53 | X-H torsion
[ 8008 7997 7996 7995 ] final  126.64 input   59.86 | X-H torsion
[ 10167 10162 10161 10158 ] final  116.56 input  -65.29 | X-H torsion
[ 10718 10713 10712 10709 ] final -155.06 input   66.30 | X-H torsion
[ 10763 10752 10751 10750 ] final  -37.06 input  -60.55 | X-H torsion
[ 11005 11000 10999 10996 ] final  108.28 input  -57.11 | X-H torsion

> <Gold.Protein.ActiveResidues>
 VAL166  LYS551  ARG553  GLY616  TRP617  ASP618  TYR619  PRO620  LYS621  CYS622 
 ASP623  PHE694  ASN695  SER759  ASP760  ASP761  ALA762  ILE779  LEU786  VAL792 
 PHE793  MET794  SER795  GLU796  ALA797  LYS798  CYS799  TRP800  GLU811  SER814 

> <Gold.Protein.RotatedAtoms>
  152.3270  134.7308  160.0299 H   0  0  0  0  0  0  0  0  0  0  0  0  # atno 6907 bound_to 6896
  151.7738  133.3338  159.3460 H   0  0  0  0  0  0  0  0  0  0  0  0  # atno 6908 bound_to 6896
  150.7401  134.5926  159.6039 H   0  0  0  0  0  0  0  0  0  0  0  0  # atno 6909 bound_to 6896
  145.5592  140.9484  143.1456 H   0  0  0  0  0  0  0  0  0  0  0  0  # atno 7974 bound_to 7965
  156.2869  140.2688  156.2144 H   0  0  0  0  0  0  0  0  0  0  0  0  # atno 8008 bound_to 7997
  155.0232  140.0386  157.2463 H   0  0  0  0  0  0  0  0  0  0  0  0  # atno 8009 bound_to 7997
  154.7418  140.2726  155.6372 H   0  0  0  0  0  0  0  0  0  0  0  0  # atno 8010 bound_to 7997
  139.6238  144.7105  151.2576 H   0  0  0  0  0  0  0  0  0  0  0  0  # atno 10167 bound_to 10162
  156.5077  130.8420  151.2634 H   0  0  0  0  0  0  0  0  0  0  0  0  # atno 10718 bound_to 10713
  153.8900  135.6813  153.4761 H   0  0  0  0  0  0  0  0  0  0  0  0  # atno 10763 bound_to 10752
  153.1186  135.4750  154.9155 H   0  0  0  0  0  0  0  0  0  0  0  0  # atno 10764 bound_to 10752
  154.7627  135.3215  154.8300 H   0  0  0  0  0  0  0  0  0  0  0  0  # atno 10765 bound_to 10752
  139.8841  134.9426  156.5948 H   0  0  0  0  0  0  0  0  0  0  0  0  # atno 11005 bound_to 11000
  144.7491  139.7241  143.7280 LP  0  0  0  0  0  0  0  0  0  0  0  0  # atno 17320 bound_to 7965
  146.1863  139.5079  142.9834 LP  0  0  0  0  0  0  0  0  0  0  0  0  # atno 17321 bound_to 7965
  140.7399  143.6605  150.8168 LP  0  0  0  0  0  0  0  0  0  0  0  0  # atno 17342 bound_to 10162
  140.0220  143.5532  152.2796 LP  0  0  0  0  0  0  0  0  0  0  0  0  # atno 17343 bound_to 10162
  157.7455  130.9960  150.2765 LP  0  0  0  0  0  0  0  0  0  0  0  0  # atno 17370 bound_to 10713
  156.3271  130.3794  149.7524 LP  0  0  0  0  0  0  0  0  0  0  0  0  # atno 17371 bound_to 10713
  140.7928  133.8568  155.8660 LP  0  0  0  0  0  0  0  0  0  0  0  0  # atno 17394 bound_to 11000
  140.9662  134.1591  157.4614 LP  0  0  0  0  0  0  0  0  0  0  0  0  # atno 17395 bound_to 11000

$$$$
