AV-unprocessed.smi:565|AV-procd|sdf|2953|dock10
  -GOLD-   2262023453D 1   1.00000     0.00000
 Structure written by MMmdl.
 50 51  0  0  0  0  0  0  0  0  2 V2000
  148.7961  140.4241  153.9820 C   0  0  0  0  0  0  0  0  0  0  0  0
  149.7450  140.2280  155.1296 C   0  0  0  0  0  0  0  0  0  0  0  0
  149.6689  141.0280  156.1800 N   0  0  0  0  0  0  0  0  0  0  0  0
  150.6322  140.5907  157.0160 N   0  0  0  0  0  0  0  0  0  0  0  0
  150.8266  141.2567  158.2892 C   0  0  0  0  0  0  0  0  0  0  0  0
  151.3189  139.5132  156.4918 C   0  0  0  0  0  0  0  0  0  0  0  0
  152.4308  138.8425  157.2323 C   0  0  0  0  0  0  0  0  0  0  0  0
  150.7726  139.2486  155.2640 C   0  0  0  0  0  0  0  0  0  0  0  0
  151.1484  138.1749  154.2751 C   0  0  0  0  0  0  0  0  0  0  0  0
  150.9081  136.7981  154.8964 C   0  0  0  0  0  0  0  0  0  0  0  0
  151.5428  136.4508  155.8926 O   0  0  0  0  0  0  0  0  0  0  0  0
  149.9824  136.0258  154.3070 N   0  0  0  0  0  0  0  0  0  0  0  0
  149.5658  134.7105  154.7787 C   0  0  0  0  0  0  0  0  0  0  0  0
  148.0452  134.4994  154.6323 C   0  0  0  0  0  0  0  0  0  0  0  0
  147.6508  134.1416  153.2464 N   0  3  1  0  0  0  0  0  0  0  0  0
  148.2229  132.8380  152.8212 C   0  0  0  0  0  0  0  0  0  0  0  0
  147.9396  132.5661  151.3354 C   0  0  0  0  0  0  0  0  0  0  0  0
  146.4342  132.6282  151.0408 C   0  0  0  0  0  0  0  0  0  0  0  0
  145.8214  133.9502  151.5384 C   0  0  2  0  0  0  0  0  0  0  0  0
  146.1908  135.1506  150.6490 C   0  0  0  0  0  0  0  0  0  0  0  0
  146.1800  134.1897  153.0198 C   0  0  0  0  0  0  0  0  0  0  0  0
  148.2675  139.4992  153.7519 H   0  0  0  0  0  0  0  0  0  0  0  0
  149.3312  140.7331  153.0841 H   0  0  0  0  0  0  0  0  0  0  0  0
  148.0470  141.1861  154.2004 H   0  0  0  0  0  0  0  0  0  0  0  0
  151.8174  141.7102  158.3164 H   0  0  0  0  0  0  0  0  0  0  0  0
  150.7438  140.5317  159.0991 H   0  0  0  0  0  0  0  0  0  0  0  0
  150.0767  142.0350  158.4365 H   0  0  0  0  0  0  0  0  0  0  0  0
  152.8330  138.0013  156.6682 H   0  0  0  0  0  0  0  0  0  0  0  0
  152.0819  138.4603  158.1917 H   0  0  0  0  0  0  0  0  0  0  0  0
  153.2472  139.5398  157.4206 H   0  0  0  0  0  0  0  0  0  0  0  0
  150.5755  138.2722  153.3517 H   0  0  0  0  0  0  0  0  0  0  0  0
  152.1965  138.2469  153.9841 H   0  0  0  0  0  0  0  0  0  0  0  0
  149.5090  136.3925  153.4936 H   0  0  0  0  0  0  0  0  0  0  0  0
  150.1319  133.9531  154.2365 H   0  0  0  0  0  0  0  0  0  0  0  0
  149.8531  134.6222  155.8267 H   0  0  0  0  0  0  0  0  0  0  0  0
  147.7518  133.6947  155.3083 H   0  0  0  0  0  0  0  0  0  0  0  0
  147.4890  135.3831  154.9481 H   0  0  0  0  0  0  0  0  0  0  0  0
  149.3015  132.8349  152.9828 H   0  0  0  0  0  0  0  0  0  0  0  0
  147.8077  132.0385  153.4373 H   0  0  0  0  0  0  0  0  0  0  0  0
  148.4709  133.2931  150.7204 H   0  0  0  0  0  0  0  0  0  0  0  0
  148.3309  131.5874  151.0557 H   0  0  0  0  0  0  0  0  0  0  0  0
  146.2506  132.4973  149.9736 H   0  0  0  0  0  0  0  0  0  0  0  0
  145.9400  131.7935  151.5399 H   0  0  0  0  0  0  0  0  0  0  0  0
  144.7372  133.8476  151.4778 H   0  0  0  0  0  0  0  0  0  0  0  0
  147.2622  135.3512  150.6578 H   0  0  0  0  0  0  0  0  0  0  0  0
  145.6845  136.0564  150.9842 H   0  0  0  0  0  0  0  0  0  0  0  0
  145.8952  134.9758  149.6142 H   0  0  0  0  0  0  0  0  0  0  0  0
  145.7004  133.4320  153.6419 H   0  0  0  0  0  0  0  0  0  0  0  0
  145.7693  135.1483  153.3334 H   0  0  0  0  0  0  0  0  0  0  0  0
  148.0633  134.8392  152.6438 H   0  0  0  0  0  0  0  0  0  0  0  0
  1  2  1  0  0  0  0
  1 22  1  0  0  0  0
  1 23  1  0  0  0  0
  1 24  1  0  0  0  0
  2  8  1  0  0  0  0
  2  3  2  0  0  0  0
  3  4  1  0  0  0  0
  4  5  1  0  0  0  0
  4  6  1  0  0  0  0
  5 25  1  0  0  0  0
  5 26  1  0  0  0  0
  5 27  1  0  0  0  0
  6  7  1  0  0  0  0
  6  8  2  0  0  0  0
  7 28  1  0  0  0  0
  7 29  1  0  0  0  0
  7 30  1  0  0  0  0
  8  9  1  0  0  0  0
  9 10  1  0  0  0  0
  9 31  1  0  0  0  0
  9 32  1  0  0  0  0
 10 11  2  0  0  0  0
 10 12  1  0  0  0  0
 12 13  1  0  0  0  0
 12 33  1  0  0  0  0
 13 14  1  0  0  0  0
 13 34  1  0  0  0  0
 13 35  1  0  0  0  0
 14 15  1  0  0  0  0
 14 36  1  0  0  0  0
 14 37  1  0  0  0  0
 15 21  1  0  0  0  0
 15 16  1  0  0  0  0
 15 50  1  0  0  0  0
 16 17  1  0  0  0  0
 16 38  1  0  0  0  0
 16 39  1  0  0  0  0
 17 18  1  0  0  0  0
 17 40  1  0  0  0  0
 17 41  1  0  0  0  0
 18 19  1  0  0  0  0
 18 42  1  0  0  0  0
 18 43  1  0  0  0  0
 19 20  1  0  0  0  0
 19 21  1  0  0  0  0
 19 44  1  0  0  0  0
 20 45  1  0  0  0  0
 20 46  1  0  0  0  0
 20 47  1  0  0  0  0
 21 48  1  0  0  0  0
 21 49  1  0  0  0  0
M  CHG  1  15   1
M  END
> <s_m_source_file>
AV-unprocessed.smi

> <i_m_source_file_index>
565

> <i_lp_mmshare_version>
43012

> <i_f3d_flags>
0

> <s_epik_input>
W0NIM11jMW5uKFtDSDNdKWMoW0NIM10pYzFbQ0gyXUMoPU8pW05IXVtDSDJdW0NIMl1OMltDSDJdW0NIMl1bQ0gyXVtDQEBIXShbQ0gzXSlbQ0gyXTI=

> <s_epik_cmdline>
J2VwaWtfcHl0aG9uJywgJy1waCcsICc3LjAnLCAnLXRuJywgJzgnLCAnLW1hJywgJzIwMCcsICctbWV0YWxfYmluZGluZycsICctaW1hZScsICc8aW5maWxlLm1hZT4nLCAnLW9tYWUnLCAnPG91dGZpbGUubWFlPic=

> <r_lp_tautomer_probability>
1

> <r_epik_Ionization_Penalty>
0.00411138

> <r_epik_Ionization_Penalty_Charging>
0.0019503

> <r_epik_Ionization_Penalty_Neutral>
0.00216107

> <r_epik_State_Penalty>
-0

> <r_epik_Charging_Adjusted_Penalty>
0.0019503

> <i_epik_Tot_Q>
1

> <i_epik_Tot_abs_Q>
1

> <r_epik_Metal_State_Penalty>
-0

> <b_epik_Metal_Only>
0

> <s_lp_Force_Field>
OPLS_2005

> <r_lp_Energy>
13.161

> <b_lp_Chiralities_Consistent>
1

> <s_lp_Variant>
AV-unprocessed.smi:565-3

> <Gold.Version>
5.8.1

> <Gold.Id.Protein>
6NUR|6NUR_protein|mol2

> <Gold.PLP.Fitness>
46.3178

> <Gold.PLP.PLP>
-35.8086

> <Gold.PLP.part.hbond>
-3.5975

> <Gold.PLP.part.metal>
0.0000

> <Gold.PLP.part.buried>
-1.2194

> <Gold.PLP.part.nonpolar>
-30.7652

> <Gold.PLP.part.repulsive>
0.1320

> <Gold.PLP.ligand.clash>
0.0000

> <Gold.PLP.ligand.torsion>
0.2886

> <Gold.PLP.Chemscore.Hbond>
3.6880

> <Gold.PLP.Chemscore.CHOScore>
0.0000

> <Gold.PLP.Chemscore.Metal>
0.0000

> <Gold.Chemscore.Hbonds>
donor molecule, donor type, donor heavy atom, donor atom, acceptor molecule, acceptor atom, score
      L1  H    12    33       P1  7948  1.00
      L1  H    15    50       P1  7948  2.00
      P1  H 10752 10765       L1    11  0.85

> <Gold.PLP.Chemscore.Internal.Correction>
0.0224

> <Gold.Rescore>
     Score         DG    S(hbond)    S(metal)    S(lipo)     H(rot)  DE(clash)    DE(int)     intcor
     18.03     -19.48       2.42        0.00      85.80       1.61       0.89       0.55       ----

> <Gold.Chemscore.Fitness>
18.0330

> <Gold.Chemscore.DG>
-19.4783

> <Gold.Chemscore.ZeroCoef>
-5.4800

> <Gold.Chemscore.Hbond>
2.4229

> <Gold.Chemscore.Metal>
0.0000

> <Gold.Chemscore.Lipo>
85.7977

> <Gold.Chemscore.Internal_Hbond>
0.0000

> <Gold.Chemscore.DEClash>
0.8929

> <Gold.Chemscore.DEInternal>
0.5524

> <Gold.Chemscore.Rot>
1.6142

> <Gold.Chemscore.Internal.Correction>
   9.000000E+99

> <Gold.Chemscore.Hbonds>
donor molecule, donor type, donor heavy atom, donor atom, acceptor molecule, acceptor atom, score
      L1  H    12    33       P1  7948  0.62
      L1  H    15    50       P1  7948  0.78
      P1  H 10752 10765       L1    11  0.14

> <Gold.Chemscore.Hbond.Weighted>
-8.0924

> <Gold.Chemscore.Metal.Weighted>
-0.0000

> <Gold.Chemscore.Lipo.Weighted>
-10.0383

> <Gold.Chemscore.Internal_Hbond.Weighted>
0.0000

> <Gold.Chemscore.DEClash.Weighted>
0.8929

> <Gold.Chemscore.DEInternal.Weighted>
0.5524

> <Gold.Chemscore.Rot.Weighted>
4.1324

> <Gold.Chemscore.Internal.Correction.Weighted>
   9.000000E+99

> <Gold.Protein.RotatedTorsions>
[ 6907 6896 6895 6894 ] final -103.95 input  -60.11 | X-H torsion
[ 7974 7965 7964 7962 ] final  115.10 input  175.53 | X-H torsion
[ 8008 7997 7996 7995 ] final  172.17 input   59.86 | X-H torsion
[ 10167 10162 10161 10158 ] final  -33.91 input  -65.29 | X-H torsion
[ 10718 10713 10712 10709 ] final -123.30 input   66.30 | X-H torsion
[ 10763 10752 10751 10750 ] final -159.83 input  -60.55 | X-H torsion
[ 11005 11000 10999 10996 ] final   11.02 input  -57.11 | X-H torsion

> <Gold.Protein.ActiveResidues>
 VAL166  LYS551  ARG553  GLY616  TRP617  ASP618  TYR619  PRO620  LYS621  CYS622 
 ASP623  PHE694  ASN695  SER759  ASP760  ASP761  ALA762  ILE779  LEU786  VAL792 
 PHE793  MET794  SER795  GLU796  ALA797  LYS798  CYS799  TRP800  GLU811  SER814 

> <Gold.Protein.RotatedAtoms>
  150.7264  134.0351  159.3746 H   0  0  0  0  0  0  0  0  0  0  0  0  # atno 6907 bound_to 6896
  151.8322  135.0615  160.0447 H   0  0  0  0  0  0  0  0  0  0  0  0  # atno 6908 bound_to 6896
  152.2925  133.5539  159.5603 H   0  0  0  0  0  0  0  0  0  0  0  0  # atno 6909 bound_to 6896
  145.1962  139.2975  143.4342 H   0  0  0  0  0  0  0  0  0  0  0  0  # atno 7974 bound_to 7965
  156.1200  140.1493  156.9217 H   0  0  0  0  0  0  0  0  0  0  0  0  # atno 8008 bound_to 7997
  154.4829  140.0874  156.7461 H   0  0  0  0  0  0  0  0  0  0  0  0  # atno 8009 bound_to 7997
  155.4444  140.3432  155.4296 H   0  0  0  0  0  0  0  0  0  0  0  0  # atno 8010 bound_to 7997
  140.7196  143.3586  151.2009 H   0  0  0  0  0  0  0  0  0  0  0  0  # atno 10167 bound_to 10162
  156.1490  130.6521  150.9886 H   0  0  0  0  0  0  0  0  0  0  0  0  # atno 10718 bound_to 10713
  154.7442  135.3076  154.8675 H   0  0  0  0  0  0  0  0  0  0  0  0  # atno 10763 bound_to 10752
  153.9481  135.6767  153.4748 H   0  0  0  0  0  0  0  0  0  0  0  0  # atno 10764 bound_to 10752
  153.1039  135.4899  154.8842 H   0  0  0  0  0  0  0  0  0  0  0  0  # atno 10765 bound_to 10752
  140.5079  134.0681  155.7810 H   0  0  0  0  0  0  0  0  0  0  0  0  # atno 11005 bound_to 11000
  146.3427  140.2191  142.8591 LP  0  0  0  0  0  0  0  0  0  0  0  0  # atno 17320 bound_to 7965
  144.9993  140.8617  143.5292 LP  0  0  0  0  0  0  0  0  0  0  0  0  # atno 17321 bound_to 7965
  139.7133  143.9341  152.2956 LP  0  0  0  0  0  0  0  0  0  0  0  0  # atno 17342 bound_to 10162
  139.9074  144.6877  150.8599 LP  0  0  0  0  0  0  0  0  0  0  0  0  # atno 17343 bound_to 10162
  157.6641  131.0875  150.7769 LP  0  0  0  0  0  0  0  0  0  0  0  0  # atno 17370 bound_to 10713
  156.7838  130.4868  149.5396 LP  0  0  0  0  0  0  0  0  0  0  0  0  # atno 17371 bound_to 10713
  141.1401  133.9153  157.2345 LP  0  0  0  0  0  0  0  0  0  0  0  0  # atno 17394 bound_to 11000
  139.9676  135.0137  156.9427 LP  0  0  0  0  0  0  0  0  0  0  0  0  # atno 17395 bound_to 11000

$$$$
