AV-unprocessed.smi:188|AV-procd|sdf|1473|dock8
  -GOLD-   2262019293D 1   1.00000     0.00000
 Structure written by MMmdl.
 48 52  0  0  0  0  0  0  0  0  2 V2000
  157.9763  140.0832  163.0636 O   0  0  0  0  0  0  0  0  0  0  0  0
  157.2330  139.8360  162.1167 C   0  0  0  0  0  0  0  0  0  0  0  0
  157.5658  139.6498  160.8251 N   0  5  0  0  0  0  0  0  0  0  0  0
  156.4700  139.3968  160.0771 C   0  0  0  0  0  0  0  0  0  0  0  0
  156.3767  139.1734  158.8709 O   0  0  0  0  0  0  0  0  0  0  0  0
  155.2534  139.4279  161.0183 C   0  0  0  0  0  0  0  0  0  0  0  0
  154.2508  140.5547  160.6749 C   0  0  0  0  0  0  0  0  0  0  0  0
  153.3892  140.2202  159.4435 C   0  0  0  0  0  0  0  0  0  0  0  0
  152.7389  138.9171  159.5955 N   0  0  0  0  0  0  0  0  0  0  0  0
  151.7193  138.6245  158.7483 C   0  0  0  0  0  0  0  0  0  0  0  0
  150.7255  137.7845  159.1448 N   0  0  0  0  0  0  0  0  0  0  0  0
  149.7097  137.5038  158.3240 C   0  0  0  0  0  0  0  0  0  0  0  0
  149.4957  137.9414  157.0822 N   0  0  0  0  0  0  0  0  0  0  0  0
  150.4946  138.7731  156.6711 C   0  0  0  0  0  0  0  0  0  0  0  0
  151.6310  139.1659  157.4343 C   0  0  0  0  0  0  0  0  0  0  0  0
  152.4327  140.0171  156.6826 N   0  0  0  0  0  0  0  0  0  0  0  0
  151.8007  140.1307  155.5467 C   0  0  0  0  0  0  0  0  0  0  0  0
  150.6325  139.4083  155.4489 N   0  0  0  0  0  0  0  0  0  0  0  0
  149.7419  139.3532  154.2992 C   0  0  0  0  0  0  0  0  0  0  0  0
  148.3890  140.0663  154.5081 C   0  0  0  0  0  0  0  0  0  0  0  0
  147.3120  139.4885  153.5728 C   0  0  0  0  0  0  0  0  0  0  0  0
  147.4885  139.9346  152.2432 O   0  0  0  0  0  0  0  0  0  0  0  0
  147.9343  140.2349  155.9653 C   0  0  0  0  0  0  0  0  0  0  0  0
  147.6930  141.6458  155.7843 O   0  0  0  0  0  0  0  0  0  0  0  0
  148.4453  141.5996  154.5536 C   0  0  0  0  0  0  0  0  0  0  0  0
  153.6429  137.7978  159.8604 C   0  0  0  0  0  0  0  0  0  0  0  0
  154.5145  138.0712  161.1005 C   0  0  0  0  0  0  0  0  0  0  0  0
  155.9163  139.7149  162.2733 N   0  0  0  0  0  0  0  0  0  0  0  0
  153.5927  140.7234  161.5285 H   0  0  0  0  0  0  0  0  0  0  0  0
  154.7746  141.4971  160.5073 H   0  0  0  0  0  0  0  0  0  0  0  0
  152.6361  140.9984  159.3132 H   0  0  0  0  0  0  0  0  0  0  0  0
  154.0011  140.2173  158.5411 H   0  0  0  0  0  0  0  0  0  0  0  0
  148.9619  136.8325  158.7198 H   0  0  0  0  0  0  0  0  0  0  0  0
  152.1772  140.7416  154.7390 H   0  0  0  0  0  0  0  0  0  0  0  0
  150.2724  139.7798  153.4470 H   0  0  0  0  0  0  0  0  0  0  0  0
  149.5815  138.3049  154.0443 H   0  0  0  0  0  0  0  0  0  0  0  0
  147.3061  138.3985  153.5888 H   0  0  0  0  0  0  0  0  0  0  0  0
  146.3181  139.7977  153.8980 H   0  0  0  0  0  0  0  0  0  0  0  0
  148.4148  139.9653  152.0579 H   0  0  0  0  0  0  0  0  0  0  0  0
  147.0301  139.6796  156.2174 H   0  0  0  0  0  0  0  0  0  0  0  0
  148.7175  140.0585  156.7035 H   0  0  0  0  0  0  0  0  0  0  0  0
  149.4519  142.0022  154.6790 H   0  0  0  0  0  0  0  0  0  0  0  0
  147.9301  142.0904  153.7271 H   0  0  0  0  0  0  0  0  0  0  0  0
  153.0918  136.8705  160.0129 H   0  0  0  0  0  0  0  0  0  0  0  0
  154.2695  137.6379  158.9826 H   0  0  0  0  0  0  0  0  0  0  0  0
  155.2260  137.2546  161.2326 H   0  0  0  0  0  0  0  0  0  0  0  0
  153.8774  138.0607  161.9861 H   0  0  0  0  0  0  0  0  0  0  0  0
  155.4285  139.8110  163.1514 H   0  0  0  0  0  0  0  0  0  0  0  0
  1  2  2  0  0  0  0
  2 28  1  0  0  0  0
  2  3  1  0  0  0  0
  3  4  1  0  0  0  0
  4  5  2  0  0  0  0
  4  6  1  0  0  0  0
  6 27  1  0  0  0  0
  6  7  1  0  0  0  0
  6 28  1  0  0  0  0
  7  8  1  0  0  0  0
  7 29  1  0  0  0  0
  7 30  1  0  0  0  0
  8  9  1  0  0  0  0
  8 31  1  0  0  0  0
  8 32  1  0  0  0  0
  9 10  1  0  0  0  0
  9 26  1  0  0  0  0
 10 15  1  0  0  0  0
 10 11  2  0  0  0  0
 11 12  1  0  0  0  0
 12 13  2  0  0  0  0
 12 33  1  0  0  0  0
 13 14  1  0  0  0  0
 14 18  1  0  0  0  0
 14 15  2  0  0  0  0
 15 16  1  0  0  0  0
 16 17  2  0  0  0  0
 17 18  1  0  0  0  0
 17 34  1  0  0  0  0
 18 19  1  0  0  0  0
 19 20  1  0  0  0  0
 19 35  1  0  0  0  0
 19 36  1  0  0  0  0
 20 25  1  0  0  0  0
 20 21  1  0  0  0  0
 20 23  1  0  0  0  0
 21 22  1  0  0  0  0
 21 37  1  0  0  0  0
 21 38  1  0  0  0  0
 22 39  1  0  0  0  0
 23 24  1  0  0  0  0
 23 40  1  0  0  0  0
 23 41  1  0  0  0  0
 24 25  1  0  0  0  0
 25 42  1  0  0  0  0
 25 43  1  0  0  0  0
 26 27  1  0  0  0  0
 26 44  1  0  0  0  0
 26 45  1  0  0  0  0
 27 46  1  0  0  0  0
 27 47  1  0  0  0  0
 28 48  1  0  0  0  0
M  CHG  1   3  -1
M  END
> <s_m_source_file>
AV-unprocessed.smi

> <i_m_source_file_index>
188

> <i_lp_mmshare_version>
43012

> <i_f3d_flags>
0

> <s_epik_input>
Tz1DKFtOSF0xKVtOSF1DKD1PKUMxMltDSDJdW0NIMl1OKFtDSDJdW0NIMl0yKWMobltjSF1uMyljKGMzNCluW2NIXW40W0NIMl1DNShbQ0gyXVtPSF0pW0NIMl1PW0NIMl01

> <s_epik_cmdline>
J2VwaWtfcHl0aG9uJywgJy1waCcsICc3LjAnLCAnLXRuJywgJzgnLCAnLW1hJywgJzIwMCcsICctbWV0YWxfYmluZGluZycsICctaW1hZScsICc8aW5maWxlLm1hZT4nLCAnLW9tYWUnLCAnPG91dGZpbGUubWFlPic=

> <r_lp_tautomer_probability>
1

> <r_epik_Ionization_Penalty>
2.63631

> <r_epik_Ionization_Penalty_Charging>
2.63472

> <r_epik_Ionization_Penalty_Neutral>
0.0015918

> <r_epik_State_Penalty>
2.63293

> <r_epik_Charging_Adjusted_Penalty>
5.26764

> <i_epik_Tot_Q>
-1

> <i_epik_Tot_abs_Q>
1

> <r_epik_Metal_State_Penalty>
0.446503

> <b_epik_Metal_Only>
1

> <s_lp_Force_Field>
OPLS_2005

> <r_lp_Energy>
37.7824

> <b_lp_Chiralities_Consistent>
1

> <s_lp_Variant>
AV-unprocessed.smi:188-2

> <Gold.Version>
5.8.1

> <Gold.Id.Protein>
6NUR|6NUR_protein|mol2

> <Gold.PLP.Fitness>
41.0301

> <Gold.PLP.PLP>
-33.7174

> <Gold.PLP.part.hbond>
-5.4579

> <Gold.PLP.part.metal>
0.0000

> <Gold.PLP.part.buried>
-1.4567

> <Gold.PLP.part.nonpolar>
-27.1568

> <Gold.PLP.part.repulsive>
0.3857

> <Gold.PLP.ligand.clash>
0.0000

> <Gold.PLP.ligand.torsion>
1.1966

> <Gold.PLP.Chemscore.Hbond>
3.0000

> <Gold.PLP.Chemscore.CHOScore>
0.0000

> <Gold.PLP.Chemscore.Metal>
0.0000

> <Gold.Chemscore.Hbonds>
donor molecule, donor type, donor heavy atom, donor atom, acceptor molecule, acceptor atom, score
      L1  H    22    39       P1  7957  0.88
      P1  H  7997  8008       L1     5  1.00
      P1  H  7997  8009       L1    16  1.00

> <Gold.PLP.Chemscore.Internal.Correction>
0.7059

> <Gold.Rescore>
     Score         DG    S(hbond)    S(metal)    S(lipo)     H(rot)  DE(clash)    DE(int)     intcor
     10.50     -15.03       2.87        0.00      61.99       2.84       0.02       4.51       ----

> <Gold.Chemscore.Fitness>
10.4971

> <Gold.Chemscore.DG>
-15.0268

> <Gold.Chemscore.ZeroCoef>
-5.4800

> <Gold.Chemscore.Hbond>
2.8673

> <Gold.Chemscore.Metal>
0.0000

> <Gold.Chemscore.Lipo>
61.9921

> <Gold.Chemscore.Internal_Hbond>
0.0000

> <Gold.Chemscore.DEClash>
0.0239

> <Gold.Chemscore.DEInternal>
4.5058

> <Gold.Chemscore.Rot>
2.8450

> <Gold.Chemscore.Internal.Correction>
   9.000000E+99

> <Gold.Chemscore.Hbonds>
donor molecule, donor type, donor heavy atom, donor atom, acceptor molecule, acceptor atom, score
      L1  H    22    39       P1  7957  0.83
      P1  H  7997  8008       L1     5  1.00
      P1  H  7997  8009       L1    16  0.58

> <Gold.Chemscore.Hbond.Weighted>
-9.5768

> <Gold.Chemscore.Metal.Weighted>
-0.0000

> <Gold.Chemscore.Lipo.Weighted>
-7.2531

> <Gold.Chemscore.Internal_Hbond.Weighted>
0.0000

> <Gold.Chemscore.DEClash.Weighted>
0.0239

> <Gold.Chemscore.DEInternal.Weighted>
4.5058

> <Gold.Chemscore.Rot.Weighted>
7.2831

> <Gold.Chemscore.Internal.Correction.Weighted>
   9.000000E+99

> <Gold.Protein.RotatedTorsions>
[ 6907 6896 6895 6894 ] final -107.09 input  -60.11 | X-H torsion
[ 7974 7965 7964 7962 ] final  136.38 input  175.53 | X-H torsion
[ 8008 7997 7996 7995 ] final -158.33 input   59.86 | X-H torsion
[ 10167 10162 10161 10158 ] final -167.55 input  -65.29 | X-H torsion
[ 10718 10713 10712 10709 ] final   46.99 input   66.30 | X-H torsion
[ 10763 10752 10751 10750 ] final -105.38 input  -60.55 | X-H torsion
[ 11005 11000 10999 10996 ] final   78.99 input  -57.11 | X-H torsion

> <Gold.Protein.ActiveResidues>
 VAL166  LYS551  ARG553  GLY616  TRP617  ASP618  TYR619  PRO620  LYS621  CYS622 
 ASP623  PHE694  ASN695  SER759  ASP760  ASP761  ALA762  ILE779  LEU786  VAL792 
 PHE793  MET794  SER795  GLU796  ALA797  LYS798  CYS799  TRP800  GLU811  SER814 

> <Gold.Protein.RotatedAtoms>
  150.7425  133.9878  159.3596 H   0  0  0  0  0  0  0  0  0  0  0  0  # atno 6907 bound_to 6896
  151.7823  135.0756  160.0385 H   0  0  0  0  0  0  0  0  0  0  0  0  # atno 6908 bound_to 6896
  152.3265  133.5874  159.5816 H   0  0  0  0  0  0  0  0  0  0  0  0  # atno 6909 bound_to 6896
  144.9571  139.4753  143.5498 H   0  0  0  0  0  0  0  0  0  0  0  0  # atno 7974 bound_to 7965
  155.7460  140.0820  157.2224 H   0  0  0  0  0  0  0  0  0  0  0  0  # atno 8008 bound_to 7997
  154.4017  140.1569  156.2725 H   0  0  0  0  0  0  0  0  0  0  0  0  # atno 8009 bound_to 7997
  155.8976  140.3411  155.6005 H   0  0  0  0  0  0  0  0  0  0  0  0  # atno 8010 bound_to 7997
  139.6042  144.0947  152.1775 H   0  0  0  0  0  0  0  0  0  0  0  0  # atno 10167 bound_to 10162
  157.4539  130.8155  149.7816 H   0  0  0  0  0  0  0  0  0  0  0  0  # atno 10718 bound_to 10713
  154.7942  135.4751  154.0123 H   0  0  0  0  0  0  0  0  0  0  0  0  # atno 10763 bound_to 10752
  153.1678  135.6820  153.8658 H   0  0  0  0  0  0  0  0  0  0  0  0  # atno 10764 bound_to 10752
  153.8250  135.3199  155.3391 H   0  0  0  0  0  0  0  0  0  0  0  0  # atno 10765 bound_to 10752
  139.9190  134.7807  156.1720 H   0  0  0  0  0  0  0  0  0  0  0  0  # atno 11005 bound_to 11000
  146.3341  139.8695  142.8842 LP  0  0  0  0  0  0  0  0  0  0  0  0  # atno 17320 bound_to 7965
  145.2756  141.0122  143.3746 LP  0  0  0  0  0  0  0  0  0  0  0  0  # atno 17321 bound_to 7965
  140.0550  144.5902  150.7306 LP  0  0  0  0  0  0  0  0  0  0  0  0  # atno 17342 bound_to 10162
  140.7272  143.2649  151.4077 LP  0  0  0  0  0  0  0  0  0  0  0  0  # atno 17343 bound_to 10162
  155.9999  130.3886  150.2648 LP  0  0  0  0  0  0  0  0  0  0  0  0  # atno 17370 bound_to 10713
  157.0821  131.0146  151.3152 LP  0  0  0  0  0  0  0  0  0  0  0  0  # atno 17371 bound_to 10713
  141.0694  133.6804  156.2110 LP  0  0  0  0  0  0  0  0  0  0  0  0  # atno 17394 bound_to 11000
  140.6531  134.5046  157.5579 LP  0  0  0  0  0  0  0  0  0  0  0  0  # atno 17395 bound_to 11000

$$$$
