AV-unprocessed.smi:1584|AV-procd|sdf|6365|dock3
  -GOLD-   22720 6593D 1   1.00000     0.00000
 Structure written by MMmdl.
 39 40  0  0  0  0  0  0  0  0  1 V2000
  153.4659  137.1773  159.5966 C   0  0  0  0  0  0  0  0  0  0  0  0
  152.5539  137.6928  158.4728 C   0  0  2  0  0  0  0  0  0  0  0  0
  153.2495  137.6167  157.0998 C   0  0  0  0  0  0  0  0  0  0  0  0
  152.3960  138.0823  156.0210 N   0  0  0  0  0  0  0  0  0  0  0  0
  151.9812  139.3696  155.7502 C   0  0  0  0  0  0  0  0  0  0  0  0
  151.1844  139.3148  154.6426 C   0  0  0  0  0  0  0  0  0  0  0  0
  151.1731  137.9332  154.3024 C   0  0  0  0  0  0  0  0  0  0  0  0
  151.9002  137.1983  155.1285 N   0  0  0  0  0  0  0  0  0  0  0  0
  152.1518  139.0699  158.7515 N   0  0  0  0  0  0  0  0  0  0  0  0
  152.9845  140.0886  159.0151 C   0  0  0  0  0  0  0  0  0  0  0  0
  154.2109  139.9761  159.0207 O   0  0  0  0  0  0  0  0  0  0  0  0
  152.3277  141.4418  159.3187 C   0  0  2  0  0  0  0  0  0  0  0  0
  152.6755  142.4701  158.2358 C   0  0  0  0  0  0  0  0  0  0  0  0
  151.9512  143.7925  158.5188 C   0  0  0  0  0  0  0  0  0  0  0  0
  152.0801  144.2477  159.9105 N   0  0  0  0  0  0  0  0  0  0  0  0
  151.7629  145.6602  160.1290 C   0  0  0  0  0  0  0  0  0  0  0  0
  152.3984  143.4450  160.9551 C   0  0  0  0  0  0  0  0  0  0  0  0
  152.4353  143.8552  162.1156 O   0  0  0  0  0  0  0  0  0  0  0  0
  152.7652  141.9735  160.6983 C   0  0  0  0  0  0  0  0  0  0  0  0
  153.7642  136.1445  159.4151 H   0  0  0  0  0  0  0  0  0  0  0  0
  152.9584  137.2062  160.5615 H   0  0  0  0  0  0  0  0  0  0  0  0
  154.3732  137.7764  159.6785 H   0  0  0  0  0  0  0  0  0  0  0  0
  151.6681  137.0554  158.4387 H   0  0  0  0  0  0  0  0  0  0  0  0
  154.1671  138.2070  157.1000 H   0  0  0  0  0  0  0  0  0  0  0  0
  153.5418  136.5884  156.8817 H   0  0  0  0  0  0  0  0  0  0  0  0
  152.2810  140.2066  156.3636 H   0  0  0  0  0  0  0  0  0  0  0  0
  150.6851  140.1363  154.1505 H   0  0  0  0  0  0  0  0  0  0  0  0
  150.6623  137.4457  153.4852 H   0  0  0  0  0  0  0  0  0  0  0  0
  151.1599  139.2580  158.7648 H   0  0  0  0  0  0  0  0  0  0  0  0
  151.2443  141.3066  159.3283 H   0  0  0  0  0  0  0  0  0  0  0  0
  153.7527  142.6446  158.2132 H   0  0  0  0  0  0  0  0  0  0  0  0
  152.3986  142.1022  157.2468 H   0  0  0  0  0  0  0  0  0  0  0  0
  152.3290  144.5565  157.8377 H   0  0  0  0  0  0  0  0  0  0  0  0
  150.8883  143.6787  158.3011 H   0  0  0  0  0  0  0  0  0  0  0  0
  151.0064  145.7767  160.9067 H   0  0  0  0  0  0  0  0  0  0  0  0
  151.3739  146.1380  159.2290 H   0  0  0  0  0  0  0  0  0  0  0  0
  152.6562  146.2061  160.4356 H   0  0  0  0  0  0  0  0  0  0  0  0
  152.3253  141.3593  161.4853 H   0  0  0  0  0  0  0  0  0  0  0  0
  153.8471  141.8920  160.8134 H   0  0  0  0  0  0  0  0  0  0  0  0
  1  2  1  0  0  0  0
  1 20  1  0  0  0  0
  1 21  1  0  0  0  0
  1 22  1  0  0  0  0
  2  3  1  0  0  0  0
  2  9  1  0  0  0  0
  2 23  1  0  0  0  0
  3  4  1  0  0  0  0
  3 24  1  0  0  0  0
  3 25  1  0  0  0  0
  4  8  1  0  0  0  0
  4  5  1  0  0  0  0
  5  6  2  0  0  0  0
  5 26  1  0  0  0  0
  6  7  1  0  0  0  0
  6 27  1  0  0  0  0
  7  8  2  0  0  0  0
  7 28  1  0  0  0  0
  9 10  1  0  0  0  0
  9 29  1  0  0  0  0
 10 11  2  0  0  0  0
 10 12  1  0  0  0  0
 12 19  1  0  0  0  0
 12 13  1  0  0  0  0
 12 30  1  0  0  0  0
 13 14  1  0  0  0  0
 13 31  1  0  0  0  0
 13 32  1  0  0  0  0
 14 15  1  0  0  0  0
 14 33  1  0  0  0  0
 14 34  1  0  0  0  0
 15 16  1  0  0  0  0
 15 17  1  0  0  0  0
 16 35  1  0  0  0  0
 16 36  1  0  0  0  0
 16 37  1  0  0  0  0
 17 18  2  0  0  0  0
 17 19  1  0  0  0  0
 19 38  1  0  0  0  0
 19 39  1  0  0  0  0
M  END
> <s_m_source_file>
AV-unprocessed.smi

> <i_m_source_file_index>
1584

> <i_lp_mmshare_version>
43012

> <i_f3d_flags>
0

> <s_epik_input>
bjFbY0hdW2NIXVtjSF1uMVtDSDJdW0NAQEhdKFtDSDNdKVtOSF1DKD1PKVtDQEBIXTJbQ0gyXVtDSDJdTihbQ0gzXSlDKD1PKVtDSDJdMg==

> <s_epik_cmdline>
J2VwaWtfcHl0aG9uJywgJy1waCcsICc3LjAnLCAnLXRuJywgJzgnLCAnLW1hJywgJzIwMCcsICctbWV0YWxfYmluZGluZycsICctaW1hZScsICc8aW5maWxlLm1hZT4nLCAnLW9tYWUnLCAnPG91dGZpbGUubWFlPic=

> <r_lp_tautomer_probability>
1

> <r_epik_Ionization_Penalty>
0.000299422

> <r_epik_Ionization_Penalty_Charging>
0

> <r_epik_Ionization_Penalty_Neutral>
0.000299422

> <r_epik_State_Penalty>
-0

> <r_epik_Charging_Adjusted_Penalty>
0

> <i_epik_Tot_Q>
0

> <i_epik_Tot_abs_Q>
0

> <r_epik_Metal_State_Penalty>
-0

> <b_epik_Metal_Only>
0

> <s_lp_Force_Field>
OPLS_2005

> <r_lp_Energy>
13.4891

> <b_lp_Chiralities_Consistent>
1

> <s_lp_Variant>
AV-unprocessed.smi:1584-1

> <Gold.Version>
5.8.1

> <Gold.Id.Protein>
6NUR|6NUR_protein|mol2

> <Gold.PLP.Fitness>
47.9889

> <Gold.PLP.PLP>
-39.0402

> <Gold.PLP.part.hbond>
-2.0000

> <Gold.PLP.part.metal>
0.0000

> <Gold.PLP.part.buried>
-3.9617

> <Gold.PLP.part.nonpolar>
-32.0981

> <Gold.PLP.part.repulsive>
0.3430

> <Gold.PLP.ligand.clash>
0.0000

> <Gold.PLP.ligand.torsion>
0.1994

> <Gold.PLP.Chemscore.Hbond>
1.9600

> <Gold.PLP.Chemscore.CHOScore>
1.1468

> <Gold.PLP.Chemscore.Metal>
0.0000

> <Gold.Chemscore.Hbonds>
donor molecule, donor type, donor heavy atom, donor atom, acceptor molecule, acceptor atom, score
      P1  H  7997  8010       L1    11  1.00
      P1  H 10752 10764       L1     8  0.91
      L1  C     7    28       P1  7948  0.44
      L1  C     7    28       P1  7949  0.70

> <Gold.PLP.Chemscore.Internal.Correction>
0.0272

> <Gold.Rescore>
     Score         DG    S(hbond)    S(metal)    S(lipo)     H(rot)  DE(clash)    DE(int)     intcor
     14.97     -17.76       1.86        0.00      88.39       1.67       1.12       1.67       ----

> <Gold.Chemscore.Fitness>
14.9654

> <Gold.Chemscore.DG>
-17.7567

> <Gold.Chemscore.ZeroCoef>
-5.4800

> <Gold.Chemscore.Hbond>
1.8619

> <Gold.Chemscore.Metal>
0.0000

> <Gold.Chemscore.Lipo>
88.3920

> <Gold.Chemscore.Internal_Hbond>
0.0000

> <Gold.Chemscore.DEClash>
1.1181

> <Gold.Chemscore.DEInternal>
1.6732

> <Gold.Chemscore.Rot>
1.6734

> <Gold.Chemscore.Internal.Correction>
   9.000000E+99

> <Gold.Chemscore.Hbonds>
donor molecule, donor type, donor heavy atom, donor atom, acceptor molecule, acceptor atom, score
      P1  H  7997  8010       L1    11  0.71
      P1  H 10752 10764       L1     8  0.84

> <Gold.Chemscore.Hbond.Weighted>
-6.2188

> <Gold.Chemscore.Metal.Weighted>
-0.0000

> <Gold.Chemscore.Lipo.Weighted>
-10.3419

> <Gold.Chemscore.Internal_Hbond.Weighted>
0.0000

> <Gold.Chemscore.DEClash.Weighted>
1.1181

> <Gold.Chemscore.DEInternal.Weighted>
1.6732

> <Gold.Chemscore.Rot.Weighted>
4.2840

> <Gold.Chemscore.Internal.Correction.Weighted>
   9.000000E+99

> <Gold.Protein.RotatedTorsions>
[ 6907 6896 6895 6894 ] final -104.33 input  -60.11 | X-H torsion
[ 7974 7965 7964 7962 ] final  -20.75 input  175.53 | X-H torsion
[ 8008 7997 7996 7995 ] final   15.59 input   59.86 | X-H torsion
[ 10167 10162 10161 10158 ] final    5.15 input  -65.29 | X-H torsion
[ 10718 10713 10712 10709 ] final  -53.28 input   66.30 | X-H torsion
[ 10763 10752 10751 10750 ] final  -69.03 input  -60.55 | X-H torsion
[ 11005 11000 10999 10996 ] final -167.37 input  -57.11 | X-H torsion

> <Gold.Protein.ActiveResidues>
 VAL166  LYS551  ARG553  GLY616  TRP617  ASP618  TYR619  PRO620  LYS621  CYS622 
 ASP623  PHE694  ASN695  SER759  ASP760  ASP761  ALA762  ILE779  LEU786  VAL792 
 PHE793  MET794  SER795  GLU796  ALA797  LYS798  CYS799  TRP800  GLU811  SER814 

> <Gold.Protein.RotatedAtoms>
  150.7282  134.0295  159.3728 H   0  0  0  0  0  0  0  0  0  0  0  0  # atno 6907 bound_to 6896
  151.8263  135.0633  160.0440 H   0  0  0  0  0  0  0  0  0  0  0  0  # atno 6908 bound_to 6896
  152.2966  133.5578  159.5628 H   0  0  0  0  0  0  0  0  0  0  0  0  # atno 6909 bound_to 6896
  146.1771  140.4245  142.8509 H   0  0  0  0  0  0  0  0  0  0  0  0  # atno 7974 bound_to 7965
  154.8648  140.2950  155.5517 H   0  0  0  0  0  0  0  0  0  0  0  0  # atno 8008 bound_to 7997
  156.3020  140.2471  156.3560 H   0  0  0  0  0  0  0  0  0  0  0  0  # atno 8009 bound_to 7997
  154.8880  140.0395  157.1811 H   0  0  0  0  0  0  0  0  0  0  0  0  # atno 8010 bound_to 7997
  140.6497  143.7575  150.7555 H   0  0  0  0  0  0  0  0  0  0  0  0  # atno 10167 bound_to 10162
  156.1548  130.4150  149.9886 H   0  0  0  0  0  0  0  0  0  0  0  0  # atno 10718 bound_to 10713
  154.3975  135.6038  153.5878 H   0  0  0  0  0  0  0  0  0  0  0  0  # atno 10763 bound_to 10752
  152.9788  135.5898  154.4224 H   0  0  0  0  0  0  0  0  0  0  0  0  # atno 10764 bound_to 10752
  154.4017  135.2843  155.2070 H   0  0  0  0  0  0  0  0  0  0  0  0  # atno 10765 bound_to 10752
  140.5540  134.5400  157.5129 H   0  0  0  0  0  0  0  0  0  0  0  0  # atno 11005 bound_to 11000
  144.8254  140.6619  143.6326 LP  0  0  0  0  0  0  0  0  0  0  0  0  # atno 17320 bound_to 7965
  145.4181  139.1568  143.4089 LP  0  0  0  0  0  0  0  0  0  0  0  0  # atno 17321 bound_to 7965
  140.1223  143.4600  152.2305 LP  0  0  0  0  0  0  0  0  0  0  0  0  # atno 17342 bound_to 10162
  139.5711  144.7463  151.3889 LP  0  0  0  0  0  0  0  0  0  0  0  0  # atno 17343 bound_to 10162
  156.7733  130.9194  151.3645 LP  0  0  0  0  0  0  0  0  0  0  0  0  # atno 17370 bound_to 10713
  157.6686  130.9030  149.9989 LP  0  0  0  0  0  0  0  0  0  0  0  0  # atno 17371 bound_to 10713
  139.9441  134.7734  156.0606 LP  0  0  0  0  0  0  0  0  0  0  0  0  # atno 17394 bound_to 11000
  141.1154  133.6629  156.3082 LP  0  0  0  0  0  0  0  0  0  0  0  0  # atno 17395 bound_to 11000

$$$$
