AV-unprocessed.smi:693|AV-procd|sdf|3373|dock1
  -GOLD-   22720 0353D 1   1.00000     0.00000
 Structure written by MMmdl.
 46 47  0  0  0  0  0  0  0  0  1 V2000
  150.4669  145.4791  160.6631 C   0  0  0  0  0  0  0  0  0  0  0  0
  151.5098  144.3823  160.7202 C   0  0  0  0  0  0  0  0  0  0  0  0
  151.6562  143.4801  159.6462 C   0  0  0  0  0  0  0  0  0  0  0  0
  152.6381  142.4751  159.7430 C   0  0  0  0  0  0  0  0  0  0  0  0
  153.4322  142.4113  160.9064 C   0  0  0  0  0  0  0  0  0  0  0  0
  154.5072  141.3540  161.0614 C   0  0  0  0  0  0  0  0  0  0  0  0
  153.9247  139.9318  161.0395 C   0  0  0  0  0  0  0  0  0  0  0  0
  154.7695  138.9949  161.7709 N   0  0  0  0  0  0  0  0  0  0  0  0
  154.7136  137.6563  161.6626 C   0  0  0  0  0  0  0  0  0  0  0  0
  153.9281  137.0955  160.8966 O   0  0  0  0  0  0  0  0  0  0  0  0
  155.6066  136.9844  162.4331 N   0  0  0  0  0  0  0  0  0  0  0  0
  156.2330  137.4773  163.6704 C   0  0  0  0  0  0  0  0  0  0  0  0
  155.5600  136.7833  164.8662 C   0  0  0  0  0  0  0  0  0  0  0  0
  155.6499  135.2503  164.7401 C   0  0  0  0  0  0  0  0  0  0  0  0
  155.1760  134.7439  163.3539 C   0  0  2  0  0  0  0  0  0  0  0  0
  155.3951  133.2283  163.1432 C   0  0  0  0  0  0  0  0  0  0  0  0
  154.8242  132.6968  161.8243 C   0  0  0  0  0  0  0  0  0  0  0  0
  155.6337  131.9515  161.0677 N   0  0  0  0  0  0  0  0  0  0  0  0
  153.6624  132.9347  161.5015 O   0  0  0  0  0  0  0  0  0  0  0  0
  155.8753  135.5537  162.2389 C   0  0  0  0  0  0  0  0  0  0  0  0
  153.2054  143.3624  161.9233 C   0  0  0  0  0  0  0  0  0  0  0  0
  152.2663  144.3290  161.8389 N   0  0  0  0  0  0  0  0  0  0  0  0
  150.5700  146.0516  159.7410 H   0  0  0  0  0  0  0  0  0  0  0  0
  150.5642  146.1685  161.5028 H   0  0  0  0  0  0  0  0  0  0  0  0
  149.4662  145.0479  160.6900 H   0  0  0  0  0  0  0  0  0  0  0  0
  151.0314  143.5562  158.7684 H   0  0  0  0  0  0  0  0  0  0  0  0
  152.7792  141.7691  158.9377 H   0  0  0  0  0  0  0  0  0  0  0  0
  155.2369  141.4782  160.2603 H   0  0  0  0  0  0  0  0  0  0  0  0
  155.0442  141.5246  161.9953 H   0  0  0  0  0  0  0  0  0  0  0  0
  152.9358  139.9279  161.4983 H   0  0  0  0  0  0  0  0  0  0  0  0
  153.7912  139.5884  160.0121 H   0  0  0  0  0  0  0  0  0  0  0  0
  155.4445  139.3899  162.4095 H   0  0  0  0  0  0  0  0  0  0  0  0
  157.2977  137.2393  163.6536 H   0  0  0  0  0  0  0  0  0  0  0  0
  156.1826  138.5590  163.7938 H   0  0  0  0  0  0  0  0  0  0  0  0
  156.0235  137.1075  165.7982 H   0  0  0  0  0  0  0  0  0  0  0  0
  154.5129  137.0845  164.9196 H   0  0  0  0  0  0  0  0  0  0  0  0
  156.6839  134.9424  164.9007 H   0  0  0  0  0  0  0  0  0  0  0  0
  155.0659  134.7957  165.5402 H   0  0  0  0  0  0  0  0  0  0  0  0
  154.1048  134.9396  163.2753 H   0  0  0  0  0  0  0  0  0  0  0  0
  156.4627  133.0045  163.1751 H   0  0  0  0  0  0  0  0  0  0  0  0
  154.9477  132.6695  163.9661 H   0  0  0  0  0  0  0  0  0  0  0  0
  155.3024  131.5760  160.1910 H   0  0  0  0  0  0  0  0  0  0  0  0
  156.5761  131.7635  161.3778 H   0  0  0  0  0  0  0  0  0  0  0  0
  155.5518  135.2047  161.2572 H   0  0  0  0  0  0  0  0  0  0  0  0
  156.9524  135.3812  162.2669 H   0  0  0  0  0  0  0  0  0  0  0  0
  153.7954  143.3504  162.8281 H   0  0  0  0  0  0  0  0  0  0  0  0
  1  2  1  0  0  0  0
  1 23  1  0  0  0  0
  1 24  1  0  0  0  0
  1 25  1  0  0  0  0
  2 22  1  0  0  0  0
  2  3  2  0  0  0  0
  3  4  1  0  0  0  0
  3 26  1  0  0  0  0
  4  5  2  0  0  0  0
  4 27  1  0  0  0  0
  5  6  1  0  0  0  0
  5 21  1  0  0  0  0
  6  7  1  0  0  0  0
  6 28  1  0  0  0  0
  6 29  1  0  0  0  0
  7  8  1  0  0  0  0
  7 30  1  0  0  0  0
  7 31  1  0  0  0  0
  8  9  1  0  0  0  0
  8 32  1  0  0  0  0
  9 10  2  0  0  0  0
  9 11  1  0  0  0  0
 11 20  1  0  0  0  0
 11 12  1  0  0  0  0
 12 13  1  0  0  0  0
 12 33  1  0  0  0  0
 12 34  1  0  0  0  0
 13 14  1  0  0  0  0
 13 35  1  0  0  0  0
 13 36  1  0  0  0  0
 14 15  1  0  0  0  0
 14 37  1  0  0  0  0
 14 38  1  0  0  0  0
 15 16  1  0  0  0  0
 15 20  1  0  0  0  0
 15 39  1  0  0  0  0
 16 17  1  0  0  0  0
 16 40  1  0  0  0  0
 16 41  1  0  0  0  0
 17 18  1  0  0  0  0
 17 19  2  0  0  0  0
 18 42  1  0  0  0  0
 18 43  1  0  0  0  0
 20 44  1  0  0  0  0
 20 45  1  0  0  0  0
 21 22  2  0  0  0  0
 21 46  1  0  0  0  0
M  END
> <s_m_source_file>
AV-unprocessed.smi

> <i_m_source_file_index>
693

> <i_lp_mmshare_version>
43012

> <i_f3d_flags>
0

> <s_epik_input>
W0NIM11jMVtjSF1bY0hdYyhbY0hdbjEpW0NIMl1bQ0gyXVtOSF1DKD1PKU4yW0NIMl1bQ0gyXVtDSDJdW0NASF0oW0NIMl0yKVtDSDJdQyg9TylbTkgyXQ==

> <s_epik_cmdline>
J2VwaWtfcHl0aG9uJywgJy1waCcsICc3LjAnLCAnLXRuJywgJzgnLCAnLW1hJywgJzIwMCcsICctbWV0YWxfYmluZGluZycsICctaW1hZScsICc8aW5maWxlLm1hZT4nLCAnLW9tYWUnLCAnPG91dGZpbGUubWFlPic=

> <r_epik_Ionization_Penalty>
0.056948

> <r_epik_Ionization_Penalty_Charging>
0

> <r_epik_Ionization_Penalty_Neutral>
0.056948

> <r_epik_State_Penalty>
0.0490937

> <r_epik_Charging_Adjusted_Penalty>
0.0490937

> <i_epik_Tot_Q>
0

> <i_epik_Tot_abs_Q>
0

> <r_epik_Metal_State_Penalty>
0.0447689

> <b_epik_Metal_Only>
0

> <s_lp_Force_Field>
OPLS_2005

> <r_lp_Energy>
26.3335

> <b_lp_Chiralities_Consistent>
1

> <s_lp_Variant>
AV-unprocessed.smi:693-2

> <Gold.Version>
5.8.1

> <Gold.Id.Protein>
6NUR|6NUR_protein|mol2

> <Gold.PLP.Fitness>
47.2317

> <Gold.PLP.PLP>
-45.1792

> <Gold.PLP.part.hbond>
-1.0000

> <Gold.PLP.part.metal>
0.0000

> <Gold.PLP.part.buried>
-4.2832

> <Gold.PLP.part.nonpolar>
-39.4154

> <Gold.PLP.part.repulsive>
0.1629

> <Gold.PLP.ligand.clash>
0.0000

> <Gold.PLP.ligand.torsion>
0.5128

> <Gold.PLP.Chemscore.Hbond>
1.0000

> <Gold.PLP.Chemscore.CHOScore>
0.0000

> <Gold.PLP.Chemscore.Metal>
0.0000

> <Gold.Chemscore.Hbonds>
donor molecule, donor type, donor heavy atom, donor atom, acceptor molecule, acceptor atom, score
      P1  H  6896  6909       L1    19  0.13

> <Gold.PLP.Chemscore.Internal.Correction>
0.0780

> <Gold.Rescore>
     Score         DG    S(hbond)    S(metal)    S(lipo)     H(rot)  DE(clash)    DE(int)     intcor
     16.73     -17.59       0.96        0.00     125.35       2.25       0.19       0.67       ----

> <Gold.Chemscore.Fitness>
16.7251

> <Gold.Chemscore.DG>
-17.5935

> <Gold.Chemscore.ZeroCoef>
-5.4800

> <Gold.Chemscore.Hbond>
0.9613

> <Gold.Chemscore.Metal>
0.0000

> <Gold.Chemscore.Lipo>
125.3496

> <Gold.Chemscore.Internal_Hbond>
0.0000

> <Gold.Chemscore.DEClash>
0.1946

> <Gold.Chemscore.DEInternal>
0.6739

> <Gold.Chemscore.Rot>
2.2512

> <Gold.Chemscore.Internal.Correction>
   9.000000E+99

> <Gold.Chemscore.Hbonds>
donor molecule, donor type, donor heavy atom, donor atom, acceptor molecule, acceptor atom, score
      P1  H  6896  6909       L1    19  0.12

> <Gold.Chemscore.Hbond.Weighted>
-3.2107

> <Gold.Chemscore.Metal.Weighted>
-0.0000

> <Gold.Chemscore.Lipo.Weighted>
-14.6659

> <Gold.Chemscore.Internal_Hbond.Weighted>
0.0000

> <Gold.Chemscore.DEClash.Weighted>
0.1946

> <Gold.Chemscore.DEInternal.Weighted>
0.6739

> <Gold.Chemscore.Rot.Weighted>
5.7631

> <Gold.Chemscore.Internal.Correction.Weighted>
   9.000000E+99

> <Gold.Protein.RotatedTorsions>
[ 6907 6896 6895 6894 ] final -132.93 input  -60.11 | X-H torsion
[ 7974 7965 7964 7962 ] final  121.46 input  175.53 | X-H torsion
[ 8008 7997 7996 7995 ] final  -50.29 input   59.86 | X-H torsion
[ 10167 10162 10161 10158 ] final -160.59 input  -65.29 | X-H torsion
[ 10718 10713 10712 10709 ] final  162.99 input   66.30 | X-H torsion
[ 10763 10752 10751 10750 ] final   15.73 input  -60.55 | X-H torsion
[ 11005 11000 10999 10996 ] final  -95.47 input  -57.11 | X-H torsion

> <Gold.Protein.ActiveResidues>
 VAL166  LYS551  ARG553  GLY616  TRP617  ASP618  TYR619  PRO620  LYS621  CYS622 
 ASP623  PHE694  ASN695  SER759  ASP760  ASP761  ALA762  ILE779  LEU786  VAL792 
 PHE793  MET794  SER795  GLU796  ALA797  LYS798  CYS799  TRP800  GLU811  SER814 

> <Gold.Protein.RotatedAtoms>
  150.9681  133.6373  159.2742 H   0  0  0  0  0  0  0  0  0  0  0  0  # atno 6907 bound_to 6896
  151.3672  135.0914  159.9463 H   0  0  0  0  0  0  0  0  0  0  0  0  # atno 6908 bound_to 6896
  152.5173  133.9242  159.7604 H   0  0  0  0  0  0  0  0  0  0  0  0  # atno 6909 bound_to 6896
  145.1190  139.3401  143.4724 H   0  0  0  0  0  0  0  0  0  0  0  0  # atno 7974 bound_to 7965
  154.4059  140.1276  156.4642 H   0  0  0  0  0  0  0  0  0  0  0  0  # atno 8008 bound_to 7997
  155.7243  140.3492  155.5010 H   0  0  0  0  0  0  0  0  0  0  0  0  # atno 8009 bound_to 7997
  155.9186  140.1048  157.1215 H   0  0  0  0  0  0  0  0  0  0  0  0  # atno 8010 bound_to 7997
  139.6528  144.0053  152.2173 H   0  0  0  0  0  0  0  0  0  0  0  0  # atno 10167 bound_to 10162
  157.1148  131.0477  151.2441 H   0  0  0  0  0  0  0  0  0  0  0  0  # atno 10718 bound_to 10713
  153.1497  135.6776  153.8901 H   0  0  0  0  0  0  0  0  0  0  0  0  # atno 10763 bound_to 10752
  153.8331  135.3115  155.3421 H   0  0  0  0  0  0  0  0  0  0  0  0  # atno 10764 bound_to 10752
  154.7853  135.4866  154.0018 H   0  0  0  0  0  0  0  0  0  0  0  0  # atno 10765 bound_to 10752
  141.1441  133.8028  157.0439 H   0  0  0  0  0  0  0  0  0  0  0  0  # atno 11005 bound_to 11000
  146.3522  140.1142  142.8602 LP  0  0  0  0  0  0  0  0  0  0  0  0  # atno 17320 bound_to 7965
  145.0761  140.9189  143.4853 LP  0  0  0  0  0  0  0  0  0  0  0  0  # atno 17321 bound_to 7965
  139.9772  144.6453  150.7934 LP  0  0  0  0  0  0  0  0  0  0  0  0  # atno 17342 bound_to 10162
  140.7545  143.3029  151.3035 LP  0  0  0  0  0  0  0  0  0  0  0  0  # atno 17343 bound_to 10162
  157.4527  130.7608  149.7166 LP  0  0  0  0  0  0  0  0  0  0  0  0  # atno 17370 bound_to 10713
  155.9842  130.3994  150.3325 LP  0  0  0  0  0  0  0  0  0  0  0  0  # atno 17371 bound_to 10713
  140.0675  134.9721  157.1411 LP  0  0  0  0  0  0  0  0  0  0  0  0  # atno 17394 bound_to 11000
  140.3759  134.2340  155.7174 LP  0  0  0  0  0  0  0  0  0  0  0  0  # atno 17395 bound_to 11000

$$$$
