AV-unprocessed.smi:153|AV-procd|sdf|1257|dock10
  -GOLD-   2262018503D 1   1.00000     0.00000
 Structure written by MMmdl.
 60 63  0  0  0  0  0  0  0  0  2 V2000
  151.8731  143.8355  157.1267 C   0  0  0  0  0  0  0  0  0  0  0  0
  152.5645  144.1861  158.4541 C   0  0  1  0  0  0  0  0  0  0  0  0
  151.9004  145.3662  158.9120 O   0  0  0  0  0  0  0  0  0  0  0  0
  151.5299  145.2384  160.2756 C   0  0  0  0  0  0  0  0  0  0  0  0
  151.3194  143.7421  160.4545 C   0  0  0  0  0  0  0  0  0  0  0  0
  152.4316  143.1478  159.6032 C   0  0  2  0  0  0  0  0  0  0  0  0
  153.6208  143.1954  160.3741 O   0  0  0  0  0  0  0  0  0  0  0  0
  152.1635  141.6629  159.2308 C   0  0  0  0  0  0  0  0  0  0  0  0
  151.1124  141.4340  158.2432 N   0  0  0  0  0  0  0  0  0  0  0  0
  149.8112  141.8867  158.2696 C   0  0  0  0  0  0  0  0  0  0  0  0
  149.0855  141.5580  157.2371 N   0  0  0  0  0  0  0  0  0  0  0  0
  149.9490  140.8407  156.4178 C   0  0  0  0  0  0  0  0  0  0  0  0
  149.8289  140.2104  155.1417 C   0  0  0  0  0  0  0  0  0  0  0  0
  148.6881  140.1711  154.3988 N   0  0  0  0  0  0  0  0  0  0  0  0
  148.0033  141.4141  154.0671 C   0  0  0  0  0  0  0  0  0  0  0  0
  148.3219  138.9476  153.6771 C   0  0  0  0  0  0  0  0  0  0  0  0
  146.8234  138.8583  153.3057 C   0  0  1  0  0  0  0  0  0  0  0  0
  146.6831  138.1300  152.1023 O   0  0  0  0  0  0  0  0  0  0  0  0
  145.9180  138.2570  154.4028 C   0  0  0  0  0  0  0  0  0  0  0  0
  144.4756  138.3419  154.0637 N   0  3  0  0  0  0  0  0  0  0  0  0
  144.0105  137.1782  153.2715 C   0  0  0  0  0  0  0  0  0  0  0  0
  142.5276  137.3396  152.8972 C   0  0  0  0  0  0  0  0  0  0  0  0
  141.7524  137.5034  154.0781 O   0  0  0  0  0  0  0  0  0  0  0  0
  142.1291  138.6668  154.8042 C   0  0  0  0  0  0  0  0  0  0  0  0
  143.5985  138.5488  155.2429 C   0  0  0  0  0  0  0  0  0  0  0  0
  150.9476  139.6301  154.6332 N   0  0  0  0  0  0  0  0  0  0  0  0
  152.0955  139.6463  155.3150 C   0  0  0  0  0  0  0  0  0  0  0  0
  152.3471  140.1858  156.5073 N   0  0  0  0  0  0  0  0  0  0  0  0
  151.2351  140.7781  157.0284 C   0  0  0  0  0  0  0  0  0  0  0  0
  152.3944  143.0428  156.5953 H   0  0  0  0  0  0  0  0  0  0  0  0
  151.8617  144.6992  156.4614 H   0  0  0  0  0  0  0  0  0  0  0  0
  150.8392  143.5263  157.2812 H   0  0  0  0  0  0  0  0  0  0  0  0
  153.6119  144.4185  158.2544 H   0  0  0  0  0  0  0  0  0  0  0  0
  152.3443  145.5963  160.9068 H   0  0  0  0  0  0  0  0  0  0  0  0
  150.6374  145.8209  160.5044 H   0  0  0  0  0  0  0  0  0  0  0  0
  151.3478  143.4278  161.4987 H   0  0  0  0  0  0  0  0  0  0  0  0
  150.3445  143.4664  160.0496 H   0  0  0  0  0  0  0  0  0  0  0  0
  154.1922  142.4996  160.0871 H   0  0  0  0  0  0  0  0  0  0  0  0
  153.0778  141.2040  158.8528 H   0  0  0  0  0  0  0  0  0  0  0  0
  151.9094  141.1062  160.1331 H   0  0  0  0  0  0  0  0  0  0  0  0
  149.4030  142.4777  159.0753 H   0  0  0  0  0  0  0  0  0  0  0  0
  147.9623  142.0802  154.9298 H   0  0  0  0  0  0  0  0  0  0  0  0
  146.9777  141.2145  153.7559 H   0  0  0  0  0  0  0  0  0  0  0  0
  148.5090  141.9277  153.2491 H   0  0  0  0  0  0  0  0  0  0  0  0
  148.9147  138.8479  152.7683 H   0  0  0  0  0  0  0  0  0  0  0  0
  148.6014  138.0857  154.2842 H   0  0  0  0  0  0  0  0  0  0  0  0
  146.4981  139.8737  153.0828 H   0  0  0  0  0  0  0  0  0  0  0  0
  147.4567  137.6006  151.9791 H   0  0  0  0  0  0  0  0  0  0  0  0
  146.1906  137.2101  154.5446 H   0  0  0  0  0  0  0  0  0  0  0  0
  146.0924  138.7516  155.3597 H   0  0  0  0  0  0  0  0  0  0  0  0
  144.6069  137.0849  152.3631 H   0  0  0  0  0  0  0  0  0  0  0  0
  144.1553  136.2620  153.8462 H   0  0  0  0  0  0  0  0  0  0  0  0
  142.3838  138.1922  152.2315 H   0  0  0  0  0  0  0  0  0  0  0  0
  142.1767  136.4563  152.3634 H   0  0  0  0  0  0  0  0  0  0  0  0
  141.9745  139.5583  154.1942 H   0  0  0  0  0  0  0  0  0  0  0  0
  141.4831  138.7624  155.6771 H   0  0  0  0  0  0  0  0  0  0  0  0
  143.7117  137.7135  155.9358 H   0  0  0  0  0  0  0  0  0  0  0  0
  143.8868  139.4508  155.7816 H   0  0  0  0  0  0  0  0  0  0  0  0
  152.9310  139.1558  154.8379 H   0  0  0  0  0  0  0  0  0  0  0  0
  144.3702  139.1507  153.4672 H   0  0  0  0  0  0  0  0  0  0  0  0
  1  2  1  0  0  0  0
  1 30  1  0  0  0  0
  1 31  1  0  0  0  0
  1 32  1  0  0  0  0
  2  6  1  0  0  0  0
  2  3  1  0  0  0  0
  2 33  1  0  0  0  0
  3  4  1  0  0  0  0
  4  5  1  0  0  0  0
  4 34  1  0  0  0  0
  4 35  1  0  0  0  0
  5  6  1  0  0  0  0
  5 36  1  0  0  0  0
  5 37  1  0  0  0  0
  6  7  1  0  0  0  0
  6  8  1  0  0  0  0
  7 38  1  0  0  0  0
  8  9  1  0  0  0  0
  8 39  1  0  0  0  0
  8 40  1  0  0  0  0
  9 29  1  0  0  0  0
  9 10  1  0  0  0  0
 10 11  2  0  0  0  0
 10 41  1  0  0  0  0
 11 12  1  0  0  0  0
 12 29  2  0  0  0  0
 12 13  1  0  0  0  0
 13 14  1  0  0  0  0
 13 26  2  0  0  0  0
 14 15  1  0  0  0  0
 14 16  1  0  0  0  0
 15 42  1  0  0  0  0
 15 43  1  0  0  0  0
 15 44  1  0  0  0  0
 16 17  1  0  0  0  0
 16 45  1  0  0  0  0
 16 46  1  0  0  0  0
 17 18  1  0  0  0  0
 17 19  1  0  0  0  0
 17 47  1  0  0  0  0
 18 48  1  0  0  0  0
 19 20  1  0  0  0  0
 19 49  1  0  0  0  0
 19 50  1  0  0  0  0
 20 25  1  0  0  0  0
 20 21  1  0  0  0  0
 20 60  1  0  0  0  0
 21 22  1  0  0  0  0
 21 51  1  0  0  0  0
 21 52  1  0  0  0  0
 22 23  1  0  0  0  0
 22 53  1  0  0  0  0
 22 54  1  0  0  0  0
 23 24  1  0  0  0  0
 24 25  1  0  0  0  0
 24 55  1  0  0  0  0
 24 56  1  0  0  0  0
 25 57  1  0  0  0  0
 25 58  1  0  0  0  0
 26 27  1  0  0  0  0
 27 28  2  0  0  0  0
 27 59  1  0  0  0  0
 28 29  1  0  0  0  0
M  CHG  1  20   1
M  END
> <s_m_source_file>
AV-unprocessed.smi

> <i_m_source_file_index>
153

> <i_lp_mmshare_version>
43012

> <i_f3d_flags>
0

> <s_epik_input>
W0NIMl0xW0NIMl1PW0NAQEhdKFtDSDNdKVtDQEBdMShbT0hdKVtDSDJdbihbY0hdbjIpYyhjMjMpbltjSF1uYzNOKFtDSDNdKVtDSDJdW0NASF0oW09IXSlbQ0gyXU40W0NIMl1bQ0gyXU9bQ0gyXVtDSDJdNA==

> <s_epik_cmdline>
J2VwaWtfcHl0aG9uJywgJy1waCcsICc3LjAnLCAnLXRuJywgJzgnLCAnLW1hJywgJzIwMCcsICctbWV0YWxfYmluZGluZycsICctaW1hZScsICc8aW5maWxlLm1hZT4nLCAnLW9tYWUnLCAnPG91dGZpbGUubWFlPic=

> <r_lp_tautomer_probability>
1

> <r_epik_Ionization_Penalty>
0.403509

> <r_epik_Ionization_Penalty_Charging>
0.40072

> <r_epik_Ionization_Penalty_Neutral>
0.00278876

> <r_epik_State_Penalty>
0.400058

> <r_epik_Charging_Adjusted_Penalty>
0.800778

> <i_epik_Tot_Q>
1

> <i_epik_Tot_abs_Q>
1

> <r_epik_Metal_State_Penalty>
0.400321

> <b_epik_Metal_Only>
0

> <s_lp_Force_Field>
OPLS_2005

> <r_lp_Energy>
51.1355

> <b_lp_Chiralities_Consistent>
1

> <s_lp_Variant>
AV-unprocessed.smi:153-8

> <Gold.Version>
5.8.1

> <Gold.Id.Protein>
6NUR|6NUR_protein|mol2

> <Gold.PLP.Fitness>
55.9552

> <Gold.PLP.PLP>
-46.0138

> <Gold.PLP.part.hbond>
-4.2387

> <Gold.PLP.part.metal>
0.0000

> <Gold.PLP.part.buried>
-0.2163

> <Gold.PLP.part.nonpolar>
-41.8517

> <Gold.PLP.part.repulsive>
0.3777

> <Gold.PLP.ligand.clash>
0.0000

> <Gold.PLP.ligand.torsion>
2.0294

> <Gold.PLP.Chemscore.Hbond>
4.5000

> <Gold.PLP.Chemscore.CHOScore>
0.0000

> <Gold.PLP.Chemscore.Metal>
0.0000

> <Gold.Chemscore.Hbonds>
donor molecule, donor type, donor heavy atom, donor atom, acceptor molecule, acceptor atom, score
      L1  H    18    48       P1  7948  1.00
      L1  H    20    60       P1 10175  2.00
      P1  H  7989  7998       L1    26  0.45
      P1  H  7997  8009       L1    28  1.00

> <Gold.PLP.Chemscore.Internal.Correction>
0.5003

> <Gold.Rescore>
     Score         DG    S(hbond)    S(metal)    S(lipo)     H(rot)  DE(clash)    DE(int)     intcor
     11.89     -17.22       2.60        0.00     105.34       3.62       1.80       3.53       ----

> <Gold.Chemscore.Fitness>
11.8872

> <Gold.Chemscore.DG>
-17.2231

> <Gold.Chemscore.ZeroCoef>
-5.4800

> <Gold.Chemscore.Hbond>
2.5991

> <Gold.Chemscore.Metal>
0.0000

> <Gold.Chemscore.Lipo>
105.3375

> <Gold.Chemscore.Internal_Hbond>
0.0000

> <Gold.Chemscore.DEClash>
1.8034

> <Gold.Chemscore.DEInternal>
3.5326

> <Gold.Chemscore.Rot>
3.6182

> <Gold.Chemscore.Internal.Correction>
   9.000000E+99

> <Gold.Chemscore.Hbonds>
donor molecule, donor type, donor heavy atom, donor atom, acceptor molecule, acceptor atom, score
      L1  H    18    48       P1  7948  0.95
      L1  H    20    60       P1 10175  1.00
      P1  H  7989  7998       L1    26  0.01
      P1  H  7997  8009       L1    28  0.24

> <Gold.Chemscore.Hbond.Weighted>
-8.6811

> <Gold.Chemscore.Metal.Weighted>
-0.0000

> <Gold.Chemscore.Lipo.Weighted>
-12.3245

> <Gold.Chemscore.Internal_Hbond.Weighted>
0.0000

> <Gold.Chemscore.DEClash.Weighted>
1.8034

> <Gold.Chemscore.DEInternal.Weighted>
3.5326

> <Gold.Chemscore.Rot.Weighted>
9.2625

> <Gold.Chemscore.Internal.Correction.Weighted>
   9.000000E+99

> <Gold.Protein.RotatedTorsions>
[ 6907 6896 6895 6894 ] final  131.15 input  -60.11 | X-H torsion
[ 7974 7965 7964 7962 ] final   69.55 input  175.53 | X-H torsion
[ 8008 7997 7996 7995 ] final -171.46 input   59.86 | X-H torsion
[ 10167 10162 10161 10158 ] final  -27.34 input  -65.29 | X-H torsion
[ 10718 10713 10712 10709 ] final   93.33 input   66.30 | X-H torsion
[ 10763 10752 10751 10750 ] final   91.91 input  -60.55 | X-H torsion
[ 11005 11000 10999 10996 ] final  -29.44 input  -57.11 | X-H torsion

> <Gold.Protein.ActiveResidues>
 VAL166  LYS551  ARG553  GLY616  TRP617  ASP618  TYR619  PRO620  LYS621  CYS622 
 ASP623  PHE694  ASN695  SER759  ASP760  ASP761  ALA762  ILE779  LEU786  VAL792 
 PHE793  MET794  SER795  GLU796  ALA797  LYS798  CYS799  TRP800  GLU811  SER814 

> <Gold.Protein.RotatedAtoms>
  152.3455  133.6117  159.5906 H   0  0  0  0  0  0  0  0  0  0  0  0  # atno 6907 bound_to 6896
  150.7505  133.9656  159.3538 H   0  0  0  0  0  0  0  0  0  0  0  0  # atno 6908 bound_to 6896
  151.7515  135.0832  160.0382 H   0  0  0  0  0  0  0  0  0  0  0  0  # atno 6909 bound_to 6896
  145.7891  139.2925  143.1221 H   0  0  0  0  0  0  0  0  0  0  0  0  # atno 7974 bound_to 7965
  155.9318  140.1092  157.1126 H   0  0  0  0  0  0  0  0  0  0  0  0  # atno 8008 bound_to 7997
  154.4072  140.1236  156.4879 H   0  0  0  0  0  0  0  0  0  0  0  0  # atno 8009 bound_to 7997
  155.7070  140.3471  155.4959 H   0  0  0  0  0  0  0  0  0  0  0  0  # atno 8010 bound_to 7997
  140.7278  143.4101  151.1120 H   0  0  0  0  0  0  0  0  0  0  0  0  # atno 10167 bound_to 10162
  157.6955  131.0474  150.4018 H   0  0  0  0  0  0  0  0  0  0  0  0  # atno 10718 bound_to 10713
  153.2134  135.4380  155.0406 H   0  0  0  0  0  0  0  0  0  0  0  0  # atno 10763 bound_to 10752
  154.8212  135.3338  154.7035 H   0  0  0  0  0  0  0  0  0  0  0  0  # atno 10764 bound_to 10752
  153.7472  135.7001  153.5009 H   0  0  0  0  0  0  0  0  0  0  0  0  # atno 10765 bound_to 10752
  140.9296  133.7346  156.0918 H   0  0  0  0  0  0  0  0  0  0  0  0  # atno 11005 bound_to 11000
  145.9996  140.8532  143.0025 LP  0  0  0  0  0  0  0  0  0  0  0  0  # atno 17320 bound_to 7965
  144.6784  140.2332  143.7353 LP  0  0  0  0  0  0  0  0  0  0  0  0  # atno 17321 bound_to 7965
  139.7733  143.8462  152.3124 LP  0  0  0  0  0  0  0  0  0  0  0  0  # atno 17342 bound_to 10162
  139.8388  144.7220  150.9357 LP  0  0  0  0  0  0  0  0  0  0  0  0  # atno 17343 bound_to 10162
  156.4410  130.3991  149.6697 LP  0  0  0  0  0  0  0  0  0  0  0  0  # atno 17370 bound_to 10713
  156.3880  130.7613  151.2611 LP  0  0  0  0  0  0  0  0  0  0  0  0  # atno 17371 bound_to 10713
  140.7879  134.3650  157.5472 LP  0  0  0  0  0  0  0  0  0  0  0  0  # atno 17394 bound_to 11000
  139.8793  134.9122  156.3055 LP  0  0  0  0  0  0  0  0  0  0  0  0  # atno 17395 bound_to 11000

$$$$
