AV-unprocessed.smi:2642|AV-procd|sdf|10275|dock9
  -GOLD-   2272014283D 1   1.00000     0.00000
 Structure written by MMmdl.
 31 32  0  0  0  0  0  0  0  0  2 V2000
  144.5033  136.4333  153.2822 O   0  0  0  0  0  0  0  0  0  0  0  0
  145.6569  136.3050  152.8729 C   0  0  0  0  0  0  0  0  0  0  0  0
  146.6496  137.1517  153.1792 N   0  0  0  0  0  0  0  0  0  0  0  0
  146.5144  138.3328  154.0225 C   0  0  0  0  0  0  0  0  0  0  0  0
  147.2788  139.5322  153.4342 C   0  0  0  0  0  0  0  0  0  0  0  0
  148.5943  139.6858  154.0620 N   0  0  0  0  0  0  0  0  0  0  0  0
  149.3542  138.6677  154.4768 C   0  0  0  0  0  0  0  0  0  0  0  0
  149.1037  137.4636  154.4198 O   0  0  0  0  0  0  0  0  0  0  0  0
  150.6267  139.2522  155.0449 C   0  0  0  0  0  0  0  0  0  0  0  0
  150.4252  140.6715  154.8595 N   0  5  0  0  0  0  0  0  0  0  0  0
  149.2190  140.8600  154.2748 C   0  0  0  0  0  0  0  0  0  0  0  0
  148.7171  141.9375  153.9555 O   0  0  0  0  0  0  0  0  0  0  0  0
  146.0884  135.3293  152.0552 N   0  0  0  0  0  0  0  0  0  0  0  0
  145.3575  134.2369  151.5142 C   0  0  0  0  0  0  0  0  0  0  0  0
  145.8571  133.3515  150.5283 C   0  0  0  0  0  0  0  0  0  0  0  0
  145.0241  132.3175  150.0590 C   0  0  0  0  0  0  0  0  0  0  0  0
  143.7228  132.2096  150.5864 C   0  0  0  0  0  0  0  0  0  0  0  0
  143.2291  133.0542  151.5162 N   0  0  0  0  0  0  0  0  0  0  0  0
  144.0328  134.0440  151.9601 C   0  0  0  0  0  0  0  0  0  0  0  0
  147.5650  136.9739  152.7926 H   0  0  0  0  0  0  0  0  0  0  0  0
  145.4609  138.5793  154.1659 H   0  0  0  0  0  0  0  0  0  0  0  0
  146.9108  138.0839  155.0073 H   0  0  0  0  0  0  0  0  0  0  0  0
  147.3992  139.4070  152.3568 H   0  0  0  0  0  0  0  0  0  0  0  0
  146.6962  140.4465  153.5596 H   0  0  0  0  0  0  0  0  0  0  0  0
  150.7319  138.9652  156.0917 H   0  0  0  0  0  0  0  0  0  0  0  0
  151.4885  138.8653  154.5005 H   0  0  0  0  0  0  0  0  0  0  0  0
  147.0443  135.4078  151.7399 H   0  0  0  0  0  0  0  0  0  0  0  0
  146.8484  133.4506  150.1143 H   0  0  0  0  0  0  0  0  0  0  0  0
  145.3742  131.6249  149.3079 H   0  0  0  0  0  0  0  0  0  0  0  0
  143.0589  131.4277  150.2481 H   0  0  0  0  0  0  0  0  0  0  0  0
  143.6034  134.7024  152.7013 H   0  0  0  0  0  0  0  0  0  0  0  0
  1  2  2  0  0  0  0
  2  3  1  0  0  0  0
  2 13  1  0  0  0  0
  3  4  1  0  0  0  0
  3 20  1  0  0  0  0
  4  5  1  0  0  0  0
  4 21  1  0  0  0  0
  4 22  1  0  0  0  0
  5  6  1  0  0  0  0
  5 23  1  0  0  0  0
  5 24  1  0  0  0  0
  6 11  1  0  0  0  0
  6  7  1  0  0  0  0
  7  8  2  0  0  0  0
  7  9  1  0  0  0  0
  9 10  1  0  0  0  0
  9 25  1  0  0  0  0
  9 26  1  0  0  0  0
 10 11  1  0  0  0  0
 11 12  2  0  0  0  0
 13 14  1  0  0  0  0
 13 27  1  0  0  0  0
 14 19  1  0  0  0  0
 14 15  2  0  0  0  0
 15 16  1  0  0  0  0
 15 28  1  0  0  0  0
 16 17  2  0  0  0  0
 16 29  1  0  0  0  0
 17 18  1  0  0  0  0
 17 30  1  0  0  0  0
 18 19  2  0  0  0  0
 19 31  1  0  0  0  0
M  CHG  1  10  -1
M  END
> <s_m_source_file>
AV-unprocessed.smi

> <i_m_source_file_index>
2642

> <i_lp_mmshare_version>
43012

> <i_f3d_flags>
0

> <s_epik_input>
W2NIXTFuW2NIXVtjSF1bY0hdYzFbTkhdQyg9TylbTkhdW0NIMl1bQ0gyXU4yQyg9TylbQ0gyXVtOSF1DMj1P

> <s_epik_cmdline>
J2VwaWtfcHl0aG9uJywgJy1waCcsICc3LjAnLCAnLXRuJywgJzgnLCAnLW1hJywgJzIwMCcsICctbWV0YWxfYmluZGluZycsICctaW1hZScsICc8aW5maWxlLm1hZT4nLCAnLW9tYWUnLCAnPG91dGZpbGUubWFlPic=

> <r_lp_tautomer_probability>
1

> <r_epik_Ionization_Penalty>
5.82623

> <r_epik_Ionization_Penalty_Charging>
5.82164

> <r_epik_Ionization_Penalty_Neutral>
0.00459419

> <r_epik_State_Penalty>
5.8249

> <r_epik_Charging_Adjusted_Penalty>
11.6465

> <i_epik_Tot_Q>
-1

> <i_epik_Tot_abs_Q>
1

> <r_epik_Metal_State_Penalty>
1.79397

> <b_epik_Metal_Only>
1

> <s_lp_Force_Field>
OPLS_2005

> <r_lp_Energy>
16.7854

> <b_lp_Chiralities_Consistent>
1

> <s_lp_Variant>
AV-unprocessed.smi:2642-2

> <Gold.Version>
5.8.1

> <Gold.Id.Protein>
6NUR|6NUR_protein|mol2

> <Gold.PLP.Fitness>
40.6705

> <Gold.PLP.PLP>
-29.2374

> <Gold.PLP.part.hbond>
-4.0000

> <Gold.PLP.part.metal>
0.0000

> <Gold.PLP.part.buried>
-5.3645

> <Gold.PLP.part.nonpolar>
-22.8714

> <Gold.PLP.part.repulsive>
2.4886

> <Gold.PLP.ligand.clash>
0.0000

> <Gold.PLP.ligand.torsion>
0.7548

> <Gold.PLP.Chemscore.Hbond>
3.3830

> <Gold.PLP.Chemscore.CHOScore>
0.9276

> <Gold.PLP.Chemscore.Metal>
0.0000

> <Gold.Chemscore.Hbonds>
donor molecule, donor type, donor heavy atom, donor atom, acceptor molecule, acceptor atom, score
      L1  H     3    20       P1  7948  1.00
      L1  H    13    27       P1  7948  0.96
      P1  H  7989  7998       L1    10  0.76
      P1  H  8011  8017       L1    12  0.46
      L1  C    17    30       P1 10952  0.89

> <Gold.PLP.Chemscore.Internal.Correction>
0.0108

> <Gold.Rescore>
     Score         DG    S(hbond)    S(metal)    S(lipo)     H(rot)  DE(clash)    DE(int)     intcor
      9.74     -15.11       2.38        0.00      55.88       1.90       0.37       4.99       ----

> <Gold.Chemscore.Fitness>
9.7428

> <Gold.Chemscore.DG>
-15.1087

> <Gold.Chemscore.ZeroCoef>
-5.4800

> <Gold.Chemscore.Hbond>
2.3793

> <Gold.Chemscore.Metal>
0.0000

> <Gold.Chemscore.Lipo>
55.8817

> <Gold.Chemscore.Internal_Hbond>
0.0000

> <Gold.Chemscore.DEClash>
0.3712

> <Gold.Chemscore.DEInternal>
4.9947

> <Gold.Chemscore.Rot>
1.8969

> <Gold.Chemscore.Internal.Correction>
   9.000000E+99

> <Gold.Chemscore.Hbonds>
donor molecule, donor type, donor heavy atom, donor atom, acceptor molecule, acceptor atom, score
      L1  H     3    20       P1  7948  1.00
      L1  H    13    27       P1  7948  0.88
      P1  H  7989  7998       L1    10  0.06
      P1  H  8011  8017       L1    12  0.15

> <Gold.Chemscore.Hbond.Weighted>
-7.9467

> <Gold.Chemscore.Metal.Weighted>
-0.0000

> <Gold.Chemscore.Lipo.Weighted>
-6.5382

> <Gold.Chemscore.Internal_Hbond.Weighted>
0.0000

> <Gold.Chemscore.DEClash.Weighted>
0.3712

> <Gold.Chemscore.DEInternal.Weighted>
4.9947

> <Gold.Chemscore.Rot.Weighted>
4.8561

> <Gold.Chemscore.Internal.Correction.Weighted>
   9.000000E+99

> <Gold.Protein.RotatedTorsions>
[ 6907 6896 6895 6894 ] final  177.93 input  -60.11 | X-H torsion
[ 7974 7965 7964 7962 ] final   90.49 input  175.53 | X-H torsion
[ 8008 7997 7996 7995 ] final  -62.64 input   59.86 | X-H torsion
[ 10167 10162 10161 10158 ] final -100.22 input  -65.29 | X-H torsion
[ 10718 10713 10712 10709 ] final -157.87 input   66.30 | X-H torsion
[ 10763 10752 10751 10750 ] final -156.17 input  -60.55 | X-H torsion
[ 11005 11000 10999 10996 ] final -128.02 input  -57.11 | X-H torsion

> <Gold.Protein.ActiveResidues>
 VAL166  LYS551  ARG553  GLY616  TRP617  ASP618  TYR619  PRO620  LYS621  CYS622 
 ASP623  PHE694  ASN695  SER759  ASP760  ASP761  ALA762  ILE779  LEU786  VAL792 
 PHE793  MET794  SER795  GLU796  ALA797  LYS798  CYS799  TRP800  GLU811  SER814 

> <Gold.Protein.RotatedAtoms>
  151.6960  133.3311  159.3254 H   0  0  0  0  0  0  0  0  0  0  0  0  # atno 6907 bound_to 6896
  150.7757  134.6657  159.6373 H   0  0  0  0  0  0  0  0  0  0  0  0  # atno 6908 bound_to 6896
  152.3798  134.6611  160.0199 H   0  0  0  0  0  0  0  0  0  0  0  0  # atno 6909 bound_to 6896
  145.5183  139.2278  143.2686 H   0  0  0  0  0  0  0  0  0  0  0  0  # atno 7974 bound_to 7965
  154.4510  140.0992  156.6618 H   0  0  0  0  0  0  0  0  0  0  0  0  # atno 8008 bound_to 7997
  155.5285  140.3481  155.4403 H   0  0  0  0  0  0  0  0  0  0  0  0  # atno 8009 bound_to 7997
  156.0681  140.1342  156.9850 H   0  0  0  0  0  0  0  0  0  0  0  0  # atno 8010 bound_to 7997
  140.2542  143.3451  152.0686 H   0  0  0  0  0  0  0  0  0  0  0  0  # atno 10167 bound_to 10162
  156.5462  130.8585  151.2765 H   0  0  0  0  0  0  0  0  0  0  0  0  # atno 10718 bound_to 10713
  154.7733  135.3152  154.8145 H   0  0  0  0  0  0  0  0  0  0  0  0  # atno 10763 bound_to 10752
  153.8875  135.6829  153.4767 H   0  0  0  0  0  0  0  0  0  0  0  0  # atno 10764 bound_to 10752
  153.1351  135.4763  154.9345 H   0  0  0  0  0  0  0  0  0  0  0  0  # atno 10765 bound_to 10752
  140.9551  134.1013  157.4024 H   0  0  0  0  0  0  0  0  0  0  0  0  # atno 11005 bound_to 11000
  146.2122  140.5993  142.9054 LP  0  0  0  0  0  0  0  0  0  0  0  0  # atno 17320 bound_to 7965
  144.7690  140.5595  143.6683 LP  0  0  0  0  0  0  0  0  0  0  0  0  # atno 17321 bound_to 7965
  139.5037  144.6760  151.6127 LP  0  0  0  0  0  0  0  0  0  0  0  0  # atno 17342 bound_to 10162
  140.6017  143.9598  150.6390 LP  0  0  0  0  0  0  0  0  0  0  0  0  # atno 17343 bound_to 10162
  157.7396  130.9834  150.2324 LP  0  0  0  0  0  0  0  0  0  0  0  0  # atno 17370 bound_to 10713
  156.2926  130.3747  149.7827 LP  0  0  0  0  0  0  0  0  0  0  0  0  # atno 17371 bound_to 10713
  139.8859  135.0077  156.6467 LP  0  0  0  0  0  0  0  0  0  0  0  0  # atno 17394 bound_to 11000
  140.7548  133.8867  155.8374 LP  0  0  0  0  0  0  0  0  0  0  0  0  # atno 17395 bound_to 11000

$$$$
