AV-unprocessed.smi:1831|AV-procd|sdf|7461|dock6
  -GOLD-   22720 9153D 1   1.00000     0.00000
 Structure written by MMmdl.
 40 41  0  0  0  0  0  0  0  0  3 V2000
  148.9737  141.0908  154.7695 C   0  0  0  0  0  0  0  0  0  0  0  0
  149.7854  139.8423  154.8300 C   0  0  0  0  0  0  0  0  0  0  0  0
  151.1151  139.8470  154.9519 N   0  0  0  0  0  0  0  0  0  0  0  0
  151.6413  138.5637  154.9851 N   0  0  0  0  0  0  0  0  0  0  0  0
  150.7049  137.6087  154.8947 C   0  0  0  0  0  0  0  0  0  0  0  0
  151.0075  136.2998  154.9068 N   0  5  0  0  0  0  0  0  0  0  0  0
  150.1301  135.4084  155.4205 C   0  0  0  0  0  0  0  0  0  0  0  0
  149.2490  135.6462  156.2497 O   0  0  0  0  0  0  0  0  0  0  0  0
  150.2856  134.1673  154.9394 N   0  0  0  0  0  0  0  0  0  0  0  0
  149.4856  132.9965  155.2847 C   0  0  0  0  0  0  0  0  0  0  0  0
  148.9890  132.2845  154.0162 C   0  0  1  0  0  0  0  0  0  0  0  0
  147.9561  131.1844  154.2579 C   0  0  0  0  0  0  0  0  0  0  0  0
  147.1705  131.0930  152.9430 C   0  0  0  0  0  0  0  0  0  0  0  0
  147.5175  132.2928  152.1396 N   0  3  1  0  0  0  0  0  0  0  0  0
  146.3826  132.9086  151.3955 C   0  0  0  0  0  0  0  0  0  0  0  0
  145.3093  133.4428  152.3631 C   0  0  0  0  0  0  0  0  0  0  0  0
  145.7377  131.9139  150.4110 C   0  0  0  0  0  0  0  0  0  0  0  0
  148.2630  133.2026  153.0366 C   0  0  0  0  0  0  0  0  0  0  0  0
  149.0671  138.2434  154.7366 S   0  0  0  0  0  0  0  0  0  0  0  0
  149.4995  141.9124  155.2566 H   0  0  0  0  0  0  0  0  0  0  0  0
  148.0187  140.9420  155.2736 H   0  0  0  0  0  0  0  0  0  0  0  0
  148.7845  141.3607  153.7306 H   0  0  0  0  0  0  0  0  0  0  0  0
  151.0275  134.0281  154.2690 H   0  0  0  0  0  0  0  0  0  0  0  0
  150.1011  132.3247  155.8838 H   0  0  0  0  0  0  0  0  0  0  0  0
  148.6275  133.2668  155.9020 H   0  0  0  0  0  0  0  0  0  0  0  0
  149.8439  131.8448  153.4987 H   0  0  0  0  0  0  0  0  0  0  0  0
  148.4149  130.2355  154.5377 H   0  0  0  0  0  0  0  0  0  0  0  0
  147.2818  131.4749  155.0649 H   0  0  0  0  0  0  0  0  0  0  0  0
  147.4419  130.1989  152.3808 H   0  0  0  0  0  0  0  0  0  0  0  0
  146.1020  131.0397  153.1570 H   0  0  0  0  0  0  0  0  0  0  0  0
  146.7724  133.7485  150.8180 H   0  0  0  0  0  0  0  0  0  0  0  0
  144.4718  133.8759  151.8154 H   0  0  0  0  0  0  0  0  0  0  0  0
  145.6961  134.2239  153.0176 H   0  0  0  0  0  0  0  0  0  0  0  0
  144.9130  132.6459  152.9936 H   0  0  0  0  0  0  0  0  0  0  0  0
  144.8797  132.3625  149.9090 H   0  0  0  0  0  0  0  0  0  0  0  0
  145.3871  131.0176  150.9240 H   0  0  0  0  0  0  0  0  0  0  0  0
  146.4311  131.6040  149.6291 H   0  0  0  0  0  0  0  0  0  0  0  0
  147.5624  133.8454  153.5730 H   0  0  0  0  0  0  0  0  0  0  0  0
  148.9560  133.8385  152.4846 H   0  0  0  0  0  0  0  0  0  0  0  0
  148.1881  131.9805  151.4516 H   0  0  0  0  0  0  0  0  0  0  0  0
  1  2  1  0  0  0  0
  1 20  1  0  0  0  0
  1 21  1  0  0  0  0
  1 22  1  0  0  0  0
  2 19  1  0  0  0  0
  2  3  2  0  0  0  0
  3  4  1  0  0  0  0
  4  5  2  0  0  0  0
  5  6  1  0  0  0  0
  5 19  1  0  0  0  0
  6  7  1  0  0  0  0
  7  8  2  0  0  0  0
  7  9  1  0  0  0  0
  9 10  1  0  0  0  0
  9 23  1  0  0  0  0
 10 11  1  0  0  0  0
 10 24  1  0  0  0  0
 10 25  1  0  0  0  0
 11 18  1  0  0  0  0
 11 12  1  0  0  0  0
 11 26  1  0  0  0  0
 12 13  1  0  0  0  0
 12 27  1  0  0  0  0
 12 28  1  0  0  0  0
 13 14  1  0  0  0  0
 13 29  1  0  0  0  0
 13 30  1  0  0  0  0
 14 15  1  0  0  0  0
 14 18  1  0  0  0  0
 14 40  1  0  0  0  0
 15 16  1  0  0  0  0
 15 17  1  0  0  0  0
 15 31  1  0  0  0  0
 16 32  1  0  0  0  0
 16 33  1  0  0  0  0
 16 34  1  0  0  0  0
 17 35  1  0  0  0  0
 17 36  1  0  0  0  0
 17 37  1  0  0  0  0
 18 38  1  0  0  0  0
 18 39  1  0  0  0  0
M  CHG  1   6  -1
M  CHG  1  14   1
M  END
> <s_m_source_file>
AV-unprocessed.smi

> <i_m_source_file_index>
1831

> <i_lp_mmshare_version>
43012

> <i_f3d_flags>
0

> <s_epik_input>
W0NIM11jMW5uYyhzMSlbTkhdQyg9TylbTkhdW0NIMl1bQ0BASF0yW0NIMl1bQ0gyXU4oW0NIMl0yKVtDSF0oW0NIM10pW0NIM10=

> <s_epik_cmdline>
J2VwaWtfcHl0aG9uJywgJy1waCcsICc3LjAnLCAnLXRuJywgJzgnLCAnLW1hJywgJzIwMCcsICctbWV0YWxfYmluZGluZycsICctaW1hZScsICc8aW5maWxlLm1hZT4nLCAnLW9tYWUnLCAnPG91dGZpbGUubWFlPic=

> <r_lp_tautomer_probability>
1

> <r_epik_Ionization_Penalty>
4.24531

> <r_epik_Ionization_Penalty_Charging>
4.11954

> <r_epik_Ionization_Penalty_Neutral>
0.125766

> <r_epik_State_Penalty>
4.11879

> <r_epik_Charging_Adjusted_Penalty>
8.23833

> <i_epik_Tot_Q>
0

> <i_epik_Tot_abs_Q>
2

> <r_epik_Metal_State_Penalty>
0.659341

> <b_epik_Metal_Only>
1

> <s_lp_Force_Field>
OPLS_2005

> <r_lp_Energy>
24.973

> <b_lp_Chiralities_Consistent>
1

> <s_lp_Variant>
AV-unprocessed.smi:1831-6

> <Gold.Version>
5.8.1

> <Gold.Id.Protein>
6NUR|6NUR_protein|mol2

> <Gold.PLP.Fitness>
44.6683

> <Gold.PLP.PLP>
-33.3718

> <Gold.PLP.part.hbond>
-3.0000

> <Gold.PLP.part.metal>
0.0000

> <Gold.PLP.part.buried>
-3.0230

> <Gold.PLP.part.nonpolar>
-27.7719

> <Gold.PLP.part.repulsive>
0.4621

> <Gold.PLP.ligand.clash>
0.0000

> <Gold.PLP.ligand.torsion>
0.4100

> <Gold.PLP.Chemscore.Hbond>
4.0000

> <Gold.PLP.Chemscore.CHOScore>
0.0000

> <Gold.PLP.Chemscore.Metal>
0.0000

> <Gold.Chemscore.Hbonds>
donor molecule, donor type, donor heavy atom, donor atom, acceptor molecule, acceptor atom, score
      L1  H    14    40       P1 10747  1.00
      P1  H  7989  7998       L1     3  1.00
      P1  H 10752 10764       L1     6  1.79

> <Gold.PLP.Chemscore.Internal.Correction>
0.1165

> <Gold.Rescore>
     Score         DG    S(hbond)    S(metal)    S(lipo)     H(rot)  DE(clash)    DE(int)     intcor
     17.45     -18.10       2.54        0.00      68.49       1.51       0.01       0.64       ----

> <Gold.Chemscore.Fitness>
17.4544

> <Gold.Chemscore.DG>
-18.1008

> <Gold.Chemscore.ZeroCoef>
-5.4800

> <Gold.Chemscore.Hbond>
2.5391

> <Gold.Chemscore.Metal>
0.0000

> <Gold.Chemscore.Lipo>
68.4916

> <Gold.Chemscore.Internal_Hbond>
0.0000

> <Gold.Chemscore.DEClash>
0.0095

> <Gold.Chemscore.DEInternal>
0.6369

> <Gold.Chemscore.Rot>
1.5131

> <Gold.Chemscore.Internal.Correction>
   9.000000E+99

> <Gold.Chemscore.Hbonds>
donor molecule, donor type, donor heavy atom, donor atom, acceptor molecule, acceptor atom, score
      L1  H    14    40       P1 10747  0.99
      P1  H  7989  7998       L1     3  0.31
      P1  H 10752 10764       L1     6  0.81

> <Gold.Chemscore.Hbond.Weighted>
-8.4807

> <Gold.Chemscore.Metal.Weighted>
-0.0000

> <Gold.Chemscore.Lipo.Weighted>
-8.0135

> <Gold.Chemscore.Internal_Hbond.Weighted>
0.0000

> <Gold.Chemscore.DEClash.Weighted>
0.0095

> <Gold.Chemscore.DEInternal.Weighted>
0.6369

> <Gold.Chemscore.Rot.Weighted>
3.8735

> <Gold.Chemscore.Internal.Correction.Weighted>
   9.000000E+99

> <Gold.Protein.RotatedTorsions>
[ 6907 6896 6895 6894 ] final -164.01 input  -60.11 | X-H torsion
[ 7974 7965 7964 7962 ] final  -38.55 input  175.53 | X-H torsion
[ 8008 7997 7996 7995 ] final -146.77 input   59.86 | X-H torsion
[ 10167 10162 10161 10158 ] final  139.94 input  -65.29 | X-H torsion
[ 10718 10713 10712 10709 ] final -133.17 input   66.30 | X-H torsion
[ 10763 10752 10751 10750 ] final  -64.59 input  -60.55 | X-H torsion
[ 11005 11000 10999 10996 ] final  -62.54 input  -57.11 | X-H torsion

> <Gold.Protein.ActiveResidues>
 VAL166  LYS551  ARG553  GLY616  TRP617  ASP618  TYR619  PRO620  LYS621  CYS622 
 ASP623  PHE694  ASN695  SER759  ASP760  ASP761  ALA762  ILE779  LEU786  VAL792 
 PHE793  MET794  SER795  GLU796  ALA797  LYS798  CYS799  TRP800  GLU811  SER814 

> <Gold.Protein.RotatedAtoms>
  151.4051  133.3745  159.2736 H   0  0  0  0  0  0  0  0  0  0  0  0  # atno 6907 bound_to 6896
  150.9405  134.8815  159.7619 H   0  0  0  0  0  0  0  0  0  0  0  0  # atno 6908 bound_to 6896
  152.5069  134.4001  159.9465 H   0  0  0  0  0  0  0  0  0  0  0  0  # atno 6909 bound_to 6896
  146.0476  140.6525  142.9057 H   0  0  0  0  0  0  0  0  0  0  0  0  # atno 7974 bound_to 7965
  155.5648  140.0628  157.2820 H   0  0  0  0  0  0  0  0  0  0  0  0  # atno 8008 bound_to 7997
  154.4379  140.1879  156.0865 H   0  0  0  0  0  0  0  0  0  0  0  0  # atno 8009 bound_to 7997
  156.0420  140.3294  155.7258 H   0  0  0  0  0  0  0  0  0  0  0  0  # atno 8010 bound_to 7997
  139.5064  144.6264  151.5925 H   0  0  0  0  0  0  0  0  0  0  0  0  # atno 10167 bound_to 10162
  156.2422  130.7102  151.0968 H   0  0  0  0  0  0  0  0  0  0  0  0  # atno 10718 bound_to 10713
  154.3323  135.6174  153.5557 H   0  0  0  0  0  0  0  0  0  0  0  0  # atno 10763 bound_to 10752
  152.9810  135.5749  154.4948 H   0  0  0  0  0  0  0  0  0  0  0  0  # atno 10764 bound_to 10752
  154.4636  135.2857  155.1671 H   0  0  0  0  0  0  0  0  0  0  0  0  # atno 10765 bound_to 10752
  141.1363  133.6641  156.5544 H   0  0  0  0  0  0  0  0  0  0  0  0  # atno 11005 bound_to 11000
  144.7106  140.4022  143.7084 LP  0  0  0  0  0  0  0  0  0  0  0  0  # atno 17320 bound_to 7965
  145.6779  139.1612  143.2717 LP  0  0  0  0  0  0  0  0  0  0  0  0  # atno 17321 bound_to 7965
  140.5983  143.9656  150.6369 LP  0  0  0  0  0  0  0  0  0  0  0  0  # atno 17342 bound_to 10162
  140.2859  143.3357  152.1108 LP  0  0  0  0  0  0  0  0  0  0  0  0  # atno 17343 bound_to 10162
  157.7180  131.0698  150.6251 LP  0  0  0  0  0  0  0  0  0  0  0  0  # atno 17370 bound_to 10713
  156.6325  130.4436  149.5781 LP  0  0  0  0  0  0  0  0  0  0  0  0  # atno 17371 bound_to 10713
  140.4038  134.7333  157.4795 LP  0  0  0  0  0  0  0  0  0  0  0  0  # atno 17394 bound_to 11000
  140.0477  134.6176  155.8901 LP  0  0  0  0  0  0  0  0  0  0  0  0  # atno 17395 bound_to 11000

$$$$
