AV-unprocessed.smi:662|AV-procd|sdf|3243|dock2
  -GOLD-   22720 0193D 1   1.00000     0.00000
 Structure written by MMmdl.
 34 35  0  0  0  0  0  0  0  0  2 V2000
  144.8414  136.5437  152.8819 O   0  0  0  0  0  0  0  0  0  0  0  0
  145.2339  136.4657  151.7182 C   0  0  0  0  0  0  0  0  0  0  0  0
  146.0053  137.4094  151.1503 N   0  0  0  0  0  0  0  0  0  0  0  0
  146.4760  138.6163  151.8212 C   0  0  0  0  0  0  0  0  0  0  0  0
  147.1989  138.2885  153.1374 C   0  0  0  0  0  0  0  0  0  0  0  0
  148.0230  139.4292  153.6314 C   0  0  0  0  0  0  0  0  0  0  0  0
  149.2061  139.2753  154.2310 N   0  0  0  0  0  0  0  0  0  0  0  0
  149.7707  140.4898  154.6362 C   0  0  0  0  0  0  0  0  0  0  0  0
  151.1076  140.4991  155.3198 C   0  0  0  0  0  0  0  0  0  0  0  0
  152.0603  139.9855  154.5415 F   0  0  0  0  0  0  0  0  0  0  0  0
  151.4756  141.7397  155.6382 F   0  0  0  0  0  0  0  0  0  0  0  0
  151.0781  139.7830  156.4433 F   0  0  0  0  0  0  0  0  0  0  0  0
  148.9795  141.5736  154.3413 C   0  0  0  0  0  0  0  0  0  0  0  0
  147.5002  141.1066  153.5481 S   0  0  0  0  0  0  0  0  0  0  0  0
  144.8223  135.2492  150.8706 C   0  0  2  0  0  0  0  0  0  0  0  0
  144.0714  134.2071  151.7104 C   0  0  0  0  0  0  0  0  0  0  0  0
  144.2783  132.9178  150.9304 C   0  0  0  0  0  0  0  0  0  0  0  0
  145.6794  133.0736  150.3373 C   0  0  0  0  0  0  0  0  0  0  0  0
  145.9628  134.5226  150.2665 N   0  3  0  0  0  0  0  0  0  0  0  0
  146.2815  137.2927  150.1868 H   0  0  0  0  0  0  0  0  0  0  0  0
  147.1546  139.1378  151.1454 H   0  0  0  0  0  0  0  0  0  0  0  0
  145.6399  139.2941  152.0032 H   0  0  0  0  0  0  0  0  0  0  0  0
  146.4788  138.0211  153.9120 H   0  0  0  0  0  0  0  0  0  0  0  0
  147.8489  137.4232  153.0038 H   0  0  0  0  0  0  0  0  0  0  0  0
  149.1758  142.6156  154.5461 H   0  0  0  0  0  0  0  0  0  0  0  0
  144.1810  135.5899  150.0565 H   0  0  0  0  0  0  0  0  0  0  0  0
  144.5172  134.1076  152.7019 H   0  0  0  0  0  0  0  0  0  0  0  0
  143.0163  134.4505  151.8404 H   0  0  0  0  0  0  0  0  0  0  0  0
  144.1742  132.0241  151.5464 H   0  0  0  0  0  0  0  0  0  0  0  0
  143.5432  132.8578  150.1265 H   0  0  0  0  0  0  0  0  0  0  0  0
  146.4222  132.6111  150.9880 H   0  0  0  0  0  0  0  0  0  0  0  0
  145.7592  132.6079  149.3545 H   0  0  0  0  0  0  0  0  0  0  0  0
  146.0930  134.8203  149.3100 H   0  0  0  0  0  0  0  0  0  0  0  0
  146.7956  134.7116  150.8050 H   0  0  0  0  0  0  0  0  0  0  0  0
  1  2  2  0  0  0  0
  2  3  1  0  0  0  0
  2 15  1  0  0  0  0
  3  4  1  0  0  0  0
  3 20  1  0  0  0  0
  4  5  1  0  0  0  0
  4 21  1  0  0  0  0
  4 22  1  0  0  0  0
  5  6  1  0  0  0  0
  5 23  1  0  0  0  0
  5 24  1  0  0  0  0
  6 14  1  0  0  0  0
  6  7  2  0  0  0  0
  7  8  1  0  0  0  0
  8  9  1  0  0  0  0
  8 13  2  0  0  0  0
  9 10  1  0  0  0  0
  9 11  1  0  0  0  0
  9 12  1  0  0  0  0
 13 14  1  0  0  0  0
 13 25  1  0  0  0  0
 15 19  1  0  0  0  0
 15 16  1  0  0  0  0
 15 26  1  0  0  0  0
 16 17  1  0  0  0  0
 16 27  1  0  0  0  0
 16 28  1  0  0  0  0
 17 18  1  0  0  0  0
 17 29  1  0  0  0  0
 17 30  1  0  0  0  0
 18 19  1  0  0  0  0
 18 31  1  0  0  0  0
 18 32  1  0  0  0  0
 19 33  1  0  0  0  0
 19 34  1  0  0  0  0
M  CHG  1  19   1
M  END
> <s_m_source_file>
AV-unprocessed.smi

> <i_m_source_file_index>
662

> <i_lp_mmshare_version>
43012

> <i_f3d_flags>
0

> <s_epik_input>
W05IXTFbQ0gyXVtDSDJdW0NIMl1bQ0BIXTFDKD1PKVtOSF1bQ0gyXVtDSDJdYzJuYyhDKEYpKEYpRilbY0hdczI=

> <s_epik_cmdline>
J2VwaWtfcHl0aG9uJywgJy1waCcsICc3LjAnLCAnLXRuJywgJzgnLCAnLW1hJywgJzIwMCcsICctbWV0YWxfYmluZGluZycsICctaW1hZScsICc8aW5maWxlLm1hZT4nLCAnLW9tYWUnLCAnPG91dGZpbGUubWFlPic=

> <r_epik_Ionization_Penalty>
0.0382401

> <r_epik_Ionization_Penalty_Charging>
0.0382382

> <r_epik_Ionization_Penalty_Neutral>
1.85239e-06

> <r_epik_State_Penalty>
0.0320549

> <r_epik_Charging_Adjusted_Penalty>
0.0702931

> <i_epik_Tot_Q>
1

> <i_epik_Tot_abs_Q>
1

> <r_epik_Metal_State_Penalty>
0.0320549

> <b_epik_Metal_Only>
0

> <s_lp_Force_Field>
OPLS_2005

> <r_lp_Energy>
7.29414

> <b_lp_Chiralities_Consistent>
1

> <s_lp_Variant>
AV-unprocessed.smi:662-1

> <Gold.Version>
5.8.1

> <Gold.Id.Protein>
6NUR|6NUR_protein|mol2

> <Gold.PLP.Fitness>
43.5632

> <Gold.PLP.PLP>
-38.4652

> <Gold.PLP.part.hbond>
-2.6535

> <Gold.PLP.part.metal>
0.0000

> <Gold.PLP.part.buried>
-2.4174

> <Gold.PLP.part.nonpolar>
-33.8984

> <Gold.PLP.part.repulsive>
0.4635

> <Gold.PLP.ligand.clash>
0.0000

> <Gold.PLP.ligand.torsion>
0.4621

> <Gold.PLP.Chemscore.Hbond>
1.0000

> <Gold.PLP.Chemscore.CHOScore>
1.0000

> <Gold.PLP.Chemscore.Metal>
0.0000

> <Gold.Chemscore.Hbonds>
donor molecule, donor type, donor heavy atom, donor atom, acceptor molecule, acceptor atom, score
      L1  H    19    33       P1  7921  1.00
      L1  C    13    25       P1  8028  1.00

> <Gold.PLP.Chemscore.Internal.Correction>
0.0221

> <Gold.Rescore>
     Score         DG    S(hbond)    S(metal)    S(lipo)     H(rot)  DE(clash)    DE(int)     intcor
      9.91     -12.42       0.97        0.00      74.60       1.97       0.60       1.91       ----

> <Gold.Chemscore.Fitness>
9.9078

> <Gold.Chemscore.DG>
-12.4158

> <Gold.Chemscore.ZeroCoef>
-5.4800

> <Gold.Chemscore.Hbond>
0.9730

> <Gold.Chemscore.Metal>
0.0000

> <Gold.Chemscore.Lipo>
74.6013

> <Gold.Chemscore.Internal_Hbond>
0.0000

> <Gold.Chemscore.DEClash>
0.6024

> <Gold.Chemscore.DEInternal>
1.9056

> <Gold.Chemscore.Rot>
1.9697

> <Gold.Chemscore.Internal.Correction>
   9.000000E+99

> <Gold.Chemscore.Hbonds>
donor molecule, donor type, donor heavy atom, donor atom, acceptor molecule, acceptor atom, score
      L1  H    19    33       P1  7921  0.60

> <Gold.Chemscore.Hbond.Weighted>
-3.2499

> <Gold.Chemscore.Metal.Weighted>
-0.0000

> <Gold.Chemscore.Lipo.Weighted>
-8.7284

> <Gold.Chemscore.Internal_Hbond.Weighted>
0.0000

> <Gold.Chemscore.DEClash.Weighted>
0.6024

> <Gold.Chemscore.DEInternal.Weighted>
1.9056

> <Gold.Chemscore.Rot.Weighted>
5.0424

> <Gold.Chemscore.Internal.Correction.Weighted>
   9.000000E+99

> <Gold.Protein.RotatedTorsions>
[ 6907 6896 6895 6894 ] final  107.52 input  -60.11 | X-H torsion
[ 7974 7965 7964 7962 ] final  161.23 input  175.53 | X-H torsion
[ 8008 7997 7996 7995 ] final  -74.58 input   59.86 | X-H torsion
[ 10167 10162 10161 10158 ] final  -34.81 input  -65.29 | X-H torsion
[ 10718 10713 10712 10709 ] final   97.16 input   66.30 | X-H torsion
[ 10763 10752 10751 10750 ] final -120.29 input  -60.55 | X-H torsion
[ 11005 11000 10999 10996 ] final  -66.28 input  -57.11 | X-H torsion

> <Gold.Protein.ActiveResidues>
 VAL166  LYS551  ARG553  GLY616  TRP617  ASP618  TYR619  PRO620  LYS621  CYS622 
 ASP623  PHE694  ASN695  SER759  ASP760  ASP761  ALA762  ILE779  LEU786  VAL792 
 PHE793  MET794  SER795  GLU796  ALA797  LYS798  CYS799  TRP800  GLU811  SER814 

> <Gold.Protein.RotatedAtoms>
  152.5151  133.9222  159.7539 H   0  0  0  0  0  0  0  0  0  0  0  0  # atno 6907 bound_to 6896
  150.9591  133.6456  159.2764 H   0  0  0  0  0  0  0  0  0  0  0  0  # atno 6908 bound_to 6896
  151.3707  135.0927  159.9517 H   0  0  0  0  0  0  0  0  0  0  0  0  # atno 6909 bound_to 6896
  144.7696  139.7868  143.6302 H   0  0  0  0  0  0  0  0  0  0  0  0  # atno 7974 bound_to 7965
  154.5343  140.0759  156.8400 H   0  0  0  0  0  0  0  0  0  0  0  0  # atno 8008 bound_to 7997
  155.3310  140.3402  155.4221 H   0  0  0  0  0  0  0  0  0  0  0  0  # atno 8009 bound_to 7997
  156.1813  140.1653  156.8256 H   0  0  0  0  0  0  0  0  0  0  0  0  # atno 8010 bound_to 7997
  140.7178  143.3521  151.2134 H   0  0  0  0  0  0  0  0  0  0  0  0  # atno 10167 bound_to 10162
  157.6917  131.0600  150.4601 H   0  0  0  0  0  0  0  0  0  0  0  0  # atno 10718 bound_to 10713
  154.8640  135.4208  154.2435 H   0  0  0  0  0  0  0  0  0  0  0  0  # atno 10763 bound_to 10752
  153.3396  135.6993  153.6884 H   0  0  0  0  0  0  0  0  0  0  0  0  # atno 10764 bound_to 10752
  153.5868  135.3562  155.2869 H   0  0  0  0  0  0  0  0  0  0  0  0  # atno 10765 bound_to 10752
  141.1478  133.6696  156.6115 H   0  0  0  0  0  0  0  0  0  0  0  0  # atno 11005 bound_to 11000
  146.1833  139.5035  142.9853 LP  0  0  0  0  0  0  0  0  0  0  0  0  # atno 17320 bound_to 7965
  145.6363  141.0294  143.1836 LP  0  0  0  0  0  0  0  0  0  0  0  0  # atno 17321 bound_to 7965
  139.7054  143.9463  152.2924 LP  0  0  0  0  0  0  0  0  0  0  0  0  # atno 17342 bound_to 10162
  139.9170  144.6822  150.8501 LP  0  0  0  0  0  0  0  0  0  0  0  0  # atno 17343 bound_to 10162
  156.4946  130.4103  149.6387 LP  0  0  0  0  0  0  0  0  0  0  0  0  # atno 17370 bound_to 10713
  156.3385  130.7369  151.2311 LP  0  0  0  0  0  0  0  0  0  0  0  0  # atno 17371 bound_to 10713
  140.3611  134.7687  157.4534 LP  0  0  0  0  0  0  0  0  0  0  0  0  # atno 17394 bound_to 11000
  140.0784  134.5765  155.8566 LP  0  0  0  0  0  0  0  0  0  0  0  0  # atno 17395 bound_to 11000

$$$$
