AV-unprocessed.smi:2510|AV-procd|sdf|9873|dock9
  -GOLD-   2272013503D 1   1.00000     0.00000
 Structure written by MMmdl.
 48 49  0  0  0  0  0  0  0  0  1 V2000
  151.4293  139.9571  156.5809 C   0  0  0  0  0  0  0  0  0  0  0  0
  150.3593  138.8591  156.7006 C   0  0  0  0  0  0  0  0  0  0  0  0
  150.0560  138.0934  155.3889 C   0  0  0  0  0  0  0  0  0  0  0  0
  151.2871  137.2351  155.0054 C   0  0  0  0  0  0  0  0  0  0  0  0
  152.5002  138.0283  154.4953 C   0  0  0  0  0  0  0  0  0  0  0  0
  148.6546  137.4092  155.3881 C   0  0  2  0  0  0  0  0  0  0  0  0
  148.5817  136.2114  154.5522 N   0  0  0  0  0  0  0  0  0  0  0  0
  148.7311  134.9549  154.9985 C   0  0  0  0  0  0  0  0  0  0  0  0
  148.8599  134.6693  156.1886 O   0  0  0  0  0  0  0  0  0  0  0  0
  148.7624  133.8557  153.9349 C   0  0  0  0  0  0  0  0  0  0  0  0
  147.3577  133.4934  153.5284 C   0  0  0  0  0  0  0  0  0  0  0  0
  146.8032  133.4733  152.2140 C   0  0  0  0  0  0  0  0  0  0  0  0
  145.5186  133.0444  152.3950 C   0  0  0  0  0  0  0  0  0  0  0  0
  144.4154  132.7971  151.4237 C   0  0  0  0  0  0  0  0  0  0  0  0
  145.3664  132.8472  153.7479 N   0  0  0  0  0  0  0  0  0  0  0  0
  146.4810  133.1204  154.4508 N   0  0  0  0  0  0  0  0  0  0  0  0
  148.0660  138.6412  154.6767 C   0  0  2  0  0  0  0  0  0  0  0  0
  146.9604  138.4829  153.6356 C   0  0  0  0  0  0  0  0  0  0  0  0
  149.5004  138.9595  154.2309 C   0  0  1  0  0  0  0  0  0  0  0  0
  149.8765  140.3249  154.3348 O   0  0  0  0  0  0  0  0  0  0  0  0
  148.8112  141.2184  154.0644 C   0  0  0  0  0  0  0  0  0  0  0  0
  144.5201  132.5298  154.1992 H   0  0  0  0  0  0  0  0  0  0  0  0
  151.6682  140.3646  157.5631 H   0  0  0  0  0  0  0  0  0  0  0  0
  151.0902  140.7886  155.9637 H   0  0  0  0  0  0  0  0  0  0  0  0
  152.3545  139.5742  156.1509 H   0  0  0  0  0  0  0  0  0  0  0  0
  150.7009  138.1594  157.4637 H   0  0  0  0  0  0  0  0  0  0  0  0
  149.4505  139.2904  157.1194 H   0  0  0  0  0  0  0  0  0  0  0  0
  151.5896  136.5934  155.8327 H   0  0  0  0  0  0  0  0  0  0  0  0
  151.0224  136.5458  154.2041 H   0  0  0  0  0  0  0  0  0  0  0  0
  153.2701  137.3506  154.1266 H   0  0  0  0  0  0  0  0  0  0  0  0
  152.9540  138.6308  155.2812 H   0  0  0  0  0  0  0  0  0  0  0  0
  152.2248  138.6911  153.6747 H   0  0  0  0  0  0  0  0  0  0  0  0
  148.2244  137.2717  156.3813 H   0  0  0  0  0  0  0  0  0  0  0  0
  148.4771  136.3536  153.5580 H   0  0  0  0  0  0  0  0  0  0  0  0
  149.3412  134.1936  153.0741 H   0  0  0  0  0  0  0  0  0  0  0  0
  149.2804  132.9846  154.3374 H   0  0  0  0  0  0  0  0  0  0  0  0
  147.2828  133.7232  151.2790 H   0  0  0  0  0  0  0  0  0  0  0  0
  144.7848  132.8319  150.3986 H   0  0  0  0  0  0  0  0  0  0  0  0
  143.6335  133.5498  151.5262 H   0  0  0  0  0  0  0  0  0  0  0  0
  143.9673  131.8167  151.5863 H   0  0  0  0  0  0  0  0  0  0  0  0
  147.7593  139.3603  155.4382 H   0  0  0  0  0  0  0  0  0  0  0  0
  147.2988  137.9140  152.7694 H   0  0  0  0  0  0  0  0  0  0  0  0
  146.6151  139.4511  153.2742 H   0  0  0  0  0  0  0  0  0  0  0  0
  146.0974  137.9653  154.0548 H   0  0  0  0  0  0  0  0  0  0  0  0
  149.7382  138.5298  153.2551 H   0  0  0  0  0  0  0  0  0  0  0  0
  149.1742  142.2445  154.1190 H   0  0  0  0  0  0  0  0  0  0  0  0
  148.0073  141.1109  154.7923 H   0  0  0  0  0  0  0  0  0  0  0  0
  148.4048  141.0581  153.0651 H   0  0  0  0  0  0  0  0  0  0  0  0
  1  2  1  0  0  0  0
  1 23  1  0  0  0  0
  1 24  1  0  0  0  0
  1 25  1  0  0  0  0
  2  3  1  0  0  0  0
  2 26  1  0  0  0  0
  2 27  1  0  0  0  0
  3 19  1  0  0  0  0
  3  4  1  0  0  0  0
  3  6  1  0  0  0  0
  4  5  1  0  0  0  0
  4 28  1  0  0  0  0
  4 29  1  0  0  0  0
  5 30  1  0  0  0  0
  5 31  1  0  0  0  0
  5 32  1  0  0  0  0
  6  7  1  0  0  0  0
  6 17  1  0  0  0  0
  6 33  1  0  0  0  0
  7  8  1  0  0  0  0
  7 34  1  0  0  0  0
  8  9  2  0  0  0  0
  8 10  1  0  0  0  0
 10 11  1  0  0  0  0
 10 35  1  0  0  0  0
 10 36  1  0  0  0  0
 11 16  2  0  0  0  0
 11 12  1  0  0  0  0
 12 13  2  0  0  0  0
 12 37  1  0  0  0  0
 13 14  1  0  0  0  0
 13 15  1  0  0  0  0
 14 38  1  0  0  0  0
 14 39  1  0  0  0  0
 14 40  1  0  0  0  0
 15 22  1  0  0  0  0
 15 16  1  0  0  0  0
 17 18  1  0  0  0  0
 17 19  1  0  0  0  0
 17 41  1  0  0  0  0
 18 42  1  0  0  0  0
 18 43  1  0  0  0  0
 18 44  1  0  0  0  0
 19 20  1  0  0  0  0
 19 45  1  0  0  0  0
 20 21  1  0  0  0  0
 21 46  1  0  0  0  0
 21 47  1  0  0  0  0
 21 48  1  0  0  0  0
M  END
> <s_m_source_file>
AV-unprocessed.smi

> <i_m_source_file_index>
2510

> <i_lp_mmshare_version>
43012

> <i_f3d_flags>
0

> <s_epik_input>
W0NIM11PW0NAQEhdMVtDQEhdKFtDSDNdKVtDQEBIXShDMShbQ0gyXVtDSDNdKVtDSDJdW0NIM10pW05IXUMoPU8pW0NIMl1jMltjSF1jKFtDSDNdKVtuSF1uMg==

> <s_epik_cmdline>
J2VwaWtfcHl0aG9uJywgJy1waCcsICc3LjAnLCAnLXRuJywgJzgnLCAnLW1hJywgJzIwMCcsICctbWV0YWxfYmluZGluZycsICctaW1hZScsICc8aW5maWxlLm1hZT4nLCAnLW9tYWUnLCAnPG91dGZpbGUubWFlPic=

> <r_lp_tautomer_probability>
0.5

> <r_epik_Ionization_Penalty>
9.73156e-05

> <r_epik_Ionization_Penalty_Charging>
0

> <r_epik_Ionization_Penalty_Neutral>
9.73156e-05

> <r_epik_State_Penalty>
0.41068

> <r_epik_Charging_Adjusted_Penalty>
0.41068

> <i_epik_Tot_Q>
0

> <i_epik_Tot_abs_Q>
0

> <r_epik_Metal_State_Penalty>
0.410699

> <b_epik_Metal_Only>
0

> <s_lp_Force_Field>
OPLS_2005

> <r_lp_Energy>
25.1692

> <b_lp_Chiralities_Consistent>
1

> <s_lp_Variant>
AV-unprocessed.smi:2510-4

> <Gold.Version>
5.8.1

> <Gold.Id.Protein>
6NUR|6NUR_protein|mol2

> <Gold.PLP.Fitness>
34.2460

> <Gold.PLP.PLP>
-27.7764

> <Gold.PLP.part.hbond>
-2.9977

> <Gold.PLP.part.metal>
0.0000

> <Gold.PLP.part.buried>
-2.0525

> <Gold.PLP.part.nonpolar>
-23.6971

> <Gold.PLP.part.repulsive>
0.2033

> <Gold.PLP.ligand.clash>
0.0000

> <Gold.PLP.ligand.torsion>
1.3361

> <Gold.PLP.Chemscore.Hbond>
2.8473

> <Gold.PLP.Chemscore.CHOScore>
0.0000

> <Gold.PLP.Chemscore.Metal>
0.0000

> <Gold.Chemscore.Hbonds>
donor molecule, donor type, donor heavy atom, donor atom, acceptor molecule, acceptor atom, score
      L1  H     7    34       P1  7948  1.00
      L1  H    15    22       P1 10957  0.89
      P1  H  7989  7998       L1    20  0.86

> <Gold.PLP.Chemscore.Internal.Correction>
0.5998

> <Gold.Rescore>
     Score         DG    S(hbond)    S(metal)    S(lipo)     H(rot)  DE(clash)    DE(int)     intcor
     14.63     -17.97       2.34        0.00      79.57       1.81       0.53       2.81       ----

> <Gold.Chemscore.Fitness>
14.6286

> <Gold.Chemscore.DG>
-17.9738

> <Gold.Chemscore.ZeroCoef>
-5.4800

> <Gold.Chemscore.Hbond>
2.3409

> <Gold.Chemscore.Metal>
0.0000

> <Gold.Chemscore.Lipo>
79.5682

> <Gold.Chemscore.Internal_Hbond>
0.0000

> <Gold.Chemscore.DEClash>
0.5350

> <Gold.Chemscore.DEInternal>
2.8102

> <Gold.Chemscore.Rot>
1.8102

> <Gold.Chemscore.Internal.Correction>
   9.000000E+99

> <Gold.Chemscore.Hbonds>
donor molecule, donor type, donor heavy atom, donor atom, acceptor molecule, acceptor atom, score
      L1  H     7    34       P1  7948  0.98
      L1  H    15    22       P1 10957  0.60
      P1  H  7989  7998       L1    20  0.67

> <Gold.Chemscore.Hbond.Weighted>
-7.8185

> <Gold.Chemscore.Metal.Weighted>
-0.0000

> <Gold.Chemscore.Lipo.Weighted>
-9.3095

> <Gold.Chemscore.Internal_Hbond.Weighted>
0.0000

> <Gold.Chemscore.DEClash.Weighted>
0.5350

> <Gold.Chemscore.DEInternal.Weighted>
2.8102

> <Gold.Chemscore.Rot.Weighted>
4.6341

> <Gold.Chemscore.Internal.Correction.Weighted>
   9.000000E+99

> <Gold.Protein.RotatedTorsions>
[ 6907 6896 6895 6894 ] final  143.07 input  -60.11 | X-H torsion
[ 7974 7965 7964 7962 ] final  147.09 input  175.53 | X-H torsion
[ 8008 7997 7996 7995 ] final -111.29 input   59.86 | X-H torsion
[ 10167 10162 10161 10158 ] final -166.71 input  -65.29 | X-H torsion
[ 10718 10713 10712 10709 ] final    6.99 input   66.30 | X-H torsion
[ 10763 10752 10751 10750 ] final -170.91 input  -60.55 | X-H torsion
[ 11005 11000 10999 10996 ] final  171.29 input  -57.11 | X-H torsion

> <Gold.Protein.ActiveResidues>
 VAL166  LYS551  ARG553  GLY616  TRP617  ASP618  TYR619  PRO620  LYS621  CYS622 
 ASP623  PHE694  ASN695  SER759  ASP760  ASP761  ALA762  ILE779  LEU786  VAL792 
 PHE793  MET794  SER795  GLU796  ALA797  LYS798  CYS799  TRP800  GLU811  SER814 

> <Gold.Protein.RotatedAtoms>
  152.2109  133.4910  159.5109 H   0  0  0  0  0  0  0  0  0  0  0  0  # atno 6907 bound_to 6896
  150.6990  134.1468  159.4134 H   0  0  0  0  0  0  0  0  0  0  0  0  # atno 6908 bound_to 6896
  151.9388  135.0223  160.0585 H   0  0  0  0  0  0  0  0  0  0  0  0  # atno 6909 bound_to 6896
  144.8619  139.5986  143.5927 H   0  0  0  0  0  0  0  0  0  0  0  0  # atno 7974 bound_to 7965
  154.9876  140.0395  157.2305 H   0  0  0  0  0  0  0  0  0  0  0  0  # atno 8008 bound_to 7997
  154.7657  140.2792  155.6155 H   0  0  0  0  0  0  0  0  0  0  0  0  # atno 8009 bound_to 7997
  156.2912  140.2619  156.2447 H   0  0  0  0  0  0  0  0  0  0  0  0  # atno 8010 bound_to 7997
  139.6097  144.0840  152.1829 H   0  0  0  0  0  0  0  0  0  0  0  0  # atno 10167 bound_to 10162
  156.9304  130.5824  149.5649 H   0  0  0  0  0  0  0  0  0  0  0  0  # atno 10718 bound_to 10713
  154.6363  135.2893  155.0156 H   0  0  0  0  0  0  0  0  0  0  0  0  # atno 10763 bound_to 10752
  154.1299  135.6535  153.4924 H   0  0  0  0  0  0  0  0  0  0  0  0  # atno 10764 bound_to 10752
  153.0304  135.5308  154.7212 H   0  0  0  0  0  0  0  0  0  0  0  0  # atno 10765 bound_to 10752
  140.3174  134.7466  157.4038 H   0  0  0  0  0  0  0  0  0  0  0  0  # atno 11005 bound_to 11000
  146.2867  139.7023  142.9190 LP  0  0  0  0  0  0  0  0  0  0  0  0  # atno 17320 bound_to 7965
  145.4296  141.0414  143.2918 LP  0  0  0  0  0  0  0  0  0  0  0  0  # atno 17321 bound_to 7965
  140.0456  144.5973  150.7377 LP  0  0  0  0  0  0  0  0  0  0  0  0  # atno 17342 bound_to 10162
  140.7310  143.2690  151.3951 LP  0  0  0  0  0  0  0  0  0  0  0  0  # atno 17343 bound_to 10162
  156.0450  130.5527  150.8859 LP  0  0  0  0  0  0  0  0  0  0  0  0  # atno 17370 bound_to 10713
  157.5851  131.0945  150.9210 LP  0  0  0  0  0  0  0  0  0  0  0  0  # atno 17371 bound_to 10713
  140.0971  134.5522  155.8387 LP  0  0  0  0  0  0  0  0  0  0  0  0  # atno 17394 bound_to 11000
  141.2094  133.6684  156.6439 LP  0  0  0  0  0  0  0  0  0  0  0  0  # atno 17395 bound_to 11000

$$$$
