AV-unprocessed.smi:21|AV-procd|sdf|153|dock2
  -GOLD-   2262015373D 1   1.00000     0.00000
 Structure written by MMmdl.
 61 64  0  0  0  0  0  0  0  0  1 V2000
  144.6121  131.6069  150.7122 C   0  0  0  0  0  0  0  0  0  0  0  0
  145.2041  132.8930  150.8053 O   0  0  0  0  0  0  0  0  0  0  0  0
  144.2642  133.9551  150.7150 C   0  0  1  0  0  0  0  0  0  0  0  0
  143.1647  133.8427  151.7852 C   0  0  0  0  0  0  0  0  0  0  0  0
  143.1223  135.2351  152.4240 C   0  0  1  0  0  0  0  0  0  0  0  0
  142.5099  135.2380  153.8410 C   0  0  0  0  0  0  0  0  0  0  0  0
  142.0769  136.5672  154.2728 N   0  0  0  0  0  0  0  0  0  0  0  0
  141.7598  137.5464  153.2355 C   0  0  0  0  0  0  0  0  0  0  0  0
  142.6471  137.0333  155.4154 C   0  0  0  0  0  0  0  0  0  0  0  0
  142.7396  138.3750  155.6212 N   0  0  0  0  0  0  0  0  0  0  0  0
  143.3025  138.8529  156.7342 C   0  0  0  0  0  0  0  0  0  0  0  0
  143.8241  138.1789  157.7599 N   0  0  0  0  0  0  0  0  0  0  0  0
  143.7253  136.8326  157.5710 C   0  0  0  0  0  0  0  0  0  0  0  0
  143.1621  136.1820  156.4354 C   0  0  0  0  0  0  0  0  0  0  0  0
  143.2394  134.8047  156.5988 N   0  0  0  0  0  0  0  0  0  0  0  0
  143.8236  134.6498  157.7541 C   0  0  0  0  0  0  0  0  0  0  0  0
  144.1331  135.8154  158.4182 N   0  0  0  0  0  0  0  0  0  0  0  0
  144.7760  135.9239  159.7209 C   0  0  0  0  0  0  0  0  0  0  0  0
  145.5818  134.6654  160.1488 C   0  0  2  0  0  0  0  0  0  0  0  0
  144.6809  133.5650  160.7590 C   0  0  0  0  0  0  0  0  0  0  0  0
  145.4433  132.4383  161.1398 O   0  0  0  0  0  0  0  0  0  0  0  0
  146.7608  135.0155  161.0939 C   0  0  2  0  0  0  0  0  0  0  0  0
  146.3448  135.4925  162.4762 C   0  0  0  0  0  0  0  0  0  0  0  0
  147.6156  136.1653  162.9817 C   0  0  0  0  0  0  0  0  0  0  0  0
  148.2438  136.7102  161.8273 O   0  0  0  0  0  0  0  0  0  0  0  0
  147.6149  136.2097  160.6519 C   0  0  0  0  0  0  0  0  0  0  0  0
  144.5009  135.6908  152.3595 N   0  0  0  0  0  0  0  0  0  0  0  0
  144.6629  137.1208  152.5860 C   0  0  0  0  0  0  0  0  0  0  0  0
  144.9501  135.2900  151.0372 C   0  0  0  0  0  0  0  0  0  0  0  0
  143.8390  134.0052  149.7110 H   0  0  0  0  0  0  0  0  0  0  0  0
  142.5248  135.8786  151.7766 H   0  0  0  0  0  0  0  0  0  0  0  0
  145.3868  130.8430  150.7781 H   0  0  0  0  0  0  0  0  0  0  0  0
  144.0965  131.4792  149.7595 H   0  0  0  0  0  0  0  0  0  0  0  0
  143.9013  131.4309  151.5201 H   0  0  0  0  0  0  0  0  0  0  0  0
  142.2024  133.5418  151.3702 H   0  0  0  0  0  0  0  0  0  0  0  0
  143.4542  133.1032  152.5314 H   0  0  0  0  0  0  0  0  0  0  0  0
  141.6957  134.5146  153.8871 H   0  0  0  0  0  0  0  0  0  0  0  0
  143.2504  134.8922  154.5622 H   0  0  0  0  0  0  0  0  0  0  0  0
  141.3101  138.4425  153.6656 H   0  0  0  0  0  0  0  0  0  0  0  0
  141.0470  137.1408  152.5185 H   0  0  0  0  0  0  0  0  0  0  0  0
  142.6600  137.8367  152.6926 H   0  0  0  0  0  0  0  0  0  0  0  0
  143.3393  139.9292  156.8150 H   0  0  0  0  0  0  0  0  0  0  0  0
  144.0365  133.6721  158.1612 H   0  0  0  0  0  0  0  0  0  0  0  0
  145.4384  136.7897  159.6912 H   0  0  0  0  0  0  0  0  0  0  0  0
  144.0168  136.1708  160.4628 H   0  0  0  0  0  0  0  0  0  0  0  0
  146.0186  134.2484  159.2401 H   0  0  0  0  0  0  0  0  0  0  0  0
  144.1795  133.9259  161.6565 H   0  0  0  0  0  0  0  0  0  0  0  0
  143.8970  133.2602  160.0657 H   0  0  0  0  0  0  0  0  0  0  0  0
  145.7630  132.5748  162.0186 H   0  0  0  0  0  0  0  0  0  0  0  0
  147.4180  134.1514  161.2002 H   0  0  0  0  0  0  0  0  0  0  0  0
  145.5409  136.2262  162.3999 H   0  0  0  0  0  0  0  0  0  0  0  0
  146.0096  134.6946  163.1373 H   0  0  0  0  0  0  0  0  0  0  0  0
  147.4128  136.9344  163.7270 H   0  0  0  0  0  0  0  0  0  0  0  0
  148.2851  135.4279  163.4266 H   0  0  0  0  0  0  0  0  0  0  0  0
  148.3576  135.9384  159.9014 H   0  0  0  0  0  0  0  0  0  0  0  0
  146.9888  137.0010  160.2372 H   0  0  0  0  0  0  0  0  0  0  0  0
  145.7081  137.4106  152.4729 H   0  0  0  0  0  0  0  0  0  0  0  0
  144.3546  137.3953  153.5945 H   0  0  0  0  0  0  0  0  0  0  0  0
  144.0716  137.7039  151.8786 H   0  0  0  0  0  0  0  0  0  0  0  0
  146.0378  135.2265  150.9897 H   0  0  0  0  0  0  0  0  0  0  0  0
  144.6353  136.0294  150.2990 H   0  0  0  0  0  0  0  0  0  0  0  0
  1  2  1  0  0  0  0
  1 32  1  0  0  0  0
  1 33  1  0  0  0  0
  1 34  1  0  0  0  0
  2  3  1  0  0  0  0
  3 30  1  0  0  0  0
  3 29  1  0  0  0  0
  3  4  1  0  0  0  0
  4  5  1  0  0  0  0
  4 35  1  0  0  0  0
  4 36  1  0  0  0  0
  5 31  1  0  0  0  0
  5  6  1  0  0  0  0
  5 27  1  0  0  0  0
  6  7  1  0  0  0  0
  6 37  1  0  0  0  0
  6 38  1  0  0  0  0
  7  8  1  0  0  0  0
  7  9  1  0  0  0  0
  8 39  1  0  0  0  0
  8 40  1  0  0  0  0
  8 41  1  0  0  0  0
  9 14  1  0  0  0  0
  9 10  2  0  0  0  0
 10 11  1  0  0  0  0
 11 12  2  0  0  0  0
 11 42  1  0  0  0  0
 12 13  1  0  0  0  0
 13 17  1  0  0  0  0
 13 14  2  0  0  0  0
 14 15  1  0  0  0  0
 15 16  2  0  0  0  0
 16 17  1  0  0  0  0
 16 43  1  0  0  0  0
 17 18  1  0  0  0  0
 18 19  1  0  0  0  0
 18 44  1  0  0  0  0
 18 45  1  0  0  0  0
 19 20  1  0  0  0  0
 19 22  1  0  0  0  0
 19 46  1  0  0  0  0
 20 21  1  0  0  0  0
 20 47  1  0  0  0  0
 20 48  1  0  0  0  0
 21 49  1  0  0  0  0
 22 26  1  0  0  0  0
 22 23  1  0  0  0  0
 22 50  1  0  0  0  0
 23 24  1  0  0  0  0
 23 51  1  0  0  0  0
 23 52  1  0  0  0  0
 24 25  1  0  0  0  0
 24 53  1  0  0  0  0
 24 54  1  0  0  0  0
 25 26  1  0  0  0  0
 26 55  1  0  0  0  0
 26 56  1  0  0  0  0
 27 28  1  0  0  0  0
 27 29  1  0  0  0  0
 28 57  1  0  0  0  0
 28 58  1  0  0  0  0
 28 59  1  0  0  0  0
 29 60  1  0  0  0  0
 29 61  1  0  0  0  0
M  END
> <s_m_source_file>
AV-unprocessed.smi

> <i_m_source_file_index>
21

> <i_lp_mmshare_version>
43012

> <i_f3d_flags>
0

> <s_epik_input>
W0NIM11PW0NASF0xW0NIMl1bQ0BIXShOKFtDSDNdKVtDSDJdMSlbQ0gyXU4oW0NIM10pYyhuW2NIXW4yKWMoYzIzKW5bY0hdbjNbQ0gyXVtDQEhdKFtDSDJdW09IXSlbQ0BASF00W0NIMl1bQ0gyXU9bQ0gyXTQ=

> <s_epik_cmdline>
J2VwaWtfcHl0aG9uJywgJy1waCcsICc3LjAnLCAnLXRuJywgJzgnLCAnLW1hJywgJzIwMCcsICctbWV0YWxfYmluZGluZycsICctaW1hZScsICc8aW5maWxlLm1hZT4nLCAnLW9tYWUnLCAnPG91dGZpbGUubWFlPic=

> <r_lp_tautomer_probability>
1

> <r_epik_Ionization_Penalty>
2.17574

> <r_epik_Ionization_Penalty_Charging>
0

> <r_epik_Ionization_Penalty_Neutral>
2.17574

> <r_epik_State_Penalty>
2.31336

> <r_epik_Charging_Adjusted_Penalty>
2.31336

> <i_epik_Tot_Q>
0

> <i_epik_Tot_abs_Q>
0

> <r_epik_Metal_State_Penalty>
2.31025

> <b_epik_Metal_Only>
0

> <s_lp_Force_Field>
OPLS_2005

> <r_lp_Energy>
70.2261

> <b_lp_Chiralities_Consistent>
1

> <s_lp_Variant>
AV-unprocessed.smi:21-33

> <Gold.Version>
5.8.1

> <Gold.Id.Protein>
6NUR|6NUR_protein|mol2

> <Gold.PLP.Fitness>
39.0646

> <Gold.PLP.PLP>
-37.1047

> <Gold.PLP.part.hbond>
-2.0498

> <Gold.PLP.part.metal>
0.0000

> <Gold.PLP.part.buried>
-7.8498

> <Gold.PLP.part.nonpolar>
-28.3596

> <Gold.PLP.part.repulsive>
0.3407

> <Gold.PLP.ligand.clash>
0.0000

> <Gold.PLP.ligand.torsion>
1.2104

> <Gold.PLP.Chemscore.Hbond>
1.1924

> <Gold.PLP.Chemscore.CHOScore>
0.0000

> <Gold.PLP.Chemscore.Metal>
0.0000

> <Gold.Chemscore.Hbonds>
donor molecule, donor type, donor heavy atom, donor atom, acceptor molecule, acceptor atom, score
      P1  H  6931  6943       L1    25  1.00
      P1  H 11000 11005       L1    15  0.20

> <Gold.PLP.Chemscore.Internal.Correction>
0.8034

> <Gold.Rescore>
     Score         DG    S(hbond)    S(metal)    S(lipo)     H(rot)  DE(clash)    DE(int)     intcor
     10.16     -12.70       1.31        0.00      89.91       3.00       0.19       2.35       ----

> <Gold.Chemscore.Fitness>
10.1570

> <Gold.Chemscore.DG>
-12.6964

> <Gold.Chemscore.ZeroCoef>
-5.4800

> <Gold.Chemscore.Hbond>
1.3130

> <Gold.Chemscore.Metal>
0.0000

> <Gold.Chemscore.Lipo>
89.9056

> <Gold.Chemscore.Internal_Hbond>
0.0000

> <Gold.Chemscore.DEClash>
0.1908

> <Gold.Chemscore.DEInternal>
2.3485

> <Gold.Chemscore.Rot>
3.0031

> <Gold.Chemscore.Internal.Correction>
   9.000000E+99

> <Gold.Chemscore.Hbonds>
donor molecule, donor type, donor heavy atom, donor atom, acceptor molecule, acceptor atom, score
      P1  H  6931  6943       L1    25  0.97
      P1  H 11000 11005       L1    15  0.07

> <Gold.Chemscore.Hbond.Weighted>
-4.3854

> <Gold.Chemscore.Metal.Weighted>
-0.0000

> <Gold.Chemscore.Lipo.Weighted>
-10.5190

> <Gold.Chemscore.Internal_Hbond.Weighted>
0.0000

> <Gold.Chemscore.DEClash.Weighted>
0.1908

> <Gold.Chemscore.DEInternal.Weighted>
2.3485

> <Gold.Chemscore.Rot.Weighted>
7.6880

> <Gold.Chemscore.Internal.Correction.Weighted>
   9.000000E+99

> <Gold.Protein.RotatedTorsions>
[ 6907 6896 6895 6894 ] final   32.54 input  -60.11 | X-H torsion
[ 7974 7965 7964 7962 ] final -114.75 input  175.53 | X-H torsion
[ 8008 7997 7996 7995 ] final  -91.03 input   59.86 | X-H torsion
[ 10167 10162 10161 10158 ] final   46.03 input  -65.29 | X-H torsion
[ 10718 10713 10712 10709 ] final -120.64 input   66.30 | X-H torsion
[ 10763 10752 10751 10750 ] final    9.72 input  -60.55 | X-H torsion
[ 11005 11000 10999 10996 ] final  -86.03 input  -57.11 | X-H torsion

> <Gold.Protein.ActiveResidues>
 VAL166  LYS551  ARG553  GLY616  TRP617  ASP618  TYR619  PRO620  LYS621  CYS622 
 ASP623  PHE694  ASN695  SER759  ASP760  ASP761  ALA762  ILE779  LEU786  VAL792 
 PHE793  MET794  SER795  GLU796  ALA797  LYS798  CYS799  TRP800  GLU811  SER814 

> <Gold.Protein.RotatedAtoms>
  152.0759  134.9503  160.0573 H   0  0  0  0  0  0  0  0  0  0  0  0  # atno 6907 bound_to 6896
  152.0810  133.4148  159.4509 H   0  0  0  0  0  0  0  0  0  0  0  0  # atno 6908 bound_to 6896
  150.6836  134.2901  159.4706 H   0  0  0  0  0  0  0  0  0  0  0  0  # atno 6909 bound_to 6896
  145.1165  140.8643  143.3839 H   0  0  0  0  0  0  0  0  0  0  0  0  # atno 7974 bound_to 7965
  154.7058  140.0524  157.0502 H   0  0  0  0  0  0  0  0  0  0  0  0  # atno 8008 bound_to 7997
  155.0622  140.3190  155.4638 H   0  0  0  0  0  0  0  0  0  0  0  0  # atno 8009 bound_to 7997
  156.2774  140.2096  156.5749 H   0  0  0  0  0  0  0  0  0  0  0  0  # atno 8010 bound_to 7997
  140.3181  144.2739  150.6187 H   0  0  0  0  0  0  0  0  0  0  0  0  # atno 10167 bound_to 10162
  156.1274  130.6370  150.9566 H   0  0  0  0  0  0  0  0  0  0  0  0  # atno 10718 bound_to 10713
  153.2109  135.6869  153.8115 H   0  0  0  0  0  0  0  0  0  0  0  0  # atno 10763 bound_to 10752
  153.7348  135.3247  155.3294 H   0  0  0  0  0  0  0  0  0  0  0  0  # atno 10764 bound_to 10752
  154.8221  135.4644  154.0916 H   0  0  0  0  0  0  0  0  0  0  0  0  # atno 10765 bound_to 10752
  141.1635  133.7432  156.9101 H   0  0  0  0  0  0  0  0  0  0  0  0  # atno 11005 bound_to 11000
  145.0788  139.2975  143.5794 LP  0  0  0  0  0  0  0  0  0  0  0  0  # atno 17320 bound_to 7965
  146.3523  140.0287  142.8652 LP  0  0  0  0  0  0  0  0  0  0  0  0  # atno 17321 bound_to 7965
  140.5508  143.2207  151.7930 LP  0  0  0  0  0  0  0  0  0  0  0  0  # atno 17342 bound_to 10162
  139.4880  144.4478  151.9689 LP  0  0  0  0  0  0  0  0  0  0  0  0  # atno 17343 bound_to 10162
  157.6455  131.0904  150.8162 LP  0  0  0  0  0  0  0  0  0  0  0  0  # atno 17370 bound_to 10713
  156.8251  130.4997  149.5338 LP  0  0  0  0  0  0  0  0  0  0  0  0  # atno 17371 bound_to 10713
  140.1523  134.9222  157.2608 LP  0  0  0  0  0  0  0  0  0  0  0  0  # atno 17394 bound_to 11000
  140.2709  134.3462  155.7374 LP  0  0  0  0  0  0  0  0  0  0  0  0  # atno 17395 bound_to 11000

$$$$
