AV-unprocessed.smi:255|AV-procd|sdf|1953|dock3
  -GOLD-   2262021 93D 1   1.00000     0.00000
 Structure written by MMmdl.
 44 47  0  0  0  0  0  0  0  0  1 V2000
  142.6311  134.2195  154.0263 O   0  0  0  0  0  0  0  0  0  0  0  0
  142.4709  134.4196  152.6378 C   0  0  0  0  0  0  0  0  0  0  0  0
  143.7804  134.1003  151.8919 C   0  0  2  0  0  0  0  0  0  0  0  0
  143.8334  132.6696  151.3558 C   0  0  0  0  0  0  0  0  0  0  0  0
  145.3272  132.4863  151.1145 C   0  0  2  0  0  0  0  0  0  0  0  0
  145.6900  131.2040  151.1038 F   0  0  0  0  0  0  0  0  0  0  0  0
  145.9782  133.2740  152.2555 C   0  0  0  0  0  0  0  0  0  0  0  0
  144.9588  134.1965  152.7509 N   0  0  0  0  0  0  0  0  0  0  0  0
  145.3859  135.4537  153.0007 C   0  0  0  0  0  0  0  0  0  0  0  0
  144.8074  136.5104  152.3714 N   0  0  0  0  0  0  0  0  0  0  0  0
  145.2237  137.7524  152.6373 C   0  0  0  0  0  0  0  0  0  0  0  0
  146.1813  138.1503  153.4785 N   0  0  0  0  0  0  0  0  0  0  0  0
  146.7615  137.0887  154.1094 C   0  0  0  0  0  0  0  0  0  0  0  0
  146.4227  135.7188  153.9320 C   0  0  0  0  0  0  0  0  0  0  0  0
  147.2124  134.9200  154.7479 N   0  0  0  0  0  0  0  0  0  0  0  0
  147.9817  135.7711  155.3707 C   0  0  0  0  0  0  0  0  0  0  0  0
  147.7861  137.0942  155.0403 N   0  0  0  0  0  0  0  0  0  0  0  0
  148.5017  138.2414  155.5789 C   0  0  0  0  0  0  0  0  0  0  0  0
  149.4344  138.9303  154.5529 C   0  0  2  0  0  0  0  0  0  0  0  0
  148.6717  139.2987  153.4176 O   0  0  0  0  0  0  0  0  0  0  0  0
  150.5822  138.0220  154.1066 C   0  0  0  0  0  0  0  0  0  0  0  0
  151.8027  138.6293  154.7874 C   0  0  0  0  0  0  0  0  0  0  0  0
  151.5196  140.0163  154.7439 O   0  0  0  0  0  0  0  0  0  0  0  0
  150.1562  140.1753  155.1085 C   0  0  0  0  0  0  0  0  0  0  0  0
  143.8875  134.7747  151.0397 H   0  0  0  0  0  0  0  0  0  0  0  0
  145.6074  132.9179  150.1527 H   0  0  0  0  0  0  0  0  0  0  0  0
  142.7507  133.2956  154.1848 H   0  0  0  0  0  0  0  0  0  0  0  0
  141.6361  133.8284  152.2593 H   0  0  0  0  0  0  0  0  0  0  0  0
  142.2093  135.4687  152.4973 H   0  0  0  0  0  0  0  0  0  0  0  0
  143.4848  131.9657  152.1135 H   0  0  0  0  0  0  0  0  0  0  0  0
  143.2353  132.5276  150.4551 H   0  0  0  0  0  0  0  0  0  0  0  0
  146.2429  132.6042  153.0743 H   0  0  0  0  0  0  0  0  0  0  0  0
  146.8947  133.7668  151.9277 H   0  0  0  0  0  0  0  0  0  0  0  0
  144.7165  138.5402  152.1001 H   0  0  0  0  0  0  0  0  0  0  0  0
  148.7226  135.4549  156.0906 H   0  0  0  0  0  0  0  0  0  0  0  0
  147.7688  138.9564  155.9550 H   0  0  0  0  0  0  0  0  0  0  0  0
  149.0738  137.9089  156.4463 H   0  0  0  0  0  0  0  0  0  0  0  0
  149.2669  139.5352  152.7226 H   0  0  0  0  0  0  0  0  0  0  0  0
  150.4369  136.9736  154.3701 H   0  0  0  0  0  0  0  0  0  0  0  0
  150.7225  138.0702  153.0253 H   0  0  0  0  0  0  0  0  0  0  0  0
  151.8801  138.2990  155.8246 H   0  0  0  0  0  0  0  0  0  0  0  0
  152.7352  138.3906  154.2758 H   0  0  0  0  0  0  0  0  0  0  0  0
  149.7519  141.1180  154.7379 H   0  0  0  0  0  0  0  0  0  0  0  0
  150.1123  140.2046  156.1972 H   0  0  0  0  0  0  0  0  0  0  0  0
  1  2  1  0  0  0  0
  1 27  1  0  0  0  0
  2  3  1  0  0  0  0
  2 28  1  0  0  0  0
  2 29  1  0  0  0  0
  3 25  1  0  0  0  0
  3  8  1  0  0  0  0
  3  4  1  0  0  0  0
  4  5  1  0  0  0  0
  4 30  1  0  0  0  0
  4 31  1  0  0  0  0
  5 26  1  0  0  0  0
  5  6  1  0  0  0  0
  5  7  1  0  0  0  0
  7  8  1  0  0  0  0
  7 32  1  0  0  0  0
  7 33  1  0  0  0  0
  8  9  1  0  0  0  0
  9 14  1  0  0  0  0
  9 10  2  0  0  0  0
 10 11  1  0  0  0  0
 11 12  2  0  0  0  0
 11 34  1  0  0  0  0
 12 13  1  0  0  0  0
 13 17  1  0  0  0  0
 13 14  2  0  0  0  0
 14 15  1  0  0  0  0
 15 16  2  0  0  0  0
 16 17  1  0  0  0  0
 16 35  1  0  0  0  0
 17 18  1  0  0  0  0
 18 19  1  0  0  0  0
 18 36  1  0  0  0  0
 18 37  1  0  0  0  0
 19 24  1  0  0  0  0
 19 20  1  0  0  0  0
 19 21  1  0  0  0  0
 20 38  1  0  0  0  0
 21 22  1  0  0  0  0
 21 39  1  0  0  0  0
 21 40  1  0  0  0  0
 22 23  1  0  0  0  0
 22 41  1  0  0  0  0
 22 42  1  0  0  0  0
 23 24  1  0  0  0  0
 24 43  1  0  0  0  0
 24 44  1  0  0  0  0
M  END
> <s_m_source_file>
AV-unprocessed.smi

> <i_m_source_file_index>
255

> <i_lp_mmshare_version>
43012

> <i_f3d_flags>
0

> <s_epik_input>
W09IXVtDSDJdW0NAQEhdMVtDSDJdW0NASF0oRilbQ0gyXU4xYyhuW2NIXW4yKWMoYzIzKW5bY0hdbjNbQ0gyXVtDQEBdNChbT0hdKVtDSDJdW0NIMl1PW0NIMl00

> <s_epik_cmdline>
J2VwaWtfcHl0aG9uJywgJy1waCcsICc3LjAnLCAnLXRuJywgJzgnLCAnLW1hJywgJzIwMCcsICctbWV0YWxfYmluZGluZycsICctaW1hZScsICc8aW5maWxlLm1hZT4nLCAnLW9tYWUnLCAnPG91dGZpbGUubWFlPic=

> <r_lp_tautomer_probability>
1

> <r_epik_Ionization_Penalty>
0.0058098

> <r_epik_Ionization_Penalty_Charging>
0

> <r_epik_Ionization_Penalty_Neutral>
0.0058098

> <r_epik_State_Penalty>
0.00411166

> <r_epik_Charging_Adjusted_Penalty>
0.00411166

> <i_epik_Tot_Q>
0

> <i_epik_Tot_abs_Q>
0

> <r_epik_Metal_State_Penalty>
-0

> <b_epik_Metal_Only>
0

> <s_lp_Force_Field>
OPLS_2005

> <r_lp_Energy>
52.96

> <b_lp_Chiralities_Consistent>
1

> <s_lp_Variant>
AV-unprocessed.smi:255-5

> <Gold.Version>
5.8.1

> <Gold.Id.Protein>
6NUR|6NUR_protein|mol2

> <Gold.PLP.Fitness>
46.1579

> <Gold.PLP.PLP>
-32.3649

> <Gold.PLP.part.hbond>
-2.9256

> <Gold.PLP.part.metal>
0.0000

> <Gold.PLP.part.buried>
-4.3513

> <Gold.PLP.part.nonpolar>
-25.7746

> <Gold.PLP.part.repulsive>
0.5946

> <Gold.PLP.ligand.clash>
0.0000

> <Gold.PLP.ligand.torsion>
0.6361

> <Gold.PLP.Chemscore.Hbond>
2.9920

> <Gold.PLP.Chemscore.CHOScore>
2.0000

> <Gold.PLP.Chemscore.Metal>
0.0000

> <Gold.Chemscore.Hbonds>
donor molecule, donor type, donor heavy atom, donor atom, acceptor molecule, acceptor atom, score
      L1  H     1    27       P1 10957  1.00
      L1  H    20    38       P1  7957  1.00
      P1  H  7989  7998       L1    23  0.94
      L1  C    11    34       P1 10171  1.00
      L1  C    11    34       P1 10175  1.00

> <Gold.PLP.Chemscore.Internal.Correction>
0.0892

> <Gold.Rescore>
     Score         DG    S(hbond)    S(metal)    S(lipo)     H(rot)  DE(clash)    DE(int)     intcor
     12.03     -13.94       2.88        0.00      62.89       3.33       0.07       1.83       ----

> <Gold.Chemscore.Fitness>
12.0327

> <Gold.Chemscore.DG>
-13.9368

> <Gold.Chemscore.ZeroCoef>
-5.4800

> <Gold.Chemscore.Hbond>
2.8792

> <Gold.Chemscore.Metal>
0.0000

> <Gold.Chemscore.Lipo>
62.8893

> <Gold.Chemscore.Internal_Hbond>
0.0000

> <Gold.Chemscore.DEClash>
0.0730

> <Gold.Chemscore.DEInternal>
1.8310

> <Gold.Chemscore.Rot>
3.3273

> <Gold.Chemscore.Internal.Correction>
   9.000000E+99

> <Gold.Chemscore.Hbonds>
donor molecule, donor type, donor heavy atom, donor atom, acceptor molecule, acceptor atom, score
      L1  H     1    27       P1 10957  1.00
      L1  H    20    38       P1  7957  0.97
      P1  H  7989  7998       L1    23  0.40

> <Gold.Chemscore.Hbond.Weighted>
-9.6167

> <Gold.Chemscore.Metal.Weighted>
-0.0000

> <Gold.Chemscore.Lipo.Weighted>
-7.3581

> <Gold.Chemscore.Internal_Hbond.Weighted>
0.0000

> <Gold.Chemscore.DEClash.Weighted>
0.0730

> <Gold.Chemscore.DEInternal.Weighted>
1.8310

> <Gold.Chemscore.Rot.Weighted>
8.5179

> <Gold.Chemscore.Internal.Correction.Weighted>
   9.000000E+99

> <Gold.Protein.RotatedTorsions>
[ 6907 6896 6895 6894 ] final  173.36 input  -60.11 | X-H torsion
[ 7974 7965 7964 7962 ] final -174.88 input  175.53 | X-H torsion
[ 8008 7997 7996 7995 ] final  -87.86 input   59.86 | X-H torsion
[ 10167 10162 10161 10158 ] final -141.78 input  -65.29 | X-H torsion
[ 10718 10713 10712 10709 ] final  173.40 input   66.30 | X-H torsion
[ 10763 10752 10751 10750 ] final  106.05 input  -60.55 | X-H torsion
[ 11005 11000 10999 10996 ] final  167.39 input  -57.11 | X-H torsion

> <Gold.Protein.ActiveResidues>
 VAL166  LYS551  ARG553  GLY616  TRP617  ASP618  TYR619  PRO620  LYS621  CYS622 
 ASP623  PHE694  ASN695  SER759  ASP760  ASP761  ALA762  ILE779  LEU786  VAL792 
 PHE793  MET794  SER795  GLU796  ALA797  LYS798  CYS799  TRP800  GLU811  SER814 

> <Gold.Protein.RotatedAtoms>
  151.7695  133.3340  159.3440 H   0  0  0  0  0  0  0  0  0  0  0  0  # atno 6907 bound_to 6896
  150.7467  134.6031  159.6056 H   0  0  0  0  0  0  0  0  0  0  0  0  # atno 6908 bound_to 6896
  152.3351  134.7211  160.0330 H   0  0  0  0  0  0  0  0  0  0  0  0  # atno 6909 bound_to 6896
  144.7130  140.1405  143.6392 H   0  0  0  0  0  0  0  0  0  0  0  0  # atno 7974 bound_to 7965
  154.6681  140.0560  157.0136 H   0  0  0  0  0  0  0  0  0  0  0  0  # atno 8008 bound_to 7997
  155.1129  140.3240  155.4498 H   0  0  0  0  0  0  0  0  0  0  0  0  # atno 8009 bound_to 7997
  156.2646  140.2011  156.6253 H   0  0  0  0  0  0  0  0  0  0  0  0  # atno 8010 bound_to 7997
  139.8151  143.7649  152.2665 H   0  0  0  0  0  0  0  0  0  0  0  0  # atno 10167 bound_to 10162
  156.9649  131.0072  151.2919 H   0  0  0  0  0  0  0  0  0  0  0  0  # atno 10718 bound_to 10713
  153.3877  135.3890  155.1901 H   0  0  0  0  0  0  0  0  0  0  0  0  # atno 10763 bound_to 10752
  154.8715  135.3741  154.4777 H   0  0  0  0  0  0  0  0  0  0  0  0  # atno 10764 bound_to 10752
  153.5260  135.7086  153.5768 H   0  0  0  0  0  0  0  0  0  0  0  0  # atno 10765 bound_to 10752
  140.2764  134.7786  157.3720 H   0  0  0  0  0  0  0  0  0  0  0  0  # atno 11005 bound_to 11000
  145.9206  139.2543  143.1383 LP  0  0  0  0  0  0  0  0  0  0  0  0  # atno 17320 bound_to 7965
  145.9624  140.8825  143.0204 LP  0  0  0  0  0  0  0  0  0  0  0  0  # atno 17321 bound_to 7965
  139.7810  144.7444  151.0088 LP  0  0  0  0  0  0  0  0  0  0  0  0  # atno 17342 bound_to 10162
  140.7816  143.4542  151.0370 LP  0  0  0  0  0  0  0  0  0  0  0  0  # atno 17343 bound_to 10162
  157.5632  130.8260  149.8294 LP  0  0  0  0  0  0  0  0  0  0  0  0  # atno 17370 bound_to 10713
  156.0307  130.3765  150.1697 LP  0  0  0  0  0  0  0  0  0  0  0  0  # atno 17371 bound_to 10713
  140.1325  134.5077  155.8094 LP  0  0  0  0  0  0  0  0  0  0  0  0  # atno 17394 bound_to 11000
  141.2170  133.6795  156.7065 LP  0  0  0  0  0  0  0  0  0  0  0  0  # atno 17395 bound_to 11000

$$$$
