AV-unprocessed.smi:102|AV-procd|sdf|975|dock4
  -GOLD-   2262017533D 1   1.00000     0.00000
 Structure written by MMmdl.
 43 44  0  0  0  0  0  0  0  0  2 V2000
  151.5684  144.8528  159.7762 C   0  0  0  0  0  0  0  0  0  0  0  0
  151.5472  143.3301  159.7571 C   0  0  0  0  0  0  0  0  0  0  0  0
  151.4701  142.6740  160.7960 O   0  0  0  0  0  0  0  0  0  0  0  0
  151.6209  142.8329  158.5137 O   0  0  0  0  0  0  0  0  0  0  0  0
  151.7108  141.4304  158.3262 C   0  0  0  0  0  0  0  0  0  0  0  0
  150.9066  141.0277  157.0825 C   0  0  2  0  0  0  0  0  0  0  0  0
  149.5114  140.9973  157.3591 O   0  0  0  0  0  0  0  0  0  0  0  0
  148.8723  140.1860  156.4176 C   0  0  2  0  0  0  0  0  0  0  0  0
  147.8643  139.3129  157.1365 N   0  0  0  0  0  0  0  0  0  0  0  0
  148.2851  138.3319  158.0184 C   0  0  0  0  0  0  0  0  0  0  0  0
  147.4018  137.5305  158.6469 C   0  0  0  0  0  0  0  0  0  0  0  0
  147.8416  136.5852  159.4951 F   0  0  0  0  0  0  0  0  0  0  0  0
  145.9712  137.6955  158.3967 C   0  0  0  0  0  0  0  0  0  0  0  0
  145.1691  136.9654  158.9767 O   0  0  0  0  0  0  0  0  0  0  0  0
  145.5852  138.6651  157.5172 N   0  5  0  0  0  0  0  0  0  0  0  0
  146.4765  139.4724  156.8709 C   0  0  0  0  0  0  0  0  0  0  0  0
  146.1379  140.3289  156.0541 O   0  0  0  0  0  0  0  0  0  0  0  0
  149.9617  139.3660  155.6929 C   0  0  2  0  0  0  0  0  0  0  0  0
  149.6361  137.9845  155.5608 O   0  0  0  0  0  0  0  0  0  0  0  0
  150.4658  137.1498  154.9164 C   0  0  0  0  0  0  0  0  0  0  0  0
  150.0242  135.6972  155.0301 C   0  0  0  0  0  0  0  0  0  0  0  0
  151.4835  137.4686  154.3014 O   0  0  0  0  0  0  0  0  0  0  0  0
  151.1945  139.6198  156.5561 C   0  0  2  0  0  0  0  0  0  0  0  0
  151.2656  138.7150  157.6575 O   0  0  0  0  0  0  0  0  0  0  0  0
  152.4204  138.5126  158.3152 C   0  0  0  0  0  0  0  0  0  0  0  0
  152.3010  137.4278  159.3775 C   0  0  0  0  0  0  0  0  0  0  0  0
  153.4824  139.1027  158.1186 O   0  0  0  0  0  0  0  0  0  0  0  0
  150.7868  145.2512  159.1290 H   0  0  0  0  0  0  0  0  0  0  0  0
  152.5320  145.2218  159.4249 H   0  0  0  0  0  0  0  0  0  0  0  0
  151.4028  145.2258  160.7872 H   0  0  0  0  0  0  0  0  0  0  0  0
  152.7593  141.1614  158.1912 H   0  0  0  0  0  0  0  0  0  0  0  0
  151.3452  140.9000  159.2069 H   0  0  0  0  0  0  0  0  0  0  0  0
  151.0851  141.7423  156.2770 H   0  0  0  0  0  0  0  0  0  0  0  0
  148.3040  140.8269  155.7423 H   0  0  0  0  0  0  0  0  0  0  0  0
  149.3384  138.1942  158.2111 H   0  0  0  0  0  0  0  0  0  0  0  0
  150.1006  139.8304  154.7153 H   0  0  0  0  0  0  0  0  0  0  0  0
  149.0018  135.5840  154.6689 H   0  0  0  0  0  0  0  0  0  0  0  0
  150.0631  135.3714  156.0696 H   0  0  0  0  0  0  0  0  0  0  0  0
  150.6737  135.0510  154.4395 H   0  0  0  0  0  0  0  0  0  0  0  0
  152.1123  139.6046  155.9667 H   0  0  0  0  0  0  0  0  0  0  0  0
  151.3684  136.8741  159.2647 H   0  0  0  0  0  0  0  0  0  0  0  0
  152.3222  137.8715  160.3725 H   0  0  0  0  0  0  0  0  0  0  0  0
  153.1301  136.7250  159.2932 H   0  0  0  0  0  0  0  0  0  0  0  0
  1  2  1  0  0  0  0
  1 28  1  0  0  0  0
  1 29  1  0  0  0  0
  1 30  1  0  0  0  0
  2  3  2  0  0  0  0
  2  4  1  0  0  0  0
  4  5  1  0  0  0  0
  5  6  1  0  0  0  0
  5 31  1  0  0  0  0
  5 32  1  0  0  0  0
  6 23  1  0  0  0  0
  6  7  1  0  0  0  0
  6 33  1  0  0  0  0
  7  8  1  0  0  0  0
  8  9  1  0  0  0  0
  8 18  1  0  0  0  0
  8 34  1  0  0  0  0
  9 16  1  0  0  0  0
  9 10  1  0  0  0  0
 10 11  2  0  0  0  0
 10 35  1  0  0  0  0
 11 12  1  0  0  0  0
 11 13  1  0  0  0  0
 13 14  2  0  0  0  0
 13 15  1  0  0  0  0
 15 16  1  0  0  0  0
 16 17  2  0  0  0  0
 18 19  1  0  0  0  0
 18 23  1  0  0  0  0
 18 36  1  0  0  0  0
 19 20  1  0  0  0  0
 20 21  1  0  0  0  0
 20 22  2  0  0  0  0
 21 37  1  0  0  0  0
 21 38  1  0  0  0  0
 21 39  1  0  0  0  0
 23 24  1  0  0  0  0
 23 40  1  0  0  0  0
 24 25  1  0  0  0  0
 25 26  1  0  0  0  0
 25 27  2  0  0  0  0
 26 41  1  0  0  0  0
 26 42  1  0  0  0  0
 26 43  1  0  0  0  0
M  CHG  1  15  -1
M  END
> <s_m_source_file>
AV-unprocessed.smi

> <i_m_source_file_index>
102

> <i_lp_mmshare_version>
43012

> <i_f3d_flags>
0

> <s_epik_input>
W0NIM11DKD1PKU9bQ0gyXVtDQEBIXTFPW0NASF0oW0NAQEhdKE9DKD1PKVtDSDNdKVtDQEhdMU9DKD1PKVtDSDNdKW4yW2NIXWMoRiljKD1PKVtuSF1jMj1P

> <s_epik_cmdline>
J2VwaWtfcHl0aG9uJywgJy1waCcsICc3LjAnLCAnLXRuJywgJzgnLCAnLW1hJywgJzIwMCcsICctbWV0YWxfYmluZGluZycsICctaW1hZScsICc8aW5maWxlLm1hZT4nLCAnLW9tYWUnLCAnPG91dGZpbGUubWFlPic=

> <r_epik_Ionization_Penalty>
1.40304

> <r_epik_Ionization_Penalty_Charging>
1.43915e-08

> <r_epik_Ionization_Penalty_Neutral>
1.40304

> <r_epik_State_Penalty>
1.48536

> <r_epik_Charging_Adjusted_Penalty>
1.48536

> <i_epik_Tot_Q>
-1

> <i_epik_Tot_abs_Q>
1

> <r_epik_Metal_State_Penalty>
0.00663881

> <b_epik_Metal_Only>
0

> <s_epik_Chemistry_Notes>
This compound has an ester and may undergo hydrolysis at high or low pH. This compound contains an acetal/aminal-like group ( X-CH(R)-Y where X, Y are N, S, or O) that may be acid/base labile, releasing an aldehyde.

> <s_lp_Force_Field>
OPLS_2005

> <r_lp_Energy>
23.9264

> <b_lp_Chiralities_Consistent>
1

> <s_lp_Variant>
AV-unprocessed.smi:102-31

> <Gold.Version>
5.8.1

> <Gold.Id.Protein>
6NUR|6NUR_protein|mol2

> <Gold.PLP.Fitness>
35.5056

> <Gold.PLP.PLP>
-31.2090

> <Gold.PLP.part.hbond>
-2.1609

> <Gold.PLP.part.metal>
0.0000

> <Gold.PLP.part.buried>
-6.8610

> <Gold.PLP.part.nonpolar>
-22.6460

> <Gold.PLP.part.repulsive>
0.3123

> <Gold.PLP.ligand.clash>
0.0000

> <Gold.PLP.ligand.torsion>
0.8060

> <Gold.PLP.Chemscore.Hbond>
1.9120

> <Gold.PLP.Chemscore.CHOScore>
0.0000

> <Gold.PLP.Chemscore.Metal>
0.0000

> <Gold.Chemscore.Hbonds>
donor molecule, donor type, donor heavy atom, donor atom, acceptor molecule, acceptor atom, score
      P1  H  6933  6945       L1     3  0.12
      P1  H  7997  8009       L1    27  0.80
      P1  H 10752 10765       L1    22  0.29

> <Gold.PLP.Chemscore.Internal.Correction>
0.1727

> <Gold.Rescore>
     Score         DG    S(hbond)    S(metal)    S(lipo)     H(rot)  DE(clash)    DE(int)     intcor
      4.84      -7.89       2.02        0.00      50.47       4.00       0.08       2.98       ----

> <Gold.Chemscore.Fitness>
4.8417

> <Gold.Chemscore.DG>
-7.8949

> <Gold.Chemscore.ZeroCoef>
-5.4800

> <Gold.Chemscore.Hbond>
2.0173

> <Gold.Chemscore.Metal>
0.0000

> <Gold.Chemscore.Lipo>
50.4655

> <Gold.Chemscore.Internal_Hbond>
0.0000

> <Gold.Chemscore.DEClash>
0.0756

> <Gold.Chemscore.DEInternal>
2.9776

> <Gold.Chemscore.Rot>
3.9951

> <Gold.Chemscore.Internal.Correction>
   9.000000E+99

> <Gold.Chemscore.Hbonds>
donor molecule, donor type, donor heavy atom, donor atom, acceptor molecule, acceptor atom, score
      P1  H  6933  6945       L1     3  0.12
      P1  H  7997  8009       L1    27  0.78
      P1  H 10752 10765       L1    22  0.21

> <Gold.Chemscore.Hbond.Weighted>
-6.7379

> <Gold.Chemscore.Metal.Weighted>
-0.0000

> <Gold.Chemscore.Lipo.Weighted>
-5.9045

> <Gold.Chemscore.Internal_Hbond.Weighted>
0.0000

> <Gold.Chemscore.DEClash.Weighted>
0.0756

> <Gold.Chemscore.DEInternal.Weighted>
2.9776

> <Gold.Chemscore.Rot.Weighted>
10.2274

> <Gold.Chemscore.Internal.Correction.Weighted>
   9.000000E+99

> <Gold.Protein.RotatedTorsions>
[ 6907 6896 6895 6894 ] final  -20.29 input  -60.11 | X-H torsion
[ 7974 7965 7964 7962 ] final   51.41 input  175.53 | X-H torsion
[ 8008 7997 7996 7995 ] final  123.05 input   59.86 | X-H torsion
[ 10167 10162 10161 10158 ] final   99.47 input  -65.29 | X-H torsion
[ 10718 10713 10712 10709 ] final  -69.45 input   66.30 | X-H torsion
[ 10763 10752 10751 10750 ] final  158.46 input  -60.55 | X-H torsion
[ 11005 11000 10999 10996 ] final  177.30 input  -57.11 | X-H torsion

> <Gold.Protein.ActiveResidues>
 VAL166  LYS551  ARG553  GLY616  TRP617  ASP618  TYR619  PRO620  LYS621  CYS622 
 ASP623  PHE694  ASN695  SER759  ASP760  ASP761  ALA762  ILE779  LEU786  VAL792 
 PHE793  MET794  SER795  GLU796  ALA797  LYS798  CYS799  TRP800  GLU811  SER814 

> <Gold.Protein.RotatedAtoms>
  151.2503  135.0620  159.9059 H   0  0  0  0  0  0  0  0  0  0  0  0  # atno 6907 bound_to 6896
  152.5381  134.0339  159.8047 H   0  0  0  0  0  0  0  0  0  0  0  0  # atno 6908 bound_to 6896
  151.0546  133.5546  159.2670 H   0  0  0  0  0  0  0  0  0  0  0  0  # atno 6909 bound_to 6896
  145.9915  139.4344  143.0070 H   0  0  0  0  0  0  0  0  0  0  0  0  # atno 7974 bound_to 7965
  156.2751  140.2771  156.1566 H   0  0  0  0  0  0  0  0  0  0  0  0  # atno 8008 bound_to 7997
  155.0798  140.0387  157.2653 H   0  0  0  0  0  0  0  0  0  0  0  0  # atno 8009 bound_to 7997
  154.6973  140.2642  155.6759 H   0  0  0  0  0  0  0  0  0  0  0  0  # atno 8010 bound_to 7997
  139.7615  144.6953  151.0286 H   0  0  0  0  0  0  0  0  0  0  0  0  # atno 10167 bound_to 10162
  156.0455  130.4313  150.2149 H   0  0  0  0  0  0  0  0  0  0  0  0  # atno 10718 bound_to 10713
  154.2164  135.2784  155.2940 H   0  0  0  0  0  0  0  0  0  0  0  0  # atno 10763 bound_to 10752
  154.5737  135.5610  153.7122 H   0  0  0  0  0  0  0  0  0  0  0  0  # atno 10764 bound_to 10752
  153.0052  135.6327  154.2304 H   0  0  0  0  0  0  0  0  0  0  0  0  # atno 10765 bound_to 10752
  140.3826  134.6933  157.4460 H   0  0  0  0  0  0  0  0  0  0  0  0  # atno 11005 bound_to 11000
  145.7622  140.9930  143.1194 LP  0  0  0  0  0  0  0  0  0  0  0  0  # atno 17320 bound_to 7965
  144.6890  139.9344  143.7473 LP  0  0  0  0  0  0  0  0  0  0  0  0  # atno 17321 bound_to 7965
  140.7807  143.4692  151.0170 LP  0  0  0  0  0  0  0  0  0  0  0  0  # atno 17342 bound_to 10162
  139.8378  143.7604  152.3180 LP  0  0  0  0  0  0  0  0  0  0  0  0  # atno 17343 bound_to 10162
  157.0239  130.9987  151.3331 LP  0  0  0  0  0  0  0  0  0  0  0  0  # atno 17370 bound_to 10713
  157.5324  130.8067  149.7933 LP  0  0  0  0  0  0  0  0  0  0  0  0  # atno 17371 bound_to 10713
  140.0467  134.6189  155.8912 LP  0  0  0  0  0  0  0  0  0  0  0  0  # atno 17394 bound_to 11000
  141.1918  133.6573  156.5474 LP  0  0  0  0  0  0  0  0  0  0  0  0  # atno 17395 bound_to 11000

$$$$
