AV-unprocessed.smi:1056|AV-procd|sdf|4648|dock1
  -GOLD-   22720 3153D 1   1.00000     0.00000
 Structure written by MMmdl.
 45 47  0  0  0  0  0  0  0  0  4 V2000
  152.4276  143.7238  161.4188 C   0  0  0  0  0  0  0  0  0  0  0  0
  152.2104  142.9361  160.1379 C   0  0  0  0  0  0  0  0  0  0  0  0
  151.3672  143.4830  159.1445 C   0  0  0  0  0  0  0  0  0  0  0  0
  151.1878  142.7387  157.9845 C   0  0  0  0  0  0  0  0  0  0  0  0
  150.4297  142.9977  156.8408 N   0  3  0  0  0  0  0  0  0  0  0  0
  150.5663  141.9667  155.9616 C   0  0  0  0  0  0  0  0  0  0  0  0
  151.4012  141.0523  156.5263 N   0  0  0  0  0  0  0  0  0  0  0  0
  151.8818  139.7671  155.9966 C   0  0  0  0  0  0  0  0  0  0  0  0
  150.7832  138.9611  155.2744 C   0  0  2  0  0  0  0  0  0  0  0  0
  150.4334  139.6159  154.0696 O   0  0  0  0  0  0  0  0  0  0  0  0
  149.5219  138.8194  156.1512 C   0  0  0  0  0  0  0  0  0  0  0  0
  149.5818  137.6488  157.0624 N   0  3  1  0  0  0  0  0  0  0  0  0
  148.6630  137.7502  158.2267 C   0  0  0  0  0  0  0  0  0  0  0  0
  149.0048  136.6695  159.2703 C   0  0  0  0  0  0  0  0  0  0  0  0
  149.1633  135.3635  158.6193 N   0  5  0  0  0  0  0  0  0  0  0  0
  149.4572  135.1409  157.3000 C   0  0  0  0  0  0  0  0  0  0  0  0
  149.7166  134.0477  156.8018 O   0  0  0  0  0  0  0  0  0  0  0  0
  149.4116  136.3587  156.3380 C   0  0  0  0  0  0  0  0  0  0  0  0
  151.8143  141.4921  157.7906 C   0  0  0  0  0  0  0  0  0  0  0  0
  152.6481  140.9394  158.7602 C   0  0  0  0  0  0  0  0  0  0  0  0
  152.8425  141.6802  159.9480 C   0  0  0  0  0  0  0  0  0  0  0  0
  153.7461  141.1010  161.0233 C   0  0  0  0  0  0  0  0  0  0  0  0
  151.8478  144.6472  161.4227 H   0  0  0  0  0  0  0  0  0  0  0  0
  153.4790  143.9899  161.5296 H   0  0  0  0  0  0  0  0  0  0  0  0
  152.1248  143.1377  162.2867 H   0  0  0  0  0  0  0  0  0  0  0  0
  150.8828  144.4387  159.2823 H   0  0  0  0  0  0  0  0  0  0  0  0
  150.0984  141.8910  154.9906 H   0  0  0  0  0  0  0  0  0  0  0  0
  152.6901  139.9938  155.3002 H   0  0  0  0  0  0  0  0  0  0  0  0
  152.3321  139.1904  156.8051 H   0  0  0  0  0  0  0  0  0  0  0  0
  151.1875  137.9813  155.0215 H   0  0  0  0  0  0  0  0  0  0  0  0
  149.5310  139.8923  154.1208 H   0  0  0  0  0  0  0  0  0  0  0  0
  149.3633  139.7206  156.7454 H   0  0  0  0  0  0  0  0  0  0  0  0
  148.6533  138.7331  155.4960 H   0  0  0  0  0  0  0  0  0  0  0  0
  148.7310  138.7300  158.6975 H   0  0  0  0  0  0  0  0  0  0  0  0
  147.6322  137.6383  157.8862 H   0  0  0  0  0  0  0  0  0  0  0  0
  149.9236  136.9601  159.7800 H   0  0  0  0  0  0  0  0  0  0  0  0
  148.2314  136.6519  160.0378 H   0  0  0  0  0  0  0  0  0  0  0  0
  148.4575  136.3521  155.8088 H   0  0  0  0  0  0  0  0  0  0  0  0
  150.1996  136.2516  155.5914 H   0  0  0  0  0  0  0  0  0  0  0  0
  153.1255  139.9811  158.6202 H   0  0  0  0  0  0  0  0  0  0  0  0
  154.1692  140.1440  160.7165 H   0  0  0  0  0  0  0  0  0  0  0  0
  153.1877  140.9381  161.9453 H   0  0  0  0  0  0  0  0  0  0  0  0
  154.5740  141.7784  161.2335 H   0  0  0  0  0  0  0  0  0  0  0  0
  150.5164  137.6213  157.4430 H   0  0  0  0  0  0  0  0  0  0  0  0
  149.8619  143.8181  156.6699 H   0  0  0  0  0  0  0  0  0  0  0  0
  1  2  1  0  0  0  0
  1 23  1  0  0  0  0
  1 24  1  0  0  0  0
  1 25  1  0  0  0  0
  2 21  1  0  0  0  0
  2  3  2  0  0  0  0
  3  4  1  0  0  0  0
  3 26  1  0  0  0  0
  4 19  2  0  0  0  0
  4  5  1  0  0  0  0
  5  6  2  0  0  0  0
  5 45  1  0  0  0  0
  6  7  1  0  0  0  0
  6 27  1  0  0  0  0
  7  8  1  0  0  0  0
  7 19  1  0  0  0  0
  8  9  1  0  0  0  0
  8 28  1  0  0  0  0
  8 29  1  0  0  0  0
  9 10  1  0  0  0  0
  9 11  1  0  0  0  0
  9 30  1  0  0  0  0
 10 31  1  0  0  0  0
 11 12  1  0  0  0  0
 11 32  1  0  0  0  0
 11 33  1  0  0  0  0
 12 18  1  0  0  0  0
 12 13  1  0  0  0  0
 12 44  1  0  0  0  0
 13 14  1  0  0  0  0
 13 34  1  0  0  0  0
 13 35  1  0  0  0  0
 14 15  1  0  0  0  0
 14 36  1  0  0  0  0
 14 37  1  0  0  0  0
 15 16  1  0  0  0  0
 16 17  2  0  0  0  0
 16 18  1  0  0  0  0
 18 38  1  0  0  0  0
 18 39  1  0  0  0  0
 19 20  1  0  0  0  0
 20 21  2  0  0  0  0
 20 40  1  0  0  0  0
 21 22  1  0  0  0  0
 22 41  1  0  0  0  0
 22 42  1  0  0  0  0
 22 43  1  0  0  0  0
M  CHG  1   5   1
M  CHG  1  12   1
M  CHG  1  15  -1
M  END
> <s_m_source_file>
AV-unprocessed.smi

> <i_m_source_file_index>
1056

> <i_lp_mmshare_version>
43012

> <i_f3d_flags>
0

> <s_epik_input>
W0NIM11jKFtjSF0xKWMoW0NIM10pW2NIXWMoYzEyKW4oW2NIXW4yKVtDSDJdW0NASF0oW09IXSlbQ0gyXU4zW0NIMl1bQ0gyXVtOSF1DKD1PKVtDSDJdMw==

> <s_epik_cmdline>
J2VwaWtfcHl0aG9uJywgJy1waCcsICc3LjAnLCAnLXRuJywgJzgnLCAnLW1hJywgJzIwMCcsICctbWV0YWxfYmluZGluZycsICctaW1hZScsICc8aW5maWxlLm1hZT4nLCAnLW9tYWUnLCAnPG91dGZpbGUubWFlPic=

> <r_epik_Ionization_Penalty>
6.22415

> <r_epik_Ionization_Penalty_Charging>
6.22415

> <r_epik_Ionization_Penalty_Neutral>
4.02797e-07

> <r_epik_State_Penalty>
6.37716

> <r_epik_Charging_Adjusted_Penalty>
12.6013

> <i_epik_Tot_Q>
1

> <i_epik_Tot_abs_Q>
3

> <r_epik_Metal_State_Penalty>
2.53509

> <b_epik_Metal_Only>
1

> <s_lp_Force_Field>
OPLS_2005

> <r_lp_Energy>
27.8537

> <b_lp_Chiralities_Consistent>
1

> <s_lp_Variant>
AV-unprocessed.smi:1056-19

> <Gold.Version>
5.8.1

> <Gold.Id.Protein>
6NUR|6NUR_protein|mol2

> <Gold.PLP.Fitness>
54.0722

> <Gold.PLP.PLP>
-40.5712

> <Gold.PLP.part.hbond>
-3.8803

> <Gold.PLP.part.metal>
0.0000

> <Gold.PLP.part.buried>
-5.7780

> <Gold.PLP.part.nonpolar>
-29.9724

> <Gold.PLP.part.repulsive>
0.0328

> <Gold.PLP.ligand.clash>
0.0000

> <Gold.PLP.ligand.torsion>
0.7680

> <Gold.PLP.Chemscore.Hbond>
5.0000

> <Gold.PLP.Chemscore.CHOScore>
0.0000

> <Gold.PLP.Chemscore.Metal>
0.0000

> <Gold.Chemscore.Hbonds>
donor molecule, donor type, donor heavy atom, donor atom, acceptor molecule, acceptor atom, score
      L1  H     5    45       P1  8028  2.00
      P1  H  6896  6909       L1    15  2.00
      P1  H  7989  7998       L1    10  1.00

> <Gold.PLP.Chemscore.Internal.Correction>
0.0370

> <Gold.Rescore>
     Score         DG    S(hbond)    S(metal)    S(lipo)     H(rot)  DE(clash)    DE(int)     intcor
     17.39     -19.32       2.29        0.00     104.89       2.37       0.03       1.90       ----

> <Gold.Chemscore.Fitness>
17.3945

> <Gold.Chemscore.DG>
-19.3236

> <Gold.Chemscore.ZeroCoef>
-5.4800

> <Gold.Chemscore.Hbond>
2.2888

> <Gold.Chemscore.Metal>
0.0000

> <Gold.Chemscore.Lipo>
104.8915

> <Gold.Chemscore.Internal_Hbond>
0.0000

> <Gold.Chemscore.DEClash>
0.0274

> <Gold.Chemscore.DEInternal>
1.9017

> <Gold.Chemscore.Rot>
2.3724

> <Gold.Chemscore.Internal.Correction>
   9.000000E+99

> <Gold.Chemscore.Hbonds>
donor molecule, donor type, donor heavy atom, donor atom, acceptor molecule, acceptor atom, score
      L1  H     5    45       P1  8028  0.95
      P1  H  6896  6909       L1    15  0.18
      P1  H  7989  7998       L1    10  0.85

> <Gold.Chemscore.Hbond.Weighted>
-7.6447

> <Gold.Chemscore.Metal.Weighted>
-0.0000

> <Gold.Chemscore.Lipo.Weighted>
-12.2723

> <Gold.Chemscore.Internal_Hbond.Weighted>
0.0000

> <Gold.Chemscore.DEClash.Weighted>
0.0274

> <Gold.Chemscore.DEInternal.Weighted>
1.9017

> <Gold.Chemscore.Rot.Weighted>
6.0734

> <Gold.Chemscore.Internal.Correction.Weighted>
   9.000000E+99

> <Gold.Protein.RotatedTorsions>
[ 6907 6896 6895 6894 ] final   41.18 input  -60.11 | X-H torsion
[ 7974 7965 7964 7962 ] final  -62.01 input  175.53 | X-H torsion
[ 8008 7997 7996 7995 ] final -161.47 input   59.86 | X-H torsion
[ 10167 10162 10161 10158 ] final   64.59 input  -65.29 | X-H torsion
[ 10718 10713 10712 10709 ] final   33.97 input   66.30 | X-H torsion
[ 10763 10752 10751 10750 ] final -151.85 input  -60.55 | X-H torsion
[ 11005 11000 10999 10996 ] final -127.17 input  -57.11 | X-H torsion

> <Gold.Protein.ActiveResidues>
 VAL166  LYS551  ARG553  GLY616  TRP617  ASP618  TYR619  PRO620  LYS621  CYS622 
 ASP623  PHE694  ASN695  SER759  ASP760  ASP761  ALA762  ILE779  LEU786  VAL792 
 PHE793  MET794  SER795  GLU796  ALA797  LYS798  CYS799  TRP800  GLU811  SER814 

> <Gold.Protein.RotatedAtoms>
  152.1920  134.8664  160.0516 H   0  0  0  0  0  0  0  0  0  0  0  0  # atno 6907 bound_to 6896
  151.9549  133.3672  159.4022 H   0  0  0  0  0  0  0  0  0  0  0  0  # atno 6908 bound_to 6896
  150.6937  134.4225  159.5255 H   0  0  0  0  0  0  0  0  0  0  0  0  # atno 6909 bound_to 6896
  145.7965  140.8679  143.0253 H   0  0  0  0  0  0  0  0  0  0  0  0  # atno 7974 bound_to 7965
  155.7926  140.0880  157.2000 H   0  0  0  0  0  0  0  0  0  0  0  0  # atno 8008 bound_to 7997
  154.3985  140.1487  156.3239 H   0  0  0  0  0  0  0  0  0  0  0  0  # atno 8009 bound_to 7997
  155.8543  140.3433  155.5716 H   0  0  0  0  0  0  0  0  0  0  0  0  # atno 8010 bound_to 7997
  140.1206  144.4735  150.6923 H   0  0  0  0  0  0  0  0  0  0  0  0  # atno 10167 bound_to 10162
  157.3046  130.7368  149.6687 H   0  0  0  0  0  0  0  0  0  0  0  0  # atno 10718 bound_to 10713
  154.8032  135.3250  154.7498 H   0  0  0  0  0  0  0  0  0  0  0  0  # atno 10763 bound_to 10752
  153.8161  135.6891  153.4838 H   0  0  0  0  0  0  0  0  0  0  0  0  # atno 10764 bound_to 10752
  153.1761  135.4604  154.9911 H   0  0  0  0  0  0  0  0  0  0  0  0  # atno 10765 bound_to 10752
  140.9621  134.0922  157.3958 H   0  0  0  0  0  0  0  0  0  0  0  0  # atno 11005 bound_to 11000
  144.6774  140.0198  143.7484 LP  0  0  0  0  0  0  0  0  0  0  0  0  # atno 17320 bound_to 7965
  145.9922  139.3024  143.0978 LP  0  0  0  0  0  0  0  0  0  0  0  0  # atno 17321 bound_to 7965
  140.6874  143.2357  151.5223 LP  0  0  0  0  0  0  0  0  0  0  0  0  # atno 17342 bound_to 10162
  139.5571  144.2249  152.1630 LP  0  0  0  0  0  0  0  0  0  0  0  0  # atno 17343 bound_to 10162
  155.9673  130.4270  150.4723 LP  0  0  0  0  0  0  0  0  0  0  0  0  # atno 17370 bound_to 10713
  157.2710  131.0587  151.2260 LP  0  0  0  0  0  0  0  0  0  0  0  0  # atno 17371 bound_to 10713
  139.8882  135.0095  156.6604 LP  0  0  0  0  0  0  0  0  0  0  0  0  # atno 17394 bound_to 11000
  140.7452  133.8944  155.8307 LP  0  0  0  0  0  0  0  0  0  0  0  0  # atno 17395 bound_to 11000

$$$$
