AV-unprocessed.smi:189|AV-procd|sdf|1488|dock3
  -GOLD-   2262019303D 1   1.00000     0.00000
 Structure written by MMmdl.
 53 57  0  0  0  0  0  0  0  0  1 V2000
  154.7930  139.3521  158.7886 C   0  0  0  0  0  0  0  0  0  0  0  0
  153.4077  139.7408  159.3465 C   0  0  1  0  0  0  0  0  0  0  0  0
  153.4959  141.0418  160.1820 C   0  0  0  0  0  0  0  0  0  0  0  0
  152.2899  141.8518  159.7162 C   0  0  1  0  0  0  0  0  0  0  0  0
  152.3327  143.3790  159.8462 C   0  0  0  0  0  0  0  0  0  0  0  0
  151.0423  143.9708  159.2410 C   0  0  0  0  0  0  0  0  0  0  0  0
  150.7866  143.4759  157.7989 C   0  0  0  0  0  0  0  0  0  0  0  0
  150.8420  141.9378  157.6819 C   0  0  0  0  0  0  0  0  0  0  0  0
  152.1821  141.4403  158.2555 C   0  0  2  0  0  0  0  0  0  0  0  0
  152.3923  140.0020  158.3157 N   0  0  0  0  0  0  0  0  0  0  0  0
  152.3481  139.2134  157.2120 C   0  0  0  0  0  0  0  0  0  0  0  0
  152.9113  139.6390  156.0508 N   0  0  0  0  0  0  0  0  0  0  0  0
  152.8840  138.8621  154.9642 C   0  0  0  0  0  0  0  0  0  0  0  0
  152.3601  137.6429  154.8231 N   0  0  0  0  0  0  0  0  0  0  0  0
  151.7992  137.2078  155.9875 C   0  0  0  0  0  0  0  0  0  0  0  0
  151.7476  137.9239  157.2165 C   0  0  0  0  0  0  0  0  0  0  0  0
  151.0917  137.1666  158.1793 N   0  0  0  0  0  0  0  0  0  0  0  0
  150.7806  136.0624  157.5575 C   0  0  0  0  0  0  0  0  0  0  0  0
  151.1733  135.9994  156.2396 N   0  0  0  0  0  0  0  0  0  0  0  0
  150.9599  134.8913  155.3215 C   0  0  0  0  0  0  0  0  0  0  0  0
  149.4667  134.6260  155.0189 C   0  0  2  0  0  0  0  0  0  0  0  0
  148.8909  135.8035  154.4794 O   0  0  0  0  0  0  0  0  0  0  0  0
  148.6477  134.1986  156.2338 C   0  0  0  0  0  0  0  0  0  0  0  0
  147.5941  133.2826  155.6269 C   0  0  0  0  0  0  0  0  0  0  0  0
  148.3315  132.5714  154.6473 O   0  0  0  0  0  0  0  0  0  0  0  0
  149.2401  133.4722  154.0216 C   0  0  0  0  0  0  0  0  0  0  0  0
  155.5188  139.2489  159.5955 H   0  0  0  0  0  0  0  0  0  0  0  0
  155.1694  140.1079  158.0982 H   0  0  0  0  0  0  0  0  0  0  0  0
  154.7677  138.3996  158.2596 H   0  0  0  0  0  0  0  0  0  0  0  0
  153.0337  138.9387  159.9836 H   0  0  0  0  0  0  0  0  0  0  0  0
  153.4802  140.8509  161.2553 H   0  0  0  0  0  0  0  0  0  0  0  0
  154.4129  141.5877  159.9558 H   0  0  0  0  0  0  0  0  0  0  0  0
  151.4159  141.4811  160.2561 H   0  0  0  0  0  0  0  0  0  0  0  0
  152.4267  143.6687  160.8931 H   0  0  0  0  0  0  0  0  0  0  0  0
  153.2054  143.7774  159.3271 H   0  0  0  0  0  0  0  0  0  0  0  0
  150.1940  143.6927  159.8676 H   0  0  0  0  0  0  0  0  0  0  0  0
  151.0892  145.0599  159.2573 H   0  0  0  0  0  0  0  0  0  0  0  0
  149.8204  143.8394  157.4482 H   0  0  0  0  0  0  0  0  0  0  0  0
  151.5352  143.9102  157.1352 H   0  0  0  0  0  0  0  0  0  0  0  0
  150.0093  141.4912  158.2266 H   0  0  0  0  0  0  0  0  0  0  0  0
  150.7223  141.6491  156.6385 H   0  0  0  0  0  0  0  0  0  0  0  0
  153.0042  141.8787  157.6860 H   0  0  0  0  0  0  0  0  0  0  0  0
  153.3508  139.2761  154.0826 H   0  0  0  0  0  0  0  0  0  0  0  0
  150.2568  135.2544  158.0473 H   0  0  0  0  0  0  0  0  0  0  0  0
  151.5013  135.1018  154.3983 H   0  0  0  0  0  0  0  0  0  0  0  0
  151.4217  134.0002  155.7486 H   0  0  0  0  0  0  0  0  0  0  0  0
  148.9601  135.7659  153.5374 H   0  0  0  0  0  0  0  0  0  0  0  0
  149.2634  133.6128  156.9171 H   0  0  0  0  0  0  0  0  0  0  0  0
  148.2251  135.0311  156.7981 H   0  0  0  0  0  0  0  0  0  0  0  0
  147.1443  132.6117  156.3589 H   0  0  0  0  0  0  0  0  0  0  0  0
  146.8000  133.8575  155.1480 H   0  0  0  0  0  0  0  0  0  0  0  0
  148.8176  133.8213  153.0779 H   0  0  0  0  0  0  0  0  0  0  0  0
  150.1625  132.9393  153.7873 H   0  0  0  0  0  0  0  0  0  0  0  0
  1  2  1  0  0  0  0
  1 27  1  0  0  0  0
  1 28  1  0  0  0  0
  1 29  1  0  0  0  0
  2 10  1  0  0  0  0
  2  3  1  0  0  0  0
  2 30  1  0  0  0  0
  3  4  1  0  0  0  0
  3 31  1  0  0  0  0
  3 32  1  0  0  0  0
  4  9  1  0  0  0  0
  4  5  1  0  0  0  0
  4 33  1  0  0  0  0
  5  6  1  0  0  0  0
  5 34  1  0  0  0  0
  5 35  1  0  0  0  0
  6  7  1  0  0  0  0
  6 36  1  0  0  0  0
  6 37  1  0  0  0  0
  7  8  1  0  0  0  0
  7 38  1  0  0  0  0
  7 39  1  0  0  0  0
  8  9  1  0  0  0  0
  8 40  1  0  0  0  0
  8 41  1  0  0  0  0
  9 10  1  0  0  0  0
  9 42  1  0  0  0  0
 10 11  1  0  0  0  0
 11 16  1  0  0  0  0
 11 12  2  0  0  0  0
 12 13  1  0  0  0  0
 13 14  2  0  0  0  0
 13 43  1  0  0  0  0
 14 15  1  0  0  0  0
 15 19  1  0  0  0  0
 15 16  2  0  0  0  0
 16 17  1  0  0  0  0
 17 18  2  0  0  0  0
 18 19  1  0  0  0  0
 18 44  1  0  0  0  0
 19 20  1  0  0  0  0
 20 21  1  0  0  0  0
 20 45  1  0  0  0  0
 20 46  1  0  0  0  0
 21 26  1  0  0  0  0
 21 22  1  0  0  0  0
 21 23  1  0  0  0  0
 22 47  1  0  0  0  0
 23 24  1  0  0  0  0
 23 48  1  0  0  0  0
 23 49  1  0  0  0  0
 24 25  1  0  0  0  0
 24 50  1  0  0  0  0
 24 51  1  0  0  0  0
 25 26  1  0  0  0  0
 26 52  1  0  0  0  0
 26 53  1  0  0  0  0
M  END
> <s_m_source_file>
AV-unprocessed.smi

> <i_m_source_file_index>
189

> <i_lp_mmshare_version>
43012

> <i_f3d_flags>
0

> <s_epik_input>
W0NIMl0xW0NIMl1bQ0gyXVtDSDJdW0NASF0oW0NASF0xMilOKFtDQEhdKFtDSDNdKVtDSDJdMiljKG5bY0hdbjMpYyhjMzQpbltjSF1uNFtDSDJdW0NAQF01KFtPSF0pW0NIMl1bQ0gyXU9bQ0gyXTU=

> <s_epik_cmdline>
J2VwaWtfcHl0aG9uJywgJy1waCcsICc3LjAnLCAnLXRuJywgJzgnLCAnLW1hJywgJzIwMCcsICctbWV0YWxfYmluZGluZycsICctaW1hZScsICc8aW5maWxlLm1hZT4nLCAnLW9tYWUnLCAnPG91dGZpbGUubWFlPic=

> <r_lp_tautomer_probability>
1

> <r_epik_Ionization_Penalty>
0.00594261

> <r_epik_Ionization_Penalty_Charging>
0

> <r_epik_Ionization_Penalty_Neutral>
0.00594261

> <r_epik_State_Penalty>
0.00429776

> <r_epik_Charging_Adjusted_Penalty>
0.00429776

> <i_epik_Tot_Q>
0

> <i_epik_Tot_abs_Q>
0

> <r_epik_Metal_State_Penalty>
-0

> <b_epik_Metal_Only>
0

> <s_lp_Force_Field>
OPLS_2005

> <r_lp_Energy>
58.0948

> <b_lp_Chiralities_Consistent>
1

> <s_lp_Variant>
AV-unprocessed.smi:189-14

> <Gold.Version>
5.8.1

> <Gold.Id.Protein>
6NUR|6NUR_protein|mol2

> <Gold.PLP.Fitness>
46.9215

> <Gold.PLP.PLP>
-39.4371

> <Gold.PLP.part.hbond>
-2.9616

> <Gold.PLP.part.metal>
0.0000

> <Gold.PLP.part.buried>
-5.4845

> <Gold.PLP.part.nonpolar>
-31.0534

> <Gold.PLP.part.repulsive>
0.0941

> <Gold.PLP.ligand.clash>
0.0000

> <Gold.PLP.ligand.torsion>
0.5835

> <Gold.PLP.Chemscore.Hbond>
2.7520

> <Gold.PLP.Chemscore.CHOScore>
0.0000

> <Gold.PLP.Chemscore.Metal>
0.0000

> <Gold.Chemscore.Hbonds>
donor molecule, donor type, donor heavy atom, donor atom, acceptor molecule, acceptor atom, score
      L1  H    22    47       P1  7948  1.00
      P1  H  7997  8009       L1    12  0.76
      P1  H 10752 10765       L1    14  0.12

> <Gold.PLP.Chemscore.Internal.Correction>
0.3955

> <Gold.Rescore>
     Score         DG    S(hbond)    S(metal)    S(lipo)     H(rot)  DE(clash)    DE(int)     intcor
     20.35     -20.92       2.63        0.00     101.16       2.03       0.03       0.54       ----

> <Gold.Chemscore.Fitness>
20.3482

> <Gold.Chemscore.DG>
-20.9179

> <Gold.Chemscore.ZeroCoef>
-5.4800

> <Gold.Chemscore.Hbond>
2.6343

> <Gold.Chemscore.Metal>
0.0000

> <Gold.Chemscore.Lipo>
101.1561

> <Gold.Chemscore.Internal_Hbond>
0.0000

> <Gold.Chemscore.DEClash>
0.0287

> <Gold.Chemscore.DEInternal>
0.5410

> <Gold.Chemscore.Rot>
2.0297

> <Gold.Chemscore.Internal.Correction>
   9.000000E+99

> <Gold.Chemscore.Hbonds>
donor molecule, donor type, donor heavy atom, donor atom, acceptor molecule, acceptor atom, score
      L1  H    22    47       P1  7948  0.90
      P1  H  7997  8009       L1    12  0.14

> <Gold.Chemscore.Hbond.Weighted>
-8.7986

> <Gold.Chemscore.Metal.Weighted>
-0.0000

> <Gold.Chemscore.Lipo.Weighted>
-11.8353

> <Gold.Chemscore.Internal_Hbond.Weighted>
0.0000

> <Gold.Chemscore.DEClash.Weighted>
0.0287

> <Gold.Chemscore.DEInternal.Weighted>
0.5410

> <Gold.Chemscore.Rot.Weighted>
5.1960

> <Gold.Chemscore.Internal.Correction.Weighted>
   9.000000E+99

> <Gold.Protein.RotatedTorsions>
[ 6907 6896 6895 6894 ] final  110.46 input  -60.11 | X-H torsion
[ 7974 7965 7964 7962 ] final   80.41 input  175.53 | X-H torsion
[ 8008 7997 7996 7995 ] final  176.29 input   59.86 | X-H torsion
[ 10167 10162 10161 10158 ] final  -72.42 input  -65.29 | X-H torsion
[ 10718 10713 10712 10709 ] final  -15.46 input   66.30 | X-H torsion
[ 10763 10752 10751 10750 ] final -178.93 input  -60.55 | X-H torsion
[ 11005 11000 10999 10996 ] final  -26.66 input  -57.11 | X-H torsion

> <Gold.Protein.ActiveResidues>
 VAL166  LYS551  ARG553  GLY616  TRP617  ASP618  TYR619  PRO620  LYS621  CYS622 
 ASP623  PHE694  ASN695  SER759  ASP760  ASP761  ALA762  ILE779  LEU786  VAL792 
 PHE793  MET794  SER795  GLU796  ALA797  LYS798  CYS799  TRP800  GLU811  SER814 

> <Gold.Protein.RotatedAtoms>
  152.5018  133.8797  159.7339 H   0  0  0  0  0  0  0  0  0  0  0  0  # atno 6907 bound_to 6896
  150.9262  133.6812  159.2827 H   0  0  0  0  0  0  0  0  0  0  0  0  # atno 6908 bound_to 6896
  151.4172  135.0997  159.9655 H   0  0  0  0  0  0  0  0  0  0  0  0  # atno 6909 bound_to 6896
  145.6516  139.2449  143.1973 H   0  0  0  0  0  0  0  0  0  0  0  0  # atno 7974 bound_to 7965
  156.0780  140.1387  156.9747 H   0  0  0  0  0  0  0  0  0  0  0  0  # atno 8008 bound_to 7997
  154.4569  140.0958  156.6832 H   0  0  0  0  0  0  0  0  0  0  0  0  # atno 8009 bound_to 7997
  155.5121  140.3454  155.4392 H   0  0  0  0  0  0  0  0  0  0  0  0  # atno 8010 bound_to 7997
  140.5194  143.2333  151.7457 H   0  0  0  0  0  0  0  0  0  0  0  0  # atno 10167 bound_to 10162
  156.6014  130.4825  149.6238 H   0  0  0  0  0  0  0  0  0  0  0  0  # atno 10718 bound_to 10713
  154.5415  135.2806  155.1091 H   0  0  0  0  0  0  0  0  0  0  0  0  # atno 10763 bound_to 10752
  154.2572  135.6328  153.5265 H   0  0  0  0  0  0  0  0  0  0  0  0  # atno 10764 bound_to 10752
  152.9980  135.5597  154.5955 H   0  0  0  0  0  0  0  0  0  0  0  0  # atno 10765 bound_to 10752
  140.9049  133.7499  156.0593 H   0  0  0  0  0  0  0  0  0  0  0  0  # atno 11005 bound_to 11000
  146.1199  140.7322  142.9463 LP  0  0  0  0  0  0  0  0  0  0  0  0  # atno 17320 bound_to 7965
  144.7120  140.4075  143.7073 LP  0  0  0  0  0  0  0  0  0  0  0  0  # atno 17321 bound_to 7965
  139.4919  144.4277  151.9907 LP  0  0  0  0  0  0  0  0  0  0  0  0  # atno 17342 bound_to 10162
  140.3373  144.3245  150.5974 LP  0  0  0  0  0  0  0  0  0  0  0  0  # atno 17343 bound_to 10162
  156.2466  130.6882  151.1606 LP  0  0  0  0  0  0  0  0  0  0  0  0  # atno 17370 bound_to 10713
  157.7278  131.0636  150.5847 LP  0  0  0  0  0  0  0  0  0  0  0  0  # atno 17371 bound_to 10713
  140.8183  134.3318  157.5390 LP  0  0  0  0  0  0  0  0  0  0  0  0  # atno 17394 bound_to 11000
  139.8748  134.9294  156.3477 LP  0  0  0  0  0  0  0  0  0  0  0  0  # atno 17395 bound_to 11000

$$$$
