AV-unprocessed.smi:2247|AV-procd|sdf|9087|dock1
  -GOLD-   2272012293D 1   1.00000     0.00000
 Structure written by MMmdl.
 34 35  0  0  0  0  0  0  0  0  1 V2000
  152.4146  143.7432  161.8597 C   0  0  0  0  0  0  0  0  0  0  0  0
  152.3804  142.5164  160.9346 C   0  0  0  0  0  0  0  0  0  0  0  0
  153.6148  141.6167  161.1241 C   0  0  0  0  0  0  0  0  0  0  0  0
  152.1979  142.9353  159.5384 N   0  0  0  0  0  0  0  0  0  0  0  0
  152.4178  144.3043  159.1005 C   0  0  0  0  0  0  0  0  0  0  0  0
  151.7762  144.3705  157.7115 C   0  0  0  0  0  0  0  0  0  0  0  0
  151.7001  142.9181  157.2141 C   0  0  2  0  0  0  0  0  0  0  0  0
  150.4265  142.6844  156.5359 N   0  0  0  0  0  0  0  0  0  0  0  0
  150.1776  141.6761  155.6873 C   0  0  0  0  0  0  0  0  0  0  0  0
  151.0174  140.8358  155.3641 O   0  0  0  0  0  0  0  0  0  0  0  0
  148.9079  141.7104  155.2493 N   0  0  0  0  0  0  0  0  0  0  0  0
  148.2791  140.8100  154.3530 C   0  0  0  0  0  0  0  0  0  0  0  0
  148.4579  139.4893  154.2962 N   0  0  0  0  0  0  0  0  0  0  0  0
  147.6280  139.0682  153.2672 C   0  0  0  0  0  0  0  0  0  0  0  0
  146.9897  140.1685  152.7549 C   0  0  0  0  0  0  0  0  0  0  0  0
  147.3946  141.2848  153.4365 O   0  0  0  0  0  0  0  0  0  0  0  0
  151.7752  142.1524  158.5360 C   0  0  0  0  0  0  0  0  0  0  0  0
  151.4886  140.9589  158.6323 O   0  0  0  0  0  0  0  0  0  0  0  0
  152.5007  143.4437  162.9046 H   0  0  0  0  0  0  0  0  0  0  0  0
  151.5057  144.3380  161.7633 H   0  0  0  0  0  0  0  0  0  0  0  0
  153.2619  144.3897  161.6284 H   0  0  0  0  0  0  0  0  0  0  0  0
  151.5144  141.9151  161.2173 H   0  0  0  0  0  0  0  0  0  0  0  0
  153.6693  141.2456  162.1478 H   0  0  0  0  0  0  0  0  0  0  0  0
  154.5432  142.1517  160.9235 H   0  0  0  0  0  0  0  0  0  0  0  0
  153.5748  140.7492  160.4645 H   0  0  0  0  0  0  0  0  0  0  0  0
  151.9720  145.0283  159.7836 H   0  0  0  0  0  0  0  0  0  0  0  0
  153.4896  144.4983  159.0397 H   0  0  0  0  0  0  0  0  0  0  0  0
  150.7773  144.8015  157.8031 H   0  0  0  0  0  0  0  0  0  0  0  0
  152.3405  145.0085  157.0306 H   0  0  0  0  0  0  0  0  0  0  0  0
  152.5615  142.6678  156.5923 H   0  0  0  0  0  0  0  0  0  0  0  0
  149.6765  143.3262  156.7459 H   0  0  0  0  0  0  0  0  0  0  0  0
  148.3258  142.4572  155.5976 H   0  0  0  0  0  0  0  0  0  0  0  0
  147.5568  138.0288  152.9830 H   0  0  0  0  0  0  0  0  0  0  0  0
  146.2700  140.3170  151.9637 H   0  0  0  0  0  0  0  0  0  0  0  0
  1  2  1  0  0  0  0
  1 19  1  0  0  0  0
  1 20  1  0  0  0  0
  1 21  1  0  0  0  0
  2  3  1  0  0  0  0
  2  4  1  0  0  0  0
  2 22  1  0  0  0  0
  3 23  1  0  0  0  0
  3 24  1  0  0  0  0
  3 25  1  0  0  0  0
  4 17  1  0  0  0  0
  4  5  1  0  0  0  0
  5  6  1  0  0  0  0
  5 26  1  0  0  0  0
  5 27  1  0  0  0  0
  6  7  1  0  0  0  0
  6 28  1  0  0  0  0
  6 29  1  0  0  0  0
  7  8  1  0  0  0  0
  7 17  1  0  0  0  0
  7 30  1  0  0  0  0
  8  9  1  0  0  0  0
  8 31  1  0  0  0  0
  9 10  2  0  0  0  0
  9 11  1  0  0  0  0
 11 12  1  0  0  0  0
 11 32  1  0  0  0  0
 12 16  1  0  0  0  0
 12 13  2  0  0  0  0
 13 14  1  0  0  0  0
 14 15  2  0  0  0  0
 14 33  1  0  0  0  0
 15 16  1  0  0  0  0
 15 34  1  0  0  0  0
 17 18  2  0  0  0  0
M  END
> <s_m_source_file>
AV-unprocessed.smi

> <i_m_source_file_index>
2247

> <i_lp_mmshare_version>
43012

> <i_f3d_flags>
0

> <s_epik_input>
W0NIM11bQ0hdKFtDSDNdKU4xW0NIMl1bQ0gyXVtDQEhdKEMxPU8pW05IXUMoPU8pW05IXWMybltjSF1bY0hdbzI=

> <s_epik_cmdline>
J2VwaWtfcHl0aG9uJywgJy1waCcsICc3LjAnLCAnLXRuJywgJzgnLCAnLW1hJywgJzIwMCcsICctbWV0YWxfYmluZGluZycsICctaW1hZScsICc8aW5maWxlLm1hZT4nLCAnLW9tYWUnLCAnPG91dGZpbGUubWFlPic=

> <r_lp_tautomer_probability>
0.785861

> <r_epik_Ionization_Penalty>
5.15801e-05

> <r_epik_Ionization_Penalty_Charging>
0

> <r_epik_Ionization_Penalty_Neutral>
5.15801e-05

> <r_epik_State_Penalty>
0.0205761

> <r_epik_Charging_Adjusted_Penalty>
0.0205761

> <i_epik_Tot_Q>
0

> <i_epik_Tot_abs_Q>
0

> <r_epik_Metal_State_Penalty>
0.0168939

> <b_epik_Metal_Only>
0

> <s_lp_Force_Field>
OPLS_2005

> <r_lp_Energy>
20.4704

> <b_lp_Chiralities_Consistent>
1

> <s_lp_Variant>
AV-unprocessed.smi:2247-2

> <Gold.Version>
5.8.1

> <Gold.Id.Protein>
6NUR|6NUR_protein|mol2

> <Gold.PLP.Fitness>
47.7836

> <Gold.PLP.PLP>
-39.7901

> <Gold.PLP.part.hbond>
-2.6704

> <Gold.PLP.part.metal>
0.0000

> <Gold.PLP.part.buried>
-5.2212

> <Gold.PLP.part.nonpolar>
-32.4900

> <Gold.PLP.part.repulsive>
0.5170

> <Gold.PLP.ligand.clash>
0.0000

> <Gold.PLP.ligand.torsion>
0.9640

> <Gold.PLP.Chemscore.Hbond>
1.2800

> <Gold.PLP.Chemscore.CHOScore>
1.9997

> <Gold.PLP.Chemscore.Metal>
0.0000

> <Gold.Chemscore.Hbonds>
donor molecule, donor type, donor heavy atom, donor atom, acceptor molecule, acceptor atom, score
      L1  H     8    31       P1  8028  0.61
      L1  H    11    32       P1  8028  0.15
      P1  H  7989  7998       L1    10  0.77
      L1  C    14    33       P1  7948  1.00
      L1  C    15    34       P1 10175  0.65

> <Gold.PLP.Chemscore.Internal.Correction>
0.0825

> <Gold.Rescore>
     Score         DG    S(hbond)    S(metal)    S(lipo)     H(rot)  DE(clash)    DE(int)     intcor
     13.31     -14.15       0.85        0.00      79.03       1.33       0.11       0.73       ----

> <Gold.Chemscore.Fitness>
13.3104

> <Gold.Chemscore.DG>
-14.1468

> <Gold.Chemscore.ZeroCoef>
-5.4800

> <Gold.Chemscore.Hbond>
0.8488

> <Gold.Chemscore.Metal>
0.0000

> <Gold.Chemscore.Lipo>
79.0281

> <Gold.Chemscore.Internal_Hbond>
0.0000

> <Gold.Chemscore.DEClash>
0.1086

> <Gold.Chemscore.DEInternal>
0.7278

> <Gold.Chemscore.Rot>
1.3338

> <Gold.Chemscore.Internal.Correction>
   9.000000E+99

> <Gold.Chemscore.Hbonds>
donor molecule, donor type, donor heavy atom, donor atom, acceptor molecule, acceptor atom, score
      L1  H     8    31       P1  8028  0.62
      L1  H    11    32       P1  8028  0.16
      P1  H  7989  7998       L1    10  0.71

> <Gold.Chemscore.Hbond.Weighted>
-2.8350

> <Gold.Chemscore.Metal.Weighted>
-0.0000

> <Gold.Chemscore.Lipo.Weighted>
-9.2463

> <Gold.Chemscore.Internal_Hbond.Weighted>
0.0000

> <Gold.Chemscore.DEClash.Weighted>
0.1086

> <Gold.Chemscore.DEInternal.Weighted>
0.7278

> <Gold.Chemscore.Rot.Weighted>
3.4145

> <Gold.Chemscore.Internal.Correction.Weighted>
   9.000000E+99

> <Gold.Protein.RotatedTorsions>
[ 6907 6896 6895 6894 ] final  138.89 input  -60.11 | X-H torsion
[ 7974 7965 7964 7962 ] final -104.48 input  175.53 | X-H torsion
[ 8008 7997 7996 7995 ] final  177.68 input   59.86 | X-H torsion
[ 10167 10162 10161 10158 ] final -133.95 input  -65.29 | X-H torsion
[ 10718 10713 10712 10709 ] final  150.34 input   66.30 | X-H torsion
[ 10763 10752 10751 10750 ] final  103.61 input  -60.55 | X-H torsion
[ 11005 11000 10999 10996 ] final   67.30 input  -57.11 | X-H torsion

> <Gold.Protein.ActiveResidues>
 VAL166  LYS551  ARG553  GLY616  TRP617  ASP618  TYR619  PRO620  LYS621  CYS622 
 ASP623  PHE694  ASN695  SER759  ASP760  ASP761  ALA762  ILE779  LEU786  VAL792 
 PHE793  MET794  SER795  GLU796  ALA797  LYS798  CYS799  TRP800  GLU811  SER814 

> <Gold.Protein.RotatedAtoms>
  152.2614  133.5300  159.5383 H   0  0  0  0  0  0  0  0  0  0  0  0  # atno 6907 bound_to 6896
  150.7126  134.0825  159.3912 H   0  0  0  0  0  0  0  0  0  0  0  0  # atno 6908 bound_to 6896
  151.8742  135.0478  160.0533 H   0  0  0  0  0  0  0  0  0  0  0  0  # atno 6909 bound_to 6896
  145.2426  140.9210  143.3141 H   0  0  0  0  0  0  0  0  0  0  0  0  # atno 7974 bound_to 7965
  156.0630  140.1352  156.9918 H   0  0  0  0  0  0  0  0  0  0  0  0  # atno 8008 bound_to 7997
  154.4491  140.0987  156.6617 H   0  0  0  0  0  0  0  0  0  0  0  0  # atno 8009 bound_to 7997
  155.5347  140.3459  155.4436 H   0  0  0  0  0  0  0  0  0  0  0  0  # atno 8010 bound_to 7997
  139.8930  143.6699  152.2609 H   0  0  0  0  0  0  0  0  0  0  0  0  # atno 10167 bound_to 10162
  157.2847  131.0842  151.1506 H   0  0  0  0  0  0  0  0  0  0  0  0  # atno 10718 bound_to 10713
  153.3550  135.3971  155.1675 H   0  0  0  0  0  0  0  0  0  0  0  0  # atno 10763 bound_to 10752
  154.8669  135.3665  154.5173 H   0  0  0  0  0  0  0  0  0  0  0  0  # atno 10764 bound_to 10752
  153.5628  135.7080  153.5600 H   0  0  0  0  0  0  0  0  0  0  0  0  # atno 10765 bound_to 10752
  139.9779  134.6792  156.0319 H   0  0  0  0  0  0  0  0  0  0  0  0  # atno 11005 bound_to 11000
  144.9575  139.4016  143.6372 LP  0  0  0  0  0  0  0  0  0  0  0  0  # atno 17320 bound_to 7965
  146.3324  139.8612  142.8856 LP  0  0  0  0  0  0  0  0  0  0  0  0  # atno 17321 bound_to 7965
  139.7092  144.7623  151.1140 LP  0  0  0  0  0  0  0  0  0  0  0  0  # atno 17342 bound_to 10162
  140.7722  143.5353  150.9375 LP  0  0  0  0  0  0  0  0  0  0  0  0  # atno 17343 bound_to 10162
  157.2926  130.6803  149.6122 LP  0  0  0  0  0  0  0  0  0  0  0  0  # atno 17370 bound_to 10713
  155.9665  130.4416  150.5348 LP  0  0  0  0  0  0  0  0  0  0  0  0  # atno 17371 bound_to 10713
  141.1454  133.6557  156.3852 LP  0  0  0  0  0  0  0  0  0  0  0  0  # atno 17394 bound_to 11000
  140.5157  134.6353  157.5300 LP  0  0  0  0  0  0  0  0  0  0  0  0  # atno 17395 bound_to 11000

$$$$
