AV-unprocessed.smi:1898|AV-procd|sdf|7703|dock9
  -GOLD-   22720 9443D 1   1.00000     0.00000
 Structure written by MMmdl.
 46 47  0  0  0  0  0  0  0  0  3 V2000
  152.3934  131.4263  157.3823 C   0  0  0  0  0  0  0  0  0  0  0  0
  153.2979  132.0411  158.3466 N   0  5  0  0  0  0  0  0  0  0  0  0
  154.6470  132.0906  158.1832 C   0  0  0  0  0  0  0  0  0  0  0  0
  155.3616  131.6982  157.2547 O   0  0  0  0  0  0  0  0  0  0  0  0
  155.3238  132.7814  159.3726 C   0  0  0  0  0  0  0  0  0  0  0  0
  154.7346  134.1276  159.5787 N   0  3  2  0  0  0  0  0  0  0  0  0
  154.7353  134.9424  158.3377 C   0  0  0  0  0  0  0  0  0  0  0  0
  153.9791  136.2656  158.5432 C   0  0  0  0  0  0  0  0  0  0  0  0
  154.5678  137.0688  159.7141 C   0  0  1  0  0  0  0  0  0  0  0  0
  153.7660  138.2670  159.9446 N   0  0  0  0  0  0  0  0  0  0  0  0
  153.3458  139.1118  158.9923 C   0  0  0  0  0  0  0  0  0  0  0  0
  153.5775  138.9498  157.7948 O   0  0  0  0  0  0  0  0  0  0  0  0
  152.6460  140.1281  159.5249 N   0  0  0  0  0  0  0  0  0  0  0  0
  152.0412  141.2455  158.8822 C   0  0  0  0  0  0  0  0  0  0  0  0
  151.4299  141.1958  157.6051 C   0  0  0  0  0  0  0  0  0  0  0  0
  150.8783  142.3721  157.0648 C   0  0  0  0  0  0  0  0  0  0  0  0
  150.9610  143.5583  157.8161 C   0  0  0  0  0  0  0  0  0  0  0  0
  151.5483  143.6246  159.0280 N   0  0  0  0  0  0  0  0  0  0  0  0
  152.0817  142.4920  159.5510 C   0  0  0  0  0  0  0  0  0  0  0  0
  152.6893  142.5646  160.7903 O   0  0  0  0  0  0  0  0  0  0  0  0
  152.2152  143.5281  161.7248 C   0  0  0  0  0  0  0  0  0  0  0  0
  154.6043  136.1893  160.9773 C   0  0  0  0  0  0  0  0  0  0  0  0
  155.3440  134.8671  160.7165 C   0  0  0  0  0  0  0  0  0  0  0  0
  151.3573  131.4627  157.7175 H   0  0  0  0  0  0  0  0  0  0  0  0
  152.6243  130.3755  157.2050 H   0  0  0  0  0  0  0  0  0  0  0  0
  152.4214  131.9237  156.4123 H   0  0  0  0  0  0  0  0  0  0  0  0
  155.2738  132.1944  160.2926 H   0  0  0  0  0  0  0  0  0  0  0  0
  156.3821  132.8707  159.1233 H   0  0  0  0  0  0  0  0  0  0  0  0
  155.7639  135.1371  158.0299 H   0  0  0  0  0  0  0  0  0  0  0  0
  154.2616  134.3839  157.5294 H   0  0  0  0  0  0  0  0  0  0  0  0
  154.0169  136.8566  157.6273 H   0  0  0  0  0  0  0  0  0  0  0  0
  152.9254  136.0525  158.7308 H   0  0  0  0  0  0  0  0  0  0  0  0
  155.5868  137.3602  159.4513 H   0  0  0  0  0  0  0  0  0  0  0  0
  153.5232  138.4752  160.9023 H   0  0  0  0  0  0  0  0  0  0  0  0
  152.4959  140.0831  160.5222 H   0  0  0  0  0  0  0  0  0  0  0  0
  151.3801  140.2913  157.0207 H   0  0  0  0  0  0  0  0  0  0  0  0
  150.4056  142.3650  156.0939 H   0  0  0  0  0  0  0  0  0  0  0  0
  150.5488  144.4798  157.4318 H   0  0  0  0  0  0  0  0  0  0  0  0
  152.7986  143.4571  162.6424 H   0  0  0  0  0  0  0  0  0  0  0  0
  151.1698  143.3536  161.9837 H   0  0  0  0  0  0  0  0  0  0  0  0
  152.3251  144.5436  161.3414 H   0  0  0  0  0  0  0  0  0  0  0  0
  155.0892  136.7237  161.7952 H   0  0  0  0  0  0  0  0  0  0  0  0
  153.5875  135.9735  161.3092 H   0  0  0  0  0  0  0  0  0  0  0  0
  155.3128  134.2614  161.6225 H   0  0  0  0  0  0  0  0  0  0  0  0
  156.3966  135.0607  160.5045 H   0  0  0  0  0  0  0  0  0  0  0  0
  153.7657  133.9679  159.8153 H   0  0  0  0  0  0  0  0  0  0  0  0
  1  2  1  0  0  0  0
  1 24  1  0  0  0  0
  1 25  1  0  0  0  0
  1 26  1  0  0  0  0
  2  3  1  0  0  0  0
  3  4  2  0  0  0  0
  3  5  1  0  0  0  0
  5  6  1  0  0  0  0
  5 27  1  0  0  0  0
  5 28  1  0  0  0  0
  6 23  1  0  0  0  0
  6  7  1  0  0  0  0
  6 46  1  0  0  0  0
  7  8  1  0  0  0  0
  7 29  1  0  0  0  0
  7 30  1  0  0  0  0
  8  9  1  0  0  0  0
  8 31  1  0  0  0  0
  8 32  1  0  0  0  0
  9 10  1  0  0  0  0
  9 22  1  0  0  0  0
  9 33  1  0  0  0  0
 10 11  1  0  0  0  0
 10 34  1  0  0  0  0
 11 12  2  0  0  0  0
 11 13  1  0  0  0  0
 13 14  1  0  0  0  0
 13 35  1  0  0  0  0
 14 19  1  0  0  0  0
 14 15  2  0  0  0  0
 15 16  1  0  0  0  0
 15 36  1  0  0  0  0
 16 17  2  0  0  0  0
 16 37  1  0  0  0  0
 17 18  1  0  0  0  0
 17 38  1  0  0  0  0
 18 19  2  0  0  0  0
 19 20  1  0  0  0  0
 20 21  1  0  0  0  0
 21 39  1  0  0  0  0
 21 40  1  0  0  0  0
 21 41  1  0  0  0  0
 22 23  1  0  0  0  0
 22 42  1  0  0  0  0
 22 43  1  0  0  0  0
 23 44  1  0  0  0  0
 23 45  1  0  0  0  0
M  CHG  1   2  -1
M  CHG  1   6   1
M  END
> <s_m_source_file>
AV-unprocessed.smi

> <i_m_source_file_index>
1898

> <i_lp_mmshare_version>
43012

> <i_f3d_flags>
0

> <s_epik_input>
W0NIM11bTkhdQyg9TylbQ0gyXU4xW0NIMl1bQ0gyXVtDSF0oW0NIMl1bQ0gyXTEpW05IXUMoPU8pW05IXWMyW2NIXVtjSF1bY0hdbmMyT1tDSDNd

> <s_epik_cmdline>
J2VwaWtfcHl0aG9uJywgJy1waCcsICc3LjAnLCAnLXRuJywgJzgnLCAnLW1hJywgJzIwMCcsICctbWV0YWxfYmluZGluZycsICctaW1hZScsICc8aW5maWxlLm1hZT4nLCAnLW9tYWUnLCAnPG91dGZpbGUubWFlPic=

> <r_lp_tautomer_probability>
1

> <r_epik_Ionization_Penalty>
6.13954

> <r_epik_Ionization_Penalty_Charging>
6.13946

> <r_epik_Ionization_Penalty_Neutral>
7.84403e-05

> <r_epik_State_Penalty>
6.9595

> <r_epik_Charging_Adjusted_Penalty>
13.099

> <i_epik_Tot_Q>
0

> <i_epik_Tot_abs_Q>
2

> <r_epik_Metal_State_Penalty>
2.89145

> <b_epik_Metal_Only>
1

> <s_lp_Force_Field>
OPLS_2005

> <r_lp_Energy>
12.3689

> <b_lp_Chiralities_Consistent>
1

> <s_lp_Variant>
AV-unprocessed.smi:1898-4

> <Gold.Version>
5.8.1

> <Gold.Id.Protein>
6NUR|6NUR_protein|mol2

> <Gold.PLP.Fitness>
39.3888

> <Gold.PLP.PLP>
-29.1809

> <Gold.PLP.part.hbond>
-2.0000

> <Gold.PLP.part.metal>
0.0000

> <Gold.PLP.part.buried>
-6.0799

> <Gold.PLP.part.nonpolar>
-20.9831

> <Gold.PLP.part.repulsive>
0.2941

> <Gold.PLP.ligand.clash>
0.0000

> <Gold.PLP.ligand.torsion>
0.8217

> <Gold.PLP.Chemscore.Hbond>
3.0000

> <Gold.PLP.Chemscore.CHOScore>
0.9267

> <Gold.PLP.Chemscore.Metal>
0.0000

> <Gold.Chemscore.Hbonds>
donor molecule, donor type, donor heavy atom, donor atom, acceptor molecule, acceptor atom, score
      P1  H  6896  6907       L1     2  1.62
      P1  H  7997  8009       L1    12  1.00
      L1  C    17    38       P1  8028  0.97

> <Gold.PLP.Chemscore.Internal.Correction>
0.0711

> <Gold.Rescore>
     Score         DG    S(hbond)    S(metal)    S(lipo)     H(rot)  DE(clash)    DE(int)     intcor
     12.77     -15.14       1.83        0.00      72.37       1.93       0.01       2.36       ----

> <Gold.Chemscore.Fitness>
12.7686

> <Gold.Chemscore.DG>
-15.1371

> <Gold.Chemscore.ZeroCoef>
-5.4800

> <Gold.Chemscore.Hbond>
1.8342

> <Gold.Chemscore.Metal>
0.0000

> <Gold.Chemscore.Lipo>
72.3716

> <Gold.Chemscore.Internal_Hbond>
0.0000

> <Gold.Chemscore.DEClash>
0.0073

> <Gold.Chemscore.DEInternal>
2.3612

> <Gold.Chemscore.Rot>
1.9283

> <Gold.Chemscore.Internal.Correction>
   9.000000E+99

> <Gold.Chemscore.Hbonds>
donor molecule, donor type, donor heavy atom, donor atom, acceptor molecule, acceptor atom, score
      P1  H  6896  6907       L1     2  0.62
      P1  H  7997  8009       L1    12  0.98

> <Gold.Chemscore.Hbond.Weighted>
-6.1262

> <Gold.Chemscore.Metal.Weighted>
-0.0000

> <Gold.Chemscore.Lipo.Weighted>
-8.4675

> <Gold.Chemscore.Internal_Hbond.Weighted>
0.0000

> <Gold.Chemscore.DEClash.Weighted>
0.0073

> <Gold.Chemscore.DEInternal.Weighted>
2.3612

> <Gold.Chemscore.Rot.Weighted>
4.9365

> <Gold.Chemscore.Internal.Correction.Weighted>
   9.000000E+99

> <Gold.Protein.RotatedTorsions>
[ 6907 6896 6895 6894 ] final  138.23 input  -60.11 | X-H torsion
[ 7974 7965 7964 7962 ] final   11.25 input  175.53 | X-H torsion
[ 8008 7997 7996 7995 ] final  157.07 input   59.86 | X-H torsion
[ 10167 10162 10161 10158 ] final   28.25 input  -65.29 | X-H torsion
[ 10718 10713 10712 10709 ] final -102.37 input   66.30 | X-H torsion
[ 10763 10752 10751 10750 ] final -136.55 input  -60.55 | X-H torsion
[ 11005 11000 10999 10996 ] final  102.35 input  -57.11 | X-H torsion

> <Gold.Protein.ActiveResidues>
 VAL166  LYS551  ARG553  GLY616  TRP617  ASP618  TYR619  PRO620  LYS621  CYS622 
 ASP623  PHE694  ASN695  SER759  ASP760  ASP761  ALA762  ILE779  LEU786  VAL792 
 PHE793  MET794  SER795  GLU796  ALA797  LYS798  CYS799  TRP800  GLU811  SER814 

> <Gold.Protein.RotatedAtoms>
  152.2690  133.5365  159.5427 H   0  0  0  0  0  0  0  0  0  0  0  0  # atno 6907 bound_to 6896
  150.7152  134.0724  159.3878 H   0  0  0  0  0  0  0  0  0  0  0  0  # atno 6908 bound_to 6896
  151.8639  135.0514  160.0523 H   0  0  0  0  0  0  0  0  0  0  0  0  # atno 6909 bound_to 6896
  146.2374  139.9513  142.8470 H   0  0  0  0  0  0  0  0  0  0  0  0  # atno 7974 bound_to 7965
  156.2385  140.1895  156.7052 H   0  0  0  0  0  0  0  0  0  0  0  0  # atno 8008 bound_to 7997
  154.6152  140.0616  156.9572 H   0  0  0  0  0  0  0  0  0  0  0  0  # atno 8009 bound_to 7997
  155.1950  140.3287  155.4355 H   0  0  0  0  0  0  0  0  0  0  0  0  # atno 8010 bound_to 7997
  140.4868  144.0529  150.6283 H   0  0  0  0  0  0  0  0  0  0  0  0  # atno 10167 bound_to 10162
  156.0226  130.5417  150.7098 H   0  0  0  0  0  0  0  0  0  0  0  0  # atno 10718 bound_to 10713
  154.8681  135.3669  154.5079 H   0  0  0  0  0  0  0  0  0  0  0  0  # atno 10763 bound_to 10752
  153.5716  135.7020  153.5507 H   0  0  0  0  0  0  0  0  0  0  0  0  # atno 10764 bound_to 10752
  153.3537  135.4065  155.1628 H   0  0  0  0  0  0  0  0  0  0  0  0  # atno 10765 bound_to 10752
  139.8777  134.9220  156.5045 H   0  0  0  0  0  0  0  0  0  0  0  0  # atno 11005 bound_to 11000
  145.1858  140.9789  143.4239 LP  0  0  0  0  0  0  0  0  0  0  0  0  # atno 17320 bound_to 7965
  144.9901  139.3698  143.6219 LP  0  0  0  0  0  0  0  0  0  0  0  0  # atno 17321 bound_to 7965
  140.3787  143.2814  152.0195 LP  0  0  0  0  0  0  0  0  0  0  0  0  # atno 17342 bound_to 10162
  139.4843  144.6172  151.7324 LP  0  0  0  0  0  0  0  0  0  0  0  0  # atno 17343 bound_to 10162
  157.4739  131.0896  151.0612 LP  0  0  0  0  0  0  0  0  0  0  0  0  # atno 17370 bound_to 10713
  157.1064  130.6003  149.5472 LP  0  0  0  0  0  0  0  0  0  0  0  0  # atno 17371 bound_to 10713
  140.8565  133.8092  155.9221 LP  0  0  0  0  0  0  0  0  0  0  0  0  # atno 17394 bound_to 11000
  140.9092  134.2282  157.4996 LP  0  0  0  0  0  0  0  0  0  0  0  0  # atno 17395 bound_to 11000

$$$$
