AV-unprocessed.smi:1093|AV-procd|sdf|4743|dock3
  -GOLD-   22720 3273D 1   1.00000     0.00000
 Structure written by MMmdl.
 47 48  0  0  0  0  0  0  0  0  2 V2000
  144.2430  133.9797  150.6981 C   0  0  0  0  0  0  0  0  0  0  0  0
  145.4283  134.9552  150.7364 C   0  0  0  0  0  0  0  0  0  0  0  0
  146.4490  134.5632  151.7398 N   0  3  2  0  0  0  0  0  0  0  0  0
  147.0436  133.2310  151.4557 C   0  0  0  0  0  0  0  0  0  0  0  0
  148.2029  132.9211  152.4193 C   0  0  0  0  0  0  0  0  0  0  0  0
  147.7636  133.0483  153.8883 C   0  0  0  0  0  0  0  0  0  0  0  0
  147.1050  134.4147  154.1500 C   0  0  1  0  0  0  0  0  0  0  0  0
  148.1120  135.4744  154.0750 N   0  0  0  0  0  0  0  0  0  0  0  0
  148.3900  136.3531  155.0487 C   0  0  0  0  0  0  0  0  0  0  0  0
  147.8194  136.3578  156.1386 O   0  0  0  0  0  0  0  0  0  0  0  0
  149.3652  137.1988  154.6753 N   0  0  0  0  0  0  0  0  0  0  0  0
  149.8900  138.3159  155.3803 C   0  0  0  0  0  0  0  0  0  0  0  0
  150.7548  139.2836  154.8191 C   0  0  0  0  0  0  0  0  0  0  0  0
  151.2277  140.3318  155.6316 C   0  0  0  0  0  0  0  0  0  0  0  0
  150.8332  140.3905  156.9914 C   0  0  0  0  0  0  0  0  0  0  0  0
  151.2836  141.4221  157.8466 N   0  0  0  0  0  0  0  0  0  0  0  0
  151.2506  142.8089  157.3926 C   0  0  0  0  0  0  0  0  0  0  0  0
  151.7724  141.1063  159.1831 C   0  0  0  0  0  0  0  0  0  0  0  0
  150.0117  139.4536  157.5249 N   0  0  0  0  0  0  0  0  0  0  0  0
  149.5611  138.4509  156.7432 C   0  0  0  0  0  0  0  0  0  0  0  0
  145.9564  134.6396  153.1408 C   0  0  0  0  0  0  0  0  0  0  0  0
  143.4702  134.3430  150.0203 H   0  0  0  0  0  0  0  0  0  0  0  0
  143.7907  133.8702  151.6842 H   0  0  0  0  0  0  0  0  0  0  0  0
  144.5353  132.9892  150.3512 H   0  0  0  0  0  0  0  0  0  0  0  0
  145.8858  135.0481  149.7505 H   0  0  0  0  0  0  0  0  0  0  0  0
  145.0360  135.9412  150.9887 H   0  0  0  0  0  0  0  0  0  0  0  0
  146.2720  132.4635  151.5347 H   0  0  0  0  0  0  0  0  0  0  0  0
  147.4154  133.2021  150.4308 H   0  0  0  0  0  0  0  0  0  0  0  0
  148.5824  131.9162  152.2317 H   0  0  0  0  0  0  0  0  0  0  0  0
  149.0323  133.6012  152.2214 H   0  0  0  0  0  0  0  0  0  0  0  0
  147.0519  132.2547  154.1200 H   0  0  0  0  0  0  0  0  0  0  0  0
  148.6151  132.8984  154.5532 H   0  0  0  0  0  0  0  0  0  0  0  0
  146.6945  134.4107  155.1614 H   0  0  0  0  0  0  0  0  0  0  0  0
  148.6446  135.5346  153.2193 H   0  0  0  0  0  0  0  0  0  0  0  0
  149.8038  137.0081  153.7862 H   0  0  0  0  0  0  0  0  0  0  0  0
  151.0789  139.2391  153.7914 H   0  0  0  0  0  0  0  0  0  0  0  0
  151.8877  141.0660  155.1952 H   0  0  0  0  0  0  0  0  0  0  0  0
  150.2312  143.1067  157.1449 H   0  0  0  0  0  0  0  0  0  0  0  0
  151.8741  142.9368  156.5072 H   0  0  0  0  0  0  0  0  0  0  0  0
  151.6186  143.4891  158.1607 H   0  0  0  0  0  0  0  0  0  0  0  0
  150.9901  140.6294  159.7745 H   0  0  0  0  0  0  0  0  0  0  0  0
  152.0884  142.0048  159.7131 H   0  0  0  0  0  0  0  0  0  0  0  0
  152.6295  140.4344  159.1292 H   0  0  0  0  0  0  0  0  0  0  0  0
  148.9144  137.7322  157.2251 H   0  0  0  0  0  0  0  0  0  0  0  0
  145.4850  135.6032  153.3284 H   0  0  0  0  0  0  0  0  0  0  0  0
  145.1780  133.8896  153.2907 H   0  0  0  0  0  0  0  0  0  0  0  0
  147.2008  135.2325  151.6559 H   0  0  0  0  0  0  0  0  0  0  0  0
  1  2  1  0  0  0  0
  1 22  1  0  0  0  0
  1 23  1  0  0  0  0
  1 24  1  0  0  0  0
  2  3  1  0  0  0  0
  2 25  1  0  0  0  0
  2 26  1  0  0  0  0
  3 21  1  0  0  0  0
  3  4  1  0  0  0  0
  3 47  1  0  0  0  0
  4  5  1  0  0  0  0
  4 27  1  0  0  0  0
  4 28  1  0  0  0  0
  5  6  1  0  0  0  0
  5 29  1  0  0  0  0
  5 30  1  0  0  0  0
  6  7  1  0  0  0  0
  6 31  1  0  0  0  0
  6 32  1  0  0  0  0
  7  8  1  0  0  0  0
  7 21  1  0  0  0  0
  7 33  1  0  0  0  0
  8  9  1  0  0  0  0
  8 34  1  0  0  0  0
  9 10  2  0  0  0  0
  9 11  1  0  0  0  0
 11 12  1  0  0  0  0
 11 35  1  0  0  0  0
 12 20  1  0  0  0  0
 12 13  2  0  0  0  0
 13 14  1  0  0  0  0
 13 36  1  0  0  0  0
 14 15  2  0  0  0  0
 14 37  1  0  0  0  0
 15 16  1  0  0  0  0
 15 19  1  0  0  0  0
 16 17  1  0  0  0  0
 16 18  1  0  0  0  0
 17 38  1  0  0  0  0
 17 39  1  0  0  0  0
 17 40  1  0  0  0  0
 18 41  1  0  0  0  0
 18 42  1  0  0  0  0
 18 43  1  0  0  0  0
 19 20  2  0  0  0  0
 20 44  1  0  0  0  0
 21 45  1  0  0  0  0
 21 46  1  0  0  0  0
M  CHG  1   3   1
M  END
> <s_m_source_file>
AV-unprocessed.smi

> <i_m_source_file_index>
1093

> <i_lp_mmshare_version>
43012

> <i_f3d_flags>
0

> <s_epik_input>
W0NIM11bQ0gyXU4xW0NIMl1bQ0gyXVtDSDJdW0NASF0oW0NIMl0xKVtOSF1DKD1PKVtOSF1jMltjSF1bY0hdYyhOKFtDSDNdKVtDSDNdKW5bY0hdMg==

> <s_epik_cmdline>
J2VwaWtfcHl0aG9uJywgJy1waCcsICc3LjAnLCAnLXRuJywgJzgnLCAnLW1hJywgJzIwMCcsICctbWV0YWxfYmluZGluZycsICctaW1hZScsICc8aW5maWxlLm1hZT4nLCAnLW9tYWUnLCAnPG91dGZpbGUubWFlPic=

> <r_lp_tautomer_probability>
1

> <r_epik_Ionization_Penalty>
0.489418

> <r_epik_Ionization_Penalty_Charging>
0.00268196

> <r_epik_Ionization_Penalty_Neutral>
0.486736

> <r_epik_State_Penalty>
0.491157

> <r_epik_Charging_Adjusted_Penalty>
0.493839

> <i_epik_Tot_Q>
1

> <i_epik_Tot_abs_Q>
1

> <r_epik_Metal_State_Penalty>
0.266953

> <b_epik_Metal_Only>
0

> <s_lp_Force_Field>
OPLS_2005

> <r_lp_Energy>
27.714

> <b_lp_Chiralities_Consistent>
1

> <s_lp_Variant>
AV-unprocessed.smi:1093-6

> <Gold.Version>
5.8.1

> <Gold.Id.Protein>
6NUR|6NUR_protein|mol2

> <Gold.PLP.Fitness>
39.7138

> <Gold.PLP.PLP>
-31.2477

> <Gold.PLP.part.hbond>
-2.8879

> <Gold.PLP.part.metal>
0.0000

> <Gold.PLP.part.buried>
-1.8096

> <Gold.PLP.part.nonpolar>
-26.3912

> <Gold.PLP.part.repulsive>
0.0622

> <Gold.PLP.ligand.clash>
0.0000

> <Gold.PLP.ligand.torsion>
0.8303

> <Gold.PLP.Chemscore.Hbond>
3.3689

> <Gold.PLP.Chemscore.CHOScore>
0.0000

> <Gold.PLP.Chemscore.Metal>
0.0000

> <Gold.Chemscore.Hbonds>
donor molecule, donor type, donor heavy atom, donor atom, acceptor molecule, acceptor atom, score
      L1  H     3    47       P1  7948  2.00
      L1  H     8    34       P1  7948  1.00
      L1  H    11    35       P1  7948  0.36

> <Gold.PLP.Chemscore.Internal.Correction>
0.0200

> <Gold.Rescore>
     Score         DG    S(hbond)    S(metal)    S(lipo)     H(rot)  DE(clash)    DE(int)     intcor
     15.72     -17.96       2.11        0.00      72.36       1.18       0.01       2.23       ----

> <Gold.Chemscore.Fitness>
15.7157

> <Gold.Chemscore.DG>
-17.9629

> <Gold.Chemscore.ZeroCoef>
-5.4800

> <Gold.Chemscore.Hbond>
2.1104

> <Gold.Chemscore.Metal>
0.0000

> <Gold.Chemscore.Lipo>
72.3564

> <Gold.Chemscore.Internal_Hbond>
0.0000

> <Gold.Chemscore.DEClash>
0.0149

> <Gold.Chemscore.DEInternal>
2.2324

> <Gold.Chemscore.Rot>
1.1842

> <Gold.Chemscore.Internal.Correction>
   9.000000E+99

> <Gold.Chemscore.Hbonds>
donor molecule, donor type, donor heavy atom, donor atom, acceptor molecule, acceptor atom, score
      L1  H     3    47       P1  7948  0.93
      L1  H     8    34       P1  7948  0.86
      L1  H    11    35       P1  7948  0.24

> <Gold.Chemscore.Hbond.Weighted>
-7.0489

> <Gold.Chemscore.Metal.Weighted>
-0.0000

> <Gold.Chemscore.Lipo.Weighted>
-8.4657

> <Gold.Chemscore.Internal_Hbond.Weighted>
0.0000

> <Gold.Chemscore.DEClash.Weighted>
0.0149

> <Gold.Chemscore.DEInternal.Weighted>
2.2324

> <Gold.Chemscore.Rot.Weighted>
3.0317

> <Gold.Chemscore.Internal.Correction.Weighted>
   9.000000E+99

> <Gold.Protein.RotatedTorsions>
[ 6907 6896 6895 6894 ] final   79.78 input  -60.11 | X-H torsion
[ 7974 7965 7964 7962 ] final  -14.95 input  175.53 | X-H torsion
[ 8008 7997 7996 7995 ] final  -41.79 input   59.86 | X-H torsion
[ 10167 10162 10161 10158 ] final   86.96 input  -65.29 | X-H torsion
[ 10718 10713 10712 10709 ] final  108.60 input   66.30 | X-H torsion
[ 10763 10752 10751 10750 ] final  -58.46 input  -60.55 | X-H torsion
[ 11005 11000 10999 10996 ] final  -38.98 input  -57.11 | X-H torsion

> <Gold.Protein.ActiveResidues>
 VAL166  LYS551  ARG553  GLY616  TRP617  ASP618  TYR619  PRO620  LYS621  CYS622 
 ASP623  PHE694  ASN695  SER759  ASP760  ASP761  ALA762  ILE779  LEU786  VAL792 
 PHE793  MET794  SER795  GLU796  ALA797  LYS798  CYS799  TRP800  GLU811  SER814 

> <Gold.Protein.RotatedAtoms>
  152.5211  134.3458  159.9233 H   0  0  0  0  0  0  0  0  0  0  0  0  # atno 6907 bound_to 6896
  151.3408  133.3957  159.2678 H   0  0  0  0  0  0  0  0  0  0  0  0  # atno 6908 bound_to 6896
  150.9805  134.9179  159.7899 H   0  0  0  0  0  0  0  0  0  0  0  0  # atno 6909 bound_to 6896
  146.2053  140.3422  142.8409 H   0  0  0  0  0  0  0  0  0  0  0  0  # atno 7974 bound_to 7965
  154.4002  140.1490  156.3249 H   0  0  0  0  0  0  0  0  0  0  0  0  # atno 8008 bound_to 7997
  155.8496  140.3458  155.5663 H   0  0  0  0  0  0  0  0  0  0  0  0  # atno 8009 bound_to 7997
  155.7999  140.0868  157.1953 H   0  0  0  0  0  0  0  0  0  0  0  0  # atno 8010 bound_to 7997
  139.8822  144.6433  150.8830 H   0  0  0  0  0  0  0  0  0  0  0  0  # atno 10167 bound_to 10162
  157.6579  131.0897  150.6330 H   0  0  0  0  0  0  0  0  0  0  0  0  # atno 10718 bound_to 10713
  154.2385  135.6348  153.5199 H   0  0  0  0  0  0  0  0  0  0  0  0  # atno 10763 bound_to 10752
  152.9935  135.5536  154.5936 H   0  0  0  0  0  0  0  0  0  0  0  0  # atno 10764 bound_to 10752
  154.5436  135.2896  155.1048 H   0  0  0  0  0  0  0  0  0  0  0  0  # atno 10765 bound_to 10752
  141.0068  133.6927  156.2126 H   0  0  0  0  0  0  0  0  0  0  0  0  # atno 11005 bound_to 11000
  144.8777  140.7359  143.6006 LP  0  0  0  0  0  0  0  0  0  0  0  0  # atno 17320 bound_to 7965
  145.3342  139.1751  143.4520 LP  0  0  0  0  0  0  0  0  0  0  0  0  # atno 17321 bound_to 7965
  140.7742  143.3577  151.1890 LP  0  0  0  0  0  0  0  0  0  0  0  0  # atno 17342 bound_to 10162
  139.7185  143.9261  152.2976 LP  0  0  0  0  0  0  0  0  0  0  0  0  # atno 17343 bound_to 10162
  156.6635  130.4519  149.5680 LP  0  0  0  0  0  0  0  0  0  0  0  0  # atno 17370 bound_to 10713
  156.2050  130.6643  151.1208 LP  0  0  0  0  0  0  0  0  0  0  0  0  # atno 17371 bound_to 10713
  140.6799  134.4778  157.5589 LP  0  0  0  0  0  0  0  0  0  0  0  0  # atno 17394 bound_to 11000
  139.9068  134.8432  156.1677 LP  0  0  0  0  0  0  0  0  0  0  0  0  # atno 17395 bound_to 11000

$$$$
