AV-unprocessed.smi:529|AV-procd|sdf|2840|dock7
  -GOLD-   2262023333D 1   1.00000     0.00000
 Structure written by MMmdl.
 30 31  0  0  0  0  0  0  0  0  1 V2000
  149.3834  138.4574  153.7288 N   0  0  0  0  0  0  0  0  0  0  0  0
  148.7232  139.5560  153.8418 C   0  0  0  0  0  0  0  0  0  0  0  0
  147.0942  139.9278  153.1025 S   0  0  0  0  0  0  0  0  0  0  0  0
  147.1311  141.5148  153.8407 C   0  0  0  0  0  0  0  0  0  0  0  0
  148.2437  141.7155  154.5450 C   0  0  0  0  0  0  0  0  0  0  0  0
  149.1470  140.6725  154.5667 N   0  0  0  0  0  0  0  0  0  0  0  0
  150.3951  140.7327  155.3285 C   0  0  0  0  0  0  0  0  0  0  0  0
  150.2132  141.2509  156.7618 C   0  0  0  0  0  0  0  0  0  0  0  0
  149.4113  140.7228  157.5336 O   0  0  0  0  0  0  0  0  0  0  0  0
  150.9684  142.3066  157.1001 N   0  0  0  0  0  0  0  0  0  0  0  0
  150.9564  142.9616  158.4054 C   0  0  0  0  0  0  0  0  0  0  0  0
  150.9667  144.4995  158.2754 C   0  0  0  0  0  0  0  0  0  0  0  0
  152.0785  144.9966  159.2008 C   0  0  0  0  0  0  0  0  0  0  0  0
  153.0855  143.8513  159.2287 C   0  0  0  0  0  0  0  0  0  0  0  0
  152.2176  142.5929  159.2082 C   0  0  0  0  0  0  0  0  0  0  0  0
  148.8742  137.7994  153.1571 H   0  0  0  0  0  0  0  0  0  0  0  0
  146.3170  142.2122  153.7104 H   0  0  0  0  0  0  0  0  0  0  0  0
  148.5008  142.6087  155.0957 H   0  0  0  0  0  0  0  0  0  0  0  0
  150.8679  139.7497  155.3551 H   0  0  0  0  0  0  0  0  0  0  0  0
  151.0984  141.3885  154.8134 H   0  0  0  0  0  0  0  0  0  0  0  0
  151.5975  142.6838  156.4062 H   0  0  0  0  0  0  0  0  0  0  0  0
  150.0769  142.6353  158.9636 H   0  0  0  0  0  0  0  0  0  0  0  0
  151.1985  144.7986  157.2519 H   0  0  0  0  0  0  0  0  0  0  0  0
  150.0008  144.9388  158.5263 H   0  0  0  0  0  0  0  0  0  0  0  0
  152.5175  145.9358  158.8630 H   0  0  0  0  0  0  0  0  0  0  0  0
  151.6787  145.1567  160.2030 H   0  0  0  0  0  0  0  0  0  0  0  0
  153.7060  143.8860  158.3322 H   0  0  0  0  0  0  0  0  0  0  0  0
  153.7464  143.8921  160.0947 H   0  0  0  0  0  0  0  0  0  0  0  0
  151.9307  142.3416  160.2301 H   0  0  0  0  0  0  0  0  0  0  0  0
  152.7525  141.7313  158.8065 H   0  0  0  0  0  0  0  0  0  0  0  0
  1  2  2  0  0  0  0
  1 16  1  0  0  0  0
  2  6  1  0  0  0  0
  2  3  1  0  0  0  0
  3  4  1  0  0  0  0
  4  5  2  0  0  0  0
  4 17  1  0  0  0  0
  5  6  1  0  0  0  0
  5 18  1  0  0  0  0
  6  7  1  0  0  0  0
  7  8  1  0  0  0  0
  7 19  1  0  0  0  0
  7 20  1  0  0  0  0
  8  9  2  0  0  0  0
  8 10  1  0  0  0  0
 10 11  1  0  0  0  0
 10 21  1  0  0  0  0
 11 15  1  0  0  0  0
 11 12  1  0  0  0  0
 11 22  1  0  0  0  0
 12 13  1  0  0  0  0
 12 23  1  0  0  0  0
 12 24  1  0  0  0  0
 13 14  1  0  0  0  0
 13 25  1  0  0  0  0
 13 26  1  0  0  0  0
 14 15  1  0  0  0  0
 14 27  1  0  0  0  0
 14 28  1  0  0  0  0
 15 29  1  0  0  0  0
 15 30  1  0  0  0  0
M  END
> <s_m_source_file>
AV-unprocessed.smi

> <i_m_source_file_index>
529

> <i_lp_mmshare_version>
43012

> <i_f3d_flags>
0

> <s_epik_input>
W0hdL049YzFcc1tjSF1bY0hdbjFbQ0gyXUMoPU8pW05IXVtDSF0yW0NIMl1bQ0gyXVtDSDJdW0NIMl0y

> <s_epik_cmdline>
J2VwaWtfcHl0aG9uJywgJy1waCcsICc3LjAnLCAnLXRuJywgJzgnLCAnLW1hJywgJzIwMCcsICctbWV0YWxfYmluZGluZycsICctaW1hZScsICc8aW5maWxlLm1hZT4nLCAnLW9tYWUnLCAnPG91dGZpbGUubWFlPic=

> <r_epik_Ionization_Penalty>
2.18041

> <r_epik_Ionization_Penalty_Charging>
2.18041

> <r_epik_Ionization_Penalty_Neutral>
1.25369e-07

> <r_epik_State_Penalty>
2.33404

> <r_epik_Charging_Adjusted_Penalty>
4.51444

> <i_epik_Tot_Q>
0

> <i_epik_Tot_abs_Q>
0

> <r_epik_Metal_State_Penalty>
2.33404

> <b_epik_Metal_Only>
0

> <s_lp_Force_Field>
OPLS_2005

> <r_lp_Energy>
15.3577

> <b_lp_Chiralities_Consistent>
1

> <s_lp_Variant>
AV-unprocessed.smi:529-2

> <Gold.Version>
5.8.1

> <Gold.Id.Protein>
6NUR|6NUR_protein|mol2

> <Gold.PLP.Fitness>
40.4545

> <Gold.PLP.PLP>
-35.4254

> <Gold.PLP.part.hbond>
-1.8921

> <Gold.PLP.part.metal>
0.0000

> <Gold.PLP.part.buried>
-0.6988

> <Gold.PLP.part.nonpolar>
-32.8156

> <Gold.PLP.part.repulsive>
0.0683

> <Gold.PLP.ligand.clash>
0.0000

> <Gold.PLP.ligand.torsion>
0.3567

> <Gold.PLP.Chemscore.Hbond>
0.9120

> <Gold.PLP.Chemscore.CHOScore>
1.0000

> <Gold.PLP.Chemscore.Metal>
0.0000

> <Gold.Chemscore.Hbonds>
donor molecule, donor type, donor heavy atom, donor atom, acceptor molecule, acceptor atom, score
      L1  H     1    16       P1  7948  0.93
      L1  C     5    18       P1  8028  1.00

> <Gold.PLP.Chemscore.Internal.Correction>
0.0066

> <Gold.Rescore>
     Score         DG    S(hbond)    S(metal)    S(lipo)     H(rot)  DE(clash)    DE(int)     intcor
     14.07     -14.49       0.95        0.00      84.09       1.56       0.01       0.41       ----

> <Gold.Chemscore.Fitness>
14.0714

> <Gold.Chemscore.DG>
-14.4900

> <Gold.Chemscore.ZeroCoef>
-5.4800

> <Gold.Chemscore.Hbond>
0.9502

> <Gold.Chemscore.Metal>
0.0000

> <Gold.Chemscore.Lipo>
84.0921

> <Gold.Chemscore.Internal_Hbond>
0.0000

> <Gold.Chemscore.DEClash>
0.0067

> <Gold.Chemscore.DEInternal>
0.4119

> <Gold.Chemscore.Rot>
1.5635

> <Gold.Chemscore.Internal.Correction>
   9.000000E+99

> <Gold.Chemscore.Hbonds>
donor molecule, donor type, donor heavy atom, donor atom, acceptor molecule, acceptor atom, score
      L1  H     1    16       P1  7948  0.85

> <Gold.Chemscore.Hbond.Weighted>
-3.1737

> <Gold.Chemscore.Metal.Weighted>
-0.0000

> <Gold.Chemscore.Lipo.Weighted>
-9.8388

> <Gold.Chemscore.Internal_Hbond.Weighted>
0.0000

> <Gold.Chemscore.DEClash.Weighted>
0.0067

> <Gold.Chemscore.DEInternal.Weighted>
0.4119

> <Gold.Chemscore.Rot.Weighted>
4.0025

> <Gold.Chemscore.Internal.Correction.Weighted>
   9.000000E+99

> <Gold.Protein.RotatedTorsions>
[ 6907 6896 6895 6894 ] final -117.42 input  -60.11 | X-H torsion
[ 7974 7965 7964 7962 ] final  -38.87 input  175.53 | X-H torsion
[ 8008 7997 7996 7995 ] final  -32.10 input   59.86 | X-H torsion
[ 10167 10162 10161 10158 ] final   78.56 input  -65.29 | X-H torsion
[ 10718 10713 10712 10709 ] final   86.43 input   66.30 | X-H torsion
[ 10763 10752 10751 10750 ] final   59.64 input  -60.55 | X-H torsion
[ 11005 11000 10999 10996 ] final   54.80 input  -57.11 | X-H torsion

> <Gold.Protein.ActiveResidues>
 VAL166  LYS551  ARG553  GLY616  TRP617  ASP618  TYR619  PRO620  LYS621  CYS622 
 ASP623  PHE694  ASN695  SER759  ASP760  ASP761  ALA762  ILE779  LEU786  VAL792 
 PHE793  MET794  SER795  GLU796  ALA797  LYS798  CYS799  TRP800  GLU811  SER814 

> <Gold.Protein.RotatedAtoms>
  150.8135  133.8379  159.3171 H   0  0  0  0  0  0  0  0  0  0  0  0  # atno 6907 bound_to 6896
  151.6158  135.1034  160.0100 H   0  0  0  0  0  0  0  0  0  0  0  0  # atno 6908 bound_to 6896
  152.4227  133.7102  159.6531 H   0  0  0  0  0  0  0  0  0  0  0  0  # atno 6909 bound_to 6896
  146.0447  140.6562  142.9070 H   0  0  0  0  0  0  0  0  0  0  0  0  # atno 7974 bound_to 7965
  154.4191  140.1746  156.1673 H   0  0  0  0  0  0  0  0  0  0  0  0  # atno 8008 bound_to 7997
  155.9789  140.3379  155.6620 H   0  0  0  0  0  0  0  0  0  0  0  0  # atno 8009 bound_to 7997
  155.6526  140.0692  157.2572 H   0  0  0  0  0  0  0  0  0  0  0  0  # atno 8010 bound_to 7997
  139.9696  144.5903  150.7997 H   0  0  0  0  0  0  0  0  0  0  0  0  # atno 10167 bound_to 10162
  157.6928  131.0215  150.2972 H   0  0  0  0  0  0  0  0  0  0  0  0  # atno 10718 bound_to 10713
  152.9900  135.5564  154.5746 H   0  0  0  0  0  0  0  0  0  0  0  0  # atno 10763 bound_to 10752
  154.5139  135.2804  155.1321 H   0  0  0  0  0  0  0  0  0  0  0  0  # atno 10764 bound_to 10752
  154.2702  135.6364  153.5360 H   0  0  0  0  0  0  0  0  0  0  0  0  # atno 10765 bound_to 10752
  140.0657  134.5539  155.9101 H   0  0  0  0  0  0  0  0  0  0  0  0  # atno 11005 bound_to 11000
  144.7092  140.3972  143.7094 LP  0  0  0  0  0  0  0  0  0  0  0  0  # atno 17320 bound_to 7965
  145.6825  139.1621  143.2692 LP  0  0  0  0  0  0  0  0  0  0  0  0  # atno 17321 bound_to 7965
  140.7526  143.2993  151.3121 LP  0  0  0  0  0  0  0  0  0  0  0  0  # atno 17342 bound_to 10162
  139.6491  144.0396  152.2613 LP  0  0  0  0  0  0  0  0  0  0  0  0  # atno 17343 bound_to 10162
  156.3494  130.3828  149.7342 LP  0  0  0  0  0  0  0  0  0  0  0  0  # atno 17370 bound_to 10713
  156.4825  130.8047  151.3061 LP  0  0  0  0  0  0  0  0  0  0  0  0  # atno 17371 bound_to 10713
  141.1992  133.6605  156.5830 LP  0  0  0  0  0  0  0  0  0  0  0  0  # atno 17394 bound_to 11000
  140.3702  134.7612  157.4593 LP  0  0  0  0  0  0  0  0  0  0  0  0  # atno 17395 bound_to 11000

$$$$
