AV-unprocessed.smi:898|AV-procd|sdf|4085|dock8
  -GOLD-   22720 1573D 1   1.00000     0.00000
 Structure written by MMmdl.
 33 35  0  0  0  0  0  0  0  0  2 V2000
  154.5064  140.0767  159.5760 O   0  0  0  0  0  0  0  0  0  0  0  0
  153.3162  139.7799  159.7031 C   0  0  0  0  0  0  0  0  0  0  0  0
  152.7944  138.5323  159.6776 N   0  5  0  0  0  0  0  0  0  0  0  0
  153.1381  137.6416  160.6225 C   0  0  0  0  0  0  0  0  0  0  0  0
  153.2343  136.3286  160.3707 N   0  0  0  0  0  0  0  0  0  0  0  0
  153.6038  135.5864  161.4830 N   0  0  0  0  0  0  0  0  0  0  0  0
  153.7896  136.3525  162.5604 C   0  0  0  0  0  0  0  0  0  0  0  0
  154.1877  135.7884  163.8830 C   0  0  0  0  0  0  0  0  0  0  0  0
  154.5652  134.3312  164.0191 C   0  0  0  0  0  0  0  0  0  0  0  0
  153.2882  134.8361  164.6406 C   0  0  0  0  0  0  0  0  0  0  0  0
  153.5303  138.0681  162.2877 S   0  0  0  0  0  0  0  0  0  0  0  0
  152.4009  140.7425  159.8873 N   0  0  0  0  0  0  0  0  0  0  0  0
  152.6596  142.1788  159.9514 C   0  0  2  0  0  0  0  0  0  0  0  0
  151.9834  142.7904  161.1965 C   0  0  0  0  0  0  0  0  0  0  0  0
  152.2666  144.2941  161.3436 C   0  0  0  0  0  0  0  0  0  0  0  0
  151.7459  145.1065  160.1499 C   0  0  0  0  0  0  0  0  0  0  0  0
  152.5632  144.6082  158.6101 S   0  0  0  0  0  0  0  0  0  0  0  0
  152.1645  142.8384  158.6527 C   0  0  0  0  0  0  0  0  0  0  0  0
  154.7550  136.5182  164.4571 H   0  0  0  0  0  0  0  0  0  0  0  0
  154.4796  133.7035  163.1342 H   0  0  0  0  0  0  0  0  0  0  0  0
  155.3886  134.0867  164.6871 H   0  0  0  0  0  0  0  0  0  0  0  0
  153.2592  134.9301  165.7240 H   0  0  0  0  0  0  0  0  0  0  0  0
  152.3538  134.5290  164.1747 H   0  0  0  0  0  0  0  0  0  0  0  0
  151.4402  140.4491  159.9875 H   0  0  0  0  0  0  0  0  0  0  0  0
  153.7378  142.3365  160.0185 H   0  0  0  0  0  0  0  0  0  0  0  0
  150.9063  142.6231  161.1540 H   0  0  0  0  0  0  0  0  0  0  0  0
  152.3342  142.2797  162.0940 H   0  0  0  0  0  0  0  0  0  0  0  0
  151.7986  144.6592  162.2582 H   0  0  0  0  0  0  0  0  0  0  0  0
  153.3382  144.4580  161.4624 H   0  0  0  0  0  0  0  0  0  0  0  0
  150.6690  144.9740  160.0401 H   0  0  0  0  0  0  0  0  0  0  0  0
  151.9231  146.1700  160.3109 H   0  0  0  0  0  0  0  0  0  0  0  0
  152.6249  142.3640  157.7854 H   0  0  0  0  0  0  0  0  0  0  0  0
  151.0856  142.7172  158.5481 H   0  0  0  0  0  0  0  0  0  0  0  0
  1  2  2  0  0  0  0
  2  3  1  0  0  0  0
  2 12  1  0  0  0  0
  3  4  1  0  0  0  0
  4 11  1  0  0  0  0
  4  5  2  0  0  0  0
  5  6  1  0  0  0  0
  6  7  2  0  0  0  0
  7  8  1  0  0  0  0
  7 11  1  0  0  0  0
  8 10  1  0  0  0  0
  8  9  1  0  0  0  0
  8 19  1  0  0  0  0
  9 10  1  0  0  0  0
  9 20  1  0  0  0  0
  9 21  1  0  0  0  0
 10 22  1  0  0  0  0
 10 23  1  0  0  0  0
 12 13  1  0  0  0  0
 12 24  1  0  0  0  0
 13 18  1  0  0  0  0
 13 14  1  0  0  0  0
 13 25  1  0  0  0  0
 14 15  1  0  0  0  0
 14 26  1  0  0  0  0
 14 27  1  0  0  0  0
 15 16  1  0  0  0  0
 15 28  1  0  0  0  0
 15 29  1  0  0  0  0
 16 17  1  0  0  0  0
 16 30  1  0  0  0  0
 16 31  1  0  0  0  0
 17 18  1  0  0  0  0
 18 32  1  0  0  0  0
 18 33  1  0  0  0  0
M  CHG  1   3  -1
M  END
> <s_m_source_file>
AV-unprocessed.smi

> <i_m_source_file_index>
898

> <i_lp_mmshare_version>
43012

> <i_f3d_flags>
0

> <s_epik_input>
W0NIMl0xU1tDSDJdW0NIMl1bQ0gyXVtDQEhdMVtOSF1DKD1PKVtOSF1jMm5uYyhzMilbQ0hdM1tDSDJdW0NIMl0z

> <s_epik_cmdline>
J2VwaWtfcHl0aG9uJywgJy1waCcsICc3LjAnLCAnLXRuJywgJzgnLCAnLW1hJywgJzIwMCcsICctbWV0YWxfYmluZGluZycsICctaW1hZScsICc8aW5maWxlLm1hZT4nLCAnLW9tYWUnLCAnPG91dGZpbGUubWFlPic=

> <r_lp_tautomer_probability>
1

> <r_epik_Ionization_Penalty>
4.71411

> <r_epik_Ionization_Penalty_Charging>
4.5615

> <r_epik_Ionization_Penalty_Neutral>
0.152604

> <r_epik_State_Penalty>
4.56123

> <r_epik_Charging_Adjusted_Penalty>
9.12273

> <i_epik_Tot_Q>
-1

> <i_epik_Tot_abs_Q>
1

> <r_epik_Metal_State_Penalty>
0.850765

> <b_epik_Metal_Only>
1

> <s_lp_Force_Field>
OPLS_2005

> <r_lp_Energy>
0.497958

> <b_lp_Chiralities_Consistent>
1

> <s_lp_Variant>
AV-unprocessed.smi:898-3

> <Gold.Version>
5.8.1

> <Gold.Id.Protein>
6NUR|6NUR_protein|mol2

> <Gold.PLP.Fitness>
39.9448

> <Gold.PLP.PLP>
-37.1064

> <Gold.PLP.part.hbond>
-2.1455

> <Gold.PLP.part.metal>
0.0000

> <Gold.PLP.part.buried>
-4.5736

> <Gold.PLP.part.nonpolar>
-30.7598

> <Gold.PLP.part.repulsive>
0.1320

> <Gold.PLP.ligand.clash>
0.0000

> <Gold.PLP.ligand.torsion>
1.0174

> <Gold.PLP.Chemscore.Hbond>
1.5753

> <Gold.PLP.Chemscore.CHOScore>
0.0000

> <Gold.PLP.Chemscore.Metal>
0.0000

> <Gold.Chemscore.Hbonds>
donor molecule, donor type, donor heavy atom, donor atom, acceptor molecule, acceptor atom, score
      P1  H  6896  6908       L1     5  0.20
      P1  H  7997  8010       L1     1  0.27

> <Gold.PLP.Chemscore.Internal.Correction>
0.1473

> <Gold.Rescore>
     Score         DG    S(hbond)    S(metal)    S(lipo)     H(rot)  DE(clash)    DE(int)     intcor
     18.11     -20.74       1.77        0.00     105.97       1.19       1.67       0.96       ----

> <Gold.Chemscore.Fitness>
18.1130

> <Gold.Chemscore.DG>
-20.7424

> <Gold.Chemscore.ZeroCoef>
-5.4800

> <Gold.Chemscore.Hbond>
1.7703

> <Gold.Chemscore.Metal>
0.0000

> <Gold.Chemscore.Lipo>
105.9723

> <Gold.Chemscore.Internal_Hbond>
0.0000

> <Gold.Chemscore.DEClash>
1.6723

> <Gold.Chemscore.DEInternal>
0.9572

> <Gold.Chemscore.Rot>
1.1911

> <Gold.Chemscore.Internal.Correction>
   9.000000E+99

> <Gold.Chemscore.Hbonds>
donor molecule, donor type, donor heavy atom, donor atom, acceptor molecule, acceptor atom, score
      P1  H  7997  8010       L1     1  0.22

> <Gold.Chemscore.Hbond.Weighted>
-5.9129

> <Gold.Chemscore.Metal.Weighted>
-0.0000

> <Gold.Chemscore.Lipo.Weighted>
-12.3988

> <Gold.Chemscore.Internal_Hbond.Weighted>
0.0000

> <Gold.Chemscore.DEClash.Weighted>
1.6723

> <Gold.Chemscore.DEInternal.Weighted>
0.9572

> <Gold.Chemscore.Rot.Weighted>
3.0492

> <Gold.Chemscore.Internal.Correction.Weighted>
   9.000000E+99

> <Gold.Protein.RotatedTorsions>
[ 6907 6896 6895 6894 ] final  -85.56 input  -60.11 | X-H torsion
[ 7974 7965 7964 7962 ] final  167.89 input  175.53 | X-H torsion
[ 8008 7997 7996 7995 ] final   -4.21 input   59.86 | X-H torsion
[ 10167 10162 10161 10158 ] final -115.10 input  -65.29 | X-H torsion
[ 10718 10713 10712 10709 ] final  -70.33 input   66.30 | X-H torsion
[ 10763 10752 10751 10750 ] final  174.11 input  -60.55 | X-H torsion
[ 11005 11000 10999 10996 ] final  -14.80 input  -57.11 | X-H torsion

> <Gold.Protein.ActiveResidues>
 VAL166  LYS551  ARG553  GLY616  TRP617  ASP618  TYR619  PRO620  LYS621  CYS622 
 ASP623  PHE694  ASN695  SER759  ASP760  ASP761  ALA762  ILE779  LEU786  VAL792 
 PHE793  MET794  SER795  GLU796  ALA797  LYS798  CYS799  TRP800  GLU811  SER814 

> <Gold.Protein.RotatedAtoms>
  150.6870  134.3186  159.4776 H   0  0  0  0  0  0  0  0  0  0  0  0  # atno 6907 bound_to 6896
  152.1064  134.9303  160.0577 H   0  0  0  0  0  0  0  0  0  0  0  0  # atno 6908 bound_to 6896
  152.0563  133.4007  159.4435 H   0  0  0  0  0  0  0  0  0  0  0  0  # atno 6909 bound_to 6896
  144.7408  139.8827  143.6397 H   0  0  0  0  0  0  0  0  0  0  0  0  # atno 7974 bound_to 7965
  154.6167  140.2490  155.7600 H   0  0  0  0  0  0  0  0  0  0  0  0  # atno 8008 bound_to 7997
  156.2403  140.2935  156.0374 H   0  0  0  0  0  0  0  0  0  0  0  0  # atno 8009 bound_to 7997
  155.1963  140.0393  157.2900 H   0  0  0  0  0  0  0  0  0  0  0  0  # atno 8010 bound_to 7997
  140.0938  143.4675  152.1854 H   0  0  0  0  0  0  0  0  0  0  0  0  # atno 10167 bound_to 10162
  156.0413  130.4329  150.2279 H   0  0  0  0  0  0  0  0  0  0  0  0  # atno 10718 bound_to 10713
  154.4493  135.2764  155.1792 H   0  0  0  0  0  0  0  0  0  0  0  0  # atno 10763 bound_to 10752
  154.3626  135.6126  153.5702 H   0  0  0  0  0  0  0  0  0  0  0  0  # atno 10764 bound_to 10752
  152.9846  135.5838  154.4835 H   0  0  0  0  0  0  0  0  0  0  0  0  # atno 10765 bound_to 10752
  140.7901  133.8295  155.9371 H   0  0  0  0  0  0  0  0  0  0  0  0  # atno 11005 bound_to 11000
  146.1200  139.4216  143.0234 LP  0  0  0  0  0  0  0  0  0  0  0  0  # atno 17320 bound_to 7965
  145.7319  141.0039  143.1347 LP  0  0  0  0  0  0  0  0  0  0  0  0  # atno 17321 bound_to 7965
  139.5710  144.7462  151.3892 LP  0  0  0  0  0  0  0  0  0  0  0  0  # atno 17342 bound_to 10162
  140.7014  143.7621  150.7410 LP  0  0  0  0  0  0  0  0  0  0  0  0  # atno 17343 bound_to 10162
  157.0374  131.0025  151.3294 LP  0  0  0  0  0  0  0  0  0  0  0  0  # atno 17370 bound_to 10713
  157.5234  130.8012  149.7834 LP  0  0  0  0  0  0  0  0  0  0  0  0  # atno 17371 bound_to 10713
  140.9398  134.1915  157.4806 LP  0  0  0  0  0  0  0  0  0  0  0  0  # atno 17394 bound_to 11000
  139.8732  134.9867  156.5336 LP  0  0  0  0  0  0  0  0  0  0  0  0  # atno 17395 bound_to 11000

$$$$
