AV-unprocessed.smi:3180|AV-procd|sdf|12134|dock1
  -GOLD-   2272017573D 1   1.00000     0.00000
 Structure written by MMmdl.
 24 25  0  0  0  0  0  0  0  0  2 V2000
  148.3215  138.7588  152.5919 N   0  3  0  0  0  0  0  0  0  0  0  0
  148.2898  139.2172  153.9906 C   0  0  0  0  0  0  0  0  0  0  0  0
  149.5370  140.0436  154.3355 C   0  0  0  0  0  0  0  0  0  0  0  0
  150.6552  139.1956  154.7079 N   0  0  0  0  0  0  0  0  0  0  0  0
  150.9919  137.9961  154.2089 C   0  0  0  0  0  0  0  0  0  0  0  0
  152.0886  137.4533  154.7350 N   0  0  0  0  0  0  0  0  0  0  0  0
  152.5234  138.3792  155.6619 N   0  0  0  0  0  0  0  0  0  0  0  0
  151.6371  139.3806  155.6147 C   0  0  0  0  0  0  0  0  0  0  0  0
  151.7466  140.6214  156.4426 C   0  0  0  0  0  0  0  0  0  0  0  0
  151.8144  140.5533  157.9521 C   0  0  0  0  0  0  0  0  0  0  0  0
  150.5846  141.1064  157.2811 C   0  0  0  0  0  0  0  0  0  0  0  0
  148.7588  139.4643  152.0161 H   0  0  0  0  0  0  0  0  0  0  0  0
  147.3784  138.5986  152.2671 H   0  0  0  0  0  0  0  0  0  0  0  0
  147.3855  139.8062  154.1442 H   0  0  0  0  0  0  0  0  0  0  0  0
  148.2196  138.3444  154.6409 H   0  0  0  0  0  0  0  0  0  0  0  0
  149.8402  140.6483  153.4797 H   0  0  0  0  0  0  0  0  0  0  0  0
  149.3258  140.7371  155.1500 H   0  0  0  0  0  0  0  0  0  0  0  0
  150.4201  137.5059  153.4344 H   0  0  0  0  0  0  0  0  0  0  0  0
  152.3613  141.3658  155.9402 H   0  0  0  0  0  0  0  0  0  0  0  0
  151.7311  139.5753  158.4223 H   0  0  0  0  0  0  0  0  0  0  0  0
  152.4723  141.2579  158.4566 H   0  0  0  0  0  0  0  0  0  0  0  0
  150.4205  142.1805  157.3384 H   0  0  0  0  0  0  0  0  0  0  0  0
  149.6859  140.4942  157.3133 H   0  0  0  0  0  0  0  0  0  0  0  0
  148.8493  137.8999  152.5292 H   0  0  0  0  0  0  0  0  0  0  0  0
  1  2  1  0  0  0  0
  1 12  1  0  0  0  0
  1 13  1  0  0  0  0
  1 24  1  0  0  0  0
  2  3  1  0  0  0  0
  2 14  1  0  0  0  0
  2 15  1  0  0  0  0
  3  4  1  0  0  0  0
  3 16  1  0  0  0  0
  3 17  1  0  0  0  0
  4  8  1  0  0  0  0
  4  5  1  0  0  0  0
  5  6  2  0  0  0  0
  5 18  1  0  0  0  0
  6  7  1  0  0  0  0
  7  8  2  0  0  0  0
  8  9  1  0  0  0  0
  9 11  1  0  0  0  0
  9 10  1  0  0  0  0
  9 19  1  0  0  0  0
 10 11  1  0  0  0  0
 10 20  1  0  0  0  0
 10 21  1  0  0  0  0
 11 22  1  0  0  0  0
 11 23  1  0  0  0  0
M  CHG  1   1   1
M  END
> <s_m_source_file>
AV-unprocessed.smi

> <i_m_source_file_index>
3180

> <i_lp_mmshare_version>
43012

> <i_f3d_flags>
0

> <s_epik_input>
W05IMl1bQ0gyXVtDSDJdbjFbY0hdbm5jMVtDSF0yW0NIMl1bQ0gyXTI=

> <s_epik_cmdline>
J2VwaWtfcHl0aG9uJywgJy1waCcsICc3LjAnLCAnLXRuJywgJzgnLCAnLW1hJywgJzIwMCcsICctbWV0YWxfYmluZGluZycsICctaW1hZScsICc8aW5maWxlLm1hZT4nLCAnLW9tYWUnLCAnPG91dGZpbGUubWFlPic=

> <r_lp_tautomer_probability>
1

> <r_epik_Ionization_Penalty>
0.00526423

> <r_epik_Ionization_Penalty_Charging>
0.00525499

> <r_epik_Ionization_Penalty_Neutral>
9.23795e-06

> <r_epik_State_Penalty>
0.00383325

> <r_epik_Charging_Adjusted_Penalty>
0.00908824

> <i_epik_Tot_Q>
1

> <i_epik_Tot_abs_Q>
1

> <r_epik_Metal_State_Penalty>
-0

> <b_epik_Metal_Only>
0

> <s_lp_Force_Field>
OPLS_2005

> <r_lp_Energy>
11.3603

> <b_lp_Chiralities_Consistent>
1

> <s_lp_Variant>
AV-unprocessed.smi:3180-1

> <Gold.Version>
5.8.1

> <Gold.Id.Protein>
6NUR|6NUR_protein|mol2

> <Gold.PLP.Fitness>
37.0791

> <Gold.PLP.PLP>
-23.2752

> <Gold.PLP.part.hbond>
-2.8181

> <Gold.PLP.part.metal>
0.0000

> <Gold.PLP.part.buried>
-3.6611

> <Gold.PLP.part.nonpolar>
-16.5925

> <Gold.PLP.part.repulsive>
0.1935

> <Gold.PLP.ligand.clash>
0.0000

> <Gold.PLP.ligand.torsion>
0.5409

> <Gold.PLP.Chemscore.Hbond>
3.8000

> <Gold.PLP.Chemscore.CHOScore>
1.1161

> <Gold.PLP.Chemscore.Metal>
0.0000

> <Gold.Chemscore.Hbonds>
donor molecule, donor type, donor heavy atom, donor atom, acceptor molecule, acceptor atom, score
      L1  H     1    12       P1  7957  0.47
      L1  H     1    24       P1  7948  1.92
      P1  H 10752 10765       L1     6  0.82
      L1  C     5    18       P1  7948  0.74
      L1  C     5    18       P1  7949  0.40

> <Gold.PLP.Chemscore.Internal.Correction>
0.1377

> <Gold.Rescore>
     Score         DG    S(hbond)    S(metal)    S(lipo)     H(rot)  DE(clash)    DE(int)     intcor
     13.12     -13.79       2.79        0.00      30.69       1.79       0.13       0.54       ----

> <Gold.Chemscore.Fitness>
13.1187

> <Gold.Chemscore.DG>
-13.7893

> <Gold.Chemscore.ZeroCoef>
-5.4800

> <Gold.Chemscore.Hbond>
2.7867

> <Gold.Chemscore.Metal>
0.0000

> <Gold.Chemscore.Lipo>
30.6917

> <Gold.Chemscore.Internal_Hbond>
0.0000

> <Gold.Chemscore.DEClash>
0.1334

> <Gold.Chemscore.DEInternal>
0.5372

> <Gold.Chemscore.Rot>
1.7926

> <Gold.Chemscore.Internal.Correction>
   9.000000E+99

> <Gold.Chemscore.Hbonds>
donor molecule, donor type, donor heavy atom, donor atom, acceptor molecule, acceptor atom, score
      L1  H     1    12       P1  7957  0.48
      L1  H     1    24       P1  7948  0.92
      P1  H 10752 10765       L1     6  0.77

> <Gold.Chemscore.Hbond.Weighted>
-9.3075

> <Gold.Chemscore.Metal.Weighted>
-0.0000

> <Gold.Chemscore.Lipo.Weighted>
-3.5909

> <Gold.Chemscore.Internal_Hbond.Weighted>
0.0000

> <Gold.Chemscore.DEClash.Weighted>
0.1334

> <Gold.Chemscore.DEInternal.Weighted>
0.5372

> <Gold.Chemscore.Rot.Weighted>
4.5892

> <Gold.Chemscore.Internal.Correction.Weighted>
   9.000000E+99

> <Gold.Protein.RotatedTorsions>
[ 6907 6896 6895 6894 ] final  135.74 input  -60.11 | X-H torsion
[ 7974 7965 7964 7962 ] final  -79.65 input  175.53 | X-H torsion
[ 8008 7997 7996 7995 ] final -137.76 input   59.86 | X-H torsion
[ 10167 10162 10161 10158 ] final -105.32 input  -65.29 | X-H torsion
[ 10718 10713 10712 10709 ] final  -47.18 input   66.30 | X-H torsion
[ 10763 10752 10751 10750 ] final  164.54 input  -60.55 | X-H torsion
[ 11005 11000 10999 10996 ] final  113.91 input  -57.11 | X-H torsion

> <Gold.Protein.ActiveResidues>
 VAL166  LYS551  ARG553  GLY616  TRP617  ASP618  TYR619  PRO620  LYS621  CYS622 
 ASP623  PHE694  ASN695  SER759  ASP760  ASP761  ALA762  ILE779  LEU786  VAL792 
 PHE793  MET794  SER795  GLU796  ALA797  LYS798  CYS799  TRP800  GLU811  SER814 

> <Gold.Protein.RotatedAtoms>
  152.2970  133.5618  159.5593 H   0  0  0  0  0  0  0  0  0  0  0  0  # atno 6907 bound_to 6896
  150.7260  134.0346  159.3754 H   0  0  0  0  0  0  0  0  0  0  0  0  # atno 6908 bound_to 6896
  151.8248  135.0640  160.0480 H   0  0  0  0  0  0  0  0  0  0  0  0  # atno 6909 bound_to 6896
  145.5703  140.9467  143.1399 H   0  0  0  0  0  0  0  0  0  0  0  0  # atno 7974 bound_to 7965
  155.4171  140.0516  157.3028 H   0  0  0  0  0  0  0  0  0  0  0  0  # atno 8008 bound_to 7997
  154.4919  140.2123  155.9489 H   0  0  0  0  0  0  0  0  0  0  0  0  # atno 8009 bound_to 7997
  156.1354  140.3164  155.8418 H   0  0  0  0  0  0  0  0  0  0  0  0  # atno 8010 bound_to 7997
  140.1998  143.3827  152.1139 H   0  0  0  0  0  0  0  0  0  0  0  0  # atno 10167 bound_to 10162
  156.2110  130.4160  149.9115 H   0  0  0  0  0  0  0  0  0  0  0  0  # atno 10718 bound_to 10713
  154.3104  135.2757  155.2569 H   0  0  0  0  0  0  0  0  0  0  0  0  # atno 10763 bound_to 10752
  154.4966  135.5819  153.6503 H   0  0  0  0  0  0  0  0  0  0  0  0  # atno 10764 bound_to 10752
  152.9889  135.6147  154.3281 H   0  0  0  0  0  0  0  0  0  0  0  0  # atno 10765 bound_to 10752
  139.8966  134.9558  156.6811 H   0  0  0  0  0  0  0  0  0  0  0  0  # atno 11005 bound_to 11000
  144.7441  139.7369  143.7299 LP  0  0  0  0  0  0  0  0  0  0  0  0  # atno 17320 bound_to 7965
  146.1789  139.4972  142.9879 LP  0  0  0  0  0  0  0  0  0  0  0  0  # atno 17321 bound_to 7965
  139.5222  144.7056  151.5365 LP  0  0  0  0  0  0  0  0  0  0  0  0  # atno 17342 bound_to 10162
  140.6398  143.8911  150.6681 LP  0  0  0  0  0  0  0  0  0  0  0  0  # atno 17343 bound_to 10162
  156.6793  130.8852  151.3573 LP  0  0  0  0  0  0  0  0  0  0  0  0  # atno 17370 bound_to 10713
  157.7038  130.9362  150.0867 LP  0  0  0  0  0  0  0  0  0  0  0  0  # atno 17371 bound_to 10713
  140.7298  133.9068  155.8204 LP  0  0  0  0  0  0  0  0  0  0  0  0  # atno 17394 bound_to 11000
  141.0162  134.0952  157.4170 LP  0  0  0  0  0  0  0  0  0  0  0  0  # atno 17395 bound_to 11000

$$$$
