AV-unprocessed.smi:175|AV-procd|sdf|1429|dock4
  -GOLD-   2262019203D 1   1.00000     0.00000
 Structure written by MMmdl.
 47 50  0  0  0  0  0  0  0  0  1 V2000
  152.0517  144.7368  157.9359 C   0  0  0  0  0  0  0  0  0  0  0  0
  151.8979  143.6912  159.0515 C   0  0  2  0  0  0  0  0  0  0  0  0
  153.1557  143.5847  159.7146 O   0  0  0  0  0  0  0  0  0  0  0  0
  153.3238  142.2568  160.1789 C   0  0  0  0  0  0  0  0  0  0  0  0
  152.7471  141.4337  159.0377 C   0  0  0  0  0  0  0  0  0  0  0  0
  151.5283  142.2466  158.6105 C   0  0  1  0  0  0  0  0  0  0  0  0
  150.4277  141.8256  159.3997 O   0  0  0  0  0  0  0  0  0  0  0  0
  151.1440  142.0563  157.1197 C   0  0  0  0  0  0  0  0  0  0  0  0
  150.6878  140.7100  156.8077 N   0  0  0  0  0  0  0  0  0  0  0  0
  149.3954  140.2434  156.8723 C   0  0  0  0  0  0  0  0  0  0  0  0
  149.2406  138.9910  156.5415 N   0  0  0  0  0  0  0  0  0  0  0  0
  150.5213  138.5568  156.2154 C   0  0  0  0  0  0  0  0  0  0  0  0
  151.0794  137.3195  155.7745 C   0  0  0  0  0  0  0  0  0  0  0  0
  150.3684  136.1823  155.5597 N   0  0  0  0  0  0  0  0  0  0  0  0
  148.9167  136.1016  155.6306 C   0  0  0  0  0  0  0  0  0  0  0  0
  148.6728  134.6717  155.1835 C   0  0  0  0  0  0  0  0  0  0  0  0
  147.5519  134.1687  155.1251 O   0  0  0  0  0  0  0  0  0  0  0  0
  149.8295  134.0716  154.8812 N   0  0  0  0  0  0  0  0  0  0  0  0
  150.0080  132.6961  154.4213 C   0  0  0  0  0  0  0  0  0  0  0  0
  149.6460  131.6631  155.5037 C   0  0  0  0  0  0  0  0  0  0  0  0
  149.9845  130.4484  155.0736 F   0  0  0  0  0  0  0  0  0  0  0  0
  150.2989  131.9055  156.6398 F   0  0  0  0  0  0  0  0  0  0  0  0
  148.3342  131.6792  155.7402 F   0  0  0  0  0  0  0  0  0  0  0  0
  150.9748  134.9420  155.0893 C   0  0  0  0  0  0  0  0  0  0  0  0
  152.4211  137.2856  155.5592 N   0  0  0  0  0  0  0  0  0  0  0  0
  153.1689  138.3756  155.7500 C   0  0  0  0  0  0  0  0  0  0  0  0
  152.7862  139.5881  156.1508 N   0  0  0  0  0  0  0  0  0  0  0  0
  151.4424  139.6326  156.3771 C   0  0  0  0  0  0  0  0  0  0  0  0
  151.1189  144.8782  157.3897 H   0  0  0  0  0  0  0  0  0  0  0  0
  152.8263  144.4516  157.2236 H   0  0  0  0  0  0  0  0  0  0  0  0
  152.3334  145.7037  158.3531 H   0  0  0  0  0  0  0  0  0  0  0  0
  151.1718  144.0662  159.7755 H   0  0  0  0  0  0  0  0  0  0  0  0
  154.3711  142.0285  160.3775 H   0  0  0  0  0  0  0  0  0  0  0  0
  152.7551  142.1108  161.0986 H   0  0  0  0  0  0  0  0  0  0  0  0
  153.4788  141.4008  158.2297 H   0  0  0  0  0  0  0  0  0  0  0  0
  152.5168  140.4054  159.3203 H   0  0  0  0  0  0  0  0  0  0  0  0
  150.1755  140.9581  159.1220 H   0  0  0  0  0  0  0  0  0  0  0  0
  150.3553  142.7552  156.8377 H   0  0  0  0  0  0  0  0  0  0  0  0
  151.9946  142.2745  156.4739 H   0  0  0  0  0  0  0  0  0  0  0  0
  148.5666  140.8645  157.1800 H   0  0  0  0  0  0  0  0  0  0  0  0
  148.5534  136.2579  156.6469 H   0  0  0  0  0  0  0  0  0  0  0  0
  148.4374  136.8037  154.9473 H   0  0  0  0  0  0  0  0  0  0  0  0
  149.3864  132.5347  153.5398 H   0  0  0  0  0  0  0  0  0  0  0  0
  151.0393  132.5513  154.0956 H   0  0  0  0  0  0  0  0  0  0  0  0
  151.5175  135.0922  154.1549 H   0  0  0  0  0  0  0  0  0  0  0  0
  151.6497  134.5259  155.8388 H   0  0  0  0  0  0  0  0  0  0  0  0
  154.2243  138.2592  155.5533 H   0  0  0  0  0  0  0  0  0  0  0  0
  1  2  1  0  0  0  0
  1 29  1  0  0  0  0
  1 30  1  0  0  0  0
  1 31  1  0  0  0  0
  2  6  1  0  0  0  0
  2  3  1  0  0  0  0
  2 32  1  0  0  0  0
  3  4  1  0  0  0  0
  4  5  1  0  0  0  0
  4 33  1  0  0  0  0
  4 34  1  0  0  0  0
  5  6  1  0  0  0  0
  5 35  1  0  0  0  0
  5 36  1  0  0  0  0
  6  7  1  0  0  0  0
  6  8  1  0  0  0  0
  7 37  1  0  0  0  0
  8  9  1  0  0  0  0
  8 38  1  0  0  0  0
  8 39  1  0  0  0  0
  9 28  1  0  0  0  0
  9 10  1  0  0  0  0
 10 11  2  0  0  0  0
 10 40  1  0  0  0  0
 11 12  1  0  0  0  0
 12 28  2  0  0  0  0
 12 13  1  0  0  0  0
 13 14  1  0  0  0  0
 13 25  2  0  0  0  0
 14 24  1  0  0  0  0
 14 15  1  0  0  0  0
 15 16  1  0  0  0  0
 15 41  1  0  0  0  0
 15 42  1  0  0  0  0
 16 17  2  0  0  0  0
 16 18  1  0  0  0  0
 18 19  1  0  0  0  0
 18 24  1  0  0  0  0
 19 20  1  0  0  0  0
 19 43  1  0  0  0  0
 19 44  1  0  0  0  0
 20 21  1  0  0  0  0
 20 22  1  0  0  0  0
 20 23  1  0  0  0  0
 24 45  1  0  0  0  0
 24 46  1  0  0  0  0
 25 26  1  0  0  0  0
 26 27  2  0  0  0  0
 26 47  1  0  0  0  0
 27 28  1  0  0  0  0
M  END
> <s_m_source_file>
AV-unprocessed.smi

> <i_m_source_file_index>
175

> <i_lp_mmshare_version>
43012

> <i_f3d_flags>
0

> <s_epik_input>
W0NIMl0xW0NIMl1PW0NAQEhdKFtDSDNdKVtDQEBdMShbT0hdKVtDSDJdbihbY0hdbjIpYyhjMjMpbltjSF1uYzNONFtDSDJdQyg9TylOKFtDSDJdNClbQ0gyXUMoRikoRilG

> <s_epik_cmdline>
J2VwaWtfcHl0aG9uJywgJy1waCcsICc3LjAnLCAnLXRuJywgJzgnLCAnLW1hJywgJzIwMCcsICctbWV0YWxfYmluZGluZycsICctaW1hZScsICc8aW5maWxlLm1hZT4nLCAnLW9tYWUnLCAnPG91dGZpbGUubWFlPic=

> <r_lp_tautomer_probability>
1

> <r_epik_Ionization_Penalty>
0.000307802

> <r_epik_Ionization_Penalty_Charging>
0

> <r_epik_Ionization_Penalty_Neutral>
0.000307802

> <r_epik_State_Penalty>
-0

> <r_epik_Charging_Adjusted_Penalty>
0

> <i_epik_Tot_Q>
0

> <i_epik_Tot_abs_Q>
0

> <r_epik_Metal_State_Penalty>
-0

> <b_epik_Metal_Only>
0

> <s_epik_Chemistry_Notes>
This compound contains an acetal/aminal-like group ( X-CH(R)-Y where X, Y are N, S, or O) that may be acid/base labile, releasing an aldehyde.

> <s_lp_Force_Field>
OPLS_2005

> <r_lp_Energy>
32.9701

> <b_lp_Chiralities_Consistent>
1

> <s_lp_Variant>
AV-unprocessed.smi:175-1

> <Gold.Version>
5.8.1

> <Gold.Id.Protein>
6NUR|6NUR_protein|mol2

> <Gold.PLP.Fitness>
48.6215

> <Gold.PLP.PLP>
-44.0527

> <Gold.PLP.part.hbond>
-3.0000

> <Gold.PLP.part.metal>
0.0000

> <Gold.PLP.part.buried>
-4.6643

> <Gold.PLP.part.nonpolar>
-36.8509

> <Gold.PLP.part.repulsive>
0.1199

> <Gold.PLP.ligand.clash>
0.0000

> <Gold.PLP.ligand.torsion>
0.5129

> <Gold.PLP.Chemscore.Hbond>
1.8000

> <Gold.PLP.Chemscore.CHOScore>
0.0000

> <Gold.PLP.Chemscore.Metal>
0.0000

> <Gold.Chemscore.Hbonds>
donor molecule, donor type, donor heavy atom, donor atom, acceptor molecule, acceptor atom, score
      P1  H  7997  8008       L1    27  0.70
      P1  H 10752 10763       L1    25  0.69

> <Gold.PLP.Chemscore.Internal.Correction>
0.1945

> <Gold.Rescore>
     Score         DG    S(hbond)    S(metal)    S(lipo)     H(rot)  DE(clash)    DE(int)     intcor
      9.89     -12.93       1.48        0.00      76.90       2.54       0.04       2.99       ----

> <Gold.Chemscore.Fitness>
9.8902

> <Gold.Chemscore.DG>
-12.9261

> <Gold.Chemscore.ZeroCoef>
-5.4800

> <Gold.Chemscore.Hbond>
1.4804

> <Gold.Chemscore.Metal>
0.0000

> <Gold.Chemscore.Lipo>
76.9034

> <Gold.Chemscore.Internal_Hbond>
0.0000

> <Gold.Chemscore.DEClash>
0.0436

> <Gold.Chemscore.DEInternal>
2.9923

> <Gold.Chemscore.Rot>
2.5375

> <Gold.Chemscore.Internal.Correction>
   9.000000E+99

> <Gold.Chemscore.Hbonds>
donor molecule, donor type, donor heavy atom, donor atom, acceptor molecule, acceptor atom, score
      P1  H  7997  8008       L1    27  0.07
      P1  H 10752 10763       L1    25  0.56

> <Gold.Chemscore.Hbond.Weighted>
-4.9445

> <Gold.Chemscore.Metal.Weighted>
-0.0000

> <Gold.Chemscore.Lipo.Weighted>
-8.9977

> <Gold.Chemscore.Internal_Hbond.Weighted>
0.0000

> <Gold.Chemscore.DEClash.Weighted>
0.0436

> <Gold.Chemscore.DEInternal.Weighted>
2.9923

> <Gold.Chemscore.Rot.Weighted>
6.4961

> <Gold.Chemscore.Internal.Correction.Weighted>
   9.000000E+99

> <Gold.Protein.RotatedTorsions>
[ 6907 6896 6895 6894 ] final   50.95 input  -60.11 | X-H torsion
[ 7974 7965 7964 7962 ] final  175.26 input  175.53 | X-H torsion
[ 8008 7997 7996 7995 ] final  -47.27 input   59.86 | X-H torsion
[ 10167 10162 10161 10158 ] final  -17.45 input  -65.29 | X-H torsion
[ 10718 10713 10712 10709 ] final   39.95 input   66.30 | X-H torsion
[ 10763 10752 10751 10750 ] final   65.47 input  -60.55 | X-H torsion
[ 11005 11000 10999 10996 ] final -145.15 input  -57.11 | X-H torsion

> <Gold.Protein.ActiveResidues>
 VAL166  LYS551  ARG553  GLY616  TRP617  ASP618  TYR619  PRO620  LYS621  CYS622 
 ASP623  PHE694  ASN695  SER759  ASP760  ASP761  ALA762  ILE779  LEU786  VAL792 
 PHE793  MET794  SER795  GLU796  ALA797  LYS798  CYS799  TRP800  GLU811  SER814 

> <Gold.Protein.RotatedAtoms>
  152.3074  134.7538  160.0343 H   0  0  0  0  0  0  0  0  0  0  0  0  # atno 6907 bound_to 6896
  151.8031  133.3367  159.3541 H   0  0  0  0  0  0  0  0  0  0  0  0  # atno 6908 bound_to 6896
  150.7303  134.5665  159.5913 H   0  0  0  0  0  0  0  0  0  0  0  0  # atno 6909 bound_to 6896
  144.7205  139.9920  143.6440 H   0  0  0  0  0  0  0  0  0  0  0  0  # atno 7974 bound_to 7965
  154.4015  140.1350  156.4148 H   0  0  0  0  0  0  0  0  0  0  0  0  # atno 8008 bound_to 7997
  155.7699  140.3484  155.5221 H   0  0  0  0  0  0  0  0  0  0  0  0  # atno 8009 bound_to 7997
  155.8777  140.0982  157.1497 H   0  0  0  0  0  0  0  0  0  0  0  0  # atno 8010 bound_to 7997
  140.7247  143.5014  150.9864 H   0  0  0  0  0  0  0  0  0  0  0  0  # atno 10167 bound_to 10162
  157.3766  130.7730  149.7160 H   0  0  0  0  0  0  0  0  0  0  0  0  # atno 10718 bound_to 10713
  153.0098  135.5356  154.6672 H   0  0  0  0  0  0  0  0  0  0  0  0  # atno 10763 bound_to 10752
  154.5866  135.2855  155.0681 H   0  0  0  0  0  0  0  0  0  0  0  0  # atno 10764 bound_to 10752
  154.1790  135.6519  153.5081 H   0  0  0  0  0  0  0  0  0  0  0  0  # atno 10765 bound_to 10752
  140.7952  134.2921  157.4999 H   0  0  0  0  0  0  0  0  0  0  0  0  # atno 11005 bound_to 11000
  146.0404  139.3417  143.0700 LP  0  0  0  0  0  0  0  0  0  0  0  0  # atno 17320 bound_to 7965
  145.8341  140.9615  143.0833 LP  0  0  0  0  0  0  0  0  0  0  0  0  # atno 17321 bound_to 7965
  139.8724  143.7175  152.3165 LP  0  0  0  0  0  0  0  0  0  0  0  0  # atno 17342 bound_to 10162
  139.7429  144.7555  151.0625 LP  0  0  0  0  0  0  0  0  0  0  0  0  # atno 17343 bound_to 10162
  155.9766  130.4073  150.3765 LP  0  0  0  0  0  0  0  0  0  0  0  0  # atno 17370 bound_to 10713
  157.1863  131.0404  151.2723 LP  0  0  0  0  0  0  0  0  0  0  0  0  # atno 17371 bound_to 10713
  139.8727  134.9398  156.3751 LP  0  0  0  0  0  0  0  0  0  0  0  0  # atno 17394 bound_to 11000
  140.9349  133.7553  156.0072 LP  0  0  0  0  0  0  0  0  0  0  0  0  # atno 17395 bound_to 11000

$$$$
