AV-unprocessed.smi:2639|AV-procd|sdf|10264|dock8
  -GOLD-   2272014273D 1   1.00000     0.00000
 Structure written by MMmdl.
 43 44  0  0  0  0  0  0  0  0  1 V2000
  149.8838  138.1036  156.5959 C   0  0  0  0  0  0  0  0  0  0  0  0
  150.2750  138.1305  155.0962 C   0  0  1  0  0  0  0  0  0  0  0  0
  151.8069  138.3916  154.9901 C   0  0  0  0  0  0  0  0  0  0  0  0
  152.5727  137.3100  155.4825 O   0  0  0  0  0  0  0  0  0  0  0  0
  149.9572  136.8340  154.4764 N   0  0  0  0  0  0  0  0  0  0  0  0
  150.1516  135.5954  154.9602 C   0  0  0  0  0  0  0  0  0  0  0  0
  150.6444  135.3554  156.0618 O   0  0  0  0  0  0  0  0  0  0  0  0
  149.7182  134.6683  154.0881 N   0  0  0  0  0  0  0  0  0  0  0  0
  149.7692  133.2519  154.1974 C   0  0  0  0  0  0  0  0  0  0  0  0
  149.1108  132.4924  153.2081 C   0  0  0  0  0  0  0  0  0  0  0  0
  149.1616  131.0861  153.2849 C   0  0  0  0  0  0  0  0  0  0  0  0
  149.8200  130.4200  154.2566 N   0  0  0  0  0  0  0  0  0  0  0  0
  150.4628  131.1481  155.1940 C   0  0  0  0  0  0  0  0  0  0  0  0
  150.4742  132.5573  155.2098 C   0  0  0  0  0  0  0  0  0  0  0  0
  149.4478  139.2279  154.3362 C   0  0  0  0  0  0  0  0  0  0  0  0
  149.5481  140.6381  154.9794 C   0  0  0  0  0  0  0  0  0  0  0  0
  148.7735  141.6997  154.1820 C   0  0  0  0  0  0  0  0  0  0  0  0
  147.3002  141.3084  154.0150 C   0  0  0  0  0  0  0  0  0  0  0  0
  147.1789  139.9266  153.3616 C   0  0  0  0  0  0  0  0  0  0  0  0
  147.9494  138.8611  154.1576 C   0  0  0  0  0  0  0  0  0  0  0  0
  149.9198  139.1026  157.0314 H   0  0  0  0  0  0  0  0  0  0  0  0
  150.5587  137.4794  157.1816 H   0  0  0  0  0  0  0  0  0  0  0  0
  148.8799  137.7101  156.7530 H   0  0  0  0  0  0  0  0  0  0  0  0
  152.1080  138.5565  153.9558 H   0  0  0  0  0  0  0  0  0  0  0  0
  152.0931  139.2937  155.5310 H   0  0  0  0  0  0  0  0  0  0  0  0
  152.8978  137.5386  156.3399 H   0  0  0  0  0  0  0  0  0  0  0  0
  149.5348  136.8949  153.5617 H   0  0  0  0  0  0  0  0  0  0  0  0
  149.2548  135.0197  153.2630 H   0  0  0  0  0  0  0  0  0  0  0  0
  148.5709  132.9740  152.4057 H   0  0  0  0  0  0  0  0  0  0  0  0
  148.6613  130.4802  152.5440 H   0  0  0  0  0  0  0  0  0  0  0  0
  150.9912  130.5907  155.9533 H   0  0  0  0  0  0  0  0  0  0  0  0
  151.0283  133.0684  155.9818 H   0  0  0  0  0  0  0  0  0  0  0  0
  149.8711  139.3201  153.3350 H   0  0  0  0  0  0  0  0  0  0  0  0
  149.1695  140.6171  156.0018 H   0  0  0  0  0  0  0  0  0  0  0  0
  150.5861  140.9616  155.0426 H   0  0  0  0  0  0  0  0  0  0  0  0
  148.8453  142.6652  154.6836 H   0  0  0  0  0  0  0  0  0  0  0  0
  149.2324  141.8267  153.2006 H   0  0  0  0  0  0  0  0  0  0  0  0
  146.8084  141.2999  154.9885 H   0  0  0  0  0  0  0  0  0  0  0  0
  146.7821  142.0538  153.4109 H   0  0  0  0  0  0  0  0  0  0  0  0
  146.1286  139.6442  153.2846 H   0  0  0  0  0  0  0  0  0  0  0  0
  147.5630  139.9686  152.3413 H   0  0  0  0  0  0  0  0  0  0  0  0
  147.8426  137.9132  153.6324 H   0  0  0  0  0  0  0  0  0  0  0  0
  147.4740  138.7290  155.1300 H   0  0  0  0  0  0  0  0  0  0  0  0
  1  2  1  0  0  0  0
  1 21  1  0  0  0  0
  1 22  1  0  0  0  0
  1 23  1  0  0  0  0
  2  3  1  0  0  0  0
  2  5  1  0  0  0  0
  2 15  1  0  0  0  0
  3  4  1  0  0  0  0
  3 24  1  0  0  0  0
  3 25  1  0  0  0  0
  4 26  1  0  0  0  0
  5  6  1  0  0  0  0
  5 27  1  0  0  0  0
  6  7  2  0  0  0  0
  6  8  1  0  0  0  0
  8  9  1  0  0  0  0
  8 28  1  0  0  0  0
  9 14  1  0  0  0  0
  9 10  2  0  0  0  0
 10 11  1  0  0  0  0
 10 29  1  0  0  0  0
 11 12  2  0  0  0  0
 11 30  1  0  0  0  0
 12 13  1  0  0  0  0
 13 14  2  0  0  0  0
 13 31  1  0  0  0  0
 14 32  1  0  0  0  0
 15 20  1  0  0  0  0
 15 16  1  0  0  0  0
 15 33  1  0  0  0  0
 16 17  1  0  0  0  0
 16 34  1  0  0  0  0
 16 35  1  0  0  0  0
 17 18  1  0  0  0  0
 17 36  1  0  0  0  0
 17 37  1  0  0  0  0
 18 19  1  0  0  0  0
 18 38  1  0  0  0  0
 18 39  1  0  0  0  0
 19 20  1  0  0  0  0
 19 40  1  0  0  0  0
 19 41  1  0  0  0  0
 20 42  1  0  0  0  0
 20 43  1  0  0  0  0
M  END
> <s_m_source_file>
AV-unprocessed.smi

> <i_m_source_file_index>
2639

> <i_lp_mmshare_version>
43012

> <i_f3d_flags>
0

> <s_epik_input>
W0NIMl0xW0NIMl1bQ0gyXVtDSDJdW0NIMl1bQ0hdMVtDQF0oW0NIM10pKFtDSDJdW09IXSlbTkhdQyg9TylbTkhdYzJbY0hdW2NIXW5bY0hdW2NIXTI=

> <s_epik_cmdline>
J2VwaWtfcHl0aG9uJywgJy1waCcsICc3LjAnLCAnLXRuJywgJzgnLCAnLW1hJywgJzIwMCcsICctbWV0YWxfYmluZGluZycsICctaW1hZScsICc8aW5maWxlLm1hZT4nLCAnLW9tYWUnLCAnPG91dGZpbGUubWFlPic=

> <r_epik_Ionization_Penalty>
0.119032

> <r_epik_Ionization_Penalty_Charging>
0

> <r_epik_Ionization_Penalty_Neutral>
0.119032

> <r_epik_State_Penalty>
0.108564

> <r_epik_Charging_Adjusted_Penalty>
0.108564

> <i_epik_Tot_Q>
0

> <i_epik_Tot_abs_Q>
0

> <r_epik_Metal_State_Penalty>
0.0902516

> <b_epik_Metal_Only>
0

> <s_lp_Force_Field>
OPLS_2005

> <r_lp_Energy>
25.5212

> <b_lp_Chiralities_Consistent>
1

> <s_lp_Variant>
AV-unprocessed.smi:2639-1

> <Gold.Version>
5.8.1

> <Gold.Id.Protein>
6NUR|6NUR_protein|mol2

> <Gold.PLP.Fitness>
43.6179

> <Gold.PLP.PLP>
-34.7814

> <Gold.PLP.part.hbond>
-3.0000

> <Gold.PLP.part.metal>
0.0000

> <Gold.PLP.part.buried>
-1.9197

> <Gold.PLP.part.nonpolar>
-30.5032

> <Gold.PLP.part.repulsive>
0.1673

> <Gold.PLP.ligand.clash>
0.0000

> <Gold.PLP.ligand.torsion>
0.5479

> <Gold.PLP.Chemscore.Hbond>
2.6220

> <Gold.PLP.Chemscore.CHOScore>
0.6760

> <Gold.PLP.Chemscore.Metal>
0.0000

> <Gold.Chemscore.Hbonds>
donor molecule, donor type, donor heavy atom, donor atom, acceptor molecule, acceptor atom, score
      L1  H     5    27       P1  7948  1.00
      L1  H     8    28       P1  7948  0.70
      P1  H 10752 10765       L1     4  0.64
      L1  C    11    30       P1 10747  0.82

> <Gold.PLP.Chemscore.Internal.Correction>
0.0382

> <Gold.Rescore>
     Score         DG    S(hbond)    S(metal)    S(lipo)     H(rot)  DE(clash)    DE(int)     intcor
     12.03     -15.30       1.73        0.00      77.90       1.98       0.01       3.26       ----

> <Gold.Chemscore.Fitness>
12.0256

> <Gold.Chemscore.DG>
-15.2953

> <Gold.Chemscore.ZeroCoef>
-5.4800

> <Gold.Chemscore.Hbond>
1.7274

> <Gold.Chemscore.Metal>
0.0000

> <Gold.Chemscore.Lipo>
77.8973

> <Gold.Chemscore.Internal_Hbond>
0.0000

> <Gold.Chemscore.DEClash>
0.0106

> <Gold.Chemscore.DEInternal>
3.2590

> <Gold.Chemscore.Rot>
1.9798

> <Gold.Chemscore.Internal.Correction>
   9.000000E+99

> <Gold.Chemscore.Hbonds>
donor molecule, donor type, donor heavy atom, donor atom, acceptor molecule, acceptor atom, score
      L1  H     5    27       P1  7948  0.80
      L1  H     8    28       P1  7948  0.07
      P1  H 10752 10765       L1     4  0.60

> <Gold.Chemscore.Hbond.Weighted>
-5.7694

> <Gold.Chemscore.Metal.Weighted>
-0.0000

> <Gold.Chemscore.Lipo.Weighted>
-9.1140

> <Gold.Chemscore.Internal_Hbond.Weighted>
0.0000

> <Gold.Chemscore.DEClash.Weighted>
0.0106

> <Gold.Chemscore.DEInternal.Weighted>
3.2590

> <Gold.Chemscore.Rot.Weighted>
5.0682

> <Gold.Chemscore.Internal.Correction.Weighted>
   9.000000E+99

> <Gold.Protein.RotatedTorsions>
[ 6907 6896 6895 6894 ] final   86.14 input  -60.11 | X-H torsion
[ 7974 7965 7964 7962 ] final   84.41 input  175.53 | X-H torsion
[ 8008 7997 7996 7995 ] final  150.29 input   59.86 | X-H torsion
[ 10167 10162 10161 10158 ] final   97.64 input  -65.29 | X-H torsion
[ 10718 10713 10712 10709 ] final -154.43 input   66.30 | X-H torsion
[ 10763 10752 10751 10750 ] final -165.69 input  -60.55 | X-H torsion
[ 11005 11000 10999 10996 ] final  101.43 input  -57.11 | X-H torsion

> <Gold.Protein.ActiveResidues>
 VAL166  LYS551  ARG553  GLY616  TRP617  ASP618  TYR619  PRO620  LYS621  CYS622 
 ASP623  PHE694  ASN695  SER759  ASP760  ASP761  ALA762  ILE779  LEU786  VAL792 
 PHE793  MET794  SER795  GLU796  ALA797  LYS798  CYS799  TRP800  GLU811  SER814 

> <Gold.Protein.RotatedAtoms>
  152.5389  134.2477  159.8886 H   0  0  0  0  0  0  0  0  0  0  0  0  # atno 6907 bound_to 6896
  151.2441  133.4377  159.2616 H   0  0  0  0  0  0  0  0  0  0  0  0  # atno 6908 bound_to 6896
  151.0599  134.9743  159.8311 H   0  0  0  0  0  0  0  0  0  0  0  0  # atno 6909 bound_to 6896
  145.5992  139.2349  143.2256 H   0  0  0  0  0  0  0  0  0  0  0  0  # atno 7974 bound_to 7965
  156.2721  140.2078  156.5994 H   0  0  0  0  0  0  0  0  0  0  0  0  # atno 8008 bound_to 7997
  154.6918  140.0529  157.0395 H   0  0  0  0  0  0  0  0  0  0  0  0  # atno 8009 bound_to 7997
  155.0855  140.3191  155.4592 H   0  0  0  0  0  0  0  0  0  0  0  0  # atno 8010 bound_to 7997
  139.7782  144.6898  151.0060 H   0  0  0  0  0  0  0  0  0  0  0  0  # atno 10167 bound_to 10162
  156.4992  130.8383  151.2602 H   0  0  0  0  0  0  0  0  0  0  0  0  # atno 10718 bound_to 10713
  154.6907  135.2970  154.9484 H   0  0  0  0  0  0  0  0  0  0  0  0  # atno 10763 bound_to 10752
  154.0448  135.6652  153.4798 H   0  0  0  0  0  0  0  0  0  0  0  0  # atno 10764 bound_to 10752
  153.0610  135.5116  154.7997 H   0  0  0  0  0  0  0  0  0  0  0  0  # atno 10765 bound_to 10752
  139.8773  134.9182  156.4906 H   0  0  0  0  0  0  0  0  0  0  0  0  # atno 11005 bound_to 11000
  146.1589  140.6817  142.9287 LP  0  0  0  0  0  0  0  0  0  0  0  0  # atno 17320 bound_to 7965
  144.7317  140.4692  143.6933 LP  0  0  0  0  0  0  0  0  0  0  0  0  # atno 17321 bound_to 7965
  140.7817  143.4512  151.0410 LP  0  0  0  0  0  0  0  0  0  0  0  0  # atno 17342 bound_to 10162
  139.8194  143.7841  152.3176 LP  0  0  0  0  0  0  0  0  0  0  0  0  # atno 17343 bound_to 10162
  157.7465  130.9987  150.2863 LP  0  0  0  0  0  0  0  0  0  0  0  0  # atno 17370 bound_to 10713
  156.3349  130.3806  149.7458 LP  0  0  0  0  0  0  0  0  0  0  0  0  # atno 17371 bound_to 10713
  140.8661  133.8023  155.9316 LP  0  0  0  0  0  0  0  0  0  0  0  0  # atno 17394 bound_to 11000
  140.9000  134.2390  157.5047 LP  0  0  0  0  0  0  0  0  0  0  0  0  # atno 17395 bound_to 11000

$$$$
