AV-unprocessed.smi:261|AV-procd|sdf|1986|dock7
  -GOLD-   2262021163D 1   1.00000     0.00000
 Structure written by MMmdl.
 51 54  0  0  0  0  0  0  0  0  1 V2000
  147.8238  133.1040  153.9141 C   0  0  0  0  0  0  0  0  0  0  0  0
  148.4150  133.2597  155.1944 O   0  0  0  0  0  0  0  0  0  0  0  0
  149.8352  133.3372  155.1687 C   0  0  2  0  0  0  0  0  0  0  0  0
  150.4366  133.4016  156.5793 C   0  0  0  0  0  0  0  0  0  0  0  0
  150.3578  134.8839  156.9785 C   0  0  2  0  0  0  0  0  0  0  0  0
  149.0472  135.2041  157.7299 C   0  0  0  0  0  0  0  0  0  0  0  0
  148.1490  136.0090  157.1516 N   0  0  0  0  0  0  0  0  0  0  0  0
  148.8541  134.7256  158.8453 O   0  0  0  0  0  0  0  0  0  0  0  0
  150.5019  135.5722  155.6950 N   0  0  0  0  0  0  0  0  0  0  0  0
  150.8943  136.8665  155.5319 C   0  0  0  0  0  0  0  0  0  0  0  0
  151.7666  137.1405  154.5253 N   0  0  0  0  0  0  0  0  0  0  0  0
  152.1867  138.3881  154.3032 C   0  0  0  0  0  0  0  0  0  0  0  0
  151.8650  139.5033  154.9574 N   0  0  0  0  0  0  0  0  0  0  0  0
  150.9905  139.2443  155.9703 C   0  0  0  0  0  0  0  0  0  0  0  0
  150.4591  137.9704  156.3280 C   0  0  0  0  0  0  0  0  0  0  0  0
  149.6016  138.1208  157.4135 N   0  0  0  0  0  0  0  0  0  0  0  0
  149.6152  139.3990  157.6709 C   0  0  0  0  0  0  0  0  0  0  0  0
  150.4183  140.1501  156.8462 N   0  0  0  0  0  0  0  0  0  0  0  0
  150.6117  141.5897  156.8908 C   0  0  0  0  0  0  0  0  0  0  0  0
  150.1495  142.2445  158.2123 C   0  0  2  0  0  0  0  0  0  0  0  0
  149.2342  143.2931  157.9587 O   0  0  0  0  0  0  0  0  0  0  0  0
  151.2882  142.7311  159.1390 C   0  0  2  0  0  0  0  0  0  0  0  0
  152.3754  143.5798  158.4806 C   0  0  0  0  0  0  0  0  0  0  0  0
  153.5434  143.4499  159.4472 C   0  0  0  0  0  0  0  0  0  0  0  0
  153.1922  142.2319  160.3102 C   0  0  0  0  0  0  0  0  0  0  0  0
  152.0285  141.6697  159.7209 O   0  0  0  0  0  0  0  0  0  0  0  0
  150.2285  134.6896  154.5646 C   0  0  0  0  0  0  0  0  0  0  0  0
  150.2476  132.5163  154.5795 H   0  0  0  0  0  0  0  0  0  0  0  0
  151.1988  135.1052  157.6351 H   0  0  0  0  0  0  0  0  0  0  0  0
  146.7394  133.0696  154.0181 H   0  0  0  0  0  0  0  0  0  0  0  0
  148.1393  132.1805  153.4291 H   0  0  0  0  0  0  0  0  0  0  0  0
  148.0698  133.9432  153.2622 H   0  0  0  0  0  0  0  0  0  0  0  0
  149.9585  132.7291  157.2917 H   0  0  0  0  0  0  0  0  0  0  0  0
  151.4856  133.1065  156.5284 H   0  0  0  0  0  0  0  0  0  0  0  0
  147.2893  136.2311  157.6326 H   0  0  0  0  0  0  0  0  0  0  0  0
  148.3369  136.3948  156.2378 H   0  0  0  0  0  0  0  0  0  0  0  0
  152.8781  138.5097  153.4825 H   0  0  0  0  0  0  0  0  0  0  0  0
  149.0293  139.8323  158.4682 H   0  0  0  0  0  0  0  0  0  0  0  0
  151.6674  141.7994  156.7139 H   0  0  0  0  0  0  0  0  0  0  0  0
  150.0708  142.0341  156.0546 H   0  0  0  0  0  0  0  0  0  0  0  0
  149.5875  141.4882  158.7612 H   0  0  0  0  0  0  0  0  0  0  0  0
  149.3520  143.5858  157.0681 H   0  0  0  0  0  0  0  0  0  0  0  0
  150.8458  143.3070  159.9547 H   0  0  0  0  0  0  0  0  0  0  0  0
  152.6610  143.1661  157.5129 H   0  0  0  0  0  0  0  0  0  0  0  0
  152.0654  144.6135  158.3255 H   0  0  0  0  0  0  0  0  0  0  0  0
  154.4825  143.3104  158.9107 H   0  0  0  0  0  0  0  0  0  0  0  0
  153.6418  144.3402  160.0690 H   0  0  0  0  0  0  0  0  0  0  0  0
  153.9989  141.4997  160.3487 H   0  0  0  0  0  0  0  0  0  0  0  0
  152.9623  142.5379  161.3317 H   0  0  0  0  0  0  0  0  0  0  0  0
  151.1394  134.5841  153.9733 H   0  0  0  0  0  0  0  0  0  0  0  0
  149.4473  135.0868  153.9148 H   0  0  0  0  0  0  0  0  0  0  0  0
  1  2  1  0  0  0  0
  1 30  1  0  0  0  0
  1 31  1  0  0  0  0
  1 32  1  0  0  0  0
  2  3  1  0  0  0  0
  3 28  1  0  0  0  0
  3 27  1  0  0  0  0
  3  4  1  0  0  0  0
  4  5  1  0  0  0  0
  4 33  1  0  0  0  0
  4 34  1  0  0  0  0
  5 29  1  0  0  0  0
  5  6  1  0  0  0  0
  5  9  1  0  0  0  0
  6  7  1  0  0  0  0
  6  8  2  0  0  0  0
  7 35  1  0  0  0  0
  7 36  1  0  0  0  0
  9 10  1  0  0  0  0
  9 27  1  0  0  0  0
 10 15  1  0  0  0  0
 10 11  2  0  0  0  0
 11 12  1  0  0  0  0
 12 13  2  0  0  0  0
 12 37  1  0  0  0  0
 13 14  1  0  0  0  0
 14 18  1  0  0  0  0
 14 15  2  0  0  0  0
 15 16  1  0  0  0  0
 16 17  2  0  0  0  0
 17 18  1  0  0  0  0
 17 38  1  0  0  0  0
 18 19  1  0  0  0  0
 19 20  1  0  0  0  0
 19 39  1  0  0  0  0
 19 40  1  0  0  0  0
 20 21  1  0  0  0  0
 20 22  1  0  0  0  0
 20 41  1  0  0  0  0
 21 42  1  0  0  0  0
 22 26  1  0  0  0  0
 22 23  1  0  0  0  0
 22 43  1  0  0  0  0
 23 24  1  0  0  0  0
 23 44  1  0  0  0  0
 23 45  1  0  0  0  0
 24 25  1  0  0  0  0
 24 46  1  0  0  0  0
 24 47  1  0  0  0  0
 25 26  1  0  0  0  0
 25 48  1  0  0  0  0
 25 49  1  0  0  0  0
 27 50  1  0  0  0  0
 27 51  1  0  0  0  0
M  END
> <s_m_source_file>
AV-unprocessed.smi

> <i_m_source_file_index>
261

> <i_lp_mmshare_version>
43012

> <i_f3d_flags>
0

> <s_epik_input>
W0NIM11PW0NASF0xW0NIMl1bQ0BASF0oQyg9TylbTkgyXSlOKFtDSDJdMSljKG5bY0hdbjIpYyhjMjMpbltjSF1uM1tDSDJdW0NASF0oW09IXSlbQ0BASF00W0NIMl1bQ0gyXVtDSDJdTzQ=

> <s_epik_cmdline>
J2VwaWtfcHl0aG9uJywgJy1waCcsICc3LjAnLCAnLXRuJywgJzgnLCAnLW1hJywgJzIwMCcsICctbWV0YWxfYmluZGluZycsICctaW1hZScsICc8aW5maWxlLm1hZT4nLCAnLW9tYWUnLCAnPG91dGZpbGUubWFlPic=

> <r_lp_tautomer_probability>
1

> <r_epik_Ionization_Penalty>
0.000713824

> <r_epik_Ionization_Penalty_Charging>
0

> <r_epik_Ionization_Penalty_Neutral>
0.000713824

> <r_epik_State_Penalty>
0.000402132

> <r_epik_Charging_Adjusted_Penalty>
0.000402132

> <i_epik_Tot_Q>
0

> <i_epik_Tot_abs_Q>
0

> <r_epik_Metal_State_Penalty>
-0

> <b_epik_Metal_Only>
0

> <s_lp_Force_Field>
OPLS_2005

> <r_lp_Energy>
46.7805

> <b_lp_Chiralities_Consistent>
1

> <s_lp_Variant>
AV-unprocessed.smi:261-4

> <Gold.Version>
5.8.1

> <Gold.Id.Protein>
6NUR|6NUR_protein|mol2

> <Gold.PLP.Fitness>
48.7383

> <Gold.PLP.PLP>
-40.3767

> <Gold.PLP.part.hbond>
-5.0000

> <Gold.PLP.part.metal>
0.0000

> <Gold.PLP.part.buried>
-6.0657

> <Gold.PLP.part.nonpolar>
-28.5900

> <Gold.PLP.part.repulsive>
0.2308

> <Gold.PLP.ligand.clash>
0.0000

> <Gold.PLP.ligand.torsion>
1.8381

> <Gold.PLP.Chemscore.Hbond>
3.9840

> <Gold.PLP.Chemscore.CHOScore>
0.0000

> <Gold.PLP.Chemscore.Metal>
0.0000

> <Gold.Chemscore.Hbonds>
donor molecule, donor type, donor heavy atom, donor atom, acceptor molecule, acceptor atom, score
      L1  H    21    42       P1  8028  0.99
      P1  H  6896  6909       L1     8  1.00
      P1  H  7989  7998       L1    13  1.00
      P1  H 10752 10765       L1    11  1.00

> <Gold.PLP.Chemscore.Internal.Correction>
0.0858

> <Gold.Rescore>
     Score         DG    S(hbond)    S(metal)    S(lipo)     H(rot)  DE(clash)    DE(int)     intcor
     11.06     -16.67       2.75        0.00      86.71       3.18       0.58       5.03       ----

> <Gold.Chemscore.Fitness>
11.0588

> <Gold.Chemscore.DG>
-16.6749

> <Gold.Chemscore.ZeroCoef>
-5.4800

> <Gold.Chemscore.Hbond>
2.7542

> <Gold.Chemscore.Metal>
0.0000

> <Gold.Chemscore.Lipo>
86.7055

> <Gold.Chemscore.Internal_Hbond>
0.0000

> <Gold.Chemscore.DEClash>
0.5848

> <Gold.Chemscore.DEInternal>
5.0313

> <Gold.Chemscore.Rot>
3.1831

> <Gold.Chemscore.Internal.Correction>
   9.000000E+99

> <Gold.Chemscore.Hbonds>
donor molecule, donor type, donor heavy atom, donor atom, acceptor molecule, acceptor atom, score
      L1  H    21    42       P1  8028  0.77
      P1  H  6896  6909       L1     8  0.40
      P1  H  7989  7998       L1    13  0.36
      P1  H 10752 10765       L1    11  0.78

> <Gold.Chemscore.Hbond.Weighted>
-9.1990

> <Gold.Chemscore.Metal.Weighted>
-0.0000

> <Gold.Chemscore.Lipo.Weighted>
-10.1445

> <Gold.Chemscore.Internal_Hbond.Weighted>
0.0000

> <Gold.Chemscore.DEClash.Weighted>
0.5848

> <Gold.Chemscore.DEInternal.Weighted>
5.0313

> <Gold.Chemscore.Rot.Weighted>
8.1486

> <Gold.Chemscore.Internal.Correction.Weighted>
   9.000000E+99

> <Gold.Protein.RotatedTorsions>
[ 6907 6896 6895 6894 ] final   37.52 input  -60.11 | X-H torsion
[ 7974 7965 7964 7962 ] final   42.32 input  175.53 | X-H torsion
[ 8008 7997 7996 7995 ] final   61.55 input   59.86 | X-H torsion
[ 10167 10162 10161 10158 ] final  -92.52 input  -65.29 | X-H torsion
[ 10718 10713 10712 10709 ] final   91.63 input   66.30 | X-H torsion
[ 10763 10752 10751 10750 ] final  154.65 input  -60.55 | X-H torsion
[ 11005 11000 10999 10996 ] final    6.28 input  -57.11 | X-H torsion

> <Gold.Protein.ActiveResidues>
 VAL166  LYS551  ARG553  GLY616  TRP617  ASP618  TYR619  PRO620  LYS621  CYS622 
 ASP623  PHE694  ASN695  SER759  ASP760  ASP761  ALA762  ILE779  LEU786  VAL792 
 PHE793  MET794  SER795  GLU796  ALA797  LYS798  CYS799  TRP800  GLU811  SER814 

> <Gold.Protein.RotatedAtoms>
  152.1443  134.9038  160.0551 H   0  0  0  0  0  0  0  0  0  0  0  0  # atno 6907 bound_to 6896
  152.0094  133.3851  159.4222 H   0  0  0  0  0  0  0  0  0  0  0  0  # atno 6908 bound_to 6896
  150.6868  134.3668  159.5018 H   0  0  0  0  0  0  0  0  0  0  0  0  # atno 6909 bound_to 6896
  146.0750  139.5314  142.9573 H   0  0  0  0  0  0  0  0  0  0  0  0  # atno 7974 bound_to 7965
  155.6001  140.3494  155.4591 H   0  0  0  0  0  0  0  0  0  0  0  0  # atno 8008 bound_to 7997
  156.0235  140.1259  157.0357 H   0  0  0  0  0  0  0  0  0  0  0  0  # atno 8009 bound_to 7997
  154.4324  140.1058  156.5983 H   0  0  0  0  0  0  0  0  0  0  0  0  # atno 8010 bound_to 7997
  140.3340  143.2979  151.9910 H   0  0  0  0  0  0  0  0  0  0  0  0  # atno 10167 bound_to 10162
  157.6960  131.0414  150.3759 H   0  0  0  0  0  0  0  0  0  0  0  0  # atno 10718 bound_to 10713
  154.1558  135.2812  155.3122 H   0  0  0  0  0  0  0  0  0  0  0  0  # atno 10763 bound_to 10752
  154.6183  135.5476  153.7551 H   0  0  0  0  0  0  0  0  0  0  0  0  # atno 10764 bound_to 10752
  153.0207  135.6432  154.1701 H   0  0  0  0  0  0  0  0  0  0  0  0  # atno 10765 bound_to 10752
  140.5612  134.0190  155.7972 H   0  0  0  0  0  0  0  0  0  0  0  0  # atno 11005 bound_to 11000
  145.6322  141.0302  143.1857 LP  0  0  0  0  0  0  0  0  0  0  0  0  # atno 17320 bound_to 7965
  144.7256  139.7887  143.7366 LP  0  0  0  0  0  0  0  0  0  0  0  0  # atno 17321 bound_to 7965
  139.4851  144.6212  151.7252 LP  0  0  0  0  0  0  0  0  0  0  0  0  # atno 17342 bound_to 10162
  140.5371  144.0639  150.6074 LP  0  0  0  0  0  0  0  0  0  0  0  0  # atno 17343 bound_to 10162
  156.4179  130.3947  149.6846 LP  0  0  0  0  0  0  0  0  0  0  0  0  # atno 17370 bound_to 10713
  156.4107  130.7720  151.2733 LP  0  0  0  0  0  0  0  0  0  0  0  0  # atno 17371 bound_to 10713
  141.1113  133.9612  157.2905 LP  0  0  0  0  0  0  0  0  0  0  0  0  # atno 17394 bound_to 11000
  139.9407  135.0191  156.8698 LP  0  0  0  0  0  0  0  0  0  0  0  0  # atno 17395 bound_to 11000

$$$$
