AV-unprocessed.smi:1641|AV-procd|sdf|6566|dock7
  -GOLD-   22720 7253D 1   1.00000     0.00000
 Structure written by MMmdl.
 41 42  0  0  0  0  0  0  0  0  3 V2000
  146.3554  133.9344  162.3628 C   0  0  0  0  0  0  0  0  0  0  0  0
  146.9386  134.9642  161.4574 C   0  0  0  0  0  0  0  0  0  0  0  0
  147.1650  136.2211  161.8467 N   0  0  0  0  0  0  0  0  0  0  0  0
  147.7106  136.9929  160.8311 N   0  0  0  0  0  0  0  0  0  0  0  0
  147.8969  136.3091  159.6932 C   0  0  0  0  0  0  0  0  0  0  0  0
  148.4113  136.8764  158.5895 N   0  5  0  0  0  0  0  0  0  0  0  0
  149.2223  136.1620  157.7777 C   0  0  0  0  0  0  0  0  0  0  0  0
  149.9561  135.2288  158.1107 O   0  0  0  0  0  0  0  0  0  0  0  0
  149.1801  136.5511  156.4972 N   0  0  0  0  0  0  0  0  0  0  0  0
  149.9477  135.9518  155.4151 C   0  0  0  0  0  0  0  0  0  0  0  0
  149.3334  134.6038  155.0073 C   0  0  0  0  0  0  0  0  0  0  0  0
  148.2312  134.7589  154.0257 N   0  3  1  0  0  0  0  0  0  0  0  0
  147.8781  133.4785  153.3680 C   0  0  0  0  0  0  0  0  0  0  0  0
  146.7777  133.6971  152.3130 C   0  0  1  0  0  0  0  0  0  0  0  0
  146.3307  132.3831  151.6631 C   0  0  0  0  0  0  0  0  0  0  0  0
  145.6458  134.2900  152.9397 O   0  0  0  0  0  0  0  0  0  0  0  0
  145.9385  135.5641  153.5028 C   0  0  1  0  0  0  0  0  0  0  0  0
  144.6373  136.1492  154.0627 C   0  0  0  0  0  0  0  0  0  0  0  0
  147.0178  135.4000  154.5896 C   0  0  0  0  0  0  0  0  0  0  0  0
  147.3797  134.6258  159.7920 S   0  0  0  0  0  0  0  0  0  0  0  0
  146.9674  133.8345  163.2594 H   0  0  0  0  0  0  0  0  0  0  0  0
  146.3114  132.9679  161.8605 H   0  0  0  0  0  0  0  0  0  0  0  0
  145.3458  134.2230  162.6554 H   0  0  0  0  0  0  0  0  0  0  0  0
  148.5700  137.3206  156.2635 H   0  0  0  0  0  0  0  0  0  0  0  0
  149.9610  136.6474  154.5758 H   0  0  0  0  0  0  0  0  0  0  0  0
  150.9804  135.8111  155.7382 H   0  0  0  0  0  0  0  0  0  0  0  0
  150.1216  133.9940  154.5626 H   0  0  0  0  0  0  0  0  0  0  0  0
  148.9770  134.0583  155.8828 H   0  0  0  0  0  0  0  0  0  0  0  0
  148.7625  133.0532  152.8915 H   0  0  0  0  0  0  0  0  0  0  0  0
  147.5439  132.7632  154.1214 H   0  0  0  0  0  0  0  0  0  0  0  0
  147.1448  134.3631  151.5298 H   0  0  0  0  0  0  0  0  0  0  0  0
  147.1609  131.8949  151.1521 H   0  0  0  0  0  0  0  0  0  0  0  0
  145.5462  132.5598  150.9268 H   0  0  0  0  0  0  0  0  0  0  0  0
  145.9391  131.6876  152.4059 H   0  0  0  0  0  0  0  0  0  0  0  0
  146.3056  136.2273  152.7173 H   0  0  0  0  0  0  0  0  0  0  0  0
  144.8051  137.1339  154.4997 H   0  0  0  0  0  0  0  0  0  0  0  0
  144.2152  135.5069  154.8361 H   0  0  0  0  0  0  0  0  0  0  0  0
  143.8896  136.2584  153.2767 H   0  0  0  0  0  0  0  0  0  0  0  0
  146.6346  134.7938  155.4124 H   0  0  0  0  0  0  0  0  0  0  0  0
  147.2626  136.3784  155.0018 H   0  0  0  0  0  0  0  0  0  0  0  0
  148.5780  135.3664  153.2972 H   0  0  0  0  0  0  0  0  0  0  0  0
  1  2  1  0  0  0  0
  1 21  1  0  0  0  0
  1 22  1  0  0  0  0
  1 23  1  0  0  0  0
  2 20  1  0  0  0  0
  2  3  2  0  0  0  0
  3  4  1  0  0  0  0
  4  5  2  0  0  0  0
  5  6  1  0  0  0  0
  5 20  1  0  0  0  0
  6  7  1  0  0  0  0
  7  8  2  0  0  0  0
  7  9  1  0  0  0  0
  9 10  1  0  0  0  0
  9 24  1  0  0  0  0
 10 11  1  0  0  0  0
 10 25  1  0  0  0  0
 10 26  1  0  0  0  0
 11 12  1  0  0  0  0
 11 27  1  0  0  0  0
 11 28  1  0  0  0  0
 12 19  1  0  0  0  0
 12 13  1  0  0  0  0
 12 41  1  0  0  0  0
 13 14  1  0  0  0  0
 13 29  1  0  0  0  0
 13 30  1  0  0  0  0
 14 15  1  0  0  0  0
 14 16  1  0  0  0  0
 14 31  1  0  0  0  0
 15 32  1  0  0  0  0
 15 33  1  0  0  0  0
 15 34  1  0  0  0  0
 16 17  1  0  0  0  0
 17 18  1  0  0  0  0
 17 19  1  0  0  0  0
 17 35  1  0  0  0  0
 18 36  1  0  0  0  0
 18 37  1  0  0  0  0
 18 38  1  0  0  0  0
 19 39  1  0  0  0  0
 19 40  1  0  0  0  0
M  CHG  1   6  -1
M  CHG  1  12   1
M  END
> <s_m_source_file>
AV-unprocessed.smi

> <i_m_source_file_index>
1641

> <i_lp_mmshare_version>
43012

> <i_f3d_flags>
0

> <s_epik_input>
W0NIM11jMW5uYyhzMSlbTkhdQyg9TylbTkhdW0NIMl1bQ0gyXU4yW0NIMl1bQ0BASF0oW0NIM10pT1tDQEBIXShbQ0gzXSlbQ0gyXTI=

> <s_epik_cmdline>
J2VwaWtfcHl0aG9uJywgJy1waCcsICc3LjAnLCAnLXRuJywgJzgnLCAnLW1hJywgJzIwMCcsICctbWV0YWxfYmluZGluZycsICctaW1hZScsICc8aW5maWxlLm1hZT4nLCAnLW9tYWUnLCAnPG91dGZpbGUubWFlPic=

> <r_lp_tautomer_probability>
1

> <r_epik_Ionization_Penalty>
3.5343

> <r_epik_Ionization_Penalty_Charging>
3.42778

> <r_epik_Ionization_Penalty_Neutral>
0.106519

> <r_epik_State_Penalty>
3.62118

> <r_epik_Charging_Adjusted_Penalty>
7.04896

> <i_epik_Tot_Q>
0

> <i_epik_Tot_abs_Q>
2

> <r_epik_Metal_State_Penalty>
1.13984

> <b_epik_Metal_Only>
1

> <s_lp_Force_Field>
OPLS_2005

> <r_lp_Energy>
7.34164

> <b_lp_Chiralities_Consistent>
1

> <s_lp_Variant>
AV-unprocessed.smi:1641-11

> <Gold.Version>
5.8.1

> <Gold.Id.Protein>
6NUR|6NUR_protein|mol2

> <Gold.PLP.Fitness>
38.5484

> <Gold.PLP.PLP>
-25.9853

> <Gold.PLP.part.hbond>
-4.0000

> <Gold.PLP.part.metal>
0.0000

> <Gold.PLP.part.buried>
-3.7635

> <Gold.PLP.part.nonpolar>
-18.5870

> <Gold.PLP.part.repulsive>
0.0971

> <Gold.PLP.ligand.clash>
0.0000

> <Gold.PLP.ligand.torsion>
0.7475

> <Gold.PLP.Chemscore.Hbond>
4.6720

> <Gold.PLP.Chemscore.CHOScore>
0.0000

> <Gold.PLP.Chemscore.Metal>
0.0000

> <Gold.Chemscore.Hbonds>
donor molecule, donor type, donor heavy atom, donor atom, acceptor molecule, acceptor atom, score
      L1  H    12    41       P1  7948  2.00
      P1  H  6896  6909       L1     8  0.90
      P1  H  6931  6943       L1     4  0.72
      P1  H  6934  6947       L1     4  0.77

> <Gold.PLP.Chemscore.Internal.Correction>
0.0421

> <Gold.Rescore>
     Score         DG    S(hbond)    S(metal)    S(lipo)     H(rot)  DE(clash)    DE(int)     intcor
     17.43     -18.19       3.33        0.00      48.82       1.61       0.00       0.77       ----

> <Gold.Chemscore.Fitness>
17.4270

> <Gold.Chemscore.DG>
-18.1948

> <Gold.Chemscore.ZeroCoef>
-5.4800

> <Gold.Chemscore.Hbond>
3.3282

> <Gold.Chemscore.Metal>
0.0000

> <Gold.Chemscore.Lipo>
48.8237

> <Gold.Chemscore.Internal_Hbond>
0.0000

> <Gold.Chemscore.DEClash>
0.0015

> <Gold.Chemscore.DEInternal>
0.7663

> <Gold.Chemscore.Rot>
1.6070

> <Gold.Chemscore.Internal.Correction>
   9.000000E+99

> <Gold.Chemscore.Hbonds>
donor molecule, donor type, donor heavy atom, donor atom, acceptor molecule, acceptor atom, score
      L1  H    12    41       P1  7948  0.93
      P1  H  6896  6909       L1     8  0.88
      P1  H  6931  6943       L1     4  0.25
      P1  H  6934  6947       L1     4  0.66

> <Gold.Chemscore.Hbond.Weighted>
-11.1163

> <Gold.Chemscore.Metal.Weighted>
-0.0000

> <Gold.Chemscore.Lipo.Weighted>
-5.7124

> <Gold.Chemscore.Internal_Hbond.Weighted>
0.0000

> <Gold.Chemscore.DEClash.Weighted>
0.0015

> <Gold.Chemscore.DEInternal.Weighted>
0.7663

> <Gold.Chemscore.Rot.Weighted>
4.1139

> <Gold.Chemscore.Internal.Correction.Weighted>
   9.000000E+99

> <Gold.Protein.RotatedTorsions>
[ 6907 6896 6895 6894 ] final   52.97 input  -60.11 | X-H torsion
[ 7974 7965 7964 7962 ] final -170.71 input  175.53 | X-H torsion
[ 8008 7997 7996 7995 ] final   11.01 input   59.86 | X-H torsion
[ 10167 10162 10161 10158 ] final  -59.85 input  -65.29 | X-H torsion
[ 10718 10713 10712 10709 ] final -158.79 input   66.30 | X-H torsion
[ 10763 10752 10751 10750 ] final   66.67 input  -60.55 | X-H torsion
[ 11005 11000 10999 10996 ] final  -54.97 input  -57.11 | X-H torsion

> <Gold.Protein.ActiveResidues>
 VAL166  LYS551  ARG553  GLY616  TRP617  ASP618  TYR619  PRO620  LYS621  CYS622 
 ASP623  PHE694  ASN695  SER759  ASP760  ASP761  ALA762  ILE779  LEU786  VAL792 
 PHE793  MET794  SER795  GLU796  ALA797  LYS798  CYS799  TRP800  GLU811  SER814 

> <Gold.Protein.RotatedAtoms>
  152.3288  134.7286  160.0294 H   0  0  0  0  0  0  0  0  0  0  0  0  # atno 6907 bound_to 6896
  151.7710  133.3336  159.3452 H   0  0  0  0  0  0  0  0  0  0  0  0  # atno 6908 bound_to 6896
  150.7411  134.5950  159.6052 H   0  0  0  0  0  0  0  0  0  0  0  0  # atno 6909 bound_to 6896
  144.7166  140.2031  143.6336 H   0  0  0  0  0  0  0  0  0  0  0  0  # atno 7974 bound_to 7965
  154.8012  140.2852  155.5920 H   0  0  0  0  0  0  0  0  0  0  0  0  # atno 8008 bound_to 7997
  156.2977  140.2586  156.2810 H   0  0  0  0  0  0  0  0  0  0  0  0  # atno 8009 bound_to 7997
  154.9556  140.0378  157.2155 H   0  0  0  0  0  0  0  0  0  0  0  0  # atno 8010 bound_to 7997
  140.6109  143.2387  151.5712 H   0  0  0  0  0  0  0  0  0  0  0  0  # atno 10167 bound_to 10162
  156.5590  130.8639  151.2804 H   0  0  0  0  0  0  0  0  0  0  0  0  # atno 10718 bound_to 10713
  153.0151  135.5312  154.6860 H   0  0  0  0  0  0  0  0  0  0  0  0  # atno 10763 bound_to 10752
  154.6007  135.2868  155.0540 H   0  0  0  0  0  0  0  0  0  0  0  0  # atno 10764 bound_to 10752
  154.1598  135.6549  153.5035 H   0  0  0  0  0  0  0  0  0  0  0  0  # atno 10765 bound_to 10752
  141.1051  133.6614  156.4400 H   0  0  0  0  0  0  0  0  0  0  0  0  # atno 11005 bound_to 11000
  145.8661  139.2247  143.1688 LP  0  0  0  0  0  0  0  0  0  0  0  0  # atno 17320 bound_to 7965
  146.0128  140.8419  142.9962 LP  0  0  0  0  0  0  0  0  0  0  0  0  # atno 17321 bound_to 7965
  139.5360  144.2779  152.1253 LP  0  0  0  0  0  0  0  0  0  0  0  0  # atno 17342 bound_to 10162
  140.1978  144.4688  150.6446 LP  0  0  0  0  0  0  0  0  0  0  0  0  # atno 17343 bound_to 10162
  157.7372  130.9792  150.2181 LP  0  0  0  0  0  0  0  0  0  0  0  0  # atno 17370 bound_to 10713
  156.2816  130.3734  149.7930 LP  0  0  0  0  0  0  0  0  0  0  0  0  # atno 17371 bound_to 10713
  140.4922  134.6565  157.5215 LP  0  0  0  0  0  0  0  0  0  0  0  0  # atno 17394 bound_to 11000
  139.9918  134.6973  155.9676 LP  0  0  0  0  0  0  0  0  0  0  0  0  # atno 17395 bound_to 11000

$$$$
