AV-unprocessed.smi:209|AV-procd|sdf|1608|dock2
  -GOLD-   2262019523D 1   1.00000     0.00000
 Structure written by MMmdl.
 48 52  0  0  0  0  0  0  0  0  1 V2000
  153.4976  142.0921  161.5876 O   0  0  0  0  0  0  0  0  0  0  0  0
  153.2543  141.6197  160.4794 C   0  0  0  0  0  0  0  0  0  0  0  0
  153.2601  140.3244  160.1421 N   0  0  0  0  0  0  0  0  0  0  0  0
  152.8369  140.1036  158.7626 C   0  0  0  0  0  0  0  0  0  0  0  0
  152.1217  141.4249  158.4404 C   0  0  1  0  0  0  0  0  0  0  0  0
  152.9191  142.4393  159.2469 C   0  0  1  0  0  0  0  0  0  0  0  0
  152.1211  143.7394  159.3573 C   0  0  0  0  0  0  0  0  0  0  0  0
  151.8966  144.2412  157.9109 C   0  0  0  0  0  0  0  0  0  0  0  0
  151.2991  143.1515  156.9791 C   0  0  0  0  0  0  0  0  0  0  0  0
  152.0302  141.8772  157.0565 N   0  0  0  0  0  0  0  0  0  0  0  0
  151.5715  140.9337  156.2047 C   0  0  0  0  0  0  0  0  0  0  0  0
  152.3910  139.9363  155.7791 N   0  0  0  0  0  0  0  0  0  0  0  0
  151.9321  139.0158  154.9253 C   0  0  0  0  0  0  0  0  0  0  0  0
  150.7165  138.9122  154.3824 N   0  0  0  0  0  0  0  0  0  0  0  0
  149.8961  139.9166  154.8064 C   0  0  0  0  0  0  0  0  0  0  0  0
  150.2425  140.9600  155.7089 C   0  0  0  0  0  0  0  0  0  0  0  0
  149.1570  141.8026  155.9058 N   0  0  0  0  0  0  0  0  0  0  0  0
  148.2167  141.2831  155.1642 C   0  0  0  0  0  0  0  0  0  0  0  0
  148.5759  140.1534  154.4626 N   0  0  0  0  0  0  0  0  0  0  0  0
  147.7313  139.3755  153.5688 C   0  0  0  0  0  0  0  0  0  0  0  0
  147.0709  138.1562  154.2388 C   0  0  0  0  0  0  0  0  0  0  0  0
  146.0783  137.5243  153.2415 C   0  0  0  0  0  0  0  0  0  0  0  0
  146.6919  137.1702  152.0180 O   0  0  0  0  0  0  0  0  0  0  0  0
  148.0462  137.1926  154.9306 C   0  0  0  0  0  0  0  0  0  0  0  0
  147.3221  137.2599  156.1788 O   0  0  0  0  0  0  0  0  0  0  0  0
  146.5485  138.3677  155.6673 C   0  0  0  0  0  0  0  0  0  0  0  0
  151.1081  141.3662  158.8447 H   0  0  0  0  0  0  0  0  0  0  0  0
  153.8708  142.6465  158.7527 H   0  0  0  0  0  0  0  0  0  0  0  0
  153.4574  139.5696  160.7832 H   0  0  0  0  0  0  0  0  0  0  0  0
  153.7154  139.9514  158.1334 H   0  0  0  0  0  0  0  0  0  0  0  0
  152.1790  139.2393  158.6679 H   0  0  0  0  0  0  0  0  0  0  0  0
  151.1672  143.5679  159.8579 H   0  0  0  0  0  0  0  0  0  0  0  0
  152.6650  144.4827  159.9410 H   0  0  0  0  0  0  0  0  0  0  0  0
  151.2524  145.1206  157.9159 H   0  0  0  0  0  0  0  0  0  0  0  0
  152.8525  144.5677  157.4991 H   0  0  0  0  0  0  0  0  0  0  0  0
  150.2556  142.9885  157.2522 H   0  0  0  0  0  0  0  0  0  0  0  0
  151.3004  143.5093  155.9487 H   0  0  0  0  0  0  0  0  0  0  0  0
  152.6406  138.2538  154.6354 H   0  0  0  0  0  0  0  0  0  0  0  0
  147.2282  141.7147  155.1105 H   0  0  0  0  0  0  0  0  0  0  0  0
  146.9729  140.0363  153.1468 H   0  0  0  0  0  0  0  0  0  0  0  0
  148.3480  139.0612  152.7257 H   0  0  0  0  0  0  0  0  0  0  0  0
  145.6320  136.6179  153.6510 H   0  0  0  0  0  0  0  0  0  0  0  0
  145.2590  138.2097  153.0226 H   0  0  0  0  0  0  0  0  0  0  0  0
  147.4968  136.7123  152.2062 H   0  0  0  0  0  0  0  0  0  0  0  0
  148.0638  136.1872  154.5089 H   0  0  0  0  0  0  0  0  0  0  0  0
  149.0595  137.5841  155.0319 H   0  0  0  0  0  0  0  0  0  0  0  0
  146.8559  139.3107  156.1208 H   0  0  0  0  0  0  0  0  0  0  0  0
  145.4742  138.2166  155.7785 H   0  0  0  0  0  0  0  0  0  0  0  0
  1  2  2  0  0  0  0
  2  6  1  0  0  0  0
  2  3  1  0  0  0  0
  3  4  1  0  0  0  0
  3 29  1  0  0  0  0
  4  5  1  0  0  0  0
  4 30  1  0  0  0  0
  4 31  1  0  0  0  0
  5 27  1  0  0  0  0
  5 10  1  0  0  0  0
  5  6  1  0  0  0  0
  6 28  1  0  0  0  0
  6  7  1  0  0  0  0
  7  8  1  0  0  0  0
  7 32  1  0  0  0  0
  7 33  1  0  0  0  0
  8  9  1  0  0  0  0
  8 34  1  0  0  0  0
  8 35  1  0  0  0  0
  9 10  1  0  0  0  0
  9 36  1  0  0  0  0
  9 37  1  0  0  0  0
 10 11  1  0  0  0  0
 11 16  1  0  0  0  0
 11 12  2  0  0  0  0
 12 13  1  0  0  0  0
 13 14  2  0  0  0  0
 13 38  1  0  0  0  0
 14 15  1  0  0  0  0
 15 19  1  0  0  0  0
 15 16  2  0  0  0  0
 16 17  1  0  0  0  0
 17 18  2  0  0  0  0
 18 19  1  0  0  0  0
 18 39  1  0  0  0  0
 19 20  1  0  0  0  0
 20 21  1  0  0  0  0
 20 40  1  0  0  0  0
 20 41  1  0  0  0  0
 21 26  1  0  0  0  0
 21 22  1  0  0  0  0
 21 24  1  0  0  0  0
 22 23  1  0  0  0  0
 22 42  1  0  0  0  0
 22 43  1  0  0  0  0
 23 44  1  0  0  0  0
 24 25  1  0  0  0  0
 24 45  1  0  0  0  0
 24 46  1  0  0  0  0
 25 26  1  0  0  0  0
 26 47  1  0  0  0  0
 26 48  1  0  0  0  0
M  END
> <s_m_source_file>
AV-unprocessed.smi

> <i_m_source_file_index>
209

> <i_lp_mmshare_version>
43012

> <i_f3d_flags>
0

> <s_epik_input>
W0NIMl0xW05IXUMoPU8pW0NAQEhdKFtDQEBIXTEyKVtDSDJdW0NIMl1bQ0gyXU4yYyhuW2NIXW4zKWMoYzM0KW5bY0hdbjRbQ0gyXUM1KFtDSDJdW09IXSlbQ0gyXU9bQ0gyXTU=

> <s_epik_cmdline>
J2VwaWtfcHl0aG9uJywgJy1waCcsICc3LjAnLCAnLXRuJywgJzgnLCAnLW1hJywgJzIwMCcsICctbWV0YWxfYmluZGluZycsICctaW1hZScsICc8aW5maWxlLm1hZT4nLCAnLW9tYWUnLCAnPG91dGZpbGUubWFlPic=

> <r_lp_tautomer_probability>
1

> <r_epik_Ionization_Penalty>
0.00113306

> <r_epik_Ionization_Penalty_Charging>
0

> <r_epik_Ionization_Penalty_Neutral>
0.00113306

> <r_epik_State_Penalty>
0.000624042

> <r_epik_Charging_Adjusted_Penalty>
0.000624042

> <i_epik_Tot_Q>
0

> <i_epik_Tot_abs_Q>
0

> <r_epik_Metal_State_Penalty>
-0

> <b_epik_Metal_Only>
0

> <s_lp_Force_Field>
OPLS_2005

> <r_lp_Energy>
56.9818

> <b_lp_Chiralities_Consistent>
1

> <s_lp_Variant>
AV-unprocessed.smi:209-2

> <Gold.Version>
5.8.1

> <Gold.Id.Protein>
6NUR|6NUR_protein|mol2

> <Gold.PLP.Fitness>
42.7216

> <Gold.PLP.PLP>
-38.7573

> <Gold.PLP.part.hbond>
-1.6894

> <Gold.PLP.part.metal>
0.0000

> <Gold.PLP.part.buried>
-1.5521

> <Gold.PLP.part.nonpolar>
-36.6228

> <Gold.PLP.part.repulsive>
1.8346

> <Gold.PLP.ligand.clash>
0.2109

> <Gold.PLP.ligand.torsion>
1.0976

> <Gold.PLP.Chemscore.Hbond>
1.9913

> <Gold.PLP.Chemscore.CHOScore>
0.0000

> <Gold.PLP.Chemscore.Metal>
0.0000

> <Gold.Chemscore.Hbonds>
donor molecule, donor type, donor heavy atom, donor atom, acceptor molecule, acceptor atom, score
      L1  H    23    44       P1  7948  1.00
      P1  H  7997  8008       L1    12  1.00

> <Gold.PLP.Chemscore.Internal.Correction>
0.3967

> <Gold.Rescore>
     Score         DG    S(hbond)    S(metal)    S(lipo)     H(rot)  DE(clash)    DE(int)     intcor
      8.26     -14.20       1.81        0.00      80.99       2.66       2.39       3.55       ----

> <Gold.Chemscore.Fitness>
8.2566

> <Gold.Chemscore.DG>
-14.1993

> <Gold.Chemscore.ZeroCoef>
-5.4800

> <Gold.Chemscore.Hbond>
1.8139

> <Gold.Chemscore.Metal>
0.0000

> <Gold.Chemscore.Lipo>
80.9887

> <Gold.Chemscore.Internal_Hbond>
0.0000

> <Gold.Chemscore.DEClash>
2.3924

> <Gold.Chemscore.DEInternal>
3.5502

> <Gold.Chemscore.Rot>
2.6620

> <Gold.Chemscore.Internal.Correction>
   9.000000E+99

> <Gold.Chemscore.Hbonds>
donor molecule, donor type, donor heavy atom, donor atom, acceptor molecule, acceptor atom, score
      L1  H    23    44       P1  7948  0.92
      P1  H  7997  8008       L1    12  0.88

> <Gold.Chemscore.Hbond.Weighted>
-6.0584

> <Gold.Chemscore.Metal.Weighted>
-0.0000

> <Gold.Chemscore.Lipo.Weighted>
-9.4757

> <Gold.Chemscore.Internal_Hbond.Weighted>
0.0000

> <Gold.Chemscore.DEClash.Weighted>
2.3924

> <Gold.Chemscore.DEInternal.Weighted>
3.5502

> <Gold.Chemscore.Rot.Weighted>
6.8148

> <Gold.Chemscore.Internal.Correction.Weighted>
   9.000000E+99

> <Gold.Protein.RotatedTorsions>
[ 6907 6896 6895 6894 ] final  161.38 input  -60.11 | X-H torsion
[ 7974 7965 7964 7962 ] final  173.22 input  175.53 | X-H torsion
[ 8008 7997 7996 7995 ] final  -36.82 input   59.86 | X-H torsion
[ 10167 10162 10161 10158 ] final  162.15 input  -65.29 | X-H torsion
[ 10718 10713 10712 10709 ] final  125.24 input   66.30 | X-H torsion
[ 10763 10752 10751 10750 ] final  -82.30 input  -60.55 | X-H torsion
[ 11005 11000 10999 10996 ] final -169.01 input  -57.11 | X-H torsion

> <Gold.Protein.ActiveResidues>
 VAL166  LYS551  ARG553  GLY616  TRP617  ASP618  TYR619  PRO620  LYS621  CYS622 
 ASP623  PHE694  ASN695  SER759  ASP760  ASP761  ALA762  ILE779  LEU786  VAL792 
 PHE793  MET794  SER795  GLU796  ALA797  LYS798  CYS799  TRP800  GLU811  SER814 

> <Gold.Protein.RotatedAtoms>
  151.9565  133.3682  159.4019 H   0  0  0  0  0  0  0  0  0  0  0  0  # atno 6907 bound_to 6896
  150.6971  134.4285  159.5247 H   0  0  0  0  0  0  0  0  0  0  0  0  # atno 6908 bound_to 6896
  152.1967  134.8624  160.0563 H   0  0  0  0  0  0  0  0  0  0  0  0  # atno 6909 bound_to 6896
  144.7249  139.9615  143.6435 H   0  0  0  0  0  0  0  0  0  0  0  0  # atno 7974 bound_to 7965
  154.4065  140.1620  156.2436 H   0  0  0  0  0  0  0  0  0  0  0  0  # atno 8008 bound_to 7997
  155.9180  140.3423  155.6128 H   0  0  0  0  0  0  0  0  0  0  0  0  # atno 8009 bound_to 7997
  155.7256  140.0774  157.2302 H   0  0  0  0  0  0  0  0  0  0  0  0  # atno 8010 bound_to 7997
  139.4857  144.4466  151.8884 H   0  0  0  0  0  0  0  0  0  0  0  0  # atno 10167 bound_to 10162
  157.5519  131.1093  150.8687 H   0  0  0  0  0  0  0  0  0  0  0  0  # atno 10718 bound_to 10713
  154.5741  135.5596  153.7123 H   0  0  0  0  0  0  0  0  0  0  0  0  # atno 10763 bound_to 10752
  153.0058  135.6304  154.2073 H   0  0  0  0  0  0  0  0  0  0  0  0  # atno 10764 bound_to 10752
  154.2013  135.2878  155.2969 H   0  0  0  0  0  0  0  0  0  0  0  0  # atno 10765 bound_to 10752
  140.5356  134.5573  157.5086 H   0  0  0  0  0  0  0  0  0  0  0  0  # atno 11005 bound_to 11000
  146.0633  139.3625  143.0568 LP  0  0  0  0  0  0  0  0  0  0  0  0  # atno 17320 bound_to 7965
  145.8064  140.9747  143.0972 LP  0  0  0  0  0  0  0  0  0  0  0  0  # atno 17321 bound_to 7965
  140.3920  144.2603  150.5899 LP  0  0  0  0  0  0  0  0  0  0  0  0  # atno 17342 bound_to 10162
  140.5137  143.2284  151.8496 LP  0  0  0  0  0  0  0  0  0  0  0  0  # atno 17343 bound_to 10162
  156.9209  130.5315  149.5279 LP  0  0  0  0  0  0  0  0  0  0  0  0  # atno 17370 bound_to 10713
  156.0584  130.5641  150.9141 LP  0  0  0  0  0  0  0  0  0  0  0  0  # atno 17371 bound_to 10713
  139.9531  134.7582  156.0403 LP  0  0  0  0  0  0  0  0  0  0  0  0  # atno 17394 bound_to 11000
  141.1256  133.6600  156.3329 LP  0  0  0  0  0  0  0  0  0  0  0  0  # atno 17395 bound_to 11000

$$$$
