AV-unprocessed.smi:1|AV-procd|sdf|4|dock7
  -GOLD-   2262015 83D 1   1.00000     0.00000
 Structure written by MMmdl.
 57 62  0  0  0  0  0  0  0  0  1 V2000
  153.5218  140.6493  159.3687 O   0  0  0  0  0  0  0  0  0  0  0  0
  152.7066  141.3563  158.7755 C   0  0  0  0  0  0  0  0  0  0  0  0
  151.9132  140.8575  157.6660 N   0  0  0  0  0  0  0  0  0  0  0  0
  151.9596  139.6354  157.0858 C   0  0  0  0  0  0  0  0  0  0  0  0
  152.8087  139.3430  156.0659 N   0  0  0  0  0  0  0  0  0  0  0  0
  152.8220  138.1181  155.5325 C   0  0  0  0  0  0  0  0  0  0  0  0
  152.0850  137.0565  155.8645 N   0  0  0  0  0  0  0  0  0  0  0  0
  151.2263  137.3409  156.8856 C   0  0  0  0  0  0  0  0  0  0  0  0
  151.1045  138.5982  157.5413 C   0  0  0  0  0  0  0  0  0  0  0  0
  150.1304  138.5220  158.5275 N   0  0  0  0  0  0  0  0  0  0  0  0
  149.7051  137.2895  158.4562 C   0  0  0  0  0  0  0  0  0  0  0  0
  150.3171  136.5051  157.5035 N   0  0  0  0  0  0  0  0  0  0  0  0
  150.0355  135.0691  157.1980 C   0  0  1  0  0  0  0  0  0  0  0  0
  148.7310  134.9477  156.7132 O   0  0  0  0  0  0  0  0  0  0  0  0
  148.7335  134.4513  155.3770 C   0  0  2  0  0  0  0  0  0  0  0  0
  147.4867  133.6024  155.1035 C   0  0  0  0  0  0  0  0  0  0  0  0
  147.0754  133.8040  153.7617 O   0  0  0  0  0  0  0  0  0  0  0  0
  147.1158  132.7843  152.8833 C   0  0  0  0  0  0  0  0  0  0  0  0
  147.9301  131.8607  152.9470 O   0  0  0  0  0  0  0  0  0  0  0  0
  146.0724  132.8907  151.8229 C   0  0  0  0  0  0  0  0  0  0  0  0
  145.1368  133.9503  151.8756 C   0  0  0  0  0  0  0  0  0  0  0  0
  144.1393  134.0763  150.8892 C   0  0  0  0  0  0  0  0  0  0  0  0
  144.0653  133.1441  149.8380 C   0  0  0  0  0  0  0  0  0  0  0  0
  144.9902  132.0857  149.7740 C   0  0  0  0  0  0  0  0  0  0  0  0
  145.9887  131.9579  150.7593 C   0  0  0  0  0  0  0  0  0  0  0  0
  150.0533  133.6911  155.2601 C   0  0  2  0  0  0  0  0  0  0  0  0
  149.9525  132.3903  155.8168 O   0  0  0  0  0  0  0  0  0  0  0  0
  151.3230  132.0988  156.7263 S   0  0  0  0  0  0  0  0  0  0  0  0
  150.9034  131.7751  158.0983 O   0  0  0  0  0  0  0  0  0  0  0  0
  152.2208  131.2341  155.9461 O   0  0  0  0  0  0  0  0  0  0  0  0
  151.9529  133.6469  156.7205 O   0  0  0  0  0  0  0  0  0  0  0  0
  150.9985  134.5159  156.1368 C   0  0  2  0  0  0  0  0  0  0  0  0
  152.4165  142.7630  159.2117 C   0  0  0  0  0  0  0  0  0  0  0  0
  152.3724  143.0814  160.5878 C   0  0  0  0  0  0  0  0  0  0  0  0
  152.1130  144.4010  161.0066 C   0  0  0  0  0  0  0  0  0  0  0  0
  151.9035  145.4150  160.0530 C   0  0  0  0  0  0  0  0  0  0  0  0
  151.9581  145.1094  158.6800 C   0  0  0  0  0  0  0  0  0  0  0  0
  152.2172  143.7901  158.2599 C   0  0  0  0  0  0  0  0  0  0  0  0
  151.2479  141.5071  157.2727 H   0  0  0  0  0  0  0  0  0  0  0  0
  153.5253  137.9667  154.7269 H   0  0  0  0  0  0  0  0  0  0  0  0
  148.9286  136.9143  159.1073 H   0  0  0  0  0  0  0  0  0  0  0  0
  150.1097  134.5589  158.1592 H   0  0  0  0  0  0  0  0  0  0  0  0
  148.7599  135.2942  154.6866 H   0  0  0  0  0  0  0  0  0  0  0  0
  147.7194  132.5461  155.2453 H   0  0  0  0  0  0  0  0  0  0  0  0
  146.6852  133.8614  155.7968 H   0  0  0  0  0  0  0  0  0  0  0  0
  145.1740  134.6782  152.6736 H   0  0  0  0  0  0  0  0  0  0  0  0
  143.4301  134.8893  150.9402 H   0  0  0  0  0  0  0  0  0  0  0  0
  143.3003  133.2409  149.0817 H   0  0  0  0  0  0  0  0  0  0  0  0
  144.9349  131.3694  148.9672 H   0  0  0  0  0  0  0  0  0  0  0  0
  146.6830  131.1340  150.6797 H   0  0  0  0  0  0  0  0  0  0  0  0
  150.4012  133.6127  154.2296 H   0  0  0  0  0  0  0  0  0  0  0  0
  151.4697  135.3194  155.5702 H   0  0  0  0  0  0  0  0  0  0  0  0
  152.5316  142.3146  161.3323 H   0  0  0  0  0  0  0  0  0  0  0  0
  152.0756  144.6348  162.0604 H   0  0  0  0  0  0  0  0  0  0  0  0
  151.7046  146.4268  160.3742 H   0  0  0  0  0  0  0  0  0  0  0  0
  151.8036  145.8881  157.9477 H   0  0  0  0  0  0  0  0  0  0  0  0
  152.2637  143.5798  157.2012 H   0  0  0  0  0  0  0  0  0  0  0  0
  1  2  2  0  0  0  0
  2  3  1  0  0  0  0
  2 33  1  0  0  0  0
  3  4  1  0  0  0  0
  3 39  1  0  0  0  0
  4  9  1  0  0  0  0
  4  5  2  0  0  0  0
  5  6  1  0  0  0  0
  6  7  2  0  0  0  0
  6 40  1  0  0  0  0
  7  8  1  0  0  0  0
  8 12  1  0  0  0  0
  8  9  2  0  0  0  0
  9 10  1  0  0  0  0
 10 11  2  0  0  0  0
 11 12  1  0  0  0  0
 11 41  1  0  0  0  0
 12 13  1  0  0  0  0
 13 32  1  0  0  0  0
 13 14  1  0  0  0  0
 13 42  1  0  0  0  0
 14 15  1  0  0  0  0
 15 16  1  0  0  0  0
 15 26  1  0  0  0  0
 15 43  1  0  0  0  0
 16 17  1  0  0  0  0
 16 44  1  0  0  0  0
 16 45  1  0  0  0  0
 17 18  1  0  0  0  0
 18 19  2  0  0  0  0
 18 20  1  0  0  0  0
 20 25  1  0  0  0  0
 20 21  2  0  0  0  0
 21 22  1  0  0  0  0
 21 46  1  0  0  0  0
 22 23  2  0  0  0  0
 22 47  1  0  0  0  0
 23 24  1  0  0  0  0
 23 48  1  0  0  0  0
 24 25  2  0  0  0  0
 24 49  1  0  0  0  0
 25 50  1  0  0  0  0
 26 32  1  0  0  0  0
 26 27  1  0  0  0  0
 26 51  1  0  0  0  0
 27 28  1  0  0  0  0
 28 29  2  0  0  0  0
 28 30  2  0  0  0  0
 28 31  1  0  0  0  0
 31 32  1  0  0  0  0
 32 52  1  0  0  0  0
 33 38  1  0  0  0  0
 33 34  2  0  0  0  0
 34 35  1  0  0  0  0
 34 53  1  0  0  0  0
 35 36  2  0  0  0  0
 35 54  1  0  0  0  0
 36 37  1  0  0  0  0
 36 55  1  0  0  0  0
 37 38  2  0  0  0  0
 37 56  1  0  0  0  0
 38 57  1  0  0  0  0
M  END
> <s_m_source_file>
AV-unprocessed.smi

> <i_m_source_file_index>
1

> <i_lp_mmshare_version>
43012

> <i_f3d_flags>
0

> <s_epik_input>
W2NIXTFbY0hdW2NIXVtjSF1bY0hdYzFDKD1PKVtOSF1jKG5bY0hdbjIpYyhjMjMpbltjSF1uM1tDQEBIXShbQ0BIXShbQ0BIXTQ1KU9TKE81KSg9Tyk9TylPW0NASF00W0NIMl1PQyg9TyljNltjSF1bY0hdW2NIXVtjSF1bY0hdNg==

> <s_epik_cmdline>
J2VwaWtfcHl0aG9uJywgJy1waCcsICc3LjAnLCAnLXRuJywgJzgnLCAnLW1hJywgJzIwMCcsICctbWV0YWxfYmluZGluZycsICctaW1hZScsICc8aW5maWxlLm1hZT4nLCAnLW9tYWUnLCAnPG91dGZpbGUubWFlPic=

> <r_lp_tautomer_probability>
1

> <r_epik_Ionization_Penalty>
0.00195722

> <r_epik_Ionization_Penalty_Charging>
0

> <r_epik_Ionization_Penalty_Neutral>
0.00195722

> <r_epik_State_Penalty>
0.00633741

> <r_epik_Charging_Adjusted_Penalty>
0.00633741

> <i_epik_Tot_Q>
0

> <i_epik_Tot_abs_Q>
0

> <r_epik_Metal_State_Penalty>
0.341185

> <b_epik_Metal_Only>
0

> <s_epik_Chemistry_Notes>
This compound has an ester and may undergo hydrolysis at high or low pH. This compound contains an acetal/aminal-like group ( X-CH(R)-Y where X, Y are N, S, or O) that may be acid/base labile, releasing an aldehyde.

> <s_lp_Force_Field>
OPLS_2005

> <r_lp_Energy>
46.3459

> <b_lp_Chiralities_Consistent>
1

> <s_lp_Variant>
AV-unprocessed.smi:1-4

> <Gold.Version>
5.8.1

> <Gold.Id.Protein>
6NUR|6NUR_protein|mol2

> <Gold.PLP.Fitness>
65.2905

> <Gold.PLP.PLP>
-61.7218

> <Gold.PLP.part.hbond>
-3.5695

> <Gold.PLP.part.metal>
0.0000

> <Gold.PLP.part.buried>
-9.8423

> <Gold.PLP.part.nonpolar>
-50.3519

> <Gold.PLP.part.repulsive>
1.0415

> <Gold.PLP.ligand.clash>
0.0000

> <Gold.PLP.ligand.torsion>
2.6767

> <Gold.PLP.Chemscore.Hbond>
2.9027

> <Gold.PLP.Chemscore.CHOScore>
0.0000

> <Gold.PLP.Chemscore.Metal>
0.0000

> <Gold.Chemscore.Hbonds>
donor molecule, donor type, donor heavy atom, donor atom, acceptor molecule, acceptor atom, score
      P1  H  6896  6909       L1    29  1.00
      P1  H  7997  8009       L1     5  1.00
      P1  H 10752 10763       L1     7  0.94

> <Gold.PLP.Chemscore.Internal.Correction>
0.2140

> <Gold.Rescore>
     Score         DG    S(hbond)    S(metal)    S(lipo)     H(rot)  DE(clash)    DE(int)     intcor
     18.27     -22.16       1.78        0.00     138.42       2.13       0.06       3.83       ----

> <Gold.Chemscore.Fitness>
18.2673

> <Gold.Chemscore.DG>
-22.1573

> <Gold.Chemscore.ZeroCoef>
-5.4800

> <Gold.Chemscore.Hbond>
1.7793

> <Gold.Chemscore.Metal>
0.0000

> <Gold.Chemscore.Lipo>
138.4250

> <Gold.Chemscore.Internal_Hbond>
0.0000

> <Gold.Chemscore.DEClash>
0.0572

> <Gold.Chemscore.DEInternal>
3.8329

> <Gold.Chemscore.Rot>
2.1333

> <Gold.Chemscore.Internal.Correction>
   9.000000E+99

> <Gold.Chemscore.Hbonds>
donor molecule, donor type, donor heavy atom, donor atom, acceptor molecule, acceptor atom, score
      P1  H  6896  6909       L1    29  0.59
      P1  H  7997  8009       L1     5  0.53
      P1  H 10752 10763       L1     7  0.30

> <Gold.Chemscore.Hbond.Weighted>
-5.9430

> <Gold.Chemscore.Metal.Weighted>
-0.0000

> <Gold.Chemscore.Lipo.Weighted>
-16.1957

> <Gold.Chemscore.Internal_Hbond.Weighted>
0.0000

> <Gold.Chemscore.DEClash.Weighted>
0.0572

> <Gold.Chemscore.DEInternal.Weighted>
3.8329

> <Gold.Chemscore.Rot.Weighted>
5.4614

> <Gold.Chemscore.Internal.Correction.Weighted>
   9.000000E+99

> <Gold.Protein.RotatedTorsions>
[ 6907 6896 6895 6894 ] final  -41.40 input  -60.11 | X-H torsion
[ 7974 7965 7964 7962 ] final   -4.99 input  175.53 | X-H torsion
[ 8008 7997 7996 7995 ] final -171.39 input   59.86 | X-H torsion
[ 10167 10162 10161 10158 ] final -114.40 input  -65.29 | X-H torsion
[ 10718 10713 10712 10709 ] final   86.37 input   66.30 | X-H torsion
[ 10763 10752 10751 10750 ] final   77.92 input  -60.55 | X-H torsion
[ 11005 11000 10999 10996 ] final   16.58 input  -57.11 | X-H torsion

> <Gold.Protein.ActiveResidues>
 VAL166  LYS551  ARG553  GLY616  TRP617  ASP618  TYR619  PRO620  LYS621  CYS622 
 ASP623  PHE694  ASN695  SER759  ASP760  ASP761  ALA762  ILE779  LEU786  VAL792 
 PHE793  MET794  SER795  GLU796  ALA797  LYS798  CYS799  TRP800  GLU811  SER814 

> <Gold.Protein.RotatedAtoms>
  150.9672  134.9051  159.7766 H   0  0  0  0  0  0  0  0  0  0  0  0  # atno 6907 bound_to 6896
  152.5177  134.3591  159.9288 H   0  0  0  0  0  0  0  0  0  0  0  0  # atno 6908 bound_to 6896
  151.3601  133.3852  159.2723 H   0  0  0  0  0  0  0  0  0  0  0  0  # atno 6909 bound_to 6896
  146.2362  140.1954  142.8333 H   0  0  0  0  0  0  0  0  0  0  0  0  # atno 7974 bound_to 7965
  155.9310  140.1091  157.1132 H   0  0  0  0  0  0  0  0  0  0  0  0  # atno 8008 bound_to 7997
  154.4071  140.1237  156.4868 H   0  0  0  0  0  0  0  0  0  0  0  0  # atno 8009 bound_to 7997
  155.7080  140.3471  155.4964 H   0  0  0  0  0  0  0  0  0  0  0  0  # atno 8010 bound_to 7997
  140.1014  143.4610  152.1810 H   0  0  0  0  0  0  0  0  0  0  0  0  # atno 10167 bound_to 10162
  157.6928  131.0213  150.2963 H   0  0  0  0  0  0  0  0  0  0  0  0  # atno 10718 bound_to 10713
  153.0835  135.4896  154.8550 H   0  0  0  0  0  0  0  0  0  0  0  0  # atno 10763 bound_to 10752
  154.7181  135.3033  154.9094 H   0  0  0  0  0  0  0  0  0  0  0  0  # atno 10764 bound_to 10752
  153.9767  135.6795  153.4802 H   0  0  0  0  0  0  0  0  0  0  0  0  # atno 10765 bound_to 10752
  140.4456  134.1277  155.7695 H   0  0  0  0  0  0  0  0  0  0  0  0  # atno 11005 bound_to 11000
  144.9824  140.8472  143.5389 LP  0  0  0  0  0  0  0  0  0  0  0  0  # atno 17320 bound_to 7965
  145.1949  139.2282  143.5223 LP  0  0  0  0  0  0  0  0  0  0  0  0  # atno 17321 bound_to 7965
  139.5669  144.7440  151.3997 LP  0  0  0  0  0  0  0  0  0  0  0  0  # atno 17342 bound_to 10162
  140.6976  143.7711  150.7351 LP  0  0  0  0  0  0  0  0  0  0  0  0  # atno 17343 bound_to 10162
  156.3486  130.3827  149.7348 LP  0  0  0  0  0  0  0  0  0  0  0  0  # atno 17370 bound_to 10713
  156.4833  130.8051  151.3064 LP  0  0  0  0  0  0  0  0  0  0  0  0  # atno 17371 bound_to 10713
  141.1687  133.8652  157.1638 LP  0  0  0  0  0  0  0  0  0  0  0  0  # atno 17394 bound_to 11000
  140.0041  135.0016  157.0254 LP  0  0  0  0  0  0  0  0  0  0  0  0  # atno 17395 bound_to 11000

$$$$
