AV-unprocessed.smi:2335|AV-procd|sdf|9324|dock4
  -GOLD-   2272012543D 1   1.00000     0.00000
 Structure written by MMmdl.
 42 43  0  0  0  0  0  0  0  0  1 V2000
  150.4340  141.5705  156.0109 C   0  0  0  0  0  0  0  0  0  0  0  0
  148.9893  141.3714  156.4813 C   0  0  0  0  0  0  0  0  0  0  0  0
  148.2974  140.2670  155.7547 C   0  0  0  0  0  0  0  0  0  0  0  0
  147.0272  139.9227  156.0010 N   0  0  0  0  0  0  0  0  0  0  0  0
  146.5936  138.8894  155.1820 N   0  0  0  0  0  0  0  0  0  0  0  0
  147.5480  138.4946  154.3283 C   0  0  0  0  0  0  0  0  0  0  0  0
  147.3753  137.4567  153.3751 N   0  0  0  0  0  0  0  0  0  0  0  0
  146.2292  136.8987  152.9478 C   0  0  0  0  0  0  0  0  0  0  0  0
  145.0995  137.2164  153.3198 O   0  0  0  0  0  0  0  0  0  0  0  0
  146.4689  135.9315  152.0515 N   0  0  0  0  0  0  0  0  0  0  0  0
  145.4480  135.1043  151.4109 C   0  0  1  0  0  0  0  0  0  0  0  0
  146.0572  133.8947  150.7300 C   0  0  0  0  0  0  0  0  0  0  0  0
  144.8890  132.9030  150.6716 C   0  0  0  0  0  0  0  0  0  0  0  0
  144.0629  133.0609  149.3834 C   0  0  0  0  0  0  0  0  0  0  0  0
  145.3502  131.4492  150.8547 C   0  0  0  0  0  0  0  0  0  0  0  0
  144.0407  133.2507  151.7648 O   0  0  0  0  0  0  0  0  0  0  0  0
  144.4497  134.4620  152.3993 C   0  0  0  0  0  0  0  0  0  0  0  0
  145.0673  134.0577  153.7545 C   0  0  0  0  0  0  0  0  0  0  0  0
  143.1989  135.3298  152.6095 C   0  0  0  0  0  0  0  0  0  0  0  0
  149.0692  139.3604  154.4591 S   0  0  0  0  0  0  0  0  0  0  0  0
  150.9126  142.3823  156.5587 H   0  0  0  0  0  0  0  0  0  0  0  0
  150.4713  141.8169  154.9494 H   0  0  0  0  0  0  0  0  0  0  0  0
  151.0259  140.6682  156.1665 H   0  0  0  0  0  0  0  0  0  0  0  0
  148.9737  141.1503  157.5489 H   0  0  0  0  0  0  0  0  0  0  0  0
  148.4231  142.2936  156.3458 H   0  0  0  0  0  0  0  0  0  0  0  0
  148.2266  137.0919  152.9747 H   0  0  0  0  0  0  0  0  0  0  0  0
  147.4282  135.7384  151.8045 H   0  0  0  0  0  0  0  0  0  0  0  0
  144.9109  135.6812  150.6555 H   0  0  0  0  0  0  0  0  0  0  0  0
  146.4742  134.1254  149.7488 H   0  0  0  0  0  0  0  0  0  0  0  0
  146.8662  133.4908  151.3413 H   0  0  0  0  0  0  0  0  0  0  0  0
  144.6597  132.8282  148.5010 H   0  0  0  0  0  0  0  0  0  0  0  0
  143.6873  134.0783  149.2705 H   0  0  0  0  0  0  0  0  0  0  0  0
  143.2006  132.3935  149.3858 H   0  0  0  0  0  0  0  0  0  0  0  0
  146.0254  131.1459  150.0540 H   0  0  0  0  0  0  0  0  0  0  0  0
  144.5021  130.7638  150.8524 H   0  0  0  0  0  0  0  0  0  0  0  0
  145.8748  131.3164  151.8015 H   0  0  0  0  0  0  0  0  0  0  0  0
  145.3712  134.9297  154.3341 H   0  0  0  0  0  0  0  0  0  0  0  0
  145.9430  133.4218  153.6237 H   0  0  0  0  0  0  0  0  0  0  0  0
  144.3501  133.5022  154.3589 H   0  0  0  0  0  0  0  0  0  0  0  0
  143.4475  136.2696  153.1025 H   0  0  0  0  0  0  0  0  0  0  0  0
  142.4623  134.8172  153.2286 H   0  0  0  0  0  0  0  0  0  0  0  0
  142.7194  135.5688  151.6598 H   0  0  0  0  0  0  0  0  0  0  0  0
  1  2  1  0  0  0  0
  1 21  1  0  0  0  0
  1 22  1  0  0  0  0
  1 23  1  0  0  0  0
  2  3  1  0  0  0  0
  2 24  1  0  0  0  0
  2 25  1  0  0  0  0
  3 20  1  0  0  0  0
  3  4  2  0  0  0  0
  4  5  1  0  0  0  0
  5  6  2  0  0  0  0
  6  7  1  0  0  0  0
  6 20  1  0  0  0  0
  7  8  1  0  0  0  0
  7 26  1  0  0  0  0
  8  9  2  0  0  0  0
  8 10  1  0  0  0  0
 10 11  1  0  0  0  0
 10 27  1  0  0  0  0
 11 17  1  0  0  0  0
 11 12  1  0  0  0  0
 11 28  1  0  0  0  0
 12 13  1  0  0  0  0
 12 29  1  0  0  0  0
 12 30  1  0  0  0  0
 13 14  1  0  0  0  0
 13 15  1  0  0  0  0
 13 16  1  0  0  0  0
 14 31  1  0  0  0  0
 14 32  1  0  0  0  0
 14 33  1  0  0  0  0
 15 34  1  0  0  0  0
 15 35  1  0  0  0  0
 15 36  1  0  0  0  0
 16 17  1  0  0  0  0
 17 18  1  0  0  0  0
 17 19  1  0  0  0  0
 18 37  1  0  0  0  0
 18 38  1  0  0  0  0
 18 39  1  0  0  0  0
 19 40  1  0  0  0  0
 19 41  1  0  0  0  0
 19 42  1  0  0  0  0
M  END
> <s_m_source_file>
AV-unprocessed.smi

> <i_m_source_file_index>
2335

> <i_lp_mmshare_version>
43012

> <i_f3d_flags>
0

> <s_epik_input>
W0NIM11bQ0gyXWMxbm5jKHMxKVtOSF1DKD1PKVtOSF1bQ0BASF0oQyhPMikoW0NIM10pW0NIM10pW0NIMl1DMihbQ0gzXSlbQ0gzXQ==

> <s_epik_cmdline>
J2VwaWtfcHl0aG9uJywgJy1waCcsICc3LjAnLCAnLXRuJywgJzgnLCAnLW1hJywgJzIwMCcsICctbWV0YWxfYmluZGluZycsICctaW1hZScsICc8aW5maWxlLm1hZT4nLCAnLW9tYWUnLCAnPG91dGZpbGUubWFlPic=

> <r_lp_tautomer_probability>
1

> <r_epik_Ionization_Penalty>
0.000542824

> <r_epik_Ionization_Penalty_Charging>
0

> <r_epik_Ionization_Penalty_Neutral>
0.000542824

> <r_epik_State_Penalty>
-0

> <r_epik_Charging_Adjusted_Penalty>
0

> <i_epik_Tot_Q>
0

> <i_epik_Tot_abs_Q>
0

> <r_epik_Metal_State_Penalty>
0.227439

> <b_epik_Metal_Only>
0

> <s_lp_Force_Field>
OPLS_2005

> <r_lp_Energy>
12.5908

> <b_lp_Chiralities_Consistent>
1

> <s_lp_Variant>
AV-unprocessed.smi:2335-2

> <Gold.Version>
5.8.1

> <Gold.Id.Protein>
6NUR|6NUR_protein|mol2

> <Gold.PLP.Fitness>
32.5067

> <Gold.PLP.PLP>
-27.0144

> <Gold.PLP.part.hbond>
-1.7553

> <Gold.PLP.part.metal>
0.0000

> <Gold.PLP.part.buried>
-3.6157

> <Gold.PLP.part.nonpolar>
-21.8190

> <Gold.PLP.part.repulsive>
0.4656

> <Gold.PLP.ligand.clash>
0.0000

> <Gold.PLP.ligand.torsion>
0.1899

> <Gold.PLP.Chemscore.Hbond>
1.9520

> <Gold.PLP.Chemscore.CHOScore>
0.0000

> <Gold.PLP.Chemscore.Metal>
0.0000

> <Gold.Chemscore.Hbonds>
donor molecule, donor type, donor heavy atom, donor atom, acceptor molecule, acceptor atom, score
      L1  H     7    26       P1  7948  1.00
      L1  H    10    27       P1  7948  0.98

> <Gold.PLP.Chemscore.Internal.Correction>
0.0162

> <Gold.Rescore>
     Score         DG    S(hbond)    S(metal)    S(lipo)     H(rot)  DE(clash)    DE(int)     intcor
     13.05     -17.13       1.94        0.00      70.56       1.21       0.01       4.07       ----

> <Gold.Chemscore.Fitness>
13.0532

> <Gold.Chemscore.DG>
-17.1293

> <Gold.Chemscore.ZeroCoef>
-5.4800

> <Gold.Chemscore.Hbond>
1.9411

> <Gold.Chemscore.Metal>
0.0000

> <Gold.Chemscore.Lipo>
70.5612

> <Gold.Chemscore.Internal_Hbond>
0.0000

> <Gold.Chemscore.DEClash>
0.0098

> <Gold.Chemscore.DEInternal>
4.0663

> <Gold.Chemscore.Rot>
1.2068

> <Gold.Chemscore.Internal.Correction>
   9.000000E+99

> <Gold.Chemscore.Hbonds>
donor molecule, donor type, donor heavy atom, donor atom, acceptor molecule, acceptor atom, score
      L1  H     7    26       P1  7948  0.92
      L1  H    10    27       P1  7948  0.90

> <Gold.Chemscore.Hbond.Weighted>
-6.4831

> <Gold.Chemscore.Metal.Weighted>
-0.0000

> <Gold.Chemscore.Lipo.Weighted>
-8.2557

> <Gold.Chemscore.Internal_Hbond.Weighted>
0.0000

> <Gold.Chemscore.DEClash.Weighted>
0.0098

> <Gold.Chemscore.DEInternal.Weighted>
4.0663

> <Gold.Chemscore.Rot.Weighted>
3.0895

> <Gold.Chemscore.Internal.Correction.Weighted>
   9.000000E+99

> <Gold.Protein.RotatedTorsions>
[ 6907 6896 6895 6894 ] final  135.91 input  -60.11 | X-H torsion
[ 7974 7965 7964 7962 ] final  -55.33 input  175.53 | X-H torsion
[ 8008 7997 7996 7995 ] final   53.30 input   59.86 | X-H torsion
[ 10167 10162 10161 10158 ] final  154.65 input  -65.29 | X-H torsion
[ 10718 10713 10712 10709 ] final  -21.16 input   66.30 | X-H torsion
[ 10763 10752 10751 10750 ] final  -17.35 input  -60.55 | X-H torsion
[ 11005 11000 10999 10996 ] final   32.52 input  -57.11 | X-H torsion

> <Gold.Protein.ActiveResidues>
 VAL166  LYS551  ARG553  GLY616  TRP617  ASP618  TYR619  PRO620  LYS621  CYS622 
 ASP623  PHE694  ASN695  SER759  ASP760  ASP761  ALA762  ILE779  LEU786  VAL792 
 PHE793  MET794  SER795  GLU796  ALA797  LYS798  CYS799  TRP800  GLU811  SER814 

> <Gold.Protein.RotatedAtoms>
  152.2952  133.5601  159.5582 H   0  0  0  0  0  0  0  0  0  0  0  0  # atno 6907 bound_to 6896
  150.7253  134.0371  159.3762 H   0  0  0  0  0  0  0  0  0  0  0  0  # atno 6908 bound_to 6896
  151.8274  135.0633  160.0483 H   0  0  0  0  0  0  0  0  0  0  0  0  # atno 6909 bound_to 6896
  145.8754  140.8185  142.9867 H   0  0  0  0  0  0  0  0  0  0  0  0  # atno 7974 bound_to 7965
  155.4659  140.3463  155.4319 H   0  0  0  0  0  0  0  0  0  0  0  0  # atno 8008 bound_to 7997
  156.1131  140.1466  156.9340 H   0  0  0  0  0  0  0  0  0  0  0  0  # atno 8009 bound_to 7997
  154.4770  140.0882  156.7265 H   0  0  0  0  0  0  0  0  0  0  0  0  # atno 8010 bound_to 7997
  139.4823  144.5168  151.7939 H   0  0  0  0  0  0  0  0  0  0  0  0  # atno 10167 bound_to 10162
  156.5219  130.4634  149.6592 H   0  0  0  0  0  0  0  0  0  0  0  0  # atno 10718 bound_to 10713
  153.5725  135.7007  153.5498 H   0  0  0  0  0  0  0  0  0  0  0  0  # atno 10763 bound_to 10752
  153.3332  135.4041  155.1512 H   0  0  0  0  0  0  0  0  0  0  0  0  # atno 10764 bound_to 10752
  154.8631  135.3724  154.5248 H   0  0  0  0  0  0  0  0  0  0  0  0  # atno 10765 bound_to 10752
  140.2726  134.3064  155.7823 H   0  0  0  0  0  0  0  0  0  0  0  0  # atno 11005 bound_to 11000
  144.6726  140.1303  143.7444 LP  0  0  0  0  0  0  0  0  0  0  0  0  # atno 17320 bound_to 7965
  145.9087  139.2474  143.1450 LP  0  0  0  0  0  0  0  0  0  0  0  0  # atno 17321 bound_to 7965
  140.4678  144.1631  150.5914 LP  0  0  0  0  0  0  0  0  0  0  0  0  # atno 17342 bound_to 10162
  140.4416  143.2524  151.9466 LP  0  0  0  0  0  0  0  0  0  0  0  0  # atno 17343 bound_to 10162
  156.3141  130.7245  151.2143 LP  0  0  0  0  0  0  0  0  0  0  0  0  # atno 17370 bound_to 10713
  157.7435  131.0473  150.4938 LP  0  0  0  0  0  0  0  0  0  0  0  0  # atno 17371 bound_to 10713
  141.2175  133.7476  156.9358 LP  0  0  0  0  0  0  0  0  0  0  0  0  # atno 17394 bound_to 11000
  140.1358  134.9326  157.2400 LP  0  0  0  0  0  0  0  0  0  0  0  0  # atno 17395 bound_to 11000

$$$$
