AV-unprocessed.smi:2702|AV-procd|sdf|10434|dock9
  -GOLD-   2272014473D 1   1.00000     0.00000
 Structure written by MMmdl.
 47 48  0  0  0  0  0  0  0  0  1 V2000
  149.0720  140.3957  154.4136 C   0  0  0  0  0  0  0  0  0  0  0  0
  150.3025  140.8138  154.9776 O   0  0  0  0  0  0  0  0  0  0  0  0
  150.2313  140.9623  156.3858 C   0  0  0  0  0  0  0  0  0  0  0  0
  149.8345  139.6529  157.0368 C   0  0  0  0  0  0  0  0  0  0  0  0
  150.7110  138.9153  157.7576 C   0  0  0  0  0  0  0  0  0  0  0  0
  150.2987  137.6494  158.3642 C   0  0  0  0  0  0  0  0  0  0  0  0
  151.0646  136.9517  159.0299 O   0  0  0  0  0  0  0  0  0  0  0  0
  148.9977  137.2999  158.1373 N   0  0  0  0  0  0  0  0  0  0  0  0
  148.4345  136.0535  158.6877 C   0  0  0  0  0  0  0  0  0  0  0  0
  148.3565  136.0522  160.2210 C   0  0  0  0  0  0  0  0  0  0  0  0
  148.8451  136.9742  160.8752 O   0  0  0  0  0  0  0  0  0  0  0  0
  147.7429  134.9948  160.7739 N   0  0  0  0  0  0  0  0  0  0  0  0
  147.5189  134.7714  162.2038 C   0  0  2  0  0  0  0  0  0  0  0  0
  147.3231  133.2679  162.4720 C   0  0  0  0  0  0  0  0  0  0  0  0
  145.9923  132.7536  161.9038 C   0  0  0  0  0  0  0  0  0  0  0  0
  144.8114  133.5706  162.4451 C   0  0  0  0  0  0  0  0  0  0  0  0
  144.9693  135.0799  162.1661 C   0  0  1  0  0  0  0  0  0  0  0  0
  143.7504  135.8405  162.7185 C   0  0  0  0  0  0  0  0  0  0  0  0
  146.3193  135.6034  162.7319 C   0  0  2  0  0  0  0  0  0  0  0  0
  146.5300  137.1130  162.4952 C   0  0  0  0  0  0  0  0  0  0  0  0
  148.1312  138.0989  157.3651 C   0  0  0  0  0  0  0  0  0  0  0  0
  148.5204  139.2169  156.8402 N   0  0  0  0  0  0  0  0  0  0  0  0
  149.1801  140.2931  153.3338 H   0  0  0  0  0  0  0  0  0  0  0  0
  148.2829  141.1240  154.6054 H   0  0  0  0  0  0  0  0  0  0  0  0
  148.7623  139.4296  154.8146 H   0  0  0  0  0  0  0  0  0  0  0  0
  151.2001  141.2736  156.7808 H   0  0  0  0  0  0  0  0  0  0  0  0
  149.5111  141.7403  156.6458 H   0  0  0  0  0  0  0  0  0  0  0  0
  151.7259  139.2597  157.8938 H   0  0  0  0  0  0  0  0  0  0  0  0
  147.4366  135.8932  158.2745 H   0  0  0  0  0  0  0  0  0  0  0  0
  149.0102  135.1793  158.3783 H   0  0  0  0  0  0  0  0  0  0  0  0
  147.3783  134.2896  160.1500 H   0  0  0  0  0  0  0  0  0  0  0  0
  148.4080  135.0777  162.7577 H   0  0  0  0  0  0  0  0  0  0  0  0
  148.1538  132.6978  162.0543 H   0  0  0  0  0  0  0  0  0  0  0  0
  147.3441  133.0898  163.5479 H   0  0  0  0  0  0  0  0  0  0  0  0
  146.0064  132.8047  160.8145 H   0  0  0  0  0  0  0  0  0  0  0  0
  145.8633  131.7016  162.1596 H   0  0  0  0  0  0  0  0  0  0  0  0
  143.8863  133.2035  161.9991 H   0  0  0  0  0  0  0  0  0  0  0  0
  144.7206  133.4037  163.5193 H   0  0  0  0  0  0  0  0  0  0  0  0
  144.9737  135.2197  161.0841 H   0  0  0  0  0  0  0  0  0  0  0  0
  143.7214  135.8059  163.8081 H   0  0  0  0  0  0  0  0  0  0  0  0
  142.8198  135.4086  162.3489 H   0  0  0  0  0  0  0  0  0  0  0  0
  143.7543  136.8869  162.4148 H   0  0  0  0  0  0  0  0  0  0  0  0
  146.2931  135.4608  163.8135 H   0  0  0  0  0  0  0  0  0  0  0  0
  146.4344  137.3734  161.4406 H   0  0  0  0  0  0  0  0  0  0  0  0
  147.5214  137.4250  162.8250 H   0  0  0  0  0  0  0  0  0  0  0  0
  145.8094  137.7117  163.0518 H   0  0  0  0  0  0  0  0  0  0  0  0
  147.1197  137.7093  157.2394 H   0  0  0  0  0  0  0  0  0  0  0  0
  1  2  1  0  0  0  0
  1 23  1  0  0  0  0
  1 24  1  0  0  0  0
  1 25  1  0  0  0  0
  2  3  1  0  0  0  0
  3  4  1  0  0  0  0
  3 26  1  0  0  0  0
  3 27  1  0  0  0  0
  4 22  1  0  0  0  0
  4  5  2  0  0  0  0
  5  6  1  0  0  0  0
  5 28  1  0  0  0  0
  6  7  2  0  0  0  0
  6  8  1  0  0  0  0
  8  9  1  0  0  0  0
  8 21  1  0  0  0  0
  9 10  1  0  0  0  0
  9 29  1  0  0  0  0
  9 30  1  0  0  0  0
 10 11  2  0  0  0  0
 10 12  1  0  0  0  0
 12 13  1  0  0  0  0
 12 31  1  0  0  0  0
 13 19  1  0  0  0  0
 13 14  1  0  0  0  0
 13 32  1  0  0  0  0
 14 15  1  0  0  0  0
 14 33  1  0  0  0  0
 14 34  1  0  0  0  0
 15 16  1  0  0  0  0
 15 35  1  0  0  0  0
 15 36  1  0  0  0  0
 16 17  1  0  0  0  0
 16 37  1  0  0  0  0
 16 38  1  0  0  0  0
 17 18  1  0  0  0  0
 17 19  1  0  0  0  0
 17 39  1  0  0  0  0
 18 40  1  0  0  0  0
 18 41  1  0  0  0  0
 18 42  1  0  0  0  0
 19 20  1  0  0  0  0
 19 43  1  0  0  0  0
 20 44  1  0  0  0  0
 20 45  1  0  0  0  0
 20 46  1  0  0  0  0
 21 22  2  0  0  0  0
 21 47  1  0  0  0  0
M  END
> <s_m_source_file>
AV-unprocessed.smi

> <i_m_source_file_index>
2702

> <i_lp_mmshare_version>
43012

> <i_f3d_flags>
0

> <s_epik_input>
W0NIM11PW0NIMl1jMVtjSF1jKD1PKW4oW2NIXW4xKVtDSDJdQyg9TylbTkhdW0NAQEhdMltDSDJdW0NIMl1bQ0gyXVtDQEBIXShbQ0gzXSlbQ0BIXTJbQ0gzXQ==

> <s_epik_cmdline>
J2VwaWtfcHl0aG9uJywgJy1waCcsICc3LjAnLCAnLXRuJywgJzgnLCAnLW1hJywgJzIwMCcsICctbWV0YWxfYmluZGluZycsICctaW1hZScsICc8aW5maWxlLm1hZT4nLCAnLW9tYWUnLCAnPG91dGZpbGUubWFlPic=

> <r_lp_tautomer_probability>
1

> <r_epik_Ionization_Penalty>
1.22164e-06

> <r_epik_Ionization_Penalty_Charging>
3.17988e-07

> <r_epik_Ionization_Penalty_Neutral>
9.03656e-07

> <r_epik_State_Penalty>
-0

> <r_epik_Charging_Adjusted_Penalty>
3.17988e-07

> <i_epik_Tot_Q>
0

> <i_epik_Tot_abs_Q>
0

> <r_epik_Metal_State_Penalty>
-0

> <b_epik_Metal_Only>
0

> <s_lp_Force_Field>
OPLS_2005

> <r_lp_Energy>
16.9419

> <b_lp_Chiralities_Consistent>
1

> <s_lp_Variant>
AV-unprocessed.smi:2702-5

> <Gold.Version>
5.8.1

> <Gold.Id.Protein>
6NUR|6NUR_protein|mol2

> <Gold.PLP.Fitness>
44.6043

> <Gold.PLP.PLP>
-37.2525

> <Gold.PLP.part.hbond>
-3.0466

> <Gold.PLP.part.metal>
0.0000

> <Gold.PLP.part.buried>
-5.8676

> <Gold.PLP.part.nonpolar>
-28.9513

> <Gold.PLP.part.repulsive>
0.1618

> <Gold.PLP.ligand.clash>
0.0000

> <Gold.PLP.ligand.torsion>
0.4632

> <Gold.PLP.Chemscore.Hbond>
2.7440

> <Gold.PLP.Chemscore.CHOScore>
0.0000

> <Gold.PLP.Chemscore.Metal>
0.0000

> <Gold.Chemscore.Hbonds>
donor molecule, donor type, donor heavy atom, donor atom, acceptor molecule, acceptor atom, score
      P1  H  6896  6909       L1     7  0.98
      P1  H  6931  6943       L1    11  0.91
      P1  H  7989  7998       L1     2  0.82

> <Gold.PLP.Chemscore.Internal.Correction>
0.0462

> <Gold.Rescore>
     Score         DG    S(hbond)    S(metal)    S(lipo)     H(rot)  DE(clash)    DE(int)     intcor
     15.04     -19.04       2.52        0.00      86.05       1.93       0.63       3.37       ----

> <Gold.Chemscore.Fitness>
15.0418

> <Gold.Chemscore.DG>
-19.0415

> <Gold.Chemscore.ZeroCoef>
-5.4800

> <Gold.Chemscore.Hbond>
2.5242

> <Gold.Chemscore.Metal>
0.0000

> <Gold.Chemscore.Lipo>
86.0462

> <Gold.Chemscore.Internal_Hbond>
0.0000

> <Gold.Chemscore.DEClash>
0.6255

> <Gold.Chemscore.DEInternal>
3.3742

> <Gold.Chemscore.Rot>
1.9284

> <Gold.Chemscore.Internal.Correction>
   9.000000E+99

> <Gold.Chemscore.Hbonds>
donor molecule, donor type, donor heavy atom, donor atom, acceptor molecule, acceptor atom, score
      P1  H  6896  6909       L1     7  0.90
      P1  H  6931  6943       L1    11  0.89
      P1  H  7989  7998       L1     2  0.48

> <Gold.Chemscore.Hbond.Weighted>
-8.4308

> <Gold.Chemscore.Metal.Weighted>
-0.0000

> <Gold.Chemscore.Lipo.Weighted>
-10.0674

> <Gold.Chemscore.Internal_Hbond.Weighted>
0.0000

> <Gold.Chemscore.DEClash.Weighted>
0.6255

> <Gold.Chemscore.DEInternal.Weighted>
3.3742

> <Gold.Chemscore.Rot.Weighted>
4.9368

> <Gold.Chemscore.Internal.Correction.Weighted>
   9.000000E+99

> <Gold.Protein.RotatedTorsions>
[ 6907 6896 6895 6894 ] final   91.91 input  -60.11 | X-H torsion
[ 7974 7965 7964 7962 ] final  177.30 input  175.53 | X-H torsion
[ 8008 7997 7996 7995 ] final  155.56 input   59.86 | X-H torsion
[ 10167 10162 10161 10158 ] final   11.45 input  -65.29 | X-H torsion
[ 10718 10713 10712 10709 ] final   14.10 input   66.30 | X-H torsion
[ 10763 10752 10751 10750 ] final  -67.92 input  -60.55 | X-H torsion
[ 11005 11000 10999 10996 ] final  -57.02 input  -57.11 | X-H torsion

> <Gold.Protein.ActiveResidues>
 VAL166  LYS551  ARG553  GLY616  TRP617  ASP618  TYR619  PRO620  LYS621  CYS622 
 ASP623  PHE694  ASN695  SER759  ASP760  ASP761  ALA762  ILE779  LEU786  VAL792 
 PHE793  MET794  SER795  GLU796  ALA797  LYS798  CYS799  TRP800  GLU811  SER814 

> <Gold.Protein.RotatedAtoms>
  152.5451  134.1584  159.8547 H   0  0  0  0  0  0  0  0  0  0  0  0  # atno 6907 bound_to 6896
  151.1604  133.4841  159.2602 H   0  0  0  0  0  0  0  0  0  0  0  0  # atno 6908 bound_to 6896
  151.1379  135.0175  159.8667 H   0  0  0  0  0  0  0  0  0  0  0  0  # atno 6909 bound_to 6896
  144.7171  140.0227  143.6440 H   0  0  0  0  0  0  0  0  0  0  0  0  # atno 7974 bound_to 7965
  156.2472  140.1936  156.6819 H   0  0  0  0  0  0  0  0  0  0  0  0  # atno 8008 bound_to 7997
  154.6315  140.0595  156.9764 H   0  0  0  0  0  0  0  0  0  0  0  0  # atno 8009 bound_to 7997
  155.1703  140.3267  155.4396 H   0  0  0  0  0  0  0  0  0  0  0  0  # atno 8010 bound_to 7997
  140.6131  143.8366  150.7087 H   0  0  0  0  0  0  0  0  0  0  0  0  # atno 10167 bound_to 10162
  157.0342  130.6205  149.5740 H   0  0  0  0  0  0  0  0  0  0  0  0  # atno 10718 bound_to 10713
  154.3816  135.6073  153.5794 H   0  0  0  0  0  0  0  0  0  0  0  0  # atno 10763 bound_to 10752
  152.9788  135.5862  154.4404 H   0  0  0  0  0  0  0  0  0  0  0  0  # atno 10764 bound_to 10752
  154.4174  135.2845  155.1975 H   0  0  0  0  0  0  0  0  0  0  0  0  # atno 10765 bound_to 10752
  141.1146  133.6610  156.4707 H   0  0  0  0  0  0  0  0  0  0  0  0  # atno 11005 bound_to 11000
  146.0167  139.3216  143.0837 LP  0  0  0  0  0  0  0  0  0  0  0  0  # atno 17320 bound_to 7965
  145.8617  140.9471  143.0697 LP  0  0  0  0  0  0  0  0  0  0  0  0  # atno 17321 bound_to 7965
  140.1939  143.4014  152.1842 LP  0  0  0  0  0  0  0  0  0  0  0  0  # atno 17342 bound_to 10162
  139.5377  144.7225  151.4839 LP  0  0  0  0  0  0  0  0  0  0  0  0  # atno 17343 bound_to 10162
  156.0059  130.5146  150.7828 LP  0  0  0  0  0  0  0  0  0  0  0  0  # atno 17370 bound_to 10713
  157.5154  131.0928  151.0146 LP  0  0  0  0  0  0  0  0  0  0  0  0  # atno 17371 bound_to 10713
  140.4681  134.6779  157.5116 LP  0  0  0  0  0  0  0  0  0  0  0  0  # atno 17394 bound_to 11000
  140.0060  134.6763  155.9454 LP  0  0  0  0  0  0  0  0  0  0  0  0  # atno 17395 bound_to 11000

$$$$
