AV-unprocessed.smi:1688|AV-procd|sdf|6771|dock4
  -GOLD-   22720 7533D 1   1.00000     0.00000
 Structure written by MMmdl.
 36 38  0  0  0  0  0  0  0  0  2 V2000
  151.9246  140.1435  155.0007 O   0  0  0  0  0  0  0  0  0  0  0  0
  151.4526  139.4256  156.1263 C   0  0  0  0  0  0  0  0  0  0  0  0
  151.9713  140.1444  157.3994 C   0  0  0  0  0  0  0  0  0  0  0  0
  151.4996  141.5306  157.5578 N   0  0  0  0  0  0  0  0  0  0  0  0
  150.7221  142.2826  156.7312 C   0  0  0  0  0  0  0  0  0  0  0  0
  150.5626  143.5038  157.3113 N   0  3  0  0  0  0  0  0  0  0  0  0
  151.2552  143.5381  158.5228 C   0  0  0  0  0  0  0  0  0  0  0  0
  151.3909  144.5537  159.4644 C   0  0  0  0  0  0  0  0  0  0  0  0
  152.1749  144.2634  160.5999 C   0  0  0  0  0  0  0  0  0  0  0  0
  152.7912  143.0060  160.7644 C   0  0  0  0  0  0  0  0  0  0  0  0
  152.6487  141.9845  159.8023 C   0  0  0  0  0  0  0  0  0  0  0  0
  151.8663  142.2763  158.6851 C   0  0  0  0  0  0  0  0  0  0  0  0
  149.9060  139.4552  156.1019 C   0  0  0  0  0  0  0  0  0  0  0  0
  149.3037  138.6751  154.9198 C   0  0  0  0  0  0  0  0  0  0  0  0
  149.8173  137.2294  154.8877 C   0  0  0  0  0  0  0  0  0  0  0  0
  151.3508  137.1951  154.8389 C   0  0  0  0  0  0  0  0  0  0  0  0
  151.9708  137.9691  156.0167 C   0  0  0  0  0  0  0  0  0  0  0  0
  152.8019  140.4432  155.1828 H   0  0  0  0  0  0  0  0  0  0  0  0
  151.7224  139.5824  158.3005 H   0  0  0  0  0  0  0  0  0  0  0  0
  153.0609  140.1911  157.3715 H   0  0  0  0  0  0  0  0  0  0  0  0
  150.3021  141.9649  155.7878 H   0  0  0  0  0  0  0  0  0  0  0  0
  150.9220  145.5188  159.3393 H   0  0  0  0  0  0  0  0  0  0  0  0
  152.3070  145.0204  161.3595 H   0  0  0  0  0  0  0  0  0  0  0  0
  153.3845  142.8199  161.6480 H   0  0  0  0  0  0  0  0  0  0  0  0
  153.1237  141.0250  159.9409 H   0  0  0  0  0  0  0  0  0  0  0  0
  149.5255  139.0230  157.0285 H   0  0  0  0  0  0  0  0  0  0  0  0
  149.5475  140.4852  156.0821 H   0  0  0  0  0  0  0  0  0  0  0  0
  148.2156  138.6789  154.9908 H   0  0  0  0  0  0  0  0  0  0  0  0
  149.5508  139.1732  153.9815 H   0  0  0  0  0  0  0  0  0  0  0  0
  149.4653  136.6942  155.7705 H   0  0  0  0  0  0  0  0  0  0  0  0
  149.4055  136.7074  154.0236 H   0  0  0  0  0  0  0  0  0  0  0  0
  151.6979  136.1617  154.8530 H   0  0  0  0  0  0  0  0  0  0  0  0
  151.6955  137.6203  153.8955 H   0  0  0  0  0  0  0  0  0  0  0  0
  153.0564  137.9526  155.9162 H   0  0  0  0  0  0  0  0  0  0  0  0
  151.7427  137.4384  156.9419 H   0  0  0  0  0  0  0  0  0  0  0  0
  150.0215  144.2575  156.9070 H   0  0  0  0  0  0  0  0  0  0  0  0
  1  2  1  0  0  0  0
  1 18  1  0  0  0  0
  2 17  1  0  0  0  0
  2  3  1  0  0  0  0
  2 13  1  0  0  0  0
  3  4  1  0  0  0  0
  3 19  1  0  0  0  0
  3 20  1  0  0  0  0
  4 12  1  0  0  0  0
  4  5  1  0  0  0  0
  5  6  2  0  0  0  0
  5 21  1  0  0  0  0
  6  7  1  0  0  0  0
  6 36  1  0  0  0  0
  7 12  2  0  0  0  0
  7  8  1  0  0  0  0
  8  9  2  0  0  0  0
  8 22  1  0  0  0  0
  9 10  1  0  0  0  0
  9 23  1  0  0  0  0
 10 11  2  0  0  0  0
 10 24  1  0  0  0  0
 11 12  1  0  0  0  0
 11 25  1  0  0  0  0
 13 14  1  0  0  0  0
 13 26  1  0  0  0  0
 13 27  1  0  0  0  0
 14 15  1  0  0  0  0
 14 28  1  0  0  0  0
 14 29  1  0  0  0  0
 15 16  1  0  0  0  0
 15 30  1  0  0  0  0
 15 31  1  0  0  0  0
 16 17  1  0  0  0  0
 16 32  1  0  0  0  0
 16 33  1  0  0  0  0
 17 34  1  0  0  0  0
 17 35  1  0  0  0  0
M  CHG  1   6   1
M  END
> <s_m_source_file>
AV-unprocessed.smi

> <i_m_source_file_index>
1688

> <i_lp_mmshare_version>
43012

> <i_f3d_flags>
0

> <s_epik_input>
W0NIMl0xW0NIMl1bQ0gyXVtDSDJdW0NIMl1DMShbT0hdKVtDSDJdbihbY0hdbjIpYyhjMjMpW2NIXVtjSF1bY0hdW2NIXTM=

> <s_epik_cmdline>
J2VwaWtfcHl0aG9uJywgJy1waCcsICc3LjAnLCAnLXRuJywgJzgnLCAnLW1hJywgJzIwMCcsICctbWV0YWxfYmluZGluZycsICctaW1hZScsICc8aW5maWxlLm1hZT4nLCAnLW9tYWUnLCAnPG91dGZpbGUubWFlPic=

> <r_epik_Ionization_Penalty>
1.01013

> <r_epik_Ionization_Penalty_Charging>
1.01013

> <r_epik_Ionization_Penalty_Neutral>
4.42495e-08

> <r_epik_State_Penalty>
1.05948

> <r_epik_Charging_Adjusted_Penalty>
2.06961

> <i_epik_Tot_Q>
1

> <i_epik_Tot_abs_Q>
1

> <r_epik_Metal_State_Penalty>
5.0439

> <b_epik_Metal_Only>
0

> <s_lp_Force_Field>
OPLS_2005

> <r_lp_Energy>
19.8259

> <b_lp_Chiralities_Consistent>
1

> <s_lp_Variant>
AV-unprocessed.smi:1688-2

> <Gold.Version>
5.8.1

> <Gold.Id.Protein>
6NUR|6NUR_protein|mol2

> <Gold.PLP.Fitness>
43.7292

> <Gold.PLP.PLP>
-35.4411

> <Gold.PLP.part.hbond>
-2.0000

> <Gold.PLP.part.metal>
0.0000

> <Gold.PLP.part.buried>
-4.5701

> <Gold.PLP.part.nonpolar>
-30.2588

> <Gold.PLP.part.repulsive>
0.0000

> <Gold.PLP.ligand.clash>
0.0000

> <Gold.PLP.ligand.torsion>
0.0099

> <Gold.PLP.Chemscore.Hbond>
2.7680

> <Gold.PLP.Chemscore.CHOScore>
0.0000

> <Gold.PLP.Chemscore.Metal>
0.0000

> <Gold.Chemscore.Hbonds>
donor molecule, donor type, donor heavy atom, donor atom, acceptor molecule, acceptor atom, score
      L1  H     6    36       P1  8028  1.92
      P1  H  7989  7998       L1     1  0.83

> <Gold.PLP.Chemscore.Internal.Correction>
0.0039

> <Gold.Rescore>
     Score         DG    S(hbond)    S(metal)    S(lipo)     H(rot)  DE(clash)    DE(int)     intcor
     16.35     -18.65       1.45        0.00     107.28       1.65       0.32       1.98       ----

> <Gold.Chemscore.Fitness>
16.3509

> <Gold.Chemscore.DG>
-18.6467

> <Gold.Chemscore.ZeroCoef>
-5.4800

> <Gold.Chemscore.Hbond>
1.4524

> <Gold.Chemscore.Metal>
0.0000

> <Gold.Chemscore.Lipo>
107.2839

> <Gold.Chemscore.Internal_Hbond>
0.0000

> <Gold.Chemscore.DEClash>
0.3194

> <Gold.Chemscore.DEInternal>
1.9764

> <Gold.Chemscore.Rot>
1.6548

> <Gold.Chemscore.Internal.Correction>
   9.000000E+99

> <Gold.Chemscore.Hbonds>
donor molecule, donor type, donor heavy atom, donor atom, acceptor molecule, acceptor atom, score
      L1  H     6    36       P1  8028  0.81
      P1  H  7989  7998       L1     1  0.21

> <Gold.Chemscore.Hbond.Weighted>
-4.8509

> <Gold.Chemscore.Metal.Weighted>
-0.0000

> <Gold.Chemscore.Lipo.Weighted>
-12.5522

> <Gold.Chemscore.Internal_Hbond.Weighted>
0.0000

> <Gold.Chemscore.DEClash.Weighted>
0.3194

> <Gold.Chemscore.DEInternal.Weighted>
1.9764

> <Gold.Chemscore.Rot.Weighted>
4.2364

> <Gold.Chemscore.Internal.Correction.Weighted>
   9.000000E+99

> <Gold.Protein.RotatedTorsions>
[ 6907 6896 6895 6894 ] final -154.93 input  -60.11 | X-H torsion
[ 7974 7965 7964 7962 ] final  -18.46 input  175.53 | X-H torsion
[ 8008 7997 7996 7995 ] final  143.21 input   59.86 | X-H torsion
[ 10167 10162 10161 10158 ] final  -26.18 input  -65.29 | X-H torsion
[ 10718 10713 10712 10709 ] final  -31.49 input   66.30 | X-H torsion
[ 10763 10752 10751 10750 ] final -115.00 input  -60.55 | X-H torsion
[ 11005 11000 10999 10996 ] final  123.67 input  -57.11 | X-H torsion

> <Gold.Protein.ActiveResidues>
 VAL166  LYS551  ARG553  GLY616  TRP617  ASP618  TYR619  PRO620  LYS621  CYS622 
 ASP623  PHE694  ASN695  SER759  ASP760  ASP761  ALA762  ILE779  LEU786  VAL792 
 PHE793  MET794  SER795  GLU796  ALA797  LYS798  CYS799  TRP800  GLU811  SER814 

> <Gold.Protein.RotatedAtoms>
  151.2649  133.4283  159.2617 H   0  0  0  0  0  0  0  0  0  0  0  0  # atno 6907 bound_to 6896
  151.0497  134.9664  159.8215 H   0  0  0  0  0  0  0  0  0  0  0  0  # atno 6908 bound_to 6896
  152.5380  134.2604  159.8986 H   0  0  0  0  0  0  0  0  0  0  0  0  # atno 6909 bound_to 6896
  146.1891  140.3924  142.8465 H   0  0  0  0  0  0  0  0  0  0  0  0  # atno 7974 bound_to 7965
  156.2935  140.2268  156.4853 H   0  0  0  0  0  0  0  0  0  0  0  0  # atno 8008 bound_to 7997
  154.7817  140.0460  157.1154 H   0  0  0  0  0  0  0  0  0  0  0  0  # atno 8009 bound_to 7997
  154.9750  140.3071  155.4974 H   0  0  0  0  0  0  0  0  0  0  0  0  # atno 8010 bound_to 7997
  140.7284  143.4201  151.0965 H   0  0  0  0  0  0  0  0  0  0  0  0  # atno 10167 bound_to 10162
  156.3866  130.4365  149.7427 H   0  0  0  0  0  0  0  0  0  0  0  0  # atno 10718 bound_to 10713
  154.8463  135.4397  154.1594 H   0  0  0  0  0  0  0  0  0  0  0  0  # atno 10763 bound_to 10752
  153.2734  135.6947  153.7463 H   0  0  0  0  0  0  0  0  0  0  0  0  # atno 10764 bound_to 10752
  153.6695  135.3421  155.3124 H   0  0  0  0  0  0  0  0  0  0  0  0  # atno 10765 bound_to 10752
  139.9323  134.9641  156.8294 H   0  0  0  0  0  0  0  0  0  0  0  0  # atno 11005 bound_to 11000
  144.8452  140.6918  143.6203 LP  0  0  0  0  0  0  0  0  0  0  0  0  # atno 17320 bound_to 7965
  145.3848  139.1629  143.4261 LP  0  0  0  0  0  0  0  0  0  0  0  0  # atno 17321 bound_to 7965
  139.7845  143.8307  152.3143 LP  0  0  0  0  0  0  0  0  0  0  0  0  # atno 17342 bound_to 10162
  139.8269  144.7271  150.9500 LP  0  0  0  0  0  0  0  0  0  0  0  0  # atno 17343 bound_to 10162
  156.4497  130.7901  151.2922 LP  0  0  0  0  0  0  0  0  0  0  0  0  # atno 17370 bound_to 10713
  157.7496  131.0099  150.3286 LP  0  0  0  0  0  0  0  0  0  0  0  0  # atno 17371 bound_to 10713
  140.6168  134.0031  155.7601 LP  0  0  0  0  0  0  0  0  0  0  0  0  # atno 17394 bound_to 11000
  141.0919  133.9904  157.3224 LP  0  0  0  0  0  0  0  0  0  0  0  0  # atno 17395 bound_to 11000

$$$$
