AV-unprocessed.smi:3110|AV-procd|sdf|11828|dock1
  -GOLD-   2272017203D 1   1.00000     0.00000
 Structure written by MMmdl.
 34 35  0  0  0  0  0  0  0  0  2 V2000
  152.5704  140.2355  157.2687 O   0  0  0  0  0  0  0  0  0  0  0  0
  151.5681  140.7971  157.7119 C   0  0  0  0  0  0  0  0  0  0  0  0
  151.5758  141.4090  159.1172 C   0  0  0  0  0  0  0  0  0  0  0  0
  152.4489  142.6762  159.2333 C   0  0  2  0  0  0  0  0  0  0  0  0
  152.3632  143.3039  160.6006 C   0  0  0  0  0  0  0  0  0  0  0  0
  152.0880  144.6056  160.5542 C   0  0  0  0  0  0  0  0  0  0  0  0
  151.9331  145.1104  159.1466 C   0  0  0  0  0  0  0  0  0  0  0  0
  152.0356  143.8332  158.2840 C   0  0  0  0  0  0  0  0  0  0  0  0
  150.4237  140.9083  157.0200 N   0  0  0  0  0  0  0  0  0  0  0  0
  150.2145  140.4054  155.6678 C   0  0  0  0  0  0  0  0  0  0  0  0
  149.5059  141.4426  154.7806 C   0  0  0  0  0  0  0  0  0  0  0  0
  148.0536  141.2625  154.7929 N   0  0  0  0  0  0  0  0  0  0  0  0
  147.2041  141.4161  155.8581 C   0  0  0  0  0  0  0  0  0  0  0  0
  145.9424  141.1474  155.3925 C   0  0  0  0  0  0  0  0  0  0  0  0
  146.0758  140.8419  154.0643 N   0  3  0  0  0  0  0  0  0  0  0  0
  147.3608  140.9130  153.7016 C   0  0  0  0  0  0  0  0  0  0  0  0
  150.5532  141.6399  159.4201 H   0  0  0  0  0  0  0  0  0  0  0  0
  151.9383  140.6487  159.8099 H   0  0  0  0  0  0  0  0  0  0  0  0
  153.4972  142.4213  159.0697 H   0  0  0  0  0  0  0  0  0  0  0  0
  152.5288  142.7368  161.5051 H   0  0  0  0  0  0  0  0  0  0  0  0
  151.9959  145.2544  161.4129 H   0  0  0  0  0  0  0  0  0  0  0  0
  150.9736  145.6121  159.0182 H   0  0  0  0  0  0  0  0  0  0  0  0
  152.7312  145.8174  158.9181 H   0  0  0  0  0  0  0  0  0  0  0  0
  152.7509  143.9553  157.4699 H   0  0  0  0  0  0  0  0  0  0  0  0
  151.0655  143.6311  157.8278 H   0  0  0  0  0  0  0  0  0  0  0  0
  149.6479  141.3841  157.4581 H   0  0  0  0  0  0  0  0  0  0  0  0
  151.1878  140.1560  155.2438 H   0  0  0  0  0  0  0  0  0  0  0  0
  149.6443  139.4754  155.7031 H   0  0  0  0  0  0  0  0  0  0  0  0
  149.7212  142.4594  155.1128 H   0  0  0  0  0  0  0  0  0  0  0  0
  149.8462  141.3637  153.7472 H   0  0  0  0  0  0  0  0  0  0  0  0
  147.5505  141.6975  156.8420 H   0  0  0  0  0  0  0  0  0  0  0  0
  144.9851  141.1504  155.8934 H   0  0  0  0  0  0  0  0  0  0  0  0
  147.7600  140.7261  152.7202 H   0  0  0  0  0  0  0  0  0  0  0  0
  145.3140  140.5969  153.4442 H   0  0  0  0  0  0  0  0  0  0  0  0
  1  2  2  0  0  0  0
  2  3  1  0  0  0  0
  2  9  1  0  0  0  0
  3  4  1  0  0  0  0
  3 17  1  0  0  0  0
  3 18  1  0  0  0  0
  4  8  1  0  0  0  0
  4  5  1  0  0  0  0
  4 19  1  0  0  0  0
  5  6  2  0  0  0  0
  5 20  1  0  0  0  0
  6  7  1  0  0  0  0
  6 21  1  0  0  0  0
  7  8  1  0  0  0  0
  7 22  1  0  0  0  0
  7 23  1  0  0  0  0
  8 24  1  0  0  0  0
  8 25  1  0  0  0  0
  9 10  1  0  0  0  0
  9 26  1  0  0  0  0
 10 11  1  0  0  0  0
 10 27  1  0  0  0  0
 10 28  1  0  0  0  0
 11 12  1  0  0  0  0
 11 29  1  0  0  0  0
 11 30  1  0  0  0  0
 12 16  1  0  0  0  0
 12 13  1  0  0  0  0
 13 14  2  0  0  0  0
 13 31  1  0  0  0  0
 14 15  1  0  0  0  0
 14 32  1  0  0  0  0
 15 16  2  0  0  0  0
 15 34  1  0  0  0  0
 16 33  1  0  0  0  0
M  CHG  1  15   1
M  END
> <s_m_source_file>
AV-unprocessed.smi

> <i_m_source_file_index>
3110

> <i_lp_mmshare_version>
43012

> <i_f3d_flags>
0

> <s_epik_input>
W0NIMl0xW0NIMl1bQ0hdPVtDSF1bQ0BIXTFbQ0gyXUMoPU8pW05IXVtDSDJdW0NIMl1uMltjSF1bY0hdbltjSF0y

> <s_epik_cmdline>
J2VwaWtfcHl0aG9uJywgJy1waCcsICc3LjAnLCAnLXRuJywgJzgnLCAnLW1hJywgJzIwMCcsICctbWV0YWxfYmluZGluZycsICctaW1hZScsICc8aW5maWxlLm1hZT4nLCAnLW9tYWUnLCAnPG91dGZpbGUubWFlPic=

> <r_lp_tautomer_probability>
1

> <r_epik_Ionization_Penalty>
0.271094

> <r_epik_Ionization_Penalty_Charging>
0

> <r_epik_Ionization_Penalty_Neutral>
0.271094

> <r_epik_State_Penalty>
0.263241

> <r_epik_Charging_Adjusted_Penalty>
0.263241

> <i_epik_Tot_Q>
1

> <i_epik_Tot_abs_Q>
1

> <r_epik_Metal_State_Penalty>
0.547832

> <b_epik_Metal_Only>
0

> <s_lp_Force_Field>
OPLS_2005

> <r_lp_Energy>
18.4695

> <b_lp_Chiralities_Consistent>
1

> <s_lp_Variant>
AV-unprocessed.smi:3110-1

> <Gold.Version>
5.8.1

> <Gold.Id.Protein>
6NUR|6NUR_protein|mol2

> <Gold.PLP.Fitness>
49.8111

> <Gold.PLP.PLP>
-38.6402

> <Gold.PLP.part.hbond>
-2.0000

> <Gold.PLP.part.metal>
0.0000

> <Gold.PLP.part.buried>
-2.8129

> <Gold.PLP.part.nonpolar>
-32.8340

> <Gold.PLP.part.repulsive>
0.0401

> <Gold.PLP.ligand.clash>
0.0000

> <Gold.PLP.ligand.torsion>
0.4352

> <Gold.PLP.Chemscore.Hbond>
3.0000

> <Gold.PLP.Chemscore.CHOScore>
1.0000

> <Gold.PLP.Chemscore.Metal>
0.0000

> <Gold.Chemscore.Hbonds>
donor molecule, donor type, donor heavy atom, donor atom, acceptor molecule, acceptor atom, score
      L1  H    15    34       P1 10175  2.00
      P1  H  7997  8008       L1     1  0.99
      L1  C    16    33       P1  7957  1.00

> <Gold.PLP.Chemscore.Internal.Correction>
0.0414

> <Gold.Rescore>
     Score         DG    S(hbond)    S(metal)    S(lipo)     H(rot)  DE(clash)    DE(int)     intcor
     16.72     -17.28       1.93        0.00      91.54       2.10       0.10       0.45       ----

> <Gold.Chemscore.Fitness>
16.7207

> <Gold.Chemscore.DG>
-17.2787

> <Gold.Chemscore.ZeroCoef>
-5.4800

> <Gold.Chemscore.Hbond>
1.9327

> <Gold.Chemscore.Metal>
0.0000

> <Gold.Chemscore.Lipo>
91.5389

> <Gold.Chemscore.Internal_Hbond>
0.0000

> <Gold.Chemscore.DEClash>
0.1036

> <Gold.Chemscore.DEInternal>
0.4544

> <Gold.Chemscore.Rot>
2.0963

> <Gold.Chemscore.Internal.Correction>
   9.000000E+99

> <Gold.Chemscore.Hbonds>
donor molecule, donor type, donor heavy atom, donor atom, acceptor molecule, acceptor atom, score
      L1  H    15    34       P1 10175  0.96
      P1  H  7997  8008       L1     1  0.93

> <Gold.Chemscore.Hbond.Weighted>
-6.4551

> <Gold.Chemscore.Metal.Weighted>
-0.0000

> <Gold.Chemscore.Lipo.Weighted>
-10.7101

> <Gold.Chemscore.Internal_Hbond.Weighted>
0.0000

> <Gold.Chemscore.DEClash.Weighted>
0.1036

> <Gold.Chemscore.DEInternal.Weighted>
0.4544

> <Gold.Chemscore.Rot.Weighted>
5.3665

> <Gold.Chemscore.Internal.Correction.Weighted>
   9.000000E+99

> <Gold.Protein.RotatedTorsions>
[ 6907 6896 6895 6894 ] final   51.59 input  -60.11 | X-H torsion
[ 7974 7965 7964 7962 ] final -145.45 input  175.53 | X-H torsion
[ 8008 7997 7996 7995 ] final  -54.37 input   59.86 | X-H torsion
[ 10167 10162 10161 10158 ] final   13.83 input  -65.29 | X-H torsion
[ 10718 10713 10712 10709 ] final  144.59 input   66.30 | X-H torsion
[ 10763 10752 10751 10750 ] final  -93.76 input  -60.55 | X-H torsion
[ 11005 11000 10999 10996 ] final  135.48 input  -57.11 | X-H torsion

> <Gold.Protein.ActiveResidues>
 VAL166  LYS551  ARG553  GLY616  TRP617  ASP618  TYR619  PRO620  LYS621  CYS622 
 ASP623  PHE694  ASN695  SER759  ASP760  ASP761  ALA762  ILE779  LEU786  VAL792 
 PHE793  MET794  SER795  GLU796  ALA797  LYS798  CYS799  TRP800  GLU811  SER814 

> <Gold.Protein.RotatedAtoms>
  152.3143  134.7459  160.0328 H   0  0  0  0  0  0  0  0  0  0  0  0  # atno 6907 bound_to 6896
  151.7930  133.3356  159.3512 H   0  0  0  0  0  0  0  0  0  0  0  0  # atno 6908 bound_to 6896
  150.7336  134.5756  159.5957 H   0  0  0  0  0  0  0  0  0  0  0  0  # atno 6909 bound_to 6896
  144.8227  140.5582  143.5568 H   0  0  0  0  0  0  0  0  0  0  0  0  # atno 7974 bound_to 7965
  154.4161  140.1178  156.5305 H   0  0  0  0  0  0  0  0  0  0  0  0  # atno 8008 bound_to 7997
  155.6611  140.3496  155.4763 H   0  0  0  0  0  0  0  0  0  0  0  0  # atno 8009 bound_to 7997
  155.9713  140.1142  157.0800 H   0  0  0  0  0  0  0  0  0  0  0  0  # atno 8010 bound_to 7997
  140.5976  143.8669  150.6934 H   0  0  0  0  0  0  0  0  0  0  0  0  # atno 10167 bound_to 10162
  157.3554  131.0957  151.0963 H   0  0  0  0  0  0  0  0  0  0  0  0  # atno 10718 bound_to 10713
  154.6990  135.5182  153.8500 H   0  0  0  0  0  0  0  0  0  0  0  0  # atno 10763 bound_to 10752
  153.0689  135.6594  154.0300 H   0  0  0  0  0  0  0  0  0  0  0  0  # atno 10764 bound_to 10752
  154.0162  135.2997  155.3366 H   0  0  0  0  0  0  0  0  0  0  0  0  # atno 10765 bound_to 10752
  139.9982  134.9489  157.0013 H   0  0  0  0  0  0  0  0  0  0  0  0  # atno 11005 bound_to 11000
  145.5069  139.1481  143.3626 LP  0  0  0  0  0  0  0  0  0  0  0  0  # atno 17320 bound_to 7965
  146.2532  140.5210  142.8884 LP  0  0  0  0  0  0  0  0  0  0  0  0  # atno 17321 bound_to 7965
  140.2207  143.3811  152.1645 LP  0  0  0  0  0  0  0  0  0  0  0  0  # atno 17342 bound_to 10162
  139.5269  144.7113  151.5197 LP  0  0  0  0  0  0  0  0  0  0  0  0  # atno 17343 bound_to 10162
  157.2123  130.6443  149.5779 LP  0  0  0  0  0  0  0  0  0  0  0  0  # atno 17370 bound_to 10713
  155.9728  130.4656  150.6259 LP  0  0  0  0  0  0  0  0  0  0  0  0  # atno 17371 bound_to 10713
  140.4777  134.1321  155.7212 LP  0  0  0  0  0  0  0  0  0  0  0  0  # atno 17394 bound_to 11000
  141.1621  133.8772  157.1818 LP  0  0  0  0  0  0  0  0  0  0  0  0  # atno 17395 bound_to 11000

$$$$
