AV-unprocessed.smi:525|AV-procd|sdf|2810|dock9
  -GOLD-   2262023293D 1   1.00000     0.00000
 Structure written by MMmdl.
 44 46  0  0  0  0  0  0  0  0  2 V2000
  150.8241  129.5643  154.8574 C   0  0  0  0  0  0  0  0  0  0  0  0
  149.6757  128.8215  154.4892 O   0  0  0  0  0  0  0  0  0  0  0  0
  148.7903  129.5636  153.6662 C   0  0  0  0  0  0  0  0  0  0  0  0
  148.1576  130.7024  154.4778 C   0  0  0  0  0  0  0  0  0  0  0  0
  147.9327  131.9012  153.6576 N   0  0  0  0  0  0  0  0  0  0  0  0
  148.5262  133.1245  153.7162 C   0  0  0  0  0  0  0  0  0  0  0  0
  149.7879  133.6142  154.8463 S   0  0  0  0  0  0  0  0  0  0  0  0
  149.0853  135.0053  155.7902 C   0  0  1  0  0  0  0  0  0  0  0  0
  149.3387  134.9325  157.3065 C   0  0  0  0  0  0  0  0  0  0  0  0
  148.8333  135.9192  158.0519 N   0  0  0  0  0  0  0  0  0  0  0  0
  149.9645  133.9995  157.8068 O   0  0  0  0  0  0  0  0  0  0  0  0
  149.6107  136.3170  155.2173 C   0  0  0  0  0  0  0  0  0  0  0  0
  150.9963  136.5180  155.0209 C   0  0  0  0  0  0  0  0  0  0  0  0
  151.4704  137.7322  154.4880 C   0  0  0  0  0  0  0  0  0  0  0  0
  150.5638  138.7537  154.1470 C   0  0  0  0  0  0  0  0  0  0  0  0
  149.1825  138.5600  154.3386 C   0  0  0  0  0  0  0  0  0  0  0  0
  148.7075  137.3455  154.8705 C   0  0  0  0  0  0  0  0  0  0  0  0
  147.9561  133.9096  152.7612 N   0  3  0  0  0  0  0  0  0  0  0  0
  146.9762  133.1808  152.0856 C   0  0  0  0  0  0  0  0  0  0  0  0
  146.1279  133.5453  151.0446 C   0  0  0  0  0  0  0  0  0  0  0  0
  145.2275  132.5605  150.5878 C   0  0  0  0  0  0  0  0  0  0  0  0
  145.1925  131.2740  151.1636 C   0  0  0  0  0  0  0  0  0  0  0  0
  146.0588  130.9149  152.2170 C   0  0  0  0  0  0  0  0  0  0  0  0
  146.9502  131.8918  152.6602 C   0  0  0  0  0  0  0  0  0  0  0  0
  151.4739  128.9492  155.4797 H   0  0  0  0  0  0  0  0  0  0  0  0
  150.5516  130.4513  155.4308 H   0  0  0  0  0  0  0  0  0  0  0  0
  151.3918  129.8737  153.9793 H   0  0  0  0  0  0  0  0  0  0  0  0
  149.3315  129.9762  152.8133 H   0  0  0  0  0  0  0  0  0  0  0  0
  148.0107  128.9111  153.2710 H   0  0  0  0  0  0  0  0  0  0  0  0
  147.1929  130.3869  154.8763 H   0  0  0  0  0  0  0  0  0  0  0  0
  148.7742  130.9601  155.3384 H   0  0  0  0  0  0  0  0  0  0  0  0
  148.0055  134.9683  155.6410 H   0  0  0  0  0  0  0  0  0  0  0  0
  148.9525  135.9078  159.0546 H   0  0  0  0  0  0  0  0  0  0  0  0
  148.3136  136.6642  157.6106 H   0  0  0  0  0  0  0  0  0  0  0  0
  151.7004  135.7400  155.2790 H   0  0  0  0  0  0  0  0  0  0  0  0
  152.5301  137.8794  154.3406 H   0  0  0  0  0  0  0  0  0  0  0  0
  150.9273  139.6852  153.7384 H   0  0  0  0  0  0  0  0  0  0  0  0
  148.4866  139.3434  154.0765 H   0  0  0  0  0  0  0  0  0  0  0  0
  147.6454  137.2092  155.0112 H   0  0  0  0  0  0  0  0  0  0  0  0
  146.1491  134.5318  150.6051 H   0  0  0  0  0  0  0  0  0  0  0  0
  144.5477  132.7976  149.7822 H   0  0  0  0  0  0  0  0  0  0  0  0
  144.4853  130.5471  150.7914 H   0  0  0  0  0  0  0  0  0  0  0  0
  146.0172  129.9282  152.6538 H   0  0  0  0  0  0  0  0  0  0  0  0
  148.2161  134.8718  152.5893 H   0  0  0  0  0  0  0  0  0  0  0  0
  1  2  1  0  0  0  0
  1 25  1  0  0  0  0
  1 26  1  0  0  0  0
  1 27  1  0  0  0  0
  2  3  1  0  0  0  0
  3  4  1  0  0  0  0
  3 28  1  0  0  0  0
  3 29  1  0  0  0  0
  4  5  1  0  0  0  0
  4 30  1  0  0  0  0
  4 31  1  0  0  0  0
  5 24  1  0  0  0  0
  5  6  1  0  0  0  0
  6  7  1  0  0  0  0
  6 18  2  0  0  0  0
  7  8  1  0  0  0  0
  8  9  1  0  0  0  0
  8 12  1  0  0  0  0
  8 32  1  0  0  0  0
  9 10  1  0  0  0  0
  9 11  2  0  0  0  0
 10 33  1  0  0  0  0
 10 34  1  0  0  0  0
 12 17  1  0  0  0  0
 12 13  2  0  0  0  0
 13 14  1  0  0  0  0
 13 35  1  0  0  0  0
 14 15  2  0  0  0  0
 14 36  1  0  0  0  0
 15 16  1  0  0  0  0
 15 37  1  0  0  0  0
 16 17  2  0  0  0  0
 16 38  1  0  0  0  0
 17 39  1  0  0  0  0
 18 19  1  0  0  0  0
 18 44  1  0  0  0  0
 19 24  2  0  0  0  0
 19 20  1  0  0  0  0
 20 21  2  0  0  0  0
 20 40  1  0  0  0  0
 21 22  1  0  0  0  0
 21 41  1  0  0  0  0
 22 23  2  0  0  0  0
 22 42  1  0  0  0  0
 23 24  1  0  0  0  0
 23 43  1  0  0  0  0
M  CHG  1  18   1
M  END
> <s_m_source_file>
AV-unprocessed.smi

> <i_m_source_file_index>
525

> <i_lp_mmshare_version>
43012

> <i_f3d_flags>
0

> <s_epik_input>
W2NIXTFbY0hdW2NIXVtjSF1jKGMxMiluKFtDSDJdW0NIMl1PW0NIM10pYyhuMilTW0NASF0oQyg9TylbTkgyXSljM1tjSF1bY0hdW2NIXVtjSF1bY0hdMw==

> <s_epik_cmdline>
J2VwaWtfcHl0aG9uJywgJy1waCcsICc3LjAnLCAnLXRuJywgJzgnLCAnLW1hJywgJzIwMCcsICctbWV0YWxfYmluZGluZycsICctaW1hZScsICc8aW5maWxlLm1hZT4nLCAnLW9tYWUnLCAnPG91dGZpbGUubWFlPic=

> <r_epik_Ionization_Penalty>
1.29485

> <r_epik_Ionization_Penalty_Charging>
1.29485

> <r_epik_Ionization_Penalty_Neutral>
1.02965e-06

> <r_epik_State_Penalty>
1.36828

> <r_epik_Charging_Adjusted_Penalty>
2.66313

> <i_epik_Tot_Q>
1

> <i_epik_Tot_abs_Q>
1

> <r_epik_Metal_State_Penalty>
1.43316

> <b_epik_Metal_Only>
0

> <s_lp_Force_Field>
OPLS_2005

> <r_lp_Energy>
11.9794

> <b_lp_Chiralities_Consistent>
1

> <s_lp_Variant>
AV-unprocessed.smi:525-4

> <Gold.Version>
5.8.1

> <Gold.Id.Protein>
6NUR|6NUR_protein|mol2

> <Gold.PLP.Fitness>
47.8563

> <Gold.PLP.PLP>
-41.1451

> <Gold.PLP.part.hbond>
-2.0000

> <Gold.PLP.part.metal>
0.0000

> <Gold.PLP.part.buried>
-4.2154

> <Gold.PLP.part.nonpolar>
-35.5363

> <Gold.PLP.part.repulsive>
0.1799

> <Gold.PLP.ligand.clash>
0.0000

> <Gold.PLP.ligand.torsion>
1.2043

> <Gold.PLP.Chemscore.Hbond>
2.9920

> <Gold.PLP.Chemscore.CHOScore>
0.0000

> <Gold.PLP.Chemscore.Metal>
0.0000

> <Gold.Chemscore.Hbonds>
donor molecule, donor type, donor heavy atom, donor atom, acceptor molecule, acceptor atom, score
      L1  H    18    44       P1  7948  2.00
      P1  H  6896  6908       L1    11  1.00

> <Gold.PLP.Chemscore.Internal.Correction>
0.1438

> <Gold.Rescore>
     Score         DG    S(hbond)    S(metal)    S(lipo)     H(rot)  DE(clash)    DE(int)     intcor
     15.92     -17.00       1.80        0.00     102.21       2.51       0.10       0.98       ----

> <Gold.Chemscore.Fitness>
15.9198

> <Gold.Chemscore.DG>
-17.0014

> <Gold.Chemscore.ZeroCoef>
-5.4800

> <Gold.Chemscore.Hbond>
1.7966

> <Gold.Chemscore.Metal>
0.0000

> <Gold.Chemscore.Lipo>
102.2057

> <Gold.Chemscore.Internal_Hbond>
0.0000

> <Gold.Chemscore.DEClash>
0.0979

> <Gold.Chemscore.DEInternal>
0.9836

> <Gold.Chemscore.Rot>
2.5145

> <Gold.Chemscore.Internal.Correction>
   9.000000E+99

> <Gold.Chemscore.Hbonds>
donor molecule, donor type, donor heavy atom, donor atom, acceptor molecule, acceptor atom, score
      L1  H    18    44       P1  7948  0.60
      P1  H  6896  6908       L1    11  0.97

> <Gold.Chemscore.Hbond.Weighted>
-6.0005

> <Gold.Chemscore.Metal.Weighted>
-0.0000

> <Gold.Chemscore.Lipo.Weighted>
-11.9581

> <Gold.Chemscore.Internal_Hbond.Weighted>
0.0000

> <Gold.Chemscore.DEClash.Weighted>
0.0979

> <Gold.Chemscore.DEInternal.Weighted>
0.9836

> <Gold.Chemscore.Rot.Weighted>
6.4372

> <Gold.Chemscore.Internal.Correction.Weighted>
   9.000000E+99

> <Gold.Protein.RotatedTorsions>
[ 6907 6896 6895 6894 ] final  124.06 input  -60.11 | X-H torsion
[ 7974 7965 7964 7962 ] final   90.25 input  175.53 | X-H torsion
[ 8008 7997 7996 7995 ] final -158.04 input   59.86 | X-H torsion
[ 10167 10162 10161 10158 ] final  174.19 input  -65.29 | X-H torsion
[ 10718 10713 10712 10709 ] final   40.14 input   66.30 | X-H torsion
[ 10763 10752 10751 10750 ] final   94.68 input  -60.55 | X-H torsion
[ 11005 11000 10999 10996 ] final  -75.01 input  -57.11 | X-H torsion

> <Gold.Protein.ActiveResidues>
 VAL166  LYS551  ARG553  GLY616  TRP617  ASP618  TYR619  PRO620  LYS621  CYS622 
 ASP623  PHE694  ASN695  SER759  ASP760  ASP761  ALA762  ILE779  LEU786  VAL792 
 PHE793  MET794  SER795  GLU796  ALA797  LYS798  CYS799  TRP800  GLU811  SER814 

> <Gold.Protein.RotatedAtoms>
  152.4110  133.6963  159.6397 H   0  0  0  0  0  0  0  0  0  0  0  0  # atno 6907 bound_to 6896
  150.7990  133.8624  159.3244 H   0  0  0  0  0  0  0  0  0  0  0  0  # atno 6908 bound_to 6896
  151.6367  135.1019  160.0184 H   0  0  0  0  0  0  0  0  0  0  0  0  # atno 6909 bound_to 6896
  145.5215  139.2279  143.2669 H   0  0  0  0  0  0  0  0  0  0  0  0  # atno 7974 bound_to 7965
  155.7415  140.0815  157.2243 H   0  0  0  0  0  0  0  0  0  0  0  0  # atno 8008 bound_to 7997
  154.4021  140.1577  156.2677 H   0  0  0  0  0  0  0  0  0  0  0  0  # atno 8009 bound_to 7997
  155.9016  140.3409  155.6033 H   0  0  0  0  0  0  0  0  0  0  0  0  # atno 8010 bound_to 7997
  139.5133  144.3175  152.0234 H   0  0  0  0  0  0  0  0  0  0  0  0  # atno 10167 bound_to 10162
  157.3787  130.7742  149.7176 H   0  0  0  0  0  0  0  0  0  0  0  0  # atno 10718 bound_to 10713
  153.2444  135.4281  155.0732 H   0  0  0  0  0  0  0  0  0  0  0  0  # atno 10763 bound_to 10752
  154.8355  135.3410  154.6603 H   0  0  0  0  0  0  0  0  0  0  0  0  # atno 10764 bound_to 10752
  153.7025  135.7027  153.5116 H   0  0  0  0  0  0  0  0  0  0  0  0  # atno 10765 bound_to 10752
  141.1641  133.6931  156.7452 H   0  0  0  0  0  0  0  0  0  0  0  0  # atno 11005 bound_to 11000
  146.2103  140.6027  142.9062 LP  0  0  0  0  0  0  0  0  0  0  0  0  # atno 17320 bound_to 7965
  144.7674  140.5560  143.6694 LP  0  0  0  0  0  0  0  0  0  0  0  0  # atno 17321 bound_to 7965
  140.2617  144.4059  150.6183 LP  0  0  0  0  0  0  0  0  0  0  0  0  # atno 17342 bound_to 10162
  140.6152  143.2172  151.6806 LP  0  0  0  0  0  0  0  0  0  0  0  0  # atno 17343 bound_to 10162
  155.9771  130.4067  150.3735 LP  0  0  0  0  0  0  0  0  0  0  0  0  # atno 17370 bound_to 10713
  157.1836  131.0398  151.2736 LP  0  0  0  0  0  0  0  0  0  0  0  0  # atno 17371 bound_to 10713
  140.2645  134.8441  157.3790 LP  0  0  0  0  0  0  0  0  0  0  0  0  # atno 17394 bound_to 11000
  140.1580  134.4765  155.7914 LP  0  0  0  0  0  0  0  0  0  0  0  0  # atno 17395 bound_to 11000

$$$$
