AV-unprocessed.smi:193|AV-procd|sdf|1500|dock1
  -GOLD-   2262019323D 1   1.00000     0.00000
 Structure written by MMmdl.
 62 66  0  0  0  0  0  0  0  0  2 V2000
  151.8257  140.1315  157.1491 C   0  0  0  0  0  0  0  0  0  0  0  0
  152.4647  140.9126  158.3087 C   0  0  2  0  0  0  0  0  0  0  0  0
  152.7794  139.9438  159.4682 C   0  0  0  0  0  0  0  0  0  0  0  0
  153.8203  140.4144  160.3851 N   0  0  0  0  0  0  0  0  0  0  0  0
  154.3910  139.5077  161.2214 C   0  0  0  0  0  0  0  0  0  0  0  0
  154.4385  138.2014  160.8469 N   0  0  0  0  0  0  0  0  0  0  0  0
  154.9770  137.2845  161.6560 C   0  0  0  0  0  0  0  0  0  0  0  0
  155.5183  137.4526  162.8634 N   0  0  0  0  0  0  0  0  0  0  0  0
  155.4850  138.7618  163.2430 C   0  0  0  0  0  0  0  0  0  0  0  0
  154.9515  139.8449  162.4879 C   0  0  0  0  0  0  0  0  0  0  0  0
  155.1189  141.0344  163.1887 N   0  0  0  0  0  0  0  0  0  0  0  0
  155.7033  140.6732  164.2981 C   0  0  0  0  0  0  0  0  0  0  0  0
  155.9460  139.3239  164.4208 N   0  0  0  0  0  0  0  0  0  0  0  0
  156.5692  138.6513  165.5507 C   0  0  0  0  0  0  0  0  0  0  0  0
  157.0175  139.6082  166.6842 C   0  0  0  0  0  0  0  0  0  0  0  0
  157.6279  138.8266  167.6961 O   0  0  0  0  0  0  0  0  0  0  0  0
  158.0587  140.6152  166.1555 C   0  0  0  0  0  0  0  0  0  0  0  0
  158.4050  141.6945  167.1967 C   0  0  0  0  0  0  0  0  0  0  0  0
  157.2199  142.3538  167.6257 O   0  0  0  0  0  0  0  0  0  0  0  0
  156.3124  141.4783  168.2831 C   0  0  0  0  0  0  0  0  0  0  0  0
  155.8373  140.3813  167.3138 C   0  0  0  0  0  0  0  0  0  0  0  0
  153.9940  141.8313  160.7044 C   0  0  0  0  0  0  0  0  0  0  0  0
  152.6682  142.5842  160.8734 C   0  0  0  0  0  0  0  0  0  0  0  0
  152.1716  143.0931  159.5728 N   0  3  2  0  0  0  0  0  0  0  0  0
  151.2954  144.2770  159.7383 C   0  0  1  0  0  0  0  0  0  0  0  0
  152.0465  145.5818  159.8866 C   0  0  0  0  0  0  0  0  0  0  0  0
  151.3292  145.2721  158.5914 C   0  0  1  0  0  0  0  0  0  0  0  0
  152.1232  145.0579  157.3155 C   0  0  0  0  0  0  0  0  0  0  0  0
  151.5153  142.0499  158.7471 C   0  0  0  0  0  0  0  0  0  0  0  0
  150.8832  139.6728  157.4506 H   0  0  0  0  0  0  0  0  0  0  0  0
  152.4847  139.3370  156.7973 H   0  0  0  0  0  0  0  0  0  0  0  0
  151.6222  140.7821  156.2979 H   0  0  0  0  0  0  0  0  0  0  0  0
  153.3934  141.3392  157.9262 H   0  0  0  0  0  0  0  0  0  0  0  0
  151.8707  139.7136  160.0263 H   0  0  0  0  0  0  0  0  0  0  0  0
  153.1266  138.9991  159.0464 H   0  0  0  0  0  0  0  0  0  0  0  0
  154.9709  136.2704  161.2843 H   0  0  0  0  0  0  0  0  0  0  0  0
  155.9672  141.3845  165.0673 H   0  0  0  0  0  0  0  0  0  0  0  0
  155.8713  137.9061  165.9353 H   0  0  0  0  0  0  0  0  0  0  0  0
  157.4280  138.0942  165.1735 H   0  0  0  0  0  0  0  0  0  0  0  0
  157.2741  137.9513  167.6554 H   0  0  0  0  0  0  0  0  0  0  0  0
  158.9648  140.0981  165.8368 H   0  0  0  0  0  0  0  0  0  0  0  0
  157.6631  141.1101  165.2675 H   0  0  0  0  0  0  0  0  0  0  0  0
  158.9271  141.2645  168.0528 H   0  0  0  0  0  0  0  0  0  0  0  0
  159.0762  142.4328  166.7579 H   0  0  0  0  0  0  0  0  0  0  0  0
  156.7825  141.0456  169.1676 H   0  0  0  0  0  0  0  0  0  0  0  0
  155.4588  142.0585  168.6341 H   0  0  0  0  0  0  0  0  0  0  0  0
  155.2513  140.8489  166.5214 H   0  0  0  0  0  0  0  0  0  0  0  0
  155.1615  139.7036  167.8363 H   0  0  0  0  0  0  0  0  0  0  0  0
  154.5323  141.9305  161.6471 H   0  0  0  0  0  0  0  0  0  0  0  0
  154.6209  142.3056  159.9485 H   0  0  0  0  0  0  0  0  0  0  0  0
  151.9147  141.9854  161.3876 H   0  0  0  0  0  0  0  0  0  0  0  0
  152.8670  143.4371  161.5233 H   0  0  0  0  0  0  0  0  0  0  0  0
  150.3795  144.1135  160.3038 H   0  0  0  0  0  0  0  0  0  0  0  0
  151.6077  146.3440  160.5273 H   0  0  0  0  0  0  0  0  0  0  0  0
  153.1348  145.5532  159.8812 H   0  0  0  0  0  0  0  0  0  0  0  0
  150.4001  145.8143  158.4258 H   0  0  0  0  0  0  0  0  0  0  0  0
  153.0852  144.5866  157.5180 H   0  0  0  0  0  0  0  0  0  0  0  0
  152.3106  146.0166  156.8317 H   0  0  0  0  0  0  0  0  0  0  0  0
  151.5625  144.4282  156.6247 H   0  0  0  0  0  0  0  0  0  0  0  0
  151.1217  142.5371  157.8544 H   0  0  0  0  0  0  0  0  0  0  0  0
  150.6493  141.6472  159.2749 H   0  0  0  0  0  0  0  0  0  0  0  0
  152.9791  143.4153  159.0587 H   0  0  0  0  0  0  0  0  0  0  0  0
  1  2  1  0  0  0  0
  1 30  1  0  0  0  0
  1 31  1  0  0  0  0
  1 32  1  0  0  0  0
  2 29  1  0  0  0  0
  2  3  1  0  0  0  0
  2 33  1  0  0  0  0
  3  4  1  0  0  0  0
  3 34  1  0  0  0  0
  3 35  1  0  0  0  0
  4  5  1  0  0  0  0
  4 22  1  0  0  0  0
  5 10  1  0  0  0  0
  5  6  2  0  0  0  0
  6  7  1  0  0  0  0
  7  8  2  0  0  0  0
  7 36  1  0  0  0  0
  8  9  1  0  0  0  0
  9 13  1  0  0  0  0
  9 10  2  0  0  0  0
 10 11  1  0  0  0  0
 11 12  2  0  0  0  0
 12 13  1  0  0  0  0
 12 37  1  0  0  0  0
 13 14  1  0  0  0  0
 14 15  1  0  0  0  0
 14 38  1  0  0  0  0
 14 39  1  0  0  0  0
 15 21  1  0  0  0  0
 15 16  1  0  0  0  0
 15 17  1  0  0  0  0
 16 40  1  0  0  0  0
 17 18  1  0  0  0  0
 17 41  1  0  0  0  0
 17 42  1  0  0  0  0
 18 19  1  0  0  0  0
 18 43  1  0  0  0  0
 18 44  1  0  0  0  0
 19 20  1  0  0  0  0
 20 21  1  0  0  0  0
 20 45  1  0  0  0  0
 20 46  1  0  0  0  0
 21 47  1  0  0  0  0
 21 48  1  0  0  0  0
 22 23  1  0  0  0  0
 22 49  1  0  0  0  0
 22 50  1  0  0  0  0
 23 24  1  0  0  0  0
 23 51  1  0  0  0  0
 23 52  1  0  0  0  0
 24 25  1  0  0  0  0
 24 29  1  0  0  0  0
 24 62  1  0  0  0  0
 25 27  1  0  0  0  0
 25 26  1  0  0  0  0
 25 53  1  0  0  0  0
 26 27  1  0  0  0  0
 26 54  1  0  0  0  0
 26 55  1  0  0  0  0
 27 28  1  0  0  0  0
 27 56  1  0  0  0  0
 28 57  1  0  0  0  0
 28 58  1  0  0  0  0
 28 59  1  0  0  0  0
 29 60  1  0  0  0  0
 29 61  1  0  0  0  0
M  CHG  1  24   1
M  END
> <s_m_source_file>
AV-unprocessed.smi

> <i_m_source_file_index>
193

> <i_lp_mmshare_version>
43012

> <i_f3d_flags>
0

> <s_epik_input>
W0NIM11bQ0BASF0xW0NIMl1bQ0BIXTFOKFtDSDJdMilbQ0gyXVtDSDJdTihbQ0gyXVtDQEhdMltDSDNdKWMobltjSF1uMyljKGMzNCluW2NIXW40W0NIMl1DNShbT0hdKVtDSDJdW0NIMl1PW0NIMl1bQ0gyXTU=

> <s_epik_cmdline>
J2VwaWtfcHl0aG9uJywgJy1waCcsICc3LjAnLCAnLXRuJywgJzgnLCAnLW1hJywgJzIwMCcsICctbWV0YWxfYmluZGluZycsICctaW1hZScsICc8aW5maWxlLm1hZT4nLCAnLW9tYWUnLCAnPG91dGZpbGUubWFlPic=

> <r_lp_tautomer_probability>
1

> <r_epik_Ionization_Penalty>
0.0540825

> <r_epik_Ionization_Penalty_Charging>
0.0538476

> <r_epik_Ionization_Penalty_Neutral>
0.000234891

> <r_epik_State_Penalty>
0.0200719

> <r_epik_Charging_Adjusted_Penalty>
0.0739194

> <i_epik_Tot_Q>
1

> <i_epik_Tot_abs_Q>
1

> <r_epik_Metal_State_Penalty>
0.0199414

> <b_epik_Metal_Only>
0

> <s_lp_Force_Field>
OPLS_2005

> <r_lp_Energy>
56.6778

> <b_lp_Chiralities_Consistent>
1

> <s_lp_Variant>
AV-unprocessed.smi:193-5

> <Gold.Version>
5.8.1

> <Gold.Id.Protein>
6NUR|6NUR_protein|mol2

> <Gold.PLP.Fitness>
49.5087

> <Gold.PLP.PLP>
-49.7819

> <Gold.PLP.part.hbond>
-1.9582

> <Gold.PLP.part.metal>
0.0000

> <Gold.PLP.part.buried>
-8.3868

> <Gold.PLP.part.nonpolar>
-38.5275

> <Gold.PLP.part.repulsive>
0.0538

> <Gold.PLP.ligand.clash>
0.0000

> <Gold.PLP.ligand.torsion>
0.8171

> <Gold.PLP.Chemscore.Hbond>
0.0000

> <Gold.PLP.Chemscore.CHOScore>
0.0000

> <Gold.PLP.Chemscore.Metal>
0.0000

> <Gold.PLP.Chemscore.Internal.Correction>
1.3610

> <Gold.Rescore>
     Score         DG    S(hbond)    S(metal)    S(lipo)     H(rot)  DE(clash)    DE(int)     intcor
      9.89     -14.82       0.00        0.00     122.03       1.93       1.47       3.46       ----

> <Gold.Chemscore.Fitness>
9.8906

> <Gold.Chemscore.DG>
-14.8193

> <Gold.Chemscore.ZeroCoef>
-5.4800

> <Gold.Chemscore.Hbond>
0.0000

> <Gold.Chemscore.Metal>
0.0000

> <Gold.Chemscore.Lipo>
122.0308

> <Gold.Chemscore.Internal_Hbond>
0.0000

> <Gold.Chemscore.DEClash>
1.4698

> <Gold.Chemscore.DEInternal>
3.4589

> <Gold.Chemscore.Rot>
1.9290

> <Gold.Chemscore.Internal.Correction>
   9.000000E+99

> <Gold.Chemscore.Hbond.Weighted>
-0.0000

> <Gold.Chemscore.Metal.Weighted>
-0.0000

> <Gold.Chemscore.Lipo.Weighted>
-14.2776

> <Gold.Chemscore.Internal_Hbond.Weighted>
0.0000

> <Gold.Chemscore.DEClash.Weighted>
1.4698

> <Gold.Chemscore.DEInternal.Weighted>
3.4589

> <Gold.Chemscore.Rot.Weighted>
4.9383

> <Gold.Chemscore.Internal.Correction.Weighted>
   9.000000E+99

> <Gold.Protein.RotatedTorsions>
[ 6907 6896 6895 6894 ] final  -78.32 input  -60.11 | X-H torsion
[ 7974 7965 7964 7962 ] final -100.72 input  175.53 | X-H torsion
[ 8008 7997 7996 7995 ] final -154.38 input   59.86 | X-H torsion
[ 10167 10162 10161 10158 ] final -112.49 input  -65.29 | X-H torsion
[ 10718 10713 10712 10709 ] final  112.06 input   66.30 | X-H torsion
[ 10763 10752 10751 10750 ] final  129.05 input  -60.55 | X-H torsion
[ 11005 11000 10999 10996 ] final -166.01 input  -57.11 | X-H torsion

> <Gold.Protein.ActiveResidues>
 VAL166  LYS551  ARG553  GLY616  TRP617  ASP618  TYR619  PRO620  LYS621  CYS622 
 ASP623  PHE694  ASN695  SER759  ASP760  ASP761  ALA762  ILE779  LEU786  VAL792 
 PHE793  MET794  SER795  GLU796  ALA797  LYS798  CYS799  TRP800  GLU811  SER814 

> <Gold.Protein.RotatedAtoms>
  150.6976  134.4289  159.5238 H   0  0  0  0  0  0  0  0  0  0  0  0  # atno 6907 bound_to 6896
  152.2019  134.8577  160.0516 H   0  0  0  0  0  0  0  0  0  0  0  0  # atno 6908 bound_to 6896
  151.9494  133.3626  159.4031 H   0  0  0  0  0  0  0  0  0  0  0  0  # atno 6909 bound_to 6896
  145.2909  140.9352  143.2878 H   0  0  0  0  0  0  0  0  0  0  0  0  # atno 7974 bound_to 7965
  155.6855  140.0749  157.2468 H   0  0  0  0  0  0  0  0  0  0  0  0  # atno 8008 bound_to 7997
  154.4098  140.1674  156.2081 H   0  0  0  0  0  0  0  0  0  0  0  0  # atno 8009 bound_to 7997
  155.9497  140.3378  155.6401 H   0  0  0  0  0  0  0  0  0  0  0  0  # atno 8010 bound_to 7997
  140.1221  143.4434  152.1684 H   0  0  0  0  0  0  0  0  0  0  0  0  # atno 10167 bound_to 10162
  157.6412  131.0961  150.6840 H   0  0  0  0  0  0  0  0  0  0  0  0  # atno 10718 bound_to 10713
  153.7355  135.3232  155.3294 H   0  0  0  0  0  0  0  0  0  0  0  0  # atno 10763 bound_to 10752
  154.8312  135.4532  154.1079 H   0  0  0  0  0  0  0  0  0  0  0  0  # atno 10764 bound_to 10752
  153.2239  135.6951  153.8049 H   0  0  0  0  0  0  0  0  0  0  0  0  # atno 10765 bound_to 10752
  140.5693  134.5254  157.5159 H   0  0  0  0  0  0  0  0  0  0  0  0  # atno 11005 bound_to 11000
  144.9173  139.4454  143.6558 LP  0  0  0  0  0  0  0  0  0  0  0  0  # atno 17320 bound_to 7965
  146.3185  139.8014  142.8964 LP  0  0  0  0  0  0  0  0  0  0  0  0  # atno 17321 bound_to 7965
  139.5563  144.7375  151.4284 LP  0  0  0  0  0  0  0  0  0  0  0  0  # atno 17342 bound_to 10162
  140.6866  143.7960  150.7195 LP  0  0  0  0  0  0  0  0  0  0  0  0  # atno 17343 bound_to 10162
  156.7164  130.4667  149.5534 LP  0  0  0  0  0  0  0  0  0  0  0  0  # atno 17370 bound_to 10713
  156.1695  130.6427  151.0819 LP  0  0  0  0  0  0  0  0  0  0  0  0  # atno 17371 bound_to 10713
  139.9369  134.7858  156.0778 LP  0  0  0  0  0  0  0  0  0  0  0  0  # atno 17394 bound_to 11000
  141.1066  133.6658  156.2878 LP  0  0  0  0  0  0  0  0  0  0  0  0  # atno 17395 bound_to 11000

$$$$
