AV-unprocessed.smi:3025|AV-procd|sdf|11508|dock3
  -GOLD-   2272016443D 1   1.00000     0.00000
 Structure written by MMmdl.
 42 43  0  0  0  0  0  0  0  0  2 V2000
  144.2549  133.5745  150.1212 C   0  0  0  0  0  0  0  0  0  0  0  0
  144.4828  135.0397  150.5084 C   0  0  0  0  0  0  0  0  0  0  0  0
  145.3358  135.1849  151.7801 C   0  0  0  0  0  0  0  0  0  0  0  0
  145.5300  136.6414  152.2503 C   0  0  2  0  0  0  0  0  0  0  0  0
  146.3098  137.4967  151.2284 C   0  0  0  0  0  0  0  0  0  0  0  0
  146.5187  138.9369  151.7282 C   0  0  0  0  0  0  0  0  0  0  0  0
  147.2182  138.9856  153.1031 C   0  0  2  0  0  0  0  0  0  0  0  0
  148.6357  138.5603  153.0309 N   0  3  0  0  0  0  0  0  0  0  0  0
  149.4069  138.6994  154.2836 C   0  0  0  0  0  0  0  0  0  0  0  0
  150.8149  138.1101  154.1271 C   0  0  0  0  0  0  0  0  0  0  0  0
  151.5558  138.0765  155.4225 C   0  0  0  0  0  0  0  0  0  0  0  0
  152.0231  136.9304  155.9202 N   0  0  0  0  0  0  0  0  0  0  0  0
  152.6437  137.3442  157.0463 N   0  0  0  0  0  0  0  0  0  0  0  0
  152.5256  138.6679  157.1394 C   0  0  0  0  0  0  0  0  0  0  0  0
  151.8514  139.2079  156.1323 N   0  0  0  0  0  0  0  0  0  0  0  0
  146.4512  138.1199  154.1198 C   0  0  0  0  0  0  0  0  0  0  0  0
  146.2394  136.6802  153.6189 C   0  0  0  0  0  0  0  0  0  0  0  0
  143.6462  133.5008  149.2196 H   0  0  0  0  0  0  0  0  0  0  0  0
  143.7395  133.0324  150.9145 H   0  0  0  0  0  0  0  0  0  0  0  0
  145.2000  133.0668  149.9267 H   0  0  0  0  0  0  0  0  0  0  0  0
  144.9609  135.5506  149.6732 H   0  0  0  0  0  0  0  0  0  0  0  0
  143.5172  135.5240  150.6571 H   0  0  0  0  0  0  0  0  0  0  0  0
  144.8522  134.6208  152.5788 H   0  0  0  0  0  0  0  0  0  0  0  0
  146.3077  134.7139  151.6266 H   0  0  0  0  0  0  0  0  0  0  0  0
  144.5416  137.0853  152.3803 H   0  0  0  0  0  0  0  0  0  0  0  0
  147.2759  137.0359  151.0188 H   0  0  0  0  0  0  0  0  0  0  0  0
  145.7765  137.5330  150.2788 H   0  0  0  0  0  0  0  0  0  0  0  0
  147.0665  139.5152  150.9846 H   0  0  0  0  0  0  0  0  0  0  0  0
  145.5446  139.4204  151.8129 H   0  0  0  0  0  0  0  0  0  0  0  0
  147.2048  140.0135  153.4683 H   0  0  0  0  0  0  0  0  0  0  0  0
  148.6463  137.5817  152.7813 H   0  0  0  0  0  0  0  0  0  0  0  0
  149.4804  139.7510  154.5599 H   0  0  0  0  0  0  0  0  0  0  0  0
  148.8800  138.1881  155.0905 H   0  0  0  0  0  0  0  0  0  0  0  0
  150.7539  137.0959  153.7295 H   0  0  0  0  0  0  0  0  0  0  0  0
  151.3879  138.6922  153.4035 H   0  0  0  0  0  0  0  0  0  0  0  0
  152.9420  139.2452  157.9519 H   0  0  0  0  0  0  0  0  0  0  0  0
  146.9728  138.1097  155.0775 H   0  0  0  0  0  0  0  0  0  0  0  0
  145.4778  138.5733  154.3122 H   0  0  0  0  0  0  0  0  0  0  0  0
  145.6546  136.1279  154.3555 H   0  0  0  0  0  0  0  0  0  0  0  0
  147.2007  136.1696  153.5504 H   0  0  0  0  0  0  0  0  0  0  0  0
  149.0941  139.0815  152.2972 H   0  0  0  0  0  0  0  0  0  0  0  0
  153.1145  136.7177  157.6842 H   0  0  0  0  0  0  0  0  0  0  0  0
  1  2  1  0  0  0  0
  1 18  1  0  0  0  0
  1 19  1  0  0  0  0
  1 20  1  0  0  0  0
  2  3  1  0  0  0  0
  2 21  1  0  0  0  0
  2 22  1  0  0  0  0
  3  4  1  0  0  0  0
  3 23  1  0  0  0  0
  3 24  1  0  0  0  0
  4 17  1  0  0  0  0
  4  5  1  0  0  0  0
  4 25  1  0  0  0  0
  5  6  1  0  0  0  0
  5 26  1  0  0  0  0
  5 27  1  0  0  0  0
  6  7  1  0  0  0  0
  6 28  1  0  0  0  0
  6 29  1  0  0  0  0
  7  8  1  0  0  0  0
  7 16  1  0  0  0  0
  7 30  1  0  0  0  0
  8  9  1  0  0  0  0
  8 31  1  0  0  0  0
  8 41  1  0  0  0  0
  9 10  1  0  0  0  0
  9 32  1  0  0  0  0
  9 33  1  0  0  0  0
 10 34  1  0  0  0  0
 10 35  1  0  0  0  0
 10 11  1  0  0  0  0
 11 15  1  0  0  0  0
 11 12  2  0  0  0  0
 12 13  1  0  0  0  0
 13 14  1  0  0  0  0
 13 42  1  0  0  0  0
 14 15  2  0  0  0  0
 14 36  1  0  0  0  0
 16 17  1  0  0  0  0
 16 37  1  0  0  0  0
 16 38  1  0  0  0  0
 17 39  1  0  0  0  0
 17 40  1  0  0  0  0
M  CHG  1   8   1
M  END
> <s_m_source_file>
AV-unprocessed.smi

> <i_m_source_file_index>
3025

> <i_lp_mmshare_version>
43012

> <i_f3d_flags>
0

> <s_epik_input>
W0NIM11bQ0gyXVtDSDJdW0NAQEhdMVtDSDJdW0NIMl1bQ0BIXShbQ0gyXVtDSDJdMSlbTkhdW0NIMl1bQ0gyXWMybm5bY0hdW25IXTI=

> <s_epik_cmdline>
J2VwaWtfcHl0aG9uJywgJy1waCcsICc3LjAnLCAnLXRuJywgJzgnLCAnLW1hJywgJzIwMCcsICctbWV0YWxfYmluZGluZycsICctaW1hZScsICc8aW5maWxlLm1hZT4nLCAnLW9tYWUnLCAnPG91dGZpbGUubWFlPic=

> <r_epik_Ionization_Penalty>
0.00995411

> <r_epik_Ionization_Penalty_Charging>
0.000442289

> <r_epik_Ionization_Penalty_Neutral>
0.00951182

> <r_epik_State_Penalty>
0.448541

> <r_epik_Charging_Adjusted_Penalty>
0.448983

> <i_epik_Tot_Q>
1

> <i_epik_Tot_abs_Q>
1

> <r_epik_Metal_State_Penalty>
0.682245

> <b_epik_Metal_Only>
0

> <s_lp_Force_Field>
OPLS_2005

> <r_lp_Energy>
14.0161

> <b_lp_Chiralities_Consistent>
1

> <s_lp_Variant>
AV-unprocessed.smi:3025-4

> <Gold.Version>
5.8.1

> <Gold.Id.Protein>
6NUR|6NUR_protein|mol2

> <Gold.PLP.Fitness>
40.1103

> <Gold.PLP.PLP>
-28.1438

> <Gold.PLP.part.hbond>
-3.0000

> <Gold.PLP.part.metal>
0.0000

> <Gold.PLP.part.buried>
0.0676

> <Gold.PLP.part.nonpolar>
-27.4146

> <Gold.PLP.part.repulsive>
0.2410

> <Gold.PLP.ligand.clash>
0.0000

> <Gold.PLP.ligand.torsion>
0.0510

> <Gold.PLP.Chemscore.Hbond>
4.0000

> <Gold.PLP.Chemscore.CHOScore>
0.0000

> <Gold.PLP.Chemscore.Metal>
0.0000

> <Gold.Chemscore.Hbonds>
donor molecule, donor type, donor heavy atom, donor atom, acceptor molecule, acceptor atom, score
      L1  H     8    31       P1  7948  2.00
      L1  H     8    41       P1  7957  1.00
      P1  H 10752 10763       L1    12  1.00

> <Gold.PLP.Chemscore.Internal.Correction>
0.0685

> <Gold.Rescore>
     Score         DG    S(hbond)    S(metal)    S(lipo)     H(rot)  DE(clash)    DE(int)     intcor
     15.27     -16.71       2.87        0.00      70.03       2.56       1.37       0.07       ----

> <Gold.Chemscore.Fitness>
15.2685

> <Gold.Chemscore.DG>
-16.7098

> <Gold.Chemscore.ZeroCoef>
-5.4800

> <Gold.Chemscore.Hbond>
2.8714

> <Gold.Chemscore.Metal>
0.0000

> <Gold.Chemscore.Lipo>
70.0304

> <Gold.Chemscore.Internal_Hbond>
0.0000

> <Gold.Chemscore.DEClash>
1.3677

> <Gold.Chemscore.DEInternal>
0.0736

> <Gold.Chemscore.Rot>
2.5602

> <Gold.Chemscore.Internal.Correction>
   9.000000E+99

> <Gold.Chemscore.Hbonds>
donor molecule, donor type, donor heavy atom, donor atom, acceptor molecule, acceptor atom, score
      L1  H     8    31       P1  7948  0.98
      L1  H     8    41       P1  7957  0.94
      P1  H 10752 10763       L1    12  0.82

> <Gold.Chemscore.Hbond.Weighted>
-9.5904

> <Gold.Chemscore.Metal.Weighted>
-0.0000

> <Gold.Chemscore.Lipo.Weighted>
-8.1936

> <Gold.Chemscore.Internal_Hbond.Weighted>
0.0000

> <Gold.Chemscore.DEClash.Weighted>
1.3677

> <Gold.Chemscore.DEInternal.Weighted>
0.0736

> <Gold.Chemscore.Rot.Weighted>
6.5542

> <Gold.Chemscore.Internal.Correction.Weighted>
   9.000000E+99

> <Gold.Protein.RotatedTorsions>
[ 6907 6896 6895 6894 ] final  -53.91 input  -60.11 | X-H torsion
[ 7974 7965 7964 7962 ] final  -29.79 input  175.53 | X-H torsion
[ 8008 7997 7996 7995 ] final  102.35 input   59.86 | X-H torsion
[ 10167 10162 10161 10158 ] final -176.51 input  -65.29 | X-H torsion
[ 10718 10713 10712 10709 ] final -167.96 input   66.30 | X-H torsion
[ 10763 10752 10751 10750 ] final   76.37 input  -60.55 | X-H torsion
[ 11005 11000 10999 10996 ] final  178.44 input  -57.11 | X-H torsion

> <Gold.Protein.ActiveResidues>
 VAL166  LYS551  ARG553  GLY616  TRP617  ASP618  TYR619  PRO620  LYS621  CYS622 
 ASP623  PHE694  ASN695  SER759  ASP760  ASP761  ALA762  ILE779  LEU786  VAL792 
 PHE793  MET794  SER795  GLU796  ALA797  LYS798  CYS799  TRP800  GLU811  SER814 

> <Gold.Protein.RotatedAtoms>
  150.8384  134.7667  159.6911 H   0  0  0  0  0  0  0  0  0  0  0  0  # atno 6907 bound_to 6896
  152.4476  134.5458  159.9862 H   0  0  0  0  0  0  0  0  0  0  0  0  # atno 6908 bound_to 6896
  151.5603  133.3366  159.3005 H   0  0  0  0  0  0  0  0  0  0  0  0  # atno 6909 bound_to 6896
  146.1191  140.5457  142.8743 H   0  0  0  0  0  0  0  0  0  0  0  0  # atno 7974 bound_to 7965
  156.1385  140.3182  155.8458 H   0  0  0  0  0  0  0  0  0  0  0  0  # atno 8008 bound_to 7997
  155.4200  140.0511  157.3043 H   0  0  0  0  0  0  0  0  0  0  0  0  # atno 8009 bound_to 7997
  154.4956  140.2109  155.9466 H   0  0  0  0  0  0  0  0  0  0  0  0  # atno 8010 bound_to 7997
  139.5526  144.2071  152.1104 H   0  0  0  0  0  0  0  0  0  0  0  0  # atno 10167 bound_to 10162
  156.6900  130.9155  151.3068 H   0  0  0  0  0  0  0  0  0  0  0  0  # atno 10718 bound_to 10713
  153.0720  135.4954  154.8325 H   0  0  0  0  0  0  0  0  0  0  0  0  # atno 10763 bound_to 10752
  154.7036  135.3006  154.9306 H   0  0  0  0  0  0  0  0  0  0  0  0  # atno 10764 bound_to 10752
  154.0022  135.6765  153.4813 H   0  0  0  0  0  0  0  0  0  0  0  0  # atno 10765 bound_to 10752
  140.3951  134.6827  157.4530 H   0  0  0  0  0  0  0  0  0  0  0  0  # atno 11005 bound_to 11000
  144.7580  140.5354  143.6755 LP  0  0  0  0  0  0  0  0  0  0  0  0  # atno 17320 bound_to 7965
  145.5505  139.1476  143.3397 LP  0  0  0  0  0  0  0  0  0  0  0  0  # atno 17321 bound_to 7965
  140.1569  144.5062  150.6655 LP  0  0  0  0  0  0  0  0  0  0  0  0  # atno 17342 bound_to 10162
  140.6792  143.2319  151.5428 LP  0  0  0  0  0  0  0  0  0  0  0  0  # atno 17343 bound_to 10162
  157.7012  130.9335  150.0792 LP  0  0  0  0  0  0  0  0  0  0  0  0  # atno 17370 bound_to 10713
  156.1805  130.3650  149.9042 LP  0  0  0  0  0  0  0  0  0  0  0  0  # atno 17371 bound_to 10713
  140.0377  134.6312  155.9021 LP  0  0  0  0  0  0  0  0  0  0  0  0  # atno 17394 bound_to 11000
  141.1877  133.6560  156.5292 LP  0  0  0  0  0  0  0  0  0  0  0  0  # atno 17395 bound_to 11000

$$$$
