AV-unprocessed.smi:65|AV-procd|sdf|611|dock1
  -GOLD-   2262016503D 1   1.00000     0.00000
 Structure written by MMmdl.
 26 27  0  0  0  0  0  0  0  0  2 V2000
  146.5578  137.8773  152.1393 N   0  0  0  0  0  0  0  0  0  0  0  0
  145.4700  137.0396  152.1993 C   0  0  0  0  0  0  0  0  0  0  0  0
  144.2587  137.5745  152.4117 N   0  3  0  0  0  0  0  0  0  0  0  0
  143.1726  136.7655  152.4745 C   0  0  0  0  0  0  0  0  0  0  0  0
  143.3137  135.3741  152.3210 C   0  0  0  0  0  0  0  0  0  0  0  0
  144.6141  134.8851  152.1065 C   0  0  0  0  0  0  0  0  0  0  0  0
  144.8194  133.5079  151.9322 N   0  0  0  0  0  0  0  0  0  0  0  0
  143.7238  132.8237  151.2493 C   0  0  0  0  0  0  0  0  0  0  0  0
  144.3245  132.1768  150.0001 C   0  0  0  0  0  0  0  0  0  0  0  0
  145.7635  131.9158  150.4267 C   0  0  1  0  0  0  0  0  0  0  0  0
  146.6413  131.7963  149.3280 O   0  0  0  0  0  0  0  0  0  0  0  0
  146.0785  133.1381  151.2885 C   0  0  0  0  0  0  0  0  0  0  0  0
  145.6717  135.7267  152.0422 N   0  0  0  0  0  0  0  0  0  0  0  0
  147.4822  137.5025  151.9803 H   0  0  0  0  0  0  0  0  0  0  0  0
  146.4524  138.8695  152.2936 H   0  0  0  0  0  0  0  0  0  0  0  0
  142.2266  137.2585  152.6445 H   0  0  0  0  0  0  0  0  0  0  0  0
  142.4600  134.7132  152.3657 H   0  0  0  0  0  0  0  0  0  0  0  0
  143.3346  132.0573  151.9203 H   0  0  0  0  0  0  0  0  0  0  0  0
  142.8950  133.4870  150.9961 H   0  0  0  0  0  0  0  0  0  0  0  0
  143.7964  131.2742  149.6910 H   0  0  0  0  0  0  0  0  0  0  0  0
  144.2975  132.8875  149.1723 H   0  0  0  0  0  0  0  0  0  0  0  0
  145.8109  131.0107  151.0340 H   0  0  0  0  0  0  0  0  0  0  0  0
  147.3416  131.2074  149.5647 H   0  0  0  0  0  0  0  0  0  0  0  0
  146.4580  133.9504  150.6668 H   0  0  0  0  0  0  0  0  0  0  0  0
  146.8428  132.9120  152.0324 H   0  0  0  0  0  0  0  0  0  0  0  0
  144.1425  138.5818  152.5262 H   0  0  0  0  0  0  0  0  0  0  0  0
  1  2  1  0  0  0  0
  1 14  1  0  0  0  0
  1 15  1  0  0  0  0
  2 13  1  0  0  0  0
  2  3  2  0  0  0  0
  3  4  1  0  0  0  0
  3 26  1  0  0  0  0
  4  5  2  0  0  0  0
  4 16  1  0  0  0  0
  5  6  1  0  0  0  0
  5 17  1  0  0  0  0
  6  7  1  0  0  0  0
  6 13  2  0  0  0  0
  7 12  1  0  0  0  0
  7  8  1  0  0  0  0
  8  9  1  0  0  0  0
  8 18  1  0  0  0  0
  8 19  1  0  0  0  0
  9 10  1  0  0  0  0
  9 20  1  0  0  0  0
  9 21  1  0  0  0  0
 10 11  1  0  0  0  0
 10 12  1  0  0  0  0
 10 22  1  0  0  0  0
 11 23  1  0  0  0  0
 12 24  1  0  0  0  0
 12 25  1  0  0  0  0
M  CHG  1   3   1
M  END
> <s_m_source_file>
AV-unprocessed.smi

> <i_m_source_file_index>
65

> <i_lp_mmshare_version>
43012

> <i_f3d_flags>
0

> <s_epik_input>
W05IMl1jMW5bY0hdW2NIXWMobjEpTjJbQ0gyXVtDSDJdW0NAQEhdKFtPSF0pW0NIMl0y

> <s_epik_cmdline>
J2VwaWtfcHl0aG9uJywgJy1waCcsICc3LjAnLCAnLXRuJywgJzgnLCAnLW1hJywgJzIwMCcsICctbWV0YWxfYmluZGluZycsICctaW1hZScsICc8aW5maWxlLm1hZT4nLCAnLW9tYWUnLCAnPG91dGZpbGUubWFlPic=

> <r_lp_tautomer_probability>
0.575011

> <r_epik_Ionization_Penalty>
0.212468

> <r_epik_Ionization_Penalty_Charging>
0.212464

> <r_epik_Ionization_Penalty_Neutral>
4.40197e-06

> <r_epik_State_Penalty>
0.43682

> <r_epik_Charging_Adjusted_Penalty>
0.649284

> <i_epik_Tot_Q>
1

> <i_epik_Tot_abs_Q>
1

> <r_epik_Metal_State_Penalty>
0.733762

> <b_epik_Metal_Only>
0

> <s_lp_Force_Field>
OPLS_2005

> <r_lp_Energy>
27.649

> <b_lp_Chiralities_Consistent>
1

> <s_lp_Variant>
AV-unprocessed.smi:65-1

> <Gold.Version>
5.8.1

> <Gold.Id.Protein>
6NUR|6NUR_protein|mol2

> <Gold.PLP.Fitness>
39.2323

> <Gold.PLP.PLP>
-25.4181

> <Gold.PLP.part.hbond>
-4.0000

> <Gold.PLP.part.metal>
0.0000

> <Gold.PLP.part.buried>
-5.2331

> <Gold.PLP.part.nonpolar>
-16.6893

> <Gold.PLP.part.repulsive>
0.3700

> <Gold.PLP.ligand.clash>
0.0000

> <Gold.PLP.ligand.torsion>
0.6186

> <Gold.PLP.Chemscore.Hbond>
5.0000

> <Gold.PLP.Chemscore.CHOScore>
0.0000

> <Gold.PLP.Chemscore.Metal>
0.0000

> <Gold.Chemscore.Hbonds>
donor molecule, donor type, donor heavy atom, donor atom, acceptor molecule, acceptor atom, score
      L1  H     1    14       P1  7948  2.00
      L1  H     3    26       P1 10175  2.00
      L1  H    11    23       P1 10747  1.00

> <Gold.PLP.Chemscore.Internal.Correction>
0.0515

> <Gold.Rescore>
     Score         DG    S(hbond)    S(metal)    S(lipo)     H(rot)  DE(clash)    DE(int)     intcor
     15.79     -16.52       2.96        0.00      43.94       1.56       0.00       0.72       ----

> <Gold.Chemscore.Fitness>
15.7934

> <Gold.Chemscore.DG>
-16.5151

> <Gold.Chemscore.ZeroCoef>
-5.4800

> <Gold.Chemscore.Hbond>
2.9633

> <Gold.Chemscore.Metal>
0.0000

> <Gold.Chemscore.Lipo>
43.9434

> <Gold.Chemscore.Internal_Hbond>
0.0000

> <Gold.Chemscore.DEClash>
0.0000

> <Gold.Chemscore.DEInternal>
0.7216

> <Gold.Chemscore.Rot>
1.5640

> <Gold.Chemscore.Internal.Correction>
   9.000000E+99

> <Gold.Chemscore.Hbonds>
donor molecule, donor type, donor heavy atom, donor atom, acceptor molecule, acceptor atom, score
      L1  H     1    14       P1  7948  0.99
      L1  H     3    26       P1 10175  1.00
      L1  H    11    23       P1 10747  0.97

> <Gold.Chemscore.Hbond.Weighted>
-9.8975

> <Gold.Chemscore.Metal.Weighted>
-0.0000

> <Gold.Chemscore.Lipo.Weighted>
-5.1414

> <Gold.Chemscore.Internal_Hbond.Weighted>
0.0000

> <Gold.Chemscore.DEClash.Weighted>
0.0000

> <Gold.Chemscore.DEInternal.Weighted>
0.7216

> <Gold.Chemscore.Rot.Weighted>
4.0038

> <Gold.Chemscore.Internal.Correction.Weighted>
   9.000000E+99

> <Gold.Protein.RotatedTorsions>
[ 6907 6896 6895 6894 ] final  -84.36 input  -60.11 | X-H torsion
[ 7974 7965 7964 7962 ] final  161.84 input  175.53 | X-H torsion
[ 8008 7997 7996 7995 ] final  156.08 input   59.86 | X-H torsion
[ 10167 10162 10161 10158 ] final -110.84 input  -65.29 | X-H torsion
[ 10718 10713 10712 10709 ] final  -71.64 input   66.30 | X-H torsion
[ 10763 10752 10751 10750 ] final  156.23 input  -60.55 | X-H torsion
[ 11005 11000 10999 10996 ] final -110.40 input  -57.11 | X-H torsion

> <Gold.Protein.ActiveResidues>
 VAL166  LYS551  ARG553  GLY616  TRP617  ASP618  TYR619  PRO620  LYS621  CYS622 
 ASP623  PHE694  ASN695  SER759  ASP760  ASP761  ALA762  ILE779  LEU786  VAL792 
 PHE793  MET794  SER795  GLU796  ALA797  LYS798  CYS799  TRP800  GLU811  SER814 

> <Gold.Protein.RotatedAtoms>
  150.6877  134.3371  159.4851 H   0  0  0  0  0  0  0  0  0  0  0  0  # atno 6907 bound_to 6896
  152.1228  134.9190  160.0571 H   0  0  0  0  0  0  0  0  0  0  0  0  # atno 6908 bound_to 6896
  152.0389  133.3934  159.4365 H   0  0  0  0  0  0  0  0  0  0  0  0  # atno 6909 bound_to 6896
  144.7665  139.7955  143.6313 H   0  0  0  0  0  0  0  0  0  0  0  0  # atno 7974 bound_to 7965
  156.2442  140.1922  156.6901 H   0  0  0  0  0  0  0  0  0  0  0  0  # atno 8008 bound_to 7997
  154.6258  140.0602  156.9698 H   0  0  0  0  0  0  0  0  0  0  0  0  # atno 8009 bound_to 7997
  155.1789  140.3274  155.4381 H   0  0  0  0  0  0  0  0  0  0  0  0  # atno 8010 bound_to 7997
  140.1401  143.4286  152.1568 H   0  0  0  0  0  0  0  0  0  0  0  0  # atno 10167 bound_to 10162
  156.0354  130.4355  150.2474 H   0  0  0  0  0  0  0  0  0  0  0  0  # atno 10718 bound_to 10713
  154.1811  135.2799  155.3052 H   0  0  0  0  0  0  0  0  0  0  0  0  # atno 10763 bound_to 10752
  154.6002  135.5532  153.7370 H   0  0  0  0  0  0  0  0  0  0  0  0  # atno 10764 bound_to 10752
  153.0138  135.6390  154.1950 H   0  0  0  0  0  0  0  0  0  0  0  0  # atno 10765 bound_to 10752
  141.0793  133.9247  157.2322 H   0  0  0  0  0  0  0  0  0  0  0  0  # atno 11005 bound_to 11000
  146.1778  139.4956  142.9886 LP  0  0  0  0  0  0  0  0  0  0  0  0  # atno 17320 bound_to 7965
  145.6453  141.0275  143.1790 LP  0  0  0  0  0  0  0  0  0  0  0  0  # atno 17321 bound_to 7965
  139.5476  144.7311  151.4535 LP  0  0  0  0  0  0  0  0  0  0  0  0  # atno 17342 bound_to 10162
  140.6765  143.8177  150.7065 LP  0  0  0  0  0  0  0  0  0  0  0  0  # atno 17343 bound_to 10162
  157.0573  131.0080  151.3234 LP  0  0  0  0  0  0  0  0  0  0  0  0  # atno 17370 bound_to 10713
  157.5096  130.7930  149.7691 LP  0  0  0  0  0  0  0  0  0  0  0  0  # atno 17371 bound_to 10713
  139.9607  135.0155  156.9252 LP  0  0  0  0  0  0  0  0  0  0  0  0  # atno 17394 bound_to 11000
  140.5503  134.0634  155.7367 LP  0  0  0  0  0  0  0  0  0  0  0  0  # atno 17395 bound_to 11000

$$$$
