AV-unprocessed.smi:2867|AV-procd|sdf|11023|dock3
  -GOLD-   2272015483D 1   1.00000     0.00000
 Structure written by MMmdl.
 40 42  0  0  0  0  0  0  0  0  1 V2000
  147.4475  142.0940  154.6634 C   0  0  0  0  0  0  0  0  0  0  0  0
  148.5744  141.8075  155.4730 O   0  0  0  0  0  0  0  0  0  0  0  0
  149.6320  141.2184  154.7374 C   0  0  0  0  0  0  0  0  0  0  0  0
  150.8899  141.1879  155.6130 C   0  0  0  0  0  0  0  0  0  0  0  0
  150.9165  140.0063  156.4599 N   0  0  0  0  0  0  0  0  0  0  0  0
  151.1977  139.9428  157.7864 C   0  0  0  0  0  0  0  0  0  0  0  0
  151.5442  141.0975  158.6026 C   0  0  0  0  0  0  0  0  0  0  0  0
  150.9149  142.3410  158.3831 C   0  0  0  0  0  0  0  0  0  0  0  0
  151.2532  143.4534  159.1783 C   0  0  0  0  0  0  0  0  0  0  0  0
  152.2237  143.3265  160.1911 C   0  0  0  0  0  0  0  0  0  0  0  0
  152.8581  142.0876  160.4077 C   0  0  0  0  0  0  0  0  0  0  0  0
  153.7922  141.9662  161.3804 F   0  0  0  0  0  0  0  0  0  0  0  0
  152.5204  140.9748  159.6134 C   0  0  0  0  0  0  0  0  0  0  0  0
  151.1174  138.7227  158.3218 N   0  0  0  0  0  0  0  0  0  0  0  0
  150.7545  137.9309  157.2505 C   0  0  0  0  0  0  0  0  0  0  0  0
  150.5076  136.5417  157.1773 C   0  0  0  0  0  0  0  0  0  0  0  0
  150.1340  135.9559  155.9492 C   0  0  0  0  0  0  0  0  0  0  0  0
  149.8216  134.1968  155.8756 S   0  0  0  0  0  0  0  0  0  0  0  0
  148.1071  134.1381  155.9920 N   0  0  0  0  0  0  0  0  0  0  0  0
  150.1978  133.6917  154.5461 O   0  0  0  0  0  0  0  0  0  0  0  0
  150.3663  133.5823  157.0961 O   0  0  0  0  0  0  0  0  0  0  0  0
  150.0019  136.7377  154.7823 C   0  0  0  0  0  0  0  0  0  0  0  0
  150.2454  138.1233  154.8398 C   0  0  0  0  0  0  0  0  0  0  0  0
  150.6187  138.7066  156.0659 C   0  0  0  0  0  0  0  0  0  0  0  0
  146.6607  142.5367  155.2740 H   0  0  0  0  0  0  0  0  0  0  0  0
  147.0487  141.1872  154.2063 H   0  0  0  0  0  0  0  0  0  0  0  0
  147.7000  142.8026  153.8733 H   0  0  0  0  0  0  0  0  0  0  0  0
  149.3576  140.2057  154.4372 H   0  0  0  0  0  0  0  0  0  0  0  0
  149.8214  141.7928  153.8288 H   0  0  0  0  0  0  0  0  0  0  0  0
  151.7838  141.1934  154.9888 H   0  0  0  0  0  0  0  0  0  0  0  0
  150.9450  142.0816  156.2340 H   0  0  0  0  0  0  0  0  0  0  0  0
  150.1704  142.4433  157.6069 H   0  0  0  0  0  0  0  0  0  0  0  0
  150.7685  144.4040  159.0114 H   0  0  0  0  0  0  0  0  0  0  0  0
  152.4826  144.1796  160.8006 H   0  0  0  0  0  0  0  0  0  0  0  0
  153.0081  140.0258  159.7838 H   0  0  0  0  0  0  0  0  0  0  0  0
  150.6027  135.9344  158.0651 H   0  0  0  0  0  0  0  0  0  0  0  0
  147.6676  134.4055  155.1117 H   0  0  0  0  0  0  0  0  0  0  0  0
  147.7701  134.7144  156.7628 H   0  0  0  0  0  0  0  0  0  0  0  0
  149.7119  136.2822  153.8467 H   0  0  0  0  0  0  0  0  0  0  0  0
  150.1435  138.7300  153.9523 H   0  0  0  0  0  0  0  0  0  0  0  0
  1  2  1  0  0  0  0
  1 25  1  0  0  0  0
  1 26  1  0  0  0  0
  1 27  1  0  0  0  0
  2  3  1  0  0  0  0
  3  4  1  0  0  0  0
  3 28  1  0  0  0  0
  3 29  1  0  0  0  0
  4  5  1  0  0  0  0
  4 30  1  0  0  0  0
  4 31  1  0  0  0  0
  5 24  1  0  0  0  0
  5  6  1  0  0  0  0
  6  7  1  0  0  0  0
  6 14  2  0  0  0  0
  7 13  1  0  0  0  0
  7  8  2  0  0  0  0
  8  9  1  0  0  0  0
  8 32  1  0  0  0  0
  9 10  2  0  0  0  0
  9 33  1  0  0  0  0
 10 11  1  0  0  0  0
 10 34  1  0  0  0  0
 11 12  1  0  0  0  0
 11 13  2  0  0  0  0
 13 35  1  0  0  0  0
 14 15  1  0  0  0  0
 15 24  2  0  0  0  0
 15 16  1  0  0  0  0
 16 17  2  0  0  0  0
 16 36  1  0  0  0  0
 17 18  1  0  0  0  0
 17 22  1  0  0  0  0
 18 19  1  0  0  0  0
 18 20  2  0  0  0  0
 18 21  2  0  0  0  0
 19 37  1  0  0  0  0
 19 38  1  0  0  0  0
 22 23  2  0  0  0  0
 22 39  1  0  0  0  0
 23 24  1  0  0  0  0
 23 40  1  0  0  0  0
M  END
> <s_m_source_file>
AV-unprocessed.smi

> <i_m_source_file_index>
2867

> <i_lp_mmshare_version>
43012

> <i_f3d_flags>
0

> <s_epik_input>
W05IMl1TKD1PKSg9TyljKFtjSF0xKVtjSF1bY0hdYyhjMTIpbihbQ0gyXVtDSDJdT1tDSDNdKWMobjIpLWMzW2NIXVtjSF1bY0hdYyhGKVtjSF0z

> <s_epik_cmdline>
J2VwaWtfcHl0aG9uJywgJy1waCcsICc3LjAnLCAnLXRuJywgJzgnLCAnLW1hJywgJzIwMCcsICctbWV0YWxfYmluZGluZycsICctaW1hZScsICc8aW5maWxlLm1hZT4nLCAnLW9tYWUnLCAnPG91dGZpbGUubWFlPic=

> <r_epik_Ionization_Penalty>
0.0786023

> <r_epik_Ionization_Penalty_Charging>
0

> <r_epik_Ionization_Penalty_Neutral>
0.0786023

> <r_epik_State_Penalty>
0.0592545

> <r_epik_Charging_Adjusted_Penalty>
0.0592545

> <i_epik_Tot_Q>
0

> <i_epik_Tot_abs_Q>
0

> <r_epik_Metal_State_Penalty>
0.300641

> <b_epik_Metal_Only>
0

> <s_lp_Force_Field>
OPLS_2005

> <r_lp_Energy>
19.4946

> <b_lp_Chiralities_Consistent>
1

> <s_lp_Variant>
AV-unprocessed.smi:2867-1

> <Gold.Version>
5.8.1

> <Gold.Id.Protein>
6NUR|6NUR_protein|mol2

> <Gold.PLP.Fitness>
40.1418

> <Gold.PLP.PLP>
-37.9168

> <Gold.PLP.part.hbond>
-1.0000

> <Gold.PLP.part.metal>
0.0000

> <Gold.PLP.part.buried>
-3.5550

> <Gold.PLP.part.nonpolar>
-33.0748

> <Gold.PLP.part.repulsive>
0.5482

> <Gold.PLP.ligand.clash>
0.0000

> <Gold.PLP.ligand.torsion>
1.9050

> <Gold.PLP.Chemscore.Hbond>
1.0000

> <Gold.PLP.Chemscore.CHOScore>
0.0000

> <Gold.PLP.Chemscore.Metal>
0.0000

> <Gold.Chemscore.Hbonds>
donor molecule, donor type, donor heavy atom, donor atom, acceptor molecule, acceptor atom, score
      P1  H  6896  6909       L1    21  0.52

> <Gold.PLP.Chemscore.Internal.Correction>
3.0349

> <Gold.Rescore>
     Score         DG    S(hbond)    S(metal)    S(lipo)     H(rot)  DE(clash)    DE(int)     intcor
     13.61     -15.93       0.99        0.00      92.73       1.45       0.20       2.12       ----

> <Gold.Chemscore.Fitness>
13.6133

> <Gold.Chemscore.DG>
-15.9287

> <Gold.Chemscore.ZeroCoef>
-5.4800

> <Gold.Chemscore.Hbond>
0.9936

> <Gold.Chemscore.Metal>
0.0000

> <Gold.Chemscore.Lipo>
92.7332

> <Gold.Chemscore.Internal_Hbond>
0.0000

> <Gold.Chemscore.DEClash>
0.1974

> <Gold.Chemscore.DEInternal>
2.1179

> <Gold.Chemscore.Rot>
1.4530

> <Gold.Chemscore.Internal.Correction>
   9.000000E+99

> <Gold.Chemscore.Hbonds>
donor molecule, donor type, donor heavy atom, donor atom, acceptor molecule, acceptor atom, score
      P1  H  6896  6909       L1    21  0.51

> <Gold.Chemscore.Hbond.Weighted>
-3.3185

> <Gold.Chemscore.Metal.Weighted>
-0.0000

> <Gold.Chemscore.Lipo.Weighted>
-10.8498

> <Gold.Chemscore.Internal_Hbond.Weighted>
0.0000

> <Gold.Chemscore.DEClash.Weighted>
0.1974

> <Gold.Chemscore.DEInternal.Weighted>
2.1179

> <Gold.Chemscore.Rot.Weighted>
3.7196

> <Gold.Chemscore.Internal.Correction.Weighted>
   9.000000E+99

> <Gold.Protein.RotatedTorsions>
[ 6907 6896 6895 6894 ] final   -6.24 input  -60.11 | X-H torsion
[ 7974 7965 7964 7962 ] final -112.42 input  175.53 | X-H torsion
[ 8008 7997 7996 7995 ] final -112.29 input   59.86 | X-H torsion
[ 10167 10162 10161 10158 ] final -121.79 input  -65.29 | X-H torsion
[ 10718 10713 10712 10709 ] final  -20.79 input   66.30 | X-H torsion
[ 10763 10752 10751 10750 ] final -155.01 input  -60.55 | X-H torsion
[ 11005 11000 10999 10996 ] final   57.07 input  -57.11 | X-H torsion

> <Gold.Protein.ActiveResidues>
 VAL166  LYS551  ARG553  GLY616  TRP617  ASP618  TYR619  PRO620  LYS621  CYS622 
 ASP623  PHE694  ASN695  SER759  ASP760  ASP761  ALA762  ILE779  LEU786  VAL792 
 PHE793  MET794  SER795  GLU796  ALA797  LYS798  CYS799  TRP800  GLU811  SER814 

> <Gold.Protein.RotatedAtoms>
  151.4687  135.1044  159.9745 H   0  0  0  0  0  0  0  0  0  0  0  0  # atno 6907 bound_to 6896
  152.4825  133.8285  159.7101 H   0  0  0  0  0  0  0  0  0  0  0  0  # atno 6908 bound_to 6896
  150.8907  133.7186  159.2932 H   0  0  0  0  0  0  0  0  0  0  0  0  # atno 6909 bound_to 6896
  145.1442  140.8794  143.3684 H   0  0  0  0  0  0  0  0  0  0  0  0  # atno 7974 bound_to 7965
  155.0029  140.0394  157.2367 H   0  0  0  0  0  0  0  0  0  0  0  0  # atno 8008 bound_to 7997
  154.7528  140.2770  155.6256 H   0  0  0  0  0  0  0  0  0  0  0  0  # atno 8009 bound_to 7997
  156.2888  140.2643  156.2286 H   0  0  0  0  0  0  0  0  0  0  0  0  # atno 8010 bound_to 7997
  140.0213  143.5341  152.2219 H   0  0  0  0  0  0  0  0  0  0  0  0  # atno 10167 bound_to 10162
  156.5270  130.4646  149.6567 H   0  0  0  0  0  0  0  0  0  0  0  0  # atno 10718 bound_to 10713
  154.7818  135.3177  154.7974 H   0  0  0  0  0  0  0  0  0  0  0  0  # atno 10763 bound_to 10752
  153.8683  135.6846  153.4781 H   0  0  0  0  0  0  0  0  0  0  0  0  # atno 10764 bound_to 10752
  153.1456  135.4720  154.9499 H   0  0  0  0  0  0  0  0  0  0  0  0  # atno 10765 bound_to 10752
  140.0480  134.5777  155.9298 H   0  0  0  0  0  0  0  0  0  0  0  0  # atno 11005 bound_to 11000
  145.0499  139.3190  143.5933 LP  0  0  0  0  0  0  0  0  0  0  0  0  # atno 17320 bound_to 7965
  146.3502  139.9904  142.8686 LP  0  0  0  0  0  0  0  0  0  0  0  0  # atno 17321 bound_to 7965
  139.6138  144.7615  151.2892 LP  0  0  0  0  0  0  0  0  0  0  0  0  # atno 17342 bound_to 10162
  140.7341  143.6775  150.8029 LP  0  0  0  0  0  0  0  0  0  0  0  0  # atno 17343 bound_to 10162
  156.3095  130.7221  151.2111 LP  0  0  0  0  0  0  0  0  0  0  0  0  # atno 17370 bound_to 10713
  157.7428  131.0485  150.4998 LP  0  0  0  0  0  0  0  0  0  0  0  0  # atno 17371 bound_to 10713
  141.1917  133.6572  156.5466 LP  0  0  0  0  0  0  0  0  0  0  0  0  # atno 17394 bound_to 11000
  140.3962  134.7397  157.4752 LP  0  0  0  0  0  0  0  0  0  0  0  0  # atno 17395 bound_to 11000

$$$$
