AV-unprocessed.smi:54|AV-procd|sdf|549|dock4
  -GOLD-   2262016443D 1   1.00000     0.00000
 Structure written by MMmdl.
 43 45  0  0  0  0  0  0  0  0  2 V2000
  152.4795  143.5264  161.4907 C   0  0  0  0  0  0  0  0  0  0  0  0
  152.6623  143.4052  159.9685 C   0  0  0  0  0  0  0  0  0  0  0  0
  151.5437  144.1397  159.2114 C   0  0  0  0  0  0  0  0  0  0  0  0
  152.7292  141.9312  159.5435 C   0  0  0  0  0  0  0  0  0  0  0  0
  153.0954  141.0863  160.3634 O   0  0  0  0  0  0  0  0  0  0  0  0
  152.3544  141.6800  158.2697 N   0  0  0  0  0  0  0  0  0  0  0  0
  152.3009  140.4558  157.5944 C   0  0  0  0  0  0  0  0  0  0  0  0
  151.4817  140.4655  156.5710 N   0  0  0  0  0  0  0  0  0  0  0  0
  151.4610  139.2616  155.8923 C   0  0  0  0  0  0  0  0  0  0  0  0
  152.1726  138.1292  156.1807 C   0  0  0  0  0  0  0  0  0  0  0  0
  151.8670  137.0991  155.3009 N   0  0  0  0  0  0  0  0  0  0  0  0
  150.9659  137.6723  154.5060 C   0  0  0  0  0  0  0  0  0  0  0  0
  150.6936  138.9684  154.7675 N   0  0  0  0  0  0  0  0  0  0  0  0
  149.6972  139.8553  154.0765 C   0  0  2  0  0  0  0  0  0  0  0  0
  149.5914  141.0536  154.7926 O   0  0  0  0  0  0  0  0  0  0  0  0
  148.4153  141.0603  155.5961 C   0  0  2  0  0  0  0  0  0  0  0  0
  148.7228  140.4725  156.9921 C   0  0  0  0  0  0  0  0  0  0  0  0
  147.5622  140.4563  157.7977 O   0  0  0  0  0  0  0  0  0  0  0  0
  147.4248  140.2723  154.7286 C   0  0  2  0  0  0  0  0  0  0  0  0
  146.3796  139.6842  155.4775 O   0  0  0  0  0  0  0  0  0  0  0  0
  148.2934  139.2157  154.0544 C   0  0  1  0  0  0  0  0  0  0  0  0
  147.8412  138.9989  152.7326 O   0  0  0  0  0  0  0  0  0  0  0  0
  153.0861  138.1884  157.3458 C   0  0  0  0  0  0  0  0  0  0  0  0
  153.7463  137.1937  157.6399 O   0  0  0  0  0  0  0  0  0  0  0  0
  153.1137  139.3822  158.0097 N   0  5  0  0  0  0  0  0  0  0  0  0
  150.1340  140.0264  153.0918 H   0  0  0  0  0  0  0  0  0  0  0  0
  148.0896  142.0950  155.7107 H   0  0  0  0  0  0  0  0  0  0  0  0
  147.0001  140.9495  153.9856 H   0  0  0  0  0  0  0  0  0  0  0  0
  148.2886  138.2847  154.6234 H   0  0  0  0  0  0  0  0  0  0  0  0
  153.2636  142.9914  162.0279 H   0  0  0  0  0  0  0  0  0  0  0  0
  151.5192  143.1224  161.8135 H   0  0  0  0  0  0  0  0  0  0  0  0
  152.5210  144.5692  161.8060 H   0  0  0  0  0  0  0  0  0  0  0  0
  153.6092  143.8814  159.7087 H   0  0  0  0  0  0  0  0  0  0  0  0
  151.6667  144.0443  158.1316 H   0  0  0  0  0  0  0  0  0  0  0  0
  151.5480  145.2039  159.4480 H   0  0  0  0  0  0  0  0  0  0  0  0
  150.5592  143.7482  159.4705 H   0  0  0  0  0  0  0  0  0  0  0  0
  152.0036  142.4806  157.7650 H   0  0  0  0  0  0  0  0  0  0  0  0
  150.4877  137.1246  153.7077 H   0  0  0  0  0  0  0  0  0  0  0  0
  149.1443  139.4691  156.9258 H   0  0  0  0  0  0  0  0  0  0  0  0
  149.4553  141.0968  157.5033 H   0  0  0  0  0  0  0  0  0  0  0  0
  147.0253  139.7245  157.5341 H   0  0  0  0  0  0  0  0  0  0  0  0
  146.5762  139.7866  156.3962 H   0  0  0  0  0  0  0  0  0  0  0  0
  148.5551  139.1753  152.1396 H   0  0  0  0  0  0  0  0  0  0  0  0
  1  2  1  0  0  0  0
  1 30  1  0  0  0  0
  1 31  1  0  0  0  0
  1 32  1  0  0  0  0
  2  3  1  0  0  0  0
  2  4  1  0  0  0  0
  2 33  1  0  0  0  0
  3 34  1  0  0  0  0
  3 35  1  0  0  0  0
  3 36  1  0  0  0  0
  4  5  2  0  0  0  0
  4  6  1  0  0  0  0
  6 37  1  0  0  0  0
  6  7  1  0  0  0  0
  7 25  1  0  0  0  0
  7  8  2  0  0  0  0
  8  9  1  0  0  0  0
  9 13  1  0  0  0  0
  9 10  2  0  0  0  0
 10 11  1  0  0  0  0
 10 23  1  0  0  0  0
 11 12  2  0  0  0  0
 12 13  1  0  0  0  0
 12 38  1  0  0  0  0
 13 14  1  0  0  0  0
 14 26  1  0  0  0  0
 14 21  1  0  0  0  0
 14 15  1  0  0  0  0
 15 16  1  0  0  0  0
 16 27  1  0  0  0  0
 16 17  1  0  0  0  0
 16 19  1  0  0  0  0
 17 18  1  0  0  0  0
 17 39  1  0  0  0  0
 17 40  1  0  0  0  0
 18 41  1  0  0  0  0
 19 28  1  0  0  0  0
 19 20  1  0  0  0  0
 19 21  1  0  0  0  0
 20 42  1  0  0  0  0
 21 29  1  0  0  0  0
 21 22  1  0  0  0  0
 22 43  1  0  0  0  0
 23 24  2  0  0  0  0
 23 25  1  0  0  0  0
M  CHG  1  25  -1
M  END
> <s_m_source_file>
AV-unprocessed.smi

> <i_m_source_file_index>
54

> <i_lp_mmshare_version>
43012

> <i_f3d_flags>
0

> <s_epik_input>
W0NIM11bQ0hdKFtDSDNdKUMoPU8pW05IXWMobjEpW25IXWMoPU8pYyhjMTIpbltjSF1uMltDQEBIXTNPW0NASF0oW0NIMl1bT0hdKVtDQEBIXShbT0hdKVtDQEhdM1tPSF0=

> <s_epik_cmdline>
J2VwaWtfcHl0aG9uJywgJy1waCcsICc3LjAnLCAnLXRuJywgJzgnLCAnLW1hJywgJzIwMCcsICctbWV0YWxfYmluZGluZycsICctaW1hZScsICc8aW5maWxlLm1hZT4nLCAnLW9tYWUnLCAnPG91dGZpbGUubWFlPic=

> <r_lp_tautomer_probability>
0.85571

> <r_epik_Ionization_Penalty>
1.75936

> <r_epik_Ionization_Penalty_Charging>
4.55893e-11

> <r_epik_Ionization_Penalty_Neutral>
1.75936

> <r_epik_State_Penalty>
1.72072

> <r_epik_Charging_Adjusted_Penalty>
1.72072

> <i_epik_Tot_Q>
-1

> <i_epik_Tot_abs_Q>
1

> <r_epik_Metal_State_Penalty>
0.400338

> <b_epik_Metal_Only>
1

> <s_epik_Chemistry_Notes>
This compound contains an acetal/aminal-like group ( X-CH(R)-Y where X, Y are N, S, or O) that may be acid/base labile, releasing an aldehyde.

> <s_lp_Force_Field>
OPLS_2005

> <r_lp_Energy>
58.7514

> <b_lp_Chiralities_Consistent>
1

> <s_lp_Variant>
AV-unprocessed.smi:54-21

> <Gold.Version>
5.8.1

> <Gold.Id.Protein>
6NUR|6NUR_protein|mol2

> <Gold.PLP.Fitness>
49.9030

> <Gold.PLP.PLP>
-37.9596

> <Gold.PLP.part.hbond>
-4.7209

> <Gold.PLP.part.metal>
0.0000

> <Gold.PLP.part.buried>
-2.5471

> <Gold.PLP.part.nonpolar>
-30.3816

> <Gold.PLP.part.repulsive>
0.2830

> <Gold.PLP.ligand.clash>
0.0000

> <Gold.PLP.ligand.torsion>
0.9145

> <Gold.PLP.Chemscore.Hbond>
3.4136

> <Gold.PLP.Chemscore.CHOScore>
1.1461

> <Gold.PLP.Chemscore.Metal>
0.0000

> <Gold.Chemscore.Hbonds>
donor molecule, donor type, donor heavy atom, donor atom, acceptor molecule, acceptor atom, score
      L1  H    22    43       P1  7957  1.00
      P1  H  7997  8008       L1    25  1.36
      P1  H 10752 10765       L1    11  1.00
      L1  C    12    38       P1  7948  0.68
      L1  C    12    38       P1  7949  0.45

> <Gold.PLP.Chemscore.Internal.Correction>
0.0933

> <Gold.Rescore>
     Score         DG    S(hbond)    S(metal)    S(lipo)     H(rot)  DE(clash)    DE(int)     intcor
      2.97      -8.30       1.93        0.00      56.96       4.02       0.40       4.93       ----

> <Gold.Chemscore.Fitness>
2.9737

> <Gold.Chemscore.DG>
-8.3046

> <Gold.Chemscore.ZeroCoef>
-5.4800

> <Gold.Chemscore.Hbond>
1.9308

> <Gold.Chemscore.Metal>
0.0000

> <Gold.Chemscore.Lipo>
56.9649

> <Gold.Chemscore.Internal_Hbond>
0.0000

> <Gold.Chemscore.DEClash>
0.3991

> <Gold.Chemscore.DEInternal>
4.9318

> <Gold.Chemscore.Rot>
4.0192

> <Gold.Chemscore.Internal.Correction>
   9.000000E+99

> <Gold.Chemscore.Hbonds>
donor molecule, donor type, donor heavy atom, donor atom, acceptor molecule, acceptor atom, score
      L1  H    22    43       P1  7957  0.99
      P1  H  7997  8008       L1    25  0.02
      P1  H 10752 10765       L1    11  0.93

> <Gold.Chemscore.Hbond.Weighted>
-6.4490

> <Gold.Chemscore.Metal.Weighted>
-0.0000

> <Gold.Chemscore.Lipo.Weighted>
-6.6649

> <Gold.Chemscore.Internal_Hbond.Weighted>
0.0000

> <Gold.Chemscore.DEClash.Weighted>
0.3991

> <Gold.Chemscore.DEInternal.Weighted>
4.9318

> <Gold.Chemscore.Rot.Weighted>
10.2893

> <Gold.Chemscore.Internal.Correction.Weighted>
   9.000000E+99

> <Gold.Protein.RotatedTorsions>
[ 6907 6896 6895 6894 ] final  129.55 input  -60.11 | X-H torsion
[ 7974 7965 7964 7962 ] final    0.65 input  175.53 | X-H torsion
[ 8008 7997 7996 7995 ] final -101.90 input   59.86 | X-H torsion
[ 10167 10162 10161 10158 ] final -147.96 input  -65.29 | X-H torsion
[ 10718 10713 10712 10709 ] final   90.03 input   66.30 | X-H torsion
[ 10763 10752 10751 10750 ] final -174.70 input  -60.55 | X-H torsion
[ 11005 11000 10999 10996 ] final  132.11 input  -57.11 | X-H torsion

> <Gold.Protein.ActiveResidues>
 VAL166  LYS551  ARG553  GLY616  TRP617  ASP618  TYR619  PRO620  LYS621  CYS622 
 ASP623  PHE694  ASN695  SER759  ASP760  ASP761  ALA762  ILE779  LEU786  VAL792 
 PHE793  MET794  SER795  GLU796  ALA797  LYS798  CYS799  TRP800  GLU811  SER814 

> <Gold.Protein.RotatedAtoms>
  152.3613  133.6300  159.6016 H   0  0  0  0  0  0  0  0  0  0  0  0  # atno 6907 bound_to 6896
  150.7603  133.9419  159.3467 H   0  0  0  0  0  0  0  0  0  0  0  0  # atno 6908 bound_to 6896
  151.7256  135.0886  160.0343 H   0  0  0  0  0  0  0  0  0  0  0  0  # atno 6909 bound_to 6896
  146.2436  140.1106  142.8344 H   0  0  0  0  0  0  0  0  0  0  0  0  # atno 7974 bound_to 7965
  154.8491  140.0431  157.1592 H   0  0  0  0  0  0  0  0  0  0  0  0  # atno 8008 bound_to 7997
  154.8962  140.2993  155.5322 H   0  0  0  0  0  0  0  0  0  0  0  0  # atno 8009 bound_to 7997
  156.2995  140.2384  156.3984 H   0  0  0  0  0  0  0  0  0  0  0  0  # atno 8010 bound_to 7997
  139.7575  143.8426  152.2600 H   0  0  0  0  0  0  0  0  0  0  0  0  # atno 10167 bound_to 10162
  157.6957  131.0355  150.3516 H   0  0  0  0  0  0  0  0  0  0  0  0  # atno 10718 bound_to 10713
  154.5931  135.2847  155.0615 H   0  0  0  0  0  0  0  0  0  0  0  0  # atno 10763 bound_to 10752
  154.1908  135.6441  153.5063 H   0  0  0  0  0  0  0  0  0  0  0  0  # atno 10764 bound_to 10752
  153.0128  135.5446  154.6623 H   0  0  0  0  0  0  0  0  0  0  0  0  # atno 10765 bound_to 10752
  139.9770  134.9560  156.9534 H   0  0  0  0  0  0  0  0  0  0  0  0  # atno 11005 bound_to 11000
  145.0491  140.9004  143.5006 LP  0  0  0  0  0  0  0  0  0  0  0  0  # atno 17320 bound_to 7965
  145.1200  139.2700  143.5593 LP  0  0  0  0  0  0  0  0  0  0  0  0  # atno 17321 bound_to 7965
  139.8423  144.7204  150.9316 LP  0  0  0  0  0  0  0  0  0  0  0  0  # atno 17342 bound_to 10162
  140.7804  143.3972  151.1209 LP  0  0  0  0  0  0  0  0  0  0  0  0  # atno 17343 bound_to 10162
  156.3963  130.3907  149.6992 LP  0  0  0  0  0  0  0  0  0  0  0  0  # atno 17370 bound_to 10713
  156.4325  130.7822  151.2842 LP  0  0  0  0  0  0  0  0  0  0  0  0  # atno 17371 bound_to 10713
  140.5174  134.0941  155.7284 LP  0  0  0  0  0  0  0  0  0  0  0  0  # atno 17394 bound_to 11000
  141.1446  133.9078  157.2245 LP  0  0  0  0  0  0  0  0  0  0  0  0  # atno 17395 bound_to 11000

$$$$
