AV-unprocessed.smi:1701|AV-procd|sdf|6834|dock5
  -GOLD-   22720 8 13D 1   1.00000     0.00000
 Structure written by MMmdl.
 54 56  0  0  0  0  0  0  0  0  2 V2000
  152.8791  142.7391  161.8296 C   0  0  0  0  0  0  0  0  0  0  0  0
  153.3832  142.3070  160.4477 C   0  0  0  0  0  0  0  0  0  0  0  0
  152.5944  142.9022  159.3712 N   0  0  0  0  0  0  0  0  0  0  0  0
  152.4086  144.3540  159.3776 C   0  0  0  0  0  0  0  0  0  0  0  0
  152.3716  144.9576  157.9651 C   0  0  0  0  0  0  0  0  0  0  0  0
  151.6328  142.0739  158.7515 C   0  0  0  0  0  0  0  0  0  0  0  0
  151.6837  140.6704  158.9220 C   0  0  0  0  0  0  0  0  0  0  0  0
  150.7116  139.8633  158.3003 C   0  0  0  0  0  0  0  0  0  0  0  0
  149.7090  140.4809  157.5157 C   0  0  0  0  0  0  0  0  0  0  0  0
  148.6586  139.7978  156.8435 N   0  0  0  0  0  0  0  0  0  0  0  0
  148.0709  140.0707  155.6616 C   0  0  0  0  0  0  0  0  0  0  0  0
  148.3338  141.0345  154.9473 O   0  0  0  0  0  0  0  0  0  0  0  0
  147.1226  139.1857  155.3060 N   0  0  0  0  0  0  0  0  0  0  0  0
  146.2992  139.1871  154.0959 C   0  0  1  0  0  0  0  0  0  0  0  0
  147.1073  139.0907  152.7864 C   0  0  0  0  0  0  0  0  0  0  0  0
  146.2887  138.1630  151.8667 C   0  0  0  0  0  0  0  0  0  0  0  0
  145.0425  137.8849  152.6052 N   0  3  1  0  0  0  0  0  0  0  0  0
  144.3102  136.6483  152.2554 C   0  0  0  0  0  0  0  0  0  0  0  0
  143.0056  136.5827  153.0752 C   0  0  0  0  0  0  0  0  0  0  0  0
  143.2697  136.7365  154.5876 C   0  0  0  0  0  0  0  0  0  0  0  0
  144.1169  137.9901  154.8803 C   0  0  0  0  0  0  0  0  0  0  0  0
  145.3976  137.9550  154.0306 C   0  0  2  0  0  0  0  0  0  0  0  0
  149.7416  141.8854  157.4070 C   0  0  0  0  0  0  0  0  0  0  0  0
  150.6706  142.6620  158.0009 N   0  0  0  0  0  0  0  0  0  0  0  0
  153.4719  142.2756  162.6180 H   0  0  0  0  0  0  0  0  0  0  0  0
  151.8391  142.4500  161.9833 H   0  0  0  0  0  0  0  0  0  0  0  0
  152.9483  143.8202  161.9523 H   0  0  0  0  0  0  0  0  0  0  0  0
  154.4426  142.5447  160.3499 H   0  0  0  0  0  0  0  0  0  0  0  0
  153.3187  141.2217  160.3639 H   0  0  0  0  0  0  0  0  0  0  0  0
  151.4972  144.6062  159.9205 H   0  0  0  0  0  0  0  0  0  0  0  0
  153.2256  144.8144  159.9341 H   0  0  0  0  0  0  0  0  0  0  0  0
  152.2788  146.0423  158.0142 H   0  0  0  0  0  0  0  0  0  0  0  0
  151.5308  144.5841  157.3809 H   0  0  0  0  0  0  0  0  0  0  0  0
  153.2864  144.7288  157.4179 H   0  0  0  0  0  0  0  0  0  0  0  0
  152.4595  140.2079  159.5150 H   0  0  0  0  0  0  0  0  0  0  0  0
  150.7602  138.7966  158.4486 H   0  0  0  0  0  0  0  0  0  0  0  0
  148.2966  138.9927  157.3324 H   0  0  0  0  0  0  0  0  0  0  0  0
  146.9491  138.4327  155.9567 H   0  0  0  0  0  0  0  0  0  0  0  0
  145.6689  140.0786  154.0678 H   0  0  0  0  0  0  0  0  0  0  0  0
  147.2502  140.0767  152.3428 H   0  0  0  0  0  0  0  0  0  0  0  0
  148.0965  138.6632  152.9572 H   0  0  0  0  0  0  0  0  0  0  0  0
  146.0736  138.6178  150.8995 H   0  0  0  0  0  0  0  0  0  0  0  0
  146.8346  137.2346  151.6912 H   0  0  0  0  0  0  0  0  0  0  0  0
  144.0851  136.6445  151.1884 H   0  0  0  0  0  0  0  0  0  0  0  0
  144.9335  135.7759  152.4577 H   0  0  0  0  0  0  0  0  0  0  0  0
  142.3343  137.3774  152.7466 H   0  0  0  0  0  0  0  0  0  0  0  0
  142.4875  135.6434  152.8794 H   0  0  0  0  0  0  0  0  0  0  0  0
  142.3254  136.7868  155.1303 H   0  0  0  0  0  0  0  0  0  0  0  0
  143.7914  135.8521  154.9559 H   0  0  0  0  0  0  0  0  0  0  0  0
  143.5396  138.8879  154.6552 H   0  0  0  0  0  0  0  0  0  0  0  0
  144.3664  138.0351  155.9410 H   0  0  0  0  0  0  0  0  0  0  0  0
  145.9812  137.0674  154.2869 H   0  0  0  0  0  0  0  0  0  0  0  0
  148.9968  142.4070  156.8236 H   0  0  0  0  0  0  0  0  0  0  0  0
  144.4228  138.6622  152.4260 H   0  0  0  0  0  0  0  0  0  0  0  0
  1  2  1  0  0  0  0
  1 25  1  0  0  0  0
  1 26  1  0  0  0  0
  1 27  1  0  0  0  0
  2  3  1  0  0  0  0
  2 28  1  0  0  0  0
  2 29  1  0  0  0  0
  3  4  1  0  0  0  0
  3  6  1  0  0  0  0
  4  5  1  0  0  0  0
  4 30  1  0  0  0  0
  4 31  1  0  0  0  0
  5 32  1  0  0  0  0
  5 33  1  0  0  0  0
  5 34  1  0  0  0  0
  6 24  1  0  0  0  0
  6  7  2  0  0  0  0
  7  8  1  0  0  0  0
  7 35  1  0  0  0  0
  8  9  2  0  0  0  0
  8 36  1  0  0  0  0
  9 10  1  0  0  0  0
  9 23  1  0  0  0  0
 10 11  1  0  0  0  0
 10 37  1  0  0  0  0
 11 12  2  0  0  0  0
 11 13  1  0  0  0  0
 13 14  1  0  0  0  0
 13 38  1  0  0  0  0
 14 22  1  0  0  0  0
 14 15  1  0  0  0  0
 14 39  1  0  0  0  0
 15 16  1  0  0  0  0
 15 40  1  0  0  0  0
 15 41  1  0  0  0  0
 16 17  1  0  0  0  0
 16 42  1  0  0  0  0
 16 43  1  0  0  0  0
 17 22  1  0  0  0  0
 17 18  1  0  0  0  0
 17 54  1  0  0  0  0
 18 19  1  0  0  0  0
 18 44  1  0  0  0  0
 18 45  1  0  0  0  0
 19 20  1  0  0  0  0
 19 46  1  0  0  0  0
 19 47  1  0  0  0  0
 20 21  1  0  0  0  0
 20 48  1  0  0  0  0
 20 49  1  0  0  0  0
 21 22  1  0  0  0  0
 21 50  1  0  0  0  0
 21 51  1  0  0  0  0
 22 52  1  0  0  0  0
 23 24  2  0  0  0  0
 23 53  1  0  0  0  0
M  CHG  1  17   1
M  END
> <s_m_source_file>
AV-unprocessed.smi

> <i_m_source_file_index>
1701

> <i_lp_mmshare_version>
43012

> <i_f3d_flags>
0

> <s_epik_input>
W0NIM11bQ0gyXU4oW0NIMl1bQ0gzXSljMVtjSF1bY0hdYyhbY0hdbjEpW05IXUMoPU8pW05IXVtDQEhdKFtDSDJdW0NIMl0yKVtDQEBIXShOMjMpW0NIMl1bQ0gyXVtDSDJdW0NIMl0z

> <s_epik_cmdline>
J2VwaWtfcHl0aG9uJywgJy1waCcsICc3LjAnLCAnLXRuJywgJzgnLCAnLW1hJywgJzIwMCcsICctbWV0YWxfYmluZGluZycsICctaW1hZScsICc8aW5maWxlLm1hZT4nLCAnLW9tYWUnLCAnPG91dGZpbGUubWFlPic=

> <r_lp_tautomer_probability>
1

> <r_epik_Ionization_Penalty>
0.56662

> <r_epik_Ionization_Penalty_Charging>
0.000974069

> <r_epik_Ionization_Penalty_Neutral>
0.565646

> <r_epik_State_Penalty>
2.0247

> <r_epik_Charging_Adjusted_Penalty>
2.02568

> <i_epik_Tot_Q>
1

> <i_epik_Tot_abs_Q>
1

> <r_epik_Metal_State_Penalty>
1.51504

> <b_epik_Metal_Only>
0

> <s_lp_Force_Field>
OPLS_2005

> <r_lp_Energy>
54.5744

> <b_lp_Chiralities_Consistent>
1

> <s_lp_Variant>
AV-unprocessed.smi:1701-14

> <Gold.Version>
5.8.1

> <Gold.Id.Protein>
6NUR|6NUR_protein|mol2

> <Gold.PLP.Fitness>
50.7577

> <Gold.PLP.PLP>
-42.3090

> <Gold.PLP.part.hbond>
-1.7315

> <Gold.PLP.part.metal>
0.0000

> <Gold.PLP.part.buried>
-4.1074

> <Gold.PLP.part.nonpolar>
-36.6383

> <Gold.PLP.part.repulsive>
0.2557

> <Gold.PLP.ligand.clash>
0.0000

> <Gold.PLP.ligand.torsion>
0.6695

> <Gold.PLP.Chemscore.Hbond>
2.0000

> <Gold.PLP.Chemscore.CHOScore>
0.9890

> <Gold.PLP.Chemscore.Metal>
0.0000

> <Gold.Chemscore.Hbonds>
donor molecule, donor type, donor heavy atom, donor atom, acceptor molecule, acceptor atom, score
      L1  H    17    54       P1 10175  2.00
      L1  C    23    53       P1  8028  0.86

> <Gold.PLP.Chemscore.Internal.Correction>
0.8208

> <Gold.Rescore>
     Score         DG    S(hbond)    S(metal)    S(lipo)     H(rot)  DE(clash)    DE(int)     intcor
     14.14     -17.50       1.00        0.00     102.31       1.28       0.07       3.29       ----

> <Gold.Chemscore.Fitness>
14.1353

> <Gold.Chemscore.DG>
-17.4967

> <Gold.Chemscore.ZeroCoef>
-5.4800

> <Gold.Chemscore.Hbond>
0.9978

> <Gold.Chemscore.Metal>
0.0000

> <Gold.Chemscore.Lipo>
102.3119

> <Gold.Chemscore.Internal_Hbond>
0.0000

> <Gold.Chemscore.DEClash>
0.0670

> <Gold.Chemscore.DEInternal>
3.2944

> <Gold.Chemscore.Rot>
1.2838

> <Gold.Chemscore.Internal.Correction>
   9.000000E+99

> <Gold.Chemscore.Hbonds>
donor molecule, donor type, donor heavy atom, donor atom, acceptor molecule, acceptor atom, score
      L1  H    17    54       P1 10175  0.99

> <Gold.Chemscore.Hbond.Weighted>
-3.3327

> <Gold.Chemscore.Metal.Weighted>
-0.0000

> <Gold.Chemscore.Lipo.Weighted>
-11.9705

> <Gold.Chemscore.Internal_Hbond.Weighted>
0.0000

> <Gold.Chemscore.DEClash.Weighted>
0.0670

> <Gold.Chemscore.DEInternal.Weighted>
3.2944

> <Gold.Chemscore.Rot.Weighted>
3.2865

> <Gold.Chemscore.Internal.Correction.Weighted>
   9.000000E+99

> <Gold.Protein.RotatedTorsions>
[ 6907 6896 6895 6894 ] final  172.66 input  -60.11 | X-H torsion
[ 7974 7965 7964 7962 ] final   16.13 input  175.53 | X-H torsion
[ 8008 7997 7996 7995 ] final    2.31 input   59.86 | X-H torsion
[ 10167 10162 10161 10158 ] final   -1.32 input  -65.29 | X-H torsion
[ 10718 10713 10712 10709 ] final  -74.20 input   66.30 | X-H torsion
[ 10763 10752 10751 10750 ] final   87.33 input  -60.55 | X-H torsion
[ 11005 11000 10999 10996 ] final -136.48 input  -57.11 | X-H torsion

> <Gold.Protein.ActiveResidues>
 VAL166  LYS551  ARG553  GLY616  TRP617  ASP618  TYR619  PRO620  LYS621  CYS622 
 ASP623  PHE694  ASN695  SER759  ASP760  ASP761  ALA762  ILE779  LEU786  VAL792 
 PHE793  MET794  SER795  GLU796  ALA797  LYS798  CYS799  TRP800  GLU811  SER814 

> <Gold.Protein.RotatedAtoms>
  151.7808  133.3349  159.3470 H   0  0  0  0  0  0  0  0  0  0  0  0  # atno 6907 bound_to 6896
  150.7427  134.5933  159.6008 H   0  0  0  0  0  0  0  0  0  0  0  0  # atno 6908 bound_to 6896
  152.3278  134.7300  160.0349 H   0  0  0  0  0  0  0  0  0  0  0  0  # atno 6909 bound_to 6896
  146.2258  139.8793  142.8573 H   0  0  0  0  0  0  0  0  0  0  0  0  # atno 7974 bound_to 7965
  154.6900  140.2651  155.6822 H   0  0  0  0  0  0  0  0  0  0  0  0  # atno 8008 bound_to 7997
  156.2728  140.2793  156.1398 H   0  0  0  0  0  0  0  0  0  0  0  0  # atno 8009 bound_to 7997
  155.0910  140.0373  157.2658 H   0  0  0  0  0  0  0  0  0  0  0  0  # atno 8010 bound_to 7997
  140.6805  143.6790  150.8121 H   0  0  0  0  0  0  0  0  0  0  0  0  # atno 10167 bound_to 10162
  156.0251  130.4411  150.2857 H   0  0  0  0  0  0  0  0  0  0  0  0  # atno 10718 bound_to 10713
  153.1657  135.4547  154.9834 H   0  0  0  0  0  0  0  0  0  0  0  0  # atno 10763 bound_to 10752
  154.7930  135.3227  154.7735 H   0  0  0  0  0  0  0  0  0  0  0  0  # atno 10764 bound_to 10752
  153.8218  135.6946  153.4881 H   0  0  0  0  0  0  0  0  0  0  0  0  # atno 10765 bound_to 10752
  140.8801  134.1942  157.4596 H   0  0  0  0  0  0  0  0  0  0  0  0  # atno 11005 bound_to 11000
  145.2529  141.0050  143.3871 LP  0  0  0  0  0  0  0  0  0  0  0  0  # atno 17320 bound_to 7965
  144.9360  139.4243  143.6472 LP  0  0  0  0  0  0  0  0  0  0  0  0  # atno 17321 bound_to 7965
  140.0489  143.5269  152.2683 LP  0  0  0  0  0  0  0  0  0  0  0  0  # atno 17342 bound_to 10162
  139.6124  144.7612  151.2922 LP  0  0  0  0  0  0  0  0  0  0  0  0  # atno 17343 bound_to 10162
  157.0961  131.0183  151.3103 LP  0  0  0  0  0  0  0  0  0  0  0  0  # atno 17370 bound_to 10713
  157.4816  130.7769  149.7420 LP  0  0  0  0  0  0  0  0  0  0  0  0  # atno 17371 bound_to 10713
  139.8719  134.9813  156.5112 LP  0  0  0  0  0  0  0  0  0  0  0  0  # atno 17394 bound_to 11000
  140.8471  133.8160  155.9132 LP  0  0  0  0  0  0  0  0  0  0  0  0  # atno 17395 bound_to 11000

$$$$
