AV-unprocessed.smi:1487|AV-procd|sdf|6009|dock3
  -GOLD-   22720 6103D 1   1.00000     0.00000
 Structure written by MMmdl.
 48 50  0  0  0  0  0  0  0  0  2 V2000
  152.5591  142.9425  160.3567 C   0  0  0  0  0  0  0  0  0  0  0  0
  152.0388  142.3065  159.0797 C   0  0  0  0  0  0  0  0  0  0  0  0
  152.6953  141.1666  158.5634 C   0  0  0  0  0  0  0  0  0  0  0  0
  152.2430  140.5447  157.3794 C   0  0  0  0  0  0  0  0  0  0  0  0
  152.7266  139.4367  156.7054 N   0  0  0  0  0  0  0  0  0  0  0  0
  151.8832  139.3563  155.6808 C   0  0  0  0  0  0  0  0  0  0  0  0
  150.9173  140.2921  155.6022 N   0  0  0  0  0  0  0  0  0  0  0  0
  149.8973  140.4116  154.5754 C   0  0  0  0  0  0  0  0  0  0  0  0
  149.1926  139.0731  154.2754 C   0  0  2  0  0  0  0  0  0  0  0  0
  150.0672  138.3024  153.4759 O   0  0  0  0  0  0  0  0  0  0  0  0
  147.8437  139.2363  153.5380 C   0  0  0  0  0  0  0  0  0  0  0  0
  147.2357  137.9319  153.1715 N   0  3  2  0  0  0  0  0  0  0  0  0
  146.1018  138.0810  152.2240 C   0  0  0  0  0  0  0  0  0  0  0  0
  145.6178  136.7101  151.7266 C   0  0  0  0  0  0  0  0  0  0  0  0
  145.2221  135.8054  152.9019 C   0  0  0  0  0  0  0  0  0  0  0  0
  146.3571  135.7112  153.9354 C   0  0  1  0  0  0  0  0  0  0  0  0
  147.4314  134.9470  153.4233 O   0  0  0  0  0  0  0  0  0  0  0  0
  146.8626  137.1059  154.3533 C   0  0  0  0  0  0  0  0  0  0  0  0
  151.1074  141.0992  156.7193 C   0  0  0  0  0  0  0  0  0  0  0  0
  150.4437  142.2308  157.2256 C   0  0  0  0  0  0  0  0  0  0  0  0
  150.9101  142.8414  158.4086 C   0  0  0  0  0  0  0  0  0  0  0  0
  150.1878  144.0646  158.9452 C   0  0  0  0  0  0  0  0  0  0  0  0
  153.3837  142.3683  160.7803 H   0  0  0  0  0  0  0  0  0  0  0  0
  151.7707  142.9962  161.1077 H   0  0  0  0  0  0  0  0  0  0  0  0
  152.9199  143.9520  160.1589 H   0  0  0  0  0  0  0  0  0  0  0  0
  153.5544  140.7580  159.0754 H   0  0  0  0  0  0  0  0  0  0  0  0
  151.9794  138.5767  154.9390 H   0  0  0  0  0  0  0  0  0  0  0  0
  149.1688  141.1581  154.8969 H   0  0  0  0  0  0  0  0  0  0  0  0
  150.3686  140.8032  153.6731 H   0  0  0  0  0  0  0  0  0  0  0  0
  149.0515  138.5418  155.2151 H   0  0  0  0  0  0  0  0  0  0  0  0
  149.5820  137.5946  153.0805 H   0  0  0  0  0  0  0  0  0  0  0  0
  147.1237  139.7898  154.1420 H   0  0  0  0  0  0  0  0  0  0  0  0
  148.0110  139.8409  152.6452 H   0  0  0  0  0  0  0  0  0  0  0  0
  145.2862  138.6210  152.7083 H   0  0  0  0  0  0  0  0  0  0  0  0
  146.4134  138.6779  151.3660 H   0  0  0  0  0  0  0  0  0  0  0  0
  144.7690  136.8362  151.0535 H   0  0  0  0  0  0  0  0  0  0  0  0
  146.4056  136.2330  151.1418 H   0  0  0  0  0  0  0  0  0  0  0  0
  144.3339  136.2166  153.3834 H   0  0  0  0  0  0  0  0  0  0  0  0
  144.9448  134.8132  152.5431 H   0  0  0  0  0  0  0  0  0  0  0  0
  145.9885  135.1849  154.8166 H   0  0  0  0  0  0  0  0  0  0  0  0
  148.0729  135.5350  153.0539 H   0  0  0  0  0  0  0  0  0  0  0  0
  147.7061  136.9973  155.0348 H   0  0  0  0  0  0  0  0  0  0  0  0
  146.0811  137.6226  154.9131 H   0  0  0  0  0  0  0  0  0  0  0  0
  149.5808  142.6255  156.7104 H   0  0  0  0  0  0  0  0  0  0  0  0
  149.3934  144.3856  158.2707 H   0  0  0  0  0  0  0  0  0  0  0  0
  150.8800  144.8981  159.0654 H   0  0  0  0  0  0  0  0  0  0  0  0
  149.7374  143.8452  159.9136 H   0  0  0  0  0  0  0  0  0  0  0  0
  147.9460  137.4185  152.6696 H   0  0  0  0  0  0  0  0  0  0  0  0
  1  2  1  0  0  0  0
  1 23  1  0  0  0  0
  1 24  1  0  0  0  0
  1 25  1  0  0  0  0
  2 21  1  0  0  0  0
  2  3  2  0  0  0  0
  3  4  1  0  0  0  0
  3 26  1  0  0  0  0
  4 19  2  0  0  0  0
  4  5  1  0  0  0  0
  5  6  2  0  0  0  0
  6  7  1  0  0  0  0
  6 27  1  0  0  0  0
  7  8  1  0  0  0  0
  7 19  1  0  0  0  0
  8  9  1  0  0  0  0
  8 28  1  0  0  0  0
  8 29  1  0  0  0  0
  9 10  1  0  0  0  0
  9 11  1  0  0  0  0
  9 30  1  0  0  0  0
 10 31  1  0  0  0  0
 11 12  1  0  0  0  0
 11 32  1  0  0  0  0
 11 33  1  0  0  0  0
 12 18  1  0  0  0  0
 12 13  1  0  0  0  0
 12 48  1  0  0  0  0
 13 14  1  0  0  0  0
 13 34  1  0  0  0  0
 13 35  1  0  0  0  0
 14 15  1  0  0  0  0
 14 36  1  0  0  0  0
 14 37  1  0  0  0  0
 15 16  1  0  0  0  0
 15 38  1  0  0  0  0
 15 39  1  0  0  0  0
 16 17  1  0  0  0  0
 16 18  1  0  0  0  0
 16 40  1  0  0  0  0
 17 41  1  0  0  0  0
 18 42  1  0  0  0  0
 18 43  1  0  0  0  0
 19 20  1  0  0  0  0
 20 21  2  0  0  0  0
 20 44  1  0  0  0  0
 21 22  1  0  0  0  0
 22 45  1  0  0  0  0
 22 46  1  0  0  0  0
 22 47  1  0  0  0  0
M  CHG  1  12   1
M  END
> <s_m_source_file>
AV-unprocessed.smi

> <i_m_source_file_index>
1487

> <i_lp_mmshare_version>
43012

> <i_f3d_flags>
0

> <s_epik_input>
W0NIM11jKFtjSF0xKWMoW0NIM10pW2NIXWMoYzEyKW4oW2NIXW4yKVtDSDJdW0NASF0oW09IXSlbQ0gyXU4zW0NIMl1bQ0gyXVtDSDJdW0NAQEhdKFtPSF0pW0NIMl0z

> <s_epik_cmdline>
J2VwaWtfcHl0aG9uJywgJy1waCcsICc3LjAnLCAnLXRuJywgJzgnLCAnLW1hJywgJzIwMCcsICctbWV0YWxfYmluZGluZycsICctaW1hZScsICc8aW5maWxlLm1hZT4nLCAnLW9tYWUnLCAnPG91dGZpbGUubWFlPic=

> <r_epik_Ionization_Penalty>
0.0940186

> <r_epik_Ionization_Penalty_Charging>
0.00679686

> <r_epik_Ionization_Penalty_Neutral>
0.0872218

> <r_epik_State_Penalty>
0.0799311

> <r_epik_Charging_Adjusted_Penalty>
0.086728

> <i_epik_Tot_Q>
1

> <i_epik_Tot_abs_Q>
1

> <r_epik_Metal_State_Penalty>
7.95545e-05

> <b_epik_Metal_Only>
0

> <s_lp_Force_Field>
OPLS_2005

> <r_lp_Energy>
25.8202

> <b_lp_Chiralities_Consistent>
1

> <s_lp_Variant>
AV-unprocessed.smi:1487-3

> <Gold.Version>
5.8.1

> <Gold.Id.Protein>
6NUR|6NUR_protein|mol2

> <Gold.PLP.Fitness>
54.8802

> <Gold.PLP.PLP>
-40.5017

> <Gold.PLP.part.hbond>
-5.2329

> <Gold.PLP.part.metal>
0.0000

> <Gold.PLP.part.buried>
-3.0843

> <Gold.PLP.part.nonpolar>
-32.6260

> <Gold.PLP.part.repulsive>
0.0285

> <Gold.PLP.ligand.clash>
0.0000

> <Gold.PLP.ligand.torsion>
0.3269

> <Gold.PLP.Chemscore.Hbond>
5.0000

> <Gold.PLP.Chemscore.CHOScore>
0.0000

> <Gold.PLP.Chemscore.Metal>
0.0000

> <Gold.Chemscore.Hbonds>
donor molecule, donor type, donor heavy atom, donor atom, acceptor molecule, acceptor atom, score
      L1  H    10    31       P1  7948  1.00
      L1  H    12    48       P1  7948  2.00
      L1  H    17    41       P1  7948  1.00
      P1  H  7997  8010       L1     5  0.90

> <Gold.PLP.Chemscore.Internal.Correction>
0.0322

> <Gold.Rescore>
     Score         DG    S(hbond)    S(metal)    S(lipo)     H(rot)  DE(clash)    DE(int)     intcor
     20.43     -21.31       3.20        0.00     102.34       2.67       0.50       0.38       ----

> <Gold.Chemscore.Fitness>
20.4342

> <Gold.Chemscore.DG>
-21.3118

> <Gold.Chemscore.ZeroCoef>
-5.4800

> <Gold.Chemscore.Hbond>
3.2027

> <Gold.Chemscore.Metal>
0.0000

> <Gold.Chemscore.Lipo>
102.3361

> <Gold.Chemscore.Internal_Hbond>
0.0000

> <Gold.Chemscore.DEClash>
0.5022

> <Gold.Chemscore.DEInternal>
0.3755

> <Gold.Chemscore.Rot>
2.6712

> <Gold.Chemscore.Internal.Correction>
   9.000000E+99

> <Gold.Chemscore.Hbonds>
donor molecule, donor type, donor heavy atom, donor atom, acceptor molecule, acceptor atom, score
      L1  H    10    31       P1  7948  0.78
      L1  H    12    48       P1  7948  1.00
      L1  H    17    41       P1  7948  0.97
      P1  H  7997  8010       L1     5  0.14

> <Gold.Chemscore.Hbond.Weighted>
-10.6969

> <Gold.Chemscore.Metal.Weighted>
-0.0000

> <Gold.Chemscore.Lipo.Weighted>
-11.9733

> <Gold.Chemscore.Internal_Hbond.Weighted>
0.0000

> <Gold.Chemscore.DEClash.Weighted>
0.5022

> <Gold.Chemscore.DEInternal.Weighted>
0.3755

> <Gold.Chemscore.Rot.Weighted>
6.8383

> <Gold.Chemscore.Internal.Correction.Weighted>
   9.000000E+99

> <Gold.Protein.RotatedTorsions>
[ 6907 6896 6895 6894 ] final   27.78 input  -60.11 | X-H torsion
[ 7974 7965 7964 7962 ] final   40.81 input  175.53 | X-H torsion
[ 8008 7997 7996 7995 ] final   86.12 input   59.86 | X-H torsion
[ 10167 10162 10161 10158 ] final   54.08 input  -65.29 | X-H torsion
[ 10718 10713 10712 10709 ] final  -55.44 input   66.30 | X-H torsion
[ 10763 10752 10751 10750 ] final  163.87 input  -60.55 | X-H torsion
[ 11005 11000 10999 10996 ] final -134.56 input  -57.11 | X-H torsion

> <Gold.Protein.ActiveResidues>
 VAL166  LYS551  ARG553  GLY616  TRP617  ASP618  TYR619  PRO620  LYS621  CYS622 
 ASP623  PHE694  ASN695  SER759  ASP760  ASP761  ALA762  ILE779  LEU786  VAL792 
 PHE793  MET794  SER795  GLU796  ALA797  LYS798  CYS799  TRP800  GLU811  SER814 

> <Gold.Protein.RotatedAtoms>
  152.0073  134.9895  160.0566 H   0  0  0  0  0  0  0  0  0  0  0  0  # atno 6907 bound_to 6896
  152.1462  133.4489  159.4799 H   0  0  0  0  0  0  0  0  0  0  0  0  # atno 6908 bound_to 6896
  150.6870  134.2163  159.4422 H   0  0  0  0  0  0  0  0  0  0  0  0  # atno 6909 bound_to 6896
  146.0875  139.5489  142.9497 H   0  0  0  0  0  0  0  0  0  0  0  0  # atno 7974 bound_to 7965
  155.9587  140.3395  155.6472 H   0  0  0  0  0  0  0  0  0  0  0  0  # atno 8008 bound_to 7997
  155.6826  140.0739  157.2497 H   0  0  0  0  0  0  0  0  0  0  0  0  # atno 8009 bound_to 7997
  154.4138  140.1671  156.1986 H   0  0  0  0  0  0  0  0  0  0  0  0  # atno 8010 bound_to 7997
  140.2339  144.3657  150.6404 H   0  0  0  0  0  0  0  0  0  0  0  0  # atno 10167 bound_to 10162
  156.1368  130.4156  150.0172 H   0  0  0  0  0  0  0  0  0  0  0  0  # atno 10718 bound_to 10713
  154.3002  135.2759  155.2614 H   0  0  0  0  0  0  0  0  0  0  0  0  # atno 10763 bound_to 10752
  154.5055  135.5797  153.6567 H   0  0  0  0  0  0  0  0  0  0  0  0  # atno 10764 bound_to 10752
  152.9901  135.6168  154.3172 H   0  0  0  0  0  0  0  0  0  0  0  0  # atno 10765 bound_to 10752
  140.8979  134.1729  157.4482 H   0  0  0  0  0  0  0  0  0  0  0  0  # atno 11005 bound_to 11000
  145.6103  141.0341  143.1970 LP  0  0  0  0  0  0  0  0  0  0  0  0  # atno 17320 bound_to 7965
  144.7336  139.7652  143.7338 LP  0  0  0  0  0  0  0  0  0  0  0  0  # atno 17321 bound_to 7965
  140.6164  143.2173  151.6782 LP  0  0  0  0  0  0  0  0  0  0  0  0  # atno 17342 bound_to 10162
  139.5100  144.3556  152.0610 LP  0  0  0  0  0  0  0  0  0  0  0  0  # atno 17343 bound_to 10162
  156.8068  130.9310  151.3645 LP  0  0  0  0  0  0  0  0  0  0  0  0  # atno 17370 bound_to 10713
  157.6539  130.8908  149.9690 LP  0  0  0  0  0  0  0  0  0  0  0  0  # atno 17371 bound_to 10713
  139.8738  134.9886  156.5418 LP  0  0  0  0  0  0  0  0  0  0  0  0  # atno 17394 bound_to 11000
  140.8267  133.8311  155.8945 LP  0  0  0  0  0  0  0  0  0  0  0  0  # atno 17395 bound_to 11000

$$$$
