AV-unprocessed.smi:2183|AV-procd|sdf|8867|dock6
  -GOLD-   2272012 63D 1   1.00000     0.00000
 Structure written by MMmdl.
 41 43  0  0  0  0  0  0  0  0  2 V2000
  149.6361  140.7419  153.8532 O   0  0  0  0  0  0  0  0  0  0  0  0
  149.2512  140.3347  155.1473 C   0  0  0  0  0  0  0  0  0  0  0  0
  150.0927  140.9593  156.2108 C   0  0  0  0  0  0  0  0  0  0  0  0
  150.2200  142.2955  156.4458 N   0  3  0  0  0  0  0  0  0  0  0  0
  151.0976  142.5068  157.5100 C   0  0  0  0  0  0  0  0  0  0  0  0
  151.5359  143.6841  158.1082 C   0  0  0  0  0  0  0  0  0  0  0  0
  152.4375  143.5497  159.1841 C   0  0  0  0  0  0  0  0  0  0  0  0
  152.8684  142.2822  159.6266 C   0  0  0  0  0  0  0  0  0  0  0  0
  152.4179  141.0956  159.0113 C   0  0  0  0  0  0  0  0  0  0  0  0
  151.5276  141.2365  157.9467 C   0  0  0  0  0  0  0  0  0  0  0  0
  150.8836  140.3122  157.1147 N   0  0  0  0  0  0  0  0  0  0  0  0
  151.1239  138.8715  157.2952 C   0  0  0  0  0  0  0  0  0  0  0  0
  150.4842  138.3165  158.5835 C   0  0  2  0  0  0  0  0  0  0  0  0
  151.1069  137.1014  158.9478 O   0  0  0  0  0  0  0  0  0  0  0  0
  148.9766  138.0685  158.4321 C   0  0  0  0  0  0  0  0  0  0  0  0
  148.4032  137.9362  159.7262 O   0  0  0  0  0  0  0  0  0  0  0  0
  148.1441  136.6683  160.2001 C   0  0  0  0  0  0  0  0  0  0  0  0
  147.7574  136.5575  161.5519 C   0  0  0  0  0  0  0  0  0  0  0  0
  147.4733  135.3008  162.1203 C   0  0  0  0  0  0  0  0  0  0  0  0
  147.5746  134.1359  161.3373 C   0  0  0  0  0  0  0  0  0  0  0  0
  147.2282  132.5944  162.0306 Cl  0  0  0  0  0  0  0  0  0  0  0  0
  147.9595  134.2314  159.9869 C   0  0  0  0  0  0  0  0  0  0  0  0
  148.2433  135.4889  159.4190 C   0  0  0  0  0  0  0  0  0  0  0  0
  149.3250  140.1020  153.2310 H   0  0  0  0  0  0  0  0  0  0  0  0
  148.2060  140.6002  155.3084 H   0  0  0  0  0  0  0  0  0  0  0  0
  149.3197  139.2490  155.2146 H   0  0  0  0  0  0  0  0  0  0  0  0
  151.2070  144.6562  157.7711 H   0  0  0  0  0  0  0  0  0  0  0  0
  152.8056  144.4363  159.6803 H   0  0  0  0  0  0  0  0  0  0  0  0
  153.5585  142.2180  160.4553 H   0  0  0  0  0  0  0  0  0  0  0  0
  152.7524  140.1307  159.3625 H   0  0  0  0  0  0  0  0  0  0  0  0
  150.7056  138.3669  156.4235 H   0  0  0  0  0  0  0  0  0  0  0  0
  152.1958  138.6752  157.2675 H   0  0  0  0  0  0  0  0  0  0  0  0
  150.6427  139.0189  159.4022 H   0  0  0  0  0  0  0  0  0  0  0  0
  152.0127  137.1389  158.6813 H   0  0  0  0  0  0  0  0  0  0  0  0
  148.5134  138.8903  157.8831 H   0  0  0  0  0  0  0  0  0  0  0  0
  148.8122  137.1483  157.8684 H   0  0  0  0  0  0  0  0  0  0  0  0
  147.6774  137.4464  162.1602 H   0  0  0  0  0  0  0  0  0  0  0  0
  147.1779  135.2328  163.1569 H   0  0  0  0  0  0  0  0  0  0  0  0
  148.0384  133.3397  159.3829 H   0  0  0  0  0  0  0  0  0  0  0  0
  148.5365  135.5207  158.3809 H   0  0  0  0  0  0  0  0  0  0  0  0
  149.7432  143.0097  155.9106 H   0  0  0  0  0  0  0  0  0  0  0  0
  1  2  1  0  0  0  0
  1 24  1  0  0  0  0
  2  3  1  0  0  0  0
  2 25  1  0  0  0  0
  2 26  1  0  0  0  0
  3 11  1  0  0  0  0
  3  4  2  0  0  0  0
  4  5  1  0  0  0  0
  4 41  1  0  0  0  0
  5 10  2  0  0  0  0
  5  6  1  0  0  0  0
  6  7  2  0  0  0  0
  6 27  1  0  0  0  0
  7  8  1  0  0  0  0
  7 28  1  0  0  0  0
  8  9  2  0  0  0  0
  8 29  1  0  0  0  0
  9 10  1  0  0  0  0
  9 30  1  0  0  0  0
 10 11  1  0  0  0  0
 11 12  1  0  0  0  0
 12 13  1  0  0  0  0
 12 31  1  0  0  0  0
 12 32  1  0  0  0  0
 13 14  1  0  0  0  0
 13 15  1  0  0  0  0
 13 33  1  0  0  0  0
 14 34  1  0  0  0  0
 15 16  1  0  0  0  0
 15 35  1  0  0  0  0
 15 36  1  0  0  0  0
 16 17  1  0  0  0  0
 17 23  1  0  0  0  0
 17 18  2  0  0  0  0
 18 19  1  0  0  0  0
 18 37  1  0  0  0  0
 19 20  2  0  0  0  0
 19 38  1  0  0  0  0
 20 21  1  0  0  0  0
 20 22  1  0  0  0  0
 22 23  2  0  0  0  0
 22 39  1  0  0  0  0
 23 40  1  0  0  0  0
M  CHG  1   4   1
M  END
> <s_m_source_file>
AV-unprocessed.smi

> <i_m_source_file_index>
2183

> <i_lp_mmshare_version>
43012

> <i_f3d_flags>
0

> <s_epik_input>
W2NIXTFbY0hdW2NIXVtjSF1jKGMxMiluKGMobjIpW0NIMl1bT0hdKVtDSDJdW0NASF0oW09IXSlbQ0gyXU9jM1tjSF1bY0hdYyhDbClbY0hdW2NIXTM=

> <s_epik_cmdline>
J2VwaWtfcHl0aG9uJywgJy1waCcsICc3LjAnLCAnLXRuJywgJzgnLCAnLW1hJywgJzIwMCcsICctbWV0YWxfYmluZGluZycsICctaW1hZScsICc8aW5maWxlLm1hZT4nLCAnLW9tYWUnLCAnPG91dGZpbGUubWFlPic=

> <r_lp_tautomer_probability>
1

> <r_epik_Ionization_Penalty>
1.40052

> <r_epik_Ionization_Penalty_Charging>
1.39966

> <r_epik_Ionization_Penalty_Neutral>
0.000858184

> <r_epik_State_Penalty>
1.4817

> <r_epik_Charging_Adjusted_Penalty>
2.88136

> <i_epik_Tot_Q>
1

> <i_epik_Tot_abs_Q>
1

> <r_epik_Metal_State_Penalty>
5.5238

> <b_epik_Metal_Only>
0

> <s_lp_Force_Field>
OPLS_2005

> <r_lp_Energy>
17.0634

> <b_lp_Chiralities_Consistent>
1

> <s_lp_Variant>
AV-unprocessed.smi:2183-3

> <Gold.Version>
5.8.1

> <Gold.Id.Protein>
6NUR|6NUR_protein|mol2

> <Gold.PLP.Fitness>
58.0499

> <Gold.PLP.PLP>
-46.5077

> <Gold.PLP.part.hbond>
-6.4564

> <Gold.PLP.part.metal>
0.0000

> <Gold.PLP.part.buried>
-5.4941

> <Gold.PLP.part.nonpolar>
-35.6978

> <Gold.PLP.part.repulsive>
0.0748

> <Gold.PLP.ligand.clash>
0.0000

> <Gold.PLP.ligand.torsion>
0.7616

> <Gold.PLP.Chemscore.Hbond>
4.3222

> <Gold.PLP.Chemscore.CHOScore>
0.0000

> <Gold.PLP.Chemscore.Metal>
0.0000

> <Gold.Chemscore.Hbonds>
donor molecule, donor type, donor heavy atom, donor atom, acceptor molecule, acceptor atom, score
      L1  H     1    24       P1  7957  0.49
      L1  H     4    41       P1  8028  2.00
      P1  H  6896  6909       L1    14  0.50
      P1  H  6931  6943       L1    16  0.01
      P1  H  6934  6947       L1    16  0.29
      P1  H  7989  7998       L1     1  0.50
      P1  H  8011  8017       L1     1  0.32

> <Gold.PLP.Chemscore.Internal.Correction>
0.0987

> <Gold.Rescore>
     Score         DG    S(hbond)    S(metal)    S(lipo)     H(rot)  DE(clash)    DE(int)     intcor
     17.79     -18.66       2.18        0.00     118.92       3.13       0.01       0.86       ----

> <Gold.Chemscore.Fitness>
17.7877

> <Gold.Chemscore.DG>
-18.6560

> <Gold.Chemscore.ZeroCoef>
-5.4800

> <Gold.Chemscore.Hbond>
2.1786

> <Gold.Chemscore.Metal>
0.0000

> <Gold.Chemscore.Lipo>
118.9198

> <Gold.Chemscore.Internal_Hbond>
0.0000

> <Gold.Chemscore.DEClash>
0.0089

> <Gold.Chemscore.DEInternal>
0.8594

> <Gold.Chemscore.Rot>
3.1305

> <Gold.Chemscore.Internal.Correction>
   9.000000E+99

> <Gold.Chemscore.Hbonds>
donor molecule, donor type, donor heavy atom, donor atom, acceptor molecule, acceptor atom, score
      L1  H     1    24       P1  7957  0.48
      L1  H     4    41       P1  8028  0.98
      P1  H  6896  6909       L1    14  0.08
      P1  H  6934  6947       L1    16  0.09
      P1  H  7989  7998       L1     1  0.21
      P1  H  8011  8017       L1     1  0.04

> <Gold.Chemscore.Hbond.Weighted>
-7.2765

> <Gold.Chemscore.Metal.Weighted>
-0.0000

> <Gold.Chemscore.Lipo.Weighted>
-13.9136

> <Gold.Chemscore.Internal_Hbond.Weighted>
0.0000

> <Gold.Chemscore.DEClash.Weighted>
0.0089

> <Gold.Chemscore.DEInternal.Weighted>
0.8594

> <Gold.Chemscore.Rot.Weighted>
8.0141

> <Gold.Chemscore.Internal.Correction.Weighted>
   9.000000E+99

> <Gold.Protein.RotatedTorsions>
[ 6907 6896 6895 6894 ] final   95.70 input  -60.11 | X-H torsion
[ 7974 7965 7964 7962 ] final -175.16 input  175.53 | X-H torsion
[ 8008 7997 7996 7995 ] final  -44.04 input   59.86 | X-H torsion
[ 10167 10162 10161 10158 ] final -136.24 input  -65.29 | X-H torsion
[ 10718 10713 10712 10709 ] final   75.17 input   66.30 | X-H torsion
[ 10763 10752 10751 10750 ] final  -71.02 input  -60.55 | X-H torsion
[ 11005 11000 10999 10996 ] final  176.74 input  -57.11 | X-H torsion

> <Gold.Protein.ActiveResidues>
 VAL166  LYS551  ARG553  GLY616  TRP617  ASP618  TYR619  PRO620  LYS621  CYS622 
 ASP623  PHE694  ASN695  SER759  ASP760  ASP761  ALA762  ILE779  LEU786  VAL792 
 PHE793  MET794  SER795  GLU796  ALA797  LYS798  CYS799  TRP800  GLU811  SER814 

> <Gold.Protein.RotatedAtoms>
  152.5441  134.1000  159.8313 H   0  0  0  0  0  0  0  0  0  0  0  0  # atno 6907 bound_to 6896
  151.1079  133.5187  159.2614 H   0  0  0  0  0  0  0  0  0  0  0  0  # atno 6908 bound_to 6896
  151.1918  135.0415  159.8890 H   0  0  0  0  0  0  0  0  0  0  0  0  # atno 6909 bound_to 6896
  144.7129  140.1363  143.6395 H   0  0  0  0  0  0  0  0  0  0  0  0  # atno 7974 bound_to 7965
  154.3997  140.1432  156.3618 H   0  0  0  0  0  0  0  0  0  0  0  0  # atno 8008 bound_to 7997
  155.8174  140.3470  155.5473 H   0  0  0  0  0  0  0  0  0  0  0  0  # atno 8009 bound_to 7997
  155.8323  140.0914  157.1775 H   0  0  0  0  0  0  0  0  0  0  0  0  # atno 8010 bound_to 7997
  139.8698  143.6972  152.2641 H   0  0  0  0  0  0  0  0  0  0  0  0  # atno 10167 bound_to 10162
  157.6623  130.9713  150.1315 H   0  0  0  0  0  0  0  0  0  0  0  0  # atno 10718 bound_to 10713
  154.4259  135.5975  153.6038 H   0  0  0  0  0  0  0  0  0  0  0  0  # atno 10763 bound_to 10752
  152.9796  135.5963  154.3898 H   0  0  0  0  0  0  0  0  0  0  0  0  # atno 10764 bound_to 10752
  154.3730  135.2841  155.2234 H   0  0  0  0  0  0  0  0  0  0  0  0  # atno 10765 bound_to 10752
  140.3764  134.6985  157.4424 H   0  0  0  0  0  0  0  0  0  0  0  0  # atno 11005 bound_to 11000
  145.9242  139.2565  143.1363 LP  0  0  0  0  0  0  0  0  0  0  0  0  # atno 17320 bound_to 7965
  145.9589  140.8851  143.0221 LP  0  0  0  0  0  0  0  0  0  0  0  0  # atno 17321 bound_to 7965
  139.7295  144.7585  151.0825 LP  0  0  0  0  0  0  0  0  0  0  0  0  # atno 17342 bound_to 10162
  140.7762  143.5106  150.9657 LP  0  0  0  0  0  0  0  0  0  0  0  0  # atno 17343 bound_to 10162
  156.2160  130.3670  149.8612 LP  0  0  0  0  0  0  0  0  0  0  0  0  # atno 17370 bound_to 10713
  156.6478  130.8731  151.3526 LP  0  0  0  0  0  0  0  0  0  0  0  0  # atno 17371 bound_to 10713
  140.0512  134.6128  155.8860 LP  0  0  0  0  0  0  0  0  0  0  0  0  # atno 17394 bound_to 11000
  141.1938  133.6580  156.5564 LP  0  0  0  0  0  0  0  0  0  0  0  0  # atno 17395 bound_to 11000

$$$$
