AV-unprocessed.smi:3183|AV-procd|sdf|12157|dock9
  -GOLD-   2272017593D 1   1.00000     0.00000
 Structure written by MMmdl.
 43 44  0  0  0  0  0  0  0  0  2 V2000
  152.7248  143.2462  161.4971 C   0  0  0  0  0  0  0  0  0  0  0  0
  151.9468  142.8596  160.2285 C   0  0  2  0  0  0  0  0  0  0  0  0
  152.8356  142.1081  159.2186 C   0  0  0  0  0  0  0  0  0  0  0  0
  152.0285  141.6501  157.9939 C   0  0  0  0  0  0  0  0  0  0  0  0
  151.3112  142.8271  157.3086 C   0  0  1  0  0  0  0  0  0  0  0  0
  150.5207  142.3273  156.1615 N   0  3  0  0  0  0  0  0  0  0  0  0
  149.9434  140.9772  156.3306 C   0  0  0  0  0  0  0  0  0  0  0  0
  149.7821  140.2749  154.9745 C   0  0  0  0  0  0  0  0  0  0  0  0
  150.1865  138.8319  154.9772 C   0  0  0  0  0  0  0  0  0  0  0  0
  149.4392  137.6854  154.9626 C   0  0  0  0  0  0  0  0  0  0  0  0
  150.4036  136.6405  154.9744 C   0  0  0  0  0  0  0  0  0  0  0  0
  151.6436  137.0961  154.9947 N   0  0  0  0  0  0  0  0  0  0  0  0
  151.5129  138.4394  154.9977 N   0  0  0  0  0  0  0  0  0  0  0  0
  152.7041  139.2666  155.0148 C   0  0  0  0  0  0  0  0  0  0  0  0
  150.4260  143.5797  158.3280 C   0  0  0  0  0  0  0  0  0  0  0  0
  151.2177  144.0557  159.5649 C   0  0  2  0  0  0  0  0  0  0  0  0
  152.1362  145.2479  159.2275 C   0  0  0  0  0  0  0  0  0  0  0  0
  153.5834  143.8782  161.2692 H   0  0  0  0  0  0  0  0  0  0  0  0
  153.1015  142.3589  162.0069 H   0  0  0  0  0  0  0  0  0  0  0  0
  152.0891  143.7836  162.2013 H   0  0  0  0  0  0  0  0  0  0  0  0
  151.1727  142.1606  160.5497 H   0  0  0  0  0  0  0  0  0  0  0  0
  153.6637  142.7417  158.8995 H   0  0  0  0  0  0  0  0  0  0  0  0
  153.2868  141.2384  159.6979 H   0  0  0  0  0  0  0  0  0  0  0  0
  152.6934  141.1536  157.2858 H   0  0  0  0  0  0  0  0  0  0  0  0
  151.2973  140.9024  158.3051 H   0  0  0  0  0  0  0  0  0  0  0  0
  152.0727  143.5037  156.9184 H   0  0  0  0  0  0  0  0  0  0  0  0
  149.7507  142.9663  156.0236 H   0  0  0  0  0  0  0  0  0  0  0  0
  150.5869  140.3819  156.9780 H   0  0  0  0  0  0  0  0  0  0  0  0
  148.9727  141.0601  156.8215 H   0  0  0  0  0  0  0  0  0  0  0  0
  148.7423  140.3502  154.6541 H   0  0  0  0  0  0  0  0  0  0  0  0
  150.3705  140.8054  154.2248 H   0  0  0  0  0  0  0  0  0  0  0  0
  148.3628  137.6005  154.9455 H   0  0  0  0  0  0  0  0  0  0  0  0
  150.2407  135.5727  154.9681 H   0  0  0  0  0  0  0  0  0  0  0  0
  152.6227  140.0160  155.8021 H   0  0  0  0  0  0  0  0  0  0  0  0
  152.8141  139.7687  154.0534 H   0  0  0  0  0  0  0  0  0  0  0  0
  153.5916  138.6602  155.2003 H   0  0  0  0  0  0  0  0  0  0  0  0
  149.9421  144.4380  157.8619 H   0  0  0  0  0  0  0  0  0  0  0  0
  149.6187  142.9226  158.6552 H   0  0  0  0  0  0  0  0  0  0  0  0
  150.4863  144.4292  160.2830 H   0  0  0  0  0  0  0  0  0  0  0  0
  152.9503  144.9672  158.5603 H   0  0  0  0  0  0  0  0  0  0  0  0
  152.5792  145.6773  160.1259 H   0  0  0  0  0  0  0  0  0  0  0  0
  151.5745  146.0457  158.7410 H   0  0  0  0  0  0  0  0  0  0  0  0
  151.0996  142.3414  155.3339 H   0  0  0  0  0  0  0  0  0  0  0  0
  1  2  1  0  0  0  0
  1 18  1  0  0  0  0
  1 19  1  0  0  0  0
  1 20  1  0  0  0  0
  2 16  1  0  0  0  0
  2  3  1  0  0  0  0
  2 21  1  0  0  0  0
  3  4  1  0  0  0  0
  3 22  1  0  0  0  0
  3 23  1  0  0  0  0
  4  5  1  0  0  0  0
  4 24  1  0  0  0  0
  4 25  1  0  0  0  0
  5  6  1  0  0  0  0
  5 15  1  0  0  0  0
  5 26  1  0  0  0  0
  6  7  1  0  0  0  0
  6 27  1  0  0  0  0
  6 43  1  0  0  0  0
  7  8  1  0  0  0  0
  7 28  1  0  0  0  0
  7 29  1  0  0  0  0
  8  9  1  0  0  0  0
  8 30  1  0  0  0  0
  8 31  1  0  0  0  0
  9 13  1  0  0  0  0
  9 10  2  0  0  0  0
 10 11  1  0  0  0  0
 10 32  1  0  0  0  0
 11 12  2  0  0  0  0
 11 33  1  0  0  0  0
 12 13  1  0  0  0  0
 13 14  1  0  0  0  0
 14 34  1  0  0  0  0
 14 35  1  0  0  0  0
 14 36  1  0  0  0  0
 15 16  1  0  0  0  0
 15 37  1  0  0  0  0
 15 38  1  0  0  0  0
 16 17  1  0  0  0  0
 16 39  1  0  0  0  0
 17 40  1  0  0  0  0
 17 41  1  0  0  0  0
 17 42  1  0  0  0  0
M  CHG  1   6   1
M  END
> <s_m_source_file>
AV-unprocessed.smi

> <i_m_source_file_index>
3183

> <i_lp_mmshare_version>
43012

> <i_f3d_flags>
0

> <s_epik_input>
W0NIM11bQ0BASF0xW0NIMl1bQ0gyXVtDQEhdKFtDSDJdW0NASF0xW0NIM10pW05IXVtDSDJdW0NIMl1jMltjSF1bY0hdbm4yW0NIM10=

> <s_epik_cmdline>
J2VwaWtfcHl0aG9uJywgJy1waCcsICc3LjAnLCAnLXRuJywgJzgnLCAnLW1hJywgJzIwMCcsICctbWV0YWxfYmluZGluZycsICctaW1hZScsICc8aW5maWxlLm1hZT4nLCAnLW9tYWUnLCAnPG91dGZpbGUubWFlPic=

> <r_lp_tautomer_probability>
1

> <r_epik_Ionization_Penalty>
0.000327718

> <r_epik_Ionization_Penalty_Charging>
0.000294043

> <r_epik_Ionization_Penalty_Neutral>
3.36755e-05

> <r_epik_State_Penalty>
-0

> <r_epik_Charging_Adjusted_Penalty>
0.000294043

> <i_epik_Tot_Q>
1

> <i_epik_Tot_abs_Q>
1

> <r_epik_Metal_State_Penalty>
-0

> <b_epik_Metal_Only>
0

> <s_lp_Force_Field>
OPLS_2005

> <r_lp_Energy>
13.9597

> <b_lp_Chiralities_Consistent>
1

> <s_lp_Variant>
AV-unprocessed.smi:3183-5

> <Gold.Version>
5.8.1

> <Gold.Id.Protein>
6NUR|6NUR_protein|mol2

> <Gold.PLP.Fitness>
45.9041

> <Gold.PLP.PLP>
-38.8846

> <Gold.PLP.part.hbond>
-2.0000

> <Gold.PLP.part.metal>
0.0000

> <Gold.PLP.part.buried>
-4.3413

> <Gold.PLP.part.nonpolar>
-33.0187

> <Gold.PLP.part.repulsive>
0.2190

> <Gold.PLP.ligand.clash>
0.0000

> <Gold.PLP.ligand.torsion>
0.9939

> <Gold.PLP.Chemscore.Hbond>
3.0000

> <Gold.PLP.Chemscore.CHOScore>
0.0000

> <Gold.PLP.Chemscore.Metal>
0.0000

> <Gold.Chemscore.Hbonds>
donor molecule, donor type, donor heavy atom, donor atom, acceptor molecule, acceptor atom, score
      L1  H     6    27       P1  8028  2.00
      P1  H 10752 10764       L1    12  1.00

> <Gold.PLP.Chemscore.Internal.Correction>
0.0074

> <Gold.Rescore>
     Score         DG    S(hbond)    S(metal)    S(lipo)     H(rot)  DE(clash)    DE(int)     intcor
     20.94     -21.93       1.80        0.00     119.30       1.38       0.06       0.92       ----

> <Gold.Chemscore.Fitness>
20.9369

> <Gold.Chemscore.DG>
-21.9252

> <Gold.Chemscore.ZeroCoef>
-5.4800

> <Gold.Chemscore.Hbond>
1.7998

> <Gold.Chemscore.Metal>
0.0000

> <Gold.Chemscore.Lipo>
119.3038

> <Gold.Chemscore.Internal_Hbond>
0.0000

> <Gold.Chemscore.DEClash>
0.0640

> <Gold.Chemscore.DEInternal>
0.9243

> <Gold.Chemscore.Rot>
1.3768

> <Gold.Chemscore.Internal.Correction>
   9.000000E+99

> <Gold.Chemscore.Hbonds>
donor molecule, donor type, donor heavy atom, donor atom, acceptor molecule, acceptor atom, score
      L1  H     6    27       P1  8028  0.95
      P1  H 10752 10764       L1    12  0.69

> <Gold.Chemscore.Hbond.Weighted>
-6.0113

> <Gold.Chemscore.Metal.Weighted>
-0.0000

> <Gold.Chemscore.Lipo.Weighted>
-13.9586

> <Gold.Chemscore.Internal_Hbond.Weighted>
0.0000

> <Gold.Chemscore.DEClash.Weighted>
0.0640

> <Gold.Chemscore.DEInternal.Weighted>
0.9243

> <Gold.Chemscore.Rot.Weighted>
3.5247

> <Gold.Chemscore.Internal.Correction.Weighted>
   9.000000E+99

> <Gold.Protein.RotatedTorsions>
[ 6907 6896 6895 6894 ] final  124.45 input  -60.11 | X-H torsion
[ 7974 7965 7964 7962 ] final  104.25 input  175.53 | X-H torsion
[ 8008 7997 7996 7995 ] final -121.02 input   59.86 | X-H torsion
[ 10167 10162 10161 10158 ] final  150.86 input  -65.29 | X-H torsion
[ 10718 10713 10712 10709 ] final   56.02 input   66.30 | X-H torsion
[ 10763 10752 10751 10750 ] final  -62.64 input  -60.55 | X-H torsion
[ 11005 11000 10999 10996 ] final -132.33 input  -57.11 | X-H torsion

> <Gold.Protein.ActiveResidues>
 VAL166  LYS551  ARG553  GLY616  TRP617  ASP618  TYR619  PRO620  LYS621  CYS622 
 ASP623  PHE694  ASN695  SER759  ASP760  ASP761  ALA762  ILE779  LEU786  VAL792 
 PHE793  MET794  SER795  GLU796  ALA797  LYS798  CYS799  TRP800  GLU811  SER814 

> <Gold.Protein.RotatedAtoms>
  152.4077  133.6915  159.6370 H   0  0  0  0  0  0  0  0  0  0  0  0  # atno 6907 bound_to 6896
  150.7960  133.8679  159.3259 H   0  0  0  0  0  0  0  0  0  0  0  0  # atno 6908 bound_to 6896
  151.6430  135.1012  160.0196 H   0  0  0  0  0  0  0  0  0  0  0  0  # atno 6909 bound_to 6896
  145.3353  139.2476  143.3639 H   0  0  0  0  0  0  0  0  0  0  0  0  # atno 7974 bound_to 7965
  155.1413  140.0402  157.2799 H   0  0  0  0  0  0  0  0  0  0  0  0  # atno 8008 bound_to 7997
  154.6471  140.2560  155.7229 H   0  0  0  0  0  0  0  0  0  0  0  0  # atno 8009 bound_to 7997
  156.2560  140.2844  156.0889 H   0  0  0  0  0  0  0  0  0  0  0  0  # atno 8010 bound_to 7997
  139.4846  144.5488  151.7437 H   0  0  0  0  0  0  0  0  0  0  0  0  # atno 10167 bound_to 10162
  157.5395  130.8687  149.8802 H   0  0  0  0  0  0  0  0  0  0  0  0  # atno 10718 bound_to 10713
  154.3030  135.6231  153.5433 H   0  0  0  0  0  0  0  0  0  0  0  0  # atno 10763 bound_to 10752
  152.9838  135.5683  154.5263 H   0  0  0  0  0  0  0  0  0  0  0  0  # atno 10764 bound_to 10752
  154.4897  135.2867  155.1483 H   0  0  0  0  0  0  0  0  0  0  0  0  # atno 10765 bound_to 10752
  140.9180  134.1482  157.4337 H   0  0  0  0  0  0  0  0  0  0  0  0  # atno 11005 bound_to 11000
  146.3029  140.3939  142.8697 LP  0  0  0  0  0  0  0  0  0  0  0  0  # atno 17320 bound_to 7965
  144.8832  140.7428  143.5973 LP  0  0  0  0  0  0  0  0  0  0  0  0  # atno 17321 bound_to 7965
  140.5039  144.1127  150.5978 LP  0  0  0  0  0  0  0  0  0  0  0  0  # atno 17342 bound_to 10162
  140.4030  143.2694  151.9925 LP  0  0  0  0  0  0  0  0  0  0  0  0  # atno 17343 bound_to 10162
  156.0485  130.3722  150.1258 LP  0  0  0  0  0  0  0  0  0  0  0  0  # atno 17370 bound_to 10713
  156.9438  130.9753  151.3511 LP  0  0  0  0  0  0  0  0  0  0  0  0  # atno 17371 bound_to 10713
  139.8770  134.9961  156.5775 LP  0  0  0  0  0  0  0  0  0  0  0  0  # atno 17394 bound_to 11000
  140.8025  133.8494  155.8739 LP  0  0  0  0  0  0  0  0  0  0  0  0  # atno 17395 bound_to 11000

$$$$
