AV-unprocessed.smi:432|AV-procd|sdf|2549|dock5
  -GOLD-   2262022513D 1   1.00000     0.00000
 Structure written by MMmdl.
 31 32  0  0  0  0  0  0  0  0  1 V2000
  154.9137  140.5973  159.8848 O   0  0  0  0  0  0  0  0  0  0  0  0
  153.6913  140.4587  159.8186 C   0  0  0  0  0  0  0  0  0  0  0  0
  153.0586  139.0636  159.7028 C   0  0  0  0  0  0  0  0  0  0  0  0
  152.4063  138.8165  158.4077 N   0  0  0  0  0  0  0  0  0  0  0  0
  152.6066  139.8197  157.4757 N   0  0  0  0  0  0  0  0  0  0  0  0
  152.0916  139.7054  156.3002 C   0  0  0  0  0  0  0  0  0  0  0  0
  151.3021  138.5572  155.9130 C   0  0  0  0  0  0  0  0  0  0  0  0
  150.6389  138.4584  154.3199 Cl  0  0  0  0  0  0  0  0  0  0  0  0
  151.1065  137.5823  156.8361 C   0  0  0  0  0  0  0  0  0  0  0  0
  150.1727  136.1782  156.4471 Cl  0  0  0  0  0  0  0  0  0  0  0  0
  151.6747  137.6806  158.1878 C   0  0  0  0  0  0  0  0  0  0  0  0
  151.5143  136.8210  159.0556 O   0  0  0  0  0  0  0  0  0  0  0  0
  152.8335  141.4900  159.8316 N   0  0  0  0  0  0  0  0  0  0  0  0
  153.2096  142.8963  159.9522 C   0  0  0  0  0  0  0  0  0  0  0  0
  152.4988  143.5641  161.1461 C   0  0  0  0  0  0  0  0  0  0  0  0
  151.4491  144.4972  160.5419 C   0  0  0  0  0  0  0  0  0  0  0  0
  152.0601  144.9350  159.2148 C   0  0  0  0  0  0  0  0  0  0  0  0
  152.7824  143.6881  158.7013 C   0  0  0  0  0  0  0  0  0  0  0  0
  153.8224  138.3044  159.8823 H   0  0  0  0  0  0  0  0  0  0  0  0
  152.3392  138.9516  160.5161 H   0  0  0  0  0  0  0  0  0  0  0  0
  152.2235  140.4692  155.5337 H   0  0  0  0  0  0  0  0  0  0  0  0
  151.8465  141.2868  159.7683 H   0  0  0  0  0  0  0  0  0  0  0  0
  154.2904  142.9806  160.0805 H   0  0  0  0  0  0  0  0  0  0  0  0
  152.0577  142.8514  161.8447 H   0  0  0  0  0  0  0  0  0  0  0  0
  153.2226  144.1550  161.7090 H   0  0  0  0  0  0  0  0  0  0  0  0
  150.5273  143.9439  160.3570 H   0  0  0  0  0  0  0  0  0  0  0  0
  151.2094  145.3381  161.1934 H   0  0  0  0  0  0  0  0  0  0  0  0
  151.3157  145.3088  158.5113 H   0  0  0  0  0  0  0  0  0  0  0  0
  152.7834  145.7325  159.3903 H   0  0  0  0  0  0  0  0  0  0  0  0
  153.6317  143.9434  158.0666 H   0  0  0  0  0  0  0  0  0  0  0  0
  152.0909  143.1038  158.0919 H   0  0  0  0  0  0  0  0  0  0  0  0
  1  2  2  0  0  0  0
  2  3  1  0  0  0  0
  2 13  1  0  0  0  0
  3  4  1  0  0  0  0
  3 19  1  0  0  0  0
  3 20  1  0  0  0  0
  4 11  1  0  0  0  0
  4  5  1  0  0  0  0
  5  6  2  0  0  0  0
  6  7  1  0  0  0  0
  6 21  1  0  0  0  0
  7  8  1  0  0  0  0
  7  9  2  0  0  0  0
  9 10  1  0  0  0  0
  9 11  1  0  0  0  0
 11 12  2  0  0  0  0
 13 14  1  0  0  0  0
 13 22  1  0  0  0  0
 14 18  1  0  0  0  0
 14 15  1  0  0  0  0
 14 23  1  0  0  0  0
 15 16  1  0  0  0  0
 15 24  1  0  0  0  0
 15 25  1  0  0  0  0
 16 17  1  0  0  0  0
 16 26  1  0  0  0  0
 16 27  1  0  0  0  0
 17 18  1  0  0  0  0
 17 28  1  0  0  0  0
 17 29  1  0  0  0  0
 18 30  1  0  0  0  0
 18 31  1  0  0  0  0
M  END
> <s_m_source_file>
AV-unprocessed.smi

> <i_m_source_file_index>
432

> <i_lp_mmshare_version>
43012

> <i_f3d_flags>
0

> <s_epik_input>
W0NIMl0xW0NIMl1bQ0gyXVtDSDJdW0NIXTFbTkhdQyg9TylbQ0gyXW4ybltjSF1jKENsKWMoQ2wpYzI9Tw==

> <s_epik_cmdline>
J2VwaWtfcHl0aG9uJywgJy1waCcsICc3LjAnLCAnLXRuJywgJzgnLCAnLW1hJywgJzIwMCcsICctbWV0YWxfYmluZGluZycsICctaW1hZScsICc8aW5maWxlLm1hZT4nLCAnLW9tYWUnLCAnPG91dGZpbGUubWFlPic=

> <r_lp_tautomer_probability>
1

> <r_epik_Ionization_Penalty>
1.93318e-08

> <r_epik_Ionization_Penalty_Charging>
3.01013e-11

> <r_epik_Ionization_Penalty_Neutral>
1.93017e-08

> <r_epik_State_Penalty>
-0

> <r_epik_Charging_Adjusted_Penalty>
3.01013e-11

> <i_epik_Tot_Q>
0

> <i_epik_Tot_abs_Q>
0

> <r_epik_Metal_State_Penalty>
-0

> <b_epik_Metal_Only>
0

> <s_lp_Force_Field>
OPLS_2005

> <r_lp_Energy>
31.6968

> <b_lp_Chiralities_Consistent>
1

> <s_lp_Variant>
AV-unprocessed.smi:432-1

> <Gold.Version>
5.8.1

> <Gold.Id.Protein>
6NUR|6NUR_protein|mol2

> <Gold.PLP.Fitness>
42.0726

> <Gold.PLP.PLP>
-37.1225

> <Gold.PLP.part.hbond>
-2.6934

> <Gold.PLP.part.metal>
0.0000

> <Gold.PLP.part.buried>
-5.5692

> <Gold.PLP.part.nonpolar>
-29.6108

> <Gold.PLP.part.repulsive>
0.1033

> <Gold.PLP.ligand.clash>
0.0000

> <Gold.PLP.ligand.torsion>
0.1076

> <Gold.PLP.Chemscore.Hbond>
1.7206

> <Gold.PLP.Chemscore.CHOScore>
0.0000

> <Gold.PLP.Chemscore.Metal>
0.0000

> <Gold.Chemscore.Hbonds>
donor molecule, donor type, donor heavy atom, donor atom, acceptor molecule, acceptor atom, score
      P1  H  6896  6908       L1    12  0.90
      P1  H  7997  8008       L1     5  0.45

> <Gold.PLP.Chemscore.Internal.Correction>
0.0035

> <Gold.Rescore>
     Score         DG    S(hbond)    S(metal)    S(lipo)     H(rot)  DE(clash)    DE(int)     intcor
     16.02     -16.21       0.99        0.00      97.08       1.53       0.01       0.18       ----

> <Gold.Chemscore.Fitness>
16.0220

> <Gold.Chemscore.DG>
-16.2127

> <Gold.Chemscore.ZeroCoef>
-5.4800

> <Gold.Chemscore.Hbond>
0.9855

> <Gold.Chemscore.Metal>
0.0000

> <Gold.Chemscore.Lipo>
97.0821

> <Gold.Chemscore.Internal_Hbond>
0.0000

> <Gold.Chemscore.DEClash>
0.0098

> <Gold.Chemscore.DEInternal>
0.1809

> <Gold.Chemscore.Rot>
1.5303

> <Gold.Chemscore.Internal.Correction>
   9.000000E+99

> <Gold.Chemscore.Hbonds>
donor molecule, donor type, donor heavy atom, donor atom, acceptor molecule, acceptor atom, score
      P1  H  6896  6908       L1    12  0.88
      P1  H  7997  8008       L1     5  0.02

> <Gold.Chemscore.Hbond.Weighted>
-3.2917

> <Gold.Chemscore.Metal.Weighted>
-0.0000

> <Gold.Chemscore.Lipo.Weighted>
-11.3586

> <Gold.Chemscore.Internal_Hbond.Weighted>
0.0000

> <Gold.Chemscore.DEClash.Weighted>
0.0098

> <Gold.Chemscore.DEInternal.Weighted>
0.1809

> <Gold.Chemscore.Rot.Weighted>
3.9176

> <Gold.Chemscore.Internal.Correction.Weighted>
   9.000000E+99

> <Gold.Protein.RotatedTorsions>
[ 6907 6896 6895 6894 ] final -143.40 input  -60.11 | X-H torsion
[ 7974 7965 7964 7962 ] final   41.76 input  175.53 | X-H torsion
[ 8008 7997 7996 7995 ] final  -59.28 input   59.86 | X-H torsion
[ 10167 10162 10161 10158 ] final   14.39 input  -65.29 | X-H torsion
[ 10718 10713 10712 10709 ] final   73.11 input   66.30 | X-H torsion
[ 10763 10752 10751 10750 ] final  133.88 input  -60.55 | X-H torsion
[ 11005 11000 10999 10996 ] final  122.49 input  -57.11 | X-H torsion

> <Gold.Protein.ActiveResidues>
 VAL166  LYS551  ARG553  GLY616  TRP617  ASP618  TYR619  PRO620  LYS621  CYS622 
 ASP623  PHE694  ASN695  SER759  ASP760  ASP761  ALA762  ILE779  LEU786  VAL792 
 PHE793  MET794  SER795  GLU796  ALA797  LYS798  CYS799  TRP800  GLU811  SER814 

> <Gold.Protein.RotatedAtoms>
  151.0999  133.5251  159.2610 H   0  0  0  0  0  0  0  0  0  0  0  0  # atno 6907 bound_to 6896
  151.2086  135.0471  159.8912 H   0  0  0  0  0  0  0  0  0  0  0  0  # atno 6908 bound_to 6896
  152.5442  134.0818  159.8292 H   0  0  0  0  0  0  0  0  0  0  0  0  # atno 6909 bound_to 6896
  146.0796  139.5378  142.9545 H   0  0  0  0  0  0  0  0  0  0  0  0  # atno 7974 bound_to 7965
  154.4345  140.1065  156.6090 H   0  0  0  0  0  0  0  0  0  0  0  0  # atno 8008 bound_to 7997
  155.5829  140.3491  155.4526 H   0  0  0  0  0  0  0  0  0  0  0  0  # atno 8009 bound_to 7997
  156.0305  140.1259  157.0253 H   0  0  0  0  0  0  0  0  0  0  0  0  # atno 8010 bound_to 7997
  140.5939  143.8740  150.6899 H   0  0  0  0  0  0  0  0  0  0  0  0  # atno 10167 bound_to 10162
  157.6532  130.9612  150.1023 H   0  0  0  0  0  0  0  0  0  0  0  0  # atno 10718 bound_to 10713
  153.8144  135.3124  155.3404 H   0  0  0  0  0  0  0  0  0  0  0  0  # atno 10763 bound_to 10752
  154.8038  135.4710  154.0345 H   0  0  0  0  0  0  0  0  0  0  0  0  # atno 10764 bound_to 10752
  153.1733  135.6881  153.8666 H   0  0  0  0  0  0  0  0  0  0  0  0  # atno 10765 bound_to 10752
  139.9270  134.9641  156.8117 H   0  0  0  0  0  0  0  0  0  0  0  0  # atno 11005 bound_to 11000
  145.6242  141.0317  143.1898 LP  0  0  0  0  0  0  0  0  0  0  0  0  # atno 17320 bound_to 7965
  144.7285  139.7801  143.7356 LP  0  0  0  0  0  0  0  0  0  0  0  0  # atno 17321 bound_to 7965
  140.2270  143.3765  152.1597 LP  0  0  0  0  0  0  0  0  0  0  0  0  # atno 17342 bound_to 10162
  139.5245  144.7085  151.5281 LP  0  0  0  0  0  0  0  0  0  0  0  0  # atno 17343 bound_to 10162
  156.1942  130.3656  149.8870 LP  0  0  0  0  0  0  0  0  0  0  0  0  # atno 17370 bound_to 10713
  156.6791  130.8851  151.3573 LP  0  0  0  0  0  0  0  0  0  0  0  0  # atno 17371 bound_to 10713
  140.6307  133.9908  155.7660 LP  0  0  0  0  0  0  0  0  0  0  0  0  # atno 17394 bound_to 11000
  141.0835  134.0026  157.3349 LP  0  0  0  0  0  0  0  0  0  0  0  0  # atno 17395 bound_to 11000

$$$$
