AV-unprocessed.smi:49|AV-procd|sdf|466|dock5
  -GOLD-   2262016333D 1   1.00000     0.00000
 Structure written by MMmdl.
 28 29  0  0  0  0  0  0  0  0  2 V2000
  152.4137  144.5337  158.5793 C   0  0  0  0  0  0  0  0  0  0  0  0
  152.5412  143.0208  158.7867 C   0  0  0  0  0  0  0  0  0  0  0  0
  151.7731  142.2356  157.7748 C   0  0  0  0  0  0  0  0  0  0  0  0
  151.0218  142.7568  156.8105 N   0  0  0  0  0  0  0  0  0  0  0  0
  150.5841  141.6161  156.1979 C   0  0  0  0  0  0  0  0  0  0  0  0
  149.7125  141.6487  154.9811 C   0  0  1  0  0  0  0  0  0  0  0  0
  149.3783  140.2542  154.4251 C   0  0  0  0  0  0  0  0  0  0  0  0
  147.8885  140.3062  154.0526 C   0  0  2  0  0  0  0  0  0  0  0  0
  147.6574  139.8544  152.7349 O   0  0  0  0  0  0  0  0  0  0  0  0
  147.4824  141.7729  154.2215 C   0  0  0  0  0  0  0  0  0  0  0  0
  148.4175  142.3100  155.2196 N   0  3  0  0  0  0  0  0  0  0  0  0
  151.0392  140.4704  156.7068 N   0  0  0  0  0  0  0  0  0  0  0  0
  151.8019  140.9019  157.7336 N   0  0  0  0  0  0  0  0  0  0  0  0
  150.2179  142.2216  154.2020 H   0  0  0  0  0  0  0  0  0  0  0  0
  147.3186  139.6873  154.7471 H   0  0  0  0  0  0  0  0  0  0  0  0
  152.3092  140.2791  158.3468 H   0  0  0  0  0  0  0  0  0  0  0  0
  152.9813  145.0781  159.3342 H   0  0  0  0  0  0  0  0  0  0  0  0
  151.3739  144.8545  158.6488 H   0  0  0  0  0  0  0  0  0  0  0  0
  152.7915  144.8293  157.6002 H   0  0  0  0  0  0  0  0  0  0  0  0
  153.5907  142.7268  158.7443 H   0  0  0  0  0  0  0  0  0  0  0  0
  152.1831  142.7528  159.7813 H   0  0  0  0  0  0  0  0  0  0  0  0
  150.0239  140.0113  153.5798 H   0  0  0  0  0  0  0  0  0  0  0  0
  149.5306  139.4794  155.1781 H   0  0  0  0  0  0  0  0  0  0  0  0
  148.3697  140.1446  152.1848 H   0  0  0  0  0  0  0  0  0  0  0  0
  147.6280  142.3250  153.2914 H   0  0  0  0  0  0  0  0  0  0  0  0
  146.4432  141.8935  154.5287 H   0  0  0  0  0  0  0  0  0  0  0  0
  148.0956  142.0407  156.1386 H   0  0  0  0  0  0  0  0  0  0  0  0
  148.4958  143.3154  155.1641 H   0  0  0  0  0  0  0  0  0  0  0  0
  1  2  1  0  0  0  0
  1 17  1  0  0  0  0
  1 18  1  0  0  0  0
  1 19  1  0  0  0  0
  2  3  1  0  0  0  0
  2 20  1  0  0  0  0
  2 21  1  0  0  0  0
  3 13  1  0  0  0  0
  3  4  2  0  0  0  0
  4  5  1  0  0  0  0
  5  6  1  0  0  0  0
  5 12  2  0  0  0  0
  6 14  1  0  0  0  0
  6 11  1  0  0  0  0
  6  7  1  0  0  0  0
  7  8  1  0  0  0  0
  7 22  1  0  0  0  0
  7 23  1  0  0  0  0
  8 15  1  0  0  0  0
  8  9  1  0  0  0  0
  8 10  1  0  0  0  0
  9 24  1  0  0  0  0
 10 11  1  0  0  0  0
 10 25  1  0  0  0  0
 10 26  1  0  0  0  0
 11 27  1  0  0  0  0
 11 28  1  0  0  0  0
 12 13  1  0  0  0  0
 13 16  1  0  0  0  0
M  CHG  1  11   1
M  END
> <s_m_source_file>
AV-unprocessed.smi

> <i_m_source_file_index>
49

> <i_lp_mmshare_version>
43012

> <i_f3d_flags>
0

> <s_epik_input>
W0NIM11bQ0gyXWMxbmMobltuSF0xKVtDQEBIXTJbQ0gyXVtDQEBIXShbT0hdKVtDSDJdW05IXTI=

> <s_epik_cmdline>
J2VwaWtfcHl0aG9uJywgJy1waCcsICc3LjAnLCAnLXRuJywgJzgnLCAnLW1hJywgJzIwMCcsICctbWV0YWxfYmluZGluZycsICctaW1hZScsICc8aW5maWxlLm1hZT4nLCAnLW9tYWUnLCAnPG91dGZpbGUubWFlPic=

> <r_lp_tautomer_probability>
0.948284

> <r_epik_Ionization_Penalty>
0.045643

> <r_epik_Ionization_Penalty_Charging>
0.0371552

> <r_epik_Ionization_Penalty_Neutral>
0.00848778

> <r_epik_State_Penalty>
0.283309

> <r_epik_Charging_Adjusted_Penalty>
0.320465

> <i_epik_Tot_Q>
1

> <i_epik_Tot_abs_Q>
1

> <r_epik_Metal_State_Penalty>
0.558162

> <b_epik_Metal_Only>
0

> <s_lp_Force_Field>
OPLS_2005

> <r_lp_Energy>
17.9317

> <b_lp_Chiralities_Consistent>
1

> <s_lp_Variant>
AV-unprocessed.smi:49-4

> <Gold.Version>
5.8.1

> <Gold.Id.Protein>
6NUR|6NUR_protein|mol2

> <Gold.PLP.Fitness>
36.2115

> <Gold.PLP.PLP>
-27.2249

> <Gold.PLP.part.hbond>
-1.6149

> <Gold.PLP.part.metal>
0.0000

> <Gold.PLP.part.buried>
-3.8543

> <Gold.PLP.part.nonpolar>
-21.7511

> <Gold.PLP.part.repulsive>
0.6739

> <Gold.PLP.ligand.clash>
0.0000

> <Gold.PLP.ligand.torsion>
0.0146

> <Gold.PLP.Chemscore.Hbond>
3.0000

> <Gold.PLP.Chemscore.CHOScore>
0.0000

> <Gold.PLP.Chemscore.Metal>
0.0000

> <Gold.Chemscore.Hbonds>
donor molecule, donor type, donor heavy atom, donor atom, acceptor molecule, acceptor atom, score
      L1  H     9    24       P1  7957  1.00
      L1  H    11    28       P1  8028  1.95

> <Gold.PLP.Chemscore.Internal.Correction>
0.0157

> <Gold.Rescore>
     Score         DG    S(hbond)    S(metal)    S(lipo)     H(rot)  DE(clash)    DE(int)     intcor
     13.57     -13.63       1.98        0.00      54.39       1.89       0.05       0.01       ----

> <Gold.Chemscore.Fitness>
13.5657

> <Gold.Chemscore.DG>
-13.6280

> <Gold.Chemscore.ZeroCoef>
-5.4800

> <Gold.Chemscore.Hbond>
1.9816

> <Gold.Chemscore.Metal>
0.0000

> <Gold.Chemscore.Lipo>
54.3886

> <Gold.Chemscore.Internal_Hbond>
0.0000

> <Gold.Chemscore.DEClash>
0.0516

> <Gold.Chemscore.DEInternal>
0.0107

> <Gold.Chemscore.Rot>
1.8883

> <Gold.Chemscore.Internal.Correction>
   9.000000E+99

> <Gold.Chemscore.Hbonds>
donor molecule, donor type, donor heavy atom, donor atom, acceptor molecule, acceptor atom, score
      L1  H     9    24       P1  7957  0.97
      L1  H    11    28       P1  8028  0.90

> <Gold.Chemscore.Hbond.Weighted>
-6.6185

> <Gold.Chemscore.Metal.Weighted>
-0.0000

> <Gold.Chemscore.Lipo.Weighted>
-6.3635

> <Gold.Chemscore.Internal_Hbond.Weighted>
0.0000

> <Gold.Chemscore.DEClash.Weighted>
0.0516

> <Gold.Chemscore.DEInternal.Weighted>
0.0107

> <Gold.Chemscore.Rot.Weighted>
4.8340

> <Gold.Chemscore.Internal.Correction.Weighted>
   9.000000E+99

> <Gold.Protein.RotatedTorsions>
[ 6907 6896 6895 6894 ] final  157.95 input  -60.11 | X-H torsion
[ 7974 7965 7964 7962 ] final  102.78 input  175.53 | X-H torsion
[ 8008 7997 7996 7995 ] final  -95.42 input   59.86 | X-H torsion
[ 10167 10162 10161 10158 ] final   92.75 input  -65.29 | X-H torsion
[ 10718 10713 10712 10709 ] final  -58.57 input   66.30 | X-H torsion
[ 10763 10752 10751 10750 ] final  -72.60 input  -60.55 | X-H torsion
[ 11005 11000 10999 10996 ] final   31.52 input  -57.11 | X-H torsion

> <Gold.Protein.ActiveResidues>
 VAL166  LYS551  ARG553  GLY616  TRP617  ASP618  TYR619  PRO620  LYS621  CYS622 
 ASP623  PHE694  ASN695  SER759  ASP760  ASP761  ALA762  ILE779  LEU786  VAL792 
 PHE793  MET794  SER795  GLU796  ALA797  LYS798  CYS799  TRP800  GLU811  SER814 

> <Gold.Protein.RotatedAtoms>
  152.0076  133.3849  159.4206 H   0  0  0  0  0  0  0  0  0  0  0  0  # atno 6907 bound_to 6896
  150.6903  134.3766  159.5024 H   0  0  0  0  0  0  0  0  0  0  0  0  # atno 6908 bound_to 6896
  152.1522  134.8979  160.0598 H   0  0  0  0  0  0  0  0  0  0  0  0  # atno 6909 bound_to 6896
  145.3546  139.2431  143.3540 H   0  0  0  0  0  0  0  0  0  0  0  0  # atno 7974 bound_to 7965
  154.7611  140.0480  157.0974 H   0  0  0  0  0  0  0  0  0  0  0  0  # atno 8008 bound_to 7997
  154.9937  140.3116  155.4876 H   0  0  0  0  0  0  0  0  0  0  0  0  # atno 8009 bound_to 7997
  156.2904  140.2214  156.5043 H   0  0  0  0  0  0  0  0  0  0  0  0  # atno 8010 bound_to 7997
  139.8246  144.6715  150.9475 H   0  0  0  0  0  0  0  0  0  0  0  0  # atno 10167 bound_to 10162
  156.1125  130.4173  150.0595 H   0  0  0  0  0  0  0  0  0  0  0  0  # atno 10718 bound_to 10713
  154.4480  135.5924  153.6173 H   0  0  0  0  0  0  0  0  0  0  0  0  # atno 10763 bound_to 10752
  152.9811  135.6014  154.3640 H   0  0  0  0  0  0  0  0  0  0  0  0  # atno 10764 bound_to 10752
  154.3498  135.2841  155.2357 H   0  0  0  0  0  0  0  0  0  0  0  0  # atno 10765 bound_to 10752
  140.2830  134.2951  155.7795 H   0  0  0  0  0  0  0  0  0  0  0  0  # atno 11005 bound_to 11000
  146.2953  140.4168  142.8724 LP  0  0  0  0  0  0  0  0  0  0  0  0  # atno 17320 bound_to 7965
  144.8692  140.7249  143.6058 LP  0  0  0  0  0  0  0  0  0  0  0  0  # atno 17321 bound_to 7965
  140.7811  143.4058  151.1073 LP  0  0  0  0  0  0  0  0  0  0  0  0  # atno 17342 bound_to 10162
  139.7716  143.8485  152.3121 LP  0  0  0  0  0  0  0  0  0  0  0  0  # atno 17343 bound_to 10162
  156.8555  130.9473  151.3622 LP  0  0  0  0  0  0  0  0  0  0  0  0  # atno 17370 bound_to 10713
  157.6307  130.8727  149.9269 LP  0  0  0  0  0  0  0  0  0  0  0  0  # atno 17371 bound_to 10713
  141.2159  133.7537  156.9510 LP  0  0  0  0  0  0  0  0  0  0  0  0  # atno 17394 bound_to 11000
  140.1265  134.9383  157.2278 LP  0  0  0  0  0  0  0  0  0  0  0  0  # atno 17395 bound_to 11000

$$$$
