AV-unprocessed.smi:148|AV-procd|sdf|1230|dock4
  -GOLD-   2262018433D 1   1.00000     0.00000
 Structure written by MMmdl.
 63 67  0  0  0  0  0  0  0  0  1 V2000
  147.1426  135.8323  153.4836 O   0  0  0  0  0  0  0  0  0  0  0  0
  145.7577  135.6378  153.2908 C   0  0  0  0  0  0  0  0  0  0  0  0
  145.3933  134.1331  153.1984 C   0  0  2  0  0  0  0  0  0  0  0  0
  146.3402  133.2676  154.0700 C   0  0  0  0  0  0  0  0  0  0  0  0
  146.2575  133.5617  155.4905 N   0  0  0  0  0  0  0  0  0  0  0  0
  145.1128  133.6430  156.2509 C   0  0  0  0  0  0  0  0  0  0  0  0
  145.3025  133.9130  157.5133 N   0  0  0  0  0  0  0  0  0  0  0  0
  146.6813  134.0460  157.6291 C   0  0  0  0  0  0  0  0  0  0  0  0
  147.5690  134.3352  158.7050 C   0  0  0  0  0  0  0  0  0  0  0  0
  147.1938  134.5546  159.9867 N   0  0  0  0  0  0  0  0  0  0  0  0
  147.5195  135.9324  160.3583 C   0  0  0  0  0  0  0  0  0  0  0  0
  146.9077  136.3142  161.7126 C   0  0  0  0  0  0  0  0  0  0  0  0
  147.3354  135.3148  162.7916 C   0  0  0  0  0  0  0  0  0  0  0  0
  146.9446  133.8947  162.3645 C   0  0  0  0  0  0  0  0  0  0  0  0
  147.5498  133.5266  160.9826 C   0  0  1  0  0  0  0  0  0  0  0  0
  147.2009  132.0725  160.5301 C   0  0  1  0  0  0  0  0  0  0  0  0
  147.7973  130.9822  161.4461 C   0  0  0  0  0  0  0  0  0  0  0  0
  146.6079  130.2491  162.0680 C   0  0  0  0  0  0  0  0  0  0  0  0
  145.5250  130.3376  160.9985 C   0  0  0  0  0  0  0  0  0  0  0  0
  145.6900  131.7472  160.4250 C   0  0  2  0  0  0  0  0  0  0  0  0
  145.2219  131.7983  159.0930 O   0  0  0  0  0  0  0  0  0  0  0  0
  148.8988  134.3629  158.4407 N   0  0  0  0  0  0  0  0  0  0  0  0
  149.3385  134.1478  157.1972 C   0  0  0  0  0  0  0  0  0  0  0  0
  148.6329  133.8795  156.0963 N   0  0  0  0  0  0  0  0  0  0  0  0
  147.2963  133.8317  156.3636 C   0  0  0  0  0  0  0  0  0  0  0  0
  145.3904  133.6194  151.7314 C   0  0  1  0  0  0  0  0  0  0  0  0
  144.8007  132.2316  151.5394 C   0  0  0  0  0  0  0  0  0  0  0  0
  144.5240  132.1967  150.0405 C   0  0  0  0  0  0  0  0  0  0  0  0
  144.2103  133.5352  149.6765 O   0  0  0  0  0  0  0  0  0  0  0  0
  144.5199  134.4155  150.7519 C   0  0  0  0  0  0  0  0  0  0  0  0
  147.5883  135.6574  152.6687 H   0  0  0  0  0  0  0  0  0  0  0  0
  145.2041  136.1220  154.0957 H   0  0  0  0  0  0  0  0  0  0  0  0
  145.5078  136.1702  152.3742 H   0  0  0  0  0  0  0  0  0  0  0  0
  144.3872  134.0097  153.6028 H   0  0  0  0  0  0  0  0  0  0  0  0
  146.1159  132.2078  153.9503 H   0  0  0  0  0  0  0  0  0  0  0  0
  147.3733  133.4042  153.7480 H   0  0  0  0  0  0  0  0  0  0  0  0
  144.1266  133.4833  155.8396 H   0  0  0  0  0  0  0  0  0  0  0  0
  148.6040  136.0461  160.3996 H   0  0  0  0  0  0  0  0  0  0  0  0
  147.1584  136.6226  159.5938 H   0  0  0  0  0  0  0  0  0  0  0  0
  147.2152  137.3226  161.9905 H   0  0  0  0  0  0  0  0  0  0  0  0
  145.8197  136.3295  161.6339 H   0  0  0  0  0  0  0  0  0  0  0  0
  148.4134  135.3727  162.9469 H   0  0  0  0  0  0  0  0  0  0  0  0
  146.8665  135.5646  163.7437 H   0  0  0  0  0  0  0  0  0  0  0  0
  147.2717  133.1964  163.1336 H   0  0  0  0  0  0  0  0  0  0  0  0
  145.8575  133.8332  162.3422 H   0  0  0  0  0  0  0  0  0  0  0  0
  148.6322  133.5703  161.1049 H   0  0  0  0  0  0  0  0  0  0  0  0
  147.6563  131.8950  159.5552 H   0  0  0  0  0  0  0  0  0  0  0  0
  148.3678  130.2783  160.8382 H   0  0  0  0  0  0  0  0  0  0  0  0
  148.4865  131.3668  162.1975 H   0  0  0  0  0  0  0  0  0  0  0  0
  146.8455  129.2209  162.3423 H   0  0  0  0  0  0  0  0  0  0  0  0
  146.2803  130.7693  162.9690 H   0  0  0  0  0  0  0  0  0  0  0  0
  145.7182  129.5874  160.2296 H   0  0  0  0  0  0  0  0  0  0  0  0
  144.5246  130.1594  161.3944 H   0  0  0  0  0  0  0  0  0  0  0  0
  145.0930  132.4386  161.0164 H   0  0  0  0  0  0  0  0  0  0  0  0
  145.3771  130.9577  158.6885 H   0  0  0  0  0  0  0  0  0  0  0  0
  150.4095  134.1952  157.0657 H   0  0  0  0  0  0  0  0  0  0  0  0
  146.4136  133.6096  151.3523 H   0  0  0  0  0  0  0  0  0  0  0  0
  145.4695  131.4291  151.8513 H   0  0  0  0  0  0  0  0  0  0  0  0
  143.8666  132.1343  152.0950 H   0  0  0  0  0  0  0  0  0  0  0  0
  145.4177  131.8906  149.4956 H   0  0  0  0  0  0  0  0  0  0  0  0
  143.7167  131.5116  149.7808 H   0  0  0  0  0  0  0  0  0  0  0  0
  143.5835  134.7172  151.2233 H   0  0  0  0  0  0  0  0  0  0  0  0
  145.0178  135.3126  150.3836 H   0  0  0  0  0  0  0  0  0  0  0  0
  1  2  1  0  0  0  0
  1 31  1  0  0  0  0
  2  3  1  0  0  0  0
  2 32  1  0  0  0  0
  2 33  1  0  0  0  0
  3  4  1  0  0  0  0
  3 26  1  0  0  0  0
  3 34  1  0  0  0  0
  4  5  1  0  0  0  0
  4 35  1  0  0  0  0
  4 36  1  0  0  0  0
  5 25  1  0  0  0  0
  5  6  1  0  0  0  0
  6  7  2  0  0  0  0
  6 37  1  0  0  0  0
  7  8  1  0  0  0  0
  8 25  2  0  0  0  0
  8  9  1  0  0  0  0
  9 10  1  0  0  0  0
  9 22  2  0  0  0  0
 10 15  1  0  0  0  0
 10 11  1  0  0  0  0
 11 12  1  0  0  0  0
 11 38  1  0  0  0  0
 11 39  1  0  0  0  0
 12 13  1  0  0  0  0
 12 40  1  0  0  0  0
 12 41  1  0  0  0  0
 13 14  1  0  0  0  0
 13 42  1  0  0  0  0
 13 43  1  0  0  0  0
 14 15  1  0  0  0  0
 14 44  1  0  0  0  0
 14 45  1  0  0  0  0
 15 16  1  0  0  0  0
 15 46  1  0  0  0  0
 16 20  1  0  0  0  0
 16 17  1  0  0  0  0
 16 47  1  0  0  0  0
 17 18  1  0  0  0  0
 17 48  1  0  0  0  0
 17 49  1  0  0  0  0
 18 19  1  0  0  0  0
 18 50  1  0  0  0  0
 18 51  1  0  0  0  0
 19 20  1  0  0  0  0
 19 52  1  0  0  0  0
 19 53  1  0  0  0  0
 20 21  1  0  0  0  0
 20 54  1  0  0  0  0
 21 55  1  0  0  0  0
 22 23  1  0  0  0  0
 23 24  2  0  0  0  0
 23 56  1  0  0  0  0
 24 25  1  0  0  0  0
 26 30  1  0  0  0  0
 26 27  1  0  0  0  0
 26 57  1  0  0  0  0
 27 28  1  0  0  0  0
 27 58  1  0  0  0  0
 27 59  1  0  0  0  0
 28 29  1  0  0  0  0
 28 60  1  0  0  0  0
 28 61  1  0  0  0  0
 29 30  1  0  0  0  0
 30 62  1  0  0  0  0
 30 63  1  0  0  0  0
M  END
> <s_m_source_file>
AV-unprocessed.smi

> <i_m_source_file_index>
148

> <i_lp_mmshare_version>
43012

> <i_f3d_flags>
0

> <s_epik_input>
W0NIMl0xT1tDSDJdW0NIMl1bQ0BIXTFbQ0BIXShbQ0gyXVtPSF0pW0NIMl1uKFtjSF1uMiljKGMyMyluW2NIXW5jM040W0NIMl1bQ0gyXVtDSDJdW0NIMl1bQ0BIXTRbQ0BASF01W0NIMl1bQ0gyXVtDSDJdW0NASF01W09IXQ==

> <s_epik_cmdline>
J2VwaWtfcHl0aG9uJywgJy1waCcsICc3LjAnLCAnLXRuJywgJzgnLCAnLW1hJywgJzIwMCcsICctbWV0YWxfYmluZGluZycsICctaW1hZScsICc8aW5maWxlLm1hZT4nLCAnLW9tYWUnLCAnPG91dGZpbGUubWFlPic=

> <r_lp_tautomer_probability>
1

> <r_epik_Ionization_Penalty>
0.00556303

> <r_epik_Ionization_Penalty_Charging>
0

> <r_epik_Ionization_Penalty_Neutral>
0.00556303

> <r_epik_State_Penalty>
0.00401767

> <r_epik_Charging_Adjusted_Penalty>
0.00401767

> <i_epik_Tot_Q>
0

> <i_epik_Tot_abs_Q>
0

> <r_epik_Metal_State_Penalty>
-0

> <b_epik_Metal_Only>
0

> <s_lp_Force_Field>
OPLS_2005

> <r_lp_Energy>
68.4818

> <b_lp_Chiralities_Consistent>
1

> <s_lp_Variant>
AV-unprocessed.smi:148-29

> <Gold.Version>
5.8.1

> <Gold.Id.Protein>
6NUR|6NUR_protein|mol2

> <Gold.PLP.Fitness>
43.7536

> <Gold.PLP.PLP>
-35.8612

> <Gold.PLP.part.hbond>
-1.9660

> <Gold.PLP.part.metal>
0.0000

> <Gold.PLP.part.buried>
-6.8277

> <Gold.PLP.part.nonpolar>
-28.7367

> <Gold.PLP.part.repulsive>
1.3806

> <Gold.PLP.ligand.clash>
0.0000

> <Gold.PLP.ligand.torsion>
0.6867

> <Gold.PLP.Chemscore.Hbond>
1.9280

> <Gold.PLP.Chemscore.CHOScore>
1.0000

> <Gold.PLP.Chemscore.Metal>
0.0000

> <Gold.Chemscore.Hbonds>
donor molecule, donor type, donor heavy atom, donor atom, acceptor molecule, acceptor atom, score
      L1  H     1    31       P1  7948  0.77
      P1  H  6896  6907       L1    22  0.85
      L1  C     6    37       P1 10957  1.00

> <Gold.PLP.Chemscore.Internal.Correction>
0.4817

> <Gold.Rescore>
     Score         DG    S(hbond)    S(metal)    S(lipo)     H(rot)  DE(clash)    DE(int)     intcor
     11.53     -12.31       1.29        0.00      94.20       3.32       0.01       0.77       ----

> <Gold.Chemscore.Fitness>
11.5258

> <Gold.Chemscore.DG>
-12.3065

> <Gold.Chemscore.ZeroCoef>
-5.4800

> <Gold.Chemscore.Hbond>
1.2890

> <Gold.Chemscore.Metal>
0.0000

> <Gold.Chemscore.Lipo>
94.1979

> <Gold.Chemscore.Internal_Hbond>
0.0000

> <Gold.Chemscore.DEClash>
0.0077

> <Gold.Chemscore.DEInternal>
0.7729

> <Gold.Chemscore.Rot>
3.3203

> <Gold.Chemscore.Internal.Correction>
   9.000000E+99

> <Gold.Chemscore.Hbonds>
donor molecule, donor type, donor heavy atom, donor atom, acceptor molecule, acceptor atom, score
      L1  H     1    31       P1  7948  0.76
      P1  H  6896  6907       L1    22  0.14

> <Gold.Chemscore.Hbond.Weighted>
-4.3053

> <Gold.Chemscore.Metal.Weighted>
-0.0000

> <Gold.Chemscore.Lipo.Weighted>
-11.0212

> <Gold.Chemscore.Internal_Hbond.Weighted>
0.0000

> <Gold.Chemscore.DEClash.Weighted>
0.0077

> <Gold.Chemscore.DEInternal.Weighted>
0.7729

> <Gold.Chemscore.Rot.Weighted>
8.5000

> <Gold.Chemscore.Internal.Correction.Weighted>
   9.000000E+99

> <Gold.Protein.RotatedTorsions>
[ 6907 6896 6895 6894 ] final  -98.97 input  -60.11 | X-H torsion
[ 7974 7965 7964 7962 ] final   89.22 input  175.53 | X-H torsion
[ 8008 7997 7996 7995 ] final   55.30 input   59.86 | X-H torsion
[ 10167 10162 10161 10158 ] final -107.30 input  -65.29 | X-H torsion
[ 10718 10713 10712 10709 ] final  116.43 input   66.30 | X-H torsion
[ 10763 10752 10751 10750 ] final  110.77 input  -60.55 | X-H torsion
[ 11005 11000 10999 10996 ] final  -11.95 input  -57.11 | X-H torsion

> <Gold.Protein.ActiveResidues>
 VAL166  LYS551  ARG553  GLY616  TRP617  ASP618  TYR619  PRO620  LYS621  CYS622 
 ASP623  PHE694  ASN695  SER759  ASP760  ASP761  ALA762  ILE779  LEU786  VAL792 
 PHE793  MET794  SER795  GLU796  ALA797  LYS798  CYS799  TRP800  GLU811  SER814 

> <Gold.Protein.RotatedAtoms>
  150.7064  134.1113  159.4000 H   0  0  0  0  0  0  0  0  0  0  0  0  # atno 6907 bound_to 6896
  151.9100  135.0341  160.0523 H   0  0  0  0  0  0  0  0  0  0  0  0  # atno 6908 bound_to 6896
  152.2344  133.5049  159.5271 H   0  0  0  0  0  0  0  0  0  0  0  0  # atno 6909 bound_to 6896
  145.5353  139.2285  143.2596 H   0  0  0  0  0  0  0  0  0  0  0  0  # atno 7974 bound_to 7965
  155.4989  140.3474  155.4367 H   0  0  0  0  0  0  0  0  0  0  0  0  # atno 8008 bound_to 7997
  156.0927  140.1415  156.9599 H   0  0  0  0  0  0  0  0  0  0  0  0  # atno 8009 bound_to 7997
  154.4644  140.0923  156.6959 H   0  0  0  0  0  0  0  0  0  0  0  0  # atno 8010 bound_to 7997
  140.1784  143.3986  152.1300 H   0  0  0  0  0  0  0  0  0  0  0  0  # atno 10167 bound_to 10162
  157.6161  131.1025  150.7472 H   0  0  0  0  0  0  0  0  0  0  0  0  # atno 10718 bound_to 10713
  153.4537  135.3738  155.2298 H   0  0  0  0  0  0  0  0  0  0  0  0  # atno 10763 bound_to 10752
  154.8756  135.3892  154.4008 H   0  0  0  0  0  0  0  0  0  0  0  0  # atno 10764 bound_to 10752
  153.4571  135.7086  153.6137 H   0  0  0  0  0  0  0  0  0  0  0  0  # atno 10765 bound_to 10752
  140.7606  133.8518  155.9122 H   0  0  0  0  0  0  0  0  0  0  0  0  # atno 11005 bound_to 11000
  146.2017  140.6171  142.9099 LP  0  0  0  0  0  0  0  0  0  0  0  0  # atno 17320 bound_to 7965
  144.7605  140.5410  143.6739 LP  0  0  0  0  0  0  0  0  0  0  0  0  # atno 17321 bound_to 7965
  139.5307  144.7155  151.5067 LP  0  0  0  0  0  0  0  0  0  0  0  0  # atno 17342 bound_to 10162
  140.6536  143.8646  150.6811 LP  0  0  0  0  0  0  0  0  0  0  0  0  # atno 17343 bound_to 10162
  156.7839  130.4868  149.5396 LP  0  0  0  0  0  0  0  0  0  0  0  0  # atno 17370 bound_to 10713
  156.1283  130.6160  151.0296 LP  0  0  0  0  0  0  0  0  0  0  0  0  # atno 17371 bound_to 10713
  140.9666  134.1586  157.4611 LP  0  0  0  0  0  0  0  0  0  0  0  0  # atno 17394 bound_to 11000
  139.8771  134.9964  156.5792 LP  0  0  0  0  0  0  0  0  0  0  0  0  # atno 17395 bound_to 11000

$$$$
