AV-unprocessed.smi:2453|AV-procd|sdf|9689|dock4
  -GOLD-   2272013323D 1   1.00000     0.00000
 Structure written by MMmdl.
 40 41  0  0  0  0  0  0  0  0  1 V2000
  146.3915  142.4707  154.0913 C   0  0  0  0  0  0  0  0  0  0  0  0
  147.4074  141.3447  154.1730 C   0  0  0  0  0  0  0  0  0  0  0  0
  148.7878  141.6399  154.1513 C   0  0  0  0  0  0  0  0  0  0  0  0
  149.7533  140.7008  154.2232 N   0  0  0  0  0  0  0  0  0  0  0  0
  149.3689  139.4123  154.3280 C   0  0  0  0  0  0  0  0  0  0  0  0
  148.0212  139.0044  154.3596 C   0  0  0  0  0  0  0  0  0  0  0  0
  147.0074  139.9890  154.2670 C   0  0  0  0  0  0  0  0  0  0  0  0
  145.6151  139.6905  154.3018 N   0  0  0  0  0  0  0  0  0  0  0  0
  144.9571  138.8004  155.0650 C   0  0  0  0  0  0  0  0  0  0  0  0
  145.4696  138.0571  155.9013 O   0  0  0  0  0  0  0  0  0  0  0  0
  143.6456  138.8056  154.7870 N   0  0  0  0  0  0  0  0  0  0  0  0
  142.6350  137.9649  155.4320 C   0  0  2  0  0  0  0  0  0  0  0  0
  143.1018  136.4942  155.5015 C   0  0  0  0  0  0  0  0  0  0  0  0
  143.1338  135.8287  154.1156 C   0  0  0  0  0  0  0  0  0  0  0  0
  141.7732  135.9440  153.4138 C   0  0  0  0  0  0  0  0  0  0  0  0
  141.3122  137.4075  153.3243 C   0  0  0  0  0  0  0  0  0  0  0  0
  141.2634  138.0789  154.7137 C   0  0  2  0  0  0  0  0  0  0  0  0
  140.7337  139.5251  154.6125 C   0  0  0  0  0  0  0  0  0  0  0  0
  141.4058  140.2366  153.5944 O   0  0  0  0  0  0  0  0  0  0  0  0
  146.8807  143.4409  154.0007 H   0  0  0  0  0  0  0  0  0  0  0  0
  145.7710  142.4890  154.9877 H   0  0  0  0  0  0  0  0  0  0  0  0
  145.7440  142.3382  153.2241 H   0  0  0  0  0  0  0  0  0  0  0  0
  149.1310  142.6612  154.0752 H   0  0  0  0  0  0  0  0  0  0  0  0
  150.1614  138.6817  154.3959 H   0  0  0  0  0  0  0  0  0  0  0  0
  147.7987  137.9542  154.4654 H   0  0  0  0  0  0  0  0  0  0  0  0
  145.0581  140.1730  153.6121 H   0  0  0  0  0  0  0  0  0  0  0  0
  143.3146  139.4430  154.0777 H   0  0  0  0  0  0  0  0  0  0  0  0
  142.5063  138.3209  156.4557 H   0  0  0  0  0  0  0  0  0  0  0  0
  144.0837  136.4251  155.9709 H   0  0  0  0  0  0  0  0  0  0  0  0
  142.4224  135.9361  156.1470 H   0  0  0  0  0  0  0  0  0  0  0  0
  143.9055  136.2925  153.4999 H   0  0  0  0  0  0  0  0  0  0  0  0
  143.4100  134.7788  154.2156 H   0  0  0  0  0  0  0  0  0  0  0  0
  141.8334  135.5112  152.4150 H   0  0  0  0  0  0  0  0  0  0  0  0
  141.0307  135.3598  153.9589 H   0  0  0  0  0  0  0  0  0  0  0  0
  141.9823  137.9614  152.6656 H   0  0  0  0  0  0  0  0  0  0  0  0
  140.3269  137.4445  152.8583 H   0  0  0  0  0  0  0  0  0  0  0  0
  140.5400  137.5179  155.3079 H   0  0  0  0  0  0  0  0  0  0  0  0
  139.6603  139.5474  154.4232 H   0  0  0  0  0  0  0  0  0  0  0  0
  140.8992  140.0519  155.5527 H   0  0  0  0  0  0  0  0  0  0  0  0
  140.8851  140.2002  152.8065 H   0  0  0  0  0  0  0  0  0  0  0  0
  1  2  1  0  0  0  0
  1 20  1  0  0  0  0
  1 21  1  0  0  0  0
  1 22  1  0  0  0  0
  2  7  1  0  0  0  0
  2  3  2  0  0  0  0
  3  4  1  0  0  0  0
  3 23  1  0  0  0  0
  4  5  2  0  0  0  0
  5  6  1  0  0  0  0
  5 24  1  0  0  0  0
  6  7  2  0  0  0  0
  6 25  1  0  0  0  0
  7  8  1  0  0  0  0
  8  9  1  0  0  0  0
  8 26  1  0  0  0  0
  9 10  2  0  0  0  0
  9 11  1  0  0  0  0
 11 12  1  0  0  0  0
 11 27  1  0  0  0  0
 12 17  1  0  0  0  0
 12 13  1  0  0  0  0
 12 28  1  0  0  0  0
 13 14  1  0  0  0  0
 13 29  1  0  0  0  0
 13 30  1  0  0  0  0
 14 15  1  0  0  0  0
 14 31  1  0  0  0  0
 14 32  1  0  0  0  0
 15 16  1  0  0  0  0
 15 33  1  0  0  0  0
 15 34  1  0  0  0  0
 16 17  1  0  0  0  0
 16 35  1  0  0  0  0
 16 36  1  0  0  0  0
 17 18  1  0  0  0  0
 17 37  1  0  0  0  0
 18 19  1  0  0  0  0
 18 38  1  0  0  0  0
 18 39  1  0  0  0  0
 19 40  1  0  0  0  0
M  END
> <s_m_source_file>
AV-unprocessed.smi

> <i_m_source_file_index>
2453

> <i_lp_mmshare_version>
43012

> <i_f3d_flags>
0

> <s_epik_input>
W0NIM11jMVtjSF1uW2NIXVtjSF1jMVtOSF1DKD1PKVtOSF1bQ0BASF0yW0NIMl1bQ0gyXVtDSDJdW0NIMl1bQ0BIXTJbQ0gyXVtPSF0=

> <s_epik_cmdline>
J2VwaWtfcHl0aG9uJywgJy1waCcsICc3LjAnLCAnLXRuJywgJzgnLCAnLW1hJywgJzIwMCcsICctbWV0YWxfYmluZGluZycsICctaW1hZScsICc8aW5maWxlLm1hZT4nLCAnLW9tYWUnLCAnPG91dGZpbGUubWFlPic=

> <r_epik_Ionization_Penalty>
0.210691

> <r_epik_Ionization_Penalty_Charging>
0

> <r_epik_Ionization_Penalty_Neutral>
0.210691

> <r_epik_State_Penalty>
0.200732

> <r_epik_Charging_Adjusted_Penalty>
0.200732

> <i_epik_Tot_Q>
0

> <i_epik_Tot_abs_Q>
0

> <r_epik_Metal_State_Penalty>
0.147519

> <b_epik_Metal_Only>
0

> <s_lp_Force_Field>
OPLS_2005

> <r_lp_Energy>
18.5766

> <b_lp_Chiralities_Consistent>
1

> <s_lp_Variant>
AV-unprocessed.smi:2453-3

> <Gold.Version>
5.8.1

> <Gold.Id.Protein>
6NUR|6NUR_protein|mol2

> <Gold.PLP.Fitness>
38.5303

> <Gold.PLP.PLP>
-25.7022

> <Gold.PLP.part.hbond>
-5.5982

> <Gold.PLP.part.metal>
0.0000

> <Gold.PLP.part.buried>
-1.4095

> <Gold.PLP.part.nonpolar>
-18.3495

> <Gold.PLP.part.repulsive>
0.1600

> <Gold.PLP.ligand.clash>
0.0000

> <Gold.PLP.ligand.torsion>
0.5315

> <Gold.PLP.Chemscore.Hbond>
3.6240

> <Gold.PLP.Chemscore.CHOScore>
1.0000

> <Gold.PLP.Chemscore.Metal>
0.0000

> <Gold.Chemscore.Hbonds>
donor molecule, donor type, donor heavy atom, donor atom, acceptor molecule, acceptor atom, score
      L1  H     8    26       P1 10175  1.00
      L1  H    11    27       P1 10175  1.00
      L1  H    19    40       P1 10160  1.00
      P1  H  7989  7998       L1     4  0.66
      L1  C     3    23       P1  8028  0.87

> <Gold.PLP.Chemscore.Internal.Correction>
0.0191

> <Gold.Rescore>
     Score         DG    S(hbond)    S(metal)    S(lipo)     H(rot)  DE(clash)    DE(int)     intcor
     15.03     -19.48       3.43        0.00      60.08       1.75       1.34       3.11       ----

> <Gold.Chemscore.Fitness>
15.0312

> <Gold.Chemscore.DG>
-19.4805

> <Gold.Chemscore.ZeroCoef>
-5.4800

> <Gold.Chemscore.Hbond>
3.4280

> <Gold.Chemscore.Metal>
0.0000

> <Gold.Chemscore.Lipo>
60.0789

> <Gold.Chemscore.Internal_Hbond>
0.0000

> <Gold.Chemscore.DEClash>
1.3442

> <Gold.Chemscore.DEInternal>
3.1051

> <Gold.Chemscore.Rot>
1.7493

> <Gold.Chemscore.Internal.Correction>
   9.000000E+99

> <Gold.Chemscore.Hbonds>
donor molecule, donor type, donor heavy atom, donor atom, acceptor molecule, acceptor atom, score
      L1  H     8    26       P1 10175  0.99
      L1  H    11    27       P1 10175  0.94
      L1  H    19    40       P1 10160  0.93
      P1  H  7989  7998       L1     4  0.54

> <Gold.Chemscore.Hbond.Weighted>
-11.4495

> <Gold.Chemscore.Metal.Weighted>
-0.0000

> <Gold.Chemscore.Lipo.Weighted>
-7.0292

> <Gold.Chemscore.Internal_Hbond.Weighted>
0.0000

> <Gold.Chemscore.DEClash.Weighted>
1.3442

> <Gold.Chemscore.DEInternal.Weighted>
3.1051

> <Gold.Chemscore.Rot.Weighted>
4.4782

> <Gold.Chemscore.Internal.Correction.Weighted>
   9.000000E+99

> <Gold.Protein.RotatedTorsions>
[ 6907 6896 6895 6894 ] final  178.05 input  -60.11 | X-H torsion
[ 7974 7965 7964 7962 ] final   65.45 input  175.53 | X-H torsion
[ 8008 7997 7996 7995 ] final  -18.95 input   59.86 | X-H torsion
[ 10167 10162 10161 10158 ] final  -73.93 input  -65.29 | X-H torsion
[ 10718 10713 10712 10709 ] final   27.56 input   66.30 | X-H torsion
[ 10763 10752 10751 10750 ] final  -84.03 input  -60.55 | X-H torsion
[ 11005 11000 10999 10996 ] final   95.96 input  -57.11 | X-H torsion

> <Gold.Protein.ActiveResidues>
 VAL166  LYS551  ARG553  GLY616  TRP617  ASP618  TYR619  PRO620  LYS621  CYS622 
 ASP623  PHE694  ASN695  SER759  ASP760  ASP761  ALA762  ILE779  LEU786  VAL792 
 PHE793  MET794  SER795  GLU796  ALA797  LYS798  CYS799  TRP800  GLU811  SER814 

> <Gold.Protein.RotatedAtoms>
  151.6941  133.3311  159.3249 H   0  0  0  0  0  0  0  0  0  0  0  0  # atno 6907 bound_to 6896
  150.7765  134.6672  159.6381 H   0  0  0  0  0  0  0  0  0  0  0  0  # atno 6908 bound_to 6896
  152.3809  134.6595  160.0195 H   0  0  0  0  0  0  0  0  0  0  0  0  # atno 6909 bound_to 6896
  145.8384  139.3180  143.0946 H   0  0  0  0  0  0  0  0  0  0  0  0  # atno 7974 bound_to 7965
  154.4870  140.2102  155.9633 H   0  0  0  0  0  0  0  0  0  0  0  0  # atno 8008 bound_to 7997
  156.1250  140.3207  155.8233 H   0  0  0  0  0  0  0  0  0  0  0  0  # atno 8009 bound_to 7997
  155.4399  140.0509  157.3002 H   0  0  0  0  0  0  0  0  0  0  0  0  # atno 8010 bound_to 7997
  140.5070  143.2351  151.7658 H   0  0  0  0  0  0  0  0  0  0  0  0  # atno 10167 bound_to 10162
  157.2218  130.6982  149.6273 H   0  0  0  0  0  0  0  0  0  0  0  0  # atno 10718 bound_to 10713
  154.5948  135.5535  153.7314 H   0  0  0  0  0  0  0  0  0  0  0  0  # atno 10763 bound_to 10752
  153.0131  135.6352  154.1799 H   0  0  0  0  0  0  0  0  0  0  0  0  # atno 10764 bound_to 10752
  154.1739  135.2890  155.3052 H   0  0  0  0  0  0  0  0  0  0  0  0  # atno 10765 bound_to 10752
  139.8785  134.8926  156.4088 H   0  0  0  0  0  0  0  0  0  0  0  0  # atno 11005 bound_to 11000
  145.9493  140.8921  143.0267 LP  0  0  0  0  0  0  0  0  0  0  0  0  # atno 17320 bound_to 7965
  144.6735  140.1658  143.7418 LP  0  0  0  0  0  0  0  0  0  0  0  0  # atno 17321 bound_to 7965
  139.4886  144.4444  151.9727 LP  0  0  0  0  0  0  0  0  0  0  0  0  # atno 17342 bound_to 10162
  140.3535  144.3060  150.5945 LP  0  0  0  0  0  0  0  0  0  0  0  0  # atno 17343 bound_to 10162
  155.9682  130.4517  150.5747 LP  0  0  0  0  0  0  0  0  0  0  0  0  # atno 17370 bound_to 10713
  157.3568  131.0743  151.1668 LP  0  0  0  0  0  0  0  0  0  0  0  0  # atno 17371 bound_to 10713
  140.9215  133.7641  155.9913 LP  0  0  0  0  0  0  0  0  0  0  0  0  # atno 17394 bound_to 11000
  140.8434  134.3040  157.5304 LP  0  0  0  0  0  0  0  0  0  0  0  0  # atno 17395 bound_to 11000

$$$$
