AV-unprocessed.smi:7|AV-procd|sdf|44|dock10
  -GOLD-   2262015163D 1   1.00000     0.00000
 Structure written by MMmdl.
 45 48  0  0  0  0  0  0  0  0  1 V2000
  151.7607  138.8163  155.2810 O   0  0  0  0  0  0  0  0  0  0  0  0
  151.4639  139.7815  155.9859 C   0  0  0  0  0  0  0  0  0  0  0  0
  152.1556  140.0746  157.2627 C   0  0  0  0  0  0  0  0  0  0  0  0
  153.1800  139.3905  157.9159 N   0  0  0  0  0  0  0  0  0  0  0  0
  153.3743  140.1249  159.0106 C   0  0  0  0  0  0  0  0  0  0  0  0
  152.5664  141.1984  159.0966 N   0  0  0  0  0  0  0  0  0  0  0  0
  152.6586  142.0846  160.1949 C   0  0  0  0  0  0  0  0  0  0  0  0
  153.3427  141.7063  161.3722 C   0  0  0  0  0  0  0  0  0  0  0  0
  153.4237  142.5963  162.4612 C   0  0  0  0  0  0  0  0  0  0  0  0
  152.8211  143.8665  162.3804 C   0  0  0  0  0  0  0  0  0  0  0  0
  152.1362  144.2467  161.2103 C   0  0  0  0  0  0  0  0  0  0  0  0
  152.0540  143.3581  160.1204 C   0  0  0  0  0  0  0  0  0  0  0  0
  151.7669  141.1839  157.9626 C   0  0  0  0  0  0  0  0  0  0  0  0
  150.7910  142.1009  157.6449 N   0  0  0  0  0  0  0  0  0  0  0  0
  150.1936  141.8109  156.5183 C   0  0  0  0  0  0  0  0  0  0  0  0
  150.4809  140.6830  155.6906 N   0  0  0  0  0  0  0  0  0  0  0  0
  149.6697  140.5391  154.4728 C   0  0  0  0  0  0  0  0  0  0  0  0
  148.2356  141.0971  154.6622 C   0  0  1  0  0  0  0  0  0  0  0  0
  148.2080  142.4022  154.1143 O   0  0  0  0  0  0  0  0  0  0  0  0
  147.1417  140.2277  153.9835 C   0  0  0  0  0  0  0  0  0  0  0  0
  145.8882  140.8382  154.2425 O   0  0  0  0  0  0  0  0  0  0  0  0
  147.2672  140.1080  152.4557 C   0  0  0  0  0  0  0  0  0  0  0  0
  146.4181  138.8889  152.0796 C   0  0  0  0  0  0  0  0  0  0  0  0
  146.4053  137.9782  153.3170 C   0  0  0  0  0  0  0  0  0  0  0  0
  147.0754  138.7643  154.4544 C   0  0  0  0  0  0  0  0  0  0  0  0
  154.1217  139.8747  159.7498 H   0  0  0  0  0  0  0  0  0  0  0  0
  153.8030  140.7320  161.4488 H   0  0  0  0  0  0  0  0  0  0  0  0
  153.9468  142.3033  163.3596 H   0  0  0  0  0  0  0  0  0  0  0  0
  152.8833  144.5485  163.2159 H   0  0  0  0  0  0  0  0  0  0  0  0
  151.6737  145.2208  161.1481 H   0  0  0  0  0  0  0  0  0  0  0  0
  151.5296  143.6598  159.2258 H   0  0  0  0  0  0  0  0  0  0  0  0
  149.4017  142.4510  156.1252 H   0  0  0  0  0  0  0  0  0  0  0  0
  150.1575  141.0026  153.6125 H   0  0  0  0  0  0  0  0  0  0  0  0
  149.6345  139.4822  154.2035 H   0  0  0  0  0  0  0  0  0  0  0  0
  147.9981  141.1801  155.7243 H   0  0  0  0  0  0  0  0  0  0  0  0
  148.2228  143.0266  154.8240 H   0  0  0  0  0  0  0  0  0  0  0  0
  145.3515  140.7552  153.4693 H   0  0  0  0  0  0  0  0  0  0  0  0
  146.9604  141.0124  151.9284 H   0  0  0  0  0  0  0  0  0  0  0  0
  148.3002  139.9069  152.1703 H   0  0  0  0  0  0  0  0  0  0  0  0
  145.4002  139.2065  151.8500 H   0  0  0  0  0  0  0  0  0  0  0  0
  146.8058  138.3800  151.1965 H   0  0  0  0  0  0  0  0  0  0  0  0
  145.3796  137.7175  153.5801 H   0  0  0  0  0  0  0  0  0  0  0  0
  146.9383  137.0455  153.1289 H   0  0  0  0  0  0  0  0  0  0  0  0
  148.0827  138.3723  154.5992 H   0  0  0  0  0  0  0  0  0  0  0  0
  146.5517  138.6471  155.4041 H   0  0  0  0  0  0  0  0  0  0  0  0
  1  2  2  0  0  0  0
  2 16  1  0  0  0  0
  2  3  1  0  0  0  0
  3 13  2  0  0  0  0
  3  4  1  0  0  0  0
  4  5  2  0  0  0  0
  5  6  1  0  0  0  0
  5 26  1  0  0  0  0
  6  7  1  0  0  0  0
  6 13  1  0  0  0  0
  7 12  1  0  0  0  0
  7  8  2  0  0  0  0
  8  9  1  0  0  0  0
  8 27  1  0  0  0  0
  9 10  2  0  0  0  0
  9 28  1  0  0  0  0
 10 11  1  0  0  0  0
 10 29  1  0  0  0  0
 11 12  2  0  0  0  0
 11 30  1  0  0  0  0
 12 31  1  0  0  0  0
 13 14  1  0  0  0  0
 14 15  2  0  0  0  0
 15 16  1  0  0  0  0
 15 32  1  0  0  0  0
 16 17  1  0  0  0  0
 17 18  1  0  0  0  0
 17 33  1  0  0  0  0
 17 34  1  0  0  0  0
 18 19  1  0  0  0  0
 18 20  1  0  0  0  0
 18 35  1  0  0  0  0
 19 36  1  0  0  0  0
 20 25  1  0  0  0  0
 20 21  1  0  0  0  0
 20 22  1  0  0  0  0
 21 37  1  0  0  0  0
 22 23  1  0  0  0  0
 22 38  1  0  0  0  0
 22 39  1  0  0  0  0
 23 24  1  0  0  0  0
 23 40  1  0  0  0  0
 23 41  1  0  0  0  0
 24 25  1  0  0  0  0
 24 42  1  0  0  0  0
 24 43  1  0  0  0  0
 25 44  1  0  0  0  0
 25 45  1  0  0  0  0
M  END
> <s_m_source_file>
AV-unprocessed.smi

> <i_m_source_file_index>
7

> <i_lp_mmshare_version>
43012

> <i_f3d_flags>
0

> <s_epik_input>
W0NIMl0xW0NIMl1bQ0gyXVtDSDJdQzEoW09IXSlbQ0BASF0oW09IXSlbQ0gyXW4oYzI9TylbY0hdbmMoYzIzKW4oW2NIXW4zKS1jNFtjSF1bY0hdW2NIXVtjSF1bY0hdNA==

> <s_epik_cmdline>
J2VwaWtfcHl0aG9uJywgJy1waCcsICc3LjAnLCAnLXRuJywgJzgnLCAnLW1hJywgJzIwMCcsICctbWV0YWxfYmluZGluZycsICctaW1hZScsICc8aW5maWxlLm1hZT4nLCAnLW9tYWUnLCAnPG91dGZpbGUubWFlPic=

> <r_lp_tautomer_probability>
1

> <r_epik_Ionization_Penalty>
0.000116694

> <r_epik_Ionization_Penalty_Charging>
6.60428e-09

> <r_epik_Ionization_Penalty_Neutral>
0.000116688

> <r_epik_State_Penalty>
-0

> <r_epik_Charging_Adjusted_Penalty>
6.60428e-09

> <i_epik_Tot_Q>
0

> <i_epik_Tot_abs_Q>
0

> <r_epik_Metal_State_Penalty>
-0

> <b_epik_Metal_Only>
0

> <s_lp_Force_Field>
OPLS_2005

> <r_lp_Energy>
52.8935

> <b_lp_Chiralities_Consistent>
1

> <s_lp_Variant>
AV-unprocessed.smi:7-2

> <Gold.Version>
5.8.1

> <Gold.Id.Protein>
6NUR|6NUR_protein|mol2

> <Gold.PLP.Fitness>
62.7477

> <Gold.PLP.PLP>
-53.0681

> <Gold.PLP.part.hbond>
-4.2260

> <Gold.PLP.part.metal>
0.0000

> <Gold.PLP.part.buried>
0.7461

> <Gold.PLP.part.nonpolar>
-48.3943

> <Gold.PLP.part.repulsive>
0.0855

> <Gold.PLP.ligand.clash>
0.0000

> <Gold.PLP.ligand.torsion>
1.0229

> <Gold.PLP.Chemscore.Hbond>
2.9044

> <Gold.PLP.Chemscore.CHOScore>
1.0000

> <Gold.PLP.Chemscore.Metal>
0.0000

> <Gold.Chemscore.Hbonds>
donor molecule, donor type, donor heavy atom, donor atom, acceptor molecule, acceptor atom, score
      L1  H    19    36       P1  8028  1.00
      L1  H    21    37       P1 10175  1.00
      P1  H  7997  8009       L1     4  0.76
      P1  H  8011  8017       L1    19  0.03
      L1  C    15    32       P1  8028  1.00

> <Gold.PLP.Chemscore.Internal.Correction>
0.0123

> <Gold.Rescore>
     Score         DG    S(hbond)    S(metal)    S(lipo)     H(rot)  DE(clash)    DE(int)     intcor
     15.94     -19.28       1.97        0.00     122.77       2.79       2.08       1.26       ----

> <Gold.Chemscore.Fitness>
15.9435

> <Gold.Chemscore.DG>
-19.2812

> <Gold.Chemscore.ZeroCoef>
-5.4800

> <Gold.Chemscore.Hbond>
1.9668

> <Gold.Chemscore.Metal>
0.0000

> <Gold.Chemscore.Lipo>
122.7727

> <Gold.Chemscore.Internal_Hbond>
0.0000

> <Gold.Chemscore.DEClash>
2.0825

> <Gold.Chemscore.DEInternal>
1.2553

> <Gold.Chemscore.Rot>
2.7860

> <Gold.Chemscore.Internal.Correction>
   9.000000E+99

> <Gold.Chemscore.Hbonds>
donor molecule, donor type, donor heavy atom, donor atom, acceptor molecule, acceptor atom, score
      L1  H    19    36       P1  8028  0.92
      L1  H    21    37       P1 10175  0.86
      P1  H  7997  8009       L1     4  0.03
      P1  H  8011  8017       L1    19  0.02

> <Gold.Chemscore.Hbond.Weighted>
-6.5689

> <Gold.Chemscore.Metal.Weighted>
-0.0000

> <Gold.Chemscore.Lipo.Weighted>
-14.3644

> <Gold.Chemscore.Internal_Hbond.Weighted>
0.0000

> <Gold.Chemscore.DEClash.Weighted>
2.0825

> <Gold.Chemscore.DEInternal.Weighted>
1.2553

> <Gold.Chemscore.Rot.Weighted>
7.1322

> <Gold.Chemscore.Internal.Correction.Weighted>
   9.000000E+99

> <Gold.Protein.RotatedTorsions>
[ 6907 6896 6895 6894 ] final   66.62 input  -60.11 | X-H torsion
[ 7974 7965 7964 7962 ] final  132.34 input  175.53 | X-H torsion
[ 8008 7997 7996 7995 ] final  155.25 input   59.86 | X-H torsion
[ 10167 10162 10161 10158 ] final -149.89 input  -65.29 | X-H torsion
[ 10718 10713 10712 10709 ] final -179.66 input   66.30 | X-H torsion
[ 10763 10752 10751 10750 ] final   70.21 input  -60.55 | X-H torsion
[ 11005 11000 10999 10996 ] final  139.71 input  -57.11 | X-H torsion

> <Gold.Protein.ActiveResidues>
 VAL166  LYS551  ARG553  GLY616  TRP617  ASP618  TYR619  PRO620  LYS621  CYS622 
 ASP623  PHE694  ASN695  SER759  ASP760  ASP761  ALA762  ILE779  LEU786  VAL792 
 PHE793  MET794  SER795  GLU796  ALA797  LYS798  CYS799  TRP800  GLU811  SER814 

> <Gold.Protein.RotatedAtoms>
  152.4494  134.5426  159.9843 H   0  0  0  0  0  0  0  0  0  0  0  0  # atno 6907 bound_to 6896
  151.5502  133.3413  159.2959 H   0  0  0  0  0  0  0  0  0  0  0  0  # atno 6908 bound_to 6896
  150.8419  134.7746  159.7002 H   0  0  0  0  0  0  0  0  0  0  0  0  # atno 6909 bound_to 6896
  144.9979  139.4341  143.5307 H   0  0  0  0  0  0  0  0  0  0  0  0  # atno 7974 bound_to 7965
  156.2488  140.1944  156.6773 H   0  0  0  0  0  0  0  0  0  0  0  0  # atno 8008 bound_to 7997
  154.6348  140.0591  156.9802 H   0  0  0  0  0  0  0  0  0  0  0  0  # atno 8009 bound_to 7997
  155.1654  140.3263  155.4406 H   0  0  0  0  0  0  0  0  0  0  0  0  # atno 8010 bound_to 7997
  139.7403  143.8673  152.2560 H   0  0  0  0  0  0  0  0  0  0  0  0  # atno 10167 bound_to 10162
  156.8624  130.9756  151.3082 H   0  0  0  0  0  0  0  0  0  0  0  0  # atno 10718 bound_to 10713
  153.0329  135.5182  154.7407 H   0  0  0  0  0  0  0  0  0  0  0  0  # atno 10763 bound_to 10752
  154.6407  135.2912  155.0109 H   0  0  0  0  0  0  0  0  0  0  0  0  # atno 10764 bound_to 10752
  154.1028  135.6634  153.4923 H   0  0  0  0  0  0  0  0  0  0  0  0  # atno 10765 bound_to 10752
  140.0274  134.9368  157.0595 H   0  0  0  0  0  0  0  0  0  0  0  0  # atno 11005 bound_to 11000
  146.3445  139.9349  142.8748 LP  0  0  0  0  0  0  0  0  0  0  0  0  # atno 17320 bound_to 7965
  145.2194  140.9929  143.4054 LP  0  0  0  0  0  0  0  0  0  0  0  0  # atno 17321 bound_to 7965
  139.8621  144.7112  150.9087 LP  0  0  0  0  0  0  0  0  0  0  0  0  # atno 17342 bound_to 10162
  140.7785  143.3809  151.1479 LP  0  0  0  0  0  0  0  0  0  0  0  0  # atno 17343 bound_to 10162
  157.6242  130.8679  149.9161 LP  0  0  0  0  0  0  0  0  0  0  0  0  # atno 17370 bound_to 10713
  156.0769  130.3678  150.0658 LP  0  0  0  0  0  0  0  0  0  0  0  0  # atno 17371 bound_to 10713
  140.4283  134.1807  155.7167 LP  0  0  0  0  0  0  0  0  0  0  0  0  # atno 17394 bound_to 11000
  141.1811  133.8412  157.1255 LP  0  0  0  0  0  0  0  0  0  0  0  0  # atno 17395 bound_to 11000

$$$$
