AV-unprocessed.smi:3046|AV-procd|sdf|11614|dock8
  -GOLD-   2272016593D 1   1.00000     0.00000
 Structure written by MMmdl.
 38 38  0  0  0  0  0  0  0  0  2 V2000
  152.3225  138.3433  154.4255 C   0  0  0  0  0  0  0  0  0  0  0  0
  150.9992  138.1479  154.5275 C   0  0  0  0  0  0  0  0  0  0  0  0
  149.9547  139.2279  154.3262 C   0  0  0  0  0  0  0  0  0  0  0  0
  148.8034  138.7261  153.5860 N   0  0  0  0  0  0  0  0  0  0  0  0
  147.5355  139.1306  153.7608 C   0  0  0  0  0  0  0  0  0  0  0  0
  147.2063  139.9866  154.5830 O   0  0  0  0  0  0  0  0  0  0  0  0
  146.4748  138.4535  152.8808 C   0  0  1  0  0  0  0  0  0  0  0  0
  146.7908  138.7044  151.3984 C   0  0  0  0  0  0  0  0  0  0  0  0
  146.3994  136.9938  153.1333 N   0  3  0  0  0  0  0  0  0  0  0  0
  145.1000  136.3437  152.8405 C   0  0  2  0  0  0  0  0  0  0  0  0
  144.9514  135.0900  153.7181 C   0  0  0  0  0  0  0  0  0  0  0  0
  144.9702  136.0225  151.3339 C   0  0  0  0  0  0  0  0  0  0  0  0
  145.2642  134.6345  151.0271 N   0  0  0  0  0  0  0  0  0  0  0  0
  144.4721  133.7093  150.3794 C   0  0  0  0  0  0  0  0  0  0  0  0
  145.1728  132.5384  150.3319 C   0  0  0  0  0  0  0  0  0  0  0  0
  146.3951  132.8479  150.9915 C   0  0  0  0  0  0  0  0  0  0  0  0
  146.4451  134.1026  151.4095 N   0  0  0  0  0  0  0  0  0  0  0  0
  152.7302  139.3137  154.1824 H   0  0  0  0  0  0  0  0  0  0  0  0
  153.0171  137.5315  154.5850 H   0  0  0  0  0  0  0  0  0  0  0  0
  150.6314  137.1632  154.7777 H   0  0  0  0  0  0  0  0  0  0  0  0
  149.6448  139.6140  155.2986 H   0  0  0  0  0  0  0  0  0  0  0  0
  150.3854  140.0660  153.7769 H   0  0  0  0  0  0  0  0  0  0  0  0
  148.9858  138.0134  152.8939 H   0  0  0  0  0  0  0  0  0  0  0  0
  145.5045  138.9016  153.0955 H   0  0  0  0  0  0  0  0  0  0  0  0
  146.8409  139.7715  151.1770 H   0  0  0  0  0  0  0  0  0  0  0  0
  146.0198  138.2761  150.7570 H   0  0  0  0  0  0  0  0  0  0  0  0
  147.7452  138.2605  151.1107 H   0  0  0  0  0  0  0  0  0  0  0  0
  147.1099  136.5300  152.5862 H   0  0  0  0  0  0  0  0  0  0  0  0
  144.3001  137.0284  153.1253 H   0  0  0  0  0  0  0  0  0  0  0  0
  143.9727  134.6259  153.5935 H   0  0  0  0  0  0  0  0  0  0  0  0
  145.0564  135.3383  154.7749 H   0  0  0  0  0  0  0  0  0  0  0  0
  145.7076  134.3430  153.4749 H   0  0  0  0  0  0  0  0  0  0  0  0
  143.9643  136.2347  150.9715 H   0  0  0  0  0  0  0  0  0  0  0  0
  145.6465  136.6536  150.7555 H   0  0  0  0  0  0  0  0  0  0  0  0
  143.4890  133.9579  150.0076 H   0  0  0  0  0  0  0  0  0  0  0  0
  144.8595  131.6020  149.8945 H   0  0  0  0  0  0  0  0  0  0  0  0
  147.2409  132.2027  151.1785 H   0  0  0  0  0  0  0  0  0  0  0  0
  146.6083  136.8539  154.1119 H   0  0  0  0  0  0  0  0  0  0  0  0
  1  2  2  0  0  0  0
  1 18  1  0  0  0  0
  1 19  1  0  0  0  0
  2  3  1  0  0  0  0
  2 20  1  0  0  0  0
  3  4  1  0  0  0  0
  3 21  1  0  0  0  0
  3 22  1  0  0  0  0
  4  5  1  0  0  0  0
  4 23  1  0  0  0  0
  5  6  2  0  0  0  0
  5  7  1  0  0  0  0
  7  8  1  0  0  0  0
  7  9  1  0  0  0  0
  7 24  1  0  0  0  0
  8 25  1  0  0  0  0
  8 26  1  0  0  0  0
  8 27  1  0  0  0  0
  9 10  1  0  0  0  0
  9 28  1  0  0  0  0
  9 38  1  0  0  0  0
 10 11  1  0  0  0  0
 10 12  1  0  0  0  0
 10 29  1  0  0  0  0
 11 30  1  0  0  0  0
 11 31  1  0  0  0  0
 11 32  1  0  0  0  0
 12 13  1  0  0  0  0
 12 33  1  0  0  0  0
 12 34  1  0  0  0  0
 13 17  1  0  0  0  0
 13 14  1  0  0  0  0
 14 15  2  0  0  0  0
 14 35  1  0  0  0  0
 15 16  1  0  0  0  0
 15 36  1  0  0  0  0
 16 17  2  0  0  0  0
 16 37  1  0  0  0  0
M  CHG  1   9   1
M  END
> <s_m_source_file>
AV-unprocessed.smi

> <i_m_source_file_index>
3046

> <i_lp_mmshare_version>
43012

> <i_f3d_flags>
0

> <s_epik_input>
W0NIMl09W0NIXVtDSDJdW05IXUMoPU8pW0NASF0oW0NIM10pW05IXVtDQEhdKFtDSDNdKVtDSDJdbjFbY0hdW2NIXVtjSF1uMQ==

> <s_epik_cmdline>
J2VwaWtfcHl0aG9uJywgJy1waCcsICc3LjAnLCAnLXRuJywgJzgnLCAnLW1hJywgJzIwMCcsICctbWV0YWxfYmluZGluZycsICctaW1hZScsICc8aW5maWxlLm1hZT4nLCAnLW9tYWUnLCAnPG91dGZpbGUubWFlPic=

> <r_lp_tautomer_probability>
1

> <r_epik_Ionization_Penalty>
0.132961

> <r_epik_Ionization_Penalty_Charging>
0.132956

> <r_epik_Ionization_Penalty_Neutral>
5.00268e-06

> <r_epik_State_Penalty>
0.122332

> <r_epik_Charging_Adjusted_Penalty>
0.255288

> <i_epik_Tot_Q>
1

> <i_epik_Tot_abs_Q>
1

> <r_epik_Metal_State_Penalty>
0.122338

> <b_epik_Metal_Only>
0

> <s_lp_Force_Field>
OPLS_2005

> <r_lp_Energy>
6.33671

> <b_lp_Chiralities_Consistent>
1

> <s_lp_Variant>
AV-unprocessed.smi:3046-2

> <Gold.Version>
5.8.1

> <Gold.Id.Protein>
6NUR|6NUR_protein|mol2

> <Gold.PLP.Fitness>
45.0214

> <Gold.PLP.PLP>
-32.8232

> <Gold.PLP.part.hbond>
-3.0000

> <Gold.PLP.part.metal>
0.0000

> <Gold.PLP.part.buried>
-2.3273

> <Gold.PLP.part.nonpolar>
-28.1470

> <Gold.PLP.part.repulsive>
0.3369

> <Gold.PLP.ligand.clash>
0.0000

> <Gold.PLP.ligand.torsion>
1.4207

> <Gold.PLP.Chemscore.Hbond>
3.0000

> <Gold.PLP.Chemscore.CHOScore>
2.0000

> <Gold.PLP.Chemscore.Metal>
0.0000

> <Gold.Chemscore.Hbonds>
donor molecule, donor type, donor heavy atom, donor atom, acceptor molecule, acceptor atom, score
      L1  H     4    23       P1  7948  1.00
      L1  H     9    28       P1  7948  2.00
      L1  C    14    35       P1 10186  0.92
      L1  C    16    37       P1 10747  1.00

> <Gold.PLP.Chemscore.Internal.Correction>
0.0397

> <Gold.Rescore>
     Score         DG    S(hbond)    S(metal)    S(lipo)     H(rot)  DE(clash)    DE(int)     intcor
     12.71     -15.55       1.96        0.00      79.59       2.26       0.32       2.52       ----

> <Gold.Chemscore.Fitness>
12.7094

> <Gold.Chemscore.DG>
-15.5541

> <Gold.Chemscore.ZeroCoef>
-5.4800

> <Gold.Chemscore.Hbond>
1.9622

> <Gold.Chemscore.Metal>
0.0000

> <Gold.Chemscore.Lipo>
79.5933

> <Gold.Chemscore.Internal_Hbond>
0.0000

> <Gold.Chemscore.DEClash>
0.3222

> <Gold.Chemscore.DEInternal>
2.5225

> <Gold.Chemscore.Rot>
2.2626

> <Gold.Chemscore.Internal.Correction>
   9.000000E+99

> <Gold.Chemscore.Hbonds>
donor molecule, donor type, donor heavy atom, donor atom, acceptor molecule, acceptor atom, score
      L1  H     4    23       P1  7948  0.93
      L1  H     9    28       P1  7948  0.95

> <Gold.Chemscore.Hbond.Weighted>
-6.5538

> <Gold.Chemscore.Metal.Weighted>
-0.0000

> <Gold.Chemscore.Lipo.Weighted>
-9.3124

> <Gold.Chemscore.Internal_Hbond.Weighted>
0.0000

> <Gold.Chemscore.DEClash.Weighted>
0.3222

> <Gold.Chemscore.DEInternal.Weighted>
2.5225

> <Gold.Chemscore.Rot.Weighted>
5.7922

> <Gold.Chemscore.Internal.Correction.Weighted>
   9.000000E+99

> <Gold.Protein.RotatedTorsions>
[ 6907 6896 6895 6894 ] final  -94.80 input  -60.11 | X-H torsion
[ 7974 7965 7964 7962 ] final  -90.40 input  175.53 | X-H torsion
[ 8008 7997 7996 7995 ] final -131.90 input   59.86 | X-H torsion
[ 10167 10162 10161 10158 ] final  -86.58 input  -65.29 | X-H torsion
[ 10718 10713 10712 10709 ] final -112.45 input   66.30 | X-H torsion
[ 10763 10752 10751 10750 ] final  119.33 input  -60.55 | X-H torsion
[ 11005 11000 10999 10996 ] final  111.01 input  -57.11 | X-H torsion

> <Gold.Protein.ActiveResidues>
 VAL166  LYS551  ARG553  GLY616  TRP617  ASP618  TYR619  PRO620  LYS621  CYS622 
 ASP623  PHE694  ASN695  SER759  ASP760  ASP761  ALA762  ILE779  LEU786  VAL792 
 PHE793  MET794  SER795  GLU796  ALA797  LYS798  CYS799  TRP800  GLU811  SER814 

> <Gold.Protein.RotatedAtoms>
  150.6949  134.1756  159.4228 H   0  0  0  0  0  0  0  0  0  0  0  0  # atno 6907 bound_to 6896
  151.9733  135.0063  160.0563 H   0  0  0  0  0  0  0  0  0  0  0  0  # atno 6908 bound_to 6896
  152.1822  133.4680  159.5001 H   0  0  0  0  0  0  0  0  0  0  0  0  # atno 6909 bound_to 6896
  145.4270  140.9554  143.2149 H   0  0  0  0  0  0  0  0  0  0  0  0  # atno 7974 bound_to 7965
  155.3200  140.0461  157.3039 H   0  0  0  0  0  0  0  0  0  0  0  0  # atno 8008 bound_to 7997
  154.5385  140.2280  155.8647 H   0  0  0  0  0  0  0  0  0  0  0  0  # atno 8009 bound_to 7997
  156.1858  140.3063  155.9242 H   0  0  0  0  0  0  0  0  0  0  0  0  # atno 8010 bound_to 7997
  140.3927  143.2697  151.9243 H   0  0  0  0  0  0  0  0  0  0  0  0  # atno 10167 bound_to 10162
  156.0706  130.5921  150.8510 H   0  0  0  0  0  0  0  0  0  0  0  0  # atno 10718 bound_to 10713
  153.5813  135.3483  155.2876 H   0  0  0  0  0  0  0  0  0  0  0  0  # atno 10763 bound_to 10752
  154.8667  135.4183  154.2617 H   0  0  0  0  0  0  0  0  0  0  0  0  # atno 10764 bound_to 10752
  153.3404  135.7049  153.6942 H   0  0  0  0  0  0  0  0  0  0  0  0  # atno 10765 bound_to 10752
  139.8894  134.9498  156.6367 H   0  0  0  0  0  0  0  0  0  0  0  0  # atno 11005 bound_to 11000
  144.8208  139.5795  143.6988 LP  0  0  0  0  0  0  0  0  0  0  0  0  # atno 17320 bound_to 7965
  146.2627  139.6448  142.9351 LP  0  0  0  0  0  0  0  0  0  0  0  0  # atno 17321 bound_to 7965
  139.4788  144.5711  151.8086 LP  0  0  0  0  0  0  0  0  0  0  0  0  # atno 17342 bound_to 10162
  140.4822  144.1432  150.5934 LP  0  0  0  0  0  0  0  0  0  0  0  0  # atno 17343 bound_to 10162
  157.5775  131.0946  150.9323 LP  0  0  0  0  0  0  0  0  0  0  0  0  # atno 17370 bound_to 10713
  156.9525  130.5425  149.5283 LP  0  0  0  0  0  0  0  0  0  0  0  0  # atno 17371 bound_to 10713
  140.7625  133.8805  155.8429 LP  0  0  0  0  0  0  0  0  0  0  0  0  # atno 17394 bound_to 11000
  140.9910  134.1279  157.4408 LP  0  0  0  0  0  0  0  0  0  0  0  0  # atno 17395 bound_to 11000

$$$$
