AV-unprocessed.smi:1374|AV-procd|sdf|5588|dock3
  -GOLD-   22720 5193D 1   1.00000     0.00000
 Structure written by MMmdl.
 42 43  0  0  0  0  0  0  0  0  2 V2000
  145.1873  130.8923  151.2972 C   0  0  0  0  0  0  0  0  0  0  0  0
  145.8368  129.8016  152.1553 C   0  0  0  0  0  0  0  0  0  0  0  0
  146.6011  130.3754  153.3599 C   0  0  0  0  0  0  0  0  0  0  0  0
  147.8166  131.2533  152.9888 C   0  0  0  0  0  0  0  0  0  0  0  0
  148.4180  131.9302  154.1608 N   0  0  0  0  0  0  0  0  0  0  0  0
  148.4131  133.3504  154.2072 C   0  0  0  0  0  0  0  0  0  0  0  0
  147.8631  134.0577  153.1476 N   0  0  0  0  0  0  0  0  0  0  0  0
  148.9018  133.9983  155.2987 C   0  0  0  0  0  0  0  0  0  0  0  0
  148.9073  135.4072  155.3935 N   0  0  0  0  0  0  0  0  0  0  0  0
  147.5979  136.0683  155.3628 C   0  0  0  0  0  0  0  0  0  0  0  0
  150.0351  136.1751  155.4545 C   0  0  0  0  0  0  0  0  0  0  0  0
  151.1381  135.6650  155.6662 O   0  0  0  0  0  0  0  0  0  0  0  0
  149.8773  137.6133  155.2152 C   0  0  0  0  0  0  0  0  0  0  0  0
  150.5630  138.1830  154.1979 C   0  0  0  0  0  0  0  0  0  0  0  0
  150.4573  139.5069  153.8504 O   0  0  0  0  0  0  0  0  0  0  0  0
  149.3917  140.2075  154.4819 C   0  0  0  0  0  0  0  0  0  0  0  0
  149.2511  139.7716  155.9472 C   0  0  0  0  0  0  0  0  0  0  0  0
  149.0447  138.3664  156.0127 O   0  0  0  0  0  0  0  0  0  0  0  0
  149.4894  133.2058  156.3878 C   0  0  0  0  0  0  0  0  0  0  0  0
  149.9877  133.7661  157.3644 O   0  0  0  0  0  0  0  0  0  0  0  0
  149.4641  131.8528  156.2700 N   0  5  0  0  0  0  0  0  0  0  0  0
  148.9398  131.1994  155.1948 C   0  0  0  0  0  0  0  0  0  0  0  0
  148.9190  129.9692  155.1379 O   0  0  0  0  0  0  0  0  0  0  0  0
  144.6467  130.4541  150.4583 H   0  0  0  0  0  0  0  0  0  0  0  0
  145.9362  131.5735  150.8924 H   0  0  0  0  0  0  0  0  0  0  0  0
  144.4772  131.4799  151.8798 H   0  0  0  0  0  0  0  0  0  0  0  0
  145.0594  129.1189  152.4991 H   0  0  0  0  0  0  0  0  0  0  0  0
  146.5156  129.2126  151.5380 H   0  0  0  0  0  0  0  0  0  0  0  0
  145.9159  130.9747  153.9602 H   0  0  0  0  0  0  0  0  0  0  0  0
  146.9181  129.5545  154.0030 H   0  0  0  0  0  0  0  0  0  0  0  0
  148.5431  130.6438  152.4498 H   0  0  0  0  0  0  0  0  0  0  0  0
  147.5172  131.9965  152.2494 H   0  0  0  0  0  0  0  0  0  0  0  0
  147.4671  133.5886  152.3460 H   0  0  0  0  0  0  0  0  0  0  0  0
  147.9419  135.0624  153.0855 H   0  0  0  0  0  0  0  0  0  0  0  0
  147.4506  136.6763  156.2564 H   0  0  0  0  0  0  0  0  0  0  0  0
  146.7781  135.3504  155.3140 H   0  0  0  0  0  0  0  0  0  0  0  0
  147.5117  136.7148  154.4881 H   0  0  0  0  0  0  0  0  0  0  0  0
  151.2383  137.6533  153.5412 H   0  0  0  0  0  0  0  0  0  0  0  0
  149.5826  141.2789  154.4193 H   0  0  0  0  0  0  0  0  0  0  0  0
  148.4661  140.0137  153.9384 H   0  0  0  0  0  0  0  0  0  0  0  0
  150.1454  140.0315  156.5156 H   0  0  0  0  0  0  0  0  0  0  0  0
  148.4103  140.2784  156.4211 H   0  0  0  0  0  0  0  0  0  0  0  0
  1  2  1  0  0  0  0
  1 24  1  0  0  0  0
  1 25  1  0  0  0  0
  1 26  1  0  0  0  0
  2  3  1  0  0  0  0
  2 27  1  0  0  0  0
  2 28  1  0  0  0  0
  3  4  1  0  0  0  0
  3 29  1  0  0  0  0
  3 30  1  0  0  0  0
  4  5  1  0  0  0  0
  4 31  1  0  0  0  0
  4 32  1  0  0  0  0
  5 22  1  0  0  0  0
  5  6  1  0  0  0  0
  6  7  1  0  0  0  0
  6  8  2  0  0  0  0
  7 33  1  0  0  0  0
  7 34  1  0  0  0  0
  8  9  1  0  0  0  0
  8 19  1  0  0  0  0
  9 10  1  0  0  0  0
  9 11  1  0  0  0  0
 10 35  1  0  0  0  0
 10 36  1  0  0  0  0
 10 37  1  0  0  0  0
 11 12  2  0  0  0  0
 11 13  1  0  0  0  0
 13 18  1  0  0  0  0
 13 14  2  0  0  0  0
 14 15  1  0  0  0  0
 14 38  1  0  0  0  0
 15 16  1  0  0  0  0
 16 17  1  0  0  0  0
 16 39  1  0  0  0  0
 16 40  1  0  0  0  0
 17 18  1  0  0  0  0
 17 41  1  0  0  0  0
 17 42  1  0  0  0  0
 19 20  2  0  0  0  0
 19 21  1  0  0  0  0
 21 22  1  0  0  0  0
 22 23  2  0  0  0  0
M  CHG  1  21  -1
M  END
> <s_m_source_file>
AV-unprocessed.smi

> <i_m_source_file_index>
1374

> <i_lp_mmshare_version>
43012

> <i_f3d_flags>
0

> <s_epik_input>
W0NIM11bQ0gyXVtDSDJdW0NIMl1uMWMoW05IMl0pYyhjKD1PKVtuSF1jMT1PKU4oW0NIM10pQyg9TylDMj1bQ0hdT1tDSDJdW0NIMl1PMg==

> <s_epik_cmdline>
J2VwaWtfcHl0aG9uJywgJy1waCcsICc3LjAnLCAnLXRuJywgJzgnLCAnLW1hJywgJzIwMCcsICctbWV0YWxfYmluZGluZycsICctaW1hZScsICc8aW5maWxlLm1hZT4nLCAnLW9tYWUnLCAnPG91dGZpbGUubWFlPic=

> <r_lp_tautomer_probability>
1

> <r_epik_Ionization_Penalty>
6.1831

> <r_epik_Ionization_Penalty_Charging>
0.183564

> <r_epik_Ionization_Penalty_Neutral>
5.99954

> <r_epik_State_Penalty>
5.99952

> <r_epik_Charging_Adjusted_Penalty>
6.18308

> <i_epik_Tot_Q>
-1

> <i_epik_Tot_abs_Q>
1

> <r_epik_Metal_State_Penalty>
1.93002

> <b_epik_Metal_Only>
1

> <s_epik_Chemistry_Notes>
This compound has an imine and may undergo hydrolysis.

> <s_lp_Force_Field>
OPLS_2005

> <r_lp_Energy>
38.087

> <b_lp_Chiralities_Consistent>
1

> <s_lp_Variant>
AV-unprocessed.smi:1374-2

> <Gold.Version>
5.8.1

> <Gold.Id.Protein>
6NUR|6NUR_protein|mol2

> <Gold.PLP.Fitness>
41.3512

> <Gold.PLP.PLP>
-28.9542

> <Gold.PLP.part.hbond>
-4.0000

> <Gold.PLP.part.metal>
0.0000

> <Gold.PLP.part.buried>
-0.8910

> <Gold.PLP.part.nonpolar>
-25.7032

> <Gold.PLP.part.repulsive>
1.2406

> <Gold.PLP.ligand.clash>
0.0000

> <Gold.PLP.ligand.torsion>
2.3352

> <Gold.PLP.Chemscore.Hbond>
3.5757

> <Gold.PLP.Chemscore.CHOScore>
0.9546

> <Gold.PLP.Chemscore.Metal>
0.0000

> <Gold.Chemscore.Hbonds>
donor molecule, donor type, donor heavy atom, donor atom, acceptor molecule, acceptor atom, score
      L1  H     7    34       P1  7948  0.61
      P1  H  6896  6907       L1    20  0.83
      P1  H  7989  7998       L1    15  1.00
      P1  H 10752 10765       L1    12  0.91
      L1  C    14    38       P1  7949  0.72

> <Gold.PLP.Chemscore.Internal.Correction>
3.4763

> <Gold.Rescore>
     Score         DG    S(hbond)    S(metal)    S(lipo)     H(rot)  DE(clash)    DE(int)     intcor
     12.75     -18.62       3.14        0.00      54.94       1.47       1.08       4.79       ----

> <Gold.Chemscore.Fitness>
12.7484

> <Gold.Chemscore.DG>
-18.6161

> <Gold.Chemscore.ZeroCoef>
-5.4800

> <Gold.Chemscore.Hbond>
3.1364

> <Gold.Chemscore.Metal>
0.0000

> <Gold.Chemscore.Lipo>
54.9385

> <Gold.Chemscore.Internal_Hbond>
0.0000

> <Gold.Chemscore.DEClash>
1.0765

> <Gold.Chemscore.DEInternal>
4.7912

> <Gold.Chemscore.Rot>
1.4715

> <Gold.Chemscore.Internal.Correction>
   9.000000E+99

> <Gold.Chemscore.Hbonds>
donor molecule, donor type, donor heavy atom, donor atom, acceptor molecule, acceptor atom, score
      L1  H     7    34       P1  7948  0.59
      P1  H  6896  6907       L1    20  0.78
      P1  H  7989  7998       L1    15  0.33
      P1  H 10752 10765       L1    12  0.86

> <Gold.Chemscore.Hbond.Weighted>
-10.4754

> <Gold.Chemscore.Metal.Weighted>
-0.0000

> <Gold.Chemscore.Lipo.Weighted>
-6.4278

> <Gold.Chemscore.Internal_Hbond.Weighted>
0.0000

> <Gold.Chemscore.DEClash.Weighted>
1.0765

> <Gold.Chemscore.DEInternal.Weighted>
4.7912

> <Gold.Chemscore.Rot.Weighted>
3.7671

> <Gold.Chemscore.Internal.Correction.Weighted>
   9.000000E+99

> <Gold.Protein.RotatedTorsions>
[ 6907 6896 6895 6894 ] final -132.86 input  -60.11 | X-H torsion
[ 7974 7965 7964 7962 ] final    7.77 input  175.53 | X-H torsion
[ 8008 7997 7996 7995 ] final  128.06 input   59.86 | X-H torsion
[ 10167 10162 10161 10158 ] final  -63.32 input  -65.29 | X-H torsion
[ 10718 10713 10712 10709 ] final  -58.19 input   66.30 | X-H torsion
[ 10763 10752 10751 10750 ] final -176.59 input  -60.55 | X-H torsion
[ 11005 11000 10999 10996 ] final   81.42 input  -57.11 | X-H torsion

> <Gold.Protein.ActiveResidues>
 VAL166  LYS551  ARG553  GLY616  TRP617  ASP618  TYR619  PRO620  LYS621  CYS622 
 ASP623  PHE694  ASN695  SER759  ASP760  ASP761  ALA762  ILE779  LEU786  VAL792 
 PHE793  MET794  SER795  GLU796  ALA797  LYS798  CYS799  TRP800  GLU811  SER814 

> <Gold.Protein.RotatedAtoms>
  150.9673  133.6381  159.2743 H   0  0  0  0  0  0  0  0  0  0  0  0  # atno 6907 bound_to 6896
  151.3683  135.0916  159.9466 H   0  0  0  0  0  0  0  0  0  0  0  0  # atno 6908 bound_to 6896
  152.5170  133.9232  159.7599 H   0  0  0  0  0  0  0  0  0  0  0  0  # atno 6909 bound_to 6896
  146.2423  140.0034  142.8413 H   0  0  0  0  0  0  0  0  0  0  0  0  # atno 7974 bound_to 7965
  156.2906  140.2654  156.2374 H   0  0  0  0  0  0  0  0  0  0  0  0  # atno 8008 bound_to 7997
  155.0011  140.0388  157.2379 H   0  0  0  0  0  0  0  0  0  0  0  0  # atno 8009 bound_to 7997
  154.7600  140.2759  155.6227 H   0  0  0  0  0  0  0  0  0  0  0  0  # atno 8010 bound_to 7997
  140.5879  143.2337  151.6203 H   0  0  0  0  0  0  0  0  0  0  0  0  # atno 10167 bound_to 10162
  156.1154  130.4171  150.0543 H   0  0  0  0  0  0  0  0  0  0  0  0  # atno 10718 bound_to 10713
  154.5705  135.2827  155.0832 H   0  0  0  0  0  0  0  0  0  0  0  0  # atno 10763 bound_to 10752
  154.2207  135.6391  153.5147 H   0  0  0  0  0  0  0  0  0  0  0  0  # atno 10764 bound_to 10752
  153.0056  135.5513  154.6326 H   0  0  0  0  0  0  0  0  0  0  0  0  # atno 10765 bound_to 10752
  139.9099  134.7995  156.2039 H   0  0  0  0  0  0  0  0  0  0  0  0  # atno 11005 bound_to 11000
  145.1394  140.9563  143.4497 LP  0  0  0  0  0  0  0  0  0  0  0  0  # atno 17320 bound_to 7965
  145.0310  139.3341  143.6024 LP  0  0  0  0  0  0  0  0  0  0  0  0  # atno 17321 bound_to 7965
  139.5209  144.3209  152.0911 LP  0  0  0  0  0  0  0  0  0  0  0  0  # atno 17342 bound_to 10162
  140.2369  144.4310  150.6276 LP  0  0  0  0  0  0  0  0  0  0  0  0  # atno 17343 bound_to 10162
  156.8496  130.9454  151.3626 LP  0  0  0  0  0  0  0  0  0  0  0  0  # atno 17370 bound_to 10713
  157.6337  130.8749  149.9319 LP  0  0  0  0  0  0  0  0  0  0  0  0  # atno 17371 bound_to 10713
  141.0508  133.6890  156.1768 LP  0  0  0  0  0  0  0  0  0  0  0  0  # atno 17394 bound_to 11000
  140.6813  134.4764  157.5589 LP  0  0  0  0  0  0  0  0  0  0  0  0  # atno 17395 bound_to 11000

$$$$
