AV-unprocessed.smi:3287|AV-procd|sdf|12592|dock6
  -GOLD-   2272018513D 1   1.00000     0.00000
 Structure written by MMmdl.
 43 44  0  0  0  0  0  0  0  0  2 V2000
  152.2530  144.0478  161.9513 C   0  0  0  0  0  0  0  0  0  0  0  0
  152.4730  143.9177  160.4334 C   0  0  2  0  0  0  0  0  0  0  0  0
  151.5004  144.8500  159.6830 C   0  0  0  0  0  0  0  0  0  0  0  0
  151.6749  144.7688  158.1577 C   0  0  0  0  0  0  0  0  0  0  0  0
  151.5354  143.3287  157.6367 C   0  0  2  0  0  0  0  0  0  0  0  0
  150.1283  142.8764  157.7361 N   0  3  0  0  0  0  0  0  0  0  0  0
  149.8344  141.5622  157.1249 C   0  0  0  0  0  0  0  0  0  0  0  0
  150.3333  141.4977  155.6712 C   0  0  2  0  0  0  0  0  0  0  0  0
  149.2757  141.8782  154.8118 O   0  0  0  0  0  0  0  0  0  0  0  0
  150.8638  140.1132  155.3342 C   0  0  0  0  0  0  0  0  0  0  0  0
  150.1734  139.2850  154.4246 C   0  0  0  0  0  0  0  0  0  0  0  0
  150.7042  138.0119  154.1355 C   0  0  0  0  0  0  0  0  0  0  0  0
  151.8451  137.5423  154.6839 N   0  0  0  0  0  0  0  0  0  0  0  0
  152.5038  138.3395  155.5520 C   0  0  0  0  0  0  0  0  0  0  0  0
  152.0593  139.6282  155.9084 C   0  0  0  0  0  0  0  0  0  0  0  0
  152.5075  142.3976  158.3909 C   0  0  0  0  0  0  0  0  0  0  0  0
  152.3354  142.4582  159.9247 C   0  0  1  0  0  0  0  0  0  0  0  0
  153.3276  141.4929  160.5976 C   0  0  0  0  0  0  0  0  0  0  0  0
  151.2808  143.6529  162.2475 H   0  0  0  0  0  0  0  0  0  0  0  0
  152.2951  145.0915  162.2642 H   0  0  0  0  0  0  0  0  0  0  0  0
  153.0180  143.5188  162.5189 H   0  0  0  0  0  0  0  0  0  0  0  0
  153.4876  144.2575  160.2194 H   0  0  0  0  0  0  0  0  0  0  0  0
  150.4725  144.5995  159.9484 H   0  0  0  0  0  0  0  0  0  0  0  0
  151.6529  145.8808  160.0056 H   0  0  0  0  0  0  0  0  0  0  0  0
  150.9555  145.4224  157.6627 H   0  0  0  0  0  0  0  0  0  0  0  0
  152.6620  145.1511  157.8934 H   0  0  0  0  0  0  0  0  0  0  0  0
  151.8016  143.3327  156.5785 H   0  0  0  0  0  0  0  0  0  0  0  0
  149.8644  142.8490  158.7111 H   0  0  0  0  0  0  0  0  0  0  0  0
  150.3255  140.7875  157.7155 H   0  0  0  0  0  0  0  0  0  0  0  0
  148.7641  141.3580  157.1575 H   0  0  0  0  0  0  0  0  0  0  0  0
  151.1406  142.2187  155.5338 H   0  0  0  0  0  0  0  0  0  0  0  0
  148.9708  142.7345  155.0722 H   0  0  0  0  0  0  0  0  0  0  0  0
  149.2572  139.6122  153.9548 H   0  0  0  0  0  0  0  0  0  0  0  0
  150.1989  137.3542  153.4437 H   0  0  0  0  0  0  0  0  0  0  0  0
  153.4137  137.9396  155.9743 H   0  0  0  0  0  0  0  0  0  0  0  0
  152.6273  140.2263  156.6061 H   0  0  0  0  0  0  0  0  0  0  0  0
  152.4063  141.3707  158.0412 H   0  0  0  0  0  0  0  0  0  0  0  0
  153.5292  142.6877  158.1406 H   0  0  0  0  0  0  0  0  0  0  0  0
  151.3306  142.1071  160.1640 H   0  0  0  0  0  0  0  0  0  0  0  0
  154.3576  141.8235  160.4618 H   0  0  0  0  0  0  0  0  0  0  0  0
  153.2443  140.4904  160.1774 H   0  0  0  0  0  0  0  0  0  0  0  0
  153.1422  141.4012  161.6673 H   0  0  0  0  0  0  0  0  0  0  0  0
  149.5507  143.5613  157.2698 H   0  0  0  0  0  0  0  0  0  0  0  0
  1  2  1  0  0  0  0
  1 19  1  0  0  0  0
  1 20  1  0  0  0  0
  1 21  1  0  0  0  0
  2 17  1  0  0  0  0
  2  3  1  0  0  0  0
  2 22  1  0  0  0  0
  3  4  1  0  0  0  0
  3 23  1  0  0  0  0
  3 24  1  0  0  0  0
  4  5  1  0  0  0  0
  4 25  1  0  0  0  0
  4 26  1  0  0  0  0
  5  6  1  0  0  0  0
  5 16  1  0  0  0  0
  5 27  1  0  0  0  0
  6  7  1  0  0  0  0
  6 28  1  0  0  0  0
  6 43  1  0  0  0  0
  7  8  1  0  0  0  0
  7 29  1  0  0  0  0
  7 30  1  0  0  0  0
  8  9  1  0  0  0  0
  8 10  1  0  0  0  0
  8 31  1  0  0  0  0
  9 32  1  0  0  0  0
 10 15  1  0  0  0  0
 10 11  2  0  0  0  0
 11 12  1  0  0  0  0
 11 33  1  0  0  0  0
 12 13  2  0  0  0  0
 12 34  1  0  0  0  0
 13 14  1  0  0  0  0
 14 15  2  0  0  0  0
 14 35  1  0  0  0  0
 15 36  1  0  0  0  0
 16 17  1  0  0  0  0
 16 37  1  0  0  0  0
 16 38  1  0  0  0  0
 17 18  1  0  0  0  0
 17 39  1  0  0  0  0
 18 40  1  0  0  0  0
 18 41  1  0  0  0  0
 18 42  1  0  0  0  0
M  CHG  1   6   1
M  END
> <s_m_source_file>
AV-unprocessed.smi

> <i_m_source_file_index>
3287

> <i_lp_mmshare_version>
43012

> <i_f3d_flags>
0

> <s_epik_input>
W0NIM11bQ0BASF0xW0NIMl1bQ0gyXVtDQEhdKFtDSDJdW0NASF0xW0NIM10pW05IXVtDSDJdW0NASF0oW09IXSljMltjSF1bY0hdbltjSF1bY0hdMg==

> <s_epik_cmdline>
J2VwaWtfcHl0aG9uJywgJy1waCcsICc3LjAnLCAnLXRuJywgJzgnLCAnLW1hJywgJzIwMCcsICctbWV0YWxfYmluZGluZycsICctaW1hZScsICc8aW5maWxlLm1hZT4nLCAnLW9tYWUnLCAnPG91dGZpbGUubWFlPic=

> <r_lp_tautomer_probability>
1

> <r_epik_Ionization_Penalty>
0.00537262

> <r_epik_Ionization_Penalty_Charging>
0.00321624

> <r_epik_Ionization_Penalty_Neutral>
0.00215638

> <r_epik_State_Penalty>
-0

> <r_epik_Charging_Adjusted_Penalty>
0.00321624

> <i_epik_Tot_Q>
1

> <i_epik_Tot_abs_Q>
1

> <r_epik_Metal_State_Penalty>
-0

> <b_epik_Metal_Only>
0

> <s_lp_Force_Field>
OPLS_2005

> <r_lp_Energy>
19.3861

> <b_lp_Chiralities_Consistent>
1

> <s_lp_Variant>
AV-unprocessed.smi:3287-3

> <Gold.Version>
5.8.1

> <Gold.Id.Protein>
6NUR|6NUR_protein|mol2

> <Gold.PLP.Fitness>
59.9158

> <Gold.PLP.PLP>
-47.5219

> <Gold.PLP.part.hbond>
-4.0398

> <Gold.PLP.part.metal>
0.0000

> <Gold.PLP.part.buried>
-2.5228

> <Gold.PLP.part.nonpolar>
-39.9406

> <Gold.PLP.part.repulsive>
0.1451

> <Gold.PLP.ligand.clash>
0.0000

> <Gold.PLP.ligand.torsion>
0.6783

> <Gold.PLP.Chemscore.Hbond>
3.4912

> <Gold.PLP.Chemscore.CHOScore>
1.0819

> <Gold.PLP.Chemscore.Metal>
0.0000

> <Gold.Chemscore.Hbonds>
donor molecule, donor type, donor heavy atom, donor atom, acceptor molecule, acceptor atom, score
      L1  H     6    43       P1  8028  1.76
      L1  H     9    32       P1  8028  0.93
      P1  H 10752 10765       L1    13  0.53
      L1  C    12    34       P1  7948  0.91
      L1  C    12    34       P1  7949  0.17

> <Gold.PLP.Chemscore.Internal.Correction>
0.0313

> <Gold.Rescore>
     Score         DG    S(hbond)    S(metal)    S(lipo)     H(rot)  DE(clash)    DE(int)     intcor
     23.49     -25.02       2.25        0.00     144.45       1.90       0.86       0.68       ----

> <Gold.Chemscore.Fitness>
23.4850

> <Gold.Chemscore.DG>
-25.0197

> <Gold.Chemscore.ZeroCoef>
-5.4800

> <Gold.Chemscore.Hbond>
2.2490

> <Gold.Chemscore.Metal>
0.0000

> <Gold.Chemscore.Lipo>
144.4511

> <Gold.Chemscore.Internal_Hbond>
0.0000

> <Gold.Chemscore.DEClash>
0.8585

> <Gold.Chemscore.DEInternal>
0.6762

> <Gold.Chemscore.Rot>
1.9035

> <Gold.Chemscore.Internal.Correction>
   9.000000E+99

> <Gold.Chemscore.Hbonds>
donor molecule, donor type, donor heavy atom, donor atom, acceptor molecule, acceptor atom, score
      L1  H     6    43       P1  8028  0.69
      L1  H     9    32       P1  8028  0.88
      P1  H 10752 10765       L1    13  0.39

> <Gold.Chemscore.Hbond.Weighted>
-7.5118

> <Gold.Chemscore.Metal.Weighted>
-0.0000

> <Gold.Chemscore.Lipo.Weighted>
-16.9008

> <Gold.Chemscore.Internal_Hbond.Weighted>
0.0000

> <Gold.Chemscore.DEClash.Weighted>
0.8585

> <Gold.Chemscore.DEInternal.Weighted>
0.6762

> <Gold.Chemscore.Rot.Weighted>
4.8729

> <Gold.Chemscore.Internal.Correction.Weighted>
   9.000000E+99

> <Gold.Protein.RotatedTorsions>
[ 6907 6896 6895 6894 ] final  123.49 input  -60.11 | X-H torsion
[ 7974 7965 7964 7962 ] final   89.55 input  175.53 | X-H torsion
[ 8008 7997 7996 7995 ] final  151.72 input   59.86 | X-H torsion
[ 10167 10162 10161 10158 ] final -164.89 input  -65.29 | X-H torsion
[ 10718 10713 10712 10709 ] final   22.62 input   66.30 | X-H torsion
[ 10763 10752 10751 10750 ] final  169.22 input  -60.55 | X-H torsion
[ 11005 11000 10999 10996 ] final  -52.63 input  -57.11 | X-H torsion

> <Gold.Protein.ActiveResidues>
 VAL166  LYS551  ARG553  GLY616  TRP617  ASP618  TYR619  PRO620  LYS621  CYS622 
 ASP623  PHE694  ASN695  SER759  ASP760  ASP761  ALA762  ILE779  LEU786  VAL792 
 PHE793  MET794  SER795  GLU796  ALA797  LYS798  CYS799  TRP800  GLU811  SER814 

> <Gold.Protein.RotatedAtoms>
  152.4157  133.7035  159.6437 H   0  0  0  0  0  0  0  0  0  0  0  0  # atno 6907 bound_to 6896
  150.8035  133.8543  159.3223 H   0  0  0  0  0  0  0  0  0  0  0  0  # atno 6908 bound_to 6896
  151.6274  135.1028  160.0166 H   0  0  0  0  0  0  0  0  0  0  0  0  # atno 6909 bound_to 6896
  145.5309  139.2283  143.2619 H   0  0  0  0  0  0  0  0  0  0  0  0  # atno 7974 bound_to 7965
  156.2661  140.2040  156.6221 H   0  0  0  0  0  0  0  0  0  0  0  0  # atno 8008 bound_to 7997
  154.6749  140.0546  157.0229 H   0  0  0  0  0  0  0  0  0  0  0  0  # atno 8009 bound_to 7997
  155.1084  140.3213  155.4531 H   0  0  0  0  0  0  0  0  0  0  0  0  # atno 8010 bound_to 7997
  139.6219  144.0607  152.1940 H   0  0  0  0  0  0  0  0  0  0  0  0  # atno 10167 bound_to 10162
  157.1548  130.6690  149.6024 H   0  0  0  0  0  0  0  0  0  0  0  0  # atno 10718 bound_to 10713
  154.3800  135.2753  155.2217 H   0  0  0  0  0  0  0  0  0  0  0  0  # atno 10763 bound_to 10752
  154.4327  135.5973  153.6083 H   0  0  0  0  0  0  0  0  0  0  0  0  # atno 10764 bound_to 10752
  152.9835  135.5999  154.4042 H   0  0  0  0  0  0  0  0  0  0  0  0  # atno 10765 bound_to 10752
  141.0934  133.6628  156.4053 H   0  0  0  0  0  0  0  0  0  0  0  0  # atno 11005 bound_to 11000
  146.2045  140.6125  142.9087 LP  0  0  0  0  0  0  0  0  0  0  0  0  # atno 17320 bound_to 7965
  144.7626  140.5458  143.6725 LP  0  0  0  0  0  0  0  0  0  0  0  0  # atno 17321 bound_to 7965
  140.0251  144.6123  150.7534 LP  0  0  0  0  0  0  0  0  0  0  0  0  # atno 17342 bound_to 10162
  140.7387  143.2782  151.3678 LP  0  0  0  0  0  0  0  0  0  0  0  0  # atno 17343 bound_to 10162
  155.9764  130.4732  150.6525 LP  0  0  0  0  0  0  0  0  0  0  0  0  # atno 17370 bound_to 10713
  157.4187  131.0834  151.1152 LP  0  0  0  0  0  0  0  0  0  0  0  0  # atno 17371 bound_to 10713
  140.5197  134.6316  157.5314 LP  0  0  0  0  0  0  0  0  0  0  0  0  # atno 17394 bound_to 11000
  139.9765  134.7207  155.9940 LP  0  0  0  0  0  0  0  0  0  0  0  0  # atno 17395 bound_to 11000

$$$$
