AV-unprocessed.smi:1341|AV-procd|sdf|5505|dock7
  -GOLD-   22720 5 83D 1   1.00000     0.00000
 Structure written by MMmdl.
 34 35  0  0  0  0  0  0  0  0  1 V2000
  146.3066  141.9582  154.2425 C   0  0  0  0  0  0  0  0  0  0  0  0
  147.6132  142.0629  154.5274 C   0  0  0  0  0  0  0  0  0  0  0  0
  148.6278  140.9550  154.3225 C   0  0  0  0  0  0  0  0  0  0  0  0
  149.5646  140.8739  155.4361 N   0  0  0  0  0  0  0  0  0  0  0  0
  150.7395  140.2227  155.4163 C   0  0  0  0  0  0  0  0  0  0  0  0
  151.1649  139.6161  154.4328 O   0  0  0  0  0  0  0  0  0  0  0  0
  151.5364  140.3151  156.6872 C   0  0  0  0  0  0  0  0  0  0  0  0
  151.5085  141.4985  157.3458 N   0  0  0  0  0  0  0  0  0  0  0  0
  152.1775  141.6074  158.5005 C   0  0  0  0  0  0  0  0  0  0  0  0
  152.1373  142.8437  159.1583 N   0  0  0  0  0  0  0  0  0  0  0  0
  152.7200  143.0352  160.4890 C   0  0  0  0  0  0  0  0  0  0  0  0
  151.9361  144.0942  161.2821 C   0  0  0  0  0  0  0  0  0  0  0  0
  151.8730  145.3046  160.5380 O   0  0  0  0  0  0  0  0  0  0  0  0
  151.1908  145.1236  159.3034 C   0  0  0  0  0  0  0  0  0  0  0  0
  151.9463  144.1035  158.4349 C   0  0  0  0  0  0  0  0  0  0  0  0
  152.8824  140.6222  159.0697 N   0  0  0  0  0  0  0  0  0  0  0  0
  152.9229  139.4317  158.4362 C   0  0  0  0  0  0  0  0  0  0  0  0
  152.2543  139.2127  157.2166 C   0  0  0  0  0  0  0  0  0  0  0  0
  152.3617  137.6704  156.4394 Cl  0  0  0  0  0  0  0  0  0  0  0  0
  145.8903  141.0457  153.8414 H   0  0  0  0  0  0  0  0  0  0  0  0
  145.6351  142.7878  154.4078 H   0  0  0  0  0  0  0  0  0  0  0  0
  147.9917  142.9943  154.9234 H   0  0  0  0  0  0  0  0  0  0  0  0
  148.1191  139.9957  154.2228 H   0  0  0  0  0  0  0  0  0  0  0  0
  149.1640  141.1273  153.3881 H   0  0  0  0  0  0  0  0  0  0  0  0
  149.3042  141.3458  156.2903 H   0  0  0  0  0  0  0  0  0  0  0  0
  152.7319  142.1142  161.0710 H   0  0  0  0  0  0  0  0  0  0  0  0
  153.7581  143.3481  160.3723 H   0  0  0  0  0  0  0  0  0  0  0  0
  150.9295  143.7412  161.5123 H   0  0  0  0  0  0  0  0  0  0  0  0
  152.4294  144.2899  162.2342 H   0  0  0  0  0  0  0  0  0  0  0  0
  150.1655  144.7965  159.4848 H   0  0  0  0  0  0  0  0  0  0  0  0
  151.1313  146.0824  158.7881 H   0  0  0  0  0  0  0  0  0  0  0  0
  152.9243  144.4991  158.1585 H   0  0  0  0  0  0  0  0  0  0  0  0
  151.3886  143.9657  157.5090 H   0  0  0  0  0  0  0  0  0  0  0  0
  153.4981  138.6480  158.9066 H   0  0  0  0  0  0  0  0  0  0  0  0
  1  2  2  0  0  0  0
  1 20  1  0  0  0  0
  1 21  1  0  0  0  0
  2  3  1  0  0  0  0
  2 22  1  0  0  0  0
  3  4  1  0  0  0  0
  3 23  1  0  0  0  0
  3 24  1  0  0  0  0
  4  5  1  0  0  0  0
  4 25  1  0  0  0  0
  5  6  2  0  0  0  0
  5  7  1  0  0  0  0
  7 18  1  0  0  0  0
  7  8  2  0  0  0  0
  8  9  1  0  0  0  0
  9 10  1  0  0  0  0
  9 16  2  0  0  0  0
 10 15  1  0  0  0  0
 10 11  1  0  0  0  0
 11 12  1  0  0  0  0
 11 26  1  0  0  0  0
 11 27  1  0  0  0  0
 12 13  1  0  0  0  0
 12 28  1  0  0  0  0
 12 29  1  0  0  0  0
 13 14  1  0  0  0  0
 14 15  1  0  0  0  0
 14 30  1  0  0  0  0
 14 31  1  0  0  0  0
 15 32  1  0  0  0  0
 15 33  1  0  0  0  0
 16 17  1  0  0  0  0
 17 18  2  0  0  0  0
 17 34  1  0  0  0  0
 18 19  1  0  0  0  0
M  END
> <s_m_source_file>
AV-unprocessed.smi

> <i_m_source_file_index>
1341

> <i_lp_mmshare_version>
43012

> <i_f3d_flags>
0

> <s_epik_input>
W0NIMl09W0NIXVtDSDJdW05IXUMoPU8pYzFuYyhuW2NIXWMxQ2wpTjJbQ0gyXVtDSDJdT1tDSDJdW0NIMl0y

> <s_epik_cmdline>
J2VwaWtfcHl0aG9uJywgJy1waCcsICc3LjAnLCAnLXRuJywgJzgnLCAnLW1hJywgJzIwMCcsICctbWV0YWxfYmluZGluZycsICctaW1hZScsICc8aW5maWxlLm1hZT4nLCAnLW9tYWUnLCAnPG91dGZpbGUubWFlPic=

> <r_lp_tautomer_probability>
1

> <r_epik_Ionization_Penalty>
2.38615e-05

> <r_epik_Ionization_Penalty_Charging>
0

> <r_epik_Ionization_Penalty_Neutral>
2.38615e-05

> <r_epik_State_Penalty>
-0

> <r_epik_Charging_Adjusted_Penalty>
0

> <i_epik_Tot_Q>
0

> <i_epik_Tot_abs_Q>
0

> <r_epik_Metal_State_Penalty>
0.0225026

> <b_epik_Metal_Only>
0

> <s_lp_Force_Field>
OPLS_2005

> <r_lp_Energy>
14.7295

> <b_lp_Chiralities_Consistent>
1

> <s_lp_Variant>
AV-unprocessed.smi:1341-1

> <Gold.Version>
5.8.1

> <Gold.Id.Protein>
6NUR|6NUR_protein|mol2

> <Gold.PLP.Fitness>
41.6635

> <Gold.PLP.PLP>
-40.5770

> <Gold.PLP.part.hbond>
-1.0000

> <Gold.PLP.part.metal>
0.0000

> <Gold.PLP.part.buried>
-3.3496

> <Gold.PLP.part.nonpolar>
-36.5344

> <Gold.PLP.part.repulsive>
0.4525

> <Gold.PLP.ligand.clash>
0.0000

> <Gold.PLP.ligand.torsion>
1.0122

> <Gold.PLP.Chemscore.Hbond>
1.0000

> <Gold.PLP.Chemscore.CHOScore>
0.0000

> <Gold.PLP.Chemscore.Metal>
0.0000

> <Gold.Chemscore.Hbonds>
donor molecule, donor type, donor heavy atom, donor atom, acceptor molecule, acceptor atom, score
      P1  H  7989  7998       L1     6  1.00

> <Gold.PLP.Chemscore.Internal.Correction>
0.1108

> <Gold.Rescore>
     Score         DG    S(hbond)    S(metal)    S(lipo)     H(rot)  DE(clash)    DE(int)     intcor
     14.66     -15.92       0.94        0.00      87.86       1.16       0.23       1.03       ----

> <Gold.Chemscore.Fitness>
14.6587

> <Gold.Chemscore.DG>
-15.9170

> <Gold.Chemscore.ZeroCoef>
-5.4800

> <Gold.Chemscore.Hbond>
0.9393

> <Gold.Chemscore.Metal>
0.0000

> <Gold.Chemscore.Lipo>
87.8634

> <Gold.Chemscore.Internal_Hbond>
0.0000

> <Gold.Chemscore.DEClash>
0.2326

> <Gold.Chemscore.DEInternal>
1.0257

> <Gold.Chemscore.Rot>
1.1641

> <Gold.Chemscore.Internal.Correction>
   9.000000E+99

> <Gold.Chemscore.Hbonds>
donor molecule, donor type, donor heavy atom, donor atom, acceptor molecule, acceptor atom, score
      P1  H  7989  7998       L1     6  0.30

> <Gold.Chemscore.Hbond.Weighted>
-3.1371

> <Gold.Chemscore.Metal.Weighted>
-0.0000

> <Gold.Chemscore.Lipo.Weighted>
-10.2800

> <Gold.Chemscore.Internal_Hbond.Weighted>
0.0000

> <Gold.Chemscore.DEClash.Weighted>
0.2326

> <Gold.Chemscore.DEInternal.Weighted>
1.0257

> <Gold.Chemscore.Rot.Weighted>
2.9802

> <Gold.Chemscore.Internal.Correction.Weighted>
   9.000000E+99

> <Gold.Protein.RotatedTorsions>
[ 6907 6896 6895 6894 ] final -160.14 input  -60.11 | X-H torsion
[ 7974 7965 7964 7962 ] final  152.99 input  175.53 | X-H torsion
[ 8008 7997 7996 7995 ] final   73.77 input   59.86 | X-H torsion
[ 10167 10162 10161 10158 ] final  103.50 input  -65.29 | X-H torsion
[ 10718 10713 10712 10709 ] final -122.25 input   66.30 | X-H torsion
[ 10763 10752 10751 10750 ] final   11.96 input  -60.55 | X-H torsion
[ 11005 11000 10999 10996 ] final  134.47 input  -57.11 | X-H torsion

> <Gold.Protein.ActiveResidues>
 VAL166  LYS551  ARG553  GLY616  TRP617  ASP618  TYR619  PRO620  LYS621  CYS622 
 ASP623  PHE694  ASN695  SER759  ASP760  ASP761  ALA762  ILE779  LEU786  VAL792 
 PHE793  MET794  SER795  GLU796  ALA797  LYS798  CYS799  TRP800  GLU811  SER814 

> <Gold.Protein.RotatedAtoms>
  151.3445  133.3949  159.2674 H   0  0  0  0  0  0  0  0  0  0  0  0  # atno 6907 bound_to 6896
  150.9851  134.9199  159.7877 H   0  0  0  0  0  0  0  0  0  0  0  0  # atno 6908 bound_to 6896
  152.5229  134.3409  159.9269 H   0  0  0  0  0  0  0  0  0  0  0  0  # atno 6909 bound_to 6896
  144.8185  139.6741  143.6111 H   0  0  0  0  0  0  0  0  0  0  0  0  # atno 7974 bound_to 7965
  155.7886  140.3480  155.5337 H   0  0  0  0  0  0  0  0  0  0  0  0  # atno 8008 bound_to 7997
  155.8657  140.0978  157.1604 H   0  0  0  0  0  0  0  0  0  0  0  0  # atno 8009 bound_to 7997
  154.4014  140.1350  156.4003 H   0  0  0  0  0  0  0  0  0  0  0  0  # atno 8010 bound_to 7997
  139.7258  144.7048  151.0800 H   0  0  0  0  0  0  0  0  0  0  0  0  # atno 10167 bound_to 10162
  156.1403  130.6461  150.9760 H   0  0  0  0  0  0  0  0  0  0  0  0  # atno 10718 bound_to 10713
  153.1872  135.6837  153.8399 H   0  0  0  0  0  0  0  0  0  0  0  0  # atno 10763 bound_to 10752
  153.7711  135.3196  155.3353 H   0  0  0  0  0  0  0  0  0  0  0  0  # atno 10764 bound_to 10752
  154.8096  135.4726  154.0578 H   0  0  0  0  0  0  0  0  0  0  0  0  # atno 10765 bound_to 10752
  139.9917  134.9512  156.9871 H   0  0  0  0  0  0  0  0  0  0  0  0  # atno 11005 bound_to 11000
  146.2489  139.6157  142.9440 LP  0  0  0  0  0  0  0  0  0  0  0  0  # atno 17320 bound_to 7965
  145.5160  141.0434  143.2462 LP  0  0  0  0  0  0  0  0  0  0  0  0  # atno 17321 bound_to 7965
  140.7762  143.5107  150.9656 LP  0  0  0  0  0  0  0  0  0  0  0  0  # atno 17342 bound_to 10162
  139.8794  143.7091  152.3158 LP  0  0  0  0  0  0  0  0  0  0  0  0  # atno 17343 bound_to 10162
  157.6569  131.0888  150.7926 LP  0  0  0  0  0  0  0  0  0  0  0  0  # atno 17370 bound_to 10713
  156.8002  130.4918  149.5371 LP  0  0  0  0  0  0  0  0  0  0  0  0  # atno 17371 bound_to 10713
  140.4896  134.1206  155.7230 LP  0  0  0  0  0  0  0  0  0  0  0  0  # atno 17394 bound_to 11000
  141.1571  133.8862  157.1948 LP  0  0  0  0  0  0  0  0  0  0  0  0  # atno 17395 bound_to 11000

$$$$
