AV-unprocessed.smi:33|AV-procd|sdf|199|dock5
  -GOLD-   2262015473D 1   1.00000     0.00000
 Structure written by MMmdl.
 67 72  0  0  0  0  0  0  0  0  1 V2000
  152.6872  140.3065  158.0178 O   0  0  0  0  0  0  0  0  0  0  0  0
  151.9791  141.2999  157.8404 C   0  0  0  0  0  0  0  0  0  0  0  0
  151.1268  141.4326  156.8075 O   0  0  0  0  0  0  0  0  0  0  0  0
  150.7607  140.3020  156.0342 C   0  0  0  0  0  0  0  0  0  0  0  0
  149.6324  139.5640  156.7611 C   0  0  2  0  0  0  0  0  0  0  0  0
  149.3032  138.3521  156.0957 O   0  0  0  0  0  0  0  0  0  0  0  0
  148.0533  137.9178  156.5407 C   0  0  1  0  0  0  0  0  0  0  0  0
  148.2639  136.8732  157.5968 N   0  0  0  0  0  0  0  0  0  0  0  0
  149.4286  136.4789  158.2242 C   0  0  0  0  0  0  0  0  0  0  0  0
  149.2922  135.5272  159.1080 N   0  0  0  0  0  0  0  0  0  0  0  0
  147.9349  135.2357  159.0803 C   0  0  0  0  0  0  0  0  0  0  0  0
  147.1047  134.3168  159.7760 C   0  0  0  0  0  0  0  0  0  0  0  0
  147.5785  133.4669  160.7168 N   0  0  0  0  0  0  0  0  0  0  0  0
  147.3235  133.8174  162.1216 C   0  0  0  0  0  0  0  0  0  0  0  0
  148.0800  133.3989  163.0001 O   0  0  0  0  0  0  0  0  0  0  0  0
  146.1764  134.7164  162.4860 C   0  0  0  0  0  0  0  0  0  0  0  0
  144.9420  134.1609  162.8882 C   0  0  0  0  0  0  0  0  0  0  0  0
  143.8592  134.9999  163.2160 C   0  0  0  0  0  0  0  0  0  0  0  0
  143.9982  136.3979  163.1260 C   0  0  0  0  0  0  0  0  0  0  0  0
  145.2170  136.9572  162.6976 C   0  0  0  0  0  0  0  0  0  0  0  0
  146.3002  136.1193  162.3697 C   0  0  0  0  0  0  0  0  0  0  0  0
  148.3046  132.2770  160.2491 C   0  0  0  0  0  0  0  0  0  0  0  0
  148.8501  132.2933  159.1440 O   0  0  0  0  0  0  0  0  0  0  0  0
  148.4325  131.0668  161.1302 C   0  0  0  0  0  0  0  0  0  0  0  0
  149.6657  130.7736  161.7526 C   0  0  0  0  0  0  0  0  0  0  0  0
  149.7950  129.6343  162.5703 C   0  0  0  0  0  0  0  0  0  0  0  0
  148.6986  128.7708  162.7546 C   0  0  0  0  0  0  0  0  0  0  0  0
  147.4746  129.0418  162.1139 C   0  0  0  0  0  0  0  0  0  0  0  0
  147.3436  130.1818  161.2979 C   0  0  0  0  0  0  0  0  0  0  0  0
  145.7796  134.3014  159.4762 N   0  0  0  0  0  0  0  0  0  0  0  0
  145.2980  135.1386  158.5521 C   0  0  0  0  0  0  0  0  0  0  0  0
  145.9521  136.0512  157.8287 N   0  0  0  0  0  0  0  0  0  0  0  0
  147.2833  136.0651  158.1284 C   0  0  0  0  0  0  0  0  0  0  0  0
  147.3076  139.1676  157.0761 C   0  0  1  0  0  0  0  0  0  0  0  0
  147.0135  139.1388  158.4624 O   0  0  0  0  0  0  0  0  0  0  0  0
  148.2902  140.2918  156.7772 C   0  0  2  0  0  0  0  0  0  0  0  0
  148.0236  140.8086  155.5757 F   0  0  0  0  0  0  0  0  0  0  0  0
  151.9758  142.4829  158.7488 C   0  0  0  0  0  0  0  0  0  0  0  0
  152.4002  142.3290  160.0891 C   0  0  0  0  0  0  0  0  0  0  0  0
  152.4074  143.4279  160.9700 C   0  0  0  0  0  0  0  0  0  0  0  0
  151.9897  144.6944  160.5214 C   0  0  0  0  0  0  0  0  0  0  0  0
  151.5643  144.8605  159.1906 C   0  0  0  0  0  0  0  0  0  0  0  0
  151.5570  143.7629  158.3079 C   0  0  0  0  0  0  0  0  0  0  0  0
  150.4168  140.6364  155.0546 H   0  0  0  0  0  0  0  0  0  0  0  0
  151.6174  139.6442  155.8808 H   0  0  0  0  0  0  0  0  0  0  0  0
  149.9301  139.3522  157.7894 H   0  0  0  0  0  0  0  0  0  0  0  0
  147.5242  137.3960  155.7424 H   0  0  0  0  0  0  0  0  0  0  0  0
  150.3930  136.9156  158.0096 H   0  0  0  0  0  0  0  0  0  0  0  0
  144.8240  133.0894  162.9603 H   0  0  0  0  0  0  0  0  0  0  0  0
  142.9212  134.5703  163.5354 H   0  0  0  0  0  0  0  0  0  0  0  0
  143.1679  137.0410  163.3783 H   0  0  0  0  0  0  0  0  0  0  0  0
  145.3210  138.0293  162.6181 H   0  0  0  0  0  0  0  0  0  0  0  0
  147.2291  136.5593  162.0360 H   0  0  0  0  0  0  0  0  0  0  0  0
  150.5136  131.4299  161.6188 H   0  0  0  0  0  0  0  0  0  0  0  0
  150.7364  129.4232  163.0558 H   0  0  0  0  0  0  0  0  0  0  0  0
  148.7983  127.8974  163.3822 H   0  0  0  0  0  0  0  0  0  0  0  0
  146.6357  128.3749  162.2470 H   0  0  0  0  0  0  0  0  0  0  0  0
  146.4005  130.3776  160.8079 H   0  0  0  0  0  0  0  0  0  0  0  0
  144.2363  135.0685  158.3670 H   0  0  0  0  0  0  0  0  0  0  0  0
  146.3741  139.2962  156.5271 H   0  0  0  0  0  0  0  0  0  0  0  0
  147.3133  139.9485  158.8474 H   0  0  0  0  0  0  0  0  0  0  0  0
  148.2539  141.1126  157.4948 H   0  0  0  0  0  0  0  0  0  0  0  0
  152.7248  141.3661  160.4567 H   0  0  0  0  0  0  0  0  0  0  0  0
  152.7338  143.2980  161.9913 H   0  0  0  0  0  0  0  0  0  0  0  0
  151.9950  145.5370  161.1970 H   0  0  0  0  0  0  0  0  0  0  0  0
  151.2428  145.8320  158.8451 H   0  0  0  0  0  0  0  0  0  0  0  0
  151.2242  143.9256  157.2932 H   0  0  0  0  0  0  0  0  0  0  0  0
  1  2  2  0  0  0  0
  2  3  1  0  0  0  0
  2 38  1  0  0  0  0
  3  4  1  0  0  0  0
  4  5  1  0  0  0  0
  4 44  1  0  0  0  0
  4 45  1  0  0  0  0
  5 36  1  0  0  0  0
  5  6  1  0  0  0  0
  5 46  1  0  0  0  0
  6  7  1  0  0  0  0
  7  8  1  0  0  0  0
  7 34  1  0  0  0  0
  7 47  1  0  0  0  0
  8 33  1  0  0  0  0
  8  9  1  0  0  0  0
  9 10  2  0  0  0  0
  9 48  1  0  0  0  0
 10 11  1  0  0  0  0
 11 33  2  0  0  0  0
 11 12  1  0  0  0  0
 12 13  1  0  0  0  0
 12 30  2  0  0  0  0
 13 14  1  0  0  0  0
 13 22  1  0  0  0  0
 14 15  2  0  0  0  0
 14 16  1  0  0  0  0
 16 21  1  0  0  0  0
 16 17  2  0  0  0  0
 17 18  1  0  0  0  0
 17 49  1  0  0  0  0
 18 19  2  0  0  0  0
 18 50  1  0  0  0  0
 19 20  1  0  0  0  0
 19 51  1  0  0  0  0
 20 21  2  0  0  0  0
 20 52  1  0  0  0  0
 21 53  1  0  0  0  0
 22 23  2  0  0  0  0
 22 24  1  0  0  0  0
 24 29  1  0  0  0  0
 24 25  2  0  0  0  0
 25 26  1  0  0  0  0
 25 54  1  0  0  0  0
 26 27  2  0  0  0  0
 26 55  1  0  0  0  0
 27 28  1  0  0  0  0
 27 56  1  0  0  0  0
 28 29  2  0  0  0  0
 28 57  1  0  0  0  0
 29 58  1  0  0  0  0
 30 31  1  0  0  0  0
 31 32  2  0  0  0  0
 31 59  1  0  0  0  0
 32 33  1  0  0  0  0
 34 35  1  0  0  0  0
 34 36  1  0  0  0  0
 34 60  1  0  0  0  0
 35 61  1  0  0  0  0
 36 37  1  0  0  0  0
 36 62  1  0  0  0  0
 38 43  1  0  0  0  0
 38 39  2  0  0  0  0
 39 40  1  0  0  0  0
 39 63  1  0  0  0  0
 40 41  2  0  0  0  0
 40 64  1  0  0  0  0
 41 42  1  0  0  0  0
 41 65  1  0  0  0  0
 42 43  2  0  0  0  0
 42 66  1  0  0  0  0
 43 67  1  0  0  0  0
M  END
> <s_m_source_file>
AV-unprocessed.smi

> <i_m_source_file_index>
33

> <i_lp_mmshare_version>
43012

> <i_f3d_flags>
0

> <s_epik_input>
W2NIXTFbY0hdW2NIXVtjSF1bY0hdYzFDKD1PKU9bQ0gyXVtDQEBIXTJPW0NASF0oW0NAQEhdKFtPSF0pW0NAQEhdMkYpbihbY0hdbjMpYyhjMzQpbltjSF1uYzROKEMoPU8pYzVbY0hdW2NIXVtjSF1bY0hdW2NIXTUpQyg9TyljNltjSF1bY0hdW2NIXVtjSF1bY0hdNg==

> <s_epik_cmdline>
J2VwaWtfcHl0aG9uJywgJy1waCcsICc3LjAnLCAnLXRuJywgJzgnLCAnLW1hJywgJzIwMCcsICctbWV0YWxfYmluZGluZycsICctaW1hZScsICc8aW5maWxlLm1hZT4nLCAnLW9tYWUnLCAnPG91dGZpbGUubWFlPic=

> <r_lp_tautomer_probability>
1

> <r_epik_Ionization_Penalty>
0.00067664

> <r_epik_Ionization_Penalty_Charging>
0

> <r_epik_Ionization_Penalty_Neutral>
0.00067664

> <r_epik_State_Penalty>
0.000428095

> <r_epik_Charging_Adjusted_Penalty>
0.000428095

> <i_epik_Tot_Q>
0

> <i_epik_Tot_abs_Q>
0

> <r_epik_Metal_State_Penalty>
-0

> <b_epik_Metal_Only>
0

> <s_epik_Chemistry_Notes>
This compound has an ester and may undergo hydrolysis at high or low pH. This compound contains an acetal/aminal-like group ( X-CH(R)-Y where X, Y are N, S, or O) that may be acid/base labile, releasing an aldehyde.

> <s_lp_Force_Field>
OPLS_2005

> <r_lp_Energy>
71.8737

> <b_lp_Chiralities_Consistent>
1

> <s_lp_Variant>
AV-unprocessed.smi:33-1

> <Gold.Version>
5.8.1

> <Gold.Id.Protein>
6NUR|6NUR_protein|mol2

> <Gold.PLP.Fitness>
61.1345

> <Gold.PLP.PLP>
-61.1244

> <Gold.PLP.part.hbond>
-3.2933

> <Gold.PLP.part.metal>
0.0000

> <Gold.PLP.part.buried>
-6.0917

> <Gold.PLP.part.nonpolar>
-51.1077

> <Gold.PLP.part.repulsive>
0.0834

> <Gold.PLP.ligand.clash>
0.0000

> <Gold.PLP.ligand.torsion>
5.5716

> <Gold.PLP.Chemscore.Hbond>
1.9516

> <Gold.PLP.Chemscore.CHOScore>
0.0000

> <Gold.PLP.Chemscore.Metal>
0.0000

> <Gold.Chemscore.Hbonds>
donor molecule, donor type, donor heavy atom, donor atom, acceptor molecule, acceptor atom, score
      P1  H  6896  6909       L1    10  1.00
      P1  H  7997  8008       L1     1  0.71

> <Gold.PLP.Chemscore.Internal.Correction>
5.2986

> <Gold.Rescore>
     Score         DG    S(hbond)    S(metal)    S(lipo)     H(rot)  DE(clash)    DE(int)     intcor
     15.27     -22.75       1.85        0.00     150.15       2.52       1.06       6.42       ----

> <Gold.Chemscore.Fitness>
15.2744

> <Gold.Chemscore.DG>
-22.7538

> <Gold.Chemscore.ZeroCoef>
-5.4800

> <Gold.Chemscore.Hbond>
1.8471

> <Gold.Chemscore.Metal>
0.0000

> <Gold.Chemscore.Lipo>
150.1507

> <Gold.Chemscore.Internal_Hbond>
0.0000

> <Gold.Chemscore.DEClash>
1.0581

> <Gold.Chemscore.DEInternal>
6.4213

> <Gold.Chemscore.Rot>
2.5247

> <Gold.Chemscore.Internal.Correction>
   9.000000E+99

> <Gold.Chemscore.Hbonds>
donor molecule, donor type, donor heavy atom, donor atom, acceptor molecule, acceptor atom, score
      P1  H  6896  6909       L1    10  0.97
      P1  H  7997  8008       L1     1  0.65

> <Gold.Chemscore.Hbond.Weighted>
-6.1694

> <Gold.Chemscore.Metal.Weighted>
-0.0000

> <Gold.Chemscore.Lipo.Weighted>
-17.5676

> <Gold.Chemscore.Internal_Hbond.Weighted>
0.0000

> <Gold.Chemscore.DEClash.Weighted>
1.0581

> <Gold.Chemscore.DEInternal.Weighted>
6.4213

> <Gold.Chemscore.Rot.Weighted>
6.4633

> <Gold.Chemscore.Internal.Correction.Weighted>
   9.000000E+99

> <Gold.Protein.RotatedTorsions>
[ 6907 6896 6895 6894 ] final   52.18 input  -60.11 | X-H torsion
[ 7974 7965 7964 7962 ] final   54.38 input  175.53 | X-H torsion
[ 8008 7997 7996 7995 ] final  -77.88 input   59.86 | X-H torsion
[ 10167 10162 10161 10158 ] final  127.52 input  -65.29 | X-H torsion
[ 10718 10713 10712 10709 ] final   -9.58 input   66.30 | X-H torsion
[ 10763 10752 10751 10750 ] final -122.31 input  -60.55 | X-H torsion
[ 11005 11000 10999 10996 ] final -177.94 input  -57.11 | X-H torsion

> <Gold.Protein.ActiveResidues>
 VAL166  LYS551  ARG553  GLY616  TRP617  ASP618  TYR619  PRO620  LYS621  CYS622 
 ASP623  PHE694  ASN695  SER759  ASP760  ASP761  ALA762  ILE779  LEU786  VAL792 
 PHE793  MET794  SER795  GLU796  ALA797  LYS798  CYS799  TRP800  GLU811  SER814 

> <Gold.Protein.RotatedAtoms>
  152.3205  134.7386  160.0314 H   0  0  0  0  0  0  0  0  0  0  0  0  # atno 6907 bound_to 6896
  151.7836  133.3347  159.3486 H   0  0  0  0  0  0  0  0  0  0  0  0  # atno 6908 bound_to 6896
  150.7367  134.5839  159.5997 H   0  0  0  0  0  0  0  0  0  0  0  0  # atno 6909 bound_to 6896
  145.9615  139.4063  143.0245 H   0  0  0  0  0  0  0  0  0  0  0  0  # atno 7974 bound_to 7965
  154.5637  140.0703  156.8858 H   0  0  0  0  0  0  0  0  0  0  0  0  # atno 8008 bound_to 7997
  155.2763  140.3368  155.4243 H   0  0  0  0  0  0  0  0  0  0  0  0  # atno 8009 bound_to 7997
  156.2063  140.1741  156.7778 H   0  0  0  0  0  0  0  0  0  0  0  0  # atno 8010 bound_to 7997
  139.5574  144.6858  151.4142 H   0  0  0  0  0  0  0  0  0  0  0  0  # atno 10167 bound_to 10162
  156.6860  130.5051  149.5957 H   0  0  0  0  0  0  0  0  0  0  0  0  # atno 10718 bound_to 10713
  154.8687  135.4137  154.2761 H   0  0  0  0  0  0  0  0  0  0  0  0  # atno 10763 bound_to 10752
  153.3662  135.7005  153.6679 H   0  0  0  0  0  0  0  0  0  0  0  0  # atno 10764 bound_to 10752
  153.5559  135.3619  155.2751 H   0  0  0  0  0  0  0  0  0  0  0  0  # atno 10765 bound_to 10752
  140.4353  134.6481  157.4732 H   0  0  0  0  0  0  0  0  0  0  0  0  # atno 11005 bound_to 11000
  145.8033  140.9760  143.0987 LP  0  0  0  0  0  0  0  0  0  0  0  0  # atno 17320 bound_to 7965
  144.6816  139.9829  143.7483 LP  0  0  0  0  0  0  0  0  0  0  0  0  # atno 17321 bound_to 7965
  140.6849  143.7997  150.7172 LP  0  0  0  0  0  0  0  0  0  0  0  0  # atno 17342 bound_to 10162
  140.1461  143.4398  152.2162 LP  0  0  0  0  0  0  0  0  0  0  0  0  # atno 17343 bound_to 10162
  156.1833  130.6513  151.0976 LP  0  0  0  0  0  0  0  0  0  0  0  0  # atno 17370 bound_to 10713
  157.7026  131.0769  150.6770 LP  0  0  0  0  0  0  0  0  0  0  0  0  # atno 17371 bound_to 10713
  140.0106  134.6696  155.9387 LP  0  0  0  0  0  0  0  0  0  0  0  0  # atno 17394 bound_to 11000
  141.1728  133.6538  156.4716 LP  0  0  0  0  0  0  0  0  0  0  0  0  # atno 17395 bound_to 11000

$$$$
