AV-unprocessed.smi:2474|AV-procd|sdf|9754|dock3
  -GOLD-   2272013393D 1   1.00000     0.00000
 Structure written by MMmdl.
 40 41  0  0  0  0  0  0  0  0  1 V2000
  152.3503  144.7625  158.8698 C   0  0  0  0  0  0  0  0  0  0  0  0
  152.1298  143.3261  158.5368 C   0  0  0  0  0  0  0  0  0  0  0  0
  152.6256  142.2262  159.1917 C   0  0  0  0  0  0  0  0  0  0  0  0
  152.2182  141.0098  158.6404 N   0  0  0  0  0  0  0  0  0  0  0  0
  151.4236  141.1696  157.5781 C   0  0  0  0  0  0  0  0  0  0  0  0
  150.7776  140.0336  156.8417 C   0  0  1  0  0  0  0  0  0  0  0  0
  151.1276  140.0414  155.3466 C   0  0  0  0  0  0  0  0  0  0  0  0
  151.0157  138.6601  157.5099 C   0  0  0  0  0  0  0  0  0  0  0  0
  149.9420  138.3106  158.4382 N   0  0  0  0  0  0  0  0  0  0  0  0
  149.6046  137.0645  158.7995 C   0  0  0  0  0  0  0  0  0  0  0  0
  150.0763  136.0453  158.2955 O   0  0  0  0  0  0  0  0  0  0  0  0
  148.7375  137.0635  159.8207 N   0  0  0  0  0  0  0  0  0  0  0  0
  148.3138  135.8753  160.5548 C   0  0  1  0  0  0  0  0  0  0  0  0
  147.6601  136.2884  161.8917 C   0  0  0  0  0  0  0  0  0  0  0  0
  147.2304  135.0820  162.7402 C   0  0  0  0  0  0  0  0  0  0  0  0
  146.1943  134.2038  162.0251 C   0  0  0  0  0  0  0  0  0  0  0  0
  146.8698  133.5061  160.4938 S   0  0  0  0  0  0  0  0  0  0  0  0
  147.3520  135.0536  159.6794 C   0  0  0  0  0  0  0  0  0  0  0  0
  151.1372  142.8611  157.1807 S   0  0  0  0  0  0  0  0  0  0  0  0
  152.9691  144.8685  159.7611 H   0  0  0  0  0  0  0  0  0  0  0  0
  151.4013  145.2651  159.0584 H   0  0  0  0  0  0  0  0  0  0  0  0
  152.8500  145.2774  158.0491 H   0  0  0  0  0  0  0  0  0  0  0  0
  153.2660  142.2166  160.0612 H   0  0  0  0  0  0  0  0  0  0  0  0
  149.7034  140.2162  156.8956 H   0  0  0  0  0  0  0  0  0  0  0  0
  150.8575  140.9916  154.8852 H   0  0  0  0  0  0  0  0  0  0  0  0
  150.5948  139.2527  154.8150 H   0  0  0  0  0  0  0  0  0  0  0  0
  152.1951  139.8852  155.1884 H   0  0  0  0  0  0  0  0  0  0  0  0
  151.0669  137.8820  156.7479 H   0  0  0  0  0  0  0  0  0  0  0  0
  151.9814  138.6506  158.0182 H   0  0  0  0  0  0  0  0  0  0  0  0
  149.4866  139.0780  158.9102 H   0  0  0  0  0  0  0  0  0  0  0  0
  148.4065  137.9527  160.1649 H   0  0  0  0  0  0  0  0  0  0  0  0
  149.1923  135.2610  160.7621 H   0  0  0  0  0  0  0  0  0  0  0  0
  148.3589  136.8905  162.4741 H   0  0  0  0  0  0  0  0  0  0  0  0
  146.7967  136.9275  161.7019 H   0  0  0  0  0  0  0  0  0  0  0  0
  148.1044  134.4844  163.0018 H   0  0  0  0  0  0  0  0  0  0  0  0
  146.8114  135.4383  163.6816 H   0  0  0  0  0  0  0  0  0  0  0  0
  145.8818  133.3851  162.6734 H   0  0  0  0  0  0  0  0  0  0  0  0
  145.3016  134.7838  161.7887 H   0  0  0  0  0  0  0  0  0  0  0  0
  146.4527  135.6279  159.4531 H   0  0  0  0  0  0  0  0  0  0  0  0
  147.8215  134.8055  158.7270 H   0  0  0  0  0  0  0  0  0  0  0  0
  1  2  1  0  0  0  0
  1 20  1  0  0  0  0
  1 21  1  0  0  0  0
  1 22  1  0  0  0  0
  2 19  1  0  0  0  0
  2  3  2  0  0  0  0
  3  4  1  0  0  0  0
  3 23  1  0  0  0  0
  4  5  2  0  0  0  0
  5  6  1  0  0  0  0
  5 19  1  0  0  0  0
  6  7  1  0  0  0  0
  6  8  1  0  0  0  0
  6 24  1  0  0  0  0
  7 25  1  0  0  0  0
  7 26  1  0  0  0  0
  7 27  1  0  0  0  0
  8  9  1  0  0  0  0
  8 28  1  0  0  0  0
  8 29  1  0  0  0  0
  9 10  1  0  0  0  0
  9 30  1  0  0  0  0
 10 11  2  0  0  0  0
 10 12  1  0  0  0  0
 12 13  1  0  0  0  0
 12 31  1  0  0  0  0
 13 18  1  0  0  0  0
 13 14  1  0  0  0  0
 13 32  1  0  0  0  0
 14 15  1  0  0  0  0
 14 33  1  0  0  0  0
 14 34  1  0  0  0  0
 15 16  1  0  0  0  0
 15 35  1  0  0  0  0
 15 36  1  0  0  0  0
 16 17  1  0  0  0  0
 16 37  1  0  0  0  0
 16 38  1  0  0  0  0
 17 18  1  0  0  0  0
 18 39  1  0  0  0  0
 18 40  1  0  0  0  0
M  END
> <s_m_source_file>
AV-unprocessed.smi

> <i_m_source_file_index>
2474

> <i_lp_mmshare_version>
43012

> <i_f3d_flags>
0

> <s_epik_input>
W0NIM11jMVtjSF1uYyhzMSlbQ0BIXShbQ0gzXSlbQ0gyXVtOSF1DKD1PKVtOSF1bQ0BASF0yW0NIMl1bQ0gyXVtDSDJdU1tDSDJdMg==

> <s_epik_cmdline>
J2VwaWtfcHl0aG9uJywgJy1waCcsICc3LjAnLCAnLXRuJywgJzgnLCAnLW1hJywgJzIwMCcsICctbWV0YWxfYmluZGluZycsICctaW1hZScsICc8aW5maWxlLm1hZT4nLCAnLW9tYWUnLCAnPG91dGZpbGUubWFlPic=

> <r_epik_Ionization_Penalty>
0.000644338

> <r_epik_Ionization_Penalty_Charging>
0

> <r_epik_Ionization_Penalty_Neutral>
0.000644338

> <r_epik_State_Penalty>
0.000374131

> <r_epik_Charging_Adjusted_Penalty>
0.000374131

> <i_epik_Tot_Q>
0

> <i_epik_Tot_abs_Q>
0

> <r_epik_Metal_State_Penalty>
-0

> <b_epik_Metal_Only>
0

> <s_lp_Force_Field>
OPLS_2005

> <r_lp_Energy>
-6.83814

> <b_lp_Chiralities_Consistent>
1

> <s_lp_Variant>
AV-unprocessed.smi:2474-4

> <Gold.Version>
5.8.1

> <Gold.Id.Protein>
6NUR|6NUR_protein|mol2

> <Gold.PLP.Fitness>
41.2616

> <Gold.PLP.PLP>
-39.9928

> <Gold.PLP.part.hbond>
-1.0000

> <Gold.PLP.part.metal>
0.0000

> <Gold.PLP.part.buried>
-4.5278

> <Gold.PLP.part.nonpolar>
-36.4282

> <Gold.PLP.part.repulsive>
1.5512

> <Gold.PLP.ligand.clash>
0.0000

> <Gold.PLP.ligand.torsion>
0.9303

> <Gold.PLP.Chemscore.Hbond>
1.0000

> <Gold.PLP.Chemscore.CHOScore>
0.0000

> <Gold.PLP.Chemscore.Metal>
0.0000

> <Gold.Chemscore.Hbonds>
donor molecule, donor type, donor heavy atom, donor atom, acceptor molecule, acceptor atom, score
      P1  H  6896  6909       L1    11  0.98

> <Gold.PLP.Chemscore.Internal.Correction>
0.1293

> <Gold.Rescore>
     Score         DG    S(hbond)    S(metal)    S(lipo)     H(rot)  DE(clash)    DE(int)     intcor
     16.68     -18.22       0.96        0.00     113.57       1.46       0.64       0.90       ----

> <Gold.Chemscore.Fitness>
16.6787

> <Gold.Chemscore.DG>
-18.2219

> <Gold.Chemscore.ZeroCoef>
-5.4800

> <Gold.Chemscore.Hbond>
0.9569

> <Gold.Chemscore.Metal>
0.0000

> <Gold.Chemscore.Lipo>
113.5673

> <Gold.Chemscore.Internal_Hbond>
0.0000

> <Gold.Chemscore.DEClash>
0.6398

> <Gold.Chemscore.DEInternal>
0.9034

> <Gold.Chemscore.Rot>
1.4616

> <Gold.Chemscore.Internal.Correction>
   9.000000E+99

> <Gold.Chemscore.Hbonds>
donor molecule, donor type, donor heavy atom, donor atom, acceptor molecule, acceptor atom, score
      P1  H  6896  6909       L1    11  0.75

> <Gold.Chemscore.Hbond.Weighted>
-3.1961

> <Gold.Chemscore.Metal.Weighted>
-0.0000

> <Gold.Chemscore.Lipo.Weighted>
-13.2874

> <Gold.Chemscore.Internal_Hbond.Weighted>
0.0000

> <Gold.Chemscore.DEClash.Weighted>
0.6398

> <Gold.Chemscore.DEInternal.Weighted>
0.9034

> <Gold.Chemscore.Rot.Weighted>
3.7416

> <Gold.Chemscore.Internal.Correction.Weighted>
   9.000000E+99

> <Gold.Protein.RotatedTorsions>
[ 6907 6896 6895 6894 ] final   66.47 input  -60.11 | X-H torsion
[ 7974 7965 7964 7962 ] final  119.31 input  175.53 | X-H torsion
[ 8008 7997 7996 7995 ] final  -61.30 input   59.86 | X-H torsion
[ 10167 10162 10161 10158 ] final   41.66 input  -65.29 | X-H torsion
[ 10718 10713 10712 10709 ] final -123.61 input   66.30 | X-H torsion
[ 10763 10752 10751 10750 ] final   20.94 input  -60.55 | X-H torsion
[ 11005 11000 10999 10996 ] final  130.56 input  -57.11 | X-H torsion

> <Gold.Protein.ActiveResidues>
 VAL166  LYS551  ARG553  GLY616  TRP617  ASP618  TYR619  PRO620  LYS621  CYS622 
 ASP623  PHE694  ASN695  SER759  ASP760  ASP761  ALA762  ILE779  LEU786  VAL792 
 PHE793  MET794  SER795  GLU796  ALA797  LYS798  CYS799  TRP800  GLU811  SER814 

> <Gold.Protein.RotatedAtoms>
  152.4483  134.5448  159.9849 H   0  0  0  0  0  0  0  0  0  0  0  0  # atno 6907 bound_to 6896
  151.5527  133.3409  159.2964 H   0  0  0  0  0  0  0  0  0  0  0  0  # atno 6908 bound_to 6896
  150.8405  134.7727  159.6992 H   0  0  0  0  0  0  0  0  0  0  0  0  # atno 6909 bound_to 6896
  145.1446  139.3247  143.4598 H   0  0  0  0  0  0  0  0  0  0  0  0  # atno 7974 bound_to 7965
  154.4441  140.1020  156.6410 H   0  0  0  0  0  0  0  0  0  0  0  0  # atno 8008 bound_to 7997
  155.5502  140.3485  155.4448 H   0  0  0  0  0  0  0  0  0  0  0  0  # atno 8009 bound_to 7997
  156.0534  140.1309  157.0013 H   0  0  0  0  0  0  0  0  0  0  0  0  # atno 8010 bound_to 7997
  140.3621  144.2215  150.6137 H   0  0  0  0  0  0  0  0  0  0  0  0  # atno 10167 bound_to 10162
  156.1517  130.6539  150.9922 H   0  0  0  0  0  0  0  0  0  0  0  0  # atno 10718 bound_to 10713
  153.1036  135.6679  153.9627 H   0  0  0  0  0  0  0  0  0  0  0  0  # atno 10763 bound_to 10752
  153.9190  135.3016  155.3449 H   0  0  0  0  0  0  0  0  0  0  0  0  # atno 10764 bound_to 10752
  154.7457  135.5058  153.9276 H   0  0  0  0  0  0  0  0  0  0  0  0  # atno 10765 bound_to 10752
  139.9679  134.9585  156.9312 H   0  0  0  0  0  0  0  0  0  0  0  0  # atno 11005 bound_to 11000
  146.3501  140.1497  142.8592 LP  0  0  0  0  0  0  0  0  0  0  0  0  # atno 17320 bound_to 7965
  145.0495  140.9007  143.5004 LP  0  0  0  0  0  0  0  0  0  0  0  0  # atno 17321 bound_to 7965
  140.5117  143.2289  151.8526 LP  0  0  0  0  0  0  0  0  0  0  0  0  # atno 17342 bound_to 10162
  139.4813  144.4942  151.9145 LP  0  0  0  0  0  0  0  0  0  0  0  0  # atno 17343 bound_to 10162
  157.6662  131.0871  150.7723 LP  0  0  0  0  0  0  0  0  0  0  0  0  # atno 17370 bound_to 10713
  156.7791  130.4853  149.5404 LP  0  0  0  0  0  0  0  0  0  0  0  0  # atno 17371 bound_to 10713
  140.5356  134.0770  155.7327 LP  0  0  0  0  0  0  0  0  0  0  0  0  # atno 17394 bound_to 11000
  141.1359  133.9222  157.2435 LP  0  0  0  0  0  0  0  0  0  0  0  0  # atno 17395 bound_to 11000

$$$$
