AV-unprocessed.smi:3049|AV-procd|sdf|11630|dock9
  -GOLD-   2272017 23D 1   1.00000     0.00000
 Structure written by MMmdl.
 52 53  0  0  0  0  0  0  0  0  2 V2000
  152.0227  141.8129  158.2077 C   0  0  0  0  0  0  0  0  0  0  0  0
  151.9670  140.2767  158.1760 C   0  0  0  0  0  0  0  0  0  0  0  0
  150.6937  139.7027  157.5043 C   0  0  0  0  0  0  0  0  0  0  0  0
  150.6951  138.1569  157.4952 C   0  0  0  0  0  0  0  0  0  0  0  0
  150.7090  137.5269  158.8950 C   0  0  0  0  0  0  0  0  0  0  0  0
  150.5125  140.2246  156.0591 C   0  0  0  0  0  0  0  0  0  0  0  0
  151.3710  139.9321  155.2249 O   0  0  0  0  0  0  0  0  0  0  0  0
  149.4500  141.0082  155.7452 N   0  0  0  0  0  0  0  0  0  0  0  0
  149.2065  141.6709  154.4587 C   0  0  0  0  0  0  0  0  0  0  0  0
  148.0720  140.9239  153.7366 C   0  0  0  0  0  0  0  0  0  0  0  0
  146.7953  140.8882  154.6065 C   0  0  0  0  0  0  0  0  0  0  0  0
  145.8064  140.0088  153.9908 N   0  0  0  0  0  0  0  0  0  0  0  0
  145.9299  138.6810  153.8524 C   0  0  0  0  0  0  0  0  0  0  0  0
  146.9081  138.0498  154.2517 O   0  0  0  0  0  0  0  0  0  0  0  0
  144.8647  138.1659  153.2124 N   0  0  0  0  0  0  0  0  0  0  0  0
  144.5886  136.8266  152.9048 C   0  0  0  0  0  0  0  0  0  0  0  0
  143.3489  136.2597  152.6420 C   0  0  0  0  0  0  0  0  0  0  0  0
  143.0649  134.9774  152.3227 N   0  5  0  0  0  0  0  0  0  0  0  0
  144.0950  134.0883  152.2312 C   0  0  0  0  0  0  0  0  0  0  0  0
  143.9076  132.9063  151.9451 O   0  0  0  0  0  0  0  0  0  0  0  0
  145.4695  134.5645  152.4830 C   0  0  0  0  0  0  0  0  0  0  0  0
  146.6171  133.5742  152.3822 C   0  0  0  0  0  0  0  0  0  0  0  0
  145.6768  135.8664  152.7996 C   0  0  0  0  0  0  0  0  0  0  0  0
  147.1002  140.4295  156.0532 C   0  0  0  0  0  0  0  0  0  0  0  0
  148.3051  141.1830  156.6466 C   0  0  0  0  0  0  0  0  0  0  0  0
  152.9098  142.1549  158.7410 H   0  0  0  0  0  0  0  0  0  0  0  0
  151.1513  142.2268  158.7158 H   0  0  0  0  0  0  0  0  0  0  0  0
  152.0601  142.2398  157.2052 H   0  0  0  0  0  0  0  0  0  0  0  0
  152.8625  139.8899  157.6878 H   0  0  0  0  0  0  0  0  0  0  0  0
  152.0231  139.9249  159.2057 H   0  0  0  0  0  0  0  0  0  0  0  0
  149.8655  140.0504  158.1190 H   0  0  0  0  0  0  0  0  0  0  0  0
  149.8091  137.7876  156.9759 H   0  0  0  0  0  0  0  0  0  0  0  0
  151.5489  137.7902  156.9236 H   0  0  0  0  0  0  0  0  0  0  0  0
  150.6486  136.4406  158.8276 H   0  0  0  0  0  0  0  0  0  0  0  0
  149.8607  137.8681  159.4889 H   0  0  0  0  0  0  0  0  0  0  0  0
  151.6210  137.7690  159.4400 H   0  0  0  0  0  0  0  0  0  0  0  0
  148.9061  142.7041  154.6399 H   0  0  0  0  0  0  0  0  0  0  0  0
  150.0906  141.7507  153.8287 H   0  0  0  0  0  0  0  0  0  0  0  0
  147.8596  141.4022  152.7798 H   0  0  0  0  0  0  0  0  0  0  0  0
  148.3994  139.9078  153.5100 H   0  0  0  0  0  0  0  0  0  0  0  0
  146.3981  141.9044  154.6461 H   0  0  0  0  0  0  0  0  0  0  0  0
  144.9708  140.4454  153.6305 H   0  0  0  0  0  0  0  0  0  0  0  0
  144.1674  138.8245  152.8985 H   0  0  0  0  0  0  0  0  0  0  0  0
  142.4547  136.9141  152.6557 H   0  0  0  0  0  0  0  0  0  0  0  0
  147.5753  134.0550  152.5808 H   0  0  0  0  0  0  0  0  0  0  0  0
  146.6588  133.1389  151.3836 H   0  0  0  0  0  0  0  0  0  0  0  0
  146.4884  132.7681  153.1051 H   0  0  0  0  0  0  0  0  0  0  0  0
  146.6855  136.2062  152.9841 H   0  0  0  0  0  0  0  0  0  0  0  0
  146.2244  140.5744  156.6867 H   0  0  0  0  0  0  0  0  0  0  0  0
  147.3127  139.3592  156.0623 H   0  0  0  0  0  0  0  0  0  0  0  0
  148.5001  140.8273  157.6591 H   0  0  0  0  0  0  0  0  0  0  0  0
  148.0735  142.2444  156.7466 H   0  0  0  0  0  0  0  0  0  0  0  0
  1  2  1  0  0  0  0
  1 26  1  0  0  0  0
  1 27  1  0  0  0  0
  1 28  1  0  0  0  0
  2  3  1  0  0  0  0
  2 29  1  0  0  0  0
  2 30  1  0  0  0  0
  3  4  1  0  0  0  0
  3  6  1  0  0  0  0
  3 31  1  0  0  0  0
  4  5  1  0  0  0  0
  4 32  1  0  0  0  0
  4 33  1  0  0  0  0
  5 34  1  0  0  0  0
  5 35  1  0  0  0  0
  5 36  1  0  0  0  0
  6  7  2  0  0  0  0
  6  8  1  0  0  0  0
  8 25  1  0  0  0  0
  8  9  1  0  0  0  0
  9 10  1  0  0  0  0
  9 37  1  0  0  0  0
  9 38  1  0  0  0  0
 10 11  1  0  0  0  0
 10 39  1  0  0  0  0
 10 40  1  0  0  0  0
 11 12  1  0  0  0  0
 11 24  1  0  0  0  0
 11 41  1  0  0  0  0
 12 13  1  0  0  0  0
 12 42  1  0  0  0  0
 13 14  2  0  0  0  0
 13 15  1  0  0  0  0
 15 16  1  0  0  0  0
 15 43  1  0  0  0  0
 16 23  1  0  0  0  0
 16 17  2  0  0  0  0
 17 18  1  0  0  0  0
 17 44  1  0  0  0  0
 18 19  1  0  0  0  0
 19 20  2  0  0  0  0
 19 21  1  0  0  0  0
 21 22  1  0  0  0  0
 21 23  2  0  0  0  0
 22 45  1  0  0  0  0
 22 46  1  0  0  0  0
 22 47  1  0  0  0  0
 23 48  1  0  0  0  0
 24 25  1  0  0  0  0
 24 49  1  0  0  0  0
 24 50  1  0  0  0  0
 25 51  1  0  0  0  0
 25 52  1  0  0  0  0
M  CHG  1  18  -1
M  END
> <s_m_source_file>
AV-unprocessed.smi

> <i_m_source_file_index>
3049

> <i_lp_mmshare_version>
43012

> <i_f3d_flags>
0

> <s_epik_input>
W0NIM11bQ0gyXVtDSF0oW0NIMl1bQ0gzXSlDKD1PKU4xW0NIMl1bQ0gyXVtDSF0oW0NIMl1bQ0gyXTEpW05IXUMoPU8pW05IXWMyW2NIXVtuSF1jKD1PKWMoW0NIM10pW2NIXTI=

> <s_epik_cmdline>
J2VwaWtfcHl0aG9uJywgJy1waCcsICc3LjAnLCAnLXRuJywgJzgnLCAnLW1hJywgJzIwMCcsICctbWV0YWxfYmluZGluZycsICctaW1hZScsICc8aW5maWxlLm1hZT4nLCAnLW9tYWUnLCAnPG91dGZpbGUubWFlPic=

> <r_lp_tautomer_probability>
1

> <r_epik_Ionization_Penalty>
7.58311

> <r_epik_Ionization_Penalty_Charging>
1.51652

> <r_epik_Ionization_Penalty_Neutral>
6.06659

> <r_epik_State_Penalty>
6.06654

> <r_epik_Charging_Adjusted_Penalty>
7.58305

> <i_epik_Tot_Q>
-1

> <i_epik_Tot_abs_Q>
1

> <r_epik_Metal_State_Penalty>
2.01464

> <b_epik_Metal_Only>
1

> <s_lp_Force_Field>
OPLS_2005

> <r_lp_Energy>
39.554

> <b_lp_Chiralities_Consistent>
1

> <s_lp_Variant>
AV-unprocessed.smi:3049-2

> <Gold.Version>
5.8.1

> <Gold.Id.Protein>
6NUR|6NUR_protein|mol2

> <Gold.PLP.Fitness>
40.7903

> <Gold.PLP.PLP>
-32.0704

> <Gold.PLP.part.hbond>
-3.0000

> <Gold.PLP.part.metal>
0.0000

> <Gold.PLP.part.buried>
-2.7951

> <Gold.PLP.part.nonpolar>
-26.0656

> <Gold.PLP.part.repulsive>
0.5050

> <Gold.PLP.ligand.clash>
0.0000

> <Gold.PLP.ligand.torsion>
0.2101

> <Gold.PLP.Chemscore.Hbond>
3.0000

> <Gold.PLP.Chemscore.CHOScore>
0.0000

> <Gold.PLP.Chemscore.Metal>
0.0000

> <Gold.Chemscore.Hbonds>
donor molecule, donor type, donor heavy atom, donor atom, acceptor molecule, acceptor atom, score
      L1  H    12    42       P1 10175  1.00
      L1  H    15    43       P1 10175  1.00
      P1  H  7989  7998       L1     7  1.00

> <Gold.PLP.Chemscore.Internal.Correction>
0.1401

> <Gold.Rescore>
     Score         DG    S(hbond)    S(metal)    S(lipo)     H(rot)  DE(clash)    DE(int)     intcor
     16.55     -19.49       2.92        0.00      69.88       1.54       0.02       2.91       ----

> <Gold.Chemscore.Fitness>
16.5538

> <Gold.Chemscore.DG>
-19.4862

> <Gold.Chemscore.ZeroCoef>
-5.4800

> <Gold.Chemscore.Hbond>
2.9234

> <Gold.Chemscore.Metal>
0.0000

> <Gold.Chemscore.Lipo>
69.8797

> <Gold.Chemscore.Internal_Hbond>
0.0000

> <Gold.Chemscore.DEClash>
0.0249

> <Gold.Chemscore.DEInternal>
2.9075

> <Gold.Chemscore.Rot>
1.5367

> <Gold.Chemscore.Internal.Correction>
   9.000000E+99

> <Gold.Chemscore.Hbonds>
donor molecule, donor type, donor heavy atom, donor atom, acceptor molecule, acceptor atom, score
      L1  H    12    42       P1 10175  0.94
      L1  H    15    43       P1 10175  0.96
      P1  H  7989  7998       L1     7  0.96

> <Gold.Chemscore.Hbond.Weighted>
-9.7643

> <Gold.Chemscore.Metal.Weighted>
-0.0000

> <Gold.Chemscore.Lipo.Weighted>
-8.1759

> <Gold.Chemscore.Internal_Hbond.Weighted>
0.0000

> <Gold.Chemscore.DEClash.Weighted>
0.0249

> <Gold.Chemscore.DEInternal.Weighted>
2.9075

> <Gold.Chemscore.Rot.Weighted>
3.9340

> <Gold.Chemscore.Internal.Correction.Weighted>
   9.000000E+99

> <Gold.Protein.RotatedTorsions>
[ 6907 6896 6895 6894 ] final   55.88 input  -60.11 | X-H torsion
[ 7974 7965 7964 7962 ] final  158.80 input  175.53 | X-H torsion
[ 8008 7997 7996 7995 ] final  -93.60 input   59.86 | X-H torsion
[ 10167 10162 10161 10158 ] final  -58.25 input  -65.29 | X-H torsion
[ 10718 10713 10712 10709 ] final   49.01 input   66.30 | X-H torsion
[ 10763 10752 10751 10750 ] final   69.68 input  -60.55 | X-H torsion
[ 11005 11000 10999 10996 ] final   83.83 input  -57.11 | X-H torsion

> <Gold.Protein.ActiveResidues>
 VAL166  LYS551  ARG553  GLY616  TRP617  ASP618  TYR619  PRO620  LYS621  CYS622 
 ASP623  PHE694  ASN695  SER759  ASP760  ASP761  ALA762  ILE779  LEU786  VAL792 
 PHE793  MET794  SER795  GLU796  ALA797  LYS798  CYS799  TRP800  GLU811  SER814 

> <Gold.Protein.RotatedAtoms>
  152.3582  134.6910  160.0215 H   0  0  0  0  0  0  0  0  0  0  0  0  # atno 6907 bound_to 6896
  151.7242  133.3310  159.3331 H   0  0  0  0  0  0  0  0  0  0  0  0  # atno 6908 bound_to 6896
  150.7586  134.6355  159.6253 H   0  0  0  0  0  0  0  0  0  0  0  0  # atno 6909 bound_to 6896
  144.7825  139.7529  143.6254 H   0  0  0  0  0  0  0  0  0  0  0  0  # atno 7974 bound_to 7965
  154.7378  140.0497  157.0784 H   0  0  0  0  0  0  0  0  0  0  0  0  # atno 8008 bound_to 7997
  155.0218  140.3148  155.4771 H   0  0  0  0  0  0  0  0  0  0  0  0  # atno 8009 bound_to 7997
  156.2857  140.2165  156.5336 H   0  0  0  0  0  0  0  0  0  0  0  0  # atno 8010 bound_to 7997
  140.6208  143.2419  151.5484 H   0  0  0  0  0  0  0  0  0  0  0  0  # atno 10167 bound_to 10162
  157.4744  130.8275  149.8023 H   0  0  0  0  0  0  0  0  0  0  0  0  # atno 10718 bound_to 10713
  153.0300  135.5201  154.7326 H   0  0  0  0  0  0  0  0  0  0  0  0  # atno 10763 bound_to 10752
  154.6349  135.2905  155.0175 H   0  0  0  0  0  0  0  0  0  0  0  0  # atno 10764 bound_to 10752
  154.1114  135.6621  153.4938 H   0  0  0  0  0  0  0  0  0  0  0  0  # atno 10765 bound_to 10752
  139.9019  134.8173  156.2362 H   0  0  0  0  0  0  0  0  0  0  0  0  # atno 11005 bound_to 11000
  146.2041  139.5354  142.9724 LP  0  0  0  0  0  0  0  0  0  0  0  0  # atno 17320 bound_to 7965
  145.6010  141.0355  143.2018 LP  0  0  0  0  0  0  0  0  0  0  0  0  # atno 17321 bound_to 7965
  139.5437  144.2577  152.1401 LP  0  0  0  0  0  0  0  0  0  0  0  0  # atno 17342 bound_to 10162
  140.1797  144.4856  150.6535 LP  0  0  0  0  0  0  0  0  0  0  0  0  # atno 17343 bound_to 10162
  156.0089  130.3842  150.2332 LP  0  0  0  0  0  0  0  0  0  0  0  0  # atno 17370 bound_to 10713
  157.0516  131.0064  151.3252 LP  0  0  0  0  0  0  0  0  0  0  0  0  # atno 17371 bound_to 10713
  141.0314  133.6987  156.1436 LP  0  0  0  0  0  0  0  0  0  0  0  0  # atno 17394 bound_to 11000
  140.7091  134.4481  157.5582 LP  0  0  0  0  0  0  0  0  0  0  0  0  # atno 17395 bound_to 11000

$$$$
