AV-unprocessed.smi:2881|AV-procd|sdf|11060|dock1
  -GOLD-   2272015533D 1   1.00000     0.00000
 Structure written by MMmdl.
 40 42  0  0  0  0  0  0  0  0  1 V2000
  147.0115  132.7157  151.2833 C   0  0  0  0  0  0  0  0  0  0  0  0
  147.9348  133.0207  152.4133 C   0  0  0  0  0  0  0  0  0  0  0  0
  147.8504  133.9309  153.4288 C   0  0  0  0  0  0  0  0  0  0  0  0
  149.0419  133.7269  154.1874 C   0  0  0  0  0  0  0  0  0  0  0  0
  149.4848  134.4477  155.4330 C   0  0  0  0  0  0  0  0  0  0  0  0
  150.1694  135.7636  155.0623 C   0  0  0  0  0  0  0  0  0  0  0  0
  151.3928  135.8690  155.1462 O   0  0  0  0  0  0  0  0  0  0  0  0
  149.3680  136.7597  154.6553 N   0  0  0  0  0  0  0  0  0  0  0  0
  149.8176  138.1005  154.2907 C   0  0  1  0  0  0  0  0  0  0  0  0
  148.6783  139.1502  154.2584 C   0  0  1  0  0  0  0  0  0  0  0  0
  147.8601  139.1386  155.5677 C   0  0  0  0  0  0  0  0  0  0  0  0
  148.8530  139.7224  156.5900 C   0  0  0  0  0  0  0  0  0  0  0  0
  150.0969  140.0150  155.7288 C   0  0  2  0  0  0  0  0  0  0  0  0
  149.4592  140.4486  154.4134 C   0  0  0  0  0  0  0  0  0  0  0  0
  150.7853  138.6802  155.3546 C   0  0  2  0  0  0  0  0  0  0  0  0
  152.2213  138.8494  154.8222 C   0  0  0  0  0  0  0  0  0  0  0  0
  153.0582  139.3827  155.8266 O   0  0  0  0  0  0  0  0  0  0  0  0
  149.8071  132.7731  153.6747 N   0  0  0  0  0  0  0  0  0  0  0  0
  149.1215  132.3497  152.5968 N   0  0  0  0  0  0  0  0  0  0  0  0
  149.4712  131.6103  152.0041 H   0  0  0  0  0  0  0  0  0  0  0  0
  146.0244  133.1430  151.4617 H   0  0  0  0  0  0  0  0  0  0  0  0
  146.8933  131.6393  151.1556 H   0  0  0  0  0  0  0  0  0  0  0  0
  147.3940  133.1286  150.3498 H   0  0  0  0  0  0  0  0  0  0  0  0
  147.0523  134.6355  153.6092 H   0  0  0  0  0  0  0  0  0  0  0  0
  148.6376  134.6542  156.0888 H   0  0  0  0  0  0  0  0  0  0  0  0
  150.1743  133.8271  156.0068 H   0  0  0  0  0  0  0  0  0  0  0  0
  148.3749  136.5837  154.6130 H   0  0  0  0  0  0  0  0  0  0  0  0
  150.3075  138.0655  153.3152 H   0  0  0  0  0  0  0  0  0  0  0  0
  148.0614  139.0956  153.3609 H   0  0  0  0  0  0  0  0  0  0  0  0
  146.9872  139.7862  155.4768 H   0  0  0  0  0  0  0  0  0  0  0  0
  147.5004  138.1488  155.8484 H   0  0  0  0  0  0  0  0  0  0  0  0
  148.4570  140.6405  157.0257 H   0  0  0  0  0  0  0  0  0  0  0  0
  149.0651  139.0310  157.4065 H   0  0  0  0  0  0  0  0  0  0  0  0
  150.7652  140.7496  156.1787 H   0  0  0  0  0  0  0  0  0  0  0  0
  150.1781  140.6191  153.6107 H   0  0  0  0  0  0  0  0  0  0  0  0
  148.8219  141.3294  154.5106 H   0  0  0  0  0  0  0  0  0  0  0  0
  150.8273  138.0317  156.2321 H   0  0  0  0  0  0  0  0  0  0  0  0
  152.6250  137.8824  154.5201 H   0  0  0  0  0  0  0  0  0  0  0  0
  152.2502  139.4976  153.9464 H   0  0  0  0  0  0  0  0  0  0  0  0
  153.2778  138.6923  156.4335 H   0  0  0  0  0  0  0  0  0  0  0  0
  1  2  1  0  0  0  0
  1 21  1  0  0  0  0
  1 22  1  0  0  0  0
  1 23  1  0  0  0  0
  2 19  1  0  0  0  0
  2  3  2  0  0  0  0
  3  4  1  0  0  0  0
  3 24  1  0  0  0  0
  4  5  1  0  0  0  0
  4 18  2  0  0  0  0
  5  6  1  0  0  0  0
  5 25  1  0  0  0  0
  5 26  1  0  0  0  0
  6  7  2  0  0  0  0
  6  8  1  0  0  0  0
  8  9  1  0  0  0  0
  8 27  1  0  0  0  0
  9 15  1  0  0  0  0
  9 10  1  0  0  0  0
  9 28  1  0  0  0  0
 10 14  1  0  0  0  0
 10 11  1  0  0  0  0
 10 29  1  0  0  0  0
 11 12  1  0  0  0  0
 11 30  1  0  0  0  0
 11 31  1  0  0  0  0
 12 13  1  0  0  0  0
 12 32  1  0  0  0  0
 12 33  1  0  0  0  0
 13 14  1  0  0  0  0
 13 15  1  0  0  0  0
 13 34  1  0  0  0  0
 14 35  1  0  0  0  0
 14 36  1  0  0  0  0
 15 16  1  0  0  0  0
 15 37  1  0  0  0  0
 16 17  1  0  0  0  0
 16 38  1  0  0  0  0
 16 39  1  0  0  0  0
 17 40  1  0  0  0  0
 18 19  1  0  0  0  0
 19 20  1  0  0  0  0
M  END
> <s_m_source_file>
AV-unprocessed.smi

> <i_m_source_file_index>
2881

> <i_lp_mmshare_version>
43012

> <i_f3d_flags>
0

> <s_epik_input>
W0NIM11jMVtjSF1jKG5bbkhdMSlbQ0gyXUMoPU8pW05IXVtDQEhdKFtDQEBIXTIzKVtDQEhdKFtDSDJdW09IXSlbQ0BASF0oW0NIMl0zKVtDSDJdW0NIMl0y

> <s_epik_cmdline>
J2VwaWtfcHl0aG9uJywgJy1waCcsICc3LjAnLCAnLXRuJywgJzgnLCAnLW1hJywgJzIwMCcsICctbWV0YWxfYmluZGluZycsICctaW1hZScsICc8aW5maWxlLm1hZT4nLCAnLW9tYWUnLCAnPG91dGZpbGUubWFlPic=

> <r_lp_tautomer_probability>
0.5

> <r_epik_Ionization_Penalty>
9.4349e-05

> <r_epik_Ionization_Penalty_Charging>
0

> <r_epik_Ionization_Penalty_Neutral>
9.4349e-05

> <r_epik_State_Penalty>
0.41068

> <r_epik_Charging_Adjusted_Penalty>
0.41068

> <i_epik_Tot_Q>
0

> <i_epik_Tot_abs_Q>
0

> <r_epik_Metal_State_Penalty>
0.4107

> <b_epik_Metal_Only>
0

> <s_lp_Force_Field>
OPLS_2005

> <r_lp_Energy>
47.9612

> <b_lp_Chiralities_Consistent>
1

> <s_lp_Variant>
AV-unprocessed.smi:2881-6

> <Gold.Version>
5.8.1

> <Gold.Id.Protein>
6NUR|6NUR_protein|mol2

> <Gold.PLP.Fitness>
36.7343

> <Gold.PLP.PLP>
-29.0808

> <Gold.PLP.part.hbond>
-4.0000

> <Gold.PLP.part.metal>
0.0000

> <Gold.PLP.part.buried>
-2.0827

> <Gold.PLP.part.nonpolar>
-23.6199

> <Gold.PLP.part.repulsive>
0.2897

> <Gold.PLP.ligand.clash>
0.0000

> <Gold.PLP.ligand.torsion>
0.6882

> <Gold.PLP.Chemscore.Hbond>
3.0000

> <Gold.PLP.Chemscore.CHOScore>
0.0000

> <Gold.PLP.Chemscore.Metal>
0.0000

> <Gold.Chemscore.Hbonds>
donor molecule, donor type, donor heavy atom, donor atom, acceptor molecule, acceptor atom, score
      L1  H    19    20       P1 10747  0.64
      P1  H  7997  8008       L1    17  0.85
      P1  H 10752 10763       L1     7  1.00

> <Gold.PLP.Chemscore.Internal.Correction>
0.0299

> <Gold.Rescore>
     Score         DG    S(hbond)    S(metal)    S(lipo)     H(rot)  DE(clash)    DE(int)     intcor
     14.88     -16.96       2.91        0.00      64.84       2.28       0.02       2.05       ----

> <Gold.Chemscore.Fitness>
14.8819

> <Gold.Chemscore.DG>
-16.9566

> <Gold.Chemscore.ZeroCoef>
-5.4800

> <Gold.Chemscore.Hbond>
2.9087

> <Gold.Chemscore.Metal>
0.0000

> <Gold.Chemscore.Lipo>
64.8448

> <Gold.Chemscore.Internal_Hbond>
0.0000

> <Gold.Chemscore.DEClash>
0.0202

> <Gold.Chemscore.DEInternal>
2.0544

> <Gold.Chemscore.Rot>
2.2755

> <Gold.Chemscore.Internal.Correction>
   9.000000E+99

> <Gold.Chemscore.Hbonds>
donor molecule, donor type, donor heavy atom, donor atom, acceptor molecule, acceptor atom, score
      L1  H    19    20       P1 10747  0.11
      P1  H  7997  8008       L1    17  0.16
      P1  H 10752 10763       L1     7  1.00

> <Gold.Chemscore.Hbond.Weighted>
-9.7150

> <Gold.Chemscore.Metal.Weighted>
-0.0000

> <Gold.Chemscore.Lipo.Weighted>
-7.5868

> <Gold.Chemscore.Internal_Hbond.Weighted>
0.0000

> <Gold.Chemscore.DEClash.Weighted>
0.0202

> <Gold.Chemscore.DEInternal.Weighted>
2.0544

> <Gold.Chemscore.Rot.Weighted>
5.8252

> <Gold.Chemscore.Internal.Correction.Weighted>
   9.000000E+99

> <Gold.Protein.RotatedTorsions>
[ 6907 6896 6895 6894 ] final -154.92 input  -60.11 | X-H torsion
[ 7974 7965 7964 7962 ] final  162.30 input  175.53 | X-H torsion
[ 8008 7997 7996 7995 ] final  -12.12 input   59.86 | X-H torsion
[ 10167 10162 10161 10158 ] final   68.01 input  -65.29 | X-H torsion
[ 10718 10713 10712 10709 ] final  120.08 input   66.30 | X-H torsion
[ 10763 10752 10751 10750 ] final   54.24 input  -60.55 | X-H torsion
[ 11005 11000 10999 10996 ] final  179.15 input  -57.11 | X-H torsion

> <Gold.Protein.ActiveResidues>
 VAL166  LYS551  ARG553  GLY616  TRP617  ASP618  TYR619  PRO620  LYS621  CYS622 
 ASP623  PHE694  ASN695  SER759  ASP760  ASP761  ALA762  ILE779  LEU786  VAL792 
 PHE793  MET794  SER795  GLU796  ALA797  LYS798  CYS799  TRP800  GLU811  SER814 

> <Gold.Protein.RotatedAtoms>
  151.2647  133.4285  159.2617 H   0  0  0  0  0  0  0  0  0  0  0  0  # atno 6907 bound_to 6896
  151.0499  134.9666  159.8216 H   0  0  0  0  0  0  0  0  0  0  0  0  # atno 6908 bound_to 6896
  152.5381  134.2601  159.8985 H   0  0  0  0  0  0  0  0  0  0  0  0  # atno 6909 bound_to 6896
  144.7643  139.8020  143.6321 H   0  0  0  0  0  0  0  0  0  0  0  0  # atno 7974 bound_to 7965
  154.5405  140.2284  155.8649 H   0  0  0  0  0  0  0  0  0  0  0  0  # atno 8008 bound_to 7997
  156.1854  140.3090  155.9190 H   0  0  0  0  0  0  0  0  0  0  0  0  # atno 8009 bound_to 7997
  155.3267  140.0443  157.3032 H   0  0  0  0  0  0  0  0  0  0  0  0  # atno 8010 bound_to 7997
  140.0834  144.5051  150.7147 H   0  0  0  0  0  0  0  0  0  0  0  0  # atno 10167 bound_to 10162
  157.5916  131.1063  150.7986 H   0  0  0  0  0  0  0  0  0  0  0  0  # atno 10718 bound_to 10713
  152.9803  135.5751  154.4873 H   0  0  0  0  0  0  0  0  0  0  0  0  # atno 10763 bound_to 10752
  154.4412  135.2776  155.1848 H   0  0  0  0  0  0  0  0  0  0  0  0  # atno 10764 bound_to 10752
  154.3515  135.6208  153.5699 H   0  0  0  0  0  0  0  0  0  0  0  0  # atno 10765 bound_to 10752
  140.4030  134.6760  157.4572 H   0  0  0  0  0  0  0  0  0  0  0  0  # atno 11005 bound_to 11000
  146.1737  139.4898  142.9911 LP  0  0  0  0  0  0  0  0  0  0  0  0  # atno 17320 bound_to 7965
  145.6518  141.0261  143.1756 LP  0  0  0  0  0  0  0  0  0  0  0  0  # atno 17321 bound_to 7965
  140.7066  143.2473  151.4707 LP  0  0  0  0  0  0  0  0  0  0  0  0  # atno 17342 bound_to 10162
  139.5766  144.1804  152.1912 LP  0  0  0  0  0  0  0  0  0  0  0  0  # atno 17343 bound_to 10162
  156.8407  130.5047  149.5321 LP  0  0  0  0  0  0  0  0  0  0  0  0  # atno 17370 bound_to 10713
  156.0972  130.5941  150.9833 LP  0  0  0  0  0  0  0  0  0  0  0  0  # atno 17371 bound_to 10713
  140.0322  134.6389  155.9091 LP  0  0  0  0  0  0  0  0  0  0  0  0  # atno 17394 bound_to 11000
  141.1849  133.6554  156.5178 LP  0  0  0  0  0  0  0  0  0  0  0  0  # atno 17395 bound_to 11000

$$$$
