AV-unprocessed.smi:25|AV-procd|sdf|182|dock10
  -GOLD-   2262015443D 1   1.00000     0.00000
 Structure written by MMmdl.
 47 50  0  0  0  0  0  0  0  0  1 V2000
  150.0421  142.4514  156.9742 C   0  0  0  0  0  0  0  0  0  0  0  0
  151.5544  142.4769  157.2769 C   0  0  1  0  0  0  0  0  0  0  0  0
  151.9348  143.7183  158.1141 C   0  0  0  0  0  0  0  0  0  0  0  0
  152.4647  143.1271  159.3830 C   0  0  0  0  0  0  0  0  0  0  0  0
  152.8969  143.8489  160.5087 C   0  0  0  0  0  0  0  0  0  0  0  0
  153.3678  143.1294  161.6245 C   0  0  0  0  0  0  0  0  0  0  0  0
  153.3979  141.7182  161.5953 C   0  0  0  0  0  0  0  0  0  0  0  0
  152.9591  141.0094  160.4555 C   0  0  0  0  0  0  0  0  0  0  0  0
  152.4842  141.7336  159.3344 C   0  0  0  0  0  0  0  0  0  0  0  0
  151.9862  141.2998  158.0672 N   0  0  0  0  0  0  0  0  0  0  0  0
  151.9948  140.0586  157.5069 C   0  0  0  0  0  0  0  0  0  0  0  0
  152.2413  139.0588  158.1862 O   0  0  0  0  0  0  0  0  0  0  0  0
  151.6741  139.8502  156.0147 C   0  0  0  0  0  0  0  0  0  0  0  0
  150.4957  138.9841  155.7754 N   0  0  0  0  0  0  0  0  0  0  0  0
  150.5547  137.6242  156.1692 C   0  0  0  0  0  0  0  0  0  0  0  0
  151.5670  137.1499  156.6865 O   0  0  0  0  0  0  0  0  0  0  0  0
  149.3460  136.8467  155.9240 C   0  0  0  0  0  0  0  0  0  0  0  0
  149.2854  135.5660  156.3265 F   0  0  0  0  0  0  0  0  0  0  0  0
  148.2768  137.3980  155.3143 C   0  0  0  0  0  0  0  0  0  0  0  0
  148.2581  138.7059  154.8628 N   0  0  0  0  0  0  0  0  0  0  0  0
  147.0152  139.3207  154.2524 C   0  0  1  0  0  0  0  0  0  0  0  0
  147.2590  140.0386  152.9131 C   0  0  0  0  0  0  0  0  0  0  0  0
  146.6698  139.0642  151.9122 C   0  0  0  0  0  0  0  0  0  0  0  0
  145.5502  138.4274  152.7262 C   0  0  0  0  0  0  0  0  0  0  0  0
  146.1032  138.2873  154.0283 O   0  0  0  0  0  0  0  0  0  0  0  0
  149.3606  139.5456  155.1406 C   0  0  0  0  0  0  0  0  0  0  0  0
  149.3403  140.7384  154.8281 O   0  0  0  0  0  0  0  0  0  0  0  0
  149.7382  143.3526  156.4412 H   0  0  0  0  0  0  0  0  0  0  0  0
  149.4581  142.3973  157.8937 H   0  0  0  0  0  0  0  0  0  0  0  0
  149.7609  141.6012  156.3533 H   0  0  0  0  0  0  0  0  0  0  0  0
  152.1084  142.5089  156.3367 H   0  0  0  0  0  0  0  0  0  0  0  0
  152.7116  144.3084  157.6266 H   0  0  0  0  0  0  0  0  0  0  0  0
  151.0846  144.3689  158.3227 H   0  0  0  0  0  0  0  0  0  0  0  0
  152.8682  144.9285  160.5189 H   0  0  0  0  0  0  0  0  0  0  0  0
  153.7056  143.6580  162.5035 H   0  0  0  0  0  0  0  0  0  0  0  0
  153.7597  141.1745  162.4556 H   0  0  0  0  0  0  0  0  0  0  0  0
  153.0059  139.9369  160.5005 H   0  0  0  0  0  0  0  0  0  0  0  0
  151.5336  140.8266  155.5509 H   0  0  0  0  0  0  0  0  0  0  0  0
  152.5433  139.4077  155.5277 H   0  0  0  0  0  0  0  0  0  0  0  0
  147.4062  136.7744  155.1886 H   0  0  0  0  0  0  0  0  0  0  0  0
  146.6297  140.0258  154.9904 H   0  0  0  0  0  0  0  0  0  0  0  0
  146.6785  140.9623  152.9139 H   0  0  0  0  0  0  0  0  0  0  0  0
  148.3030  140.3013  152.7427 H   0  0  0  0  0  0  0  0  0  0  0  0
  146.3127  139.5491  151.0035 H   0  0  0  0  0  0  0  0  0  0  0  0
  147.4034  138.3089  151.6296 H   0  0  0  0  0  0  0  0  0  0  0  0
  144.6850  139.0905  152.7745 H   0  0  0  0  0  0  0  0  0  0  0  0
  145.2261  137.4684  152.3224 H   0  0  0  0  0  0  0  0  0  0  0  0
  1  2  1  0  0  0  0
  1 28  1  0  0  0  0
  1 29  1  0  0  0  0
  1 30  1  0  0  0  0
  2 10  1  0  0  0  0
  2  3  1  0  0  0  0
  2 31  1  0  0  0  0
  3  4  1  0  0  0  0
  3 32  1  0  0  0  0
  3 33  1  0  0  0  0
  4  9  2  0  0  0  0
  4  5  1  0  0  0  0
  5  6  2  0  0  0  0
  5 34  1  0  0  0  0
  6  7  1  0  0  0  0
  6 35  1  0  0  0  0
  7  8  2  0  0  0  0
  7 36  1  0  0  0  0
  8  9  1  0  0  0  0
  8 37  1  0  0  0  0
  9 10  1  0  0  0  0
 10 11  1  0  0  0  0
 11 12  2  0  0  0  0
 11 13  1  0  0  0  0
 13 14  1  0  0  0  0
 13 38  1  0  0  0  0
 13 39  1  0  0  0  0
 14 26  1  0  0  0  0
 14 15  1  0  0  0  0
 15 16  2  0  0  0  0
 15 17  1  0  0  0  0
 17 18  1  0  0  0  0
 17 19  2  0  0  0  0
 19 20  1  0  0  0  0
 19 40  1  0  0  0  0
 20 21  1  0  0  0  0
 20 26  1  0  0  0  0
 21 25  1  0  0  0  0
 21 22  1  0  0  0  0
 21 41  1  0  0  0  0
 22 23  1  0  0  0  0
 22 42  1  0  0  0  0
 22 43  1  0  0  0  0
 23 24  1  0  0  0  0
 23 44  1  0  0  0  0
 23 45  1  0  0  0  0
 24 25  1  0  0  0  0
 24 46  1  0  0  0  0
 24 47  1  0  0  0  0
 26 27  2  0  0  0  0
M  END
> <s_m_source_file>
AV-unprocessed.smi

> <i_m_source_file_index>
25

> <i_lp_mmshare_version>
43012

> <i_f3d_flags>
0

> <s_epik_input>
W2NIXTFbY0hdW2NIXVtjSF1jKGMxMilOKFtDQEhdKFtDSDNdKVtDSDJdMilDKD1PKVtDSDJdbjNjKD1PKWMoRilbY0hdbihjMz1PKVtDQEBIXTRbQ0gyXVtDSDJdW0NIMl1PNA==

> <s_epik_cmdline>
J2VwaWtfcHl0aG9uJywgJy1waCcsICc3LjAnLCAnLXRuJywgJzgnLCAnLW1hJywgJzIwMCcsICctbWV0YWxfYmluZGluZycsICctaW1hZScsICc8aW5maWxlLm1hZT4nLCAnLW9tYWUnLCAnPG91dGZpbGUubWFlPic=

> <r_lp_tautomer_probability>
1

> <r_epik_Ionization_Penalty>
1.67943e-06

> <r_epik_Ionization_Penalty_Charging>
3.79603e-09

> <r_epik_Ionization_Penalty_Neutral>
1.67563e-06

> <r_epik_State_Penalty>
-0

> <r_epik_Charging_Adjusted_Penalty>
3.79603e-09

> <i_epik_Tot_Q>
0

> <i_epik_Tot_abs_Q>
0

> <r_epik_Metal_State_Penalty>
-0

> <b_epik_Metal_Only>
0

> <s_epik_Chemistry_Notes>
This compound contains an acetal/aminal-like group ( X-CH(R)-Y where X, Y are N, S, or O) that may be acid/base labile, releasing an aldehyde.

> <s_lp_Force_Field>
OPLS_2005

> <r_lp_Energy>
55.1146

> <b_lp_Chiralities_Consistent>
1

> <s_lp_Variant>
AV-unprocessed.smi:25-4

> <Gold.Version>
5.8.1

> <Gold.Id.Protein>
6NUR|6NUR_protein|mol2

> <Gold.PLP.Fitness>
51.5851

> <Gold.PLP.PLP>
-49.1881

> <Gold.PLP.part.hbond>
-2.0000

> <Gold.PLP.part.metal>
0.0000

> <Gold.PLP.part.buried>
0.6749

> <Gold.PLP.part.nonpolar>
-47.9754

> <Gold.PLP.part.repulsive>
0.2684

> <Gold.PLP.ligand.clash>
0.0000

> <Gold.PLP.ligand.torsion>
0.1826

> <Gold.PLP.Chemscore.Hbond>
0.6224

> <Gold.PLP.Chemscore.CHOScore>
0.2397

> <Gold.PLP.Chemscore.Metal>
0.0000

> <Gold.PLP.Chemscore.Internal.Correction>
0.1758

> <Gold.Rescore>
     Score         DG    S(hbond)    S(metal)    S(lipo)     H(rot)  DE(clash)    DE(int)     intcor
     13.22     -19.20       0.91        0.00     125.11       1.55       0.48       5.49       ----

> <Gold.Chemscore.Fitness>
13.2227

> <Gold.Chemscore.DG>
-19.1987

> <Gold.Chemscore.ZeroCoef>
-5.4800

> <Gold.Chemscore.Hbond>
0.9120

> <Gold.Chemscore.Metal>
0.0000

> <Gold.Chemscore.Lipo>
125.1073

> <Gold.Chemscore.Internal_Hbond>
0.0000

> <Gold.Chemscore.DEClash>
0.4834

> <Gold.Chemscore.DEInternal>
5.4925

> <Gold.Chemscore.Rot>
1.5489

> <Gold.Chemscore.Internal.Correction>
   9.000000E+99

> <Gold.Chemscore.Hbond.Weighted>
-3.0462

> <Gold.Chemscore.Metal.Weighted>
-0.0000

> <Gold.Chemscore.Lipo.Weighted>
-14.6376

> <Gold.Chemscore.Internal_Hbond.Weighted>
0.0000

> <Gold.Chemscore.DEClash.Weighted>
0.4834

> <Gold.Chemscore.DEInternal.Weighted>
5.4925

> <Gold.Chemscore.Rot.Weighted>
3.9651

> <Gold.Chemscore.Internal.Correction.Weighted>
   9.000000E+99

> <Gold.Protein.RotatedTorsions>
[ 6907 6896 6895 6894 ] final    7.07 input  -60.11 | X-H torsion
[ 7974 7965 7964 7962 ] final -161.96 input  175.53 | X-H torsion
[ 8008 7997 7996 7995 ] final   61.50 input   59.86 | X-H torsion
[ 10167 10162 10161 10158 ] final -140.10 input  -65.29 | X-H torsion
[ 10718 10713 10712 10709 ] final  167.44 input   66.30 | X-H torsion
[ 10763 10752 10751 10750 ] final -159.67 input  -60.55 | X-H torsion
[ 11005 11000 10999 10996 ] final -146.39 input  -57.11 | X-H torsion

> <Gold.Protein.ActiveResidues>
 VAL166  LYS551  ARG553  GLY616  TRP617  ASP618  TYR619  PRO620  LYS621  CYS622 
 ASP623  PHE694  ASN695  SER759  ASP760  ASP761  ALA762  ILE779  LEU786  VAL792 
 PHE793  MET794  SER795  GLU796  ALA797  LYS798  CYS799  TRP800  GLU811  SER814 

> <Gold.Protein.RotatedAtoms>
  151.6839  135.0957  160.0220 H   0  0  0  0  0  0  0  0  0  0  0  0  # atno 6907 bound_to 6896
  152.3819  133.6554  159.6176 H   0  0  0  0  0  0  0  0  0  0  0  0  # atno 6908 bound_to 6896
  150.7754  133.9016  159.3384 H   0  0  0  0  0  0  0  0  0  0  0  0  # atno 6909 bound_to 6896
  144.7373  140.3323  143.6151 H   0  0  0  0  0  0  0  0  0  0  0  0  # atno 7974 bound_to 7965
  155.5994  140.3494  155.4589 H   0  0  0  0  0  0  0  0  0  0  0  0  # atno 8008 bound_to 7997
  156.0240  140.1260  157.0352 H   0  0  0  0  0  0  0  0  0  0  0  0  # atno 8009 bound_to 7997
  154.4326  140.1057  156.5990 H   0  0  0  0  0  0  0  0  0  0  0  0  # atno 8010 bound_to 7997
  139.8315  143.7441  152.2666 H   0  0  0  0  0  0  0  0  0  0  0  0  # atno 10167 bound_to 10162
  157.0514  131.0314  151.2679 H   0  0  0  0  0  0  0  0  0  0  0  0  # atno 10718 bound_to 10713
  154.7456  135.3079  154.8651 H   0  0  0  0  0  0  0  0  0  0  0  0  # atno 10763 bound_to 10752
  153.9453  135.6770  153.4748 H   0  0  0  0  0  0  0  0  0  0  0  0  # atno 10764 bound_to 10752
  153.1052  135.4892  154.8865 H   0  0  0  0  0  0  0  0  0  0  0  0  # atno 10765 bound_to 10752
  140.7825  134.3062  157.5041 H   0  0  0  0  0  0  0  0  0  0  0  0  # atno 11005 bound_to 11000
  145.7460  139.1778  143.2349 LP  0  0  0  0  0  0  0  0  0  0  0  0  # atno 17320 bound_to 7965
  146.1098  140.7442  142.9509 LP  0  0  0  0  0  0  0  0  0  0  0  0  # atno 17321 bound_to 7965
  139.7650  144.7495  151.0308 LP  0  0  0  0  0  0  0  0  0  0  0  0  # atno 17342 bound_to 10162
  140.7806  143.4708  151.0149 LP  0  0  0  0  0  0  0  0  0  0  0  0  # atno 17343 bound_to 10162
  157.5027  130.7890  149.7621 LP  0  0  0  0  0  0  0  0  0  0  0  0  # atno 17370 bound_to 10713
  156.0006  130.3882  150.2620 LP  0  0  0  0  0  0  0  0  0  0  0  0  # atno 17371 bound_to 10713
  139.8741  134.9327  156.3561 LP  0  0  0  0  0  0  0  0  0  0  0  0  # atno 17394 bound_to 11000
  140.9468  133.7477  156.0219 LP  0  0  0  0  0  0  0  0  0  0  0  0  # atno 17395 bound_to 11000

$$$$
