AV-unprocessed.smi:1873|AV-procd|sdf|7608|dock10
  -GOLD-   22720 9323D 1   1.00000     0.00000
 Structure written by MMmdl.
 36 38  0  0  0  0  0  0  0  0  1 V2000
  151.1983  139.8099  154.8697 O   0  0  0  0  0  0  0  0  0  0  0  0
  150.7822  140.4154  156.0788 C   0  0  1  0  0  0  0  0  0  0  0  0
  151.6900  141.6194  156.3993 C   0  0  0  0  0  0  0  0  0  0  0  0
  152.0350  141.6972  157.8074 N   0  0  0  0  0  0  0  0  0  0  0  0
  152.4622  140.6932  158.5972 C   0  0  0  0  0  0  0  0  0  0  0  0
  152.7222  140.9861  159.8683 N   0  0  0  0  0  0  0  0  0  0  0  0
  152.4303  142.3388  159.9082 C   0  0  0  0  0  0  0  0  0  0  0  0
  152.4971  143.2607  160.9775 C   0  0  0  0  0  0  0  0  0  0  0  0
  152.1450  144.6120  160.7787 C   0  0  0  0  0  0  0  0  0  0  0  0
  151.7223  145.0621  159.5109 C   0  0  0  0  0  0  0  0  0  0  0  0
  151.6473  144.1622  158.4302 C   0  0  0  0  0  0  0  0  0  0  0  0
  151.9990  142.8148  158.6332 C   0  0  0  0  0  0  0  0  0  0  0  0
  149.3172  140.8210  156.0393 C   0  0  0  0  0  0  0  0  0  0  0  0
  148.6791  141.0534  154.8032 C   0  0  0  0  0  0  0  0  0  0  0  0
  147.3204  141.4217  154.7644 C   0  0  0  0  0  0  0  0  0  0  0  0
  146.5807  141.5681  155.9553 C   0  0  0  0  0  0  0  0  0  0  0  0
  145.2529  141.9162  155.8490 O   0  0  0  0  0  0  0  0  0  0  0  0
  144.9211  143.1676  155.4329 C   0  0  0  0  0  0  0  0  0  0  0  0
  145.0279  143.2450  154.0845 F   0  0  0  0  0  0  0  0  0  0  0  0
  143.6356  143.4501  155.7579 F   0  0  0  0  0  0  0  0  0  0  0  0
  147.2192  141.3203  157.1941 C   0  0  0  0  0  0  0  0  0  0  0  0
  148.5781  140.9534  157.2341 C   0  0  0  0  0  0  0  0  0  0  0  0
  150.5757  139.1361  154.6427 H   0  0  0  0  0  0  0  0  0  0  0  0
  150.9080  139.6654  156.8610 H   0  0  0  0  0  0  0  0  0  0  0  0
  152.6115  141.5715  155.8170 H   0  0  0  0  0  0  0  0  0  0  0  0
  151.1931  142.5498  156.1207 H   0  0  0  0  0  0  0  0  0  0  0  0
  152.5863  139.6892  158.2179 H   0  0  0  0  0  0  0  0  0  0  0  0
  152.8197  142.9275  161.9528 H   0  0  0  0  0  0  0  0  0  0  0  0
  152.1999  145.3074  161.6034 H   0  0  0  0  0  0  0  0  0  0  0  0
  151.4556  146.0991  159.3686 H   0  0  0  0  0  0  0  0  0  0  0  0
  151.3234  144.5027  157.4580 H   0  0  0  0  0  0  0  0  0  0  0  0
  149.2277  140.9483  153.8788 H   0  0  0  0  0  0  0  0  0  0  0  0
  146.8423  141.5955  153.8113 H   0  0  0  0  0  0  0  0  0  0  0  0
  145.5791  143.9237  155.8618 H   0  0  0  0  0  0  0  0  0  0  0  0
  146.6766  141.4012  158.1240 H   0  0  0  0  0  0  0  0  0  0  0  0
  149.0512  140.7672  158.1872 H   0  0  0  0  0  0  0  0  0  0  0  0
  1  2  1  0  0  0  0
  1 23  1  0  0  0  0
  2  3  1  0  0  0  0
  2 13  1  0  0  0  0
  2 24  1  0  0  0  0
  3  4  1  0  0  0  0
  3 25  1  0  0  0  0
  3 26  1  0  0  0  0
  4 12  1  0  0  0  0
  4  5  1  0  0  0  0
  5  6  2  0  0  0  0
  5 27  1  0  0  0  0
  6  7  1  0  0  0  0
  7 12  2  0  0  0  0
  7  8  1  0  0  0  0
  8  9  2  0  0  0  0
  8 28  1  0  0  0  0
  9 10  1  0  0  0  0
  9 29  1  0  0  0  0
 10 11  2  0  0  0  0
 10 30  1  0  0  0  0
 11 12  1  0  0  0  0
 11 31  1  0  0  0  0
 13 22  1  0  0  0  0
 13 14  2  0  0  0  0
 14 15  1  0  0  0  0
 14 32  1  0  0  0  0
 15 16  2  0  0  0  0
 15 33  1  0  0  0  0
 16 17  1  0  0  0  0
 16 21  1  0  0  0  0
 17 18  1  0  0  0  0
 18 19  1  0  0  0  0
 18 20  1  0  0  0  0
 18 34  1  0  0  0  0
 21 22  2  0  0  0  0
 21 35  1  0  0  0  0
 22 36  1  0  0  0  0
M  END
> <s_m_source_file>
AV-unprocessed.smi

> <i_m_source_file_index>
1873

> <i_lp_mmshare_version>
43012

> <i_f3d_flags>
0

> <s_epik_input>
RltDSF0oRilPYyhbY0hdW2NIXTEpW2NIXVtjSF1jMVtDQEhdKFtPSF0pW0NIMl1uKFtjSF1uMiljKGMyMylbY0hdW2NIXVtjSF1bY0hdMw==

> <s_epik_cmdline>
J2VwaWtfcHl0aG9uJywgJy1waCcsICc3LjAnLCAnLXRuJywgJzgnLCAnLW1hJywgJzIwMCcsICctbWV0YWxfYmluZGluZycsICctaW1hZScsICc8aW5maWxlLm1hZT4nLCAnLW9tYWUnLCAnPG91dGZpbGUubWFlPic=

> <r_lp_tautomer_probability>
1

> <r_epik_Ionization_Penalty>
0.0696507

> <r_epik_Ionization_Penalty_Charging>
0

> <r_epik_Ionization_Penalty_Neutral>
0.0696507

> <r_epik_State_Penalty>
0.0610247

> <r_epik_Charging_Adjusted_Penalty>
0.0610247

> <i_epik_Tot_Q>
0

> <i_epik_Tot_abs_Q>
0

> <r_epik_Metal_State_Penalty>
6.42746e-05

> <b_epik_Metal_Only>
0

> <s_lp_Force_Field>
OPLS_2005

> <r_lp_Energy>
11.6076

> <b_lp_Chiralities_Consistent>
1

> <s_lp_Variant>
AV-unprocessed.smi:1873-2

> <Gold.Version>
5.8.1

> <Gold.Id.Protein>
6NUR|6NUR_protein|mol2

> <Gold.PLP.Fitness>
48.1390

> <Gold.PLP.PLP>
-48.2345

> <Gold.PLP.part.hbond>
-1.0000

> <Gold.PLP.part.metal>
0.0000

> <Gold.PLP.part.buried>
-9.6186

> <Gold.PLP.part.nonpolar>
-37.8299

> <Gold.PLP.part.repulsive>
0.1835

> <Gold.PLP.ligand.clash>
0.0000

> <Gold.PLP.ligand.torsion>
1.5760

> <Gold.PLP.Chemscore.Hbond>
1.0000

> <Gold.PLP.Chemscore.CHOScore>
0.0000

> <Gold.PLP.Chemscore.Metal>
0.0000

> <Gold.Chemscore.Hbonds>
donor molecule, donor type, donor heavy atom, donor atom, acceptor molecule, acceptor atom, score
      P1  H  7989  7998       L1     1  1.00

> <Gold.PLP.Chemscore.Internal.Correction>
0.0565

> <Gold.Rescore>
     Score         DG    S(hbond)    S(metal)    S(lipo)     H(rot)  DE(clash)    DE(int)     intcor
     12.91     -16.16       0.82        0.00     120.47       2.40       1.71       1.55       ----

> <Gold.Chemscore.Fitness>
12.9113

> <Gold.Chemscore.DG>
-16.1637

> <Gold.Chemscore.ZeroCoef>
-5.4800

> <Gold.Chemscore.Hbond>
0.8172

> <Gold.Chemscore.Metal>
0.0000

> <Gold.Chemscore.Lipo>
120.4671

> <Gold.Chemscore.Internal_Hbond>
0.0000

> <Gold.Chemscore.DEClash>
1.7065

> <Gold.Chemscore.DEInternal>
1.5460

> <Gold.Chemscore.Rot>
2.3986

> <Gold.Chemscore.Internal.Correction>
   9.000000E+99

> <Gold.Chemscore.Hbonds>
donor molecule, donor type, donor heavy atom, donor atom, acceptor molecule, acceptor atom, score
      P1  H  7989  7998       L1     1  0.84

> <Gold.Chemscore.Hbond.Weighted>
-2.7296

> <Gold.Chemscore.Metal.Weighted>
-0.0000

> <Gold.Chemscore.Lipo.Weighted>
-14.0946

> <Gold.Chemscore.Internal_Hbond.Weighted>
0.0000

> <Gold.Chemscore.DEClash.Weighted>
1.7065

> <Gold.Chemscore.DEInternal.Weighted>
1.5460

> <Gold.Chemscore.Rot.Weighted>
6.1405

> <Gold.Chemscore.Internal.Correction.Weighted>
   9.000000E+99

> <Gold.Protein.RotatedTorsions>
[ 6907 6896 6895 6894 ] final  -52.56 input  -60.11 | X-H torsion
[ 7974 7965 7964 7962 ] final  -27.18 input  175.53 | X-H torsion
[ 8008 7997 7996 7995 ] final   -0.57 input   59.86 | X-H torsion
[ 10167 10162 10161 10158 ] final   27.18 input  -65.29 | X-H torsion
[ 10718 10713 10712 10709 ] final   86.58 input   66.30 | X-H torsion
[ 10763 10752 10751 10750 ] final   25.60 input  -60.55 | X-H torsion
[ 11005 11000 10999 10996 ] final  -74.53 input  -57.11 | X-H torsion

> <Gold.Protein.ActiveResidues>
 VAL166  LYS551  ARG553  GLY616  TRP617  ASP618  TYR619  PRO620  LYS621  CYS622 
 ASP623  PHE694  ASN695  SER759  ASP760  ASP761  ALA762  ILE779  LEU786  VAL792 
 PHE793  MET794  SER795  GLU796  ALA797  LYS798  CYS799  TRP800  GLU811  SER814 

> <Gold.Protein.RotatedAtoms>
  150.8507  134.7830  159.7005 H   0  0  0  0  0  0  0  0  0  0  0  0  # atno 6907 bound_to 6896
  152.4572  134.5262  159.9807 H   0  0  0  0  0  0  0  0  0  0  0  0  # atno 6908 bound_to 6896
  151.5383  133.3399  159.2966 H   0  0  0  0  0  0  0  0  0  0  0  0  # atno 6909 bound_to 6896
  146.1376  140.5117  142.8666 H   0  0  0  0  0  0  0  0  0  0  0  0  # atno 7974 bound_to 7965
  154.6566  140.2581  155.7155 H   0  0  0  0  0  0  0  0  0  0  0  0  # atno 8008 bound_to 7997
  156.2599  140.2857  156.0943 H   0  0  0  0  0  0  0  0  0  0  0  0  # atno 8009 bound_to 7997
  155.1371  140.0379  157.2779 H   0  0  0  0  0  0  0  0  0  0  0  0  # atno 8010 bound_to 7997
  140.4960  144.0390  150.6314 H   0  0  0  0  0  0  0  0  0  0  0  0  # atno 10167 bound_to 10162
  157.6930  131.0221  150.2994 H   0  0  0  0  0  0  0  0  0  0  0  0  # atno 10718 bound_to 10713
  153.0681  135.6579  154.0309 H   0  0  0  0  0  0  0  0  0  0  0  0  # atno 10763 bound_to 10752
  153.9962  135.2941  155.3408 H   0  0  0  0  0  0  0  0  0  0  0  0  # atno 10764 bound_to 10752
  154.7046  135.5230  153.8645 H   0  0  0  0  0  0  0  0  0  0  0  0  # atno 10765 bound_to 10752
  141.1636  133.6915  156.7378 H   0  0  0  0  0  0  0  0  0  0  0  0  # atno 11005 bound_to 11000
  144.7756  140.5732  143.6640 LP  0  0  0  0  0  0  0  0  0  0  0  0  # atno 17320 bound_to 7965
  145.5121  139.1479  143.3599 LP  0  0  0  0  0  0  0  0  0  0  0  0  # atno 17321 bound_to 7965
  140.3673  143.2874  152.0317 LP  0  0  0  0  0  0  0  0  0  0  0  0  # atno 17342 bound_to 10162
  139.4861  144.6257  151.7169 LP  0  0  0  0  0  0  0  0  0  0  0  0  # atno 17343 bound_to 10162
  156.3512  130.3831  149.7327 LP  0  0  0  0  0  0  0  0  0  0  0  0  # atno 17370 bound_to 10713
  156.4804  130.8038  151.3053 LP  0  0  0  0  0  0  0  0  0  0  0  0  # atno 17371 bound_to 10713
  140.2697  134.8402  157.3835 LP  0  0  0  0  0  0  0  0  0  0  0  0  # atno 17394 bound_to 11000
  140.1533  134.4821  155.7945 LP  0  0  0  0  0  0  0  0  0  0  0  0  # atno 17395 bound_to 11000

$$$$
