AV-unprocessed.smi:3206|AV-procd|sdf|12256|dock5
  -GOLD-   2272018 93D 1   1.00000     0.00000
 Structure written by MMmdl.
 42 43  0  0  0  0  0  0  0  0  2 V2000
  153.4762  142.7460  163.1337 C   0  0  0  0  0  0  0  0  0  0  0  0
  152.7054  142.8295  161.8083 C   0  0  2  0  0  0  0  0  0  0  0  0
  153.5618  142.3428  160.6247 C   0  0  0  0  0  0  0  0  0  0  0  0
  152.7936  142.4331  159.2959 C   0  0  0  0  0  0  0  0  0  0  0  0
  152.2875  143.8634  159.0244 C   0  0  1  0  0  0  0  0  0  0  0  0
  151.5220  143.9316  157.6901 C   0  0  0  0  0  0  0  0  0  0  0  0
  150.2772  143.1397  157.7368 N   0  3  0  0  0  0  0  0  0  0  0  0
  150.4100  141.7724  157.1939 C   0  0  0  0  0  0  0  0  0  0  0  0
  151.4589  141.7056  156.0731 C   0  0  0  0  0  0  0  0  0  0  0  0
  151.5853  140.3431  155.4616 C   0  0  0  0  0  0  0  0  0  0  0  0
  152.6233  139.5342  155.6478 N   0  0  0  0  0  0  0  0  0  0  0  0
  152.2288  138.4557  154.9101 C   0  0  0  0  0  0  0  0  0  0  0  0
  151.0410  138.5611  154.3199 N   0  0  0  0  0  0  0  0  0  0  0  0
  150.6343  139.7965  154.6918 N   0  0  0  0  0  0  0  0  0  0  0  0
  149.3516  140.3129  154.2542 C   0  0  0  0  0  0  0  0  0  0  0  0
  151.4274  144.3463  160.2121 C   0  0  0  0  0  0  0  0  0  0  0  0
  152.1925  144.2571  161.5427 C   0  0  0  0  0  0  0  0  0  0  0  0
  154.3597  143.3851  163.1199 H   0  0  0  0  0  0  0  0  0  0  0  0
  153.8060  141.7261  163.3333 H   0  0  0  0  0  0  0  0  0  0  0  0
  152.8522  143.0591  163.9711 H   0  0  0  0  0  0  0  0  0  0  0  0
  151.8397  142.1703  161.8906 H   0  0  0  0  0  0  0  0  0  0  0  0
  154.4731  142.9389  160.5585 H   0  0  0  0  0  0  0  0  0  0  0  0
  153.8793  141.3130  160.7929 H   0  0  0  0  0  0  0  0  0  0  0  0
  153.4410  142.1049  158.4817 H   0  0  0  0  0  0  0  0  0  0  0  0
  151.9507  141.7407  159.3164 H   0  0  0  0  0  0  0  0  0  0  0  0
  153.1613  144.5128  158.9463 H   0  0  0  0  0  0  0  0  0  0  0  0
  151.2596  144.9667  157.4666 H   0  0  0  0  0  0  0  0  0  0  0  0
  152.1526  143.5788  156.8728 H   0  0  0  0  0  0  0  0  0  0  0  0
  149.9735  143.0755  158.6980 H   0  0  0  0  0  0  0  0  0  0  0  0
  150.6787  141.0847  157.9971 H   0  0  0  0  0  0  0  0  0  0  0  0
  149.4420  141.4515  156.8078 H   0  0  0  0  0  0  0  0  0  0  0  0
  151.2106  142.4264  155.2936 H   0  0  0  0  0  0  0  0  0  0  0  0
  152.4341  142.0060  156.4586 H   0  0  0  0  0  0  0  0  0  0  0  0
  152.8319  137.5653  154.8108 H   0  0  0  0  0  0  0  0  0  0  0  0
  148.7721  140.6407  155.1175 H   0  0  0  0  0  0  0  0  0  0  0  0
  148.7881  139.5433  153.7246 H   0  0  0  0  0  0  0  0  0  0  0  0
  149.5067  141.1594  153.5851 H   0  0  0  0  0  0  0  0  0  0  0  0
  151.1066  145.3763  160.0545 H   0  0  0  0  0  0  0  0  0  0  0  0
  150.5179  143.7474  160.2772 H   0  0  0  0  0  0  0  0  0  0  0  0
  151.5435  144.5773  162.3586 H   0  0  0  0  0  0  0  0  0  0  0  0
  153.0318  144.9540  161.5259 H   0  0  0  0  0  0  0  0  0  0  0  0
  149.5667  143.6266  157.2085 H   0  0  0  0  0  0  0  0  0  0  0  0
  1  2  1  0  0  0  0
  1 18  1  0  0  0  0
  1 19  1  0  0  0  0
  1 20  1  0  0  0  0
  2 17  1  0  0  0  0
  2  3  1  0  0  0  0
  2 21  1  0  0  0  0
  3  4  1  0  0  0  0
  3 22  1  0  0  0  0
  3 23  1  0  0  0  0
  4  5  1  0  0  0  0
  4 24  1  0  0  0  0
  4 25  1  0  0  0  0
  5  6  1  0  0  0  0
  5 16  1  0  0  0  0
  5 26  1  0  0  0  0
  6  7  1  0  0  0  0
  6 27  1  0  0  0  0
  6 28  1  0  0  0  0
  7  8  1  0  0  0  0
  7 29  1  0  0  0  0
  7 42  1  0  0  0  0
  8  9  1  0  0  0  0
  8 30  1  0  0  0  0
  8 31  1  0  0  0  0
  9 10  1  0  0  0  0
  9 32  1  0  0  0  0
  9 33  1  0  0  0  0
 10 14  1  0  0  0  0
 10 11  2  0  0  0  0
 11 12  1  0  0  0  0
 12 13  2  0  0  0  0
 12 34  1  0  0  0  0
 13 14  1  0  0  0  0
 14 15  1  0  0  0  0
 15 35  1  0  0  0  0
 15 36  1  0  0  0  0
 15 37  1  0  0  0  0
 16 17  1  0  0  0  0
 16 38  1  0  0  0  0
 16 39  1  0  0  0  0
 17 40  1  0  0  0  0
 17 41  1  0  0  0  0
M  CHG  1   7   1
M  END
> <s_m_source_file>
AV-unprocessed.smi

> <i_m_source_file_index>
3206

> <i_lp_mmshare_version>
43012

> <i_f3d_flags>
0

> <s_epik_input>
W0NIM11bQ0BASF0xW0NIMl1bQ0gyXVtDQEhdKFtDSDJdW0NIMl0xKVtDSDJdW05IXVtDSDJdW0NIMl1jMm5bY0hdbm4yW0NIM10=

> <s_epik_cmdline>
J2VwaWtfcHl0aG9uJywgJy1waCcsICc3LjAnLCAnLXRuJywgJzgnLCAnLW1hJywgJzIwMCcsICctbWV0YWxfYmluZGluZycsICctaW1hZScsICc8aW5maWxlLm1hZT4nLCAnLW9tYWUnLCAnPG91dGZpbGUubWFlPic=

> <r_lp_tautomer_probability>
1

> <r_epik_Ionization_Penalty>
0.00114491

> <r_epik_Ionization_Penalty_Charging>
0.00114083

> <r_epik_Ionization_Penalty_Neutral>
4.0852e-06

> <r_epik_State_Penalty>
-0

> <r_epik_Charging_Adjusted_Penalty>
0.00114083

> <i_epik_Tot_Q>
1

> <i_epik_Tot_abs_Q>
1

> <r_epik_Metal_State_Penalty>
-0

> <b_epik_Metal_Only>
0

> <s_lp_Force_Field>
OPLS_2005

> <r_lp_Energy>
13.9676

> <b_lp_Chiralities_Consistent>
1

> <s_lp_Variant>
AV-unprocessed.smi:3206-1

> <Gold.Version>
5.8.1

> <Gold.Id.Protein>
6NUR|6NUR_protein|mol2

> <Gold.PLP.Fitness>
55.3752

> <Gold.PLP.PLP>
-47.4251

> <Gold.PLP.part.hbond>
-2.0000

> <Gold.PLP.part.metal>
0.0000

> <Gold.PLP.part.buried>
-3.8518

> <Gold.PLP.part.nonpolar>
-40.7417

> <Gold.PLP.part.repulsive>
0.1898

> <Gold.PLP.ligand.clash>
0.0000

> <Gold.PLP.ligand.torsion>
0.5414

> <Gold.PLP.Chemscore.Hbond>
3.0000

> <Gold.PLP.Chemscore.CHOScore>
0.0000

> <Gold.PLP.Chemscore.Metal>
0.0000

> <Gold.Chemscore.Hbonds>
donor molecule, donor type, donor heavy atom, donor atom, acceptor molecule, acceptor atom, score
      L1  H     7    42       P1  8028  2.00
      P1  H  7997  8010       L1    11  1.00

> <Gold.PLP.Chemscore.Internal.Correction>
0.0330

> <Gold.Rescore>
     Score         DG    S(hbond)    S(metal)    S(lipo)     H(rot)  DE(clash)    DE(int)     intcor
     19.81     -20.37       1.98        0.00     115.69       2.05       0.05       0.51       ----

> <Gold.Chemscore.Fitness>
19.8094

> <Gold.Chemscore.DG>
-20.3702

> <Gold.Chemscore.ZeroCoef>
-5.4800

> <Gold.Chemscore.Hbond>
1.9789

> <Gold.Chemscore.Metal>
0.0000

> <Gold.Chemscore.Lipo>
115.6891

> <Gold.Chemscore.Internal_Hbond>
0.0000

> <Gold.Chemscore.DEClash>
0.0470

> <Gold.Chemscore.DEInternal>
0.5138

> <Gold.Chemscore.Rot>
2.0528

> <Gold.Chemscore.Internal.Correction>
   9.000000E+99

> <Gold.Chemscore.Hbonds>
donor molecule, donor type, donor heavy atom, donor atom, acceptor molecule, acceptor atom, score
      L1  H     7    42       P1  8028  0.77
      P1  H  7997  8010       L1    11  0.99

> <Gold.Chemscore.Hbond.Weighted>
-6.6096

> <Gold.Chemscore.Metal.Weighted>
-0.0000

> <Gold.Chemscore.Lipo.Weighted>
-13.5356

> <Gold.Chemscore.Internal_Hbond.Weighted>
0.0000

> <Gold.Chemscore.DEClash.Weighted>
0.0470

> <Gold.Chemscore.DEInternal.Weighted>
0.5138

> <Gold.Chemscore.Rot.Weighted>
5.2551

> <Gold.Chemscore.Internal.Correction.Weighted>
   9.000000E+99

> <Gold.Protein.RotatedTorsions>
[ 6907 6896 6895 6894 ] final  140.78 input  -60.11 | X-H torsion
[ 7974 7965 7964 7962 ] final   94.16 input  175.53 | X-H torsion
[ 8008 7997 7996 7995 ] final   78.57 input   59.86 | X-H torsion
[ 10167 10162 10161 10158 ] final   62.76 input  -65.29 | X-H torsion
[ 10718 10713 10712 10709 ] final  125.66 input   66.30 | X-H torsion
[ 10763 10752 10751 10750 ] final  136.06 input  -60.55 | X-H torsion
[ 11005 11000 10999 10996 ] final   91.60 input  -57.11 | X-H torsion

> <Gold.Protein.ActiveResidues>
 VAL166  LYS551  ARG553  GLY616  TRP617  ASP618  TYR619  PRO620  LYS621  CYS622 
 ASP623  PHE694  ASN695  SER759  ASP760  ASP761  ALA762  ILE779  LEU786  VAL792 
 PHE793  MET794  SER795  GLU796  ALA797  LYS798  CYS799  TRP800  GLU811  SER814 

> <Gold.Protein.RotatedAtoms>
  152.2389  133.5119  159.5258 H   0  0  0  0  0  0  0  0  0  0  0  0  # atno 6907 bound_to 6896
  150.7058  134.1115  159.4011 H   0  0  0  0  0  0  0  0  0  0  0  0  # atno 6908 bound_to 6896
  151.9036  135.0368  160.0559 H   0  0  0  0  0  0  0  0  0  0  0  0  # atno 6909 bound_to 6896
  145.4692  139.2283  143.2944 H   0  0  0  0  0  0  0  0  0  0  0  0  # atno 7974 bound_to 7965
  155.8576  140.3455  155.5734 H   0  0  0  0  0  0  0  0  0  0  0  0  # atno 8008 bound_to 7997
  155.7969  140.0879  157.1998 H   0  0  0  0  0  0  0  0  0  0  0  0  # atno 8009 bound_to 7997
  154.4010  140.1472  156.3216 H   0  0  0  0  0  0  0  0  0  0  0  0  # atno 8010 bound_to 7997
  140.1404  144.4558  150.6814 H   0  0  0  0  0  0  0  0  0  0  0  0  # atno 10167 bound_to 10162
  157.5484  131.1095  150.8743 H   0  0  0  0  0  0  0  0  0  0  0  0  # atno 10718 bound_to 10713
  153.8504  135.3080  155.3432 H   0  0  0  0  0  0  0  0  0  0  0  0  # atno 10763 bound_to 10752
  154.7894  135.4791  154.0021 H   0  0  0  0  0  0  0  0  0  0  0  0  # atno 10764 bound_to 10752
  153.1522  135.6845  153.8958 H   0  0  0  0  0  0  0  0  0  0  0  0  # atno 10765 bound_to 10752
  139.8836  134.8684  156.3452 H   0  0  0  0  0  0  0  0  0  0  0  0  # atno 11005 bound_to 11000
  146.2406  140.5469  142.8935 LP  0  0  0  0  0  0  0  0  0  0  0  0  # atno 17320 bound_to 7965
  144.7955  140.6115  143.6513 LP  0  0  0  0  0  0  0  0  0  0  0  0  # atno 17321 bound_to 7965
  140.6763  143.2307  151.5497 LP  0  0  0  0  0  0  0  0  0  0  0  0  # atno 17342 bound_to 10162
  139.5475  144.2483  152.1469 LP  0  0  0  0  0  0  0  0  0  0  0  0  # atno 17343 bound_to 10162
  156.9275  130.5337  149.5279 LP  0  0  0  0  0  0  0  0  0  0  0  0  # atno 17370 bound_to 10713
  156.0555  130.5617  150.9083 LP  0  0  0  0  0  0  0  0  0  0  0  0  # atno 17371 bound_to 10713
  140.9632  133.7375  156.0430 LP  0  0  0  0  0  0  0  0  0  0  0  0  # atno 17394 bound_to 11000
  140.7964  134.3559  157.5451 LP  0  0  0  0  0  0  0  0  0  0  0  0  # atno 17395 bound_to 11000

$$$$
