AV-unprocessed.smi:642|AV-procd|sdf|3152|dock6
  -GOLD-   22720 0 73D 1   1.00000     0.00000
 Structure written by MMmdl.
 49 51  0  0  0  0  0  0  0  0  1 V2000
  145.2853  137.7261  153.6016 O   0  0  0  0  0  0  0  0  0  0  0  0
  146.3482  137.3473  153.1091 C   0  0  0  0  0  0  0  0  0  0  0  0
  147.4914  138.0515  153.1092 N   0  0  0  0  0  0  0  0  0  0  0  0
  147.7216  139.3295  153.6902 C   0  0  0  0  0  0  0  0  0  0  0  0
  146.7388  140.3479  153.6725 C   0  0  0  0  0  0  0  0  0  0  0  0
  147.0464  141.6068  154.2183 C   0  0  0  0  0  0  0  0  0  0  0  0
  148.3317  141.8065  154.7523 C   0  0  0  0  0  0  0  0  0  0  0  0
  149.2824  140.8502  154.7656 N   0  0  0  0  0  0  0  0  0  0  0  0
  148.9937  139.6318  154.2460 C   0  0  0  0  0  0  0  0  0  0  0  0
  149.9989  138.6456  154.3040 N   0  0  0  0  0  0  0  0  0  0  0  0
  149.6402  137.4983  155.1306 C   0  0  0  0  0  0  0  0  0  0  0  0
  150.6655  136.3681  154.9359 C   0  0  0  0  0  0  0  0  0  0  0  0
  151.9754  136.8549  155.2143 O   0  0  0  0  0  0  0  0  0  0  0  0
  152.3451  137.9258  154.3502 C   0  0  0  0  0  0  0  0  0  0  0  0
  151.3672  139.0991  154.5346 C   0  0  0  0  0  0  0  0  0  0  0  0
  146.5165  136.1523  152.5246 N   0  0  0  0  0  0  0  0  0  0  0  0
  145.4984  135.1103  152.4058 C   0  0  0  0  0  0  0  0  0  0  0  0
  145.9518  133.8302  153.1438 C   0  0  0  0  0  0  0  0  0  0  0  0
  146.8306  132.8677  152.3266 C   0  0  0  0  0  0  0  0  0  0  0  0
  146.0036  131.8638  151.5033 C   0  0  0  0  0  0  0  0  0  0  0  0
  145.2956  132.4580  150.2752 C   0  0  0  0  0  0  0  0  0  0  0  0
  144.3678  133.6495  150.5729 C   0  0  0  0  0  0  0  0  0  0  0  0
  145.1439  134.9319  150.9149 C   0  0  0  0  0  0  0  0  0  0  0  0
  148.3125  137.5748  152.7658 H   0  0  0  0  0  0  0  0  0  0  0  0
  145.7655  140.1868  153.2340 H   0  0  0  0  0  0  0  0  0  0  0  0
  146.3169  142.4030  154.2196 H   0  0  0  0  0  0  0  0  0  0  0  0
  148.6058  142.7610  155.1767 H   0  0  0  0  0  0  0  0  0  0  0  0
  149.6190  137.8067  156.1767 H   0  0  0  0  0  0  0  0  0  0  0  0
  148.6411  137.1374  154.8862 H   0  0  0  0  0  0  0  0  0  0  0  0
  150.4437  135.5398  155.6090 H   0  0  0  0  0  0  0  0  0  0  0  0
  150.6199  135.9741  153.9192 H   0  0  0  0  0  0  0  0  0  0  0  0
  153.3605  138.2419  154.5897 H   0  0  0  0  0  0  0  0  0  0  0  0
  152.3526  137.5844  153.3138 H   0  0  0  0  0  0  0  0  0  0  0  0
  151.6135  139.9051  153.8421 H   0  0  0  0  0  0  0  0  0  0  0  0
  151.4586  139.4979  155.5459 H   0  0  0  0  0  0  0  0  0  0  0  0
  147.4285  135.9345  152.1507 H   0  0  0  0  0  0  0  0  0  0  0  0
  144.5923  135.4570  152.9062 H   0  0  0  0  0  0  0  0  0  0  0  0
  146.4861  134.1128  154.0520 H   0  0  0  0  0  0  0  0  0  0  0  0
  145.0727  133.2925  153.5009 H   0  0  0  0  0  0  0  0  0  0  0  0
  147.5337  133.4135  151.6964 H   0  0  0  0  0  0  0  0  0  0  0  0
  147.4416  132.2954  153.0256 H   0  0  0  0  0  0  0  0  0  0  0  0
  146.6653  131.0676  151.1603 H   0  0  0  0  0  0  0  0  0  0  0  0
  145.2706  131.3769  152.1475 H   0  0  0  0  0  0  0  0  0  0  0  0
  146.0379  132.7484  149.5307 H   0  0  0  0  0  0  0  0  0  0  0  0
  144.7070  131.6676  149.8084 H   0  0  0  0  0  0  0  0  0  0  0  0
  143.7793  133.8414  149.6751 H   0  0  0  0  0  0  0  0  0  0  0  0
  143.6471  133.4046  151.3539 H   0  0  0  0  0  0  0  0  0  0  0  0
  144.5473  135.7923  150.6092 H   0  0  0  0  0  0  0  0  0  0  0  0
  146.0451  134.9779  150.3016 H   0  0  0  0  0  0  0  0  0  0  0  0
  1  2  2  0  0  0  0
  2  3  1  0  0  0  0
  2 16  1  0  0  0  0
  3  4  1  0  0  0  0
  3 24  1  0  0  0  0
  4  9  1  0  0  0  0
  4  5  2  0  0  0  0
  5  6  1  0  0  0  0
  5 25  1  0  0  0  0
  6  7  2  0  0  0  0
  6 26  1  0  0  0  0
  7  8  1  0  0  0  0
  7 27  1  0  0  0  0
  8  9  2  0  0  0  0
  9 10  1  0  0  0  0
 10 15  1  0  0  0  0
 10 11  1  0  0  0  0
 11 12  1  0  0  0  0
 11 28  1  0  0  0  0
 11 29  1  0  0  0  0
 12 13  1  0  0  0  0
 12 30  1  0  0  0  0
 12 31  1  0  0  0  0
 13 14  1  0  0  0  0
 14 15  1  0  0  0  0
 14 32  1  0  0  0  0
 14 33  1  0  0  0  0
 15 34  1  0  0  0  0
 15 35  1  0  0  0  0
 16 17  1  0  0  0  0
 16 36  1  0  0  0  0
 17 23  1  0  0  0  0
 17 18  1  0  0  0  0
 17 37  1  0  0  0  0
 18 19  1  0  0  0  0
 18 38  1  0  0  0  0
 18 39  1  0  0  0  0
 19 20  1  0  0  0  0
 19 40  1  0  0  0  0
 19 41  1  0  0  0  0
 20 21  1  0  0  0  0
 20 42  1  0  0  0  0
 20 43  1  0  0  0  0
 21 22  1  0  0  0  0
 21 44  1  0  0  0  0
 21 45  1  0  0  0  0
 22 23  1  0  0  0  0
 22 46  1  0  0  0  0
 22 47  1  0  0  0  0
 23 48  1  0  0  0  0
 23 49  1  0  0  0  0
M  END
> <s_m_source_file>
AV-unprocessed.smi

> <i_m_source_file_index>
642

> <i_lp_mmshare_version>
43012

> <i_f3d_flags>
0

> <s_epik_input>
W0NIMl0xW0NIMl1bQ0gyXVtDSDJdW0NIMl1bQ0gyXVtDSF0xW05IXUMoPU8pW05IXWMyW2NIXVtjSF1bY0hdbmMyTjNbQ0gyXVtDSDJdT1tDSDJdW0NIMl0z

> <s_epik_cmdline>
J2VwaWtfcHl0aG9uJywgJy1waCcsICc3LjAnLCAnLXRuJywgJzgnLCAnLW1hJywgJzIwMCcsICctbWV0YWxfYmluZGluZycsICctaW1hZScsICc8aW5maWxlLm1hZT4nLCAnLW9tYWUnLCAnPG91dGZpbGUubWFlPic=

> <r_lp_tautomer_probability>
1

> <r_epik_Ionization_Penalty>
0.00218327

> <r_epik_Ionization_Penalty_Charging>
0

> <r_epik_Ionization_Penalty_Neutral>
0.00218327

> <r_epik_State_Penalty>
0.00146969

> <r_epik_Charging_Adjusted_Penalty>
0.00146969

> <i_epik_Tot_Q>
0

> <i_epik_Tot_abs_Q>
0

> <r_epik_Metal_State_Penalty>
-0

> <b_epik_Metal_Only>
0

> <s_lp_Force_Field>
OPLS_2005

> <r_lp_Energy>
33.5624

> <b_lp_Chiralities_Consistent>
1

> <s_lp_Variant>
AV-unprocessed.smi:642-1

> <Gold.Version>
5.8.1

> <Gold.Id.Protein>
6NUR|6NUR_protein|mol2

> <Gold.PLP.Fitness>
47.5428

> <Gold.PLP.PLP>
-36.4187

> <Gold.PLP.part.hbond>
-2.9831

> <Gold.PLP.part.metal>
0.0000

> <Gold.PLP.part.buried>
-2.3883

> <Gold.PLP.part.nonpolar>
-32.8186

> <Gold.PLP.part.repulsive>
0.6474

> <Gold.PLP.ligand.clash>
0.0000

> <Gold.PLP.ligand.torsion>
0.5176

> <Gold.PLP.Chemscore.Hbond>
2.9760

> <Gold.PLP.Chemscore.CHOScore>
1.0000

> <Gold.PLP.Chemscore.Metal>
0.0000

> <Gold.Chemscore.Hbonds>
donor molecule, donor type, donor heavy atom, donor atom, acceptor molecule, acceptor atom, score
      L1  H     3    24       P1  7948  0.96
      L1  H    16    36       P1  7948  1.00
      P1  H 10752 10765       L1    13  0.96
      L1  C     7    27       P1  8028  0.98

> <Gold.PLP.Chemscore.Internal.Correction>
0.2313

> <Gold.Rescore>
     Score         DG    S(hbond)    S(metal)    S(lipo)     H(rot)  DE(clash)    DE(int)     intcor
     19.22     -22.49       2.51        0.00      99.42       1.18       0.51       2.75       ----

> <Gold.Chemscore.Fitness>
19.2196

> <Gold.Chemscore.DG>
-22.4860

> <Gold.Chemscore.ZeroCoef>
-5.4800

> <Gold.Chemscore.Hbond>
2.5125

> <Gold.Chemscore.Metal>
0.0000

> <Gold.Chemscore.Lipo>
99.4236

> <Gold.Chemscore.Internal_Hbond>
0.0000

> <Gold.Chemscore.DEClash>
0.5123

> <Gold.Chemscore.DEInternal>
2.7541

> <Gold.Chemscore.Rot>
1.1791

> <Gold.Chemscore.Internal.Correction>
   9.000000E+99

> <Gold.Chemscore.Hbonds>
donor molecule, donor type, donor heavy atom, donor atom, acceptor molecule, acceptor atom, score
      L1  H     3    24       P1  7948  0.92
      L1  H    16    36       P1  7948  0.94
      P1  H 10752 10765       L1    13  0.28

> <Gold.Chemscore.Hbond.Weighted>
-8.3918

> <Gold.Chemscore.Metal.Weighted>
-0.0000

> <Gold.Chemscore.Lipo.Weighted>
-11.6326

> <Gold.Chemscore.Internal_Hbond.Weighted>
0.0000

> <Gold.Chemscore.DEClash.Weighted>
0.5123

> <Gold.Chemscore.DEInternal.Weighted>
2.7541

> <Gold.Chemscore.Rot.Weighted>
3.0184

> <Gold.Chemscore.Internal.Correction.Weighted>
   9.000000E+99

> <Gold.Protein.RotatedTorsions>
[ 6907 6896 6895 6894 ] final -121.21 input  -60.11 | X-H torsion
[ 7974 7965 7964 7962 ] final  132.03 input  175.53 | X-H torsion
[ 8008 7997 7996 7995 ] final  119.54 input   59.86 | X-H torsion
[ 10167 10162 10161 10158 ] final  -66.83 input  -65.29 | X-H torsion
[ 10718 10713 10712 10709 ] final  106.20 input   66.30 | X-H torsion
[ 10763 10752 10751 10750 ] final -162.68 input  -60.55 | X-H torsion
[ 11005 11000 10999 10996 ] final  123.61 input  -57.11 | X-H torsion

> <Gold.Protein.ActiveResidues>
 VAL166  LYS551  ARG553  GLY616  TRP617  ASP618  TYR619  PRO620  LYS621  CYS622 
 ASP623  PHE694  ASN695  SER759  ASP760  ASP761  ALA762  ILE779  LEU786  VAL792 
 PHE793  MET794  SER795  GLU796  ALA797  LYS798  CYS799  TRP800  GLU811  SER814 

> <Gold.Protein.RotatedAtoms>
  150.8462  133.7857  159.3041 H   0  0  0  0  0  0  0  0  0  0  0  0  # atno 6907 bound_to 6896
  151.5544  135.1065  159.9967 H   0  0  0  0  0  0  0  0  0  0  0  0  # atno 6908 bound_to 6896
  152.4515  133.7596  159.6795 H   0  0  0  0  0  0  0  0  0  0  0  0  # atno 6909 bound_to 6896
  145.0010  139.4312  143.5292 H   0  0  0  0  0  0  0  0  0  0  0  0  # atno 7974 bound_to 7965
  156.2601  140.2850  156.1008 H   0  0  0  0  0  0  0  0  0  0  0  0  # atno 8008 bound_to 7997
  155.1362  140.0394  157.2804 H   0  0  0  0  0  0  0  0  0  0  0  0  # atno 8009 bound_to 7997
  154.6563  140.2556  155.7164 H   0  0  0  0  0  0  0  0  0  0  0  0  # atno 8010 bound_to 7997
  140.5628  143.2313  151.6694 H   0  0  0  0  0  0  0  0  0  0  0  0  # atno 10167 bound_to 10162
  157.6677  131.0845  150.5971 H   0  0  0  0  0  0  0  0  0  0  0  0  # atno 10718 bound_to 10713
  154.7192  135.3022  154.9074 H   0  0  0  0  0  0  0  0  0  0  0  0  # atno 10763 bound_to 10752
  153.9951  135.6714  153.4760 H   0  0  0  0  0  0  0  0  0  0  0  0  # atno 10764 bound_to 10752
  153.0820  135.5004  154.8438 H   0  0  0  0  0  0  0  0  0  0  0  0  # atno 10765 bound_to 10752
  139.9320  134.9641  156.8285 H   0  0  0  0  0  0  0  0  0  0  0  0  # atno 11005 bound_to 11000
  146.3452  139.9399  142.8742 LP  0  0  0  0  0  0  0  0  0  0  0  0  # atno 17320 bound_to 7965
  145.2152  140.9912  143.4077 LP  0  0  0  0  0  0  0  0  0  0  0  0  # atno 17321 bound_to 7965
  139.5078  144.3632  152.0542 LP  0  0  0  0  0  0  0  0  0  0  0  0  # atno 17342 bound_to 10162
  140.2761  144.3911  150.6135 LP  0  0  0  0  0  0  0  0  0  0  0  0  # atno 17343 bound_to 10162
  156.6271  130.4422  149.5800 LP  0  0  0  0  0  0  0  0  0  0  0  0  # atno 17370 bound_to 10713
  156.2310  130.6795  151.1464 LP  0  0  0  0  0  0  0  0  0  0  0  0  # atno 17371 bound_to 10713
  140.6176  134.0024  155.7604 LP  0  0  0  0  0  0  0  0  0  0  0  0  # atno 17394 bound_to 11000
  141.0914  133.9910  157.3230 LP  0  0  0  0  0  0  0  0  0  0  0  0  # atno 17395 bound_to 11000

$$$$
