AV-unprocessed.smi:739|AV-procd|sdf|3545|dock6
  -GOLD-   22720 0543D 1   1.00000     0.00000
 Structure written by MMmdl.
 33 35  0  0  0  0  0  0  0  0  2 V2000
  152.7527  139.7485  158.0057 O   0  0  0  0  0  0  0  0  0  0  0  0
  151.9138  140.6835  157.3548 C   0  0  1  0  0  0  0  0  0  0  0  0
  150.4928  140.1011  157.2224 C   0  0  0  0  0  0  0  0  0  0  0  0
  149.9182  140.2973  155.8852 N   0  0  0  0  0  0  0  0  0  0  0  0
  150.3494  139.8521  154.6739 C   0  0  0  0  0  0  0  0  0  0  0  0
  149.4716  140.3033  153.7350 N   0  3  0  0  0  0  0  0  0  0  0  0
  148.4658  141.0477  154.3562 C   0  0  0  0  0  0  0  0  0  0  0  0
  147.3584  141.7049  153.8295 C   0  0  0  0  0  0  0  0  0  0  0  0
  146.5234  142.3774  154.7462 C   0  0  0  0  0  0  0  0  0  0  0  0
  145.4307  143.0321  154.2873 F   0  0  0  0  0  0  0  0  0  0  0  0
  146.8041  142.3809  156.1294 C   0  0  0  0  0  0  0  0  0  0  0  0
  145.9763  143.0391  156.9751 F   0  0  0  0  0  0  0  0  0  0  0  0
  147.9306  141.7116  156.6516 C   0  0  0  0  0  0  0  0  0  0  0  0
  148.7481  141.0484  155.7381 C   0  0  0  0  0  0  0  0  0  0  0  0
  151.8936  142.0301  158.0604 C   0  0  0  0  0  0  0  0  0  0  0  0
  152.5349  142.1802  159.3089 C   0  0  0  0  0  0  0  0  0  0  0  0
  152.5287  143.4264  159.9653 C   0  0  0  0  0  0  0  0  0  0  0  0
  151.8838  144.5306  159.3758 C   0  0  0  0  0  0  0  0  0  0  0  0
  151.8785  145.7282  160.0072 F   0  0  0  0  0  0  0  0  0  0  0  0
  151.2460  144.3884  158.1284 C   0  0  0  0  0  0  0  0  0  0  0  0
  151.2510  143.1422  157.4721 C   0  0  0  0  0  0  0  0  0  0  0  0
  152.6924  139.8913  158.9382 H   0  0  0  0  0  0  0  0  0  0  0  0
  152.3303  140.8294  156.3574 H   0  0  0  0  0  0  0  0  0  0  0  0
  150.5001  139.0283  157.4209 H   0  0  0  0  0  0  0  0  0  0  0  0
  149.8184  140.5459  157.9554 H   0  0  0  0  0  0  0  0  0  0  0  0
  151.2302  139.2530  154.4910 H   0  0  0  0  0  0  0  0  0  0  0  0
  147.1405  141.7051  152.7715 H   0  0  0  0  0  0  0  0  0  0  0  0
  148.1370  141.7209  157.7114 H   0  0  0  0  0  0  0  0  0  0  0  0
  153.0353  141.3403  159.7688 H   0  0  0  0  0  0  0  0  0  0  0  0
  153.0199  143.5354  160.9211 H   0  0  0  0  0  0  0  0  0  0  0  0
  150.7536  145.2356  157.6743 H   0  0  0  0  0  0  0  0  0  0  0  0
  150.7617  143.0446  156.5140 H   0  0  0  0  0  0  0  0  0  0  0  0
  149.5568  140.1152  152.7441 H   0  0  0  0  0  0  0  0  0  0  0  0
  1  2  1  0  0  0  0
  1 22  1  0  0  0  0
  2  3  1  0  0  0  0
  2 15  1  0  0  0  0
  2 23  1  0  0  0  0
  3  4  1  0  0  0  0
  3 24  1  0  0  0  0
  3 25  1  0  0  0  0
  4 14  1  0  0  0  0
  4  5  1  0  0  0  0
  5  6  2  0  0  0  0
  5 26  1  0  0  0  0
  6  7  1  0  0  0  0
  6 33  1  0  0  0  0
  7 14  2  0  0  0  0
  7  8  1  0  0  0  0
  8  9  2  0  0  0  0
  8 27  1  0  0  0  0
  9 10  1  0  0  0  0
  9 11  1  0  0  0  0
 11 12  1  0  0  0  0
 11 13  2  0  0  0  0
 13 14  1  0  0  0  0
 13 28  1  0  0  0  0
 15 21  1  0  0  0  0
 15 16  2  0  0  0  0
 16 17  1  0  0  0  0
 16 29  1  0  0  0  0
 17 18  2  0  0  0  0
 17 30  1  0  0  0  0
 18 19  1  0  0  0  0
 18 20  1  0  0  0  0
 20 21  2  0  0  0  0
 20 31  1  0  0  0  0
 21 32  1  0  0  0  0
M  CHG  1   6   1
M  END
> <s_m_source_file>
AV-unprocessed.smi

> <i_m_source_file_index>
739

> <i_lp_mmshare_version>
43012

> <i_f3d_flags>
0

> <s_epik_input>
W2NIXTFbY0hdYyhGKVtjSF1bY0hdYzFbQ0BIXShbT0hdKVtDSDJdbihbY0hdbjIpYyhjMjMpW2NIXWMoRiljKEYpW2NIXTM=

> <s_epik_cmdline>
J2VwaWtfcHl0aG9uJywgJy1waCcsICc3LjAnLCAnLXRuJywgJzgnLCAnLW1hJywgJzIwMCcsICctbWV0YWxfYmluZGluZycsICctaW1hZScsICc8aW5maWxlLm1hZT4nLCAnLW9tYWUnLCAnPG91dGZpbGUubWFlPic=

> <r_epik_Ionization_Penalty>
2.16139

> <r_epik_Ionization_Penalty_Charging>
2.16138

> <r_epik_Ionization_Penalty_Neutral>
1.79538e-06

> <r_epik_State_Penalty>
2.30198

> <r_epik_Charging_Adjusted_Penalty>
4.46337

> <i_epik_Tot_Q>
1

> <i_epik_Tot_abs_Q>
1

> <r_epik_Metal_State_Penalty>
6.38245

> <b_epik_Metal_Only>
0

> <s_lp_Force_Field>
OPLS_2005

> <r_lp_Energy>
14.9103

> <b_lp_Chiralities_Consistent>
1

> <s_lp_Variant>
AV-unprocessed.smi:739-4

> <Gold.Version>
5.8.1

> <Gold.Id.Protein>
6NUR|6NUR_protein|mol2

> <Gold.PLP.Fitness>
52.8818

> <Gold.PLP.PLP>
-48.2431

> <Gold.PLP.part.hbond>
-2.0000

> <Gold.PLP.part.metal>
0.0000

> <Gold.PLP.part.buried>
-5.3999

> <Gold.PLP.part.nonpolar>
-41.8374

> <Gold.PLP.part.repulsive>
1.1707

> <Gold.PLP.ligand.clash>
0.0000

> <Gold.PLP.ligand.torsion>
0.6911

> <Gold.PLP.Chemscore.Hbond>
2.0000

> <Gold.PLP.Chemscore.CHOScore>
0.0000

> <Gold.PLP.Chemscore.Metal>
0.0000

> <Gold.Chemscore.Hbonds>
donor molecule, donor type, donor heavy atom, donor atom, acceptor molecule, acceptor atom, score
      L1  H     6    33       P1  7957  1.00
      P1  H  7997  8009       L1     1  0.83

> <Gold.PLP.Chemscore.Internal.Correction>
0.0210

> <Gold.Rescore>
     Score         DG    S(hbond)    S(metal)    S(lipo)     H(rot)  DE(clash)    DE(int)     intcor
     17.59     -18.57       1.85        0.00     105.46       2.12       0.34       0.64       ----

> <Gold.Chemscore.Fitness>
17.5850

> <Gold.Chemscore.DG>
-18.5708

> <Gold.Chemscore.ZeroCoef>
-5.4800

> <Gold.Chemscore.Hbond>
1.8483

> <Gold.Chemscore.Metal>
0.0000

> <Gold.Chemscore.Lipo>
105.4567

> <Gold.Chemscore.Internal_Hbond>
0.0000

> <Gold.Chemscore.DEClash>
0.3433

> <Gold.Chemscore.DEInternal>
0.6425

> <Gold.Chemscore.Rot>
2.1176

> <Gold.Chemscore.Internal.Correction>
   9.000000E+99

> <Gold.Chemscore.Hbonds>
donor molecule, donor type, donor heavy atom, donor atom, acceptor molecule, acceptor atom, score
      L1  H     6    33       P1  7957  0.98
      P1  H  7997  8009       L1     1  0.18

> <Gold.Chemscore.Hbond.Weighted>
-6.1735

> <Gold.Chemscore.Metal.Weighted>
-0.0000

> <Gold.Chemscore.Lipo.Weighted>
-12.3384

> <Gold.Chemscore.Internal_Hbond.Weighted>
0.0000

> <Gold.Chemscore.DEClash.Weighted>
0.3433

> <Gold.Chemscore.DEInternal.Weighted>
0.6425

> <Gold.Chemscore.Rot.Weighted>
5.4211

> <Gold.Chemscore.Internal.Correction.Weighted>
   9.000000E+99

> <Gold.Protein.RotatedTorsions>
[ 6907 6896 6895 6894 ] final    5.69 input  -60.11 | X-H torsion
[ 7974 7965 7964 7962 ] final   31.94 input  175.53 | X-H torsion
[ 8008 7997 7996 7995 ] final  162.22 input   59.86 | X-H torsion
[ 10167 10162 10161 10158 ] final   58.10 input  -65.29 | X-H torsion
[ 10718 10713 10712 10709 ] final  -33.98 input   66.30 | X-H torsion
[ 10763 10752 10751 10750 ] final  -82.61 input  -60.55 | X-H torsion
[ 11005 11000 10999 10996 ] final  173.10 input  -57.11 | X-H torsion

> <Gold.Protein.ActiveResidues>
 VAL166  LYS551  ARG553  GLY616  TRP617  ASP618  TYR619  PRO620  LYS621  CYS622 
 ASP623  PHE694  ASN695  SER759  ASP760  ASP761  ALA762  ILE779  LEU786  VAL792 
 PHE793  MET794  SER795  GLU796  ALA797  LYS798  CYS799  TRP800  GLU811  SER814 

> <Gold.Protein.RotatedAtoms>
  151.6616  135.0988  160.0180 H   0  0  0  0  0  0  0  0  0  0  0  0  # atno 6907 bound_to 6896
  152.3943  133.6720  159.6272 H   0  0  0  0  0  0  0  0  0  0  0  0  # atno 6908 bound_to 6896
  150.7853  133.8817  159.3329 H   0  0  0  0  0  0  0  0  0  0  0  0  # atno 6909 bound_to 6896
  146.1518  139.6591  142.9093 H   0  0  0  0  0  0  0  0  0  0  0  0  # atno 7974 bound_to 7965
  156.2047  140.1756  156.7825 H   0  0  0  0  0  0  0  0  0  0  0  0  # atno 8008 bound_to 7997
  154.5639  140.0694  156.8892 H   0  0  0  0  0  0  0  0  0  0  0  0  # atno 8009 bound_to 7997
  155.2797  140.3348  155.4261 H   0  0  0  0  0  0  0  0  0  0  0  0  # atno 8010 bound_to 7997
  140.1908  144.4087  150.6572 H   0  0  0  0  0  0  0  0  0  0  0  0  # atno 10167 bound_to 10162
  156.3561  130.4316  149.7663 H   0  0  0  0  0  0  0  0  0  0  0  0  # atno 10718 bound_to 10713
  154.5778  135.5585  153.7156 H   0  0  0  0  0  0  0  0  0  0  0  0  # atno 10763 bound_to 10752
  153.0070  135.6312  154.2025 H   0  0  0  0  0  0  0  0  0  0  0  0  # atno 10764 bound_to 10752
  154.1966  135.2880  155.2984 H   0  0  0  0  0  0  0  0  0  0  0  0  # atno 10765 bound_to 10752
  140.3368  134.7310  157.4174 H   0  0  0  0  0  0  0  0  0  0  0  0  # atno 11005 bound_to 11000
  145.4804  141.0438  143.2649 LP  0  0  0  0  0  0  0  0  0  0  0  0  # atno 17320 bound_to 7965
  144.7914  139.6321  143.7112 LP  0  0  0  0  0  0  0  0  0  0  0  0  # atno 17321 bound_to 7965
  140.6457  143.2213  151.6191 LP  0  0  0  0  0  0  0  0  0  0  0  0  # atno 17342 bound_to 10162
  139.5257  144.3068  152.1027 LP  0  0  0  0  0  0  0  0  0  0  0  0  # atno 17343 bound_to 10162
  156.4844  130.8056  151.3069 LP  0  0  0  0  0  0  0  0  0  0  0  0  # atno 17370 bound_to 10713
  157.7467  130.9995  150.2892 LP  0  0  0  0  0  0  0  0  0  0  0  0  # atno 17371 bound_to 10713
  140.0814  134.5726  155.8536 LP  0  0  0  0  0  0  0  0  0  0  0  0  # atno 17394 bound_to 11000
  141.2049  133.6643  156.6148 LP  0  0  0  0  0  0  0  0  0  0  0  0  # atno 17395 bound_to 11000

$$$$
