AV-unprocessed.smi:2673|AV-procd|sdf|10355|dock5
  -GOLD-   2272014383D 1   1.00000     0.00000
 Structure written by MMmdl.
 31 32  0  0  0  0  0  0  0  0  2 V2000
  149.2731  138.2315  159.4279 O   0  0  0  0  0  0  0  0  0  0  0  0
  149.2386  137.1150  158.9069 C   0  0  0  0  0  0  0  0  0  0  0  0
  148.8726  135.9655  159.5187 N   0  5  0  0  0  0  0  0  0  0  0  0
  148.2010  136.0072  160.6814 C   0  0  0  0  0  0  0  0  0  0  0  0
  148.2485  137.0689  161.5022 N   0  0  0  0  0  0  0  0  0  0  0  0
  147.4855  136.9057  162.6505 N   0  0  0  0  0  0  0  0  0  0  0  0
  146.8867  135.7152  162.6707 C   0  0  0  0  0  0  0  0  0  0  0  0
  147.2010  134.6853  161.2902 S   0  0  0  0  0  0  0  0  0  0  0  0
  149.5770  136.9438  157.6169 N   0  0  0  0  0  0  0  0  0  0  0  0
  150.0180  137.9122  156.5960 C   0  0  0  0  0  0  0  0  0  0  0  0
  148.7007  138.5004  156.0043 C   0  0  0  0  0  0  0  0  0  0  0  0
  148.9170  139.4266  155.0728 F   0  0  0  0  0  0  0  0  0  0  0  0
  147.9698  137.5313  155.4499 F   0  0  0  0  0  0  0  0  0  0  0  0
  147.9698  139.0601  156.9704 F   0  0  0  0  0  0  0  0  0  0  0  0
  150.8775  139.0286  157.2682 C   0  0  0  0  0  0  0  0  0  0  0  0
  151.6222  139.9394  156.2762 C   0  0  0  0  0  0  0  0  0  0  0  0
  152.4608  139.1219  155.2855 C   0  0  0  0  0  0  0  0  0  0  0  0
  151.5914  138.1097  154.5292 C   0  0  0  0  0  0  0  0  0  0  0  0
  150.8451  137.1745  155.4972 C   0  0  0  0  0  0  0  0  0  0  0  0
  146.2577  135.4408  163.5042 H   0  0  0  0  0  0  0  0  0  0  0  0
  149.5175  135.9913  157.2874 H   0  0  0  0  0  0  0  0  0  0  0  0
  150.2602  139.6353  157.9310 H   0  0  0  0  0  0  0  0  0  0  0  0
  151.6391  138.5889  157.9100 H   0  0  0  0  0  0  0  0  0  0  0  0
  150.9202  140.5730  155.7359 H   0  0  0  0  0  0  0  0  0  0  0  0
  152.2713  140.6204  156.8271 H   0  0  0  0  0  0  0  0  0  0  0  0
  152.9565  139.7883  154.5791 H   0  0  0  0  0  0  0  0  0  0  0  0
  153.2512  138.5958  155.8225 H   0  0  0  0  0  0  0  0  0  0  0  0
  150.8886  138.6330  153.8821 H   0  0  0  0  0  0  0  0  0  0  0  0
  152.2191  137.5157  153.8642 H   0  0  0  0  0  0  0  0  0  0  0  0
  151.6011  136.5380  155.9538 H   0  0  0  0  0  0  0  0  0  0  0  0
  150.2047  136.4973  154.9316 H   0  0  0  0  0  0  0  0  0  0  0  0
  1  2  2  0  0  0  0
  2  3  1  0  0  0  0
  2  9  1  0  0  0  0
  3  4  1  0  0  0  0
  4  8  1  0  0  0  0
  4  5  2  0  0  0  0
  5  6  1  0  0  0  0
  6  7  2  0  0  0  0
  7  8  1  0  0  0  0
  7 20  1  0  0  0  0
  9 10  1  0  0  0  0
  9 21  1  0  0  0  0
 10 19  1  0  0  0  0
 10 11  1  0  0  0  0
 10 15  1  0  0  0  0
 11 12  1  0  0  0  0
 11 13  1  0  0  0  0
 11 14  1  0  0  0  0
 15 16  1  0  0  0  0
 15 22  1  0  0  0  0
 15 23  1  0  0  0  0
 16 17  1  0  0  0  0
 16 24  1  0  0  0  0
 16 25  1  0  0  0  0
 17 18  1  0  0  0  0
 17 26  1  0  0  0  0
 17 27  1  0  0  0  0
 18 19  1  0  0  0  0
 18 28  1  0  0  0  0
 18 29  1  0  0  0  0
 19 30  1  0  0  0  0
 19 31  1  0  0  0  0
M  CHG  1   3  -1
M  END
> <s_m_source_file>
AV-unprocessed.smi

> <i_m_source_file_index>
2673

> <i_lp_mmshare_version>
43012

> <i_f3d_flags>
0

> <s_epik_input>
czFbY0hdbm5jMVtOSF1DKD1PKVtOSF1DMihDKEYpKEYpRilbQ0gyXVtDSDJdW0NIMl1bQ0gyXVtDSDJdMg==

> <s_epik_cmdline>
J2VwaWtfcHl0aG9uJywgJy1waCcsICc3LjAnLCAnLXRuJywgJzgnLCAnLW1hJywgJzIwMCcsICctbWV0YWxfYmluZGluZycsICctaW1hZScsICc8aW5maWxlLm1hZT4nLCAnLW9tYWUnLCAnPG91dGZpbGUubWFlPic=

> <r_epik_Ionization_Penalty>
0.0924979

> <r_epik_Ionization_Penalty_Charging>
0.057676

> <r_epik_Ionization_Penalty_Neutral>
0.0348219

> <r_epik_State_Penalty>
0.0765232

> <r_epik_Charging_Adjusted_Penalty>
0.134199

> <i_epik_Tot_Q>
-1

> <i_epik_Tot_abs_Q>
1

> <r_epik_Metal_State_Penalty>
0.0698334

> <b_epik_Metal_Only>
0

> <s_lp_Force_Field>
OPLS_2005

> <r_lp_Energy>
15.8773

> <b_lp_Chiralities_Consistent>
1

> <s_lp_Variant>
AV-unprocessed.smi:2673-1

> <Gold.Version>
5.8.1

> <Gold.Id.Protein>
6NUR|6NUR_protein|mol2

> <Gold.PLP.Fitness>
37.0468

> <Gold.PLP.PLP>
-27.9782

> <Gold.PLP.part.hbond>
-4.9811

> <Gold.PLP.part.metal>
0.0000

> <Gold.PLP.part.buried>
-3.2993

> <Gold.PLP.part.nonpolar>
-20.8393

> <Gold.PLP.part.repulsive>
0.0571

> <Gold.PLP.ligand.clash>
0.0000

> <Gold.PLP.ligand.torsion>
0.7001

> <Gold.PLP.Chemscore.Hbond>
3.4845

> <Gold.PLP.Chemscore.CHOScore>
0.0000

> <Gold.PLP.Chemscore.Metal>
0.0000

> <Gold.Chemscore.Hbonds>
donor molecule, donor type, donor heavy atom, donor atom, acceptor molecule, acceptor atom, score
      P1  H  6896  6907       L1     3  0.98
      P1  H  6931  6943       L1     5  0.82
      P1  H  6934  6947       L1     5  0.13

> <Gold.PLP.Chemscore.Internal.Correction>
0.0152

> <Gold.Rescore>
     Score         DG    S(hbond)    S(metal)    S(lipo)     H(rot)  DE(clash)    DE(int)     intcor
      8.43     -14.74       1.81        0.00      49.25       1.00       0.02       6.29       ----

> <Gold.Chemscore.Fitness>
8.4255

> <Gold.Chemscore.DG>
-14.7360

> <Gold.Chemscore.ZeroCoef>
-5.4800

> <Gold.Chemscore.Hbond>
1.8124

> <Gold.Chemscore.Metal>
0.0000

> <Gold.Chemscore.Lipo>
49.2530

> <Gold.Chemscore.Internal_Hbond>
0.0000

> <Gold.Chemscore.DEClash>
0.0202

> <Gold.Chemscore.DEInternal>
6.2903

> <Gold.Chemscore.Rot>
1.0000

> <Gold.Chemscore.Internal.Correction>
   9.000000E+99

> <Gold.Chemscore.Hbonds>
donor molecule, donor type, donor heavy atom, donor atom, acceptor molecule, acceptor atom, score
      P1  H  6896  6907       L1     3  0.20
      P1  H  6931  6943       L1     5  0.18
      P1  H  6934  6947       L1     5  0.01

> <Gold.Chemscore.Hbond.Weighted>
-6.0534

> <Gold.Chemscore.Metal.Weighted>
-0.0000

> <Gold.Chemscore.Lipo.Weighted>
-5.7626

> <Gold.Chemscore.Internal_Hbond.Weighted>
0.0000

> <Gold.Chemscore.DEClash.Weighted>
0.0202

> <Gold.Chemscore.DEInternal.Weighted>
6.2903

> <Gold.Chemscore.Rot.Weighted>
2.5600

> <Gold.Chemscore.Internal.Correction.Weighted>
   9.000000E+99

> <Gold.Protein.RotatedTorsions>
[ 6907 6896 6895 6894 ] final  -58.52 input  -60.11 | X-H torsion
[ 7974 7965 7964 7962 ] final  132.46 input  175.53 | X-H torsion
[ 8008 7997 7996 7995 ] final   27.15 input   59.86 | X-H torsion
[ 10167 10162 10161 10158 ] final  153.38 input  -65.29 | X-H torsion
[ 10718 10713 10712 10709 ] final  -22.97 input   66.30 | X-H torsion
[ 10763 10752 10751 10750 ] final -104.28 input  -60.55 | X-H torsion
[ 11005 11000 10999 10996 ] final  101.49 input  -57.11 | X-H torsion

> <Gold.Protein.ActiveResidues>
 VAL166  LYS551  ARG553  GLY616  TRP617  ASP618  TYR619  PRO620  LYS621  CYS622 
 ASP623  PHE694  ASN695  SER759  ASP760  ASP761  ALA762  ILE779  LEU786  VAL792 
 PHE793  MET794  SER795  GLU796  ALA797  LYS798  CYS799  TRP800  GLU811  SER814 

> <Gold.Protein.RotatedAtoms>
  150.8001  134.7088  159.6591 H   0  0  0  0  0  0  0  0  0  0  0  0  # atno 6907 bound_to 6896
  152.4117  134.6110  160.0035 H   0  0  0  0  0  0  0  0  0  0  0  0  # atno 6908 bound_to 6896
  151.6351  133.3292  159.3153 H   0  0  0  0  0  0  0  0  0  0  0  0  # atno 6909 bound_to 6896
  144.9966  139.4353  143.5313 H   0  0  0  0  0  0  0  0  0  0  0  0  # atno 7974 bound_to 7965
  155.0384  140.3166  155.4733 H   0  0  0  0  0  0  0  0  0  0  0  0  # atno 8008 bound_to 7997
  156.2860  140.2167  156.5451 H   0  0  0  0  0  0  0  0  0  0  0  0  # atno 8009 bound_to 7997
  154.7310  140.0481  157.0714 H   0  0  0  0  0  0  0  0  0  0  0  0  # atno 8010 bound_to 7997
  139.4827  144.5278  151.7773 H   0  0  0  0  0  0  0  0  0  0  0  0  # atno 10167 bound_to 10162
  156.4973  130.4580  149.6721 H   0  0  0  0  0  0  0  0  0  0  0  0  # atno 10718 bound_to 10713
  154.7867  135.4792  153.9961 H   0  0  0  0  0  0  0  0  0  0  0  0  # atno 10763 bound_to 10752
  153.1570  135.6802  153.8805 H   0  0  0  0  0  0  0  0  0  0  0  0  # atno 10764 bound_to 10752
  153.8431  135.3177  155.3405 H   0  0  0  0  0  0  0  0  0  0  0  0  # atno 10765 bound_to 10752
  139.8773  134.9185  156.4914 H   0  0  0  0  0  0  0  0  0  0  0  0  # atno 11005 bound_to 11000
  146.3443  139.9329  142.8751 LP  0  0  0  0  0  0  0  0  0  0  0  0  # atno 17320 bound_to 7965
  145.2211  140.9935  143.4045 LP  0  0  0  0  0  0  0  0  0  0  0  0  # atno 17321 bound_to 7965
  140.4800  144.1463  150.5931 LP  0  0  0  0  0  0  0  0  0  0  0  0  # atno 17342 bound_to 10162
  140.4288  143.2577  151.9622 LP  0  0  0  0  0  0  0  0  0  0  0  0  # atno 17343 bound_to 10162
  156.3367  130.7360  151.2299 LP  0  0  0  0  0  0  0  0  0  0  0  0  # atno 17370 bound_to 10713
  157.7467  131.0415  150.4648 LP  0  0  0  0  0  0  0  0  0  0  0  0  # atno 17371 bound_to 10713
  140.8656  133.8027  155.9310 LP  0  0  0  0  0  0  0  0  0  0  0  0  # atno 17394 bound_to 11000
  140.9005  134.2384  157.5044 LP  0  0  0  0  0  0  0  0  0  0  0  0  # atno 17395 bound_to 11000

$$$$
