AV-unprocessed.smi:128|AV-procd|sdf|1156|dock4
  -GOLD-   2262018293D 1   1.00000     0.00000
 Structure written by MMmdl.
 41 44  0  0  0  0  0  0  0  0  1 V2000
  150.4061  139.2972  154.1325 O   0  0  0  0  0  0  0  0  0  0  0  0
  150.6565  139.9811  155.1263 C   0  0  0  0  0  0  0  0  0  0  0  0
  149.8989  141.1727  155.4933 C   0  0  0  0  0  0  0  0  0  0  0  0
  148.8889  141.5861  154.7092 F   0  0  0  0  0  0  0  0  0  0  0  0
  150.1973  141.8718  156.6096 C   0  0  0  0  0  0  0  0  0  0  0  0
  151.2180  141.5164  157.4738 N   0  0  0  0  0  0  0  0  0  0  0  0
  151.5028  142.3349  158.7112 C   0  0  1  0  0  0  0  0  0  0  0  0
  152.2733  143.6113  158.3533 C   0  0  0  0  0  0  0  0  0  0  0  0
  151.6053  144.6342  159.2465 C   0  0  0  0  0  0  0  0  0  0  0  0
  150.1667  144.1333  159.2650 C   0  0  0  0  0  0  0  0  0  0  0  0
  150.2915  142.7150  159.2995 O   0  0  0  0  0  0  0  0  0  0  0  0
  152.0174  140.3876  157.1890 C   0  0  0  0  0  0  0  0  0  0  0  0
  152.9378  140.0561  157.9397 O   0  0  0  0  0  0  0  0  0  0  0  0
  151.7120  139.6585  156.0142 N   0  0  0  0  0  0  0  0  0  0  0  0
  152.4989  138.4717  155.7160 C   0  0  0  0  0  0  0  0  0  0  0  0
  151.8359  137.2323  156.2375 C   0  0  0  0  0  0  0  0  0  0  0  0
  151.4972  136.9761  157.5016 N   0  0  0  0  0  0  0  0  0  0  0  0
  150.9194  135.7271  157.4888 N   0  0  0  0  0  0  0  0  0  0  0  0
  150.9504  135.3142  156.2171 C   0  0  0  0  0  0  0  0  0  0  0  0
  150.4712  134.0506  155.6599 C   0  0  0  0  0  0  0  0  0  0  0  0
  150.7127  132.8270  156.3261 C   0  0  0  0  0  0  0  0  0  0  0  0
  150.2439  131.6155  155.7814 C   0  0  0  0  0  0  0  0  0  0  0  0
  149.5339  131.6162  154.5657 C   0  0  0  0  0  0  0  0  0  0  0  0
  148.8998  129.9790  153.8314 Br  0  0  0  0  0  0  0  0  0  0  0  0
  149.2938  132.8297  153.8939 C   0  0  0  0  0  0  0  0  0  0  0  0
  149.7605  134.0417  154.4386 C   0  0  0  0  0  0  0  0  0  0  0  0
  151.5117  136.2282  155.3809 O   0  0  0  0  0  0  0  0  0  0  0  0
  149.6058  142.7474  156.8277 H   0  0  0  0  0  0  0  0  0  0  0  0
  152.0270  141.6947  159.4216 H   0  0  0  0  0  0  0  0  0  0  0  0
  153.3415  143.4931  158.5369 H   0  0  0  0  0  0  0  0  0  0  0  0
  152.1161  143.8643  157.3035 H   0  0  0  0  0  0  0  0  0  0  0  0
  152.0309  144.5931  160.2500 H   0  0  0  0  0  0  0  0  0  0  0  0
  151.6980  145.6547  158.8740 H   0  0  0  0  0  0  0  0  0  0  0  0
  149.6036  144.5046  160.1216 H   0  0  0  0  0  0  0  0  0  0  0  0
  149.6436  144.4359  158.3572 H   0  0  0  0  0  0  0  0  0  0  0  0
  152.6312  138.4195  154.6338 H   0  0  0  0  0  0  0  0  0  0  0  0
  153.4980  138.5818  156.1385 H   0  0  0  0  0  0  0  0  0  0  0  0
  151.2536  132.8051  157.2611 H   0  0  0  0  0  0  0  0  0  0  0  0
  150.4286  130.6852  156.2980 H   0  0  0  0  0  0  0  0  0  0  0  0
  148.7509  132.8324  152.9602 H   0  0  0  0  0  0  0  0  0  0  0  0
  149.5683  134.9644  153.9106 H   0  0  0  0  0  0  0  0  0  0  0  0
  1  2  2  0  0  0  0
  2 14  1  0  0  0  0
  2  3  1  0  0  0  0
  3  4  1  0  0  0  0
  3  5  2  0  0  0  0
  5  6  1  0  0  0  0
  5 28  1  0  0  0  0
  6  7  1  0  0  0  0
  6 12  1  0  0  0  0
  7 11  1  0  0  0  0
  7  8  1  0  0  0  0
  7 29  1  0  0  0  0
  8  9  1  0  0  0  0
  8 30  1  0  0  0  0
  8 31  1  0  0  0  0
  9 10  1  0  0  0  0
  9 32  1  0  0  0  0
  9 33  1  0  0  0  0
 10 11  1  0  0  0  0
 10 34  1  0  0  0  0
 10 35  1  0  0  0  0
 12 13  2  0  0  0  0
 12 14  1  0  0  0  0
 14 15  1  0  0  0  0
 15 16  1  0  0  0  0
 15 36  1  0  0  0  0
 15 37  1  0  0  0  0
 16 27  1  0  0  0  0
 16 17  2  0  0  0  0
 17 18  1  0  0  0  0
 18 19  2  0  0  0  0
 19 20  1  0  0  0  0
 19 27  1  0  0  0  0
 20 26  1  0  0  0  0
 20 21  2  0  0  0  0
 21 22  1  0  0  0  0
 21 38  1  0  0  0  0
 22 23  2  0  0  0  0
 22 39  1  0  0  0  0
 23 24  1  0  0  0  0
 23 25  1  0  0  0  0
 25 26  2  0  0  0  0
 25 40  1  0  0  0  0
 26 41  1  0  0  0  0
M  END
> <s_m_source_file>
AV-unprocessed.smi

> <i_m_source_file_index>
128

> <i_lp_mmshare_version>
43012

> <i_f3d_flags>
0

> <s_epik_input>
TzFbQ0gyXVtDSDJdW0NIMl1bQ0BIXTFuKFtjSF1jKEYpYzI9TyljKD1PKW4yW0NIMl1jM25uYyhvMyktYzRbY0hdW2NIXWMoQnIpW2NIXVtjSF00

> <s_epik_cmdline>
J2VwaWtfcHl0aG9uJywgJy1waCcsICc3LjAnLCAnLXRuJywgJzgnLCAnLW1hJywgJzIwMCcsICctbWV0YWxfYmluZGluZycsICctaW1hZScsICc8aW5maWxlLm1hZT4nLCAnLW9tYWUnLCAnPG91dGZpbGUubWFlPic=

> <r_lp_tautomer_probability>
1

> <r_epik_Ionization_Penalty>
2.55537e-09

> <r_epik_Ionization_Penalty_Charging>
2.54231e-09

> <r_epik_Ionization_Penalty_Neutral>
1.30653e-11

> <r_epik_State_Penalty>
-0

> <r_epik_Charging_Adjusted_Penalty>
2.54231e-09

> <i_epik_Tot_Q>
0

> <i_epik_Tot_abs_Q>
0

> <r_epik_Metal_State_Penalty>
-0

> <b_epik_Metal_Only>
0

> <s_epik_Chemistry_Notes>
This compound contains an acetal/aminal-like group ( X-CH(R)-Y where X, Y are N, S, or O) that may be acid/base labile, releasing an aldehyde.

> <s_lp_Force_Field>
OPLS_2005

> <r_lp_Energy>
32.2768

> <b_lp_Chiralities_Consistent>
1

> <s_lp_Variant>
AV-unprocessed.smi:128-2

> <Gold.Version>
5.8.1

> <Gold.Id.Protein>
6NUR|6NUR_protein|mol2

> <Gold.PLP.Fitness>
58.8433

> <Gold.PLP.PLP>
-52.8213

> <Gold.PLP.part.hbond>
-4.9969

> <Gold.PLP.part.metal>
0.0000

> <Gold.PLP.part.buried>
-4.8506

> <Gold.PLP.part.nonpolar>
-45.4682

> <Gold.PLP.part.repulsive>
0.4668

> <Gold.PLP.ligand.clash>
0.0000

> <Gold.PLP.ligand.torsion>
1.5579

> <Gold.PLP.Chemscore.Hbond>
2.0375

> <Gold.PLP.Chemscore.CHOScore>
1.0000

> <Gold.PLP.Chemscore.Metal>
0.0000

> <Gold.Chemscore.Hbonds>
donor molecule, donor type, donor heavy atom, donor atom, acceptor molecule, acceptor atom, score
      P1  H  6896  6907       L1    18  0.08
      P1  H  7997  8010       L1    13  1.00
      P1  H 10752 10765       L1    27  0.94
      L1  C     5    28       P1  8028  1.00

> <Gold.PLP.Chemscore.Internal.Correction>
0.0253

> <Gold.Rescore>
     Score         DG    S(hbond)    S(metal)    S(lipo)     H(rot)  DE(clash)    DE(int)     intcor
     16.23     -17.61       1.85        0.00      87.97       1.70       0.03       1.35       ----

> <Gold.Chemscore.Fitness>
16.2314

> <Gold.Chemscore.DG>
-17.6101

> <Gold.Chemscore.ZeroCoef>
-5.4800

> <Gold.Chemscore.Hbond>
1.8518

> <Gold.Chemscore.Metal>
0.0000

> <Gold.Chemscore.Lipo>
87.9660

> <Gold.Chemscore.Internal_Hbond>
0.0000

> <Gold.Chemscore.DEClash>
0.0251

> <Gold.Chemscore.DEInternal>
1.3536

> <Gold.Chemscore.Rot>
1.6980

> <Gold.Chemscore.Internal.Correction>
   9.000000E+99

> <Gold.Chemscore.Hbonds>
donor molecule, donor type, donor heavy atom, donor atom, acceptor molecule, acceptor atom, score
      P1  H  6896  6907       L1    18  0.09
      P1  H  7997  8010       L1    13  0.75
      P1  H 10752 10765       L1    27  0.72

> <Gold.Chemscore.Hbond.Weighted>
-6.1849

> <Gold.Chemscore.Metal.Weighted>
-0.0000

> <Gold.Chemscore.Lipo.Weighted>
-10.2920

> <Gold.Chemscore.Internal_Hbond.Weighted>
0.0000

> <Gold.Chemscore.DEClash.Weighted>
0.0251

> <Gold.Chemscore.DEInternal.Weighted>
1.3536

> <Gold.Chemscore.Rot.Weighted>
4.3469

> <Gold.Chemscore.Internal.Correction.Weighted>
   9.000000E+99

> <Gold.Protein.RotatedTorsions>
[ 6907 6896 6895 6894 ] final  -74.16 input  -60.11 | X-H torsion
[ 7974 7965 7964 7962 ] final -176.63 input  175.53 | X-H torsion
[ 8008 7997 7996 7995 ] final   34.50 input   59.86 | X-H torsion
[ 10167 10162 10161 10158 ] final   93.41 input  -65.29 | X-H torsion
[ 10718 10713 10712 10709 ] final  -95.80 input   66.30 | X-H torsion
[ 10763 10752 10751 10750 ] final  165.93 input  -60.55 | X-H torsion
[ 11005 11000 10999 10996 ] final   95.42 input  -57.11 | X-H torsion

> <Gold.Protein.ActiveResidues>
 VAL166  LYS551  ARG553  GLY616  TRP617  ASP618  TYR619  PRO620  LYS621  CYS622 
 ASP623  PHE694  ASN695  SER759  ASP760  ASP761  ALA762  ILE779  LEU786  VAL792 
 PHE793  MET794  SER795  GLU796  ALA797  LYS798  CYS799  TRP800  GLU811  SER814 

> <Gold.Protein.RotatedAtoms>
  150.7103  134.4910  159.5515 H   0  0  0  0  0  0  0  0  0  0  0  0  # atno 6907 bound_to 6896
  152.2528  134.8112  160.0452 H   0  0  0  0  0  0  0  0  0  0  0  0  # atno 6908 bound_to 6896
  151.8854  133.3469  159.3817 H   0  0  0  0  0  0  0  0  0  0  0  0  # atno 6909 bound_to 6896
  144.7127  140.1141  143.6409 H   0  0  0  0  0  0  0  0  0  0  0  0  # atno 7974 bound_to 7965
  155.1558  140.3279  155.4421 H   0  0  0  0  0  0  0  0  0  0  0  0  # atno 8008 bound_to 7997
  156.2559  140.1969  156.6618 H   0  0  0  0  0  0  0  0  0  0  0  0  # atno 8009 bound_to 7997
  154.6440  140.0566  156.9865 H   0  0  0  0  0  0  0  0  0  0  0  0  # atno 8010 bound_to 7997
  139.8182  144.6743  150.9552 H   0  0  0  0  0  0  0  0  0  0  0  0  # atno 10167 bound_to 10162
  156.0050  130.5124  150.6131 H   0  0  0  0  0  0  0  0  0  0  0  0  # atno 10718 bound_to 10713
  154.3314  135.2754  155.2469 H   0  0  0  0  0  0  0  0  0  0  0  0  # atno 10763 bound_to 10752
  154.4780  135.5866  153.6372 H   0  0  0  0  0  0  0  0  0  0  0  0  # atno 10764 bound_to 10752
  152.9866  135.6104  154.3507 H   0  0  0  0  0  0  0  0  0  0  0  0  # atno 10765 bound_to 10752
  139.8789  134.8898  156.4009 H   0  0  0  0  0  0  0  0  0  0  0  0  # atno 11005 bound_to 11000
  145.9429  139.2681  143.1258 LP  0  0  0  0  0  0  0  0  0  0  0  0  # atno 17320 bound_to 7965
  145.9405  140.8983  143.0310 LP  0  0  0  0  0  0  0  0  0  0  0  0  # atno 17321 bound_to 7965
  140.7814  143.4117  151.0982 LP  0  0  0  0  0  0  0  0  0  0  0  0  # atno 17342 bound_to 10162
  139.7779  143.8398  152.3132 LP  0  0  0  0  0  0  0  0  0  0  0  0  # atno 17343 bound_to 10162
  157.3960  131.0803  151.1351 LP  0  0  0  0  0  0  0  0  0  0  0  0  # atno 17370 bound_to 10713
  157.2028  130.6402  149.5745 LP  0  0  0  0  0  0  0  0  0  0  0  0  # atno 17371 bound_to 10713
  140.9267  133.7607  155.9974 LP  0  0  0  0  0  0  0  0  0  0  0  0  # atno 17394 bound_to 11000
  140.8377  134.3103  157.5325 LP  0  0  0  0  0  0  0  0  0  0  0  0  # atno 17395 bound_to 11000

$$$$
