AV-unprocessed.smi:249|AV-procd|sdf|1923|dock1
  -GOLD-   2262021 33D 1   1.00000     0.00000
 Structure written by MMmdl.
 64 67  0  0  0  0  0  0  0  0  2 V2000
  144.9347  133.1921  150.2563 C   0  0  0  0  0  0  0  0  0  0  0  0
  143.9265  132.8169  151.3550 C   0  0  0  0  0  0  0  0  0  0  0  0
  144.4985  132.8537  152.7326 N   0  3  1  0  0  0  0  0  0  0  0  0
  145.6787  131.9512  152.8691 C   0  0  0  0  0  0  0  0  0  0  0  0
  146.2241  131.9197  154.3057 C   0  0  0  0  0  0  0  0  0  0  0  0
  146.6272  133.3234  154.7874 C   0  0  1  0  0  0  0  0  0  0  0  0
  147.7944  133.8532  154.0630 N   0  0  0  0  0  0  0  0  0  0  0  0
  148.7084  132.8834  153.4678 C   0  0  0  0  0  0  0  0  0  0  0  0
  148.4876  134.8151  154.7124 C   0  0  0  0  0  0  0  0  0  0  0  0
  149.8108  134.6002  154.9142 N   0  0  0  0  0  0  0  0  0  0  0  0
  150.5479  135.5238  155.5392 C   0  0  0  0  0  0  0  0  0  0  0  0
  150.1658  136.7042  156.0328 N   0  0  0  0  0  0  0  0  0  0  0  0
  148.8325  136.9164  155.8366 C   0  0  0  0  0  0  0  0  0  0  0  0
  147.9249  136.0309  155.1919 C   0  0  0  0  0  0  0  0  0  0  0  0
  146.6496  136.5826  155.1782 N   0  0  0  0  0  0  0  0  0  0  0  0
  146.7953  137.7318  155.7801 C   0  0  0  0  0  0  0  0  0  0  0  0
  148.0732  138.0104  156.2103 N   0  0  0  0  0  0  0  0  0  0  0  0
  148.5170  139.2071  156.9025 C   0  0  0  0  0  0  0  0  0  0  0  0
  149.3265  140.1633  155.9880 C   0  0  2  0  0  0  0  0  0  0  0  0
  149.1238  139.8824  154.4807 C   0  0  0  0  0  0  0  0  0  0  0  0
  149.5451  140.9665  153.6785 O   0  0  0  0  0  0  0  0  0  0  0  0
  150.8251  140.3016  156.3691 C   0  0  1  0  0  0  0  0  0  0  0  0
  151.1035  140.4932  157.8615 C   0  0  0  0  0  0  0  0  0  0  0  0
  152.2258  139.5003  158.1676 C   0  0  0  0  0  0  0  0  0  0  0  0
  152.8167  139.2439  156.9045 O   0  0  0  0  0  0  0  0  0  0  0  0
  151.7514  139.1428  155.9747 C   0  0  0  0  0  0  0  0  0  0  0  0
  145.3660  134.2052  154.6609 C   0  0  0  0  0  0  0  0  0  0  0  0
  144.7995  134.2392  153.2219 C   0  0  2  0  0  0  0  0  0  0  0  0
  143.5715  135.1724  153.2000 C   0  0  0  0  0  0  0  0  0  0  0  0
  144.5157  132.9868  149.2707 H   0  0  0  0  0  0  0  0  0  0  0  0
  145.8552  132.6150  150.3483 H   0  0  0  0  0  0  0  0  0  0  0  0
  145.1905  134.2510  150.2720 H   0  0  0  0  0  0  0  0  0  0  0  0
  143.0485  133.4621  151.2999 H   0  0  0  0  0  0  0  0  0  0  0  0
  143.5890  131.8110  151.1156 H   0  0  0  0  0  0  0  0  0  0  0  0
  145.4119  130.9304  152.6010 H   0  0  0  0  0  0  0  0  0  0  0  0
  146.4597  132.2639  152.1744 H   0  0  0  0  0  0  0  0  0  0  0  0
  145.4556  131.5189  154.9684 H   0  0  0  0  0  0  0  0  0  0  0  0
  147.0587  131.2223  154.3775 H   0  0  0  0  0  0  0  0  0  0  0  0
  146.8980  133.2537  155.8414 H   0  0  0  0  0  0  0  0  0  0  0  0
  149.6661  133.3332  153.1997 H   0  0  0  0  0  0  0  0  0  0  0  0
  148.2784  132.4724  152.5545 H   0  0  0  0  0  0  0  0  0  0  0  0
  148.9013  132.0603  154.1567 H   0  0  0  0  0  0  0  0  0  0  0  0
  151.5939  135.2832  155.6610 H   0  0  0  0  0  0  0  0  0  0  0  0
  145.9686  138.4105  155.9331 H   0  0  0  0  0  0  0  0  0  0  0  0
  147.6342  139.7019  157.3062 H   0  0  0  0  0  0  0  0  0  0  0  0
  149.1104  138.8947  157.7612 H   0  0  0  0  0  0  0  0  0  0  0  0
  148.9064  141.1580  156.1445 H   0  0  0  0  0  0  0  0  0  0  0  0
  149.6769  138.9936  154.1760 H   0  0  0  0  0  0  0  0  0  0  0  0
  148.0744  139.6759  154.2688 H   0  0  0  0  0  0  0  0  0  0  0  0
  149.4869  140.7093  152.7709 H   0  0  0  0  0  0  0  0  0  0  0  0
  151.2110  141.1945  155.8746 H   0  0  0  0  0  0  0  0  0  0  0  0
  151.4379  141.5147  158.0470 H   0  0  0  0  0  0  0  0  0  0  0  0
  150.2374  140.3190  158.4996 H   0  0  0  0  0  0  0  0  0  0  0  0
  152.9519  139.8905  158.8810 H   0  0  0  0  0  0  0  0  0  0  0  0
  151.8182  138.5711  158.5690 H   0  0  0  0  0  0  0  0  0  0  0  0
  151.2774  138.1686  156.0921 H   0  0  0  0  0  0  0  0  0  0  0  0
  152.1126  139.2241  154.9493 H   0  0  0  0  0  0  0  0  0  0  0  0
  144.5990  133.8176  155.3332 H   0  0  0  0  0  0  0  0  0  0  0  0
  145.5648  135.2174  155.0150 H   0  0  0  0  0  0  0  0  0  0  0  0
  145.5544  134.6692  152.5617 H   0  0  0  0  0  0  0  0  0  0  0  0
  143.7953  136.1188  153.6935 H   0  0  0  0  0  0  0  0  0  0  0  0
  142.7214  134.7260  153.7170 H   0  0  0  0  0  0  0  0  0  0  0  0
  143.2617  135.4307  152.1881 H   0  0  0  0  0  0  0  0  0  0  0  0
  143.7853  132.4881  153.3475 H   0  0  0  0  0  0  0  0  0  0  0  0
  1  2  1  0  0  0  0
  1 30  1  0  0  0  0
  1 31  1  0  0  0  0
  1 32  1  0  0  0  0
  2  3  1  0  0  0  0
  2 33  1  0  0  0  0
  2 34  1  0  0  0  0
  3 28  1  0  0  0  0
  3  4  1  0  0  0  0
  3 64  1  0  0  0  0
  4  5  1  0  0  0  0
  4 35  1  0  0  0  0
  4 36  1  0  0  0  0
  5  6  1  0  0  0  0
  5 37  1  0  0  0  0
  5 38  1  0  0  0  0
  6  7  1  0  0  0  0
  6 27  1  0  0  0  0
  6 39  1  0  0  0  0
  7  8  1  0  0  0  0
  7  9  1  0  0  0  0
  8 40  1  0  0  0  0
  8 41  1  0  0  0  0
  8 42  1  0  0  0  0
  9 14  1  0  0  0  0
  9 10  2  0  0  0  0
 10 11  1  0  0  0  0
 11 12  2  0  0  0  0
 11 43  1  0  0  0  0
 12 13  1  0  0  0  0
 13 17  1  0  0  0  0
 13 14  2  0  0  0  0
 14 15  1  0  0  0  0
 15 16  2  0  0  0  0
 16 17  1  0  0  0  0
 16 44  1  0  0  0  0
 17 18  1  0  0  0  0
 18 19  1  0  0  0  0
 18 45  1  0  0  0  0
 18 46  1  0  0  0  0
 19 20  1  0  0  0  0
 19 22  1  0  0  0  0
 19 47  1  0  0  0  0
 20 21  1  0  0  0  0
 20 48  1  0  0  0  0
 20 49  1  0  0  0  0
 21 50  1  0  0  0  0
 22 26  1  0  0  0  0
 22 23  1  0  0  0  0
 22 51  1  0  0  0  0
 23 24  1  0  0  0  0
 23 52  1  0  0  0  0
 23 53  1  0  0  0  0
 24 25  1  0  0  0  0
 24 54  1  0  0  0  0
 24 55  1  0  0  0  0
 25 26  1  0  0  0  0
 26 56  1  0  0  0  0
 26 57  1  0  0  0  0
 27 28  1  0  0  0  0
 27 58  1  0  0  0  0
 27 59  1  0  0  0  0
 28 29  1  0  0  0  0
 28 60  1  0  0  0  0
 29 61  1  0  0  0  0
 29 62  1  0  0  0  0
 29 63  1  0  0  0  0
M  CHG  1   3   1
M  END
> <s_m_source_file>
AV-unprocessed.smi

> <i_m_source_file_index>
249

> <i_lp_mmshare_version>
43012

> <i_f3d_flags>
0

> <s_epik_input>
W0NIM11bQ0gyXU4xW0NIMl1bQ0gyXVtDQEhdKFtDSDJdW0NASF0xW0NIM10pTihbQ0gzXSljKG5bY0hdbjIpYyhjMjMpbltjSF1uM1tDSDJdW0NASF0oW0NIMl1bT0hdKVtDQEBIXTRbQ0gyXVtDSDJdT1tDSDJdNA==

> <s_epik_cmdline>
J2VwaWtfcHl0aG9uJywgJy1waCcsICc3LjAnLCAnLXRuJywgJzgnLCAnLW1hJywgJzIwMCcsICctbWV0YWxfYmluZGluZycsICctaW1hZScsICc8aW5maWxlLm1hZT4nLCAnLW9tYWUnLCAnPG91dGZpbGUubWFlPic=

> <r_lp_tautomer_probability>
1

> <r_epik_Ionization_Penalty>
0.00294688

> <r_epik_Ionization_Penalty_Charging>
0.00169971

> <r_epik_Ionization_Penalty_Neutral>
0.00124717

> <r_epik_State_Penalty>
-0

> <r_epik_Charging_Adjusted_Penalty>
0.00169971

> <i_epik_Tot_Q>
1

> <i_epik_Tot_abs_Q>
1

> <r_epik_Metal_State_Penalty>
-0

> <b_epik_Metal_Only>
0

> <s_lp_Force_Field>
OPLS_2005

> <r_lp_Energy>
58.1803

> <b_lp_Chiralities_Consistent>
1

> <s_lp_Variant>
AV-unprocessed.smi:249-26

> <Gold.Version>
5.8.1

> <Gold.Id.Protein>
6NUR|6NUR_protein|mol2

> <Gold.PLP.Fitness>
44.6472

> <Gold.PLP.PLP>
-35.0342

> <Gold.PLP.part.hbond>
-5.0000

> <Gold.PLP.part.metal>
0.0000

> <Gold.PLP.part.buried>
-4.0962

> <Gold.PLP.part.nonpolar>
-25.5634

> <Gold.PLP.part.repulsive>
0.4061

> <Gold.PLP.ligand.clash>
0.0000

> <Gold.PLP.ligand.torsion>
1.9055

> <Gold.PLP.Chemscore.Hbond>
4.1248

> <Gold.PLP.Chemscore.CHOScore>
0.0000

> <Gold.PLP.Chemscore.Metal>
0.0000

> <Gold.Chemscore.Hbonds>
donor molecule, donor type, donor heavy atom, donor atom, acceptor molecule, acceptor atom, score
      L1  H     3    64       P1 10957  1.90
      L1  H    21    50       P1  7957  1.00
      P1  H  7989  7998       L1    21  0.11
      P1  H  7997  8008       L1    25  1.00

> <Gold.PLP.Chemscore.Internal.Correction>
1.0496

> <Gold.Rescore>
     Score         DG    S(hbond)    S(metal)    S(lipo)     H(rot)  DE(clash)    DE(int)     intcor
     12.28     -15.89       2.89        0.00      70.03       2.90       0.10       3.51       ----

> <Gold.Chemscore.Fitness>
12.2757

> <Gold.Chemscore.DG>
-15.8911

> <Gold.Chemscore.ZeroCoef>
-5.4800

> <Gold.Chemscore.Hbond>
2.8870

> <Gold.Chemscore.Metal>
0.0000

> <Gold.Chemscore.Lipo>
70.0346

> <Gold.Chemscore.Internal_Hbond>
0.0000

> <Gold.Chemscore.DEClash>
0.1024

> <Gold.Chemscore.DEInternal>
3.5130

> <Gold.Chemscore.Rot>
2.9006

> <Gold.Chemscore.Internal.Correction>
   9.000000E+99

> <Gold.Chemscore.Hbonds>
donor molecule, donor type, donor heavy atom, donor atom, acceptor molecule, acceptor atom, score
      L1  H     3    64       P1 10957  0.21
      L1  H    21    50       P1  7957  1.00
      P1  H  7997  8008       L1    25  0.74

> <Gold.Chemscore.Hbond.Weighted>
-9.6427

> <Gold.Chemscore.Metal.Weighted>
-0.0000

> <Gold.Chemscore.Lipo.Weighted>
-8.1940

> <Gold.Chemscore.Internal_Hbond.Weighted>
0.0000

> <Gold.Chemscore.DEClash.Weighted>
0.1024

> <Gold.Chemscore.DEInternal.Weighted>
3.5130

> <Gold.Chemscore.Rot.Weighted>
7.4256

> <Gold.Chemscore.Internal.Correction.Weighted>
   9.000000E+99

> <Gold.Protein.RotatedTorsions>
[ 6907 6896 6895 6894 ] final -109.18 input  -60.11 | X-H torsion
[ 7974 7965 7964 7962 ] final  176.58 input  175.53 | X-H torsion
[ 8008 7997 7996 7995 ] final  -70.95 input   59.86 | X-H torsion
[ 10167 10162 10161 10158 ] final  -18.21 input  -65.29 | X-H torsion
[ 10718 10713 10712 10709 ] final  -28.81 input   66.30 | X-H torsion
[ 10763 10752 10751 10750 ] final   24.53 input  -60.55 | X-H torsion
[ 11005 11000 10999 10996 ] final   26.82 input  -57.11 | X-H torsion

> <Gold.Protein.ActiveResidues>
 VAL166  LYS551  ARG553  GLY616  TRP617  ASP618  TYR619  PRO620  LYS621  CYS622 
 ASP623  PHE694  ASN695  SER759  ASP760  ASP761  ALA762  ILE779  LEU786  VAL792 
 PHE793  MET794  SER795  GLU796  ALA797  LYS798  CYS799  TRP800  GLU811  SER814 

> <Gold.Protein.RotatedAtoms>
  150.7546  133.9567  159.3502 H   0  0  0  0  0  0  0  0  0  0  0  0  # atno 6907 bound_to 6896
  151.7489  135.0835  160.0337 H   0  0  0  0  0  0  0  0  0  0  0  0  # atno 6908 bound_to 6896
  152.3479  133.6107  159.5959 H   0  0  0  0  0  0  0  0  0  0  0  0  # atno 6909 bound_to 6896
  144.7182  140.0118  143.6440 H   0  0  0  0  0  0  0  0  0  0  0  0  # atno 7974 bound_to 7965
  154.5050  140.0825  156.7876 H   0  0  0  0  0  0  0  0  0  0  0  0  # atno 8008 bound_to 7997
  155.3914  140.3432  155.4233 H   0  0  0  0  0  0  0  0  0  0  0  0  # atno 8009 bound_to 7997
  156.1504  140.1557  156.8766 H   0  0  0  0  0  0  0  0  0  0  0  0  # atno 8010 bound_to 7997
  140.7256  143.4939  150.9956 H   0  0  0  0  0  0  0  0  0  0  0  0  # atno 10167 bound_to 10162
  156.4205  130.4425  149.7187 H   0  0  0  0  0  0  0  0  0  0  0  0  # atno 10718 bound_to 10713
  153.0757  135.6603  154.0151 H   0  0  0  0  0  0  0  0  0  0  0  0  # atno 10763 bound_to 10752
  153.9785  135.2957  155.3423 H   0  0  0  0  0  0  0  0  0  0  0  0  # atno 10764 bound_to 10752
  154.7145  135.5191  153.8787 H   0  0  0  0  0  0  0  0  0  0  0  0  # atno 10765 bound_to 10752
  140.3329  134.2418  155.7700 H   0  0  0  0  0  0  0  0  0  0  0  0  # atno 11005 bound_to 11000
  146.0252  139.3286  143.0788 LP  0  0  0  0  0  0  0  0  0  0  0  0  # atno 17320 bound_to 7965
  145.8519  140.9524  143.0745 LP  0  0  0  0  0  0  0  0  0  0  0  0  # atno 17321 bound_to 7965
  139.8645  143.7272  152.3171 LP  0  0  0  0  0  0  0  0  0  0  0  0  # atno 17342 bound_to 10162
  139.7499  144.7537  151.0523 LP  0  0  0  0  0  0  0  0  0  0  0  0  # atno 17343 bound_to 10162
  156.4130  130.7731  151.2745 LP  0  0  0  0  0  0  0  0  0  0  0  0  # atno 17370 bound_to 10713
  157.7508  131.0206  150.3714 LP  0  0  0  0  0  0  0  0  0  0  0  0  # atno 17371 bound_to 10713
  141.2059  133.7848  157.0209 LP  0  0  0  0  0  0  0  0  0  0  0  0  # atno 17394 bound_to 11000
  140.0845  134.9628  157.1678 LP  0  0  0  0  0  0  0  0  0  0  0  0  # atno 17395 bound_to 11000

$$$$
