AV-unprocessed.smi:1779|AV-procd|sdf|7181|dock9
  -GOLD-   22720 8423D 1   1.00000     0.00000
 Structure written by MMmdl.
 47 48  0  0  0  0  0  0  0  0  2 V2000
  153.6558  141.4027  160.5580 C   0  0  0  0  0  0  0  0  0  0  0  0
  152.7576  142.0665  159.5563 C   0  0  0  0  0  0  0  0  0  0  0  0
  152.0759  141.4694  158.4560 C   0  0  0  0  0  0  0  0  0  0  0  0
  151.4161  142.5307  157.8993 C   0  0  0  0  0  0  0  0  0  0  0  0
  150.5915  142.5526  156.8186 N   0  0  0  0  0  0  0  0  0  0  0  0
  150.4385  141.6208  155.8619 C   0  0  0  0  0  0  0  0  0  0  0  0
  151.0517  140.5553  155.7967 O   0  0  0  0  0  0  0  0  0  0  0  0
  149.5299  142.0043  154.9537 N   0  0  0  0  0  0  0  0  0  0  0  0
  149.1228  141.2297  153.7854 C   0  0  0  0  0  0  0  0  0  0  0  0
  148.1529  140.0903  154.1559 C   0  0  2  0  0  0  0  0  0  0  0  0
  148.7362  138.8742  153.7331 O   0  0  0  0  0  0  0  0  0  0  0  0
  146.7606  140.2248  153.5014 C   0  0  0  0  0  0  0  0  0  0  0  0
  145.9900  141.3755  154.0386 N   0  3  0  0  0  0  0  0  0  0  0  0
  146.5053  142.6799  153.5467 C   0  0  0  0  0  0  0  0  0  0  0  0
  145.6053  143.8416  154.0016 C   0  0  0  0  0  0  0  0  0  0  0  0
  145.4538  143.8557  155.5282 C   0  0  0  0  0  0  0  0  0  0  0  0
  144.9526  142.4904  156.0161 C   0  0  0  0  0  0  0  0  0  0  0  0
  145.8691  141.3590  155.5216 C   0  0  0  0  0  0  0  0  0  0  0  0
  151.6953  143.6627  158.6318 N   0  0  0  0  0  0  0  0  0  0  0  0
  151.2297  145.0224  158.4408 C   0  0  0  0  0  0  0  0  0  0  0  0
  152.5279  143.3711  159.6542 N   0  0  0  0  0  0  0  0  0  0  0  0
  153.6972  140.3252  160.3977 H   0  0  0  0  0  0  0  0  0  0  0  0
  153.3031  141.5725  161.5757 H   0  0  0  0  0  0  0  0  0  0  0  0
  154.6735  141.7877  160.4880 H   0  0  0  0  0  0  0  0  0  0  0  0
  152.0807  140.4345  158.1486 H   0  0  0  0  0  0  0  0  0  0  0  0
  150.0354  143.3892  156.7199 H   0  0  0  0  0  0  0  0  0  0  0  0
  149.0728  142.8948  155.0873 H   0  0  0  0  0  0  0  0  0  0  0  0
  148.6971  141.8693  153.0099 H   0  0  0  0  0  0  0  0  0  0  0  0
  150.0350  140.8082  153.3610 H   0  0  0  0  0  0  0  0  0  0  0  0
  148.0667  140.0497  155.2414 H   0  0  0  0  0  0  0  0  0  0  0  0
  149.1771  139.0189  152.9094 H   0  0  0  0  0  0  0  0  0  0  0  0
  146.8427  140.3381  152.4204 H   0  0  0  0  0  0  0  0  0  0  0  0
  146.2114  139.2963  153.6664 H   0  0  0  0  0  0  0  0  0  0  0  0
  147.5251  142.8291  153.9056 H   0  0  0  0  0  0  0  0  0  0  0  0
  146.5501  142.6715  152.4567 H   0  0  0  0  0  0  0  0  0  0  0  0
  146.0200  144.7906  153.6597 H   0  0  0  0  0  0  0  0  0  0  0  0
  144.6228  143.7477  153.5369 H   0  0  0  0  0  0  0  0  0  0  0  0
  146.4138  144.0849  155.9926 H   0  0  0  0  0  0  0  0  0  0  0  0
  144.7630  144.6426  155.8326 H   0  0  0  0  0  0  0  0  0  0  0  0
  144.9012  142.4798  157.1054 H   0  0  0  0  0  0  0  0  0  0  0  0
  143.9365  142.3219  155.6566 H   0  0  0  0  0  0  0  0  0  0  0  0
  145.4657  140.4056  155.8605 H   0  0  0  0  0  0  0  0  0  0  0  0
  146.8593  141.4574  155.9697 H   0  0  0  0  0  0  0  0  0  0  0  0
  151.4097  145.3318  157.4107 H   0  0  0  0  0  0  0  0  0  0  0  0
  151.7544  145.7058  159.1102 H   0  0  0  0  0  0  0  0  0  0  0  0
  150.1605  145.0738  158.6480 H   0  0  0  0  0  0  0  0  0  0  0  0
  145.0555  141.2850  153.6651 H   0  0  0  0  0  0  0  0  0  0  0  0
  1  2  1  0  0  0  0
  1 22  1  0  0  0  0
  1 23  1  0  0  0  0
  1 24  1  0  0  0  0
  2 21  2  0  0  0  0
  2  3  1  0  0  0  0
  3  4  2  0  0  0  0
  3 25  1  0  0  0  0
  4  5  1  0  0  0  0
  4 19  1  0  0  0  0
  5  6  1  0  0  0  0
  5 26  1  0  0  0  0
  6  7  2  0  0  0  0
  6  8  1  0  0  0  0
  8  9  1  0  0  0  0
  8 27  1  0  0  0  0
  9 10  1  0  0  0  0
  9 28  1  0  0  0  0
  9 29  1  0  0  0  0
 10 11  1  0  0  0  0
 10 12  1  0  0  0  0
 10 30  1  0  0  0  0
 11 31  1  0  0  0  0
 12 13  1  0  0  0  0
 12 32  1  0  0  0  0
 12 33  1  0  0  0  0
 13 18  1  0  0  0  0
 13 14  1  0  0  0  0
 13 47  1  0  0  0  0
 14 15  1  0  0  0  0
 14 34  1  0  0  0  0
 14 35  1  0  0  0  0
 15 16  1  0  0  0  0
 15 36  1  0  0  0  0
 15 37  1  0  0  0  0
 16 17  1  0  0  0  0
 16 38  1  0  0  0  0
 16 39  1  0  0  0  0
 17 18  1  0  0  0  0
 17 40  1  0  0  0  0
 17 41  1  0  0  0  0
 18 42  1  0  0  0  0
 18 43  1  0  0  0  0
 19 20  1  0  0  0  0
 19 21  1  0  0  0  0
 20 44  1  0  0  0  0
 20 45  1  0  0  0  0
 20 46  1  0  0  0  0
M  CHG  1  13   1
M  END
> <s_m_source_file>
AV-unprocessed.smi

> <i_m_source_file_index>
1779

> <i_lp_mmshare_version>
43012

> <i_f3d_flags>
0

> <s_epik_input>
W0NIM11jMVtjSF1jKG4objEpW0NIM10pW05IXUMoPU8pW05IXVtDSDJdW0NASF0oW09IXSlbQ0gyXU4yW0NIMl1bQ0gyXVtDSDJdW0NIMl1bQ0gyXTI=

> <s_epik_cmdline>
J2VwaWtfcHl0aG9uJywgJy1waCcsICc3LjAnLCAnLXRuJywgJzgnLCAnLW1hJywgJzIwMCcsICctbWV0YWxfYmluZGluZycsICctaW1hZScsICc8aW5maWxlLm1hZT4nLCAnLW9tYWUnLCAnPG91dGZpbGUubWFlPic=

> <r_lp_tautomer_probability>
1

> <r_epik_Ionization_Penalty>
0.00528203

> <r_epik_Ionization_Penalty_Charging>
0.00519125

> <r_epik_Ionization_Penalty_Neutral>
9.07781e-05

> <r_epik_State_Penalty>
0.0037836

> <r_epik_Charging_Adjusted_Penalty>
0.00897485

> <i_epik_Tot_Q>
1

> <i_epik_Tot_abs_Q>
1

> <r_epik_Metal_State_Penalty>
-0

> <b_epik_Metal_Only>
0

> <s_lp_Force_Field>
OPLS_2005

> <r_lp_Energy>
18.32

> <b_lp_Chiralities_Consistent>
1

> <s_lp_Variant>
AV-unprocessed.smi:1779-1

> <Gold.Version>
5.8.1

> <Gold.Id.Protein>
6NUR|6NUR_protein|mol2

> <Gold.PLP.Fitness>
55.6703

> <Gold.PLP.PLP>
-41.4846

> <Gold.PLP.part.hbond>
-5.3626

> <Gold.PLP.part.metal>
0.0000

> <Gold.PLP.part.buried>
-2.9449

> <Gold.PLP.part.nonpolar>
-32.6732

> <Gold.PLP.part.repulsive>
0.2888

> <Gold.PLP.ligand.clash>
0.0000

> <Gold.PLP.ligand.torsion>
1.0067

> <Gold.PLP.Chemscore.Hbond>
5.3837

> <Gold.PLP.Chemscore.CHOScore>
0.0000

> <Gold.PLP.Chemscore.Metal>
0.0000

> <Gold.Chemscore.Hbonds>
donor molecule, donor type, donor heavy atom, donor atom, acceptor molecule, acceptor atom, score
      L1  H     5    26       P1  8028  0.96
      L1  H     8    27       P1  8028  1.00
      L1  H    11    31       P1  7957  0.93
      L1  H    13    47       P1 10175  2.00
      P1  H  7989  7998       L1     7  0.06

> <Gold.PLP.Chemscore.Internal.Correction>
0.0481

> <Gold.Rescore>
     Score         DG    S(hbond)    S(metal)    S(lipo)     H(rot)  DE(clash)    DE(int)     intcor
     17.95     -22.00       3.90        0.00      81.34       2.36       1.91       2.15       ----

> <Gold.Chemscore.Fitness>
17.9487

> <Gold.Chemscore.DG>
-22.0023

> <Gold.Chemscore.ZeroCoef>
-5.4800

> <Gold.Chemscore.Hbond>
3.9038

> <Gold.Chemscore.Metal>
0.0000

> <Gold.Chemscore.Lipo>
81.3442

> <Gold.Chemscore.Internal_Hbond>
0.0000

> <Gold.Chemscore.DEClash>
1.9056

> <Gold.Chemscore.DEInternal>
2.1480

> <Gold.Chemscore.Rot>
2.3569

> <Gold.Chemscore.Internal.Correction>
   9.000000E+99

> <Gold.Chemscore.Hbonds>
donor molecule, donor type, donor heavy atom, donor atom, acceptor molecule, acceptor atom, score
      L1  H     5    26       P1  8028  0.89
      L1  H     8    27       P1  8028  0.99
      L1  H    11    31       P1  7957  0.87
      L1  H    13    47       P1 10175  0.33
      P1  H  7989  7998       L1     7  0.01

> <Gold.Chemscore.Hbond.Weighted>
-13.0387

> <Gold.Chemscore.Metal.Weighted>
-0.0000

> <Gold.Chemscore.Lipo.Weighted>
-9.5173

> <Gold.Chemscore.Internal_Hbond.Weighted>
0.0000

> <Gold.Chemscore.DEClash.Weighted>
1.9056

> <Gold.Chemscore.DEInternal.Weighted>
2.1480

> <Gold.Chemscore.Rot.Weighted>
6.0337

> <Gold.Chemscore.Internal.Correction.Weighted>
   9.000000E+99

> <Gold.Protein.RotatedTorsions>
[ 6907 6896 6895 6894 ] final  150.21 input  -60.11 | X-H torsion
[ 7974 7965 7964 7962 ] final  123.54 input  175.53 | X-H torsion
[ 8008 7997 7996 7995 ] final  112.96 input   59.86 | X-H torsion
[ 10167 10162 10161 10158 ] final -168.28 input  -65.29 | X-H torsion
[ 10718 10713 10712 10709 ] final  127.74 input   66.30 | X-H torsion
[ 10763 10752 10751 10750 ] final  -62.70 input  -60.55 | X-H torsion
[ 11005 11000 10999 10996 ] final  -48.11 input  -57.11 | X-H torsion

> <Gold.Protein.ActiveResidues>
 VAL166  LYS551  ARG553  GLY616  TRP617  ASP618  TYR619  PRO620  LYS621  CYS622 
 ASP623  PHE694  ASN695  SER759  ASP760  ASP761  ALA762  ILE779  LEU786  VAL792 
 PHE793  MET794  SER795  GLU796  ALA797  LYS798  CYS799  TRP800  GLU811  SER814 

> <Gold.Protein.RotatedAtoms>
  152.1176  133.4335  159.4659 H   0  0  0  0  0  0  0  0  0  0  0  0  # atno 6907 bound_to 6896
  150.6870  134.2574  159.4544 H   0  0  0  0  0  0  0  0  0  0  0  0  # atno 6908 bound_to 6896
  152.0448  134.9689  160.0625 H   0  0  0  0  0  0  0  0  0  0  0  0  # atno 6909 bound_to 6896
  145.0948  139.3561  143.4842 H   0  0  0  0  0  0  0  0  0  0  0  0  # atno 7974 bound_to 7965
  156.2227  140.2989  155.9991 H   0  0  0  0  0  0  0  0  0  0  0  0  # atno 8008 bound_to 7997
  155.2439  140.0423  157.2995 H   0  0  0  0  0  0  0  0  0  0  0  0  # atno 8009 bound_to 7997
  154.5866  140.2390  155.7987 H   0  0  0  0  0  0  0  0  0  0  0  0  # atno 8010 bound_to 7997
  139.5995  144.1041  152.1727 H   0  0  0  0  0  0  0  0  0  0  0  0  # atno 10167 bound_to 10162
  157.5306  131.1098  150.9014 H   0  0  0  0  0  0  0  0  0  0  0  0  # atno 10718 bound_to 10713
  154.3038  135.6229  153.5436 H   0  0  0  0  0  0  0  0  0  0  0  0  # atno 10763 bound_to 10752
  152.9837  135.5685  154.5254 H   0  0  0  0  0  0  0  0  0  0  0  0  # atno 10764 bound_to 10752
  154.4889  135.2866  155.1488 H   0  0  0  0  0  0  0  0  0  0  0  0  # atno 10765 bound_to 10752
  141.0681  133.6687  156.3394 H   0  0  0  0  0  0  0  0  0  0  0  0  # atno 11005 bound_to 11000
  146.3531  140.0798  142.8618 LP  0  0  0  0  0  0  0  0  0  0  0  0  # atno 17320 bound_to 7965
  145.1024  140.9354  143.4705 LP  0  0  0  0  0  0  0  0  0  0  0  0  # atno 17321 bound_to 7965
  140.0634  144.5838  150.7246 LP  0  0  0  0  0  0  0  0  0  0  0  0  # atno 17342 bound_to 10162
  140.7238  143.2615  151.4188 LP  0  0  0  0  0  0  0  0  0  0  0  0  # atno 17343 bound_to 10162
  156.9597  130.5450  149.5285 LP  0  0  0  0  0  0  0  0  0  0  0  0  # atno 17370 bound_to 10713
  156.0420  130.5501  150.8792 LP  0  0  0  0  0  0  0  0  0  0  0  0  # atno 17371 bound_to 10713
  140.5730  134.5821  157.5462 LP  0  0  0  0  0  0  0  0  0  0  0  0  # atno 17394 bound_to 11000
  139.9496  134.7640  156.0479 LP  0  0  0  0  0  0  0  0  0  0  0  0  # atno 17395 bound_to 11000

$$$$
