AV-unprocessed.smi:2106|AV-procd|sdf|8596|dock3
  -GOLD-   2272011333D 1   1.00000     0.00000
 Structure written by MMmdl.
 48 49  0  0  0  0  0  0  0  0  2 V2000
  152.2301  144.4587  161.3644 C   0  0  0  0  0  0  0  0  0  0  0  0
  152.1532  143.3481  160.3588 C   0  0  0  0  0  0  0  0  0  0  0  0
  152.8888  142.1306  160.3339 C   0  0  0  0  0  0  0  0  0  0  0  0
  152.4368  141.4852  159.2178 C   0  0  0  0  0  0  0  0  0  0  0  0
  152.8249  140.1597  158.6502 C   0  0  0  0  0  0  0  0  0  0  0  0
  151.4848  142.3055  158.6380 N   0  0  0  0  0  0  0  0  0  0  0  0
  150.6895  142.0854  157.4403 C   0  0  0  0  0  0  0  0  0  0  0  0
  149.2609  141.6727  157.7979 C   0  0  0  0  0  0  0  0  0  0  0  0
  149.0514  140.5951  158.3545 O   0  0  0  0  0  0  0  0  0  0  0  0
  148.2876  142.5395  157.4768 N   0  0  0  0  0  0  0  0  0  0  0  0
  146.8711  142.3552  157.7706 C   0  0  0  0  0  0  0  0  0  0  0  0
  145.9740  142.9990  156.6947 C   0  0  0  0  0  0  0  0  0  0  0  0
  145.3342  144.2561  157.1575 N   0  3  1  0  0  0  0  0  0  0  0  0
  144.5898  144.9371  156.0712 C   0  0  0  0  0  0  0  0  0  0  0  0
  143.9877  146.2638  156.5714 C   0  0  1  0  0  0  0  0  0  0  0  0
  143.1400  146.9556  155.4981 C   0  0  0  0  0  0  0  0  0  0  0  0
  143.1512  145.9999  157.6919 O   0  0  0  0  0  0  0  0  0  0  0  0
  143.8629  145.4287  158.7837 C   0  0  1  0  0  0  0  0  0  0  0  0
  142.8906  145.2741  159.9586 C   0  0  0  0  0  0  0  0  0  0  0  0
  144.4617  144.0790  158.3449 C   0  0  0  0  0  0  0  0  0  0  0  0
  151.3141  143.4472  159.3408 N   0  0  0  0  0  0  0  0  0  0  0  0
  152.9912  144.2549  162.1179 H   0  0  0  0  0  0  0  0  0  0  0  0
  151.2788  144.5872  161.8807 H   0  0  0  0  0  0  0  0  0  0  0  0
  152.4824  145.4056  160.8863 H   0  0  0  0  0  0  0  0  0  0  0  0
  153.6361  141.7826  161.0316 H   0  0  0  0  0  0  0  0  0  0  0  0
  153.5725  139.6728  159.2765 H   0  0  0  0  0  0  0  0  0  0  0  0
  153.2472  140.2726  157.6515 H   0  0  0  0  0  0  0  0  0  0  0  0
  151.9627  139.4967  158.5823 H   0  0  0  0  0  0  0  0  0  0  0  0
  150.6821  142.9954  156.8376 H   0  0  0  0  0  0  0  0  0  0  0  0
  151.1601  141.3111  156.8338 H   0  0  0  0  0  0  0  0  0  0  0  0
  148.5545  143.4032  157.0258 H   0  0  0  0  0  0  0  0  0  0  0  0
  146.6724  141.2881  157.8724 H   0  0  0  0  0  0  0  0  0  0  0  0
  146.6666  142.8044  158.7429 H   0  0  0  0  0  0  0  0  0  0  0  0
  146.5932  143.2166  155.8230 H   0  0  0  0  0  0  0  0  0  0  0  0
  145.2025  142.3045  156.3590 H   0  0  0  0  0  0  0  0  0  0  0  0
  145.2590  145.1317  155.2322 H   0  0  0  0  0  0  0  0  0  0  0  0
  143.7997  144.2790  155.7053 H   0  0  0  0  0  0  0  0  0  0  0  0
  144.7885  146.9418  156.8720 H   0  0  0  0  0  0  0  0  0  0  0  0
  143.7357  147.1863  154.6147 H   0  0  0  0  0  0  0  0  0  0  0  0
  142.7260  147.8920  155.8729 H   0  0  0  0  0  0  0  0  0  0  0  0
  142.3070  146.3254  155.1851 H   0  0  0  0  0  0  0  0  0  0  0  0
  144.6640  146.1066  159.0843 H   0  0  0  0  0  0  0  0  0  0  0  0
  143.3902  144.8469  160.8283 H   0  0  0  0  0  0  0  0  0  0  0  0
  142.0563  144.6218  159.6984 H   0  0  0  0  0  0  0  0  0  0  0  0
  142.4791  146.2396  160.2535 H   0  0  0  0  0  0  0  0  0  0  0  0
  143.6641  143.3729  158.1079 H   0  0  0  0  0  0  0  0  0  0  0  0
  145.0271  143.6552  159.1739 H   0  0  0  0  0  0  0  0  0  0  0  0
  146.0806  144.8811  157.4270 H   0  0  0  0  0  0  0  0  0  0  0  0
  1  2  1  0  0  0  0
  1 22  1  0  0  0  0
  1 23  1  0  0  0  0
  1 24  1  0  0  0  0
  2 21  2  0  0  0  0
  2  3  1  0  0  0  0
  3  4  2  0  0  0  0
  3 25  1  0  0  0  0
  4  5  1  0  0  0  0
  4  6  1  0  0  0  0
  5 26  1  0  0  0  0
  5 27  1  0  0  0  0
  5 28  1  0  0  0  0
  6  7  1  0  0  0  0
  6 21  1  0  0  0  0
  7  8  1  0  0  0  0
  7 29  1  0  0  0  0
  7 30  1  0  0  0  0
  8  9  2  0  0  0  0
  8 10  1  0  0  0  0
 10 11  1  0  0  0  0
 10 31  1  0  0  0  0
 11 12  1  0  0  0  0
 11 32  1  0  0  0  0
 11 33  1  0  0  0  0
 12 13  1  0  0  0  0
 12 34  1  0  0  0  0
 12 35  1  0  0  0  0
 13 20  1  0  0  0  0
 13 14  1  0  0  0  0
 13 48  1  0  0  0  0
 14 15  1  0  0  0  0
 14 36  1  0  0  0  0
 14 37  1  0  0  0  0
 15 16  1  0  0  0  0
 15 17  1  0  0  0  0
 15 38  1  0  0  0  0
 16 39  1  0  0  0  0
 16 40  1  0  0  0  0
 16 41  1  0  0  0  0
 17 18  1  0  0  0  0
 18 19  1  0  0  0  0
 18 20  1  0  0  0  0
 18 42  1  0  0  0  0
 19 43  1  0  0  0  0
 19 44  1  0  0  0  0
 19 45  1  0  0  0  0
 20 46  1  0  0  0  0
 20 47  1  0  0  0  0
M  CHG  1  13   1
M  END
> <s_m_source_file>
AV-unprocessed.smi

> <i_m_source_file_index>
2106

> <i_lp_mmshare_version>
43012

> <i_f3d_flags>
0

> <s_epik_input>
W0NIM11jMVtjSF1jKFtDSDNdKW4objEpW0NIMl1DKD1PKVtOSF1bQ0gyXVtDSDJdTjJbQ0gyXVtDQEBIXShbQ0gzXSlPW0NAQEhdKFtDSDNdKVtDSDJdMg==

> <s_epik_cmdline>
J2VwaWtfcHl0aG9uJywgJy1waCcsICc3LjAnLCAnLXRuJywgJzgnLCAnLW1hJywgJzIwMCcsICctbWV0YWxfYmluZGluZycsICctaW1hZScsICc8aW5maWxlLm1hZT4nLCAnLW9tYWUnLCAnPG91dGZpbGUubWFlPic=

> <r_lp_tautomer_probability>
1

> <r_epik_Ionization_Penalty>
0.748586

> <r_epik_Ionization_Penalty_Charging>
0.748396

> <r_epik_Ionization_Penalty_Neutral>
0.000189656

> <r_epik_State_Penalty>
0.775162

> <r_epik_Charging_Adjusted_Penalty>
1.52356

> <i_epik_Tot_Q>
1

> <i_epik_Tot_abs_Q>
1

> <r_epik_Metal_State_Penalty>
0.775295

> <b_epik_Metal_Only>
0

> <s_lp_Force_Field>
OPLS_2005

> <r_lp_Energy>
12.4658

> <b_lp_Chiralities_Consistent>
1

> <s_lp_Variant>
AV-unprocessed.smi:2106-4

> <Gold.Version>
5.8.1

> <Gold.Id.Protein>
6NUR|6NUR_protein|mol2

> <Gold.PLP.Fitness>
38.8686

> <Gold.PLP.PLP>
-31.4148

> <Gold.PLP.part.hbond>
-2.3681

> <Gold.PLP.part.metal>
0.0000

> <Gold.PLP.part.buried>
-4.0151

> <Gold.PLP.part.nonpolar>
-24.6356

> <Gold.PLP.part.repulsive>
0.0934

> <Gold.PLP.ligand.clash>
0.0000

> <Gold.PLP.ligand.torsion>
0.7851

> <Gold.PLP.Chemscore.Hbond>
3.0000

> <Gold.PLP.Chemscore.CHOScore>
0.0000

> <Gold.PLP.Chemscore.Metal>
0.0000

> <Gold.Chemscore.Hbonds>
donor molecule, donor type, donor heavy atom, donor atom, acceptor molecule, acceptor atom, score
      L1  H    10    31       P1  8028  1.00
      L1  H    13    48       P1  8029  1.44

> <Gold.PLP.Chemscore.Internal.Correction>
0.0240

> <Gold.Rescore>
     Score         DG    S(hbond)    S(metal)    S(lipo)     H(rot)  DE(clash)    DE(int)     intcor
     13.71     -14.63       0.91        0.00      90.19       1.73       0.11       0.81       ----

> <Gold.Chemscore.Fitness>
13.7075

> <Gold.Chemscore.DG>
-14.6261

> <Gold.Chemscore.ZeroCoef>
-5.4800

> <Gold.Chemscore.Hbond>
0.9062

> <Gold.Chemscore.Metal>
0.0000

> <Gold.Chemscore.Lipo>
90.1918

> <Gold.Chemscore.Internal_Hbond>
0.0000

> <Gold.Chemscore.DEClash>
0.1066

> <Gold.Chemscore.DEInternal>
0.8120

> <Gold.Chemscore.Rot>
1.7316

> <Gold.Chemscore.Internal.Correction>
   9.000000E+99

> <Gold.Chemscore.Hbonds>
donor molecule, donor type, donor heavy atom, donor atom, acceptor molecule, acceptor atom, score
      L1  H    10    31       P1  8028  0.25
      L1  H    13    48       P1  8029  0.08

> <Gold.Chemscore.Hbond.Weighted>
-3.0267

> <Gold.Chemscore.Metal.Weighted>
-0.0000

> <Gold.Chemscore.Lipo.Weighted>
-10.5524

> <Gold.Chemscore.Internal_Hbond.Weighted>
0.0000

> <Gold.Chemscore.DEClash.Weighted>
0.1066

> <Gold.Chemscore.DEInternal.Weighted>
0.8120

> <Gold.Chemscore.Rot.Weighted>
4.4330

> <Gold.Chemscore.Internal.Correction.Weighted>
   9.000000E+99

> <Gold.Protein.RotatedTorsions>
[ 6907 6896 6895 6894 ] final   30.14 input  -60.11 | X-H torsion
[ 7974 7965 7964 7962 ] final   95.26 input  175.53 | X-H torsion
[ 8008 7997 7996 7995 ] final -119.54 input   59.86 | X-H torsion
[ 10167 10162 10161 10158 ] final  105.61 input  -65.29 | X-H torsion
[ 10718 10713 10712 10709 ] final  -16.56 input   66.30 | X-H torsion
[ 10763 10752 10751 10750 ] final  101.15 input  -60.55 | X-H torsion
[ 11005 11000 10999 10996 ] final  164.09 input  -57.11 | X-H torsion

> <Gold.Protein.ActiveResidues>
 VAL166  LYS551  ARG553  GLY616  TRP617  ASP618  TYR619  PRO620  LYS621  CYS622 
 ASP623  PHE694  ASN695  SER759  ASP760  ASP761  ALA762  ILE779  LEU786  VAL792 
 PHE793  MET794  SER795  GLU796  ALA797  LYS798  CYS799  TRP800  GLU811  SER814 

> <Gold.Protein.RotatedAtoms>
  152.0417  134.9707  160.0573 H   0  0  0  0  0  0  0  0  0  0  0  0  # atno 6907 bound_to 6896
  152.1143  133.4313  159.4654 H   0  0  0  0  0  0  0  0  0  0  0  0  # atno 6908 bound_to 6896
  150.6845  134.2530  159.4561 H   0  0  0  0  0  0  0  0  0  0  0  0  # atno 6909 bound_to 6896
  145.4545  139.2291  143.3021 H   0  0  0  0  0  0  0  0  0  0  0  0  # atno 7974 bound_to 7965
  155.1174  140.0398  157.2740 H   0  0  0  0  0  0  0  0  0  0  0  0  # atno 8008 bound_to 7997
  154.6639  140.2597  155.7053 H   0  0  0  0  0  0  0  0  0  0  0  0  # atno 8009 bound_to 7997
  156.2631  140.2811  156.1123 H   0  0  0  0  0  0  0  0  0  0  0  0  # atno 8010 bound_to 7997
  139.7078  144.7083  151.1077 H   0  0  0  0  0  0  0  0  0  0  0  0  # atno 10167 bound_to 10162
  156.5859  130.4786  149.6300 H   0  0  0  0  0  0  0  0  0  0  0  0  # atno 10718 bound_to 10713
  153.3229  135.4054  155.1432 H   0  0  0  0  0  0  0  0  0  0  0  0  # atno 10763 bound_to 10752
  154.8605  135.3592  154.5572 H   0  0  0  0  0  0  0  0  0  0  0  0  # atno 10764 bound_to 10752
  153.6006  135.7071  153.5445 H   0  0  0  0  0  0  0  0  0  0  0  0  # atno 10765 bound_to 10752
  140.2424  134.8041  157.3423 H   0  0  0  0  0  0  0  0  0  0  0  0  # atno 11005 bound_to 11000
  146.2486  140.5308  142.8903 LP  0  0  0  0  0  0  0  0  0  0  0  0  # atno 17320 bound_to 7965
  144.8041  140.6267  143.6459 LP  0  0  0  0  0  0  0  0  0  0  0  0  # atno 17321 bound_to 7965
  140.7726  143.5334  150.9396 LP  0  0  0  0  0  0  0  0  0  0  0  0  # atno 17342 bound_to 10162
  139.9018  143.6826  152.3130 LP  0  0  0  0  0  0  0  0  0  0  0  0  # atno 17343 bound_to 10162
  156.2591  130.6952  151.1714 LP  0  0  0  0  0  0  0  0  0  0  0  0  # atno 17370 bound_to 10713
  157.7315  131.0607  150.5673 LP  0  0  0  0  0  0  0  0  0  0  0  0  # atno 17371 bound_to 10713
  140.1640  134.4693  155.7875 LP  0  0  0  0  0  0  0  0  0  0  0  0  # atno 17394 bound_to 11000
  141.2209  133.6913  156.7593 LP  0  0  0  0  0  0  0  0  0  0  0  0  # atno 17395 bound_to 11000

$$$$
