AV-unprocessed.smi:35|AV-procd|sdf|257|dock3
  -GOLD-   2262016 23D 1   1.00000     0.00000
 Structure written by MMmdl.
 29 30  0  0  0  0  0  0  0  0  1 V2000
  149.1491  133.8485  158.0876 O   0  0  0  0  0  0  0  0  0  0  0  0
  149.5131  134.8684  157.5066 C   0  0  0  0  0  0  0  0  0  0  0  0
  150.1096  134.7875  156.2444 N   0  0  0  0  0  0  0  0  0  0  0  0
  150.5637  135.8713  155.4896 C   0  0  0  0  0  0  0  0  0  0  0  0
  151.0610  135.6804  154.3806 O   0  0  0  0  0  0  0  0  0  0  0  0
  150.4102  137.1575  156.0547 N   0  0  0  0  0  0  0  0  0  0  0  0
  150.8949  138.3817  155.3081 C   0  0  2  0  0  0  0  0  0  0  0  0
  150.9533  139.4354  156.2176 O   0  0  0  0  0  0  0  0  0  0  0  0
  150.5234  140.6294  155.5834 C   0  0  2  0  0  0  0  0  0  0  0  0
  150.0390  141.6206  156.6533 C   0  0  0  0  0  0  0  0  0  0  0  0
  150.8787  142.7541  156.6971 O   0  0  0  0  0  0  0  0  0  0  0  0
  149.4432  140.1550  154.6036 C   0  0  1  0  0  0  0  0  0  0  0  0
  149.3388  141.0430  153.5080 O   0  0  0  0  0  0  0  0  0  0  0  0
  149.9639  138.7973  154.1447 C   0  0  2  0  0  0  0  0  0  0  0  0
  148.8919  137.9038  153.8989 O   0  0  0  0  0  0  0  0  0  0  0  0
  149.8177  137.2876  157.3033 C   0  0  0  0  0  0  0  0  0  0  0  0
  149.3798  136.2271  158.0207 C   0  0  0  0  0  0  0  0  0  0  0  0
  148.5585  136.6257  159.7787 Br  0  0  0  0  0  0  0  0  0  0  0  0
  150.2188  133.8669  155.8440 H   0  0  0  0  0  0  0  0  0  0  0  0
  151.9134  138.1836  154.9713 H   0  0  0  0  0  0  0  0  0  0  0  0
  151.3818  141.0343  155.0430 H   0  0  0  0  0  0  0  0  0  0  0  0
  149.0100  141.9292  156.4660 H   0  0  0  0  0  0  0  0  0  0  0  0
  150.0591  141.1479  157.6355 H   0  0  0  0  0  0  0  0  0  0  0  0
  150.4530  143.4621  156.2381 H   0  0  0  0  0  0  0  0  0  0  0  0
  148.4834  140.0540  155.1132 H   0  0  0  0  0  0  0  0  0  0  0  0
  149.0717  140.5527  152.7459 H   0  0  0  0  0  0  0  0  0  0  0  0
  150.5773  138.8896  153.2470 H   0  0  0  0  0  0  0  0  0  0  0  0
  149.1323  137.3392  153.1800 H   0  0  0  0  0  0  0  0  0  0  0  0
  149.6917  138.2761  157.7215 H   0  0  0  0  0  0  0  0  0  0  0  0
  1  2  2  0  0  0  0
  2 17  1  0  0  0  0
  2  3  1  0  0  0  0
  3 19  1  0  0  0  0
  3  4  1  0  0  0  0
  4  5  2  0  0  0  0
  4  6  1  0  0  0  0
  6  7  1  0  0  0  0
  6 16  1  0  0  0  0
  7 14  1  0  0  0  0
  7  8  1  0  0  0  0
  7 20  1  0  0  0  0
  8  9  1  0  0  0  0
  9 10  1  0  0  0  0
  9 12  1  0  0  0  0
  9 21  1  0  0  0  0
 10 11  1  0  0  0  0
 10 22  1  0  0  0  0
 10 23  1  0  0  0  0
 11 24  1  0  0  0  0
 12 13  1  0  0  0  0
 12 14  1  0  0  0  0
 12 25  1  0  0  0  0
 13 26  1  0  0  0  0
 14 15  1  0  0  0  0
 14 27  1  0  0  0  0
 15 28  1  0  0  0  0
 16 17  2  0  0  0  0
 16 29  1  0  0  0  0
 17 18  1  0  0  0  0
M  END
> <s_m_source_file>
AV-unprocessed.smi

> <i_m_source_file_index>
35

> <i_lp_mmshare_version>
43012

> <i_f3d_flags>
0

> <s_epik_input>
Tz1jMVtuSF1jKD1PKW4oW2NIXWMxQnIpW0NAQEhdMk9bQ0BASF0oW0NIMl1bT0hdKVtDQEBIXShbT0hdKVtDQEhdMltPSF0=

> <s_epik_cmdline>
J2VwaWtfcHl0aG9uJywgJy1waCcsICc3LjAnLCAnLXRuJywgJzgnLCAnLW1hJywgJzIwMCcsICctbWV0YWxfYmluZGluZycsICctaW1hZScsICc8aW5maWxlLm1hZT4nLCAnLW9tYWUnLCAnPG91dGZpbGUubWFlPic=

> <r_lp_tautomer_probability>
0.999537

> <r_epik_Ionization_Penalty>
0.10812

> <r_epik_Ionization_Penalty_Charging>
0.108119

> <r_epik_Ionization_Penalty_Neutral>
4.93006e-07

> <r_epik_State_Penalty>
0.0979238

> <r_epik_Charging_Adjusted_Penalty>
0.206043

> <i_epik_Tot_Q>
0

> <i_epik_Tot_abs_Q>
0

> <r_epik_Metal_State_Penalty>
3.07911

> <b_epik_Metal_Only>
0

> <s_epik_Chemistry_Notes>
This compound contains an acetal/aminal-like group ( X-CH(R)-Y where X, Y are N, S, or O) that may be acid/base labile, releasing an aldehyde.

> <s_lp_Force_Field>
OPLS_2005

> <r_lp_Energy>
32.3775

> <b_lp_Chiralities_Consistent>
1

> <s_lp_Variant>
AV-unprocessed.smi:35-11

> <Gold.Version>
5.8.1

> <Gold.Id.Protein>
6NUR|6NUR_protein|mol2

> <Gold.PLP.Fitness>
37.3531

> <Gold.PLP.PLP>
-24.6532

> <Gold.PLP.part.hbond>
-7.0000

> <Gold.PLP.part.metal>
0.0000

> <Gold.PLP.part.buried>
-3.2039

> <Gold.PLP.part.nonpolar>
-15.6411

> <Gold.PLP.part.repulsive>
0.6533

> <Gold.PLP.ligand.clash>
0.0000

> <Gold.PLP.ligand.torsion>
1.1258

> <Gold.PLP.Chemscore.Hbond>
4.9217

> <Gold.PLP.Chemscore.CHOScore>
0.0000

> <Gold.PLP.Chemscore.Metal>
0.0000

> <Gold.Chemscore.Hbonds>
donor molecule, donor type, donor heavy atom, donor atom, acceptor molecule, acceptor atom, score
      L1  H    11    24       P1  8028  0.88
      L1  H    13    26       P1  7957  0.85
      L1  H    15    28       P1  7948  1.00
      P1  H  6896  6907       L1     1  0.60
      P1  H  7989  7998       L1    13  0.03
      P1  H  8011  8017       L1    13  0.35
      P1  H 10752 10763       L1     5  0.98

> <Gold.PLP.Chemscore.Internal.Correction>
0.1864

> <Gold.Rescore>
     Score         DG    S(hbond)    S(metal)    S(lipo)     H(rot)  DE(clash)    DE(int)     intcor
     12.61     -13.85       4.03        0.00      36.90       3.67       0.01       1.23       ----

> <Gold.Chemscore.Fitness>
12.6073

> <Gold.Chemscore.DG>
-13.8474

> <Gold.Chemscore.ZeroCoef>
-5.4800

> <Gold.Chemscore.Hbond>
4.0256

> <Gold.Chemscore.Metal>
0.0000

> <Gold.Chemscore.Lipo>
36.8997

> <Gold.Chemscore.Internal_Hbond>
0.0000

> <Gold.Chemscore.DEClash>
0.0073

> <Gold.Chemscore.DEInternal>
1.2328

> <Gold.Chemscore.Rot>
3.6701

> <Gold.Chemscore.Internal.Correction>
   9.000000E+99

> <Gold.Chemscore.Hbonds>
donor molecule, donor type, donor heavy atom, donor atom, acceptor molecule, acceptor atom, score
      L1  H    11    24       P1  8028  0.85
      L1  H    13    26       P1  7957  0.85
      L1  H    15    28       P1  7948  0.99
      P1  H  6896  6907       L1     1  0.04
      P1  H  8011  8017       L1    13  0.01
      P1  H 10752 10763       L1     5  0.56

> <Gold.Chemscore.Hbond.Weighted>
-13.4456

> <Gold.Chemscore.Metal.Weighted>
-0.0000

> <Gold.Chemscore.Lipo.Weighted>
-4.3173

> <Gold.Chemscore.Internal_Hbond.Weighted>
0.0000

> <Gold.Chemscore.DEClash.Weighted>
0.0073

> <Gold.Chemscore.DEInternal.Weighted>
1.2328

> <Gold.Chemscore.Rot.Weighted>
9.3955

> <Gold.Chemscore.Internal.Correction.Weighted>
   9.000000E+99

> <Gold.Protein.RotatedTorsions>
[ 6907 6896 6895 6894 ] final -113.05 input  -60.11 | X-H torsion
[ 7974 7965 7964 7962 ] final   84.10 input  175.53 | X-H torsion
[ 8008 7997 7996 7995 ] final   48.83 input   59.86 | X-H torsion
[ 10167 10162 10161 10158 ] final -116.74 input  -65.29 | X-H torsion
[ 10718 10713 10712 10709 ] final   25.99 input   66.30 | X-H torsion
[ 10763 10752 10751 10750 ] final   64.25 input  -60.55 | X-H torsion
[ 11005 11000 10999 10996 ] final   94.35 input  -57.11 | X-H torsion

> <Gold.Protein.ActiveResidues>
 VAL166  LYS551  ARG553  GLY616  TRP617  ASP618  TYR619  PRO620  LYS621  CYS622 
 ASP623  PHE694  ASN695  SER759  ASP760  ASP761  ALA762  ILE779  LEU786  VAL792 
 PHE793  MET794  SER795  GLU796  ALA797  LYS798  CYS799  TRP800  GLU811  SER814 

> <Gold.Protein.RotatedAtoms>
  150.7801  133.9001  159.3338 H   0  0  0  0  0  0  0  0  0  0  0  0  # atno 6907 bound_to 6896
  151.6865  135.0951  160.0235 H   0  0  0  0  0  0  0  0  0  0  0  0  # atno 6908 bound_to 6896
  152.3850  133.6560  159.6227 H   0  0  0  0  0  0  0  0  0  0  0  0  # atno 6909 bound_to 6896
  145.6032  139.2356  143.2234 H   0  0  0  0  0  0  0  0  0  0  0  0  # atno 7974 bound_to 7965
  155.3921  140.3434  155.4252 H   0  0  0  0  0  0  0  0  0  0  0  0  # atno 8008 bound_to 7997
  156.1552  140.1583  156.8738 H   0  0  0  0  0  0  0  0  0  0  0  0  # atno 8009 bound_to 7997
  154.5088  140.0795  156.7930 H   0  0  0  0  0  0  0  0  0  0  0  0  # atno 8010 bound_to 7997
  140.0760  143.4833  152.1953 H   0  0  0  0  0  0  0  0  0  0  0  0  # atno 10167 bound_to 10162
  157.2009  130.6889  149.6188 H   0  0  0  0  0  0  0  0  0  0  0  0  # atno 10718 bound_to 10713
  153.0048  135.5400  154.6480 H   0  0  0  0  0  0  0  0  0  0  0  0  # atno 10763 bound_to 10752
  154.5719  135.2842  155.0821 H   0  0  0  0  0  0  0  0  0  0  0  0  # atno 10764 bound_to 10752
  154.1984  135.6488  153.5132 H   0  0  0  0  0  0  0  0  0  0  0  0  # atno 10765 bound_to 10752
  139.8799  134.8840  156.3852 H   0  0  0  0  0  0  0  0  0  0  0  0  # atno 11005 bound_to 11000
  146.1560  140.6856  142.9299 LP  0  0  0  0  0  0  0  0  0  0  0  0  # atno 17320 bound_to 7965
  144.7301  140.4645  143.6944 LP  0  0  0  0  0  0  0  0  0  0  0  0  # atno 17321 bound_to 7965
  139.5808  144.7509  151.3645 LP  0  0  0  0  0  0  0  0  0  0  0  0  # atno 17342 bound_to 10162
  140.7102  143.7410  150.7553 LP  0  0  0  0  0  0  0  0  0  0  0  0  # atno 17343 bound_to 10162
  155.9700  130.4583  150.5995 LP  0  0  0  0  0  0  0  0  0  0  0  0  # atno 17370 bound_to 10713
  157.3768  131.0774  151.1511 LP  0  0  0  0  0  0  0  0  0  0  0  0  # atno 17371 bound_to 10713
  140.9371  133.7539  156.0099 LP  0  0  0  0  0  0  0  0  0  0  0  0  # atno 17394 bound_to 11000
  140.8263  134.3231  157.5364 LP  0  0  0  0  0  0  0  0  0  0  0  0  # atno 17395 bound_to 11000

$$$$
