AV-unprocessed.smi:169|AV-procd|sdf|1403|dock9
  -GOLD-   2262019153D 1   1.00000     0.00000
 Structure written by MMmdl.
 56 60  0  0  0  0  0  0  0  0  2 V2000
  144.9985  131.7308  150.4282 C   0  0  0  0  0  0  0  0  0  0  0  0
  145.7403  131.2501  151.6845 C   0  0  0  0  0  0  0  0  0  0  0  0
  147.0458  131.9360  151.8975 N   0  3  1  0  0  0  0  0  0  0  0  0
  147.0649  133.3827  151.4647 C   0  0  0  0  0  0  0  0  0  0  0  0
  146.1783  134.3948  152.2900 C   0  0  0  0  0  0  0  0  0  0  0  0
  146.7083  134.8040  153.7129 C   0  0  1  0  0  0  0  0  0  0  0  0
  145.7827  134.4029  154.9153 C   0  0  0  0  0  0  0  0  0  0  0  0
  146.3014  133.0034  155.3940 C   0  0  0  0  0  0  0  0  0  0  0  0
  147.3468  132.7401  154.3075 C   0  0  3  0  0  0  0  0  0  0  0  0
  147.6384  131.6412  153.2598 C   0  0  0  0  0  0  0  0  0  0  0  0
  147.9121  134.0366  153.9804 N   0  0  0  0  0  0  0  0  0  0  0  0
  148.8843  134.5170  154.8054 C   0  0  0  0  0  0  0  0  0  0  0  0
  149.8926  133.6942  155.1987 N   0  0  0  0  0  0  0  0  0  0  0  0
  150.8622  134.1396  156.0019 C   0  0  0  0  0  0  0  0  0  0  0  0
  151.0152  135.3548  156.5283 N   0  0  0  0  0  0  0  0  0  0  0  0
  150.0029  136.1866  156.1518 C   0  0  0  0  0  0  0  0  0  0  0  0
  148.9059  135.8528  155.3064 C   0  0  0  0  0  0  0  0  0  0  0  0
  148.0724  136.9572  155.1684 N   0  0  0  0  0  0  0  0  0  0  0  0
  148.6452  137.8871  155.8819 C   0  0  0  0  0  0  0  0  0  0  0  0
  149.8200  137.5155  156.4948 N   0  0  0  0  0  0  0  0  0  0  0  0
  150.6663  138.3423  157.3440 C   0  0  0  0  0  0  0  0  0  0  0  0
  151.2852  139.5755  156.6422 C   0  0  0  0  0  0  0  0  0  0  0  0
  152.0371  140.3965  157.6983 C   0  0  0  0  0  0  0  0  0  0  0  0
  153.1277  139.6714  158.2293 O   0  0  0  0  0  0  0  0  0  0  0  0
  152.0554  139.3228  155.3333 C   0  0  0  0  0  0  0  0  0  0  0  0
  150.9363  139.7555  154.5311 O   0  0  0  0  0  0  0  0  0  0  0  0
  150.3621  140.3700  155.7040 C   0  0  0  0  0  0  0  0  0  0  0  0
  144.1340  131.0965  150.2309 H   0  0  0  0  0  0  0  0  0  0  0  0
  145.6415  131.6924  149.5482 H   0  0  0  0  0  0  0  0  0  0  0  0
  144.6263  132.7494  150.5354 H   0  0  0  0  0  0  0  0  0  0  0  0
  145.1025  131.3482  152.5630 H   0  0  0  0  0  0  0  0  0  0  0  0
  145.9222  130.1819  151.5602 H   0  0  0  0  0  0  0  0  0  0  0  0
  148.1007  133.7237  151.4393 H   0  0  0  0  0  0  0  0  0  0  0  0
  146.7553  133.4328  150.4221 H   0  0  0  0  0  0  0  0  0  0  0  0
  146.1057  135.3117  151.7042 H   0  0  0  0  0  0  0  0  0  0  0  0
  145.1524  134.0324  152.3508 H   0  0  0  0  0  0  0  0  0  0  0  0
  146.8812  135.8803  153.7147 H   0  0  0  0  0  0  0  0  0  0  0  0
  145.8804  135.1251  155.7268 H   0  0  0  0  0  0  0  0  0  0  0  0
  144.7306  134.3791  154.6294 H   0  0  0  0  0  0  0  0  0  0  0  0
  146.7857  133.0916  156.3674 H   0  0  0  0  0  0  0  0  0  0  0  0
  145.5143  132.2487  155.4848 H   0  0  0  0  0  0  0  0  0  0  0  0
  146.3913  132.6183  153.8135 H   0  0  0  0  0  0  0  0  0  0  0  0
  147.3326  130.6615  153.6300 H   0  0  0  0  0  0  0  0  0  0  0  0
  148.7177  131.5754  153.1230 H   0  0  0  0  0  0  0  0  0  0  0  0
  151.6254  133.4194  156.2578 H   0  0  0  0  0  0  0  0  0  0  0  0
  148.2218  138.8758  155.9793 H   0  0  0  0  0  0  0  0  0  0  0  0
  150.0644  138.6533  158.1989 H   0  0  0  0  0  0  0  0  0  0  0  0
  151.4495  137.7025  157.7526 H   0  0  0  0  0  0  0  0  0  0  0  0
  152.4044  141.3341  157.2801 H   0  0  0  0  0  0  0  0  0  0  0  0
  151.3786  140.6641  158.5253 H   0  0  0  0  0  0  0  0  0  0  0  0
  152.7911  138.9960  158.7984 H   0  0  0  0  0  0  0  0  0  0  0  0
  152.9197  139.9750  155.1965 H   0  0  0  0  0  0  0  0  0  0  0  0
  152.3341  138.2861  155.1510 H   0  0  0  0  0  0  0  0  0  0  0  0
  149.3010  140.1551  155.8238 H   0  0  0  0  0  0  0  0  0  0  0  0
  150.5385  141.4471  155.7207 H   0  0  0  0  0  0  0  0  0  0  0  0
  147.6691  131.4658  151.2567 H   0  0  0  0  0  0  0  0  0  0  0  0
  1  2  1  0  0  0  0
  1 28  1  0  0  0  0
  1 29  1  0  0  0  0
  1 30  1  0  0  0  0
  2  3  1  0  0  0  0
  2 31  1  0  0  0  0
  2 32  1  0  0  0  0
  3 10  1  0  0  0  0
  3  4  1  0  0  0  0
  3 56  1  0  0  0  0
  4  5  1  0  0  0  0
  4 33  1  0  0  0  0
  4 34  1  0  0  0  0
  5  6  1  0  0  0  0
  5 35  1  0  0  0  0
  5 36  1  0  0  0  0
  6 11  1  0  0  0  0
  6  7  1  0  0  0  0
  6 37  1  0  0  0  0
  7  8  1  0  0  0  0
  7 38  1  0  0  0  0
  7 39  1  0  0  0  0
  8  9  1  0  0  0  0
  8 40  1  0  0  0  0
  8 41  1  0  0  0  0
  9 10  1  0  0  0  0
  9 11  1  0  0  0  0
  9 42  1  0  0  0  0
 10 43  1  0  0  0  0
 10 44  1  0  0  0  0
 11 12  1  0  0  0  0
 12 17  1  0  0  0  0
 12 13  2  0  0  0  0
 13 14  1  0  0  0  0
 14 15  2  0  0  0  0
 14 45  1  0  0  0  0
 15 16  1  0  0  0  0
 16 20  1  0  0  0  0
 16 17  2  0  0  0  0
 17 18  1  0  0  0  0
 18 19  2  0  0  0  0
 19 20  1  0  0  0  0
 19 46  1  0  0  0  0
 20 21  1  0  0  0  0
 21 22  1  0  0  0  0
 21 47  1  0  0  0  0
 21 48  1  0  0  0  0
 22 27  1  0  0  0  0
 22 23  1  0  0  0  0
 22 25  1  0  0  0  0
 23 24  1  0  0  0  0
 23 49  1  0  0  0  0
 23 50  1  0  0  0  0
 24 51  1  0  0  0  0
 25 26  1  0  0  0  0
 25 52  1  0  0  0  0
 25 53  1  0  0  0  0
 26 27  1  0  0  0  0
 27 54  1  0  0  0  0
 27 55  1  0  0  0  0
M  CHG  1   3   1
M  END
> <s_m_source_file>
AV-unprocessed.smi

> <i_m_source_file_index>
169

> <i_lp_mmshare_version>
43012

> <i_f3d_flags>
0

> <s_epik_input>
W0NASF0xMltDSDJdW0NIMl1OKFtDSDJdW0NIM10pW0NIMl1bQ0BIXShbQ0gyXVtDSDJdMSlOMmMobltjSF1uMyljKGMzNCluW2NIXW40W0NIMl1DNShbQ0gyXVtPSF0pW0NIMl1PW0NIMl01

> <s_epik_cmdline>
J2VwaWtfcHl0aG9uJywgJy1waCcsICc3LjAnLCAnLXRuJywgJzgnLCAnLW1hJywgJzIwMCcsICctbWV0YWxfYmluZGluZycsICctaW1hZScsICc8aW5maWxlLm1hZT4nLCAnLW9tYWUnLCAnPG91dGZpbGUubWFlPic=

> <r_lp_tautomer_probability>
1

> <r_epik_Ionization_Penalty>
0.00274162

> <r_epik_Ionization_Penalty_Charging>
0.00243722

> <r_epik_Ionization_Penalty_Neutral>
0.000304399

> <r_epik_State_Penalty>
-0

> <r_epik_Charging_Adjusted_Penalty>
0.00243722

> <i_epik_Tot_Q>
1

> <i_epik_Tot_abs_Q>
1

> <r_epik_Metal_State_Penalty>
-0

> <b_epik_Metal_Only>
0

> <s_lp_Force_Field>
OPLS_2005

> <r_lp_Energy>
131.702

> <b_lp_Chiralities_Consistent>
1

> <s_lp_Variant>
AV-unprocessed.smi:169-6

> <Gold.Version>
5.8.1

> <Gold.Id.Protein>
6NUR|6NUR_protein|mol2

> <Gold.PLP.Fitness>
41.3655

> <Gold.PLP.PLP>
-33.1987

> <Gold.PLP.part.hbond>
-3.0000

> <Gold.PLP.part.metal>
0.0000

> <Gold.PLP.part.buried>
-5.9216

> <Gold.PLP.part.nonpolar>
-23.5875

> <Gold.PLP.part.repulsive>
0.3803

> <Gold.PLP.ligand.clash>
0.0000

> <Gold.PLP.ligand.torsion>
0.6245

> <Gold.PLP.Chemscore.Hbond>
3.0000

> <Gold.PLP.Chemscore.CHOScore>
0.0000

> <Gold.PLP.Chemscore.Metal>
0.0000

> <Gold.Chemscore.Hbonds>
donor molecule, donor type, donor heavy atom, donor atom, acceptor molecule, acceptor atom, score
      L1  H     3    56       P1 10747  1.00
      P1  H  7989  7998       L1    26  1.00
      P1  H  7997  8008       L1    24  0.96

> <Gold.PLP.Chemscore.Internal.Correction>
0.4158

> <Gold.Rescore>
     Score         DG    S(hbond)    S(metal)    S(lipo)     H(rot)  DE(clash)    DE(int)     intcor
     13.87     -15.83       2.65        0.00      70.21       2.62       0.00       1.96       ----

> <Gold.Chemscore.Fitness>
13.8682

> <Gold.Chemscore.DG>
-15.8320

> <Gold.Chemscore.ZeroCoef>
-5.4800

> <Gold.Chemscore.Hbond>
2.6491

> <Gold.Chemscore.Metal>
0.0000

> <Gold.Chemscore.Lipo>
70.2057

> <Gold.Chemscore.Internal_Hbond>
0.0000

> <Gold.Chemscore.DEClash>
0.0047

> <Gold.Chemscore.DEInternal>
1.9591

> <Gold.Chemscore.Rot>
2.6212

> <Gold.Chemscore.Internal.Correction>
   9.000000E+99

> <Gold.Chemscore.Hbonds>
donor molecule, donor type, donor heavy atom, donor atom, acceptor molecule, acceptor atom, score
      L1  H     3    56       P1 10747  1.00
      P1  H  7989  7998       L1    26  0.34
      P1  H  7997  8008       L1    24  0.72

> <Gold.Chemscore.Hbond.Weighted>
-8.8481

> <Gold.Chemscore.Metal.Weighted>
-0.0000

> <Gold.Chemscore.Lipo.Weighted>
-8.2141

> <Gold.Chemscore.Internal_Hbond.Weighted>
0.0000

> <Gold.Chemscore.DEClash.Weighted>
0.0047

> <Gold.Chemscore.DEInternal.Weighted>
1.9591

> <Gold.Chemscore.Rot.Weighted>
6.7102

> <Gold.Chemscore.Internal.Correction.Weighted>
   9.000000E+99

> <Gold.Protein.RotatedTorsions>
[ 6907 6896 6895 6894 ] final  139.13 input  -60.11 | X-H torsion
[ 7974 7965 7964 7962 ] final   -9.83 input  175.53 | X-H torsion
[ 8008 7997 7996 7995 ] final -104.05 input   59.86 | X-H torsion
[ 10167 10162 10161 10158 ] final  127.71 input  -65.29 | X-H torsion
[ 10718 10713 10712 10709 ] final  -57.23 input   66.30 | X-H torsion
[ 10763 10752 10751 10750 ] final  129.63 input  -60.55 | X-H torsion
[ 11005 11000 10999 10996 ] final -161.66 input  -57.11 | X-H torsion

> <Gold.Protein.ActiveResidues>
 VAL166  LYS551  ARG553  GLY616  TRP617  ASP618  TYR619  PRO620  LYS621  CYS622 
 ASP623  PHE694  ASN695  SER759  ASP760  ASP761  ALA762  ILE779  LEU786  VAL792 
 PHE793  MET794  SER795  GLU796  ALA797  LYS798  CYS799  TRP800  GLU811  SER814 

> <Gold.Protein.RotatedAtoms>
  152.2585  133.5276  159.5367 H   0  0  0  0  0  0  0  0  0  0  0  0  # atno 6907 bound_to 6896
  150.7117  134.0862  159.3924 H   0  0  0  0  0  0  0  0  0  0  0  0  # atno 6908 bound_to 6896
  151.8781  135.0464  160.0537 H   0  0  0  0  0  0  0  0  0  0  0  0  # atno 6909 bound_to 6896
  146.2239  140.2675  142.8355 H   0  0  0  0  0  0  0  0  0  0  0  0  # atno 7974 bound_to 7965
  154.8798  140.0419  157.1775 H   0  0  0  0  0  0  0  0  0  0  0  0  # atno 8008 bound_to 7997
  154.8651  140.2950  155.5494 H   0  0  0  0  0  0  0  0  0  0  0  0  # atno 8009 bound_to 7997
  156.2999  140.2439  156.3632 H   0  0  0  0  0  0  0  0  0  0  0  0  # atno 8010 bound_to 7997
  139.5564  144.6851  151.4170 H   0  0  0  0  0  0  0  0  0  0  0  0  # atno 10167 bound_to 10162
  156.1227  130.4165  150.0412 H   0  0  0  0  0  0  0  0  0  0  0  0  # atno 10718 bound_to 10713
  153.7450  135.3218  155.3311 H   0  0  0  0  0  0  0  0  0  0  0  0  # atno 10763 bound_to 10752
  154.8282  135.4553  154.0989 H   0  0  0  0  0  0  0  0  0  0  0  0  # atno 10764 bound_to 10752
  153.2175  135.6944  153.8122 H   0  0  0  0  0  0  0  0  0  0  0  0  # atno 10765 bound_to 10752
  140.6179  134.4781  157.5221 H   0  0  0  0  0  0  0  0  0  0  0  0  # atno 11005 bound_to 11000
  144.9293  140.7957  143.5699 LP  0  0  0  0  0  0  0  0  0  0  0  0  # atno 17320 bound_to 7965
  145.2617  139.1989  143.4888 LP  0  0  0  0  0  0  0  0  0  0  0  0  # atno 17321 bound_to 7965
  140.6837  143.8022  150.7157 LP  0  0  0  0  0  0  0  0  0  0  0  0  # atno 17342 bound_to 10162
  140.1484  143.4380  152.2148 LP  0  0  0  0  0  0  0  0  0  0  0  0  # atno 17343 bound_to 10162
  156.8346  130.9404  151.3635 LP  0  0  0  0  0  0  0  0  0  0  0  0  # atno 17370 bound_to 10713
  157.6410  130.8805  149.9448 LP  0  0  0  0  0  0  0  0  0  0  0  0  # atno 17371 bound_to 10713
  139.9165  134.8235  156.1349 LP  0  0  0  0  0  0  0  0  0  0  0  0  # atno 17394 bound_to 11000
  141.0763  133.6774  156.2243 LP  0  0  0  0  0  0  0  0  0  0  0  0  # atno 17395 bound_to 11000

$$$$
