AV-unprocessed.smi:1165|AV-procd|sdf|4932|dock5
  -GOLD-   22720 3513D 1   1.00000     0.00000
 Structure written by MMmdl.
 40 41  0  0  0  0  0  0  0  0  2 V2000
  153.4509  141.8579  161.3674 C   0  0  0  0  0  0  0  0  0  0  0  0
  153.1727  142.1486  159.8886 C   0  0  1  0  0  0  0  0  0  0  0  0
  152.4866  140.9629  159.1860 C   0  0  0  0  0  0  0  0  0  0  0  0
  152.1121  141.3002  157.8026 N   0  0  0  0  0  0  0  0  0  0  0  0
  151.5409  139.9907  156.8150 S   0  0  0  0  0  0  0  0  0  0  0  0
  150.3918  139.4019  157.5218 O   0  0  0  0  0  0  0  0  0  0  0  0
  151.2988  140.5736  155.4849 O   0  0  0  0  0  0  0  0  0  0  0  0
  152.8676  139.0605  156.9077 N   0  5  0  0  0  0  0  0  0  0  0  0
  152.8497  137.8718  157.7457 C   0  0  0  0  0  0  0  0  0  0  0  0
  154.2480  137.6084  158.3512 C   0  0  0  0  0  0  0  0  0  0  0  0
  154.2513  137.1593  159.8087 C   0  0  0  0  0  0  0  0  0  0  0  0
  153.7099  137.9714  160.8293 C   0  0  0  0  0  0  0  0  0  0  0  0
  153.7348  137.5031  162.1568 C   0  0  0  0  0  0  0  0  0  0  0  0
  154.3042  136.2397  162.4109 C   0  0  0  0  0  0  0  0  0  0  0  0
  154.8362  135.4572  161.4480 N   0  0  0  0  0  0  0  0  0  0  0  0
  154.8080  135.9144  160.1778 C   0  0  0  0  0  0  0  0  0  0  0  0
  151.3967  142.5876  157.6978 C   0  0  0  0  0  0  0  0  0  0  0  0
  152.1219  143.7035  158.4701 C   0  0  1  0  0  0  0  0  0  0  0  0
  151.3114  145.0041  158.4907 C   0  0  0  0  0  0  0  0  0  0  0  0
  152.3371  143.2941  159.8127 O   0  0  0  0  0  0  0  0  0  0  0  0
  154.1049  140.9927  161.4808 H   0  0  0  0  0  0  0  0  0  0  0  0
  152.5278  141.6532  161.9100 H   0  0  0  0  0  0  0  0  0  0  0  0
  153.9378  142.7076  161.8461 H   0  0  0  0  0  0  0  0  0  0  0  0
  154.1233  142.3634  159.3968 H   0  0  0  0  0  0  0  0  0  0  0  0
  153.1574  140.1039  159.1858 H   0  0  0  0  0  0  0  0  0  0  0  0
  151.5874  140.6674  159.7281 H   0  0  0  0  0  0  0  0  0  0  0  0
  152.1389  137.9876  158.5639 H   0  0  0  0  0  0  0  0  0  0  0  0
  152.5216  136.9850  157.2020 H   0  0  0  0  0  0  0  0  0  0  0  0
  154.7724  136.8637  157.7508 H   0  0  0  0  0  0  0  0  0  0  0  0
  154.8434  138.5189  158.2779 H   0  0  0  0  0  0  0  0  0  0  0  0
  153.2760  138.9330  160.5977 H   0  0  0  0  0  0  0  0  0  0  0  0
  153.3237  138.0963  162.9598 H   0  0  0  0  0  0  0  0  0  0  0  0
  154.3379  135.8487  163.4171 H   0  0  0  0  0  0  0  0  0  0  0  0
  155.2405  135.2646  159.4317 H   0  0  0  0  0  0  0  0  0  0  0  0
  151.3006  142.8812  156.6536 H   0  0  0  0  0  0  0  0  0  0  0  0
  150.3848  142.4568  158.0838 H   0  0  0  0  0  0  0  0  0  0  0  0
  153.0845  143.9063  157.9974 H   0  0  0  0  0  0  0  0  0  0  0  0
  151.1281  145.3676  157.4793 H   0  0  0  0  0  0  0  0  0  0  0  0
  151.8419  145.7861  159.0343 H   0  0  0  0  0  0  0  0  0  0  0  0
  150.3447  144.8586  158.9739 H   0  0  0  0  0  0  0  0  0  0  0  0
  1  2  1  0  0  0  0
  1 21  1  0  0  0  0
  1 22  1  0  0  0  0
  1 23  1  0  0  0  0
  2 20  1  0  0  0  0
  2  3  1  0  0  0  0
  2 24  1  0  0  0  0
  3  4  1  0  0  0  0
  3 25  1  0  0  0  0
  3 26  1  0  0  0  0
  4  5  1  0  0  0  0
  4 17  1  0  0  0  0
  5  6  2  0  0  0  0
  5  7  2  0  0  0  0
  5  8  1  0  0  0  0
  8  9  1  0  0  0  0
  9 10  1  0  0  0  0
  9 27  1  0  0  0  0
  9 28  1  0  0  0  0
 10 11  1  0  0  0  0
 10 29  1  0  0  0  0
 10 30  1  0  0  0  0
 11 16  1  0  0  0  0
 11 12  2  0  0  0  0
 12 13  1  0  0  0  0
 12 31  1  0  0  0  0
 13 14  2  0  0  0  0
 13 32  1  0  0  0  0
 14 15  1  0  0  0  0
 14 33  1  0  0  0  0
 15 16  2  0  0  0  0
 16 34  1  0  0  0  0
 17 18  1  0  0  0  0
 17 35  1  0  0  0  0
 17 36  1  0  0  0  0
 18 19  1  0  0  0  0
 18 20  1  0  0  0  0
 18 37  1  0  0  0  0
 19 38  1  0  0  0  0
 19 39  1  0  0  0  0
 19 40  1  0  0  0  0
M  CHG  1   8  -1
M  END
> <s_m_source_file>
AV-unprocessed.smi

> <i_m_source_file_index>
1165

> <i_lp_mmshare_version>
43012

> <i_f3d_flags>
0

> <s_epik_input>
W0NIM11bQ0BASF0xW0NIMl1OKFtDSDJdW0NASF0oTzEpW0NIM10pUyg9TykoPU8pW05IXVtDSDJdW0NIMl1jMltjSF1bY0hdW2NIXW5bY0hdMg==

> <s_epik_cmdline>
J2VwaWtfcHl0aG9uJywgJy1waCcsICc3LjAnLCAnLXRuJywgJzgnLCAnLW1hJywgJzIwMCcsICctbWV0YWxfYmluZGluZycsICctaW1hZScsICc8aW5maWxlLm1hZT4nLCAnLW9tYWUnLCAnPG91dGZpbGUubWFlPic=

> <r_epik_Ionization_Penalty>
1.23471

> <r_epik_Ionization_Penalty_Charging>
1.20871

> <r_epik_Ionization_Penalty_Neutral>
0.025996

> <r_epik_State_Penalty>
1.46261

> <r_epik_Charging_Adjusted_Penalty>
2.67132

> <i_epik_Tot_Q>
-1

> <i_epik_Tot_abs_Q>
1

> <r_epik_Metal_State_Penalty>
0.521406

> <b_epik_Metal_Only>
0

> <s_lp_Force_Field>
OPLS_2005

> <r_lp_Energy>
1.53282

> <b_lp_Chiralities_Consistent>
1

> <s_lp_Variant>
AV-unprocessed.smi:1165-5

> <Gold.Version>
5.8.1

> <Gold.Id.Protein>
6NUR|6NUR_protein|mol2

> <Gold.PLP.Fitness>
42.5351

> <Gold.PLP.PLP>
-35.1947

> <Gold.PLP.part.hbond>
-2.0000

> <Gold.PLP.part.metal>
0.0000

> <Gold.PLP.part.buried>
-5.0504

> <Gold.PLP.part.nonpolar>
-28.0531

> <Gold.PLP.part.repulsive>
0.0225

> <Gold.PLP.ligand.clash>
0.0000

> <Gold.PLP.ligand.torsion>
1.3397

> <Gold.PLP.Chemscore.Hbond>
2.8480

> <Gold.PLP.Chemscore.CHOScore>
0.0000

> <Gold.PLP.Chemscore.Metal>
0.0000

> <Gold.Chemscore.Hbonds>
donor molecule, donor type, donor heavy atom, donor atom, acceptor molecule, acceptor atom, score
      P1  H  7989  7998       L1     7  0.85
      P1  H  7997  8008       L1     8  2.00

> <Gold.PLP.Chemscore.Internal.Correction>
1.4757

> <Gold.Rescore>
     Score         DG    S(hbond)    S(metal)    S(lipo)     H(rot)  DE(clash)    DE(int)     intcor
     17.79     -19.13       1.72        0.00      99.81       1.47       0.00       1.34       ----

> <Gold.Chemscore.Fitness>
17.7933

> <Gold.Chemscore.DG>
-19.1338

> <Gold.Chemscore.ZeroCoef>
-5.4800

> <Gold.Chemscore.Hbond>
1.7208

> <Gold.Chemscore.Metal>
0.0000

> <Gold.Chemscore.Lipo>
99.8073

> <Gold.Chemscore.Internal_Hbond>
0.0000

> <Gold.Chemscore.DEClash>
0.0038

> <Gold.Chemscore.DEInternal>
1.3367

> <Gold.Chemscore.Rot>
1.4731

> <Gold.Chemscore.Internal.Correction>
   9.000000E+99

> <Gold.Chemscore.Hbonds>
donor molecule, donor type, donor heavy atom, donor atom, acceptor molecule, acceptor atom, score
      P1  H  7989  7998       L1     7  0.78
      P1  H  7997  8008       L1     8  0.80

> <Gold.Chemscore.Hbond.Weighted>
-5.7475

> <Gold.Chemscore.Metal.Weighted>
-0.0000

> <Gold.Chemscore.Lipo.Weighted>
-11.6774

> <Gold.Chemscore.Internal_Hbond.Weighted>
0.0000

> <Gold.Chemscore.DEClash.Weighted>
0.0038

> <Gold.Chemscore.DEInternal.Weighted>
1.3367

> <Gold.Chemscore.Rot.Weighted>
3.7712

> <Gold.Chemscore.Internal.Correction.Weighted>
   9.000000E+99

> <Gold.Protein.RotatedTorsions>
[ 6907 6896 6895 6894 ] final  -33.94 input  -60.11 | X-H torsion
[ 7974 7965 7964 7962 ] final   61.13 input  175.53 | X-H torsion
[ 8008 7997 7996 7995 ] final  -66.78 input   59.86 | X-H torsion
[ 10167 10162 10161 10158 ] final -152.89 input  -65.29 | X-H torsion
[ 10718 10713 10712 10709 ] final   -8.46 input   66.30 | X-H torsion
[ 10763 10752 10751 10750 ] final   60.50 input  -60.55 | X-H torsion
[ 11005 11000 10999 10996 ] final  -85.23 input  -57.11 | X-H torsion

> <Gold.Protein.ActiveResidues>
 VAL166  LYS551  ARG553  GLY616  TRP617  ASP618  TYR619  PRO620  LYS621  CYS622 
 ASP623  PHE694  ASN695  SER759  ASP760  ASP761  ALA762  ILE779  LEU786  VAL792 
 PHE793  MET794  SER795  GLU796  ALA797  LYS798  CYS799  TRP800  GLU811  SER814 

> <Gold.Protein.RotatedAtoms>
  151.0590  134.9724  159.8250 H   0  0  0  0  0  0  0  0  0  0  0  0  # atno 6907 bound_to 6896
  152.5392  134.2441  159.8883 H   0  0  0  0  0  0  0  0  0  0  0  0  # atno 6908 bound_to 6896
  151.2460  133.4331  159.2643 H   0  0  0  0  0  0  0  0  0  0  0  0  # atno 6909 bound_to 6896
  145.8882  139.3492  143.0665 H   0  0  0  0  0  0  0  0  0  0  0  0  # atno 7974 bound_to 7965
  154.4757  140.0906  156.7255 H   0  0  0  0  0  0  0  0  0  0  0  0  # atno 8008 bound_to 7997
  155.4604  140.3461  155.4294 H   0  0  0  0  0  0  0  0  0  0  0  0  # atno 8009 bound_to 7997
  156.1112  140.1448  156.9325 H   0  0  0  0  0  0  0  0  0  0  0  0  # atno 8010 bound_to 7997
  139.7143  143.9058  152.2480 H   0  0  0  0  0  0  0  0  0  0  0  0  # atno 10167 bound_to 10162
  156.7022  130.5097  149.5914 H   0  0  0  0  0  0  0  0  0  0  0  0  # atno 10718 bound_to 10713
  152.9923  135.5534  154.5884 H   0  0  0  0  0  0  0  0  0  0  0  0  # atno 10763 bound_to 10752
  154.5250  135.2810  155.1231 H   0  0  0  0  0  0  0  0  0  0  0  0  # atno 10764 bound_to 10752
  154.2569  135.6388  153.5313 H   0  0  0  0  0  0  0  0  0  0  0  0  # atno 10765 bound_to 10752
  141.1643  133.7388  156.8984 H   0  0  0  0  0  0  0  0  0  0  0  0  # atno 11005 bound_to 11000
  145.8940  140.9285  143.0537 LP  0  0  0  0  0  0  0  0  0  0  0  0  # atno 17320 bound_to 7965
  144.6729  140.0944  143.7463 LP  0  0  0  0  0  0  0  0  0  0  0  0  # atno 17321 bound_to 7965
  139.8936  144.6952  150.8743 LP  0  0  0  0  0  0  0  0  0  0  0  0  # atno 17342 bound_to 10162
  140.7740  143.3567  151.1907 LP  0  0  0  0  0  0  0  0  0  0  0  0  # atno 17343 bound_to 10162
  156.1720  130.6443  151.0849 LP  0  0  0  0  0  0  0  0  0  0  0  0  # atno 17370 bound_to 10713
  157.6968  131.0791  150.6943 LP  0  0  0  0  0  0  0  0  0  0  0  0  # atno 17371 bound_to 10713
  140.1599  134.9172  157.2702 LP  0  0  0  0  0  0  0  0  0  0  0  0  # atno 17394 bound_to 11000
  140.2623  134.3557  155.7402 LP  0  0  0  0  0  0  0  0  0  0  0  0  # atno 17395 bound_to 11000

$$$$
