AV-unprocessed.smi:86|AV-procd|sdf|816|dock1
  -GOLD-   2262017213D 1   1.00000     0.00000
 Structure written by MMmdl.
 51 55  0  0  0  0  0  0  0  0  1 V2000
  149.1128  141.3778  153.1491 O   0  0  0  0  0  0  0  0  0  0  0  0
  148.3894  140.5299  154.0183 C   0  0  0  0  0  0  0  0  0  0  0  0
  149.3188  139.8320  155.0274 C   0  0  0  0  0  0  0  0  0  0  0  0
  148.5127  138.9480  156.0025 C   0  0  0  0  0  0  0  0  0  0  0  0
  147.9744  137.7341  155.4070 N   0  0  0  0  0  0  0  0  0  0  0  0
  148.5058  136.4691  155.5062 C   0  0  0  0  0  0  0  0  0  0  0  0
  147.8412  135.5375  154.8807 N   0  0  0  0  0  0  0  0  0  0  0  0
  146.7576  136.2023  154.3158 C   0  0  0  0  0  0  0  0  0  0  0  0
  145.6433  135.8065  153.5154 C   0  0  0  0  0  0  0  0  0  0  0  0
  145.4046  134.5378  153.0914 N   0  0  0  0  0  0  0  0  0  0  0  0
  146.4651  133.5382  152.9876 C   0  0  0  0  0  0  0  0  0  0  0  0
  145.9990  132.5484  151.9089 C   0  0  2  0  0  0  0  0  0  0  0  0
  146.5794  132.9176  150.5256 C   0  0  0  0  0  0  0  0  0  0  0  0
  145.8465  132.2078  149.3800 C   0  0  0  0  0  0  0  0  0  0  0  0
  144.3497  132.5515  149.4093 C   0  0  1  0  0  0  0  0  0  0  0  0
  143.6937  131.8902  148.3483 O   0  0  0  0  0  0  0  0  0  0  0  0
  143.7175  132.1272  150.7451 C   0  0  0  0  0  0  0  0  0  0  0  0
  144.4686  132.6901  151.9678 C   0  0  2  0  0  0  0  0  0  0  0  0
  144.2676  134.1785  152.2586 C   0  0  0  0  0  0  0  0  0  0  0  0
  144.7705  136.7803  153.1447 N   0  0  0  0  0  0  0  0  0  0  0  0
  144.9569  138.0451  153.5303 C   0  0  0  0  0  0  0  0  0  0  0  0
  145.9394  138.5523  154.2747 N   0  0  0  0  0  0  0  0  0  0  0  0
  146.8279  137.5878  154.6453 C   0  0  0  0  0  0  0  0  0  0  0  0
  150.5616  139.1765  154.4092 C   0  0  0  0  0  0  0  0  0  0  0  0
  151.4016  140.2901  154.7781 O   0  0  0  0  0  0  0  0  0  0  0  0
  150.3646  140.7577  155.6657 C   0  0  0  0  0  0  0  0  0  0  0  0
  149.4886  140.8506  152.4604 H   0  0  0  0  0  0  0  0  0  0  0  0
  147.6504  141.1403  154.5385 H   0  0  0  0  0  0  0  0  0  0  0  0
  147.8206  139.8108  153.4284 H   0  0  0  0  0  0  0  0  0  0  0  0
  149.1323  138.6622  156.8533 H   0  0  0  0  0  0  0  0  0  0  0  0
  147.6788  139.5077  156.4278 H   0  0  0  0  0  0  0  0  0  0  0  0
  149.4127  136.2587  156.0542 H   0  0  0  0  0  0  0  0  0  0  0  0
  147.4324  133.9751  152.7357 H   0  0  0  0  0  0  0  0  0  0  0  0
  146.5636  133.0374  153.9512 H   0  0  0  0  0  0  0  0  0  0  0  0
  146.2986  131.5294  152.1573 H   0  0  0  0  0  0  0  0  0  0  0  0
  146.5119  133.9951  150.3686 H   0  0  0  0  0  0  0  0  0  0  0  0
  147.6418  132.6741  150.4944 H   0  0  0  0  0  0  0  0  0  0  0  0
  146.2810  132.5079  148.4256 H   0  0  0  0  0  0  0  0  0  0  0  0
  145.9888  131.1294  149.4635 H   0  0  0  0  0  0  0  0  0  0  0  0
  144.2183  133.6241  149.2634 H   0  0  0  0  0  0  0  0  0  0  0  0
  143.1824  132.5244  147.8694 H   0  0  0  0  0  0  0  0  0  0  0  0
  142.6690  132.4255  150.7819 H   0  0  0  0  0  0  0  0  0  0  0  0
  143.7257  131.0381  150.8098 H   0  0  0  0  0  0  0  0  0  0  0  0
  144.1192  132.1472  152.8477 H   0  0  0  0  0  0  0  0  0  0  0  0
  143.3212  134.3557  152.7701 H   0  0  0  0  0  0  0  0  0  0  0  0
  144.2855  134.7698  151.3426 H   0  0  0  0  0  0  0  0  0  0  0  0
  144.2128  138.7516  153.1932 H   0  0  0  0  0  0  0  0  0  0  0  0
  150.8697  138.2549  154.9058 H   0  0  0  0  0  0  0  0  0  0  0  0
  150.5016  139.0346  153.3295 H   0  0  0  0  0  0  0  0  0  0  0  0
  150.1518  141.8204  155.5442 H   0  0  0  0  0  0  0  0  0  0  0  0
  150.5964  140.5236  156.7054 H   0  0  0  0  0  0  0  0  0  0  0  0
  1  2  1  0  0  0  0
  1 27  1  0  0  0  0
  2  3  1  0  0  0  0
  2 28  1  0  0  0  0
  2 29  1  0  0  0  0
  3 26  1  0  0  0  0
  3  4  1  0  0  0  0
  3 24  1  0  0  0  0
  4  5  1  0  0  0  0
  4 30  1  0  0  0  0
  4 31  1  0  0  0  0
  5 23  1  0  0  0  0
  5  6  1  0  0  0  0
  6  7  2  0  0  0  0
  6 32  1  0  0  0  0
  7  8  1  0  0  0  0
  8 23  2  0  0  0  0
  8  9  1  0  0  0  0
  9 10  1  0  0  0  0
  9 20  2  0  0  0  0
 10 19  1  0  0  0  0
 10 11  1  0  0  0  0
 11 12  1  0  0  0  0
 11 33  1  0  0  0  0
 11 34  1  0  0  0  0
 12 18  1  0  0  0  0
 12 13  1  0  0  0  0
 12 35  1  0  0  0  0
 13 14  1  0  0  0  0
 13 36  1  0  0  0  0
 13 37  1  0  0  0  0
 14 15  1  0  0  0  0
 14 38  1  0  0  0  0
 14 39  1  0  0  0  0
 15 16  1  0  0  0  0
 15 17  1  0  0  0  0
 15 40  1  0  0  0  0
 16 41  1  0  0  0  0
 17 18  1  0  0  0  0
 17 42  1  0  0  0  0
 17 43  1  0  0  0  0
 18 19  1  0  0  0  0
 18 44  1  0  0  0  0
 19 45  1  0  0  0  0
 19 46  1  0  0  0  0
 20 21  1  0  0  0  0
 21 22  2  0  0  0  0
 21 47  1  0  0  0  0
 22 23  1  0  0  0  0
 24 25  1  0  0  0  0
 24 48  1  0  0  0  0
 24 49  1  0  0  0  0
 25 26  1  0  0  0  0
 26 50  1  0  0  0  0
 26 51  1  0  0  0  0
M  END
> <s_m_source_file>
AV-unprocessed.smi

> <i_m_source_file_index>
86

> <i_lp_mmshare_version>
43012

> <i_f3d_flags>
0

> <s_epik_input>
W0NIMl0xT1tDSDJdQzEoW0NIMl1bT0hdKVtDSDJdbihbY0hdbjIpYyhjMjMpbltjSF1uYzNOKFtDSDJdNClbQ0gyXVtDQEBIXShbQ0BIXTQ1KVtDSDJdW0NASF0oW09IXSlbQ0gyXVtDSDJdNQ==

> <s_epik_cmdline>
J2VwaWtfcHl0aG9uJywgJy1waCcsICc3LjAnLCAnLXRuJywgJzgnLCAnLW1hJywgJzIwMCcsICctbWV0YWxfYmluZGluZycsICctaW1hZScsICc8aW5maWxlLm1hZT4nLCAnLW9tYWUnLCAnPG91dGZpbGUubWFlPic=

> <r_lp_tautomer_probability>
1

> <r_epik_Ionization_Penalty>
0.00425795

> <r_epik_Ionization_Penalty_Charging>
0

> <r_epik_Ionization_Penalty_Neutral>
0.00425795

> <r_epik_State_Penalty>
0.00299946

> <r_epik_Charging_Adjusted_Penalty>
0.00299946

> <i_epik_Tot_Q>
0

> <i_epik_Tot_abs_Q>
0

> <r_epik_Metal_State_Penalty>
-0

> <b_epik_Metal_Only>
0

> <s_lp_Force_Field>
OPLS_2005

> <r_lp_Energy>
53.5956

> <b_lp_Chiralities_Consistent>
1

> <s_lp_Variant>
AV-unprocessed.smi:86-5

> <Gold.Version>
5.8.1

> <Gold.Id.Protein>
6NUR|6NUR_protein|mol2

> <Gold.PLP.Fitness>
50.2561

> <Gold.PLP.PLP>
-39.1913

> <Gold.PLP.part.hbond>
-4.7672

> <Gold.PLP.part.metal>
0.0000

> <Gold.PLP.part.buried>
-4.8313

> <Gold.PLP.part.nonpolar>
-29.5415

> <Gold.PLP.part.repulsive>
0.3827

> <Gold.PLP.ligand.clash>
0.0000

> <Gold.PLP.ligand.torsion>
0.6692

> <Gold.PLP.Chemscore.Hbond>
2.9773

> <Gold.PLP.Chemscore.CHOScore>
1.0000

> <Gold.PLP.Chemscore.Metal>
0.0000

> <Gold.Chemscore.Hbonds>
donor molecule, donor type, donor heavy atom, donor atom, acceptor molecule, acceptor atom, score
      L1  H     1    27       P1  7957  0.99
      P1  H  7989  7998       L1    25  0.71
      P1  H 10785 10796       L1    16  0.54
      L1  C    21    47       P1 10175  0.73

> <Gold.PLP.Chemscore.Internal.Correction>
0.4715

> <Gold.Rescore>
     Score         DG    S(hbond)    S(metal)    S(lipo)     H(rot)  DE(clash)    DE(int)     intcor
     15.02     -16.80       2.30        0.00      91.67       2.76       0.04       1.73       ----

> <Gold.Chemscore.Fitness>
15.0238

> <Gold.Chemscore.DG>
-16.7986

> <Gold.Chemscore.ZeroCoef>
-5.4800

> <Gold.Chemscore.Hbond>
2.2953

> <Gold.Chemscore.Metal>
0.0000

> <Gold.Chemscore.Lipo>
91.6723

> <Gold.Chemscore.Internal_Hbond>
0.0000

> <Gold.Chemscore.DEClash>
0.0449

> <Gold.Chemscore.DEInternal>
1.7298

> <Gold.Chemscore.Rot>
2.7630

> <Gold.Chemscore.Internal.Correction>
   9.000000E+99

> <Gold.Chemscore.Hbonds>
donor molecule, donor type, donor heavy atom, donor atom, acceptor molecule, acceptor atom, score
      L1  H     1    27       P1  7957  0.92
      P1  H  7989  7998       L1    25  0.21
      P1  H 10785 10796       L1    16  0.49

> <Gold.Chemscore.Hbond.Weighted>
-7.6663

> <Gold.Chemscore.Metal.Weighted>
-0.0000

> <Gold.Chemscore.Lipo.Weighted>
-10.7257

> <Gold.Chemscore.Internal_Hbond.Weighted>
0.0000

> <Gold.Chemscore.DEClash.Weighted>
0.0449

> <Gold.Chemscore.DEInternal.Weighted>
1.7298

> <Gold.Chemscore.Rot.Weighted>
7.0734

> <Gold.Chemscore.Internal.Correction.Weighted>
   9.000000E+99

> <Gold.Protein.RotatedTorsions>
[ 6907 6896 6895 6894 ] final -121.49 input  -60.11 | X-H torsion
[ 7974 7965 7964 7962 ] final   14.69 input  175.53 | X-H torsion
[ 8008 7997 7996 7995 ] final   17.17 input   59.86 | X-H torsion
[ 10167 10162 10161 10158 ] final  143.67 input  -65.29 | X-H torsion
[ 10718 10713 10712 10709 ] final   34.97 input   66.30 | X-H torsion
[ 10763 10752 10751 10750 ] final  172.84 input  -60.55 | X-H torsion
[ 11005 11000 10999 10996 ] final -170.59 input  -57.11 | X-H torsion

> <Gold.Protein.ActiveResidues>
 VAL166  LYS551  ARG553  GLY616  TRP617  ASP618  TYR619  PRO620  LYS621  CYS622 
 ASP623  PHE694  ASN695  SER759  ASP760  ASP761  ALA762  ILE779  LEU786  VAL792 
 PHE793  MET794  SER795  GLU796  ALA797  LYS798  CYS799  TRP800  GLU811  SER814 

> <Gold.Protein.RotatedAtoms>
  150.8488  133.7819  159.3032 H   0  0  0  0  0  0  0  0  0  0  0  0  # atno 6907 bound_to 6896
  151.5498  135.1066  159.9956 H   0  0  0  0  0  0  0  0  0  0  0  0  # atno 6908 bound_to 6896
  152.4535  133.7634  159.6815 H   0  0  0  0  0  0  0  0  0  0  0  0  # atno 6909 bound_to 6896
  146.2298  139.9005  142.8540 H   0  0  0  0  0  0  0  0  0  0  0  0  # atno 7974 bound_to 7965
  154.8876  140.2982  155.5389 H   0  0  0  0  0  0  0  0  0  0  0  0  # atno 8008 bound_to 7997
  156.3021  140.2430  156.3821 H   0  0  0  0  0  0  0  0  0  0  0  0  # atno 8009 bound_to 7997
  154.8652  140.0403  157.1679 H   0  0  0  0  0  0  0  0  0  0  0  0  # atno 8010 bound_to 7997
  139.4964  144.6024  151.6452 H   0  0  0  0  0  0  0  0  0  0  0  0  # atno 10167 bound_to 10162
  157.3169  130.7428  149.6760 H   0  0  0  0  0  0  0  0  0  0  0  0  # atno 10718 bound_to 10713
  154.4317  135.2760  155.1908 H   0  0  0  0  0  0  0  0  0  0  0  0  # atno 10763 bound_to 10752
  154.3811  135.6087  153.5795 H   0  0  0  0  0  0  0  0  0  0  0  0  # atno 10764 bound_to 10752
  152.9836  135.5880  154.4629 H   0  0  0  0  0  0  0  0  0  0  0  0  # atno 10765 bound_to 10752
  140.5178  134.5739  157.5038 H   0  0  0  0  0  0  0  0  0  0  0  0  # atno 11005 bound_to 11000
  145.2328  140.9979  143.3980 LP  0  0  0  0  0  0  0  0  0  0  0  0  # atno 17320 bound_to 7965
  144.9516  139.4077  143.6400 LP  0  0  0  0  0  0  0  0  0  0  0  0  # atno 17321 bound_to 7965
  140.5677  144.0161  150.6201 LP  0  0  0  0  0  0  0  0  0  0  0  0  # atno 17342 bound_to 10162
  140.3269  143.3102  152.0727 LP  0  0  0  0  0  0  0  0  0  0  0  0  # atno 17343 bound_to 10162
  155.9682  130.4234  150.4563 LP  0  0  0  0  0  0  0  0  0  0  0  0  # atno 17370 bound_to 10713
  157.2571  131.0559  151.2343 LP  0  0  0  0  0  0  0  0  0  0  0  0  # atno 17371 bound_to 10713
  139.9623  134.7432  156.0211 LP  0  0  0  0  0  0  0  0  0  0  0  0  # atno 17394 bound_to 11000
  141.1351  133.6577  156.3571 LP  0  0  0  0  0  0  0  0  0  0  0  0  # atno 17395 bound_to 11000

$$$$
