AV-unprocessed.smi:1196|AV-procd|sdf|5004|dock6
  -GOLD-   22720 4 13D 1   1.00000     0.00000
 Structure written by MMmdl.
 36 37  0  0  0  0  0  0  0  0  2 V2000
  147.7812  132.1313  152.9238 C   0  0  0  0  0  0  0  0  0  0  0  0
  147.1779  133.5324  153.0909 C   0  0  2  0  0  0  0  0  0  0  0  0
  146.5681  134.0463  151.7692 C   0  0  0  0  0  0  0  0  0  0  0  0
  145.4886  133.2016  151.2866 N   0  0  0  0  0  0  0  0  0  0  0  0
  145.5526  131.8952  150.8503 C   0  0  0  0  0  0  0  0  0  0  0  0
  144.2833  131.5139  150.5220 C   0  0  0  0  0  0  0  0  0  0  0  0
  143.5015  132.6718  150.7919 C   0  0  0  0  0  0  0  0  0  0  0  0
  144.2268  133.6824  151.2431 N   0  0  0  0  0  0  0  0  0  0  0  0
  148.2135  134.4466  153.5716 N   0  0  0  0  0  0  0  0  0  0  0  0
  148.9025  134.3141  154.7165 C   0  0  0  0  0  0  0  0  0  0  0  0
  148.7860  133.3485  155.4716 O   0  0  0  0  0  0  0  0  0  0  0  0
  149.8540  135.4566  155.0744 C   0  0  0  0  0  0  0  0  0  0  0  0
  149.1177  136.8059  155.1664 C   0  0  0  0  0  0  0  0  0  0  0  0
  150.0157  137.9479  155.6802 C   0  0  2  0  0  0  0  0  0  0  0  0
  149.3151  139.2138  155.6589 N   0  0  0  0  0  0  0  0  0  0  0  0
  149.9518  140.1085  154.9061 C   0  0  0  0  0  0  0  0  0  0  0  0
  149.5313  141.2553  154.7701 O   0  0  0  0  0  0  0  0  0  0  0  0
  151.0542  139.5573  154.3622 N   0  5  0  0  0  0  0  0  0  0  0  0
  151.1848  138.2701  154.7499 C   0  0  0  0  0  0  0  0  0  0  0  0
  152.0475  137.4389  154.4711 O   0  0  0  0  0  0  0  0  0  0  0  0
  147.0263  131.4168  152.5948 H   0  0  0  0  0  0  0  0  0  0  0  0
  148.1910  131.7651  153.8657 H   0  0  0  0  0  0  0  0  0  0  0  0
  148.5847  132.1291  152.1864 H   0  0  0  0  0  0  0  0  0  0  0  0
  146.3796  133.4511  153.8309 H   0  0  0  0  0  0  0  0  0  0  0  0
  146.1995  135.0668  151.8879 H   0  0  0  0  0  0  0  0  0  0  0  0
  147.3344  134.0821  150.9940 H   0  0  0  0  0  0  0  0  0  0  0  0
  146.4844  131.3499  150.8185 H   0  0  0  0  0  0  0  0  0  0  0  0
  143.9614  130.5529  150.1494 H   0  0  0  0  0  0  0  0  0  0  0  0
  142.4366  132.8073  150.6733 H   0  0  0  0  0  0  0  0  0  0  0  0
  148.3775  135.2761  153.0198 H   0  0  0  0  0  0  0  0  0  0  0  0
  150.3326  135.2214  156.0252 H   0  0  0  0  0  0  0  0  0  0  0  0
  150.6496  135.5217  154.3305 H   0  0  0  0  0  0  0  0  0  0  0  0
  148.7453  137.0698  154.1749 H   0  0  0  0  0  0  0  0  0  0  0  0
  148.2370  136.7108  155.8043 H   0  0  0  0  0  0  0  0  0  0  0  0
  150.3911  137.7401  156.6830 H   0  0  0  0  0  0  0  0  0  0  0  0
  148.4631  139.3895  156.1705 H   0  0  0  0  0  0  0  0  0  0  0  0
  1  2  1  0  0  0  0
  1 21  1  0  0  0  0
  1 22  1  0  0  0  0
  1 23  1  0  0  0  0
  2  3  1  0  0  0  0
  2  9  1  0  0  0  0
  2 24  1  0  0  0  0
  3  4  1  0  0  0  0
  3 25  1  0  0  0  0
  3 26  1  0  0  0  0
  4  8  1  0  0  0  0
  4  5  1  0  0  0  0
  5  6  2  0  0  0  0
  5 27  1  0  0  0  0
  6  7  1  0  0  0  0
  6 28  1  0  0  0  0
  7  8  2  0  0  0  0
  7 29  1  0  0  0  0
  9 10  1  0  0  0  0
  9 30  1  0  0  0  0
 10 11  2  0  0  0  0
 10 12  1  0  0  0  0
 12 13  1  0  0  0  0
 12 31  1  0  0  0  0
 12 32  1  0  0  0  0
 13 14  1  0  0  0  0
 13 33  1  0  0  0  0
 13 34  1  0  0  0  0
 14 19  1  0  0  0  0
 14 15  1  0  0  0  0
 14 35  1  0  0  0  0
 15 16  1  0  0  0  0
 15 36  1  0  0  0  0
 16 17  2  0  0  0  0
 16 18  1  0  0  0  0
 18 19  1  0  0  0  0
 19 20  2  0  0  0  0
M  CHG  1  18  -1
M  END
> <s_m_source_file>
AV-unprocessed.smi

> <i_m_source_file_index>
1196

> <i_lp_mmshare_version>
43012

> <i_f3d_flags>
0

> <s_epik_input>
bjFbY0hdW2NIXVtjSF1uMVtDSDJdW0NAQEhdKFtDSDNdKVtOSF1DKD1PKVtDSDJdW0NIMl1bQ0BASF0yW05IXUMoPU8pW05IXUMyPU8=

> <s_epik_cmdline>
J2VwaWtfcHl0aG9uJywgJy1waCcsICc3LjAnLCAnLXRuJywgJzgnLCAnLW1hJywgJzIwMCcsICctbWV0YWxfYmluZGluZycsICctaW1hZScsICc8aW5maWxlLm1hZT4nLCAnLW9tYWUnLCAnPG91dGZpbGUubWFlPic=

> <r_lp_tautomer_probability>
1

> <r_epik_Ionization_Penalty>
2.57056

> <r_epik_Ionization_Penalty_Charging>
2.57023

> <r_epik_Ionization_Penalty_Neutral>
0.000331301

> <r_epik_State_Penalty>
2.56828

> <r_epik_Charging_Adjusted_Penalty>
5.13851

> <i_epik_Tot_Q>
-1

> <i_epik_Tot_abs_Q>
1

> <r_epik_Metal_State_Penalty>
0.444883

> <b_epik_Metal_Only>
1

> <s_lp_Force_Field>
OPLS_2005

> <r_lp_Energy>
6.89561

> <b_lp_Chiralities_Consistent>
1

> <s_lp_Variant>
AV-unprocessed.smi:1196-9

> <Gold.Version>
5.8.1

> <Gold.Id.Protein>
6NUR|6NUR_protein|mol2

> <Gold.PLP.Fitness>
44.9006

> <Gold.PLP.PLP>
-30.3564

> <Gold.PLP.part.hbond>
-3.3246

> <Gold.PLP.part.metal>
0.0000

> <Gold.PLP.part.buried>
-3.2709

> <Gold.PLP.part.nonpolar>
-24.2831

> <Gold.PLP.part.repulsive>
0.5724

> <Gold.PLP.ligand.clash>
0.0000

> <Gold.PLP.ligand.torsion>
0.0630

> <Gold.PLP.Chemscore.Hbond>
2.8800

> <Gold.PLP.Chemscore.CHOScore>
1.9897

> <Gold.PLP.Chemscore.Metal>
0.0000

> <Gold.Chemscore.Hbonds>
donor molecule, donor type, donor heavy atom, donor atom, acceptor molecule, acceptor atom, score
      L1  H     9    30       P1  7948  1.00
      P1  H  7989  7998       L1    18  1.00
      P1  H 10752 10765       L1    20  0.86
      L1  C     5    27       P1 10747  0.84
      L1  C     7    29       P1 10186  1.00

> <Gold.PLP.Chemscore.Internal.Correction>
0.0610

> <Gold.Rescore>
     Score         DG    S(hbond)    S(metal)    S(lipo)     H(rot)  DE(clash)    DE(int)     intcor
     12.09     -13.22       2.66        0.00      53.47       2.89       0.09       1.04       ----

> <Gold.Chemscore.Fitness>
12.0880

> <Gold.Chemscore.DG>
-13.2152

> <Gold.Chemscore.ZeroCoef>
-5.4800

> <Gold.Chemscore.Hbond>
2.6615

> <Gold.Chemscore.Metal>
0.0000

> <Gold.Chemscore.Lipo>
53.4694

> <Gold.Chemscore.Internal_Hbond>
0.0000

> <Gold.Chemscore.DEClash>
0.0900

> <Gold.Chemscore.DEInternal>
1.0373

> <Gold.Chemscore.Rot>
2.8946

> <Gold.Chemscore.Internal.Correction>
   9.000000E+99

> <Gold.Chemscore.Hbonds>
donor molecule, donor type, donor heavy atom, donor atom, acceptor molecule, acceptor atom, score
      L1  H     9    30       P1  7948  0.93
      P1  H  7989  7998       L1    18  0.30
      P1  H 10752 10765       L1    20  0.84

> <Gold.Chemscore.Hbond.Weighted>
-8.8894

> <Gold.Chemscore.Metal.Weighted>
-0.0000

> <Gold.Chemscore.Lipo.Weighted>
-6.2559

> <Gold.Chemscore.Internal_Hbond.Weighted>
0.0000

> <Gold.Chemscore.DEClash.Weighted>
0.0900

> <Gold.Chemscore.DEInternal.Weighted>
1.0373

> <Gold.Chemscore.Rot.Weighted>
7.4101

> <Gold.Chemscore.Internal.Correction.Weighted>
   9.000000E+99

> <Gold.Protein.RotatedTorsions>
[ 6907 6896 6895 6894 ] final -163.74 input  -60.11 | X-H torsion
[ 7974 7965 7964 7962 ] final  114.00 input  175.53 | X-H torsion
[ 8008 7997 7996 7995 ] final   55.95 input   59.86 | X-H torsion
[ 10167 10162 10161 10158 ] final  152.28 input  -65.29 | X-H torsion
[ 10718 10713 10712 10709 ] final    4.79 input   66.30 | X-H torsion
[ 10763 10752 10751 10750 ] final  163.92 input  -60.55 | X-H torsion
[ 11005 11000 10999 10996 ] final -111.53 input  -57.11 | X-H torsion

> <Gold.Protein.ActiveResidues>
 VAL166  LYS551  ARG553  GLY616  TRP617  ASP618  TYR619  PRO620  LYS621  CYS622 
 ASP623  PHE694  ASN695  SER759  ASP760  ASP761  ALA762  ILE779  LEU786  VAL792 
 PHE793  MET794  SER795  GLU796  ALA797  LYS798  CYS799  TRP800  GLU811  SER814 

> <Gold.Protein.RotatedAtoms>
  151.4008  133.3758  159.2731 H   0  0  0  0  0  0  0  0  0  0  0  0  # atno 6907 bound_to 6896
  150.9435  134.8843  159.7637 H   0  0  0  0  0  0  0  0  0  0  0  0  # atno 6908 bound_to 6896
  152.5081  134.3960  159.9452 H   0  0  0  0  0  0  0  0  0  0  0  0  # atno 6909 bound_to 6896
  145.2099  139.2911  143.4273 H   0  0  0  0  0  0  0  0  0  0  0  0  # atno 7974 bound_to 7965
  155.5094  140.3476  155.4385 H   0  0  0  0  0  0  0  0  0  0  0  0  # atno 8008 bound_to 7997
  156.0860  140.1398  156.9680 H   0  0  0  0  0  0  0  0  0  0  0  0  # atno 8009 bound_to 7997
  154.4607  140.0936  156.6860 H   0  0  0  0  0  0  0  0  0  0  0  0  # atno 8010 bound_to 7997
  139.4834  144.5371  151.7627 H   0  0  0  0  0  0  0  0  0  0  0  0  # atno 10167 bound_to 10162
  156.8979  130.5711  149.5648 H   0  0  0  0  0  0  0  0  0  0  0  0  # atno 10718 bound_to 10713
  154.3011  135.2759  155.2610 H   0  0  0  0  0  0  0  0  0  0  0  0  # atno 10763 bound_to 10752
  154.5047  135.5799  153.6561 H   0  0  0  0  0  0  0  0  0  0  0  0  # atno 10764 bound_to 10752
  152.9900  135.6166  154.3182 H   0  0  0  0  0  0  0  0  0  0  0  0  # atno 10765 bound_to 10752
  141.0729  133.9350  157.2449 H   0  0  0  0  0  0  0  0  0  0  0  0  # atno 11005 bound_to 11000
  146.3400  140.2372  142.8594 LP  0  0  0  0  0  0  0  0  0  0  0  0  # atno 17320 bound_to 7965
  144.9865  140.8508  143.5365 LP  0  0  0  0  0  0  0  0  0  0  0  0  # atno 17321 bound_to 7965
  140.4905  144.1317  150.5949 LP  0  0  0  0  0  0  0  0  0  0  0  0  # atno 17342 bound_to 10162
  140.4176  143.2627  151.9755 LP  0  0  0  0  0  0  0  0  0  0  0  0  # atno 17343 bound_to 10162
  156.0596  130.5651  150.9165 LP  0  0  0  0  0  0  0  0  0  0  0  0  # atno 17370 bound_to 10713
  157.6044  131.0939  150.8905 LP  0  0  0  0  0  0  0  0  0  0  0  0  # atno 17371 bound_to 10713
  139.9541  135.0169  156.9079 LP  0  0  0  0  0  0  0  0  0  0  0  0  # atno 17394 bound_to 11000
  140.5636  134.0511  155.7407 LP  0  0  0  0  0  0  0  0  0  0  0  0  # atno 17395 bound_to 11000

$$$$
