AV-unprocessed.smi:2568|AV-procd|sdf|10096|dock10
  -GOLD-   2272014113D 1   1.00000     0.00000
 Structure written by MMmdl.
 24 25  0  0  0  0  0  0  0  0  1 V2000
  153.1465  137.8435  156.3135 C   0  0  0  0  0  0  0  0  0  0  0  0
  152.0186  138.1063  155.3747 C   0  0  0  0  0  0  0  0  0  0  0  0
  151.5954  137.1742  154.5226 N   0  0  0  0  0  0  0  0  0  0  0  0
  150.5911  137.8129  153.8861 N   0  0  0  0  0  0  0  0  0  0  0  0
  150.4689  139.0482  154.3771 C   0  0  0  0  0  0  0  0  0  0  0  0
  149.4425  140.0073  153.8619 C   0  0  2  0  0  0  0  0  0  0  0  0
  149.4618  141.3509  154.6169 C   0  0  0  0  0  0  0  0  0  0  0  0
  148.3888  142.2177  154.1328 N   0  0  0  0  0  0  0  0  0  0  0  0
  147.0901  141.5526  154.2278 C   0  0  0  0  0  0  0  0  0  0  0  0
  147.1254  140.1999  153.4934 C   0  0  0  0  0  0  0  0  0  0  0  0
  148.1680  139.3917  154.0287 O   0  0  0  0  0  0  0  0  0  0  0  0
  151.3581  139.3023  155.3333 N   0  0  0  0  0  0  0  0  0  0  0  0
  150.0390  137.3849  153.1566 H   0  0  0  0  0  0  0  0  0  0  0  0
  153.6665  136.9219  156.0495 H   0  0  0  0  0  0  0  0  0  0  0  0
  152.7723  137.7495  157.3329 H   0  0  0  0  0  0  0  0  0  0  0  0
  153.8638  138.6639  156.2817 H   0  0  0  0  0  0  0  0  0  0  0  0
  149.6278  140.1718  152.7984 H   0  0  0  0  0  0  0  0  0  0  0  0
  149.3395  141.1753  155.6864 H   0  0  0  0  0  0  0  0  0  0  0  0
  150.4268  141.8417  154.4871 H   0  0  0  0  0  0  0  0  0  0  0  0
  148.3722  143.0745  154.6768 H   0  0  0  0  0  0  0  0  0  0  0  0
  146.8308  141.3928  155.2750 H   0  0  0  0  0  0  0  0  0  0  0  0
  146.3119  142.1891  153.8060 H   0  0  0  0  0  0  0  0  0  0  0  0
  146.1759  139.6799  153.6209 H   0  0  0  0  0  0  0  0  0  0  0  0
  147.2693  140.3403  152.4208 H   0  0  0  0  0  0  0  0  0  0  0  0
  1  2  1  0  0  0  0
  1 14  1  0  0  0  0
  1 15  1  0  0  0  0
  1 16  1  0  0  0  0
  2 12  1  0  0  0  0
  2  3  2  0  0  0  0
  3  4  1  0  0  0  0
  4 13  1  0  0  0  0
  4  5  1  0  0  0  0
  5  6  1  0  0  0  0
  5 12  2  0  0  0  0
  6 11  1  0  0  0  0
  6  7  1  0  0  0  0
  6 17  1  0  0  0  0
  7  8  1  0  0  0  0
  7 18  1  0  0  0  0
  7 19  1  0  0  0  0
  8  9  1  0  0  0  0
  8 20  1  0  0  0  0
  9 10  1  0  0  0  0
  9 21  1  0  0  0  0
  9 22  1  0  0  0  0
 10 11  1  0  0  0  0
 10 23  1  0  0  0  0
 10 24  1  0  0  0  0
M  END
> <s_m_source_file>
AV-unprocessed.smi

> <i_m_source_file_index>
2568

> <i_lp_mmshare_version>
43012

> <i_f3d_flags>
0

> <s_epik_input>
W0NIM11jMW5bbkhdYyhuMSlbQ0BASF0yW0NIMl1bTkhdW0NIMl1bQ0gyXU8y

> <s_epik_cmdline>
J2VwaWtfcHl0aG9uJywgJy1waCcsICc3LjAnLCAnLXRuJywgJzgnLCAnLW1hJywgJzIwMCcsICctbWV0YWxfYmluZGluZycsICctaW1hZScsICc8aW5maWxlLm1hZT4nLCAnLW9tYWUnLCAnPG91dGZpbGUubWFlPic=

> <r_lp_tautomer_probability>
0.948284

> <r_epik_Ionization_Penalty>
0.982563

> <r_epik_Ionization_Penalty_Charging>
0

> <r_epik_Ionization_Penalty_Neutral>
0.982563

> <r_epik_State_Penalty>
2.21233

> <r_epik_Charging_Adjusted_Penalty>
2.21233

> <i_epik_Tot_Q>
0

> <i_epik_Tot_abs_Q>
0

> <r_epik_Metal_State_Penalty>
2.51138

> <b_epik_Metal_Only>
0

> <s_lp_Force_Field>
OPLS_2005

> <r_lp_Energy>
12.795

> <b_lp_Chiralities_Consistent>
1

> <s_lp_Variant>
AV-unprocessed.smi:2568-9

> <Gold.Version>
5.8.1

> <Gold.Id.Protein>
6NUR|6NUR_protein|mol2

> <Gold.PLP.Fitness>
29.8581

> <Gold.PLP.PLP>
-21.0088

> <Gold.PLP.part.hbond>
-4.9019

> <Gold.PLP.part.metal>
0.0000

> <Gold.PLP.part.buried>
0.5613

> <Gold.PLP.part.nonpolar>
-17.3355

> <Gold.PLP.part.repulsive>
0.4220

> <Gold.PLP.ligand.clash>
0.0000

> <Gold.PLP.ligand.torsion>
0.0129

> <Gold.PLP.Chemscore.Hbond>
2.9581

> <Gold.PLP.Chemscore.CHOScore>
0.0000

> <Gold.PLP.Chemscore.Metal>
0.0000

> <Gold.Chemscore.Hbonds>
donor molecule, donor type, donor heavy atom, donor atom, acceptor molecule, acceptor atom, score
      L1  H     4    13       P1  7948  0.95
      L1  H     8    20       P1  8028  1.00
      P1  H  8011  8017       L1     8  0.02
      P1  H 10752 10765       L1     3  0.98

> <Gold.PLP.Chemscore.Internal.Correction>
0.0008

> <Gold.Rescore>
     Score         DG    S(hbond)    S(metal)    S(lipo)     H(rot)  DE(clash)    DE(int)     intcor
     12.87     -14.13       2.17        0.00      33.77       1.00       1.23       0.03       ----

> <Gold.Chemscore.Fitness>
12.8693

> <Gold.Chemscore.DG>
-14.1297

> <Gold.Chemscore.ZeroCoef>
-5.4800

> <Gold.Chemscore.Hbond>
2.1734

> <Gold.Chemscore.Metal>
0.0000

> <Gold.Chemscore.Lipo>
33.7665

> <Gold.Chemscore.Internal_Hbond>
0.0000

> <Gold.Chemscore.DEClash>
1.2326

> <Gold.Chemscore.DEInternal>
0.0278

> <Gold.Chemscore.Rot>
1.0000

> <Gold.Chemscore.Internal.Correction>
   9.000000E+99

> <Gold.Chemscore.Hbonds>
donor molecule, donor type, donor heavy atom, donor atom, acceptor molecule, acceptor atom, score
      L1  H     4    13       P1  7948  0.21
      L1  H     8    20       P1  8028  0.99
      P1  H 10752 10765       L1     3  0.78

> <Gold.Chemscore.Hbond.Weighted>
-7.2590

> <Gold.Chemscore.Metal.Weighted>
-0.0000

> <Gold.Chemscore.Lipo.Weighted>
-3.9507

> <Gold.Chemscore.Internal_Hbond.Weighted>
0.0000

> <Gold.Chemscore.DEClash.Weighted>
1.2326

> <Gold.Chemscore.DEInternal.Weighted>
0.0278

> <Gold.Chemscore.Rot.Weighted>
2.5600

> <Gold.Chemscore.Internal.Correction.Weighted>
   9.000000E+99

> <Gold.Protein.RotatedTorsions>
[ 6907 6896 6895 6894 ] final   11.80 input  -60.11 | X-H torsion
[ 7974 7965 7964 7962 ] final -163.72 input  175.53 | X-H torsion
[ 8008 7997 7996 7995 ] final   -7.74 input   59.86 | X-H torsion
[ 10167 10162 10161 10158 ] final  112.27 input  -65.29 | X-H torsion
[ 10718 10713 10712 10709 ] final   55.48 input   66.30 | X-H torsion
[ 10763 10752 10751 10750 ] final  159.03 input  -60.55 | X-H torsion
[ 11005 11000 10999 10996 ] final   72.90 input  -57.11 | X-H torsion

> <Gold.Protein.ActiveResidues>
 VAL166  LYS551  ARG553  GLY616  TRP617  ASP618  TYR619  PRO620  LYS621  CYS622 
 ASP623  PHE694  ASN695  SER759  ASP760  ASP761  ALA762  ILE779  LEU786  VAL792 
 PHE793  MET794  SER795  GLU796  ALA797  LYS798  CYS799  TRP800  GLU811  SER814 

> <Gold.Protein.RotatedAtoms>
  151.7601  135.0812  160.0343 H   0  0  0  0  0  0  0  0  0  0  0  0  # atno 6907 bound_to 6896
  152.3359  133.6006  159.5850 H   0  0  0  0  0  0  0  0  0  0  0  0  # atno 6908 bound_to 6896
  150.7450  133.9713  159.3588 H   0  0  0  0  0  0  0  0  0  0  0  0  # atno 6909 bound_to 6896
  144.7317  140.3065  143.6195 H   0  0  0  0  0  0  0  0  0  0  0  0  # atno 7974 bound_to 7965
  154.5809  140.2399  155.8055 H   0  0  0  0  0  0  0  0  0  0  0  0  # atno 8008 bound_to 7997
  156.2178  140.3007  155.9837 H   0  0  0  0  0  0  0  0  0  0  0  0  # atno 8009 bound_to 7997
  155.2543  140.0412  157.2981 H   0  0  0  0  0  0  0  0  0  0  0  0  # atno 8010 bound_to 7997
  139.6548  144.7129  151.1978 H   0  0  0  0  0  0  0  0  0  0  0  0  # atno 10167 bound_to 10162
  157.5348  130.8656  149.8738 H   0  0  0  0  0  0  0  0  0  0  0  0  # atno 10718 bound_to 10713
  154.2254  135.2780  155.2909 H   0  0  0  0  0  0  0  0  0  0  0  0  # atno 10763 bound_to 10752
  154.5667  135.5630  153.7061 H   0  0  0  0  0  0  0  0  0  0  0  0  # atno 10764 bound_to 10752
  153.0032  135.6311  154.2395 H   0  0  0  0  0  0  0  0  0  0  0  0  # atno 10765 bound_to 10752
  139.9467  134.7300  156.0962 H   0  0  0  0  0  0  0  0  0  0  0  0  # atno 11005 bound_to 11000
  145.7707  139.1856  143.2214 LP  0  0  0  0  0  0  0  0  0  0  0  0  # atno 17320 bound_to 7965
  146.0913  140.7653  142.9594 LP  0  0  0  0  0  0  0  0  0  0  0  0  # atno 17321 bound_to 7965
  140.7554  143.6090  150.8624 LP  0  0  0  0  0  0  0  0  0  0  0  0  # atno 17342 bound_to 10162
  139.9742  143.6023  152.2964 LP  0  0  0  0  0  0  0  0  0  0  0  0  # atno 17343 bound_to 10162
  156.0450  130.3730  150.1340 LP  0  0  0  0  0  0  0  0  0  0  0  0  # atno 17370 bound_to 10713
  156.9523  130.9778  151.3496 LP  0  0  0  0  0  0  0  0  0  0  0  0  # atno 17371 bound_to 10713
  141.1119  133.6640  156.3000 LP  0  0  0  0  0  0  0  0  0  0  0  0  # atno 17394 bound_to 11000
  140.5818  134.5738  157.5481 LP  0  0  0  0  0  0  0  0  0  0  0  0  # atno 17395 bound_to 11000

$$$$
