AV-unprocessed.smi:34|AV-procd|sdf|217|dock5
  -GOLD-   2262015533D 1   1.00000     0.00000
 Structure written by MMmdl.
 55 59  0  0  0  0  0  0  0  0  1 V2000
  153.1377  139.8485  158.5185 O   0  0  0  0  0  0  0  0  0  0  0  0
  152.3079  140.6696  158.1269 C   0  0  0  0  0  0  0  0  0  0  0  0
  151.5398  140.4712  156.9100 N   0  0  0  0  0  0  0  0  0  0  0  0
  151.5421  139.3970  156.0857 C   0  0  0  0  0  0  0  0  0  0  0  0
  151.8784  139.4861  154.7719 N   0  0  0  0  0  0  0  0  0  0  0  0
  151.8620  138.3973  153.9980 C   0  0  0  0  0  0  0  0  0  0  0  0
  151.5445  137.1445  154.3297 N   0  0  0  0  0  0  0  0  0  0  0  0
  151.2076  137.0442  155.6472 C   0  0  0  0  0  0  0  0  0  0  0  0
  151.1838  138.1165  156.5824 C   0  0  0  0  0  0  0  0  0  0  0  0
  150.7966  137.6442  157.8294 N   0  0  0  0  0  0  0  0  0  0  0  0
  150.6049  136.3667  157.6373 C   0  0  0  0  0  0  0  0  0  0  0  0
  150.8220  135.9217  156.3519 N   0  0  0  0  0  0  0  0  0  0  0  0
  150.6817  134.5235  155.8430 C   0  0  2  0  0  0  0  0  0  0  0  0
  149.9040  134.5542  154.6827 O   0  0  0  0  0  0  0  0  0  0  0  0
  148.9707  133.4708  154.6772 C   0  0  2  0  0  0  0  0  0  0  0  0
  147.5420  134.0304  154.7318 C   0  0  0  0  0  0  0  0  0  0  0  0
  147.0101  134.1004  153.4187 O   0  0  0  0  0  0  0  0  0  0  0  0
  146.8339  132.9724  152.7024 C   0  0  0  0  0  0  0  0  0  0  0  0
  147.4357  131.9204  152.9274 O   0  0  0  0  0  0  0  0  0  0  0  0
  145.8352  133.1306  151.6058 C   0  0  0  0  0  0  0  0  0  0  0  0
  145.4629  132.0013  150.8396 C   0  0  0  0  0  0  0  0  0  0  0  0
  144.5239  132.1201  149.7962 C   0  0  0  0  0  0  0  0  0  0  0  0
  143.9463  133.3698  149.5060 C   0  0  0  0  0  0  0  0  0  0  0  0
  144.3086  134.5008  150.2606 C   0  0  0  0  0  0  0  0  0  0  0  0
  145.2472  134.3840  151.3046 C   0  0  0  0  0  0  0  0  0  0  0  0
  149.3317  132.6154  155.8954 C   0  0  1  0  0  0  0  0  0  0  0  0
  150.2411  131.7177  155.5049 F   0  0  0  0  0  0  0  0  0  0  0  0
  149.9462  133.6320  156.8427 C   0  0  1  0  0  0  0  0  0  0  0  0
  150.7975  132.9955  157.7745 O   0  0  0  0  0  0  0  0  0  0  0  0
  152.0921  141.9734  158.8394 C   0  0  0  0  0  0  0  0  0  0  0  0
  151.1298  142.8901  158.3589 C   0  0  0  0  0  0  0  0  0  0  0  0
  150.9330  144.1240  159.0087 C   0  0  0  0  0  0  0  0  0  0  0  0
  151.7008  144.4549  160.1411 C   0  0  0  0  0  0  0  0  0  0  0  0
  152.6690  143.5526  160.6205 C   0  0  0  0  0  0  0  0  0  0  0  0
  152.8676  142.3187  159.9708 C   0  0  0  0  0  0  0  0  0  0  0  0
  150.9150  141.2222  156.6553 H   0  0  0  0  0  0  0  0  0  0  0  0
  152.1419  138.5519  152.9664 H   0  0  0  0  0  0  0  0  0  0  0  0
  150.2929  135.7087  158.4353 H   0  0  0  0  0  0  0  0  0  0  0  0
  151.6918  134.1836  155.6092 H   0  0  0  0  0  0  0  0  0  0  0  0
  149.0968  132.9074  153.7514 H   0  0  0  0  0  0  0  0  0  0  0  0
  146.9063  133.4058  155.3597 H   0  0  0  0  0  0  0  0  0  0  0  0
  147.5522  135.0317  155.1642 H   0  0  0  0  0  0  0  0  0  0  0  0
  145.8933  131.0315  151.0436 H   0  0  0  0  0  0  0  0  0  0  0  0
  144.2474  131.2508  149.2180 H   0  0  0  0  0  0  0  0  0  0  0  0
  143.2264  133.4606  148.7060 H   0  0  0  0  0  0  0  0  0  0  0  0
  143.8664  135.4609  150.0386 H   0  0  0  0  0  0  0  0  0  0  0  0
  145.5032  135.2723  151.8634 H   0  0  0  0  0  0  0  0  0  0  0  0
  148.4894  132.0689  156.3213 H   0  0  0  0  0  0  0  0  0  0  0  0
  149.1657  134.1966  157.3538 H   0  0  0  0  0  0  0  0  0  0  0  0
  150.8710  132.0833  157.5380 H   0  0  0  0  0  0  0  0  0  0  0  0
  150.5327  142.6518  157.4902 H   0  0  0  0  0  0  0  0  0  0  0  0
  150.1928  144.8171  158.6372 H   0  0  0  0  0  0  0  0  0  0  0  0
  151.5498  145.4012  160.6394 H   0  0  0  0  0  0  0  0  0  0  0  0
  153.2630  143.8089  161.4855 H   0  0  0  0  0  0  0  0  0  0  0  0
  153.6232  141.6460  160.3497 H   0  0  0  0  0  0  0  0  0  0  0  0
  1  2  2  0  0  0  0
  2  3  1  0  0  0  0
  2 30  1  0  0  0  0
  3  4  1  0  0  0  0
  3 36  1  0  0  0  0
  4  9  1  0  0  0  0
  4  5  2  0  0  0  0
  5  6  1  0  0  0  0
  6  7  2  0  0  0  0
  6 37  1  0  0  0  0
  7  8  1  0  0  0  0
  8 12  1  0  0  0  0
  8  9  2  0  0  0  0
  9 10  1  0  0  0  0
 10 11  2  0  0  0  0
 11 12  1  0  0  0  0
 11 38  1  0  0  0  0
 12 13  1  0  0  0  0
 13 28  1  0  0  0  0
 13 14  1  0  0  0  0
 13 39  1  0  0  0  0
 14 15  1  0  0  0  0
 15 16  1  0  0  0  0
 15 26  1  0  0  0  0
 15 40  1  0  0  0  0
 16 17  1  0  0  0  0
 16 41  1  0  0  0  0
 16 42  1  0  0  0  0
 17 18  1  0  0  0  0
 18 19  2  0  0  0  0
 18 20  1  0  0  0  0
 20 25  1  0  0  0  0
 20 21  2  0  0  0  0
 21 22  1  0  0  0  0
 21 43  1  0  0  0  0
 22 23  2  0  0  0  0
 22 44  1  0  0  0  0
 23 24  1  0  0  0  0
 23 45  1  0  0  0  0
 24 25  2  0  0  0  0
 24 46  1  0  0  0  0
 25 47  1  0  0  0  0
 26 27  1  0  0  0  0
 26 28  1  0  0  0  0
 26 48  1  0  0  0  0
 28 29  1  0  0  0  0
 28 49  1  0  0  0  0
 29 50  1  0  0  0  0
 30 35  1  0  0  0  0
 30 31  2  0  0  0  0
 31 32  1  0  0  0  0
 31 51  1  0  0  0  0
 32 33  2  0  0  0  0
 32 52  1  0  0  0  0
 33 34  1  0  0  0  0
 33 53  1  0  0  0  0
 34 35  2  0  0  0  0
 34 54  1  0  0  0  0
 35 55  1  0  0  0  0
M  END
> <s_m_source_file>
AV-unprocessed.smi

> <i_m_source_file_index>
34

> <i_lp_mmshare_version>
43012

> <i_f3d_flags>
0

> <s_epik_input>
W2NIXTFbY0hdW2NIXVtjSF1bY0hdYzFDKD1PKVtOSF1jKG5bY0hdbjIpYyhjMjMpbltjSF1uM1tDQEBIXTRPW0NASF0oW0NAQEhdKEYpW0NASF00W09IXSlbQ0gyXU9DKD1PKWM1W2NIXVtjSF1bY0hdW2NIXVtjSF01

> <s_epik_cmdline>
J2VwaWtfcHl0aG9uJywgJy1waCcsICc3LjAnLCAnLXRuJywgJzgnLCAnLW1hJywgJzIwMCcsICctbWV0YWxfYmluZGluZycsICctaW1hZScsICc8aW5maWxlLm1hZT4nLCAnLW9tYWUnLCAnPG91dGZpbGUubWFlPic=

> <r_lp_tautomer_probability>
1

> <r_epik_Ionization_Penalty>
0.00257489

> <r_epik_Ionization_Penalty_Charging>
0

> <r_epik_Ionization_Penalty_Neutral>
0.00257489

> <r_epik_State_Penalty>
0.00519398

> <r_epik_Charging_Adjusted_Penalty>
0.00519398

> <i_epik_Tot_Q>
0

> <i_epik_Tot_abs_Q>
0

> <r_epik_Metal_State_Penalty>
0.335891

> <b_epik_Metal_Only>
0

> <s_epik_Chemistry_Notes>
This compound has an ester and may undergo hydrolysis at high or low pH. This compound contains an acetal/aminal-like group ( X-CH(R)-Y where X, Y are N, S, or O) that may be acid/base labile, releasing an aldehyde.

> <s_lp_Force_Field>
OPLS_2005

> <r_lp_Energy>
51.1648

> <b_lp_Chiralities_Consistent>
1

> <s_lp_Variant>
AV-unprocessed.smi:34-3

> <Gold.Version>
5.8.1

> <Gold.Id.Protein>
6NUR|6NUR_protein|mol2

> <Gold.PLP.Fitness>
65.0959

> <Gold.PLP.PLP>
-56.4924

> <Gold.PLP.part.hbond>
-3.9075

> <Gold.PLP.part.metal>
0.0000

> <Gold.PLP.part.buried>
-9.2561

> <Gold.PLP.part.nonpolar>
-45.7992

> <Gold.PLP.part.repulsive>
1.1868

> <Gold.PLP.ligand.clash>
0.0000

> <Gold.PLP.ligand.torsion>
1.5965

> <Gold.PLP.Chemscore.Hbond>
3.8560

> <Gold.PLP.Chemscore.CHOScore>
0.0000

> <Gold.PLP.Chemscore.Metal>
0.0000

> <Gold.Chemscore.Hbonds>
donor molecule, donor type, donor heavy atom, donor atom, acceptor molecule, acceptor atom, score
      P1  H  6896  6909       L1    29  0.86
      P1  H  7989  7998       L1     5  0.99
      P1  H  7997  8009       L1     1  0.80
      P1  H 10752 10765       L1     7  0.94

> <Gold.PLP.Chemscore.Internal.Correction>
0.2285

> <Gold.Rescore>
     Score         DG    S(hbond)    S(metal)    S(lipo)     H(rot)  DE(clash)    DE(int)     intcor
     16.62     -21.56       2.23        0.00     133.25       2.72       1.42       3.52       ----

> <Gold.Chemscore.Fitness>
16.6233

> <Gold.Chemscore.DG>
-21.5646

> <Gold.Chemscore.ZeroCoef>
-5.4800

> <Gold.Chemscore.Hbond>
2.2339

> <Gold.Chemscore.Metal>
0.0000

> <Gold.Chemscore.Lipo>
133.2520

> <Gold.Chemscore.Internal_Hbond>
0.0000

> <Gold.Chemscore.DEClash>
1.4237

> <Gold.Chemscore.DEInternal>
3.5176

> <Gold.Chemscore.Rot>
2.7215

> <Gold.Chemscore.Internal.Correction>
   9.000000E+99

> <Gold.Chemscore.Hbonds>
donor molecule, donor type, donor heavy atom, donor atom, acceptor molecule, acceptor atom, score
      P1  H  6896  6909       L1    29  0.74
      P1  H  7989  7998       L1     5  0.28
      P1  H  7997  8009       L1     1  0.38
      P1  H 10752 10765       L1     7  0.34

> <Gold.Chemscore.Hbond.Weighted>
-7.4611

> <Gold.Chemscore.Metal.Weighted>
-0.0000

> <Gold.Chemscore.Lipo.Weighted>
-15.5905

> <Gold.Chemscore.Internal_Hbond.Weighted>
0.0000

> <Gold.Chemscore.DEClash.Weighted>
1.4237

> <Gold.Chemscore.DEInternal.Weighted>
3.5176

> <Gold.Chemscore.Rot.Weighted>
6.9670

> <Gold.Chemscore.Internal.Correction.Weighted>
   9.000000E+99

> <Gold.Protein.RotatedTorsions>
[ 6907 6896 6895 6894 ] final  -47.26 input  -60.11 | X-H torsion
[ 7974 7965 7964 7962 ] final -174.64 input  175.53 | X-H torsion
[ 8008 7997 7996 7995 ] final  139.86 input   59.86 | X-H torsion
[ 10167 10162 10161 10158 ] final -132.15 input  -65.29 | X-H torsion
[ 10718 10713 10712 10709 ] final -178.88 input   66.30 | X-H torsion
[ 10763 10752 10751 10750 ] final  150.43 input  -60.55 | X-H torsion
[ 11005 11000 10999 10996 ] final  121.33 input  -57.11 | X-H torsion

> <Gold.Protein.ActiveResidues>
 VAL166  LYS551  ARG553  GLY616  TRP617  ASP618  TYR619  PRO620  LYS621  CYS622 
 ASP623  PHE694  ASN695  SER759  ASP760  ASP761  ALA762  ILE779  LEU786  VAL792 
 PHE793  MET794  SER795  GLU796  ALA797  LYS798  CYS799  TRP800  GLU811  SER814 

> <Gold.Protein.RotatedAtoms>
  150.9026  134.8439  159.7370 H   0  0  0  0  0  0  0  0  0  0  0  0  # atno 6907 bound_to 6896
  152.4901  134.4479  159.9575 H   0  0  0  0  0  0  0  0  0  0  0  0  # atno 6908 bound_to 6896
  151.4529  133.3573  159.2833 H   0  0  0  0  0  0  0  0  0  0  0  0  # atno 6909 bound_to 6896
  144.7131  140.1441  143.6389 H   0  0  0  0  0  0  0  0  0  0  0  0  # atno 7974 bound_to 7965
  156.2985  140.2356  156.4306 H   0  0  0  0  0  0  0  0  0  0  0  0  # atno 8008 bound_to 7997
  154.8273  140.0435  157.1473 H   0  0  0  0  0  0  0  0  0  0  0  0  # atno 8009 bound_to 7997
  154.9247  140.3008  155.5202 H   0  0  0  0  0  0  0  0  0  0  0  0  # atno 8010 bound_to 7997
  139.9115  143.6488  152.2574 H   0  0  0  0  0  0  0  0  0  0  0  0  # atno 10167 bound_to 10162
  156.8508  130.9718  151.3092 H   0  0  0  0  0  0  0  0  0  0  0  0  # atno 10718 bound_to 10713
  154.0873  135.2855  155.3278 H   0  0  0  0  0  0  0  0  0  0  0  0  # atno 10763 bound_to 10752
  154.6643  135.5323  153.8061 H   0  0  0  0  0  0  0  0  0  0  0  0  # atno 10764 bound_to 10752
  153.0426  135.6542  154.1044 H   0  0  0  0  0  0  0  0  0  0  0  0  # atno 10765 bound_to 10752
  139.9221  134.9638  156.7941 H   0  0  0  0  0  0  0  0  0  0  0  0  # atno 11005 bound_to 11000
  145.9175  139.2525  143.1401 LP  0  0  0  0  0  0  0  0  0  0  0  0  # atno 17320 bound_to 7965
  145.9654  140.8803  143.0189 LP  0  0  0  0  0  0  0  0  0  0  0  0  # atno 17321 bound_to 7965
  139.6938  144.7644  151.1392 LP  0  0  0  0  0  0  0  0  0  0  0  0  # atno 17342 bound_to 10162
  140.7684  143.5552  150.9160 LP  0  0  0  0  0  0  0  0  0  0  0  0  # atno 17343 bound_to 10162
  157.6304  130.8725  149.9264 LP  0  0  0  0  0  0  0  0  0  0  0  0  # atno 17370 bound_to 10713
  156.0829  130.3671  150.0544 LP  0  0  0  0  0  0  0  0  0  0  0  0  # atno 17371 bound_to 10713
  140.6443  133.9790  155.7723 LP  0  0  0  0  0  0  0  0  0  0  0  0  # atno 17394 bound_to 11000
  141.0750  134.0148  157.3470 LP  0  0  0  0  0  0  0  0  0  0  0  0  # atno 17395 bound_to 11000

$$$$
