AV-unprocessed.smi:1295|AV-procd|sdf|5412|dock3
  -GOLD-   22720 4573D 1   1.00000     0.00000
 Structure written by MMmdl.
 42 43  0  0  0  0  0  0  0  0  2 V2000
  147.8682  136.2850  161.0190 C   0  0  0  0  0  0  0  0  0  0  0  0
  148.3410  136.9197  159.7289 C   0  0  0  0  0  0  0  0  0  0  0  0
  147.5829  137.7562  159.1288 N   0  0  0  0  0  0  0  0  0  0  0  0
  148.0163  138.3442  157.9283 C   0  0  0  0  0  0  0  0  0  0  0  0
  147.0525  139.3264  157.2849 C   0  0  0  0  0  0  0  0  0  0  0  0
  149.2313  138.0366  157.3901 C   0  0  0  0  0  0  0  0  0  0  0  0
  149.7457  138.6485  156.0876 C   0  0  0  0  0  0  0  0  0  0  0  0
  150.7217  139.8164  156.2453 C   0  0  0  0  0  0  0  0  0  0  0  0
  151.2310  140.3389  155.2540 O   0  0  0  0  0  0  0  0  0  0  0  0
  150.9675  140.2151  157.5031 N   0  0  0  0  0  0  0  0  0  0  0  0
  151.8241  141.3316  157.8994 C   0  0  1  0  0  0  0  0  0  0  0  0
  151.1049  142.6485  157.5469 C   0  0  0  0  0  0  0  0  0  0  0  0
  151.9103  143.8766  157.9944 C   0  0  0  0  0  0  0  0  0  0  0  0
  152.2242  143.8101  159.4948 C   0  0  0  0  0  0  0  0  0  0  0  0
  152.9620  142.5095  159.8441 C   0  0  0  0  0  0  0  0  0  0  0  0
  152.1673  141.2610  159.4103 C   0  0  2  0  0  0  0  0  0  0  0  0
  152.9336  139.9807  159.7882 C   0  0  0  0  0  0  0  0  0  0  0  0
  150.0738  137.0664  158.1122 C   0  0  0  0  0  0  0  0  0  0  0  0
  151.1745  136.7452  157.6658 O   0  0  0  0  0  0  0  0  0  0  0  0
  149.5863  136.5477  159.2751 N   0  5  0  0  0  0  0  0  0  0  0  0
  146.8107  136.4883  161.1926 H   0  0  0  0  0  0  0  0  0  0  0  0
  148.4371  136.6784  161.8615 H   0  0  0  0  0  0  0  0  0  0  0  0
  148.0047  135.2035  160.9835 H   0  0  0  0  0  0  0  0  0  0  0  0
  147.4964  140.3207  157.2339 H   0  0  0  0  0  0  0  0  0  0  0  0
  146.1265  139.4023  157.8564 H   0  0  0  0  0  0  0  0  0  0  0  0
  146.7952  139.0071  156.2748 H   0  0  0  0  0  0  0  0  0  0  0  0
  150.2286  137.8593  155.5105 H   0  0  0  0  0  0  0  0  0  0  0  0
  148.9190  138.9806  155.4594 H   0  0  0  0  0  0  0  0  0  0  0  0
  150.5038  139.7171  158.2488 H   0  0  0  0  0  0  0  0  0  0  0  0
  152.7582  141.3057  157.3350 H   0  0  0  0  0  0  0  0  0  0  0  0
  150.9289  142.6996  156.4715 H   0  0  0  0  0  0  0  0  0  0  0  0
  150.1223  142.6720  158.0209 H   0  0  0  0  0  0  0  0  0  0  0  0
  152.8402  143.9322  157.4269 H   0  0  0  0  0  0  0  0  0  0  0  0
  151.3547  144.7874  157.7703 H   0  0  0  0  0  0  0  0  0  0  0  0
  152.8279  144.6700  159.7866 H   0  0  0  0  0  0  0  0  0  0  0  0
  151.2982  143.8727  160.0679 H   0  0  0  0  0  0  0  0  0  0  0  0
  153.9404  142.5081  159.3614 H   0  0  0  0  0  0  0  0  0  0  0  0
  153.1495  142.4774  160.9179 H   0  0  0  0  0  0  0  0  0  0  0  0
  151.2304  141.2577  159.9699 H   0  0  0  0  0  0  0  0  0  0  0  0
  153.8633  139.8965  159.2247 H   0  0  0  0  0  0  0  0  0  0  0  0
  152.3442  139.0847  159.5931 H   0  0  0  0  0  0  0  0  0  0  0  0
  153.1862  139.9735  160.8488 H   0  0  0  0  0  0  0  0  0  0  0  0
  1  2  1  0  0  0  0
  1 21  1  0  0  0  0
  1 22  1  0  0  0  0
  1 23  1  0  0  0  0
  2 20  1  0  0  0  0
  2  3  2  0  0  0  0
  3  4  1  0  0  0  0
  4  5  1  0  0  0  0
  4  6  2  0  0  0  0
  5 24  1  0  0  0  0
  5 25  1  0  0  0  0
  5 26  1  0  0  0  0
  6  7  1  0  0  0  0
  6 18  1  0  0  0  0
  7  8  1  0  0  0  0
  7 27  1  0  0  0  0
  7 28  1  0  0  0  0
  8  9  2  0  0  0  0
  8 10  1  0  0  0  0
 10 11  1  0  0  0  0
 10 29  1  0  0  0  0
 11 16  1  0  0  0  0
 11 12  1  0  0  0  0
 11 30  1  0  0  0  0
 12 13  1  0  0  0  0
 12 31  1  0  0  0  0
 12 32  1  0  0  0  0
 13 14  1  0  0  0  0
 13 33  1  0  0  0  0
 13 34  1  0  0  0  0
 14 15  1  0  0  0  0
 14 35  1  0  0  0  0
 14 36  1  0  0  0  0
 15 16  1  0  0  0  0
 15 37  1  0  0  0  0
 15 38  1  0  0  0  0
 16 17  1  0  0  0  0
 16 39  1  0  0  0  0
 17 40  1  0  0  0  0
 17 41  1  0  0  0  0
 17 42  1  0  0  0  0
 18 19  2  0  0  0  0
 18 20  1  0  0  0  0
M  CHG  1  20  -1
M  END
> <s_m_source_file>
AV-unprocessed.smi

> <i_m_source_file_index>
1295

> <i_lp_mmshare_version>
43012

> <i_f3d_flags>
0

> <s_epik_input>
W0NIM11jMW5jKFtDSDNdKWMoYyg9TylbbkhdMSlbQ0gyXUMoPU8pW05IXVtDQEBIXTJbQ0gyXVtDSDJdW0NIMl1bQ0gyXVtDQEhdMltDSDNd

> <s_epik_cmdline>
J2VwaWtfcHl0aG9uJywgJy1waCcsICc3LjAnLCAnLXRuJywgJzgnLCAnLW1hJywgJzIwMCcsICctbWV0YWxfYmluZGluZycsICctaW1hZScsICc8aW5maWxlLm1hZT4nLCAnLW9tYWUnLCAnPG91dGZpbGUubWFlPic=

> <r_lp_tautomer_probability>
0.839158

> <r_epik_Ionization_Penalty>
6.67742

> <r_epik_Ionization_Penalty_Charging>
7.78154e-08

> <r_epik_Ionization_Penalty_Neutral>
6.67742

> <r_epik_State_Penalty>
4.51991

> <r_epik_Charging_Adjusted_Penalty>
4.51991

> <i_epik_Tot_Q>
-1

> <i_epik_Tot_abs_Q>
1

> <r_epik_Metal_State_Penalty>
0.853272

> <b_epik_Metal_Only>
1

> <s_lp_Force_Field>
OPLS_2005

> <r_lp_Energy>
15.3241

> <b_lp_Chiralities_Consistent>
1

> <s_lp_Variant>
AV-unprocessed.smi:1295-12

> <Gold.Version>
5.8.1

> <Gold.Id.Protein>
6NUR|6NUR_protein|mol2

> <Gold.PLP.Fitness>
43.2632

> <Gold.PLP.PLP>
-33.9199

> <Gold.PLP.part.hbond>
-3.0000

> <Gold.PLP.part.metal>
0.0000

> <Gold.PLP.part.buried>
-4.5597

> <Gold.PLP.part.nonpolar>
-26.8700

> <Gold.PLP.part.repulsive>
0.0779

> <Gold.PLP.ligand.clash>
0.0000

> <Gold.PLP.ligand.torsion>
0.4673

> <Gold.PLP.Chemscore.Hbond>
3.4243

> <Gold.PLP.Chemscore.CHOScore>
0.0000

> <Gold.PLP.Chemscore.Metal>
0.0000

> <Gold.Chemscore.Hbonds>
donor molecule, donor type, donor heavy atom, donor atom, acceptor molecule, acceptor atom, score
      P1  H  6896  6908       L1    20  1.43
      P1  H  6934  6947       L1     3  0.25
      P1  H  7989  7998       L1     9  1.00

> <Gold.PLP.Chemscore.Internal.Correction>
0.0050

> <Gold.Rescore>
     Score         DG    S(hbond)    S(metal)    S(lipo)     H(rot)  DE(clash)    DE(int)     intcor
     18.56     -19.05       2.30        0.00      81.90       1.45       0.03       0.46       ----

> <Gold.Chemscore.Fitness>
18.5601

> <Gold.Chemscore.DG>
-19.0487

> <Gold.Chemscore.ZeroCoef>
-5.4800

> <Gold.Chemscore.Hbond>
2.3011

> <Gold.Chemscore.Metal>
0.0000

> <Gold.Chemscore.Lipo>
81.8998

> <Gold.Chemscore.Internal_Hbond>
0.0000

> <Gold.Chemscore.DEClash>
0.0320

> <Gold.Chemscore.DEInternal>
0.4566

> <Gold.Chemscore.Rot>
1.4450

> <Gold.Chemscore.Internal.Correction>
   9.000000E+99

> <Gold.Chemscore.Hbonds>
donor molecule, donor type, donor heavy atom, donor atom, acceptor molecule, acceptor atom, score
      P1  H  6896  6908       L1    20  0.35
      P1  H  6934  6947       L1     3  0.04
      P1  H  7989  7998       L1     9  0.95

> <Gold.Chemscore.Hbond.Weighted>
-7.6856

> <Gold.Chemscore.Metal.Weighted>
-0.0000

> <Gold.Chemscore.Lipo.Weighted>
-9.5823

> <Gold.Chemscore.Internal_Hbond.Weighted>
0.0000

> <Gold.Chemscore.DEClash.Weighted>
0.0320

> <Gold.Chemscore.DEInternal.Weighted>
0.4566

> <Gold.Chemscore.Rot.Weighted>
3.6992

> <Gold.Chemscore.Internal.Correction.Weighted>
   9.000000E+99

> <Gold.Protein.RotatedTorsions>
[ 6907 6896 6895 6894 ] final -174.15 input  -60.11 | X-H torsion
[ 7974 7965 7964 7962 ] final -157.06 input  175.53 | X-H torsion
[ 8008 7997 7996 7995 ] final -159.28 input   59.86 | X-H torsion
[ 10167 10162 10161 10158 ] final -114.49 input  -65.29 | X-H torsion
[ 10718 10713 10712 10709 ] final  152.12 input   66.30 | X-H torsion
[ 10763 10752 10751 10750 ] final -121.78 input  -60.55 | X-H torsion
[ 11005 11000 10999 10996 ] final  172.78 input  -57.11 | X-H torsion

> <Gold.Protein.ActiveResidues>
 VAL166  LYS551  ARG553  GLY616  TRP617  ASP618  TYR619  PRO620  LYS621  CYS622 
 ASP623  PHE694  ASN695  SER759  ASP760  ASP761  ALA762  ILE779  LEU786  VAL792 
 PHE793  MET794  SER795  GLU796  ALA797  LYS798  CYS799  TRP800  GLU811  SER814 

> <Gold.Protein.RotatedAtoms>
  151.5677  133.3394  159.2983 H   0  0  0  0  0  0  0  0  0  0  0  0  # atno 6907 bound_to 6896
  150.8386  134.7671  159.6924 H   0  0  0  0  0  0  0  0  0  0  0  0  # atno 6908 bound_to 6896
  152.4457  134.5505  159.9917 H   0  0  0  0  0  0  0  0  0  0  0  0  # atno 6909 bound_to 6896
  144.7565  140.4022  143.6008 H   0  0  0  0  0  0  0  0  0  0  0  0  # atno 7974 bound_to 7965
  155.7602  140.0838  157.2159 H   0  0  0  0  0  0  0  0  0  0  0  0  # atno 8008 bound_to 7997
  154.4004  140.1544  156.2880 H   0  0  0  0  0  0  0  0  0  0  0  0  # atno 8009 bound_to 7997
  155.8846  140.3418  155.5915 H   0  0  0  0  0  0  0  0  0  0  0  0  # atno 8010 bound_to 7997
  140.1004  143.4618  152.1816 H   0  0  0  0  0  0  0  0  0  0  0  0  # atno 10167 bound_to 10162
  157.2619  131.0800  151.1659 H   0  0  0  0  0  0  0  0  0  0  0  0  # atno 10718 bound_to 10713
  154.8676  135.4156  154.2676 H   0  0  0  0  0  0  0  0  0  0  0  0  # atno 10763 bound_to 10752
  153.3592  135.7002  153.6732 H   0  0  0  0  0  0  0  0  0  0  0  0  # atno 10764 bound_to 10752
  153.5639  135.3604  155.2783 H   0  0  0  0  0  0  0  0  0  0  0  0  # atno 10765 bound_to 10752
  140.3334  134.7338  157.4151 H   0  0  0  0  0  0  0  0  0  0  0  0  # atno 11005 bound_to 11000
  145.6762  139.1609  143.2726 LP  0  0  0  0  0  0  0  0  0  0  0  0  # atno 17320 bound_to 7965
  146.1581  140.6828  142.9290 LP  0  0  0  0  0  0  0  0  0  0  0  0  # atno 17321 bound_to 7965
  139.5674  144.7443  151.3983 LP  0  0  0  0  0  0  0  0  0  0  0  0  # atno 17342 bound_to 10162
  140.6981  143.7699  150.7359 LP  0  0  0  0  0  0  0  0  0  0  0  0  # atno 17343 bound_to 10162
  157.3166  130.6916  149.6245 LP  0  0  0  0  0  0  0  0  0  0  0  0  # atno 17370 bound_to 10713
  155.9664  130.4348  150.5063 LP  0  0  0  0  0  0  0  0  0  0  0  0  # atno 17371 bound_to 10713
  140.0841  134.5690  155.8510 LP  0  0  0  0  0  0  0  0  0  0  0  0  # atno 17394 bound_to 11000
  141.2057  133.6649  156.6199 LP  0  0  0  0  0  0  0  0  0  0  0  0  # atno 17395 bound_to 11000

$$$$
