AV-unprocessed.smi:1487|AV-procd|sdf|6022|dock2
  -GOLD-   22720 6123D 1   1.00000     0.00000
 Structure written by MMmdl.
 49 51  0  0  0  0  0  0  0  0  3 V2000
  152.8696  143.3407  160.6632 C   0  0  0  0  0  0  0  0  0  0  0  0
  152.4088  142.5491  159.4511 C   0  0  0  0  0  0  0  0  0  0  0  0
  151.5157  143.1632  158.5446 C   0  0  0  0  0  0  0  0  0  0  0  0
  151.1126  142.4145  157.4454 C   0  0  0  0  0  0  0  0  0  0  0  0
  150.2555  142.7304  156.3897 N   0  3  0  0  0  0  0  0  0  0  0  0
  150.1652  141.6677  155.5433 C   0  0  0  0  0  0  0  0  0  0  0  0
  150.9556  140.6772  156.0406 N   0  0  0  0  0  0  0  0  0  0  0  0
  151.2073  139.3254  155.5183 C   0  0  0  0  0  0  0  0  0  0  0  0
  150.2551  138.9350  154.3704 C   0  0  1  0  0  0  0  0  0  0  0  0
  150.7552  137.7907  153.7063 O   0  0  0  0  0  0  0  0  0  0  0  0
  148.8383  138.6191  154.8906 C   0  0  0  0  0  0  0  0  0  0  0  0
  147.9546  138.0559  153.8373 N   0  3  2  0  0  0  0  0  0  0  0  0
  147.3298  139.0961  152.9759 C   0  0  0  0  0  0  0  0  0  0  0  0
  146.5328  138.4602  151.8243 C   0  0  0  0  0  0  0  0  0  0  0  0
  145.4712  137.4915  152.3605 C   0  0  0  0  0  0  0  0  0  0  0  0
  146.1339  136.4450  153.2679 C   0  0  2  0  0  0  0  0  0  0  0  0
  145.1414  135.6174  153.8360 O   0  0  0  0  0  0  0  0  0  0  0  0
  146.9387  137.1234  154.3921 C   0  0  0  0  0  0  0  0  0  0  0  0
  151.5653  141.0981  157.2297 C   0  0  0  0  0  0  0  0  0  0  0  0
  152.4465  140.4786  158.1135 C   0  0  0  0  0  0  0  0  0  0  0  0
  152.8672  141.2232  159.2387 C   0  0  0  0  0  0  0  0  0  0  0  0
  153.8268  140.5726  160.2205 C   0  0  0  0  0  0  0  0  0  0  0  0
  152.4780  144.3583  160.6472 H   0  0  0  0  0  0  0  0  0  0  0  0
  153.9575  143.4048  160.6902 H   0  0  0  0  0  0  0  0  0  0  0  0
  152.5266  142.8653  161.5824 H   0  0  0  0  0  0  0  0  0  0  0  0
  151.1624  144.1722  158.7006 H   0  0  0  0  0  0  0  0  0  0  0  0
  149.5712  141.6201  154.6418 H   0  0  0  0  0  0  0  0  0  0  0  0
  152.2510  139.2449  155.2141 H   0  0  0  0  0  0  0  0  0  0  0  0
  151.0819  138.6342  156.3526 H   0  0  0  0  0  0  0  0  0  0  0  0
  150.2254  139.7555  153.6540 H   0  0  0  0  0  0  0  0  0  0  0  0
  150.0846  137.4633  153.1256 H   0  0  0  0  0  0  0  0  0  0  0  0
  148.9273  137.9120  155.7173 H   0  0  0  0  0  0  0  0  0  0  0  0
  148.3735  139.5133  155.3085 H   0  0  0  0  0  0  0  0  0  0  0  0
  146.6731  139.7235  153.5809 H   0  0  0  0  0  0  0  0  0  0  0  0
  148.0914  139.7522  152.5567 H   0  0  0  0  0  0  0  0  0  0  0  0
  146.0570  139.2378  151.2263 H   0  0  0  0  0  0  0  0  0  0  0  0
  147.2127  137.9287  151.1569 H   0  0  0  0  0  0  0  0  0  0  0  0
  144.7177  138.0487  152.9194 H   0  0  0  0  0  0  0  0  0  0  0  0
  144.9533  137.0064  151.5321 H   0  0  0  0  0  0  0  0  0  0  0  0
  146.7983  135.8158  152.6738 H   0  0  0  0  0  0  0  0  0  0  0  0
  145.1678  134.7750  153.4077 H   0  0  0  0  0  0  0  0  0  0  0  0
  147.4331  136.3574  154.9914 H   0  0  0  0  0  0  0  0  0  0  0  0
  146.2732  137.6717  155.0615 H   0  0  0  0  0  0  0  0  0  0  0  0
  152.8018  139.4716  157.9522 H   0  0  0  0  0  0  0  0  0  0  0  0
  154.0438  139.5408  159.9425 H   0  0  0  0  0  0  0  0  0  0  0  0
  153.4015  140.5628  161.2245 H   0  0  0  0  0  0  0  0  0  0  0  0
  154.7710  141.1167  160.2485 H   0  0  0  0  0  0  0  0  0  0  0  0
  148.5499  137.4956  153.2436 H   0  0  0  0  0  0  0  0  0  0  0  0
  149.7643  143.6055  156.2563 H   0  0  0  0  0  0  0  0  0  0  0  0
  1  2  1  0  0  0  0
  1 23  1  0  0  0  0
  1 24  1  0  0  0  0
  1 25  1  0  0  0  0
  2 21  1  0  0  0  0
  2  3  2  0  0  0  0
  3  4  1  0  0  0  0
  3 26  1  0  0  0  0
  4 19  2  0  0  0  0
  4  5  1  0  0  0  0
  5  6  2  0  0  0  0
  5 49  1  0  0  0  0
  6  7  1  0  0  0  0
  6 27  1  0  0  0  0
  7  8  1  0  0  0  0
  7 19  1  0  0  0  0
  8  9  1  0  0  0  0
  8 28  1  0  0  0  0
  8 29  1  0  0  0  0
  9 10  1  0  0  0  0
  9 11  1  0  0  0  0
  9 30  1  0  0  0  0
 10 31  1  0  0  0  0
 11 12  1  0  0  0  0
 11 32  1  0  0  0  0
 11 33  1  0  0  0  0
 12 18  1  0  0  0  0
 12 13  1  0  0  0  0
 12 48  1  0  0  0  0
 13 14  1  0  0  0  0
 13 34  1  0  0  0  0
 13 35  1  0  0  0  0
 14 15  1  0  0  0  0
 14 36  1  0  0  0  0
 14 37  1  0  0  0  0
 15 16  1  0  0  0  0
 15 38  1  0  0  0  0
 15 39  1  0  0  0  0
 16 17  1  0  0  0  0
 16 18  1  0  0  0  0
 16 40  1  0  0  0  0
 17 41  1  0  0  0  0
 18 42  1  0  0  0  0
 18 43  1  0  0  0  0
 19 20  1  0  0  0  0
 20 21  2  0  0  0  0
 20 44  1  0  0  0  0
 21 22  1  0  0  0  0
 22 45  1  0  0  0  0
 22 46  1  0  0  0  0
 22 47  1  0  0  0  0
M  CHG  1   5   1
M  CHG  1  12   1
M  END
> <s_m_source_file>
AV-unprocessed.smi

> <i_m_source_file_index>
1487

> <i_lp_mmshare_version>
43012

> <i_f3d_flags>
0

> <s_epik_input>
W0NIM11jKFtjSF0xKWMoW0NIM10pW2NIXWMoYzEyKW4oW2NIXW4yKVtDSDJdW0NASF0oW09IXSlbQ0gyXU4zW0NIMl1bQ0gyXVtDSDJdW0NAQEhdKFtPSF0pW0NIMl0z

> <s_epik_cmdline>
J2VwaWtfcHl0aG9uJywgJy1waCcsICc3LjAnLCAnLXRuJywgJzgnLCAnLW1hJywgJzIwMCcsICctbWV0YWxfYmluZGluZycsICctaW1hZScsICc8aW5maWxlLm1hZT4nLCAnLW9tYWUnLCAnPG91dGZpbGUubWFlPic=

> <r_epik_Ionization_Penalty>
1.1857

> <r_epik_Ionization_Penalty_Charging>
1.1857

> <r_epik_Ionization_Penalty_Neutral>
1.75578e-06

> <r_epik_State_Penalty>
1.26953

> <r_epik_Charging_Adjusted_Penalty>
2.45524

> <i_epik_Tot_Q>
2

> <i_epik_Tot_abs_Q>
2

> <r_epik_Metal_State_Penalty>
5.28243

> <b_epik_Metal_Only>
0

> <s_lp_Force_Field>
OPLS_2005

> <r_lp_Energy>
30.804

> <b_lp_Chiralities_Consistent>
1

> <s_lp_Variant>
AV-unprocessed.smi:1487-16

> <Gold.Version>
5.8.1

> <Gold.Id.Protein>
6NUR|6NUR_protein|mol2

> <Gold.PLP.Fitness>
58.1415

> <Gold.PLP.PLP>
-44.1848

> <Gold.PLP.part.hbond>
-4.0000

> <Gold.PLP.part.metal>
0.0000

> <Gold.PLP.part.buried>
-3.8405

> <Gold.PLP.part.nonpolar>
-37.8363

> <Gold.PLP.part.repulsive>
0.0834

> <Gold.PLP.ligand.clash>
0.0000

> <Gold.PLP.ligand.torsion>
0.5580

> <Gold.PLP.Chemscore.Hbond>
4.9913

> <Gold.PLP.Chemscore.CHOScore>
0.0000

> <Gold.PLP.Chemscore.Metal>
0.0000

> <Gold.Chemscore.Hbonds>
donor molecule, donor type, donor heavy atom, donor atom, acceptor molecule, acceptor atom, score
      L1  H     5    49       P1  8028  2.00
      L1  H    10    31       P1  7948  0.86
      L1  H    12    48       P1  7948  2.00

> <Gold.PLP.Chemscore.Internal.Correction>
0.0989

> <Gold.Rescore>
     Score         DG    S(hbond)    S(metal)    S(lipo)     H(rot)  DE(clash)    DE(int)     intcor
     19.16     -19.70       2.32        0.00     115.19       2.74       0.04       0.50       ----

> <Gold.Chemscore.Fitness>
19.1562

> <Gold.Chemscore.DG>
-19.6955

> <Gold.Chemscore.ZeroCoef>
-5.4800

> <Gold.Chemscore.Hbond>
2.3201

> <Gold.Chemscore.Metal>
0.0000

> <Gold.Chemscore.Lipo>
115.1857

> <Gold.Chemscore.Internal_Hbond>
0.0000

> <Gold.Chemscore.DEClash>
0.0434

> <Gold.Chemscore.DEInternal>
0.4959

> <Gold.Chemscore.Rot>
2.7384

> <Gold.Chemscore.Internal.Correction>
   9.000000E+99

> <Gold.Chemscore.Hbonds>
donor molecule, donor type, donor heavy atom, donor atom, acceptor molecule, acceptor atom, score
      L1  H     5    49       P1  8028  0.93
      L1  H    10    31       P1  7948  0.16
      L1  H    12    48       P1  7948  0.99

> <Gold.Chemscore.Hbond.Weighted>
-7.7491

> <Gold.Chemscore.Metal.Weighted>
-0.0000

> <Gold.Chemscore.Lipo.Weighted>
-13.4767

> <Gold.Chemscore.Internal_Hbond.Weighted>
0.0000

> <Gold.Chemscore.DEClash.Weighted>
0.0434

> <Gold.Chemscore.DEInternal.Weighted>
0.4959

> <Gold.Chemscore.Rot.Weighted>
7.0103

> <Gold.Chemscore.Internal.Correction.Weighted>
   9.000000E+99

> <Gold.Protein.RotatedTorsions>
[ 6907 6896 6895 6894 ] final  -55.36 input  -60.11 | X-H torsion
[ 7974 7965 7964 7962 ] final -172.09 input  175.53 | X-H torsion
[ 8008 7997 7996 7995 ] final   92.40 input   59.86 | X-H torsion
[ 10167 10162 10161 10158 ] final  -63.09 input  -65.29 | X-H torsion
[ 10718 10713 10712 10709 ] final -177.13 input   66.30 | X-H torsion
[ 10763 10752 10751 10750 ] final  -62.13 input  -60.55 | X-H torsion
[ 11005 11000 10999 10996 ] final   43.15 input  -57.11 | X-H torsion

> <Gold.Protein.ActiveResidues>
 VAL166  LYS551  ARG553  GLY616  TRP617  ASP618  TYR619  PRO620  LYS621  CYS622 
 ASP623  PHE694  ASN695  SER759  ASP760  ASP761  ALA762  ILE779  LEU786  VAL792 
 PHE793  MET794  SER795  GLU796  ALA797  LYS798  CYS799  TRP800  GLU811  SER814 

> <Gold.Protein.RotatedAtoms>
  150.8258  134.7488  159.6811 H   0  0  0  0  0  0  0  0  0  0  0  0  # atno 6907 bound_to 6896
  152.4369  134.5665  159.9919 H   0  0  0  0  0  0  0  0  0  0  0  0  # atno 6908 bound_to 6896
  151.5838  133.3337  159.3049 H   0  0  0  0  0  0  0  0  0  0  0  0  # atno 6909 bound_to 6896
  144.7150  140.1825  143.6357 H   0  0  0  0  0  0  0  0  0  0  0  0  # atno 7974 bound_to 7965
  156.0349  140.3326  155.7180 H   0  0  0  0  0  0  0  0  0  0  0  0  # atno 8008 bound_to 7997
  155.5830  140.0639  157.2796 H   0  0  0  0  0  0  0  0  0  0  0  0  # atno 8009 bound_to 7997
  154.4368  140.1840  156.0984 H   0  0  0  0  0  0  0  0  0  0  0  0  # atno 8010 bound_to 7997
  140.5894  143.2339  151.6172 H   0  0  0  0  0  0  0  0  0  0  0  0  # atno 10167 bound_to 10162
  156.8249  130.9633  151.3110 H   0  0  0  0  0  0  0  0  0  0  0  0  # atno 10718 bound_to 10713
  154.2952  135.6245  153.5402 H   0  0  0  0  0  0  0  0  0  0  0  0  # atno 10763 bound_to 10752
  152.9847  135.5665  154.5345 H   0  0  0  0  0  0  0  0  0  0  0  0  # atno 10764 bound_to 10752
  154.4964  135.2870  155.1432 H   0  0  0  0  0  0  0  0  0  0  0  0  # atno 10765 bound_to 10752
  140.1672  134.4267  155.8279 H   0  0  0  0  0  0  0  0  0  0  0  0  # atno 11005 bound_to 11000
  145.8843  139.2340  143.1587 LP  0  0  0  0  0  0  0  0  0  0  0  0  # atno 17320 bound_to 7965
  145.9965  140.8558  143.0040 LP  0  0  0  0  0  0  0  0  0  0  0  0  # atno 17321 bound_to 7965
  139.5218  144.3182  152.0934 LP  0  0  0  0  0  0  0  0  0  0  0  0  # atno 17342 bound_to 10162
  140.2344  144.4335  150.6286 LP  0  0  0  0  0  0  0  0  0  0  0  0  # atno 17343 bound_to 10162
  157.6437  130.8827  149.9498 LP  0  0  0  0  0  0  0  0  0  0  0  0  # atno 17370 bound_to 10713
  156.0967  130.3659  150.0293 LP  0  0  0  0  0  0  0  0  0  0  0  0  # atno 17371 bound_to 10713
  141.2214  133.6940  156.7700 LP  0  0  0  0  0  0  0  0  0  0  0  0  # atno 17394 bound_to 11000
  140.2419  134.8607  157.3582 LP  0  0  0  0  0  0  0  0  0  0  0  0  # atno 17395 bound_to 11000

$$$$
