AV-unprocessed.smi:2399|AV-procd|sdf|9500|dock1
  -GOLD-   2272013133D 1   1.00000     0.00000
 Structure written by MMmdl.
 53 55  0  0  0  0  0  0  0  0  2 V2000
  147.9935  131.9740  153.5184 C   0  0  0  0  0  0  0  0  0  0  0  0
  147.3928  133.1123  152.9190 O   0  0  0  0  0  0  0  0  0  0  0  0
  146.4603  132.9097  151.9201 C   0  0  0  0  0  0  0  0  0  0  0  0
  146.0019  131.6278  151.5226 C   0  0  0  0  0  0  0  0  0  0  0  0
  145.0487  131.5230  150.4949 C   0  0  0  0  0  0  0  0  0  0  0  0
  144.5843  132.7073  149.8959 C   0  0  0  0  0  0  0  0  0  0  0  0
  143.5566  132.6692  148.7846 C   0  0  0  0  0  0  0  0  0  0  0  0
  145.0110  133.9313  150.2664 N   0  0  0  0  0  0  0  0  0  0  0  0
  145.9296  134.0464  151.2570 C   0  0  0  0  0  0  0  0  0  0  0  0
  146.4295  135.3009  151.7029 N   0  0  0  0  0  0  0  0  0  0  0  0
  145.8084  136.2322  152.4472 C   0  0  0  0  0  0  0  0  0  0  0  0
  144.6617  136.1474  152.8879 O   0  0  0  0  0  0  0  0  0  0  0  0
  146.6075  137.2861  152.6690 N   0  0  0  0  0  0  0  0  0  0  0  0
  146.2517  138.4583  153.4633 C   0  0  2  0  0  0  0  0  0  0  0  0
  147.0913  139.6665  153.0128 C   0  0  0  0  0  0  0  0  0  0  0  0
  146.8430  140.8889  153.9172 C   0  0  0  0  0  0  0  0  0  0  0  0
  147.1010  140.5836  155.3520 N   0  3  2  0  0  0  0  0  0  0  0  0
  148.5465  140.4475  155.7051 C   0  0  0  0  0  0  0  0  0  0  0  0
  148.8460  140.6949  157.1898 C   0  0  0  0  0  0  0  0  0  0  0  0
  150.3474  140.9879  157.2436 C   0  0  0  0  0  0  0  0  0  0  0  0
  150.7154  141.5662  155.8707 C   0  0  0  0  0  0  0  0  0  0  0  0
  149.4455  141.4844  155.0156 C   0  0  0  0  0  0  0  0  0  0  0  0
  146.2433  139.4538  155.8045 C   0  0  0  0  0  0  0  0  0  0  0  0
  146.4712  138.1837  154.9639 C   0  0  0  0  0  0  0  0  0  0  0  0
  148.6969  132.3006  154.2841 H   0  0  0  0  0  0  0  0  0  0  0  0
  148.5508  131.3860  152.7881 H   0  0  0  0  0  0  0  0  0  0  0  0
  147.2505  131.3395  154.0034 H   0  0  0  0  0  0  0  0  0  0  0  0
  146.3615  130.7216  151.9854 H   0  0  0  0  0  0  0  0  0  0  0  0
  144.6858  130.5561  150.1783 H   0  0  0  0  0  0  0  0  0  0  0  0
  143.4223  131.6555  148.4064 H   0  0  0  0  0  0  0  0  0  0  0  0
  143.8677  133.3022  147.9530 H   0  0  0  0  0  0  0  0  0  0  0  0
  142.5943  133.0288  149.1490 H   0  0  0  0  0  0  0  0  0  0  0  0
  147.3795  135.5037  151.4285 H   0  0  0  0  0  0  0  0  0  0  0  0
  147.5335  137.2712  152.2667 H   0  0  0  0  0  0  0  0  0  0  0  0
  145.1993  138.6982  153.2986 H   0  0  0  0  0  0  0  0  0  0  0  0
  148.1518  139.4117  153.0176 H   0  0  0  0  0  0  0  0  0  0  0  0
  146.8469  139.9209  151.9806 H   0  0  0  0  0  0  0  0  0  0  0  0
  147.4344  141.7393  153.5807 H   0  0  0  0  0  0  0  0  0  0  0  0
  145.8025  141.2015  153.8182 H   0  0  0  0  0  0  0  0  0  0  0  0
  148.9038  139.4507  155.4443 H   0  0  0  0  0  0  0  0  0  0  0  0
  148.2930  141.5666  157.5437 H   0  0  0  0  0  0  0  0  0  0  0  0
  148.5795  139.8492  157.8245 H   0  0  0  0  0  0  0  0  0  0  0  0
  150.5988  141.6676  158.0584 H   0  0  0  0  0  0  0  0  0  0  0  0
  150.8992  140.0616  157.4090 H   0  0  0  0  0  0  0  0  0  0  0  0
  151.0686  142.5953  155.9473 H   0  0  0  0  0  0  0  0  0  0  0  0
  151.5183  140.9796  155.4224 H   0  0  0  0  0  0  0  0  0  0  0  0
  149.6732  141.2236  153.9815 H   0  0  0  0  0  0  0  0  0  0  0  0
  148.9541  142.4586  155.0109 H   0  0  0  0  0  0  0  0  0  0  0  0
  146.3893  139.2440  156.8632 H   0  0  0  0  0  0  0  0  0  0  0  0
  145.2006  139.7604  155.7111 H   0  0  0  0  0  0  0  0  0  0  0  0
  145.7914  137.4007  155.3017 H   0  0  0  0  0  0  0  0  0  0  0  0
  147.4788  137.8022  155.1327 H   0  0  0  0  0  0  0  0  0  0  0  0
  146.7827  141.3925  155.8668 H   0  0  0  0  0  0  0  0  0  0  0  0
  1  2  1  0  0  0  0
  1 25  1  0  0  0  0
  1 26  1  0  0  0  0
  1 27  1  0  0  0  0
  2  3  1  0  0  0  0
  3  9  1  0  0  0  0
  3  4  2  0  0  0  0
  4  5  1  0  0  0  0
  4 28  1  0  0  0  0
  5  6  2  0  0  0  0
  5 29  1  0  0  0  0
  6  7  1  0  0  0  0
  6  8  1  0  0  0  0
  7 30  1  0  0  0  0
  7 31  1  0  0  0  0
  7 32  1  0  0  0  0
  8  9  2  0  0  0  0
  9 10  1  0  0  0  0
 10 11  1  0  0  0  0
 10 33  1  0  0  0  0
 11 12  2  0  0  0  0
 11 13  1  0  0  0  0
 13 14  1  0  0  0  0
 13 34  1  0  0  0  0
 14 24  1  0  0  0  0
 14 15  1  0  0  0  0
 14 35  1  0  0  0  0
 15 16  1  0  0  0  0
 15 36  1  0  0  0  0
 15 37  1  0  0  0  0
 16 17  1  0  0  0  0
 16 38  1  0  0  0  0
 16 39  1  0  0  0  0
 17 18  1  0  0  0  0
 17 23  1  0  0  0  0
 17 53  1  0  0  0  0
 18 22  1  0  0  0  0
 18 19  1  0  0  0  0
 18 40  1  0  0  0  0
 19 20  1  0  0  0  0
 19 41  1  0  0  0  0
 19 42  1  0  0  0  0
 20 21  1  0  0  0  0
 20 43  1  0  0  0  0
 20 44  1  0  0  0  0
 21 22  1  0  0  0  0
 21 45  1  0  0  0  0
 21 46  1  0  0  0  0
 22 47  1  0  0  0  0
 22 48  1  0  0  0  0
 23 24  1  0  0  0  0
 23 49  1  0  0  0  0
 23 50  1  0  0  0  0
 24 51  1  0  0  0  0
 24 52  1  0  0  0  0
M  CHG  1  17   1
M  END
> <s_m_source_file>
AV-unprocessed.smi

> <i_m_source_file_index>
2399

> <i_lp_mmshare_version>
43012

> <i_f3d_flags>
0

> <s_epik_input>
W0NIM11PYzFbY0hdW2NIXWMoW0NIM10pbmMxW05IXUMoPU8pW05IXVtDSF0yW0NIMl1bQ0gyXU4oW0NIMl1bQ0gyXTIpW0NIXTNbQ0gyXVtDSDJdW0NIMl1bQ0gyXTM=

> <s_epik_cmdline>
J2VwaWtfcHl0aG9uJywgJy1waCcsICc3LjAnLCAnLXRuJywgJzgnLCAnLW1hJywgJzIwMCcsICctbWV0YWxfYmluZGluZycsICctaW1hZScsICc8aW5maWxlLm1hZT4nLCAnLW9tYWUnLCAnPG91dGZpbGUubWFlPic=

> <r_lp_tautomer_probability>
1

> <r_epik_Ionization_Penalty>
0.00183805

> <r_epik_Ionization_Penalty_Charging>
0.00179121

> <r_epik_Ionization_Penalty_Neutral>
4.68398e-05

> <r_epik_State_Penalty>
0.00121448

> <r_epik_Charging_Adjusted_Penalty>
0.0030057

> <i_epik_Tot_Q>
1

> <i_epik_Tot_abs_Q>
1

> <r_epik_Metal_State_Penalty>
-0

> <b_epik_Metal_Only>
0

> <s_lp_Force_Field>
OPLS_2005

> <r_lp_Energy>
44.4335

> <b_lp_Chiralities_Consistent>
1

> <s_lp_Variant>
AV-unprocessed.smi:2399-2

> <Gold.Version>
5.8.1

> <Gold.Id.Protein>
6NUR|6NUR_protein|mol2

> <Gold.PLP.Fitness>
39.7645

> <Gold.PLP.PLP>
-36.5915

> <Gold.PLP.part.hbond>
-2.0000

> <Gold.PLP.part.metal>
0.0000

> <Gold.PLP.part.buried>
-5.8128

> <Gold.PLP.part.nonpolar>
-30.6921

> <Gold.PLP.part.repulsive>
1.5968

> <Gold.PLP.ligand.clash>
0.0000

> <Gold.PLP.ligand.torsion>
1.3329

> <Gold.PLP.Chemscore.Hbond>
1.9280

> <Gold.PLP.Chemscore.CHOScore>
0.0000

> <Gold.PLP.Chemscore.Metal>
0.0000

> <Gold.Chemscore.Hbonds>
donor molecule, donor type, donor heavy atom, donor atom, acceptor molecule, acceptor atom, score
      L1  H    10    33       P1  7948  0.99
      L1  H    13    34       P1  7948  0.91

> <Gold.PLP.Chemscore.Internal.Correction>
0.0549

> <Gold.Rescore>
     Score         DG    S(hbond)    S(metal)    S(lipo)     H(rot)  DE(clash)    DE(int)     intcor
     17.93     -19.57       1.79        0.00      99.66       1.38       0.46       1.18       ----

> <Gold.Chemscore.Fitness>
17.9261

> <Gold.Chemscore.DG>
-19.5658

> <Gold.Chemscore.ZeroCoef>
-5.4800

> <Gold.Chemscore.Hbond>
1.7862

> <Gold.Chemscore.Metal>
0.0000

> <Gold.Chemscore.Lipo>
99.6559

> <Gold.Chemscore.Internal_Hbond>
0.0000

> <Gold.Chemscore.DEClash>
0.4617

> <Gold.Chemscore.DEInternal>
1.1780

> <Gold.Chemscore.Rot>
1.3828

> <Gold.Chemscore.Internal.Correction>
   9.000000E+99

> <Gold.Chemscore.Hbonds>
donor molecule, donor type, donor heavy atom, donor atom, acceptor molecule, acceptor atom, score
      L1  H    10    33       P1  7948  0.88
      L1  H    13    34       P1  7948  0.90

> <Gold.Chemscore.Hbond.Weighted>
-5.9660

> <Gold.Chemscore.Metal.Weighted>
-0.0000

> <Gold.Chemscore.Lipo.Weighted>
-11.6597

> <Gold.Chemscore.Internal_Hbond.Weighted>
0.0000

> <Gold.Chemscore.DEClash.Weighted>
0.4617

> <Gold.Chemscore.DEInternal.Weighted>
1.1780

> <Gold.Chemscore.Rot.Weighted>
3.5399

> <Gold.Chemscore.Internal.Correction.Weighted>
   9.000000E+99

> <Gold.Protein.RotatedTorsions>
[ 6907 6896 6895 6894 ] final -112.08 input  -60.11 | X-H torsion
[ 7974 7965 7964 7962 ] final   39.25 input  175.53 | X-H torsion
[ 8008 7997 7996 7995 ] final   71.18 input   59.86 | X-H torsion
[ 10167 10162 10161 10158 ] final  -56.76 input  -65.29 | X-H torsion
[ 10718 10713 10712 10709 ] final   22.26 input   66.30 | X-H torsion
[ 10763 10752 10751 10750 ] final  -73.76 input  -60.55 | X-H torsion
[ 11005 11000 10999 10996 ] final -123.08 input  -57.11 | X-H torsion

> <Gold.Protein.ActiveResidues>
 VAL166  LYS551  ARG553  GLY616  TRP617  ASP618  TYR619  PRO620  LYS621  CYS622 
 ASP623  PHE694  ASN695  SER759  ASP760  ASP761  ALA762  ILE779  LEU786  VAL792 
 PHE793  MET794  SER795  GLU796  ALA797  LYS798  CYS799  TRP800  GLU811  SER814 

> <Gold.Protein.RotatedAtoms>
  150.7733  133.9142  159.3378 H   0  0  0  0  0  0  0  0  0  0  0  0  # atno 6907 bound_to 6896
  151.7023  135.0926  160.0262 H   0  0  0  0  0  0  0  0  0  0  0  0  # atno 6908 bound_to 6896
  152.3760  133.6444  159.6159 H   0  0  0  0  0  0  0  0  0  0  0  0  # atno 6909 bound_to 6896
  146.0999  139.5674  142.9421 H   0  0  0  0  0  0  0  0  0  0  0  0  # atno 7974 bound_to 7965
  155.7501  140.3488  155.5146 H   0  0  0  0  0  0  0  0  0  0  0  0  # atno 8008 bound_to 7997
  155.9013  140.1034  157.1369 H   0  0  0  0  0  0  0  0  0  0  0  0  # atno 8009 bound_to 7997
  154.4044  140.1285  156.4426 H   0  0  0  0  0  0  0  0  0  0  0  0  # atno 8010 bound_to 7997
  140.6298  143.2454  151.5271 H   0  0  0  0  0  0  0  0  0  0  0  0  # atno 10167 bound_to 10162
  157.1499  130.6670  149.6008 H   0  0  0  0  0  0  0  0  0  0  0  0  # atno 10718 bound_to 10713
  154.4639  135.5887  153.6274 H   0  0  0  0  0  0  0  0  0  0  0  0  # atno 10763 bound_to 10752
  152.9826  135.6050  154.3452 H   0  0  0  0  0  0  0  0  0  0  0  0  # atno 10764 bound_to 10752
  154.3327  135.2842  155.2442 H   0  0  0  0  0  0  0  0  0  0  0  0  # atno 10765 bound_to 10752
  140.9946  134.0490  157.3613 H   0  0  0  0  0  0  0  0  0  0  0  0  # atno 11005 bound_to 11000
  145.5876  141.0374  143.2088 LP  0  0  0  0  0  0  0  0  0  0  0  0  # atno 17320 bound_to 7965
  144.7424  139.7412  143.7305 LP  0  0  0  0  0  0  0  0  0  0  0  0  # atno 17321 bound_to 7965
  139.5513  144.2387  152.1536 LP  0  0  0  0  0  0  0  0  0  0  0  0  # atno 17342 bound_to 10162
  140.1628  144.5009  150.6623 LP  0  0  0  0  0  0  0  0  0  0  0  0  # atno 17343 bound_to 10162
  155.9772  130.4748  150.6581 LP  0  0  0  0  0  0  0  0  0  0  0  0  # atno 17370 bound_to 10713
  157.4230  131.0839  151.1113 LP  0  0  0  0  0  0  0  0  0  0  0  0  # atno 17371 bound_to 10713
  139.9008  135.0164  156.7261 LP  0  0  0  0  0  0  0  0  0  0  0  0  # atno 17394 bound_to 11000
  140.6986  133.9326  155.8010 LP  0  0  0  0  0  0  0  0  0  0  0  0  # atno 17395 bound_to 11000

$$$$
