AV-unprocessed.smi:3116|AV-procd|sdf|11870|dock1
  -GOLD-   2272017253D 1   1.00000     0.00000
 Structure written by MMmdl.
 33 33  0  0  0  0  0  0  0  0  1 V2000
  146.6404  138.7251  151.6194 C   0  0  0  0  0  0  0  0  0  0  0  0
  147.0144  139.0720  153.0755 C   0  0  2  0  0  0  0  0  0  0  0  0
  148.4689  139.2225  153.2428 N   0  0  0  0  0  0  0  0  0  0  0  0
  148.8671  139.8530  154.4996 C   0  0  2  0  0  0  0  0  0  0  0  0
  148.3586  141.3077  154.4716 C   0  0  0  0  0  0  0  0  0  0  0  0
  150.4083  139.7373  154.6445 C   0  0  2  0  0  0  0  0  0  0  0  0
  150.8942  138.2747  154.6232 C   0  0  0  0  0  0  0  0  0  0  0  0
  150.8994  140.4134  155.8394 N   0  0  0  0  0  0  0  0  0  0  0  0
  150.7971  141.7505  156.1644 C   0  0  0  0  0  0  0  0  0  0  0  0
  151.3907  141.9226  157.3819 C   0  0  0  0  0  0  0  0  0  0  0  0
  151.8347  140.6163  157.7286 C   0  0  0  0  0  0  0  0  0  0  0  0
  151.5388  139.7156  156.8060 N   0  0  0  0  0  0  0  0  0  0  0  0
  146.4882  138.0232  154.0654 C   0  0  0  0  0  0  0  0  0  0  0  0
  146.9743  136.7853  153.9421 N   0  0  0  0  0  0  0  0  0  0  0  0
  145.6501  138.3102  154.9186 O   0  0  0  0  0  0  0  0  0  0  0  0
  145.5698  138.5418  151.5187 H   0  0  0  0  0  0  0  0  0  0  0  0
  147.1647  137.8341  151.2709 H   0  0  0  0  0  0  0  0  0  0  0  0
  146.8859  139.5401  150.9386 H   0  0  0  0  0  0  0  0  0  0  0  0
  146.5292  140.0132  153.3408 H   0  0  0  0  0  0  0  0  0  0  0  0
  148.8882  139.7100  152.4639 H   0  0  0  0  0  0  0  0  0  0  0  0
  148.4062  139.3495  155.3512 H   0  0  0  0  0  0  0  0  0  0  0  0
  148.5468  141.8165  155.4170 H   0  0  0  0  0  0  0  0  0  0  0  0
  147.2830  141.3519  154.2994 H   0  0  0  0  0  0  0  0  0  0  0  0
  148.8440  141.8835  153.6829 H   0  0  0  0  0  0  0  0  0  0  0  0
  150.8673  140.2468  153.7953 H   0  0  0  0  0  0  0  0  0  0  0  0
  150.6492  137.7879  153.6791 H   0  0  0  0  0  0  0  0  0  0  0  0
  150.4393  137.6895  155.4229 H   0  0  0  0  0  0  0  0  0  0  0  0
  151.9765  138.2196  154.7443 H   0  0  0  0  0  0  0  0  0  0  0  0
  150.3132  142.4604  155.5100 H   0  0  0  0  0  0  0  0  0  0  0  0
  151.4917  142.8417  157.9399 H   0  0  0  0  0  0  0  0  0  0  0  0
  152.3584  140.2975  158.6177 H   0  0  0  0  0  0  0  0  0  0  0  0
  146.6632  136.0590  154.5707 H   0  0  0  0  0  0  0  0  0  0  0  0
  147.6531  136.5821  153.2230 H   0  0  0  0  0  0  0  0  0  0  0  0
  1  2  1  0  0  0  0
  1 16  1  0  0  0  0
  1 17  1  0  0  0  0
  1 18  1  0  0  0  0
  2  3  1  0  0  0  0
  2 13  1  0  0  0  0
  2 19  1  0  0  0  0
  3  4  1  0  0  0  0
  3 20  1  0  0  0  0
  4  5  1  0  0  0  0
  4  6  1  0  0  0  0
  4 21  1  0  0  0  0
  5 22  1  0  0  0  0
  5 23  1  0  0  0  0
  5 24  1  0  0  0  0
  6  7  1  0  0  0  0
  6  8  1  0  0  0  0
  6 25  1  0  0  0  0
  7 26  1  0  0  0  0
  7 27  1  0  0  0  0
  7 28  1  0  0  0  0
  8 12  1  0  0  0  0
  8  9  1  0  0  0  0
  9 10  2  0  0  0  0
  9 29  1  0  0  0  0
 10 11  1  0  0  0  0
 10 30  1  0  0  0  0
 11 12  2  0  0  0  0
 11 31  1  0  0  0  0
 13 14  1  0  0  0  0
 13 15  2  0  0  0  0
 14 32  1  0  0  0  0
 14 33  1  0  0  0  0
M  END
> <s_m_source_file>
AV-unprocessed.smi

> <i_m_source_file_index>
3116

> <i_lp_mmshare_version>
43012

> <i_f3d_flags>
0

> <s_epik_input>
W05IMl1DKD1PKVtDQEhdKFtDSDNdKVtOSF1bQ0BIXShbQ0gzXSlbQ0BIXShbQ0gzXSluMVtjSF1bY0hdW2NIXW4x

> <s_epik_cmdline>
J2VwaWtfcHl0aG9uJywgJy1waCcsICc3LjAnLCAnLXRuJywgJzgnLCAnLW1hJywgJzIwMCcsICctbWV0YWxfYmluZGluZycsICctaW1hZScsICc8aW5maWxlLm1hZT4nLCAnLW9tYWUnLCAnPG91dGZpbGUubWFlPic=

> <r_lp_tautomer_probability>
1

> <r_epik_Ionization_Penalty>
0.865977

> <r_epik_Ionization_Penalty_Charging>
0

> <r_epik_Ionization_Penalty_Neutral>
0.865977

> <r_epik_State_Penalty>
0.901888

> <r_epik_Charging_Adjusted_Penalty>
0.901888

> <i_epik_Tot_Q>
0

> <i_epik_Tot_abs_Q>
0

> <r_epik_Metal_State_Penalty>
0.901181

> <b_epik_Metal_Only>
0

> <s_lp_Force_Field>
OPLS_2005

> <r_lp_Energy>
9.43225

> <b_lp_Chiralities_Consistent>
1

> <s_lp_Variant>
AV-unprocessed.smi:3116-9

> <Gold.Version>
5.8.1

> <Gold.Id.Protein>
6NUR|6NUR_protein|mol2

> <Gold.PLP.Fitness>
38.2316

> <Gold.PLP.PLP>
-29.4118

> <Gold.PLP.part.hbond>
-1.8880

> <Gold.PLP.part.metal>
0.0000

> <Gold.PLP.part.buried>
-2.5452

> <Gold.PLP.part.nonpolar>
-26.5277

> <Gold.PLP.part.repulsive>
0.0595

> <Gold.PLP.ligand.clash>
0.0000

> <Gold.PLP.ligand.torsion>
0.1682

> <Gold.PLP.Chemscore.Hbond>
2.0000

> <Gold.PLP.Chemscore.CHOScore>
1.0000

> <Gold.PLP.Chemscore.Metal>
0.0000

> <Gold.Chemscore.Hbonds>
donor molecule, donor type, donor heavy atom, donor atom, acceptor molecule, acceptor atom, score
      L1  H     3    20       P1  7957  0.98
      L1  H    14    33       P1  7948  1.00
      L1  C     9    29       P1  8028  0.64

> <Gold.PLP.Chemscore.Internal.Correction>
0.1562

> <Gold.Rescore>
     Score         DG    S(hbond)    S(metal)    S(lipo)     H(rot)  DE(clash)    DE(int)     intcor
     13.25     -13.53       1.96        0.00      64.93       2.38       0.01       0.27       ----

> <Gold.Chemscore.Fitness>
13.2545

> <Gold.Chemscore.DG>
-13.5343

> <Gold.Chemscore.ZeroCoef>
-5.4800

> <Gold.Chemscore.Hbond>
1.9637

> <Gold.Chemscore.Metal>
0.0000

> <Gold.Chemscore.Lipo>
64.9348

> <Gold.Chemscore.Internal_Hbond>
0.0000

> <Gold.Chemscore.DEClash>
0.0089

> <Gold.Chemscore.DEInternal>
0.2708

> <Gold.Chemscore.Rot>
2.3836

> <Gold.Chemscore.Internal.Correction>
   9.000000E+99

> <Gold.Chemscore.Hbonds>
donor molecule, donor type, donor heavy atom, donor atom, acceptor molecule, acceptor atom, score
      L1  H     3    20       P1  7957  0.92
      L1  H    14    33       P1  7948  1.00

> <Gold.Chemscore.Hbond.Weighted>
-6.5589

> <Gold.Chemscore.Metal.Weighted>
-0.0000

> <Gold.Chemscore.Lipo.Weighted>
-7.5974

> <Gold.Chemscore.Internal_Hbond.Weighted>
0.0000

> <Gold.Chemscore.DEClash.Weighted>
0.0089

> <Gold.Chemscore.DEInternal.Weighted>
0.2708

> <Gold.Chemscore.Rot.Weighted>
6.1020

> <Gold.Chemscore.Internal.Correction.Weighted>
   9.000000E+99

> <Gold.Protein.RotatedTorsions>
[ 6907 6896 6895 6894 ] final   -0.37 input  -60.11 | X-H torsion
[ 7974 7965 7964 7962 ] final -158.24 input  175.53 | X-H torsion
[ 8008 7997 7996 7995 ] final -174.10 input   59.86 | X-H torsion
[ 10167 10162 10161 10158 ] final   82.20 input  -65.29 | X-H torsion
[ 10718 10713 10712 10709 ] final  -81.08 input   66.30 | X-H torsion
[ 10763 10752 10751 10750 ] final  178.39 input  -60.55 | X-H torsion
[ 11005 11000 10999 10996 ] final  -20.55 input  -57.11 | X-H torsion

> <Gold.Protein.ActiveResidues>
 VAL166  LYS551  ARG553  GLY616  TRP617  ASP618  TYR619  PRO620  LYS621  CYS622 
 ASP623  PHE694  ASN695  SER759  ASP760  ASP761  ALA762  ILE779  LEU786  VAL792 
 PHE793  MET794  SER795  GLU796  ALA797  LYS798  CYS799  TRP800  GLU811  SER814 

> <Gold.Protein.RotatedAtoms>
  151.5633  135.1065  159.9977 H   0  0  0  0  0  0  0  0  0  0  0  0  # atno 6907 bound_to 6896
  152.4436  133.7490  159.6694 H   0  0  0  0  0  0  0  0  0  0  0  0  # atno 6908 bound_to 6896
  150.8347  133.7965  159.3108 H   0  0  0  0  0  0  0  0  0  0  0  0  # atno 6909 bound_to 6896
  144.7514  140.3855  143.6045 H   0  0  0  0  0  0  0  0  0  0  0  0  # atno 7974 bound_to 7965
  155.9658  140.1153  157.0856 H   0  0  0  0  0  0  0  0  0  0  0  0  # atno 8008 bound_to 7997
  154.4143  140.1173  156.5307 H   0  0  0  0  0  0  0  0  0  0  0  0  # atno 8009 bound_to 7997
  155.6661  140.3473  155.4803 H   0  0  0  0  0  0  0  0  0  0  0  0  # atno 8010 bound_to 7997
  139.9313  144.6150  150.8342 H   0  0  0  0  0  0  0  0  0  0  0  0  # atno 10167 bound_to 10162
  156.0057  130.4593  150.3898 H   0  0  0  0  0  0  0  0  0  0  0  0  # atno 10718 bound_to 10713
  154.5070  135.2786  155.1374 H   0  0  0  0  0  0  0  0  0  0  0  0  # atno 10763 bound_to 10752
  154.2985  135.6253  153.5418 H   0  0  0  0  0  0  0  0  0  0  0  0  # atno 10764 bound_to 10752
  152.9912  135.5691  154.5526 H   0  0  0  0  0  0  0  0  0  0  0  0  # atno 10765 bound_to 10752
  140.8475  133.7881  155.9929 H   0  0  0  0  0  0  0  0  0  0  0  0  # atno 11005 bound_to 11000
  145.6932  139.1644  143.2635 LP  0  0  0  0  0  0  0  0  0  0  0  0  # atno 17320 bound_to 7965
  146.1468  140.6981  142.9341 LP  0  0  0  0  0  0  0  0  0  0  0  0  # atno 17321 bound_to 7965
  140.7637  143.3229  151.2582 LP  0  0  0  0  0  0  0  0  0  0  0  0  # atno 17342 bound_to 10162
  139.6780  143.9904  152.2792 LP  0  0  0  0  0  0  0  0  0  0  0  0  # atno 17343 bound_to 10162
  157.1973  131.0429  151.2669 LP  0  0  0  0  0  0  0  0  0  0  0  0  # atno 17370 bound_to 10713
  157.4007  130.7332  149.6765 LP  0  0  0  0  0  0  0  0  0  0  0  0  # atno 17371 bound_to 10713
  140.8827  134.2592  157.5136 LP  0  0  0  0  0  0  0  0  0  0  0  0  # atno 17394 bound_to 11000
  139.8703  134.9623  156.4423 LP  0  0  0  0  0  0  0  0  0  0  0  0  # atno 17395 bound_to 11000

$$$$
