AV-unprocessed.smi:1356|AV-procd|sdf|5545|dock7
  -GOLD-   22720 5133D 1   1.00000     0.00000
 Structure written by MMmdl.
 42 43  0  0  0  0  0  0  0  0  2 V2000
  150.8289  145.0041  160.0573 C   0  0  0  0  0  0  0  0  0  0  0  0
  152.0075  144.7414  159.1362 C   0  0  1  0  0  0  0  0  0  0  0  0
  152.8090  143.4670  159.2510 C   0  0  0  0  0  0  0  0  0  0  0  0
  151.9975  143.7297  157.9974 C   0  0  1  0  0  0  0  0  0  0  0  0
  150.7866  142.8835  157.7537 C   0  0  0  0  0  0  0  0  0  0  0  0
  149.8166  142.8466  158.5120 O   0  0  0  0  0  0  0  0  0  0  0  0
  150.8541  142.1558  156.6297 N   0  0  0  0  0  0  0  0  0  0  0  0
  149.8050  141.2572  156.1683 C   0  0  0  0  0  0  0  0  0  0  0  0
  149.3547  141.6296  154.7468 C   0  0  0  0  0  0  0  0  0  0  0  0
  148.0381  140.9454  154.3756 C   0  0  0  0  0  0  0  0  0  0  0  0
  147.1060  140.9218  155.1788 O   0  0  0  0  0  0  0  0  0  0  0  0
  147.9801  140.3756  153.1623 N   0  0  0  0  0  0  0  0  0  0  0  0
  146.8465  139.6158  152.6421 C   0  0  0  0  0  0  0  0  0  0  0  0
  146.5599  138.3269  153.4420 C   0  0  0  0  0  0  0  0  0  0  0  0
  145.6729  137.3353  152.7083 C   0  0  0  0  0  0  0  0  0  0  0  0
  144.2992  137.1941  153.0049 C   0  0  0  0  0  0  0  0  0  0  0  0
  143.5347  136.2440  152.2967 C   0  0  0  0  0  0  0  0  0  0  0  0
  144.1581  135.4581  151.3054 C   0  0  0  0  0  0  0  0  0  0  0  0
  145.5321  135.6422  151.0480 C   0  0  0  0  0  0  0  0  0  0  0  0
  146.2310  136.5618  151.7494 N   0  3  0  0  0  0  0  0  0  0  0  0
  150.4085  144.0777  160.4475 H   0  0  0  0  0  0  0  0  0  0  0  0
  150.0490  145.5470  159.5230 H   0  0  0  0  0  0  0  0  0  0  0  0
  151.1507  145.6087  160.9052 H   0  0  0  0  0  0  0  0  0  0  0  0
  152.5676  145.6482  158.9162 H   0  0  0  0  0  0  0  0  0  0  0  0
  153.8910  143.5362  159.1606 H   0  0  0  0  0  0  0  0  0  0  0  0
  152.4582  142.7114  159.9518 H   0  0  0  0  0  0  0  0  0  0  0  0
  152.5520  144.0241  157.1074 H   0  0  0  0  0  0  0  0  0  0  0  0
  151.6809  142.2366  156.0554 H   0  0  0  0  0  0  0  0  0  0  0  0
  150.1785  140.2315  156.1871 H   0  0  0  0  0  0  0  0  0  0  0  0
  148.9627  141.3070  156.8607 H   0  0  0  0  0  0  0  0  0  0  0  0
  149.2183  142.7088  154.6670 H   0  0  0  0  0  0  0  0  0  0  0  0
  150.1290  141.3580  154.0273 H   0  0  0  0  0  0  0  0  0  0  0  0
  148.7892  140.4554  152.5632 H   0  0  0  0  0  0  0  0  0  0  0  0
  145.9568  140.2462  152.6034 H   0  0  0  0  0  0  0  0  0  0  0  0
  147.0825  139.3545  151.6103 H   0  0  0  0  0  0  0  0  0  0  0  0
  147.4999  137.8336  153.6926 H   0  0  0  0  0  0  0  0  0  0  0  0
  146.0957  138.5824  154.3953 H   0  0  0  0  0  0  0  0  0  0  0  0
  143.8374  137.8004  153.7710 H   0  0  0  0  0  0  0  0  0  0  0  0
  142.4836  136.1190  152.5125 H   0  0  0  0  0  0  0  0  0  0  0  0
  143.5908  134.7248  150.7510 H   0  0  0  0  0  0  0  0  0  0  0  0
  146.0891  135.0853  150.3088 H   0  0  0  0  0  0  0  0  0  0  0  0
  147.2244  136.6769  151.5471 H   0  0  0  0  0  0  0  0  0  0  0  0
  1  2  1  0  0  0  0
  1 21  1  0  0  0  0
  1 22  1  0  0  0  0
  1 23  1  0  0  0  0
  2  4  1  0  0  0  0
  2  3  1  0  0  0  0
  2 24  1  0  0  0  0
  3  4  1  0  0  0  0
  3 25  1  0  0  0  0
  3 26  1  0  0  0  0
  4  5  1  0  0  0  0
  4 27  1  0  0  0  0
  5  6  2  0  0  0  0
  5  7  1  0  0  0  0
  7  8  1  0  0  0  0
  7 28  1  0  0  0  0
  8  9  1  0  0  0  0
  8 29  1  0  0  0  0
  8 30  1  0  0  0  0
  9 10  1  0  0  0  0
  9 31  1  0  0  0  0
  9 32  1  0  0  0  0
 10 11  2  0  0  0  0
 10 12  1  0  0  0  0
 12 13  1  0  0  0  0
 12 33  1  0  0  0  0
 13 14  1  0  0  0  0
 13 34  1  0  0  0  0
 13 35  1  0  0  0  0
 14 15  1  0  0  0  0
 14 36  1  0  0  0  0
 14 37  1  0  0  0  0
 15 20  1  0  0  0  0
 15 16  2  0  0  0  0
 16 17  1  0  0  0  0
 16 38  1  0  0  0  0
 17 18  2  0  0  0  0
 17 39  1  0  0  0  0
 18 19  1  0  0  0  0
 18 40  1  0  0  0  0
 19 20  2  0  0  0  0
 19 41  1  0  0  0  0
 20 42  1  0  0  0  0
M  CHG  1  20   1
M  END
> <s_m_source_file>
AV-unprocessed.smi

> <i_m_source_file_index>
1356

> <i_lp_mmshare_version>
43012

> <i_f3d_flags>
0

> <s_epik_input>
W0NIM11bQ0BASF0xW0NIMl1bQ0BIXTFDKD1PKVtOSF1bQ0gyXVtDSDJdQyg9TylbTkhdW0NIMl1bQ0gyXWMyW2NIXVtjSF1bY0hdW2NIXW4y

> <s_epik_cmdline>
J2VwaWtfcHl0aG9uJywgJy1waCcsICc3LjAnLCAnLXRuJywgJzgnLCAnLW1hJywgJzIwMCcsICctbWV0YWxfYmluZGluZycsICctaW1hZScsICc8aW5maWxlLm1hZT4nLCAnLW9tYWUnLCAnPG91dGZpbGUubWFlPic=

> <r_epik_Ionization_Penalty>
1.86966

> <r_epik_Ionization_Penalty_Charging>
1.86966

> <r_epik_Ionization_Penalty_Neutral>
5.0403e-08

> <r_epik_State_Penalty>
1.98858

> <r_epik_Charging_Adjusted_Penalty>
3.85824

> <i_epik_Tot_Q>
1

> <i_epik_Tot_abs_Q>
1

> <r_epik_Metal_State_Penalty>
2.01347

> <b_epik_Metal_Only>
0

> <s_lp_Force_Field>
OPLS_2005

> <r_lp_Energy>
15.5699

> <b_lp_Chiralities_Consistent>
1

> <s_lp_Variant>
AV-unprocessed.smi:1356-6

> <Gold.Version>
5.8.1

> <Gold.Id.Protein>
6NUR|6NUR_protein|mol2

> <Gold.PLP.Fitness>
50.7229

> <Gold.PLP.PLP>
-42.7575

> <Gold.PLP.part.hbond>
-2.1272

> <Gold.PLP.part.metal>
0.0000

> <Gold.PLP.part.buried>
-4.8060

> <Gold.PLP.part.nonpolar>
-37.2994

> <Gold.PLP.part.repulsive>
0.4937

> <Gold.PLP.ligand.clash>
0.0000

> <Gold.PLP.ligand.torsion>
0.6290

> <Gold.PLP.Chemscore.Hbond>
3.0000

> <Gold.PLP.Chemscore.CHOScore>
0.0000

> <Gold.PLP.Chemscore.Metal>
0.0000

> <Gold.Chemscore.Hbonds>
donor molecule, donor type, donor heavy atom, donor atom, acceptor molecule, acceptor atom, score
      L1  H    12    33       P1  7957  1.00
      L1  H    20    42       P1  7948  2.00

> <Gold.PLP.Chemscore.Internal.Correction>
0.2234

> <Gold.Rescore>
     Score         DG    S(hbond)    S(metal)    S(lipo)     H(rot)  DE(clash)    DE(int)     intcor
     15.80     -17.86       1.94        0.00     101.18       2.31       0.19       1.86       ----

> <Gold.Chemscore.Fitness>
15.8007

> <Gold.Chemscore.DG>
-17.8571

> <Gold.Chemscore.ZeroCoef>
-5.4800

> <Gold.Chemscore.Hbond>
1.9350

> <Gold.Chemscore.Metal>
0.0000

> <Gold.Chemscore.Lipo>
101.1790

> <Gold.Chemscore.Internal_Hbond>
0.0000

> <Gold.Chemscore.DEClash>
0.1915

> <Gold.Chemscore.DEInternal>
1.8649

> <Gold.Chemscore.Rot>
2.3140

> <Gold.Chemscore.Internal.Correction>
   9.000000E+99

> <Gold.Chemscore.Hbonds>
donor molecule, donor type, donor heavy atom, donor atom, acceptor molecule, acceptor atom, score
      L1  H    12    33       P1  7957  0.94
      L1  H    20    42       P1  7948  0.95

> <Gold.Chemscore.Hbond.Weighted>
-6.4629

> <Gold.Chemscore.Metal.Weighted>
-0.0000

> <Gold.Chemscore.Lipo.Weighted>
-11.8379

> <Gold.Chemscore.Internal_Hbond.Weighted>
0.0000

> <Gold.Chemscore.DEClash.Weighted>
0.1915

> <Gold.Chemscore.DEInternal.Weighted>
1.8649

> <Gold.Chemscore.Rot.Weighted>
5.9238

> <Gold.Chemscore.Internal.Correction.Weighted>
   9.000000E+99

> <Gold.Protein.RotatedTorsions>
[ 6907 6896 6895 6894 ] final  -86.83 input  -60.11 | X-H torsion
[ 7974 7965 7964 7962 ] final   65.37 input  175.53 | X-H torsion
[ 8008 7997 7996 7995 ] final  149.64 input   59.86 | X-H torsion
[ 10167 10162 10161 10158 ] final  116.90 input  -65.29 | X-H torsion
[ 10718 10713 10712 10709 ] final  -64.52 input   66.30 | X-H torsion
[ 10763 10752 10751 10750 ] final  112.99 input  -60.55 | X-H torsion
[ 11005 11000 10999 10996 ] final  -30.02 input  -57.11 | X-H torsion

> <Gold.Protein.ActiveResidues>
 VAL166  LYS551  ARG553  GLY616  TRP617  ASP618  TYR619  PRO620  LYS621  CYS622 
 ASP623  PHE694  ASN695  SER759  ASP760  ASP761  ALA762  ILE779  LEU786  VAL792 
 PHE793  MET794  SER795  GLU796  ALA797  LYS798  CYS799  TRP800  GLU811  SER814 

> <Gold.Protein.RotatedAtoms>
  150.6866  134.2990  159.4698 H   0  0  0  0  0  0  0  0  0  0  0  0  # atno 6907 bound_to 6896
  152.0888  134.9419  160.0581 H   0  0  0  0  0  0  0  0  0  0  0  0  # atno 6908 bound_to 6896
  152.0743  133.4087  159.4510 H   0  0  0  0  0  0  0  0  0  0  0  0  # atno 6909 bound_to 6896
  145.8392  139.3185  143.0941 H   0  0  0  0  0  0  0  0  0  0  0  0  # atno 7974 bound_to 7965
  156.2747  140.2096  156.5891 H   0  0  0  0  0  0  0  0  0  0  0  0  # atno 8008 bound_to 7997
  154.6997  140.0522  157.0469 H   0  0  0  0  0  0  0  0  0  0  0  0  # atno 8009 bound_to 7997
  155.0752  140.3181  155.4621 H   0  0  0  0  0  0  0  0  0  0  0  0  # atno 8010 bound_to 7997
  139.6215  144.7102  151.2623 H   0  0  0  0  0  0  0  0  0  0  0  0  # atno 10167 bound_to 10162
  156.0724  130.4234  150.1432 H   0  0  0  0  0  0  0  0  0  0  0  0  # atno 10718 bound_to 10713
  153.4859  135.3669  155.2467 H   0  0  0  0  0  0  0  0  0  0  0  0  # atno 10763 bound_to 10752
  154.8754  135.3965  154.3645 H   0  0  0  0  0  0  0  0  0  0  0  0  # atno 10764 bound_to 10752
  153.4256  135.7081  153.6330 H   0  0  0  0  0  0  0  0  0  0  0  0  # atno 10765 bound_to 10752
  140.9347  133.7316  156.0987 H   0  0  0  0  0  0  0  0  0  0  0  0  # atno 11005 bound_to 11000
  145.9484  140.8927  143.0272 LP  0  0  0  0  0  0  0  0  0  0  0  0  # atno 17320 bound_to 7965
  144.6734  140.1646  143.7419 LP  0  0  0  0  0  0  0  0  0  0  0  0  # atno 17321 bound_to 7965
  140.7385  143.6646  150.8134 LP  0  0  0  0  0  0  0  0  0  0  0  0  # atno 17342 bound_to 10162
  140.0257  143.5495  152.2781 LP  0  0  0  0  0  0  0  0  0  0  0  0  # atno 17343 bound_to 10162
  156.9480  130.9766  151.3503 LP  0  0  0  0  0  0  0  0  0  0  0  0  # atno 17370 bound_to 10713
  157.5802  130.8371  149.8511 LP  0  0  0  0  0  0  0  0  0  0  0  0  # atno 17371 bound_to 10713
  140.7816  134.3719  157.5486 LP  0  0  0  0  0  0  0  0  0  0  0  0  # atno 17394 bound_to 11000
  139.8805  134.9085  156.2969 LP  0  0  0  0  0  0  0  0  0  0  0  0  # atno 17395 bound_to 11000

$$$$
