AV-unprocessed.smi:3031|AV-procd|sdf|11554|dock5
  -GOLD-   2272016513D 1   1.00000     0.00000
 Structure written by MMmdl.
 46 47  0  0  0  0  0  0  0  0  1 V2000
  143.7651  132.6394  150.7585 C   0  0  0  0  0  0  0  0  0  0  0  0
  144.3527  133.9652  151.1474 C   0  0  0  0  0  0  0  0  0  0  0  0
  144.6864  134.4274  152.4521 C   0  0  0  0  0  0  0  0  0  0  0  0
  145.1846  135.6529  152.4513 N   0  0  0  0  0  0  0  0  0  0  0  0
  145.2057  136.0102  151.1491 N   0  0  0  0  0  0  0  0  0  0  0  0
  145.6817  137.3310  150.7703 C   0  0  0  0  0  0  0  0  0  0  0  0
  146.3562  138.1115  151.9265 C   0  0  1  0  0  0  0  0  0  0  0  0
  146.7816  139.5077  151.4503 C   0  0  0  0  0  0  0  0  0  0  0  0
  145.4926  138.2639  153.1043 N   0  0  0  0  0  0  0  0  0  0  0  0
  146.0346  139.0574  154.2066 C   0  0  0  0  0  0  0  0  0  0  0  0
  147.5019  138.6953  154.4866 C   0  0  2  0  0  0  0  0  0  0  0  0
  147.5006  137.6800  155.4690 O   0  0  0  0  0  0  0  0  0  0  0  0
  148.3031  139.8960  155.0362 C   0  0  0  0  0  0  0  0  0  0  0  0
  149.6785  139.6075  155.4464 N   0  0  0  0  0  0  0  0  0  0  0  0
  150.3132  140.7974  156.0036 C   0  0  0  0  0  0  0  0  0  0  0  0
  151.7596  140.5237  156.4492 C   0  0  0  0  0  0  0  0  0  0  0  0
  152.5100  140.0297  155.3451 O   0  0  0  0  0  0  0  0  0  0  0  0
  151.9532  138.8414  154.7924 C   0  0  0  0  0  0  0  0  0  0  0  0
  150.5026  139.1030  154.3492 C   0  0  0  0  0  0  0  0  0  0  0  0
  144.6891  135.0169  150.3430 C   0  0  0  0  0  0  0  0  0  0  0  0
  143.6735  131.9692  151.6137 H   0  0  0  0  0  0  0  0  0  0  0  0
  144.3801  132.1298  150.0164 H   0  0  0  0  0  0  0  0  0  0  0  0
  142.7692  132.7513  150.3298 H   0  0  0  0  0  0  0  0  0  0  0  0
  144.5779  133.9124  153.3954 H   0  0  0  0  0  0  0  0  0  0  0  0
  146.3976  137.1795  149.9616 H   0  0  0  0  0  0  0  0  0  0  0  0
  144.8614  137.9115  150.3441 H   0  0  0  0  0  0  0  0  0  0  0  0
  147.2694  137.5934  152.2212 H   0  0  0  0  0  0  0  0  0  0  0  0
  147.4851  139.4434  150.6196 H   0  0  0  0  0  0  0  0  0  0  0  0
  147.2724  140.0649  152.2491 H   0  0  0  0  0  0  0  0  0  0  0  0
  145.9238  140.0918  151.1149 H   0  0  0  0  0  0  0  0  0  0  0  0
  144.6006  138.6543  152.8176 H   0  0  0  0  0  0  0  0  0  0  0  0
  145.9674  140.1217  153.9887 H   0  0  0  0  0  0  0  0  0  0  0  0
  145.4417  138.8789  155.1048 H   0  0  0  0  0  0  0  0  0  0  0  0
  147.9465  138.2930  153.5771 H   0  0  0  0  0  0  0  0  0  0  0  0
  146.6230  137.3376  155.5441 H   0  0  0  0  0  0  0  0  0  0  0  0
  148.3205  140.6905  154.2886 H   0  0  0  0  0  0  0  0  0  0  0  0
  147.7538  140.3070  155.8846 H   0  0  0  0  0  0  0  0  0  0  0  0
  150.3108  141.5991  155.2633 H   0  0  0  0  0  0  0  0  0  0  0  0
  149.7376  141.1593  156.8564 H   0  0  0  0  0  0  0  0  0  0  0  0
  152.2239  141.4396  156.8150 H   0  0  0  0  0  0  0  0  0  0  0  0
  151.7827  139.8024  157.2677 H   0  0  0  0  0  0  0  0  0  0  0  0
  152.5583  138.5269  153.9420 H   0  0  0  0  0  0  0  0  0  0  0  0
  151.9924  138.0371  155.5288 H   0  0  0  0  0  0  0  0  0  0  0  0
  150.0905  138.1741  153.9578 H   0  0  0  0  0  0  0  0  0  0  0  0
  150.5010  139.8184  153.5255 H   0  0  0  0  0  0  0  0  0  0  0  0
  144.6085  135.1362  149.2727 H   0  0  0  0  0  0  0  0  0  0  0  0
  1  2  1  0  0  0  0
  1 21  1  0  0  0  0
  1 22  1  0  0  0  0
  1 23  1  0  0  0  0
  2 20  2  0  0  0  0
  2  3  1  0  0  0  0
  3  4  2  0  0  0  0
  3 24  1  0  0  0  0
  4  5  1  0  0  0  0
  5  6  1  0  0  0  0
  5 20  1  0  0  0  0
  6  7  1  0  0  0  0
  6 25  1  0  0  0  0
  6 26  1  0  0  0  0
  7  8  1  0  0  0  0
  7  9  1  0  0  0  0
  7 27  1  0  0  0  0
  8 28  1  0  0  0  0
  8 29  1  0  0  0  0
  8 30  1  0  0  0  0
  9 10  1  0  0  0  0
  9 31  1  0  0  0  0
 10 11  1  0  0  0  0
 10 32  1  0  0  0  0
 10 33  1  0  0  0  0
 11 12  1  0  0  0  0
 11 13  1  0  0  0  0
 11 34  1  0  0  0  0
 12 35  1  0  0  0  0
 13 14  1  0  0  0  0
 13 36  1  0  0  0  0
 13 37  1  0  0  0  0
 14 19  1  0  0  0  0
 14 15  1  0  0  0  0
 15 16  1  0  0  0  0
 15 38  1  0  0  0  0
 15 39  1  0  0  0  0
 16 17  1  0  0  0  0
 16 40  1  0  0  0  0
 16 41  1  0  0  0  0
 17 18  1  0  0  0  0
 18 19  1  0  0  0  0
 18 42  1  0  0  0  0
 18 43  1  0  0  0  0
 19 44  1  0  0  0  0
 19 45  1  0  0  0  0
 20 46  1  0  0  0  0
M  END
> <s_m_source_file>
AV-unprocessed.smi

> <i_m_source_file_index>
3031

> <i_lp_mmshare_version>
43012

> <i_f3d_flags>
0

> <s_epik_input>
W0NIM11jMVtjSF1ubihbY0hdMSlbQ0gyXVtDQEhdKFtDSDNdKVtOSF1bQ0gyXVtDQEhdKFtPSF0pW0NIMl1OMltDSDJdW0NIMl1PW0NIMl1bQ0gyXTI=

> <s_epik_cmdline>
J2VwaWtfcHl0aG9uJywgJy1waCcsICc3LjAnLCAnLXRuJywgJzgnLCAnLW1hJywgJzIwMCcsICctbWV0YWxfYmluZGluZycsICctaW1hZScsICc8aW5maWxlLm1hZT4nLCAnLW9tYWUnLCAnPG91dGZpbGUubWFlPic=

> <r_lp_tautomer_probability>
1

> <r_epik_Ionization_Penalty>
2.8101

> <r_epik_Ionization_Penalty_Charging>
0

> <r_epik_Ionization_Penalty_Neutral>
2.8101

> <r_epik_State_Penalty>
2.12351

> <r_epik_Charging_Adjusted_Penalty>
2.12351

> <i_epik_Tot_Q>
0

> <i_epik_Tot_abs_Q>
0

> <r_epik_Metal_State_Penalty>
2.12345

> <b_epik_Metal_Only>
0

> <s_lp_Force_Field>
OPLS_2005

> <r_lp_Energy>
32.7569

> <b_lp_Chiralities_Consistent>
1

> <s_lp_Variant>
AV-unprocessed.smi:3031-14

> <Gold.Version>
5.8.1

> <Gold.Id.Protein>
6NUR|6NUR_protein|mol2

> <Gold.PLP.Fitness>
41.6433

> <Gold.PLP.PLP>
-33.6436

> <Gold.PLP.part.hbond>
-3.0000

> <Gold.PLP.part.metal>
0.0000

> <Gold.PLP.part.buried>
5.1022

> <Gold.PLP.part.nonpolar>
-35.1488

> <Gold.PLP.part.repulsive>
0.1477

> <Gold.PLP.ligand.clash>
0.0000

> <Gold.PLP.ligand.torsion>
0.5629

> <Gold.PLP.Chemscore.Hbond>
2.0134

> <Gold.PLP.Chemscore.CHOScore>
1.0000

> <Gold.PLP.Chemscore.Metal>
0.0000

> <Gold.Chemscore.Hbonds>
donor molecule, donor type, donor heavy atom, donor atom, acceptor molecule, acceptor atom, score
      L1  H     9    31       P1 10175  0.80
      P1  H  7989  7998       L1    17  0.02
      P1  H  7997  8010       L1    17  0.91
      L1  C    20    46       P1  7921  1.00

> <Gold.PLP.Chemscore.Internal.Correction>
0.0854

> <Gold.Rescore>
     Score         DG    S(hbond)    S(metal)    S(lipo)     H(rot)  DE(clash)    DE(int)     intcor
     12.62     -16.06       1.92        0.00      90.96       2.53       3.03       0.41       ----

> <Gold.Chemscore.Fitness>
12.6195

> <Gold.Chemscore.DG>
-16.0585

> <Gold.Chemscore.ZeroCoef>
-5.4800

> <Gold.Chemscore.Hbond>
1.9225

> <Gold.Chemscore.Metal>
0.0000

> <Gold.Chemscore.Lipo>
90.9612

> <Gold.Chemscore.Internal_Hbond>
0.0000

> <Gold.Chemscore.DEClash>
3.0273

> <Gold.Chemscore.DEInternal>
0.4117

> <Gold.Chemscore.Rot>
2.5333

> <Gold.Chemscore.Internal.Correction>
   9.000000E+99

> <Gold.Chemscore.Hbonds>
donor molecule, donor type, donor heavy atom, donor atom, acceptor molecule, acceptor atom, score
      L1  H     9    31       P1 10175  0.75
      P1  H  7997  8010       L1    17  0.55

> <Gold.Chemscore.Hbond.Weighted>
-6.4212

> <Gold.Chemscore.Metal.Weighted>
-0.0000

> <Gold.Chemscore.Lipo.Weighted>
-10.6425

> <Gold.Chemscore.Internal_Hbond.Weighted>
0.0000

> <Gold.Chemscore.DEClash.Weighted>
3.0273

> <Gold.Chemscore.DEInternal.Weighted>
0.4117

> <Gold.Chemscore.Rot.Weighted>
6.4852

> <Gold.Chemscore.Internal.Correction.Weighted>
   9.000000E+99

> <Gold.Protein.RotatedTorsions>
[ 6907 6896 6895 6894 ] final  -53.73 input  -60.11 | X-H torsion
[ 7974 7965 7964 7962 ] final  152.37 input  175.53 | X-H torsion
[ 8008 7997 7996 7995 ] final  112.54 input   59.86 | X-H torsion
[ 10167 10162 10161 10158 ] final -107.64 input  -65.29 | X-H torsion
[ 10718 10713 10712 10709 ] final   26.62 input   66.30 | X-H torsion
[ 10763 10752 10751 10750 ] final   74.10 input  -60.55 | X-H torsion
[ 11005 11000 10999 10996 ] final  116.17 input  -57.11 | X-H torsion

> <Gold.Protein.ActiveResidues>
 VAL166  LYS551  ARG553  GLY616  TRP617  ASP618  TYR619  PRO620  LYS621  CYS622 
 ASP623  PHE694  ASN695  SER759  ASP760  ASP761  ALA762  ILE779  LEU786  VAL792 
 PHE793  MET794  SER795  GLU796  ALA797  LYS798  CYS799  TRP800  GLU811  SER814 

> <Gold.Protein.RotatedAtoms>
  150.8401  134.7689  159.6924 H   0  0  0  0  0  0  0  0  0  0  0  0  # atno 6907 bound_to 6896
  152.4490  134.5431  159.9854 H   0  0  0  0  0  0  0  0  0  0  0  0  # atno 6908 bound_to 6896
  151.5573  133.3370  159.3000 H   0  0  0  0  0  0  0  0  0  0  0  0  # atno 6909 bound_to 6896
  144.8227  139.6660  143.6093 H   0  0  0  0  0  0  0  0  0  0  0  0  # atno 7974 bound_to 7965
  156.2199  140.2997  155.9928 H   0  0  0  0  0  0  0  0  0  0  0  0  # atno 8008 bound_to 7997
  155.2508  140.0426  157.3003 H   0  0  0  0  0  0  0  0  0  0  0  0  # atno 8009 bound_to 7997
  154.5825  140.2379  155.8042 H   0  0  0  0  0  0  0  0  0  0  0  0  # atno 8010 bound_to 7997
  140.1748  143.4014  152.1327 H   0  0  0  0  0  0  0  0  0  0  0  0  # atno 10167 bound_to 10162
  157.2092  130.6926  149.6221 H   0  0  0  0  0  0  0  0  0  0  0  0  # atno 10718 bound_to 10713
  153.0565  135.5038  154.7992 H   0  0  0  0  0  0  0  0  0  0  0  0  # atno 10763 bound_to 10752
  154.6814  135.2969  154.9609 H   0  0  0  0  0  0  0  0  0  0  0  0  # atno 10764 bound_to 10752
  154.0394  135.6719  153.4841 H   0  0  0  0  0  0  0  0  0  0  0  0  # atno 10765 bound_to 10752
  139.9033  134.9594  156.7157 H   0  0  0  0  0  0  0  0  0  0  0  0  # atno 11005 bound_to 11000
  146.2532  139.6245  142.9413 LP  0  0  0  0  0  0  0  0  0  0  0  0  # atno 17320 bound_to 7965
  145.5070  141.0436  143.2509 LP  0  0  0  0  0  0  0  0  0  0  0  0  # atno 17321 bound_to 7965
  139.5322  144.7171  151.5017 LP  0  0  0  0  0  0  0  0  0  0  0  0  # atno 17342 bound_to 10162
  140.6558  143.8601  150.6834 LP  0  0  0  0  0  0  0  0  0  0  0  0  # atno 17343 bound_to 10162
  155.9692  130.4557  150.5896 LP  0  0  0  0  0  0  0  0  0  0  0  0  # atno 17370 bound_to 10713
  157.3689  131.0762  151.1574 LP  0  0  0  0  0  0  0  0  0  0  0  0  # atno 17371 bound_to 10713
  140.7040  133.9281  155.8042 LP  0  0  0  0  0  0  0  0  0  0  0  0  # atno 17394 bound_to 11000
  141.0350  134.0702  157.3970 LP  0  0  0  0  0  0  0  0  0  0  0  0  # atno 17395 bound_to 11000

$$$$
