AV-unprocessed.smi:3303|AV-procd|sdf|12686|dock6
  -GOLD-   2272019 23D 1   1.00000     0.00000
 Structure written by MMmdl.
 44 45  0  0  0  0  0  0  0  0  2 V2000
  145.7774  135.9421  150.8389 C   0  0  0  0  0  0  0  0  0  0  0  0
  145.1637  134.7468  151.5978 C   0  0  1  0  0  0  0  0  0  0  0  0
  144.1173  134.0165  150.7309 C   0  0  0  0  0  0  0  0  0  0  0  0
  144.7570  133.2431  149.6349 N   0  3  2  0  0  0  0  0  0  0  0  0
  143.7782  132.7146  148.6582 C   0  0  0  0  0  0  0  0  0  0  0  0
  145.7476  132.2361  150.1138 C   0  0  2  0  0  0  0  0  0  0  0  0
  145.1052  131.0248  150.8241 C   0  0  0  0  0  0  0  0  0  0  0  0
  146.8230  132.9208  150.9815 C   0  0  0  0  0  0  0  0  0  0  0  0
  146.2048  133.7302  152.1370 C   0  0  1  0  0  0  0  0  0  0  0  0
  147.2815  134.3596  152.8947 N   0  0  0  0  0  0  0  0  0  0  0  0
  148.2929  133.4000  153.3142 C   0  0  0  0  0  0  0  0  0  0  0  0
  149.1857  134.0314  154.3908 C   0  0  0  0  0  0  0  0  0  0  0  0
  150.0737  133.0041  155.0665 C   0  0  0  0  0  0  0  0  0  0  0  0
  150.0154  131.6445  154.6923 C   0  0  0  0  0  0  0  0  0  0  0  0
  150.8682  130.7324  155.3434 C   0  0  0  0  0  0  0  0  0  0  0  0
  151.7424  131.2120  156.3374 C   0  0  0  0  0  0  0  0  0  0  0  0
  151.7253  132.5890  156.6371 C   0  0  0  0  0  0  0  0  0  0  0  0
  150.9122  133.4723  156.0186 N   0  0  0  0  0  0  0  0  0  0  0  0
  146.3348  135.6257  149.9576 H   0  0  0  0  0  0  0  0  0  0  0  0
  146.4559  136.5139  151.4723 H   0  0  0  0  0  0  0  0  0  0  0  0
  145.0007  136.6297  150.5042 H   0  0  0  0  0  0  0  0  0  0  0  0
  144.6216  135.1628  152.4473 H   0  0  0  0  0  0  0  0  0  0  0  0
  143.5159  133.3501  151.3496 H   0  0  0  0  0  0  0  0  0  0  0  0
  143.4227  134.7430  150.3067 H   0  0  0  0  0  0  0  0  0  0  0  0
  143.0572  132.0495  149.1341 H   0  0  0  0  0  0  0  0  0  0  0  0
  144.2818  132.1665  147.8614 H   0  0  0  0  0  0  0  0  0  0  0  0
  143.2246  133.5334  148.1976 H   0  0  0  0  0  0  0  0  0  0  0  0
  146.2562  131.8491  149.2298 H   0  0  0  0  0  0  0  0  0  0  0  0
  145.8720  130.3251  151.1575 H   0  0  0  0  0  0  0  0  0  0  0  0
  144.4428  130.4703  150.1597 H   0  0  0  0  0  0  0  0  0  0  0  0
  144.5296  131.3135  151.7028 H   0  0  0  0  0  0  0  0  0  0  0  0
  147.5121  132.1716  151.3738 H   0  0  0  0  0  0  0  0  0  0  0  0
  147.4262  133.5765  150.3520 H   0  0  0  0  0  0  0  0  0  0  0  0
  145.6987  133.0275  152.8004 H   0  0  0  0  0  0  0  0  0  0  0  0
  147.7235  135.0654  152.3223 H   0  0  0  0  0  0  0  0  0  0  0  0
  147.8222  132.5021  153.7137 H   0  0  0  0  0  0  0  0  0  0  0  0
  148.8972  133.1025  152.4561 H   0  0  0  0  0  0  0  0  0  0  0  0
  149.8143  134.8082  153.9524 H   0  0  0  0  0  0  0  0  0  0  0  0
  148.5708  134.5234  155.1459 H   0  0  0  0  0  0  0  0  0  0  0  0
  149.3358  131.3069  153.9237 H   0  0  0  0  0  0  0  0  0  0  0  0
  150.8519  129.6841  155.0840 H   0  0  0  0  0  0  0  0  0  0  0  0
  152.4105  130.5414  156.8570 H   0  0  0  0  0  0  0  0  0  0  0  0
  152.3826  132.9917  157.3933 H   0  0  0  0  0  0  0  0  0  0  0  0
  145.3030  133.9194  149.1201 H   0  0  0  0  0  0  0  0  0  0  0  0
  1  2  1  0  0  0  0
  1 19  1  0  0  0  0
  1 20  1  0  0  0  0
  1 21  1  0  0  0  0
  2  9  1  0  0  0  0
  2  3  1  0  0  0  0
  2 22  1  0  0  0  0
  3  4  1  0  0  0  0
  3 23  1  0  0  0  0
  3 24  1  0  0  0  0
  4  5  1  0  0  0  0
  4  6  1  0  0  0  0
  4 44  1  0  0  0  0
  5 25  1  0  0  0  0
  5 26  1  0  0  0  0
  5 27  1  0  0  0  0
  6  7  1  0  0  0  0
  6  8  1  0  0  0  0
  6 28  1  0  0  0  0
  7 29  1  0  0  0  0
  7 30  1  0  0  0  0
  7 31  1  0  0  0  0
  8  9  1  0  0  0  0
  8 32  1  0  0  0  0
  8 33  1  0  0  0  0
  9 10  1  0  0  0  0
  9 34  1  0  0  0  0
 10 11  1  0  0  0  0
 10 35  1  0  0  0  0
 11 12  1  0  0  0  0
 11 36  1  0  0  0  0
 11 37  1  0  0  0  0
 12 13  1  0  0  0  0
 12 38  1  0  0  0  0
 12 39  1  0  0  0  0
 13 18  1  0  0  0  0
 13 14  2  0  0  0  0
 14 15  1  0  0  0  0
 14 40  1  0  0  0  0
 15 16  2  0  0  0  0
 15 41  1  0  0  0  0
 16 17  1  0  0  0  0
 16 42  1  0  0  0  0
 17 18  2  0  0  0  0
 17 43  1  0  0  0  0
M  CHG  1   4   1
M  END
> <s_m_source_file>
AV-unprocessed.smi

> <i_m_source_file_index>
3303

> <i_lp_mmshare_version>
43012

> <i_f3d_flags>
0

> <s_epik_input>
W0NIM11bQ0BASF0xW0NIMl1OKFtDSDNdKVtDQEBIXShbQ0gzXSlbQ0gyXVtDQEhdMVtOSF1bQ0gyXVtDSDJdYzJbY0hdW2NIXVtjSF1bY0hdbjI=

> <s_epik_cmdline>
J2VwaWtfcHl0aG9uJywgJy1waCcsICc3LjAnLCAnLXRuJywgJzgnLCAnLW1hJywgJzIwMCcsICctbWV0YWxfYmluZGluZycsICctaW1hZScsICc8aW5maWxlLm1hZT4nLCAnLW9tYWUnLCAnPG91dGZpbGUubWFlPic=

> <r_epik_Ionization_Penalty>
2.31085

> <r_epik_Ionization_Penalty_Charging>
0.000313057

> <r_epik_Ionization_Penalty_Neutral>
2.31054

> <r_epik_State_Penalty>
2.4087

> <r_epik_Charging_Adjusted_Penalty>
2.40902

> <i_epik_Tot_Q>
1

> <i_epik_Tot_abs_Q>
1

> <r_epik_Metal_State_Penalty>
2.30979

> <b_epik_Metal_Only>
0

> <s_lp_Force_Field>
OPLS_2005

> <r_lp_Energy>
26.3275

> <b_lp_Chiralities_Consistent>
1

> <s_lp_Variant>
AV-unprocessed.smi:3303-30

> <Gold.Version>
5.8.1

> <Gold.Id.Protein>
6NUR|6NUR_protein|mol2

> <Gold.PLP.Fitness>
43.6012

> <Gold.PLP.PLP>
-37.7988

> <Gold.PLP.part.hbond>
-2.0000

> <Gold.PLP.part.metal>
0.0000

> <Gold.PLP.part.buried>
-3.3407

> <Gold.PLP.part.nonpolar>
-32.4102

> <Gold.PLP.part.repulsive>
0.1261

> <Gold.PLP.ligand.clash>
0.0000

> <Gold.PLP.ligand.torsion>
0.1019

> <Gold.PLP.Chemscore.Hbond>
2.0000

> <Gold.PLP.Chemscore.CHOScore>
0.0000

> <Gold.PLP.Chemscore.Metal>
0.0000

> <Gold.Chemscore.Hbonds>
donor molecule, donor type, donor heavy atom, donor atom, acceptor molecule, acceptor atom, score
      L1  H     4    44       P1  7921  1.00
      L1  H    10    35       P1  7948  1.00

> <Gold.PLP.Chemscore.Internal.Correction>
0.0062

> <Gold.Rescore>
     Score         DG    S(hbond)    S(metal)    S(lipo)     H(rot)  DE(clash)    DE(int)     intcor
     20.35     -20.53       1.90        0.00     103.28       1.33       0.09       0.08       ----

> <Gold.Chemscore.Fitness>
20.3494

> <Gold.Chemscore.DG>
-20.5258

> <Gold.Chemscore.ZeroCoef>
-5.4800

> <Gold.Chemscore.Hbond>
1.9042

> <Gold.Chemscore.Metal>
0.0000

> <Gold.Chemscore.Lipo>
103.2760

> <Gold.Chemscore.Internal_Hbond>
0.0000

> <Gold.Chemscore.DEClash>
0.0926

> <Gold.Chemscore.DEInternal>
0.0838

> <Gold.Chemscore.Rot>
1.3272

> <Gold.Chemscore.Internal.Correction>
   9.000000E+99

> <Gold.Chemscore.Hbonds>
donor molecule, donor type, donor heavy atom, donor atom, acceptor molecule, acceptor atom, score
      L1  H     4    44       P1  7921  0.85
      L1  H    10    35       P1  7948  0.95

> <Gold.Chemscore.Hbond.Weighted>
-6.3602

> <Gold.Chemscore.Metal.Weighted>
-0.0000

> <Gold.Chemscore.Lipo.Weighted>
-12.0833

> <Gold.Chemscore.Internal_Hbond.Weighted>
0.0000

> <Gold.Chemscore.DEClash.Weighted>
0.0926

> <Gold.Chemscore.DEInternal.Weighted>
0.0838

> <Gold.Chemscore.Rot.Weighted>
3.3976

> <Gold.Chemscore.Internal.Correction.Weighted>
   9.000000E+99

> <Gold.Protein.RotatedTorsions>
[ 6907 6896 6895 6894 ] final   43.46 input  -60.11 | X-H torsion
[ 7974 7965 7964 7962 ] final   81.74 input  175.53 | X-H torsion
[ 8008 7997 7996 7995 ] final -161.10 input   59.86 | X-H torsion
[ 10167 10162 10161 10158 ] final -128.94 input  -65.29 | X-H torsion
[ 10718 10713 10712 10709 ] final   52.09 input   66.30 | X-H torsion
[ 10763 10752 10751 10750 ] final  103.15 input  -60.55 | X-H torsion
[ 11005 11000 10999 10996 ] final   10.39 input  -57.11 | X-H torsion

> <Gold.Protein.ActiveResidues>
 VAL166  LYS551  ARG553  GLY616  TRP617  ASP618  TYR619  PRO620  LYS621  CYS622 
 ASP623  PHE694  ASN695  SER759  ASP760  ASP761  ALA762  ILE779  LEU786  VAL792 
 PHE793  MET794  SER795  GLU796  ALA797  LYS798  CYS799  TRP800  GLU811  SER814 

> <Gold.Protein.RotatedAtoms>
  152.2205  134.8417  160.0486 H   0  0  0  0  0  0  0  0  0  0  0  0  # atno 6907 bound_to 6896
  151.9202  133.3578  159.3902 H   0  0  0  0  0  0  0  0  0  0  0  0  # atno 6908 bound_to 6896
  150.6999  134.4568  159.5406 H   0  0  0  0  0  0  0  0  0  0  0  0  # atno 6909 bound_to 6896
  145.6342  139.2411  143.2067 H   0  0  0  0  0  0  0  0  0  0  0  0  # atno 7974 bound_to 7965
  155.7872  140.0873  157.2028 H   0  0  0  0  0  0  0  0  0  0  0  0  # atno 8008 bound_to 7997
  154.3987  140.1497  156.3179 H   0  0  0  0  0  0  0  0  0  0  0  0  # atno 8009 bound_to 7997
  155.8595  140.3431  155.5749 H   0  0  0  0  0  0  0  0  0  0  0  0  # atno 8010 bound_to 7997
  139.9450  143.6120  152.2492 H   0  0  0  0  0  0  0  0  0  0  0  0  # atno 10167 bound_to 10162
  157.5042  130.8458  149.8354 H   0  0  0  0  0  0  0  0  0  0  0  0  # atno 10718 bound_to 10713
  153.3488  135.3986  155.1630 H   0  0  0  0  0  0  0  0  0  0  0  0  # atno 10763 bound_to 10752
  154.8658  135.3651  154.5249 H   0  0  0  0  0  0  0  0  0  0  0  0  # atno 10764 bound_to 10752
  153.5699  135.7079  153.5569 H   0  0  0  0  0  0  0  0  0  0  0  0  # atno 10765 bound_to 10752
  140.5150  134.0614  155.7829 H   0  0  0  0  0  0  0  0  0  0  0  0  # atno 11005 bound_to 11000
  146.1332  140.7157  142.9402 LP  0  0  0  0  0  0  0  0  0  0  0  0  # atno 17320 bound_to 7965
  144.7182  140.4282  143.7028 LP  0  0  0  0  0  0  0  0  0  0  0  0  # atno 17321 bound_to 7965
  139.6674  144.7662  151.1847 LP  0  0  0  0  0  0  0  0  0  0  0  0  # atno 17342 bound_to 10162
  140.7600  143.5917  150.8790 LP  0  0  0  0  0  0  0  0  0  0  0  0  # atno 17343 bound_to 10162
  156.0248  130.3783  150.1856 LP  0  0  0  0  0  0  0  0  0  0  0  0  # atno 17370 bound_to 10713
  157.0045  130.9932  151.3382 LP  0  0  0  0  0  0  0  0  0  0  0  0  # atno 17371 bound_to 10713
  141.1365  133.9213  157.2422 LP  0  0  0  0  0  0  0  0  0  0  0  0  # atno 17394 bound_to 11000
  139.9637  135.0147  156.9330 LP  0  0  0  0  0  0  0  0  0  0  0  0  # atno 17395 bound_to 11000

$$$$
