AV-unprocessed.smi:485|AV-procd|sdf|2691|dock9
  -GOLD-   2262023123D 1   1.00000     0.00000
 Structure written by MMmdl.
 36 38  0  0  0  0  0  0  0  0  1 V2000
  153.2112  138.9754  157.4693 O   0  0  0  0  0  0  0  0  0  0  0  0
  151.8909  139.4536  157.6083 C   0  0  0  0  0  0  0  0  0  0  0  0
  151.8245  140.8388  158.1777 C   0  0  0  0  0  0  0  0  0  0  0  0
  152.2037  141.0975  159.4300 N   0  0  0  0  0  0  0  0  0  0  0  0
  152.0087  142.4606  159.5324 C   0  0  0  0  0  0  0  0  0  0  0  0
  152.2301  143.3406  160.6160 C   0  0  0  0  0  0  0  0  0  0  0  0
  151.9611  144.7187  160.4830 C   0  0  0  0  0  0  0  0  0  0  0  0
  151.4703  145.2357  159.2668 C   0  0  0  0  0  0  0  0  0  0  0  0
  151.2422  144.3760  158.1751 C   0  0  0  0  0  0  0  0  0  0  0  0
  151.5079  143.0002  158.3143 C   0  0  0  0  0  0  0  0  0  0  0  0
  151.3894  141.9075  157.4603 N   0  0  0  0  0  0  0  0  0  0  0  0
  150.9099  141.9489  156.0834 C   0  0  0  0  0  0  0  0  0  0  0  0
  149.9504  140.7887  155.7465 C   0  0  2  0  0  0  0  0  0  0  0  0
  150.4359  140.0594  154.6367 O   0  0  0  0  0  0  0  0  0  0  0  0
  148.5321  141.2913  155.5275 C   0  0  0  0  0  0  0  0  0  0  0  0
  148.0158  141.3985  154.2181 C   0  0  0  0  0  0  0  0  0  0  0  0
  146.7008  141.8579  154.0087 C   0  0  0  0  0  0  0  0  0  0  0  0
  145.8938  142.2102  155.1076 C   0  0  0  0  0  0  0  0  0  0  0  0
  146.4015  142.1007  156.4163 C   0  0  0  0  0  0  0  0  0  0  0  0
  147.7164  141.6415  156.6262 C   0  0  0  0  0  0  0  0  0  0  0  0
  153.2457  138.0902  157.7976 H   0  0  0  0  0  0  0  0  0  0  0  0
  151.4181  139.4458  156.6257 H   0  0  0  0  0  0  0  0  0  0  0  0
  151.3156  138.7709  158.2332 H   0  0  0  0  0  0  0  0  0  0  0  0
  152.6087  142.9544  161.5509 H   0  0  0  0  0  0  0  0  0  0  0  0
  152.1340  145.3820  161.3177 H   0  0  0  0  0  0  0  0  0  0  0  0
  151.2687  146.2927  159.1721 H   0  0  0  0  0  0  0  0  0  0  0  0
  150.8675  144.7703  157.2425 H   0  0  0  0  0  0  0  0  0  0  0  0
  150.4015  142.9026  155.9367 H   0  0  0  0  0  0  0  0  0  0  0  0
  151.7546  141.9485  155.3959 H   0  0  0  0  0  0  0  0  0  0  0  0
  149.9329  140.0900  156.5832 H   0  0  0  0  0  0  0  0  0  0  0  0
  149.7914  139.4108  154.3997 H   0  0  0  0  0  0  0  0  0  0  0  0
  148.6259  141.1285  153.3683 H   0  0  0  0  0  0  0  0  0  0  0  0
  146.3107  141.9396  153.0048 H   0  0  0  0  0  0  0  0  0  0  0  0
  144.8856  142.5625  154.9464 H   0  0  0  0  0  0  0  0  0  0  0  0
  145.7826  142.3688  157.2598 H   0  0  0  0  0  0  0  0  0  0  0  0
  148.0968  141.5574  157.6339 H   0  0  0  0  0  0  0  0  0  0  0  0
  1  2  1  0  0  0  0
  1 21  1  0  0  0  0
  2  3  1  0  0  0  0
  2 22  1  0  0  0  0
  2 23  1  0  0  0  0
  3 11  1  0  0  0  0
  3  4  2  0  0  0  0
  4  5  1  0  0  0  0
  5 10  2  0  0  0  0
  5  6  1  0  0  0  0
  6  7  2  0  0  0  0
  6 24  1  0  0  0  0
  7  8  1  0  0  0  0
  7 25  1  0  0  0  0
  8  9  2  0  0  0  0
  8 26  1  0  0  0  0
  9 10  1  0  0  0  0
  9 27  1  0  0  0  0
 10 11  1  0  0  0  0
 11 12  1  0  0  0  0
 12 13  1  0  0  0  0
 12 28  1  0  0  0  0
 12 29  1  0  0  0  0
 13 14  1  0  0  0  0
 13 15  1  0  0  0  0
 13 30  1  0  0  0  0
 14 31  1  0  0  0  0
 15 20  1  0  0  0  0
 15 16  2  0  0  0  0
 16 17  1  0  0  0  0
 16 32  1  0  0  0  0
 17 18  2  0  0  0  0
 17 33  1  0  0  0  0
 18 19  1  0  0  0  0
 18 34  1  0  0  0  0
 19 20  2  0  0  0  0
 19 35  1  0  0  0  0
 20 36  1  0  0  0  0
M  END
> <s_m_source_file>
AV-unprocessed.smi

> <i_m_source_file_index>
485

> <i_lp_mmshare_version>
43012

> <i_f3d_flags>
0

> <s_epik_input>
W2NIXTFbY0hdW2NIXVtjSF1jKGMxMiluKGMobjIpW0NIMl1bT0hdKVtDSDJdW0NASF0oW09IXSljM1tjSF1bY0hdW2NIXVtjSF1bY0hdMw==

> <s_epik_cmdline>
J2VwaWtfcHl0aG9uJywgJy1waCcsICc3LjAnLCAnLXRuJywgJzgnLCAnLW1hJywgJzIwMCcsICctbWV0YWxfYmluZGluZycsICctaW1hZScsICc8aW5maWxlLm1hZT4nLCAnLW9tYWUnLCAnPG91dGZpbGUubWFlPic=

> <r_epik_Ionization_Penalty>
0.0634722

> <r_epik_Ionization_Penalty_Charging>
0

> <r_epik_Ionization_Penalty_Neutral>
0.0634722

> <r_epik_State_Penalty>
0.0551572

> <r_epik_Charging_Adjusted_Penalty>
0.0551572

> <i_epik_Tot_Q>
0

> <i_epik_Tot_abs_Q>
0

> <r_epik_Metal_State_Penalty>
5.78034e-05

> <b_epik_Metal_Only>
0

> <s_lp_Force_Field>
OPLS_2005

> <r_lp_Energy>
12.7627

> <b_lp_Chiralities_Consistent>
1

> <s_lp_Variant>
AV-unprocessed.smi:485-1

> <Gold.Version>
5.8.1

> <Gold.Id.Protein>
6NUR|6NUR_protein|mol2

> <Gold.PLP.Fitness>
49.2480

> <Gold.PLP.PLP>
-46.2367

> <Gold.PLP.part.hbond>
-2.0000

> <Gold.PLP.part.metal>
0.0000

> <Gold.PLP.part.buried>
-7.8157

> <Gold.PLP.part.nonpolar>
-36.3485

> <Gold.PLP.part.repulsive>
0.0000

> <Gold.PLP.ligand.clash>
0.0000

> <Gold.PLP.ligand.torsion>
1.5089

> <Gold.PLP.Chemscore.Hbond>
2.0000

> <Gold.PLP.Chemscore.CHOScore>
0.0000

> <Gold.PLP.Chemscore.Metal>
0.0000

> <Gold.Chemscore.Hbonds>
donor molecule, donor type, donor heavy atom, donor atom, acceptor molecule, acceptor atom, score
      P1  H  7989  7998       L1    14  1.00
      P1  H  7997  8009       L1     1  1.00

> <Gold.PLP.Chemscore.Internal.Correction>
0.0291

> <Gold.Rescore>
     Score         DG    S(hbond)    S(metal)    S(lipo)     H(rot)  DE(clash)    DE(int)     intcor
     16.71     -19.05       1.95        0.00     117.61       2.62       0.12       2.22       ----

> <Gold.Chemscore.Fitness>
16.7078

> <Gold.Chemscore.DG>
-19.0459

> <Gold.Chemscore.ZeroCoef>
-5.4800

> <Gold.Chemscore.Hbond>
1.9524

> <Gold.Chemscore.Metal>
0.0000

> <Gold.Chemscore.Lipo>
117.6095

> <Gold.Chemscore.Internal_Hbond>
0.0000

> <Gold.Chemscore.DEClash>
0.1191

> <Gold.Chemscore.DEInternal>
2.2190

> <Gold.Chemscore.Rot>
2.6232

> <Gold.Chemscore.Internal.Correction>
   9.000000E+99

> <Gold.Chemscore.Hbonds>
donor molecule, donor type, donor heavy atom, donor atom, acceptor molecule, acceptor atom, score
      P1  H  7989  7998       L1    14  0.97
      P1  H  7997  8009       L1     1  0.97

> <Gold.Chemscore.Hbond.Weighted>
-6.5210

> <Gold.Chemscore.Metal.Weighted>
-0.0000

> <Gold.Chemscore.Lipo.Weighted>
-13.7603

> <Gold.Chemscore.Internal_Hbond.Weighted>
0.0000

> <Gold.Chemscore.DEClash.Weighted>
0.1191

> <Gold.Chemscore.DEInternal.Weighted>
2.2190

> <Gold.Chemscore.Rot.Weighted>
6.7154

> <Gold.Chemscore.Internal.Correction.Weighted>
   9.000000E+99

> <Gold.Protein.RotatedTorsions>
[ 6907 6896 6895 6894 ] final -166.96 input  -60.11 | X-H torsion
[ 7974 7965 7964 7962 ] final  146.11 input  175.53 | X-H torsion
[ 8008 7997 7996 7995 ] final  172.65 input   59.86 | X-H torsion
[ 10167 10162 10161 10158 ] final   43.02 input  -65.29 | X-H torsion
[ 10718 10713 10712 10709 ] final  170.96 input   66.30 | X-H torsion
[ 10763 10752 10751 10750 ] final  -81.76 input  -60.55 | X-H torsion
[ 11005 11000 10999 10996 ] final  -13.12 input  -57.11 | X-H torsion

> <Gold.Protein.ActiveResidues>
 VAL166  LYS551  ARG553  GLY616  TRP617  ASP618  TYR619  PRO620  LYS621  CYS622 
 ASP623  PHE694  ASN695  SER759  ASP760  ASP761  ALA762  ILE779  LEU786  VAL792 
 PHE793  MET794  SER795  GLU796  ALA797  LYS798  CYS799  TRP800  GLU811  SER814 

> <Gold.Protein.RotatedAtoms>
  151.4519  133.3615  159.2796 H   0  0  0  0  0  0  0  0  0  0  0  0  # atno 6907 bound_to 6896
  150.9085  134.8502  159.7419 H   0  0  0  0  0  0  0  0  0  0  0  0  # atno 6908 bound_to 6896
  152.4919  134.4447  159.9607 H   0  0  0  0  0  0  0  0  0  0  0  0  # atno 6909 bound_to 6896
  144.8697  139.5865  143.5892 H   0  0  0  0  0  0  0  0  0  0  0  0  # atno 7974 bound_to 7965
  156.1154  140.1480  156.9280 H   0  0  0  0  0  0  0  0  0  0  0  0  # atno 8008 bound_to 7997
  154.4796  140.0883  156.7389 H   0  0  0  0  0  0  0  0  0  0  0  0  # atno 8009 bound_to 7997
  155.4523  140.3435  155.4304 H   0  0  0  0  0  0  0  0  0  0  0  0  # atno 8010 bound_to 7997
  140.3485  144.2380  150.6148 H   0  0  0  0  0  0  0  0  0  0  0  0  # atno 10167 bound_to 10162
  157.0006  131.0175  151.2832 H   0  0  0  0  0  0  0  0  0  0  0  0  # atno 10718 bound_to 10713
  154.5675  135.5615  153.7064 H   0  0  0  0  0  0  0  0  0  0  0  0  # atno 10763 bound_to 10752
  153.0037  135.6289  154.2160 H   0  0  0  0  0  0  0  0  0  0  0  0  # atno 10764 bound_to 10752
  154.2099  135.2874  155.2942 H   0  0  0  0  0  0  0  0  0  0  0  0  # atno 10765 bound_to 10752
  140.7728  133.8425  155.9222 H   0  0  0  0  0  0  0  0  0  0  0  0  # atno 11005 bound_to 11000
  146.2921  139.7171  142.9153 LP  0  0  0  0  0  0  0  0  0  0  0  0  # atno 17320 bound_to 7965
  145.4154  141.0401  143.2994 LP  0  0  0  0  0  0  0  0  0  0  0  0  # atno 17321 bound_to 7965
  140.5241  143.2258  151.8342 LP  0  0  0  0  0  0  0  0  0  0  0  0  # atno 17342 bound_to 10162
  139.4830  144.4800  151.9318 LP  0  0  0  0  0  0  0  0  0  0  0  0  # atno 17343 bound_to 10162
  157.5393  130.8109  149.8010 LP  0  0  0  0  0  0  0  0  0  0  0  0  # atno 17370 bound_to 10713
  156.0173  130.3809  150.2072 LP  0  0  0  0  0  0  0  0  0  0  0  0  # atno 17371 bound_to 10713
  140.9557  134.1721  157.4693 LP  0  0  0  0  0  0  0  0  0  0  0  0  # atno 17394 bound_to 11000
  139.8753  134.9926  156.5604 LP  0  0  0  0  0  0  0  0  0  0  0  0  # atno 17395 bound_to 11000

$$$$
