AV-unprocessed.smi:571|AV-procd|sdf|2963|dock4
  -GOLD-   2262023463D 1   1.00000     0.00000
 Structure written by MMmdl.
 44 45  0  0  0  0  0  0  0  0  2 V2000
  147.0336  141.0597  153.6967 C   0  0  0  0  0  0  0  0  0  0  0  0
  147.9067  139.8011  153.5646 C   0  0  2  0  0  0  0  0  0  0  0  0
  147.2322  138.5480  154.1813 C   0  0  0  0  0  0  0  0  0  0  0  0
  146.8702  137.5185  153.1723 N   0  3  0  0  0  0  0  0  0  0  0  0
  146.1383  136.3681  153.7609 C   0  0  0  0  0  0  0  0  0  0  0  0
  145.9474  135.2504  152.7220 C   0  0  0  0  0  0  0  0  0  0  0  0
  145.2252  135.7779  151.4750 C   0  0  0  0  0  0  0  0  0  0  0  0
  145.9748  136.9911  150.9082 C   0  0  0  0  0  0  0  0  0  0  0  0
  146.1693  138.0725  151.9845 C   0  0  0  0  0  0  0  0  0  0  0  0
  149.2652  140.0377  154.0651 N   0  0  0  0  0  0  0  0  0  0  0  0
  149.6262  140.3046  155.3316 C   0  0  0  0  0  0  0  0  0  0  0  0
  148.8187  140.4323  156.2521 O   0  0  0  0  0  0  0  0  0  0  0  0
  151.1331  140.4318  155.5884 C   0  0  0  0  0  0  0  0  0  0  0  0
  151.4279  140.9879  156.9186 N   0  0  0  0  0  0  0  0  0  0  0  0
  150.8130  142.2153  157.2391 C   0  0  0  0  0  0  0  0  0  0  0  0
  151.0195  142.8272  158.4156 C   0  0  0  0  0  0  0  0  0  0  0  0
  151.8997  142.1934  159.3686 C   0  0  0  0  0  0  0  0  0  0  0  0
  152.4968  141.0223  159.0702 C   0  0  0  0  0  0  0  0  0  0  0  0
  152.2795  140.3531  157.7822 C   0  0  0  0  0  0  0  0  0  0  0  0
  152.8322  139.2908  157.4968 O   0  0  0  0  0  0  0  0  0  0  0  0
  146.0608  140.9098  153.2278 H   0  0  0  0  0  0  0  0  0  0  0  0
  147.5032  141.9165  153.2123 H   0  0  0  0  0  0  0  0  0  0  0  0
  146.8587  141.3227  154.7403 H   0  0  0  0  0  0  0  0  0  0  0  0
  148.0288  139.6153  152.4974 H   0  0  0  0  0  0  0  0  0  0  0  0
  147.9258  138.1046  154.8972 H   0  0  0  0  0  0  0  0  0  0  0  0
  146.3508  138.8302  154.7593 H   0  0  0  0  0  0  0  0  0  0  0  0
  146.6958  135.9708  154.6100 H   0  0  0  0  0  0  0  0  0  0  0  0
  145.1726  136.7042  154.1418 H   0  0  0  0  0  0  0  0  0  0  0  0
  146.9198  134.8446  152.4391 H   0  0  0  0  0  0  0  0  0  0  0  0
  145.3838  134.4258  153.1594 H   0  0  0  0  0  0  0  0  0  0  0  0
  145.1504  134.9937  150.7209 H   0  0  0  0  0  0  0  0  0  0  0  0
  144.2043  136.0626  151.7329 H   0  0  0  0  0  0  0  0  0  0  0  0
  146.9472  136.6750  150.5274 H   0  0  0  0  0  0  0  0  0  0  0  0
  145.4290  137.4035  150.0589 H   0  0  0  0  0  0  0  0  0  0  0  0
  145.2045  138.4830  152.2863 H   0  0  0  0  0  0  0  0  0  0  0  0
  146.7436  138.8946  151.5584 H   0  0  0  0  0  0  0  0  0  0  0  0
  150.0061  139.9740  153.3813 H   0  0  0  0  0  0  0  0  0  0  0  0
  151.6044  139.4518  155.4948 H   0  0  0  0  0  0  0  0  0  0  0  0
  151.5725  141.0353  154.7928 H   0  0  0  0  0  0  0  0  0  0  0  0
  150.1747  142.6237  156.4687 H   0  0  0  0  0  0  0  0  0  0  0  0
  150.5425  143.7693  158.6427 H   0  0  0  0  0  0  0  0  0  0  0  0
  152.0805  142.6602  160.3256 H   0  0  0  0  0  0  0  0  0  0  0  0
  153.1525  140.5632  159.7956 H   0  0  0  0  0  0  0  0  0  0  0  0
  147.7471  137.1422  152.8412 H   0  0  0  0  0  0  0  0  0  0  0  0
  1  2  1  0  0  0  0
  1 21  1  0  0  0  0
  1 22  1  0  0  0  0
  1 23  1  0  0  0  0
  2  3  1  0  0  0  0
  2 10  1  0  0  0  0
  2 24  1  0  0  0  0
  3  4  1  0  0  0  0
  3 25  1  0  0  0  0
  3 26  1  0  0  0  0
  4  9  1  0  0  0  0
  4  5  1  0  0  0  0
  4 44  1  0  0  0  0
  5  6  1  0  0  0  0
  5 27  1  0  0  0  0
  5 28  1  0  0  0  0
  6  7  1  0  0  0  0
  6 29  1  0  0  0  0
  6 30  1  0  0  0  0
  7  8  1  0  0  0  0
  7 31  1  0  0  0  0
  7 32  1  0  0  0  0
  8  9  1  0  0  0  0
  8 33  1  0  0  0  0
  8 34  1  0  0  0  0
  9 35  1  0  0  0  0
  9 36  1  0  0  0  0
 10 11  1  0  0  0  0
 10 37  1  0  0  0  0
 11 12  2  0  0  0  0
 11 13  1  0  0  0  0
 13 14  1  0  0  0  0
 13 38  1  0  0  0  0
 13 39  1  0  0  0  0
 14 19  1  0  0  0  0
 14 15  1  0  0  0  0
 15 16  2  0  0  0  0
 15 40  1  0  0  0  0
 16 17  1  0  0  0  0
 16 41  1  0  0  0  0
 17 18  2  0  0  0  0
 17 42  1  0  0  0  0
 18 19  1  0  0  0  0
 18 43  1  0  0  0  0
 19 20  2  0  0  0  0
M  CHG  1   4   1
M  END
> <s_m_source_file>
AV-unprocessed.smi

> <i_m_source_file_index>
571

> <i_lp_mmshare_version>
43012

> <i_f3d_flags>
0

> <s_epik_input>
W0NIMl0xW0NIMl1bQ0gyXVtDSDJdW0NIMl1OMVtDSDJdW0NAQEhdKFtDSDNdKVtOSF1DKD1PKVtDSDJdbjJbY0hdW2NIXVtjSF1bY0hdYzI9Tw==

> <s_epik_cmdline>
J2VwaWtfcHl0aG9uJywgJy1waCcsICc3LjAnLCAnLXRuJywgJzgnLCAnLW1hJywgJzIwMCcsICctbWV0YWxfYmluZGluZycsICctaW1hZScsICc8aW5maWxlLm1hZT4nLCAnLW9tYWUnLCAnPG91dGZpbGUubWFlPic=

> <r_lp_tautomer_probability>
1

> <r_epik_Ionization_Penalty>
0.00237248

> <r_epik_Ionization_Penalty_Charging>
0.0023724

> <r_epik_Ionization_Penalty_Neutral>
8.2065e-08

> <r_epik_State_Penalty>
0.00163922

> <r_epik_Charging_Adjusted_Penalty>
0.00401161

> <i_epik_Tot_Q>
1

> <i_epik_Tot_abs_Q>
1

> <r_epik_Metal_State_Penalty>
-0

> <b_epik_Metal_Only>
0

> <s_lp_Force_Field>
OPLS_2005

> <r_lp_Energy>
32.5109

> <b_lp_Chiralities_Consistent>
1

> <s_lp_Variant>
AV-unprocessed.smi:571-1

> <Gold.Version>
5.8.1

> <Gold.Id.Protein>
6NUR|6NUR_protein|mol2

> <Gold.PLP.Fitness>
43.1957

> <Gold.PLP.PLP>
-32.3180

> <Gold.PLP.part.hbond>
-3.0000

> <Gold.PLP.part.metal>
0.0000

> <Gold.PLP.part.buried>
3.0070

> <Gold.PLP.part.nonpolar>
-32.5524

> <Gold.PLP.part.repulsive>
0.2196

> <Gold.PLP.ligand.clash>
0.0000

> <Gold.PLP.ligand.torsion>
0.9739

> <Gold.PLP.Chemscore.Hbond>
3.2275

> <Gold.PLP.Chemscore.CHOScore>
1.0000

> <Gold.PLP.Chemscore.Metal>
0.0000

> <Gold.Chemscore.Hbonds>
donor molecule, donor type, donor heavy atom, donor atom, acceptor molecule, acceptor atom, score
      L1  H     4    44       P1  7948  2.00
      L1  H    10    37       P1  7957  0.20
      P1  H  7997  8009       L1    20  0.85
      L1  C    15    40       P1  8028  0.85

> <Gold.PLP.Chemscore.Internal.Correction>
0.1430

> <Gold.Rescore>
     Score         DG    S(hbond)    S(metal)    S(lipo)     H(rot)  DE(clash)    DE(int)     intcor
     13.63     -17.84       2.03        0.00      88.06       1.84       1.79       2.42       ----

> <Gold.Chemscore.Fitness>
13.6287

> <Gold.Chemscore.DG>
-17.8400

> <Gold.Chemscore.ZeroCoef>
-5.4800

> <Gold.Chemscore.Hbond>
2.0272

> <Gold.Chemscore.Metal>
0.0000

> <Gold.Chemscore.Lipo>
88.0585

> <Gold.Chemscore.Internal_Hbond>
0.0000

> <Gold.Chemscore.DEClash>
1.7865

> <Gold.Chemscore.DEInternal>
2.4248

> <Gold.Chemscore.Rot>
1.8413

> <Gold.Chemscore.Internal.Correction>
   9.000000E+99

> <Gold.Chemscore.Hbonds>
donor molecule, donor type, donor heavy atom, donor atom, acceptor molecule, acceptor atom, score
      L1  H     4    44       P1  7948  1.00
      L1  H    10    37       P1  7957  0.20
      P1  H  7997  8009       L1    20  0.15

> <Gold.Chemscore.Hbond.Weighted>
-6.7708

> <Gold.Chemscore.Metal.Weighted>
-0.0000

> <Gold.Chemscore.Lipo.Weighted>
-10.3028

> <Gold.Chemscore.Internal_Hbond.Weighted>
0.0000

> <Gold.Chemscore.DEClash.Weighted>
1.7865

> <Gold.Chemscore.DEInternal.Weighted>
2.4248

> <Gold.Chemscore.Rot.Weighted>
4.7137

> <Gold.Chemscore.Internal.Correction.Weighted>
   9.000000E+99

> <Gold.Protein.RotatedTorsions>
[ 6907 6896 6895 6894 ] final  -98.03 input  -60.11 | X-H torsion
[ 7974 7965 7964 7962 ] final  117.98 input  175.53 | X-H torsion
[ 8008 7997 7996 7995 ] final  166.20 input   59.86 | X-H torsion
[ 10167 10162 10161 10158 ] final   75.91 input  -65.29 | X-H torsion
[ 10718 10713 10712 10709 ] final  -18.02 input   66.30 | X-H torsion
[ 10763 10752 10751 10750 ] final   41.49 input  -60.55 | X-H torsion
[ 11005 11000 10999 10996 ] final  -33.96 input  -57.11 | X-H torsion

> <Gold.Protein.ActiveResidues>
 VAL166  LYS551  ARG553  GLY616  TRP617  ASP618  TYR619  PRO620  LYS621  CYS622 
 ASP623  PHE694  ASN695  SER759  ASP760  ASP761  ALA762  ILE779  LEU786  VAL792 
 PHE793  MET794  SER795  GLU796  ALA797  LYS798  CYS799  TRP800  GLU811  SER814 

> <Gold.Protein.RotatedAtoms>
  150.7034  134.1258  159.4051 H   0  0  0  0  0  0  0  0  0  0  0  0  # atno 6907 bound_to 6896
  151.9244  135.0282  160.0534 H   0  0  0  0  0  0  0  0  0  0  0  0  # atno 6908 bound_to 6896
  152.2229  133.4962  159.5209 H   0  0  0  0  0  0  0  0  0  0  0  0  # atno 6909 bound_to 6896
  145.1608  139.3156  143.4518 H   0  0  0  0  0  0  0  0  0  0  0  0  # atno 7974 bound_to 7965
  156.1738  140.1649  156.8400 H   0  0  0  0  0  0  0  0  0  0  0  0  # atno 8008 bound_to 7997
  154.5284  140.0762  156.8335 H   0  0  0  0  0  0  0  0  0  0  0  0  # atno 8009 bound_to 7997
  155.3457  140.3387  155.4241 H   0  0  0  0  0  0  0  0  0  0  0  0  # atno 8010 bound_to 7997
  139.9979  144.5708  150.7762 H   0  0  0  0  0  0  0  0  0  0  0  0  # atno 10167 bound_to 10162
  156.5654  130.4736  149.6387 H   0  0  0  0  0  0  0  0  0  0  0  0  # atno 10718 bound_to 10713
  152.9907  135.6160  154.2796 H   0  0  0  0  0  0  0  0  0  0  0  0  # atno 10763 bound_to 10752
  154.2526  135.2785  155.2812 H   0  0  0  0  0  0  0  0  0  0  0  0  # atno 10764 bound_to 10752
  154.5275  135.5797  153.6788 H   0  0  0  0  0  0  0  0  0  0  0  0  # atno 10765 bound_to 10752
  140.9677  133.7127  156.1472 H   0  0  0  0  0  0  0  0  0  0  0  0  # atno 11005 bound_to 11000
  146.3482  140.1717  142.8589 LP  0  0  0  0  0  0  0  0  0  0  0  0  # atno 17320 bound_to 7965
  145.0333  140.8888  143.5096 LP  0  0  0  0  0  0  0  0  0  0  0  0  # atno 17321 bound_to 7965
  140.7430  143.2840  151.3517 LP  0  0  0  0  0  0  0  0  0  0  0  0  # atno 17342 bound_to 10162
  139.6293  144.0753  152.2462 LP  0  0  0  0  0  0  0  0  0  0  0  0  # atno 17343 bound_to 10162
  156.2761  130.7044  151.1856 LP  0  0  0  0  0  0  0  0  0  0  0  0  # atno 17370 bound_to 10713
  157.7359  131.0567  150.5441 LP  0  0  0  0  0  0  0  0  0  0  0  0  # atno 17371 bound_to 10713
  140.7375  134.4187  157.5559 LP  0  0  0  0  0  0  0  0  0  0  0  0  # atno 17394 bound_to 11000
  139.8900  134.8814  156.2389 LP  0  0  0  0  0  0  0  0  0  0  0  0  # atno 17395 bound_to 11000

$$$$
