AV-unprocessed.smi:1826|AV-procd|sdf|7417|dock2
  -GOLD-   22720 9 93D 1   1.00000     0.00000
 Structure written by MMmdl.
 40 42  0  0  0  0  0  0  0  0  2 V2000
  150.4151  140.1572  153.9268 O   0  0  0  0  0  0  0  0  0  0  0  0
  149.6197  140.9833  154.7479 C   0  0  0  0  0  0  0  0  0  0  0  0
  150.3797  141.5266  155.9124 C   0  0  0  0  0  0  0  0  0  0  0  0
  150.3715  142.8218  156.3370 N   0  3  0  0  0  0  0  0  0  0  0  0
  151.1951  142.9576  157.4555 C   0  0  0  0  0  0  0  0  0  0  0  0
  151.5045  144.0711  158.2307 C   0  0  0  0  0  0  0  0  0  0  0  0
  152.3869  143.8641  159.3115 C   0  0  0  0  0  0  0  0  0  0  0  0
  152.9241  142.5897  159.5876 C   0  0  0  0  0  0  0  0  0  0  0  0
  152.6026  141.4681  158.7950 C   0  0  0  0  0  0  0  0  0  0  0  0
  151.7304  141.6823  157.7283 C   0  0  0  0  0  0  0  0  0  0  0  0
  151.2011  140.8322  156.7519 N   0  0  0  0  0  0  0  0  0  0  0  0
  151.5718  139.4087  156.7626 C   0  0  0  0  0  0  0  0  0  0  0  0
  150.6225  138.5443  157.6165 C   0  0  2  0  0  0  0  0  0  0  0  0
  151.1376  138.4171  158.9281 O   0  0  0  0  0  0  0  0  0  0  0  0
  150.3700  137.1950  156.9628 C   0  0  0  0  0  0  0  0  0  0  0  0
  151.0034  136.8716  155.7447 C   0  0  0  0  0  0  0  0  0  0  0  0
  150.7814  135.6199  155.1384 C   0  0  0  0  0  0  0  0  0  0  0  0
  149.9277  134.6736  155.7452 C   0  0  0  0  0  0  0  0  0  0  0  0
  149.6802  133.3258  155.0834 C   0  0  0  0  0  0  0  0  0  0  0  0
  149.6069  133.4514  153.7579 F   0  0  0  0  0  0  0  0  0  0  0  0
  150.6833  132.5010  155.3813 F   0  0  0  0  0  0  0  0  0  0  0  0
  148.5391  132.7868  155.5142 F   0  0  0  0  0  0  0  0  0  0  0  0
  149.2921  134.9996  156.9627 C   0  0  0  0  0  0  0  0  0  0  0  0
  149.5144  136.2505  157.5699 C   0  0  0  0  0  0  0  0  0  0  0  0
  149.9812  140.0537  153.0934 H   0  0  0  0  0  0  0  0  0  0  0  0
  149.2253  141.8073  154.1531 H   0  0  0  0  0  0  0  0  0  0  0  0
  148.7645  140.4102  155.1072 H   0  0  0  0  0  0  0  0  0  0  0  0
  151.0941  145.0482  158.0214 H   0  0  0  0  0  0  0  0  0  0  0  0
  152.6571  144.6994  159.9414 H   0  0  0  0  0  0  0  0  0  0  0  0
  153.5967  142.4698  160.4246 H   0  0  0  0  0  0  0  0  0  0  0  0
  153.0190  140.4960  159.0140 H   0  0  0  0  0  0  0  0  0  0  0  0
  151.5998  139.0537  155.7315 H   0  0  0  0  0  0  0  0  0  0  0  0
  152.5934  139.3349  157.1371 H   0  0  0  0  0  0  0  0  0  0  0  0
  149.6655  139.0585  157.7122 H   0  0  0  0  0  0  0  0  0  0  0  0
  151.7827  139.0946  159.0628 H   0  0  0  0  0  0  0  0  0  0  0  0
  151.6631  137.5822  155.2686 H   0  0  0  0  0  0  0  0  0  0  0  0
  151.2694  135.3903  154.2027 H   0  0  0  0  0  0  0  0  0  0  0  0
  148.6294  134.2910  157.4376 H   0  0  0  0  0  0  0  0  0  0  0  0
  149.0257  136.4821  158.5052 H   0  0  0  0  0  0  0  0  0  0  0  0
  149.8372  143.5569  155.8922 H   0  0  0  0  0  0  0  0  0  0  0  0
  1  2  1  0  0  0  0
  1 25  1  0  0  0  0
  2  3  1  0  0  0  0
  2 26  1  0  0  0  0
  2 27  1  0  0  0  0
  3 11  1  0  0  0  0
  3  4  2  0  0  0  0
  4  5  1  0  0  0  0
  4 40  1  0  0  0  0
  5 10  2  0  0  0  0
  5  6  1  0  0  0  0
  6  7  2  0  0  0  0
  6 28  1  0  0  0  0
  7  8  1  0  0  0  0
  7 29  1  0  0  0  0
  8  9  2  0  0  0  0
  8 30  1  0  0  0  0
  9 10  1  0  0  0  0
  9 31  1  0  0  0  0
 10 11  1  0  0  0  0
 11 12  1  0  0  0  0
 12 13  1  0  0  0  0
 12 32  1  0  0  0  0
 12 33  1  0  0  0  0
 13 14  1  0  0  0  0
 13 15  1  0  0  0  0
 13 34  1  0  0  0  0
 14 35  1  0  0  0  0
 15 24  1  0  0  0  0
 15 16  2  0  0  0  0
 16 17  1  0  0  0  0
 16 36  1  0  0  0  0
 17 18  2  0  0  0  0
 17 37  1  0  0  0  0
 18 19  1  0  0  0  0
 18 23  1  0  0  0  0
 19 20  1  0  0  0  0
 19 21  1  0  0  0  0
 19 22  1  0  0  0  0
 23 24  2  0  0  0  0
 23 38  1  0  0  0  0
 24 39  1  0  0  0  0
M  CHG  1   4   1
M  END
> <s_m_source_file>
AV-unprocessed.smi

> <i_m_source_file_index>
1826

> <i_lp_mmshare_version>
43012

> <i_f3d_flags>
0

> <s_epik_input>
W2NIXTFbY0hdW2NIXVtjSF1jKGMxMiluKGMobjIpW0NIMl1bT0hdKVtDSDJdW0NASF0oW09IXSljM1tjSF1bY0hdYyhDKEYpKEYpRilbY0hdW2NIXTM=

> <s_epik_cmdline>
J2VwaWtfcHl0aG9uJywgJy1waCcsICc3LjAnLCAnLXRuJywgJzgnLCAnLW1hJywgJzIwMCcsICctbWV0YWxfYmluZGluZycsICctaW1hZScsICc8aW5maWxlLm1hZT4nLCAnLW9tYWUnLCAnPG91dGZpbGUubWFlPic=

> <r_epik_Ionization_Penalty>
1.35643

> <r_epik_Ionization_Penalty_Charging>
1.35557

> <r_epik_Ionization_Penalty_Neutral>
0.000856405

> <r_epik_State_Penalty>
1.43401

> <r_epik_Charging_Adjusted_Penalty>
2.78958

> <i_epik_Tot_Q>
1

> <i_epik_Tot_abs_Q>
1

> <r_epik_Metal_State_Penalty>
5.47166

> <b_epik_Metal_Only>
0

> <s_lp_Force_Field>
OPLS_2005

> <r_lp_Energy>
15.9337

> <b_lp_Chiralities_Consistent>
1

> <s_lp_Variant>
AV-unprocessed.smi:1826-3

> <Gold.Version>
5.8.1

> <Gold.Id.Protein>
6NUR|6NUR_protein|mol2

> <Gold.PLP.Fitness>
54.1457

> <Gold.PLP.PLP>
-44.6378

> <Gold.PLP.part.hbond>
-2.9269

> <Gold.PLP.part.metal>
0.0000

> <Gold.PLP.part.buried>
-5.8090

> <Gold.PLP.part.nonpolar>
-36.2410

> <Gold.PLP.part.repulsive>
0.0948

> <Gold.PLP.ligand.clash>
0.0056

> <Gold.PLP.ligand.torsion>
1.9591

> <Gold.PLP.Chemscore.Hbond>
3.9920

> <Gold.PLP.Chemscore.CHOScore>
0.0000

> <Gold.PLP.Chemscore.Metal>
0.0000

> <Gold.Chemscore.Hbonds>
donor molecule, donor type, donor heavy atom, donor atom, acceptor molecule, acceptor atom, score
      L1  H     1    25       P1  7957  1.00
      L1  H     4    40       P1  8028  1.92
      P1  H  7989  7998       L1     1  0.76

> <Gold.PLP.Chemscore.Internal.Correction>
1.4557

> <Gold.Rescore>
     Score         DG    S(hbond)    S(metal)    S(lipo)     H(rot)  DE(clash)    DE(int)     intcor
     17.18     -18.64       2.52        0.00     105.86       2.98       0.01       1.45       ----

> <Gold.Chemscore.Fitness>
17.1831

> <Gold.Chemscore.DG>
-18.6397

> <Gold.Chemscore.ZeroCoef>
-5.4800

> <Gold.Chemscore.Hbond>
2.5174

> <Gold.Chemscore.Metal>
0.0000

> <Gold.Chemscore.Lipo>
105.8638

> <Gold.Chemscore.Internal_Hbond>
0.0000

> <Gold.Chemscore.DEClash>
0.0075

> <Gold.Chemscore.DEInternal>
1.4492

> <Gold.Chemscore.Rot>
2.9822

> <Gold.Chemscore.Internal.Correction>
   9.000000E+99

> <Gold.Chemscore.Hbonds>
donor molecule, donor type, donor heavy atom, donor atom, acceptor molecule, acceptor atom, score
      L1  H     1    25       P1  7957  0.98
      L1  H     4    40       P1  8028  0.91
      P1  H  7989  7998       L1     1  0.13

> <Gold.Chemscore.Hbond.Weighted>
-8.4080

> <Gold.Chemscore.Metal.Weighted>
-0.0000

> <Gold.Chemscore.Lipo.Weighted>
-12.3861

> <Gold.Chemscore.Internal_Hbond.Weighted>
0.0000

> <Gold.Chemscore.DEClash.Weighted>
0.0075

> <Gold.Chemscore.DEInternal.Weighted>
1.4492

> <Gold.Chemscore.Rot.Weighted>
7.6343

> <Gold.Chemscore.Internal.Correction.Weighted>
   9.000000E+99

> <Gold.Protein.RotatedTorsions>
[ 6907 6896 6895 6894 ] final   86.75 input  -60.11 | X-H torsion
[ 7974 7965 7964 7962 ] final  108.26 input  175.53 | X-H torsion
[ 8008 7997 7996 7995 ] final -167.46 input   59.86 | X-H torsion
[ 10167 10162 10161 10158 ] final  -85.80 input  -65.29 | X-H torsion
[ 10718 10713 10712 10709 ] final   71.18 input   66.30 | X-H torsion
[ 10763 10752 10751 10750 ] final  -81.70 input  -60.55 | X-H torsion
[ 11005 11000 10999 10996 ] final  -39.63 input  -57.11 | X-H torsion

> <Gold.Protein.ActiveResidues>
 VAL166  LYS551  ARG553  GLY616  TRP617  ASP618  TYR619  PRO620  LYS621  CYS622 
 ASP623  PHE694  ASN695  SER759  ASP760  ASP761  ALA762  ILE779  LEU786  VAL792 
 PHE793  MET794  SER795  GLU796  ALA797  LYS798  CYS799  TRP800  GLU811  SER814 

> <Gold.Protein.RotatedAtoms>
  152.5400  134.2382  159.8851 H   0  0  0  0  0  0  0  0  0  0  0  0  # atno 6907 bound_to 6896
  151.2351  133.4422  159.2613 H   0  0  0  0  0  0  0  0  0  0  0  0  # atno 6908 bound_to 6896
  151.0679  134.9793  159.8350 H   0  0  0  0  0  0  0  0  0  0  0  0  # atno 6909 bound_to 6896
  145.2830  139.2626  143.3905 H   0  0  0  0  0  0  0  0  0  0  0  0  # atno 7974 bound_to 7965
  155.8780  140.1004  157.1505 H   0  0  0  0  0  0  0  0  0  0  0  0  # atno 8008 bound_to 7997
  154.4002  140.1334  156.4224 H   0  0  0  0  0  0  0  0  0  0  0  0  # atno 8009 bound_to 7997
  155.7675  140.3461  155.5232 H   0  0  0  0  0  0  0  0  0  0  0  0  # atno 8010 bound_to 7997
  140.4003  143.2666  151.9151 H   0  0  0  0  0  0  0  0  0  0  0  0  # atno 10167 bound_to 10162
  157.6438  130.9515  150.0754 H   0  0  0  0  0  0  0  0  0  0  0  0  # atno 10718 bound_to 10713
  154.5668  135.5617  153.7057 H   0  0  0  0  0  0  0  0  0  0  0  0  # atno 10763 bound_to 10752
  153.0035  135.6287  154.2170 H   0  0  0  0  0  0  0  0  0  0  0  0  # atno 10764 bound_to 10752
  154.2109  135.2873  155.2938 H   0  0  0  0  0  0  0  0  0  0  0  0  # atno 10765 bound_to 10752
  141.0116  133.6905  156.2212 H   0  0  0  0  0  0  0  0  0  0  0  0  # atno 11005 bound_to 11000
  146.3210  140.3302  142.8640 LP  0  0  0  0  0  0  0  0  0  0  0  0  # atno 17320 bound_to 7965
  144.9237  140.7897  143.5732 LP  0  0  0  0  0  0  0  0  0  0  0  0  # atno 17321 bound_to 7965
  139.4785  144.5640  151.8193 LP  0  0  0  0  0  0  0  0  0  0  0  0  # atno 17342 bound_to 10162
  140.4747  144.1536  150.5923 LP  0  0  0  0  0  0  0  0  0  0  0  0  # atno 17343 bound_to 10162
  156.1746  130.3647  149.9118 LP  0  0  0  0  0  0  0  0  0  0  0  0  # atno 17370 bound_to 10713
  156.7086  130.8961  151.3607 LP  0  0  0  0  0  0  0  0  0  0  0  0  # atno 17371 bound_to 10713
  140.6724  134.4853  157.5587 LP  0  0  0  0  0  0  0  0  0  0  0  0  # atno 17394 bound_to 11000
  139.9093  134.8380  156.1588 LP  0  0  0  0  0  0  0  0  0  0  0  0  # atno 17395 bound_to 11000

$$$$
