AV-unprocessed.smi:988|AV-procd|sdf|4324|dock1
  -GOLD-   22720 2223D 1   1.00000     0.00000
 Structure written by MMmdl.
 28 28  0  0  0  0  0  0  0  0  1 V2000
  150.8152  131.8748  155.2794 C   0  0  0  0  0  0  0  0  0  0  0  0
  149.6730  131.2789  154.6911 O   0  0  0  0  0  0  0  0  0  0  0  0
  149.1443  132.0484  153.6232 C   0  0  0  0  0  0  0  0  0  0  0  0
  148.8156  133.4640  154.1196 C   0  0  0  0  0  0  0  0  0  0  0  0
  147.9662  134.1668  153.1655 N   0  0  0  0  0  0  0  0  0  0  0  0
  146.7084  133.8226  152.8484 C   0  0  0  0  0  0  0  0  0  0  0  0
  146.0918  132.9095  153.3969 O   0  0  0  0  0  0  0  0  0  0  0  0
  146.0514  134.6180  151.7206 C   0  0  0  0  0  0  0  0  0  0  0  0
  145.4371  133.7258  150.7529 N   0  0  0  0  0  0  0  0  0  0  0  0
  144.1400  133.7359  150.2822 C   0  0  0  0  0  0  0  0  0  0  0  0
  144.0205  132.6999  149.4010 C   0  0  0  0  0  0  0  0  0  0  0  0
  142.8655  132.3345  148.6840 N   0  0  0  0  0  0  0  0  0  0  0  0
  145.3145  132.1071  149.3962 C   0  0  0  0  0  0  0  0  0  0  0  0
  146.1605  132.7231  150.2064 N   0  0  0  0  0  0  0  0  0  0  0  0
  151.1736  131.2497  156.0971 H   0  0  0  0  0  0  0  0  0  0  0  0
  150.5826  132.8605  155.6845 H   0  0  0  0  0  0  0  0  0  0  0  0
  151.6237  131.9749  154.5541 H   0  0  0  0  0  0  0  0  0  0  0  0
  149.8775  132.1018  152.8171 H   0  0  0  0  0  0  0  0  0  0  0  0
  148.2482  131.5754  153.2172 H   0  0  0  0  0  0  0  0  0  0  0  0
  148.3610  133.4304  155.1112 H   0  0  0  0  0  0  0  0  0  0  0  0
  149.7384  134.0352  154.2228 H   0  0  0  0  0  0  0  0  0  0  0  0
  148.3871  134.9323  152.6591 H   0  0  0  0  0  0  0  0  0  0  0  0
  145.2824  135.2773  152.1254 H   0  0  0  0  0  0  0  0  0  0  0  0
  146.7908  135.2494  151.2250 H   0  0  0  0  0  0  0  0  0  0  0  0
  143.4198  134.4691  150.6156 H   0  0  0  0  0  0  0  0  0  0  0  0
  141.9969  132.8418  148.7771 H   0  0  0  0  0  0  0  0  0  0  0  0
  142.8573  131.5500  148.0479 H   0  0  0  0  0  0  0  0  0  0  0  0
  145.6621  131.2536  148.8331 H   0  0  0  0  0  0  0  0  0  0  0  0
  1  2  1  0  0  0  0
  1 15  1  0  0  0  0
  1 16  1  0  0  0  0
  1 17  1  0  0  0  0
  2  3  1  0  0  0  0
  3  4  1  0  0  0  0
  3 18  1  0  0  0  0
  3 19  1  0  0  0  0
  4  5  1  0  0  0  0
  4 20  1  0  0  0  0
  4 21  1  0  0  0  0
  5  6  1  0  0  0  0
  5 22  1  0  0  0  0
  6  7  2  0  0  0  0
  6  8  1  0  0  0  0
  8  9  1  0  0  0  0
  8 23  1  0  0  0  0
  8 24  1  0  0  0  0
  9 14  1  0  0  0  0
  9 10  1  0  0  0  0
 10 11  2  0  0  0  0
 10 25  1  0  0  0  0
 11 12  1  0  0  0  0
 11 13  1  0  0  0  0
 12 26  1  0  0  0  0
 12 27  1  0  0  0  0
 13 14  2  0  0  0  0
 13 28  1  0  0  0  0
M  END
> <s_m_source_file>
AV-unprocessed.smi

> <i_m_source_file_index>
988

> <i_lp_mmshare_version>
43012

> <i_f3d_flags>
0

> <s_epik_input>
W0NIM11PW0NIMl1bQ0gyXVtOSF1DKD1PKVtDSDJdbjFbY0hdYyhbTkgyXSlbY0hdbjE=

> <s_epik_cmdline>
J2VwaWtfcHl0aG9uJywgJy1waCcsICc3LjAnLCAnLXRuJywgJzgnLCAnLW1hJywgJzIwMCcsICctbWV0YWxfYmluZGluZycsICctaW1hZScsICc8aW5maWxlLm1hZT4nLCAnLW9tYWUnLCAnPG91dGZpbGUubWFlPic=

> <r_lp_tautomer_probability>
1

> <r_epik_Ionization_Penalty>
0.00010261

> <r_epik_Ionization_Penalty_Charging>
0

> <r_epik_Ionization_Penalty_Neutral>
0.00010261

> <r_epik_State_Penalty>
-0

> <r_epik_Charging_Adjusted_Penalty>
0

> <i_epik_Tot_Q>
0

> <i_epik_Tot_abs_Q>
0

> <r_epik_Metal_State_Penalty>
-0

> <b_epik_Metal_Only>
0

> <s_lp_Force_Field>
OPLS_2005

> <r_lp_Energy>
5.59493

> <b_lp_Chiralities_Consistent>
1

> <s_lp_Variant>
AV-unprocessed.smi:988-1

> <Gold.Version>
5.8.1

> <Gold.Id.Protein>
6NUR|6NUR_protein|mol2

> <Gold.PLP.Fitness>
34.4252

> <Gold.PLP.PLP>
-27.0435

> <Gold.PLP.part.hbond>
-3.0000

> <Gold.PLP.part.metal>
0.0000

> <Gold.PLP.part.buried>
-5.1323

> <Gold.PLP.part.nonpolar>
-19.8408

> <Gold.PLP.part.repulsive>
0.4964

> <Gold.PLP.ligand.clash>
0.0000

> <Gold.PLP.ligand.torsion>
0.2473

> <Gold.PLP.Chemscore.Hbond>
1.9920

> <Gold.PLP.Chemscore.CHOScore>
0.6204

> <Gold.PLP.Chemscore.Metal>
0.0000

> <Gold.Chemscore.Hbonds>
donor molecule, donor type, donor heavy atom, donor atom, acceptor molecule, acceptor atom, score
      L1  H     5    22       P1  7948  1.00
      L1  H    12    26       P1 10186  0.99
      L1  C    10    25       P1 10186  0.58

> <Gold.PLP.Chemscore.Internal.Correction>
0.0393

> <Gold.Rescore>
     Score         DG    S(hbond)    S(metal)    S(lipo)     H(rot)  DE(clash)    DE(int)     intcor
     11.65     -11.89       1.89        0.00      51.37       2.31       0.02       0.22       ----

> <Gold.Chemscore.Fitness>
11.6474

> <Gold.Chemscore.DG>
-11.8950

> <Gold.Chemscore.ZeroCoef>
-5.4800

> <Gold.Chemscore.Hbond>
1.8938

> <Gold.Chemscore.Metal>
0.0000

> <Gold.Chemscore.Lipo>
51.3749

> <Gold.Chemscore.Internal_Hbond>
0.0000

> <Gold.Chemscore.DEClash>
0.0232

> <Gold.Chemscore.DEInternal>
0.2244

> <Gold.Chemscore.Rot>
2.3129

> <Gold.Chemscore.Internal.Correction>
   9.000000E+99

> <Gold.Chemscore.Hbonds>
donor molecule, donor type, donor heavy atom, donor atom, acceptor molecule, acceptor atom, score
      L1  H     5    22       P1  7948  0.54
      L1  H    12    26       P1 10186  0.91

> <Gold.Chemscore.Hbond.Weighted>
-6.3252

> <Gold.Chemscore.Metal.Weighted>
-0.0000

> <Gold.Chemscore.Lipo.Weighted>
-6.0109

> <Gold.Chemscore.Internal_Hbond.Weighted>
0.0000

> <Gold.Chemscore.DEClash.Weighted>
0.0232

> <Gold.Chemscore.DEInternal.Weighted>
0.2244

> <Gold.Chemscore.Rot.Weighted>
5.9211

> <Gold.Chemscore.Internal.Correction.Weighted>
   9.000000E+99

> <Gold.Protein.RotatedTorsions>
[ 6907 6896 6895 6894 ] final  141.50 input  -60.11 | X-H torsion
[ 7974 7965 7964 7962 ] final  -57.45 input  175.53 | X-H torsion
[ 8008 7997 7996 7995 ] final  157.42 input   59.86 | X-H torsion
[ 10167 10162 10161 10158 ] final  -65.50 input  -65.29 | X-H torsion
[ 10718 10713 10712 10709 ] final   61.22 input   66.30 | X-H torsion
[ 10763 10752 10751 10750 ] final  132.32 input  -60.55 | X-H torsion
[ 11005 11000 10999 10996 ] final    6.93 input  -57.11 | X-H torsion

> <Gold.Protein.ActiveResidues>
 VAL166  LYS551  ARG553  GLY616  TRP617  ASP618  TYR619  PRO620  LYS621  CYS622 
 ASP623  PHE694  ASN695  SER759  ASP760  ASP761  ALA762  ILE779  LEU786  VAL792 
 PHE793  MET794  SER795  GLU796  ALA797  LYS798  CYS799  TRP800  GLU811  SER814 

> <Gold.Protein.RotatedAtoms>
  152.2303  133.5052  159.5211 H   0  0  0  0  0  0  0  0  0  0  0  0  # atno 6907 bound_to 6896
  150.7035  134.1226  159.4049 H   0  0  0  0  0  0  0  0  0  0  0  0  # atno 6908 bound_to 6896
  151.9147  135.0324  160.0568 H   0  0  0  0  0  0  0  0  0  0  0  0  # atno 6909 bound_to 6896
  145.8509  140.8352  142.9986 H   0  0  0  0  0  0  0  0  0  0  0  0  # atno 7974 bound_to 7965
  156.2365  140.1886  156.7106 H   0  0  0  0  0  0  0  0  0  0  0  0  # atno 8008 bound_to 7997
  154.6115  140.0621  156.9527 H   0  0  0  0  0  0  0  0  0  0  0  0  # atno 8009 bound_to 7997
  155.2008  140.3292  155.4346 H   0  0  0  0  0  0  0  0  0  0  0  0  # atno 8010 bound_to 7997
  140.5725  143.2319  151.6509 H   0  0  0  0  0  0  0  0  0  0  0  0  # atno 10167 bound_to 10162
  157.5811  130.8982  149.9433 H   0  0  0  0  0  0  0  0  0  0  0  0  # atno 10718 bound_to 10713
  153.7888  135.3158  155.3376 H   0  0  0  0  0  0  0  0  0  0  0  0  # atno 10763 bound_to 10752
  154.8133  135.4653  154.0579 H   0  0  0  0  0  0  0  0  0  0  0  0  # atno 10764 bound_to 10752
  153.1890  135.6905  153.8463 H   0  0  0  0  0  0  0  0  0  0  0  0  # atno 10765 bound_to 10752
  140.5540  134.0256  155.7947 H   0  0  0  0  0  0  0  0  0  0  0  0  # atno 11005 bound_to 11000
  144.6729  140.0952  143.7463 LP  0  0  0  0  0  0  0  0  0  0  0  0  # atno 17320 bound_to 7965
  145.9358  139.2636  143.1298 LP  0  0  0  0  0  0  0  0  0  0  0  0  # atno 17321 bound_to 7965
  139.5125  144.3474  152.0684 LP  0  0  0  0  0  0  0  0  0  0  0  0  # atno 17342 bound_to 10162
  140.2613  144.4064  150.6184 LP  0  0  0  0  0  0  0  0  0  0  0  0  # atno 17343 bound_to 10162
  156.0857  130.3668  150.0492 LP  0  0  0  0  0  0  0  0  0  0  0  0  # atno 17370 bound_to 10713
  156.8631  130.9498  151.3616 LP  0  0  0  0  0  0  0  0  0  0  0  0  # atno 17371 bound_to 10713
  141.1155  133.9548  157.2831 LP  0  0  0  0  0  0  0  0  0  0  0  0  # atno 17394 bound_to 11000
  139.9441  135.0187  156.8798 LP  0  0  0  0  0  0  0  0  0  0  0  0  # atno 17395 bound_to 11000

$$$$
