AV-unprocessed.smi:72|AV-procd|sdf|684|dock9
  -GOLD-   2262016593D 1   1.00000     0.00000
 Structure written by MMmdl.
 29 30  0  0  0  0  0  0  0  0  1 V2000
  145.3995  142.6034  154.2578 N   0  0  0  0  0  0  0  0  0  0  0  0
  146.4321  141.8397  154.2223 C   0  0  0  0  0  0  0  0  0  0  0  0
  147.6622  142.1077  154.8405 N   0  0  0  0  0  0  0  0  0  0  0  0
  148.6248  141.2483  154.7059 C   0  0  0  0  0  0  0  0  0  0  0  0
  148.4809  140.0288  153.9265 N   0  0  0  0  0  0  0  0  0  0  0  0
  149.6583  139.0690  153.8482 C   0  0  1  0  0  0  0  0  0  0  0  0
  150.7776  139.6354  154.4663 O   0  0  0  0  0  0  0  0  0  0  0  0
  151.2596  138.7895  155.5114 C   0  0  2  0  0  0  0  0  0  0  0  0
  152.7835  138.9308  155.6778 C   0  0  0  0  0  0  0  0  0  0  0  0
  153.1190  139.0239  157.0458 O   0  0  0  0  0  0  0  0  0  0  0  0
  150.7595  137.3872  155.1318 C   0  0  2  0  0  0  0  0  0  0  0  0
  151.6483  136.7528  154.2290 O   0  0  0  0  0  0  0  0  0  0  0  0
  149.4296  137.6614  154.4443 C   0  0  1  0  0  0  0  0  0  0  0  0
  148.3538  137.5671  155.3585 O   0  0  0  0  0  0  0  0  0  0  0  0
  147.2281  139.7266  153.3279 C   0  0  0  0  0  0  0  0  0  0  0  0
  147.0192  138.6963  152.6916 O   0  0  0  0  0  0  0  0  0  0  0  0
  146.2620  140.6553  153.4959 N   0  0  0  0  0  0  0  0  0  0  0  0
  149.9093  139.0022  152.7886 H   0  0  0  0  0  0  0  0  0  0  0  0
  150.7693  139.0662  156.4448 H   0  0  0  0  0  0  0  0  0  0  0  0
  150.6544  136.7431  156.0059 H   0  0  0  0  0  0  0  0  0  0  0  0
  149.2308  136.9562  153.6360 H   0  0  0  0  0  0  0  0  0  0  0  0
  144.6412  142.1861  153.7372 H   0  0  0  0  0  0  0  0  0  0  0  0
  149.6045  141.3897  155.1645 H   0  0  0  0  0  0  0  0  0  0  0  0
  153.2881  138.0489  155.2820 H   0  0  0  0  0  0  0  0  0  0  0  0
  153.1650  139.7970  155.1363 H   0  0  0  0  0  0  0  0  0  0  0  0
  152.3498  138.8278  157.5585 H   0  0  0  0  0  0  0  0  0  0  0  0
  151.2336  136.7079  153.3812 H   0  0  0  0  0  0  0  0  0  0  0  0
  148.3194  138.3637  155.8650 H   0  0  0  0  0  0  0  0  0  0  0  0
  145.3622  140.4750  153.0753 H   0  0  0  0  0  0  0  0  0  0  0  0
  1  2  2  0  0  0  0
  1 22  1  0  0  0  0
  2 17  1  0  0  0  0
  2  3  1  0  0  0  0
  3  4  2  0  0  0  0
  4  5  1  0  0  0  0
  4 23  1  0  0  0  0
  5  6  1  0  0  0  0
  5 15  1  0  0  0  0
  6 18  1  0  0  0  0
  6 13  1  0  0  0  0
  6  7  1  0  0  0  0
  7  8  1  0  0  0  0
  8 19  1  0  0  0  0
  8  9  1  0  0  0  0
  8 11  1  0  0  0  0
  9 10  1  0  0  0  0
  9 24  1  0  0  0  0
  9 25  1  0  0  0  0
 10 26  1  0  0  0  0
 11 20  1  0  0  0  0
 11 12  1  0  0  0  0
 11 13  1  0  0  0  0
 12 27  1  0  0  0  0
 13 21  1  0  0  0  0
 13 14  1  0  0  0  0
 14 28  1  0  0  0  0
 15 16  2  0  0  0  0
 15 17  1  0  0  0  0
 17 29  1  0  0  0  0
M  END
> <s_m_source_file>
AV-unprocessed.smi

> <i_m_source_file_index>
72

> <i_lp_mmshare_version>
43012

> <i_f3d_flags>
0

> <s_epik_input>
W05IMl1jMW5bY0hdbihjKD1PKW4xKVtDQEBIXTJPW0NASF0oW0NIMl1bT0hdKVtDQEBIXShbT0hdKVtDQEhdMltPSF0=

> <s_epik_cmdline>
J2VwaWtfcHl0aG9uJywgJy1waCcsICc3LjAnLCAnLXRuJywgJzgnLCAnLW1hJywgJzIwMCcsICctbWV0YWxfYmluZGluZycsICctaW1hZScsICc8aW5maWxlLm1hZT4nLCAnLW9tYWUnLCAnPG91dGZpbGUubWFlPic=

> <r_lp_tautomer_probability>
7.17554e-07

> <r_epik_Ionization_Penalty>
0.0066451

> <r_epik_Ionization_Penalty_Charging>
0.00663793

> <r_epik_Ionization_Penalty_Neutral>
7.17052e-06

> <r_epik_State_Penalty>
0.419231

> <r_epik_Charging_Adjusted_Penalty>
0.425868

> <i_epik_Tot_Q>
0

> <i_epik_Tot_abs_Q>
0

> <r_epik_Metal_State_Penalty>
1.44144

> <b_epik_Metal_Only>
0

> <s_epik_Chemistry_Notes>
This compound contains an acetal/aminal-like group ( X-CH(R)-Y where X, Y are N, S, or O) that may be acid/base labile, releasing an aldehyde.

> <s_lp_Force_Field>
OPLS_2005

> <r_lp_Energy>
43.3095

> <b_lp_Chiralities_Consistent>
1

> <s_lp_Variant>
AV-unprocessed.smi:72-22

> <Gold.Version>
5.8.1

> <Gold.Id.Protein>
6NUR|6NUR_protein|mol2

> <Gold.PLP.Fitness>
36.5309

> <Gold.PLP.PLP>
-22.8039

> <Gold.PLP.part.hbond>
-5.2342

> <Gold.PLP.part.metal>
0.0000

> <Gold.PLP.part.buried>
-0.2634

> <Gold.PLP.part.nonpolar>
-19.1432

> <Gold.PLP.part.repulsive>
1.2840

> <Gold.PLP.ligand.clash>
0.0000

> <Gold.PLP.ligand.torsion>
0.6676

> <Gold.PLP.Chemscore.Hbond>
5.0109

> <Gold.PLP.Chemscore.CHOScore>
0.0000

> <Gold.PLP.Chemscore.Metal>
0.0000

> <Gold.Chemscore.Hbonds>
donor molecule, donor type, donor heavy atom, donor atom, acceptor molecule, acceptor atom, score
      L1  H     1    22       P1 10175  0.04
      L1  H    12    27       P1  7949  1.00
      L1  H    17    29       P1 10175  1.00
      P1  H  7989  7998       L1     7  1.00
      P1  H  7997  8010       L1    10  0.40
      P1  H 10752 10765       L1    12  1.00

> <Gold.PLP.Chemscore.Internal.Correction>
0.0295

> <Gold.Rescore>
     Score         DG    S(hbond)    S(metal)    S(lipo)     H(rot)  DE(clash)    DE(int)     intcor
      9.25     -11.14       3.89        0.00      26.18       4.06       0.93       0.96       ----

> <Gold.Chemscore.Fitness>
9.2462

> <Gold.Chemscore.DG>
-11.1435

> <Gold.Chemscore.ZeroCoef>
-5.4800

> <Gold.Chemscore.Hbond>
3.8904

> <Gold.Chemscore.Metal>
0.0000

> <Gold.Chemscore.Lipo>
26.1814

> <Gold.Chemscore.Internal_Hbond>
0.0000

> <Gold.Chemscore.DEClash>
0.9347

> <Gold.Chemscore.DEInternal>
0.9626

> <Gold.Chemscore.Rot>
4.0600

> <Gold.Chemscore.Internal.Correction>
   9.000000E+99

> <Gold.Chemscore.Hbonds>
donor molecule, donor type, donor heavy atom, donor atom, acceptor molecule, acceptor atom, score
      L1  H    12    27       P1  7949  0.53
      L1  H    17    29       P1 10175  0.93
      P1  H  7989  7998       L1     7  0.91
      P1  H  7997  8010       L1    10  0.01
      P1  H 10752 10765       L1    12  0.60

> <Gold.Chemscore.Hbond.Weighted>
-12.9938

> <Gold.Chemscore.Metal.Weighted>
-0.0000

> <Gold.Chemscore.Lipo.Weighted>
-3.0632

> <Gold.Chemscore.Internal_Hbond.Weighted>
0.0000

> <Gold.Chemscore.DEClash.Weighted>
0.9347

> <Gold.Chemscore.DEInternal.Weighted>
0.9626

> <Gold.Chemscore.Rot.Weighted>
10.3936

> <Gold.Chemscore.Internal.Correction.Weighted>
   9.000000E+99

> <Gold.Protein.RotatedTorsions>
[ 6907 6896 6895 6894 ] final   52.06 input  -60.11 | X-H torsion
[ 7974 7965 7964 7962 ] final  -81.59 input  175.53 | X-H torsion
[ 8008 7997 7996 7995 ] final   62.71 input   59.86 | X-H torsion
[ 10167 10162 10161 10158 ] final  159.06 input  -65.29 | X-H torsion
[ 10718 10713 10712 10709 ] final   54.04 input   66.30 | X-H torsion
[ 10763 10752 10751 10750 ] final  156.59 input  -60.55 | X-H torsion
[ 11005 11000 10999 10996 ] final  -68.48 input  -57.11 | X-H torsion

> <Gold.Protein.ActiveResidues>
 VAL166  LYS551  ARG553  GLY616  TRP617  ASP618  TYR619  PRO620  LYS621  CYS622 
 ASP623  PHE694  ASN695  SER759  ASP760  ASP761  ALA762  ILE779  LEU786  VAL792 
 PHE793  MET794  SER795  GLU796  ALA797  LYS798  CYS799  TRP800  GLU811  SER814 

> <Gold.Protein.RotatedAtoms>
  152.3193  134.7401  160.0317 H   0  0  0  0  0  0  0  0  0  0  0  0  # atno 6907 bound_to 6896
  151.7855  133.3348  159.3492 H   0  0  0  0  0  0  0  0  0  0  0  0  # atno 6908 bound_to 6896
  150.7361  134.5822  159.5989 H   0  0  0  0  0  0  0  0  0  0  0  0  # atno 6909 bound_to 6896
  145.5447  140.9505  143.1532 H   0  0  0  0  0  0  0  0  0  0  0  0  # atno 7974 bound_to 7965
  155.6187  140.3495  155.4645 H   0  0  0  0  0  0  0  0  0  0  0  0  # atno 8008 bound_to 7997
  156.0097  140.1230  157.0490 H   0  0  0  0  0  0  0  0  0  0  0  0  # atno 8009 bound_to 7997
  154.4276  140.1084  156.5798 H   0  0  0  0  0  0  0  0  0  0  0  0  # atno 8010 bound_to 7997
  139.4830  144.4766  151.8502 H   0  0  0  0  0  0  0  0  0  0  0  0  # atno 10167 bound_to 10162
  157.5221  130.8572  149.8573 H   0  0  0  0  0  0  0  0  0  0  0  0  # atno 10718 bound_to 10713
  154.1868  135.2797  155.3035 H   0  0  0  0  0  0  0  0  0  0  0  0  # atno 10763 bound_to 10752
  154.5960  135.5545  153.7329 H   0  0  0  0  0  0  0  0  0  0  0  0  # atno 10764 bound_to 10752
  153.0123  135.6380  154.2007 H   0  0  0  0  0  0  0  0  0  0  0  0  # atno 10765 bound_to 10752
  141.1533  133.6742  156.6452 H   0  0  0  0  0  0  0  0  0  0  0  0  # atno 11005 bound_to 11000
  144.7559  139.7075  143.7254 LP  0  0  0  0  0  0  0  0  0  0  0  0  # atno 17320 bound_to 7965
  146.1957  139.5223  142.9776 LP  0  0  0  0  0  0  0  0  0  0  0  0  # atno 17321 bound_to 7965
  140.4239  144.2207  150.5887 LP  0  0  0  0  0  0  0  0  0  0  0  0  # atno 17342 bound_to 10162
  140.4847  143.2367  151.8905 LP  0  0  0  0  0  0  0  0  0  0  0  0  # atno 17343 bound_to 10162
  156.0361  130.3751  150.1557 LP  0  0  0  0  0  0  0  0  0  0  0  0  # atno 17370 bound_to 10713
  156.9744  130.9845  151.3451 LP  0  0  0  0  0  0  0  0  0  0  0  0  # atno 17371 bound_to 10713
  140.3363  134.7887  157.4364 LP  0  0  0  0  0  0  0  0  0  0  0  0  # atno 17394 bound_to 11000
  140.0975  134.5517  155.8384 LP  0  0  0  0  0  0  0  0  0  0  0  0  # atno 17395 bound_to 11000

$$$$
