AV-unprocessed.smi:210|AV-procd|sdf|1611|dock7
  -GOLD-   2262019533D 1   1.00000     0.00000
 Structure written by MMmdl.
 57 61  0  0  0  0  0  0  0  0  1 V2000
  154.3718  140.8989  160.4822 C   0  0  0  0  0  0  0  0  0  0  0  0
  153.9381  142.0694  159.8100 O   0  0  0  0  0  0  0  0  0  0  0  0
  152.5436  142.3012  159.9574 C   0  0  2  0  0  0  0  0  0  0  0  0
  151.7432  141.1813  159.2809 C   0  0  0  0  0  0  0  0  0  0  0  0
  151.7726  142.0198  157.9922 C   0  0  1  0  0  0  0  0  0  0  0  0
  150.5295  141.9949  157.2200 N   0  0  0  0  0  0  0  0  0  0  0  0
  150.5509  142.7058  155.9470 C   0  0  0  0  0  0  0  0  0  0  0  0
  150.0051  140.7571  157.0820 C   0  0  0  0  0  0  0  0  0  0  0  0
  149.0436  140.3270  157.9409 N   0  0  0  0  0  0  0  0  0  0  0  0
  148.5237  139.1039  157.7978 C   0  0  0  0  0  0  0  0  0  0  0  0
  148.8141  138.1743  156.8841 N   0  0  0  0  0  0  0  0  0  0  0  0
  149.7778  138.6082  156.0205 C   0  0  0  0  0  0  0  0  0  0  0  0
  150.4221  139.8762  156.0510 C   0  0  0  0  0  0  0  0  0  0  0  0
  151.3486  139.9688  155.0213 N   0  0  0  0  0  0  0  0  0  0  0  0
  151.2597  138.8163  154.4152 C   0  0  0  0  0  0  0  0  0  0  0  0
  150.3375  137.9396  154.9445 N   0  0  0  0  0  0  0  0  0  0  0  0
  150.0496  136.6119  154.4805 C   0  0  0  0  0  0  0  0  0  0  0  0
  148.8856  135.8146  155.0694 C   0  0  0  0  0  0  0  0  0  0  0  0
  149.6855  134.5084  154.8652 C   0  0  0  0  0  0  0  0  0  0  0  0
  149.5990  133.5024  156.0250 C   0  0  0  0  0  0  0  0  0  0  0  0
  149.5958  134.1605  157.2756 O   0  0  0  0  0  0  0  0  0  0  0  0
  149.4113  133.7746  153.5369 C   0  0  0  0  0  0  0  0  0  0  0  0
  148.1741  134.1647  152.9756 O   0  0  0  0  0  0  0  0  0  0  0  0
  150.9324  135.4237  154.8682 C   0  0  0  0  0  0  0  0  0  0  0  0
  151.9544  143.2574  158.8966 C   0  0  0  0  0  0  0  0  0  0  0  0
  152.7041  144.5136  158.4280 C   0  0  0  0  0  0  0  0  0  0  0  0
  151.8019  145.3349  159.3543 C   0  0  0  0  0  0  0  0  0  0  0  0
  150.7936  144.1819  159.3122 C   0  0  0  0  0  0  0  0  0  0  0  0
  155.4531  140.8003  160.3864 H   0  0  0  0  0  0  0  0  0  0  0  0
  153.9140  140.0091  160.0481 H   0  0  0  0  0  0  0  0  0  0  0  0
  154.1276  140.9288  161.5443 H   0  0  0  0  0  0  0  0  0  0  0  0
  152.2216  142.4875  160.9837 H   0  0  0  0  0  0  0  0  0  0  0  0
  152.2578  140.2225  159.2115 H   0  0  0  0  0  0  0  0  0  0  0  0
  150.7447  141.0708  159.7081 H   0  0  0  0  0  0  0  0  0  0  0  0
  152.6673  141.8195  157.3995 H   0  0  0  0  0  0  0  0  0  0  0  0
  149.6014  142.5960  155.4210 H   0  0  0  0  0  0  0  0  0  0  0  0
  151.3457  142.3264  155.3036 H   0  0  0  0  0  0  0  0  0  0  0  0
  150.7205  143.7708  156.0983 H   0  0  0  0  0  0  0  0  0  0  0  0
  147.7662  138.8318  158.5179 H   0  0  0  0  0  0  0  0  0  0  0  0
  151.8719  138.5728  153.5591 H   0  0  0  0  0  0  0  0  0  0  0  0
  149.9572  136.6676  153.3948 H   0  0  0  0  0  0  0  0  0  0  0  0
  148.7088  136.0443  156.1218 H   0  0  0  0  0  0  0  0  0  0  0  0
  147.9599  135.8789  154.4966 H   0  0  0  0  0  0  0  0  0  0  0  0
  148.7089  132.8772  155.9509 H   0  0  0  0  0  0  0  0  0  0  0  0
  150.4509  132.8221  156.0109 H   0  0  0  0  0  0  0  0  0  0  0  0
  148.8362  134.7215  157.3172 H   0  0  0  0  0  0  0  0  0  0  0  0
  150.2006  133.9604  152.8083 H   0  0  0  0  0  0  0  0  0  0  0  0
  149.3843  132.6946  153.6821 H   0  0  0  0  0  0  0  0  0  0  0  0
  148.3262  134.8892  152.3881 H   0  0  0  0  0  0  0  0  0  0  0  0
  151.6931  135.1716  154.1285 H   0  0  0  0  0  0  0  0  0  0  0  0
  151.3785  135.5309  155.8581 H   0  0  0  0  0  0  0  0  0  0  0  0
  153.7655  144.5479  158.6702 H   0  0  0  0  0  0  0  0  0  0  0  0
  152.5340  144.7367  157.3741 H   0  0  0  0  0  0  0  0  0  0  0  0
  152.2361  145.4788  160.3449 H   0  0  0  0  0  0  0  0  0  0  0  0
  151.4430  146.2721  158.9284 H   0  0  0  0  0  0  0  0  0  0  0  0
  150.0367  144.3239  158.5410 H   0  0  0  0  0  0  0  0  0  0  0  0
  150.3384  143.9444  160.2742 H   0  0  0  0  0  0  0  0  0  0  0  0
  1  2  1  0  0  0  0
  1 29  1  0  0  0  0
  1 30  1  0  0  0  0
  1 31  1  0  0  0  0
  2  3  1  0  0  0  0
  3 25  1  0  0  0  0
  3  4  1  0  0  0  0
  3 32  1  0  0  0  0
  4  5  1  0  0  0  0
  4 33  1  0  0  0  0
  4 34  1  0  0  0  0
  5  6  1  0  0  0  0
  5 25  1  0  0  0  0
  5 35  1  0  0  0  0
  6  7  1  0  0  0  0
  6  8  1  0  0  0  0
  7 36  1  0  0  0  0
  7 37  1  0  0  0  0
  7 38  1  0  0  0  0
  8 13  1  0  0  0  0
  8  9  2  0  0  0  0
  9 10  1  0  0  0  0
 10 11  2  0  0  0  0
 10 39  1  0  0  0  0
 11 12  1  0  0  0  0
 12 16  1  0  0  0  0
 12 13  2  0  0  0  0
 13 14  1  0  0  0  0
 14 15  2  0  0  0  0
 15 16  1  0  0  0  0
 15 40  1  0  0  0  0
 16 17  1  0  0  0  0
 17 24  1  0  0  0  0
 17 18  1  0  0  0  0
 17 41  1  0  0  0  0
 18 19  1  0  0  0  0
 18 42  1  0  0  0  0
 18 43  1  0  0  0  0
 19 20  1  0  0  0  0
 19 22  1  0  0  0  0
 19 24  1  0  0  0  0
 20 21  1  0  0  0  0
 20 44  1  0  0  0  0
 20 45  1  0  0  0  0
 21 46  1  0  0  0  0
 22 23  1  0  0  0  0
 22 47  1  0  0  0  0
 22 48  1  0  0  0  0
 23 49  1  0  0  0  0
 24 50  1  0  0  0  0
 24 51  1  0  0  0  0
 25 28  1  0  0  0  0
 25 26  1  0  0  0  0
 26 27  1  0  0  0  0
 26 52  1  0  0  0  0
 26 53  1  0  0  0  0
 27 28  1  0  0  0  0
 27 54  1  0  0  0  0
 27 55  1  0  0  0  0
 28 56  1  0  0  0  0
 28 57  1  0  0  0  0
M  END
> <s_m_source_file>
AV-unprocessed.smi

> <i_m_source_file_index>
210

> <i_lp_mmshare_version>
43012

> <i_f3d_flags>
0

> <s_epik_input>
W0NIMl0xW0NIMl1bQ0gyXUMxMltDQEhdKE9bQ0gzXSlbQ0gyXVtDQEhdMk4oW0NIM10pYyhuW2NIXW4zKWMoYzM0KW5bY0hdbjRbQ0hdKFtDSDJdNSlbQ0gyXUM1KFtDSDJdW09IXSlbQ0gyXVtPSF0=

> <s_epik_cmdline>
J2VwaWtfcHl0aG9uJywgJy1waCcsICc3LjAnLCAnLXRuJywgJzgnLCAnLW1hJywgJzIwMCcsICctbWV0YWxfYmluZGluZycsICctaW1hZScsICc8aW5maWxlLm1hZT4nLCAnLW9tYWUnLCAnPG91dGZpbGUubWFlPic=

> <r_lp_tautomer_probability>
1

> <r_epik_Ionization_Penalty>
0.00313676

> <r_epik_Ionization_Penalty_Charging>
0

> <r_epik_Ionization_Penalty_Neutral>
0.00313676

> <r_epik_State_Penalty>
0.00199132

> <r_epik_Charging_Adjusted_Penalty>
0.00199132

> <i_epik_Tot_Q>
0

> <i_epik_Tot_abs_Q>
0

> <r_epik_Metal_State_Penalty>
-0

> <b_epik_Metal_Only>
0

> <s_lp_Force_Field>
OPLS_2005

> <r_lp_Energy>
59.5036

> <b_lp_Chiralities_Consistent>
1

> <s_lp_Variant>
AV-unprocessed.smi:210-1

> <Gold.Version>
5.8.1

> <Gold.Id.Protein>
6NUR|6NUR_protein|mol2

> <Gold.PLP.Fitness>
50.3252

> <Gold.PLP.PLP>
-45.2532

> <Gold.PLP.part.hbond>
-3.0000

> <Gold.PLP.part.metal>
0.0000

> <Gold.PLP.part.buried>
-3.5454

> <Gold.PLP.part.nonpolar>
-39.2800

> <Gold.PLP.part.repulsive>
0.1037

> <Gold.PLP.ligand.clash>
0.0000

> <Gold.PLP.ligand.torsion>
2.5185

> <Gold.PLP.Chemscore.Hbond>
3.0000

> <Gold.PLP.Chemscore.CHOScore>
0.0000

> <Gold.PLP.Chemscore.Metal>
0.0000

> <Gold.Chemscore.Hbonds>
donor molecule, donor type, donor heavy atom, donor atom, acceptor molecule, acceptor atom, score
      L1  H    23    49       P1  7948  0.99
      P1  H  6896  6907       L1    21  0.26
      P1  H  7989  7998       L1    14  0.70

> <Gold.PLP.Chemscore.Internal.Correction>
1.1091

> <Gold.Rescore>
     Score         DG    S(hbond)    S(metal)    S(lipo)     H(rot)  DE(clash)    DE(int)     intcor
     12.24     -17.35       1.83        0.00     127.42       3.57       0.33       4.78       ----

> <Gold.Chemscore.Fitness>
12.2422

> <Gold.Chemscore.DG>
-17.3511

> <Gold.Chemscore.ZeroCoef>
-5.4800

> <Gold.Chemscore.Hbond>
1.8279

> <Gold.Chemscore.Metal>
0.0000

> <Gold.Chemscore.Lipo>
127.4223

> <Gold.Chemscore.Internal_Hbond>
0.0000

> <Gold.Chemscore.DEClash>
0.3329

> <Gold.Chemscore.DEInternal>
4.7761

> <Gold.Chemscore.Rot>
3.5712

> <Gold.Chemscore.Internal.Correction>
   9.000000E+99

> <Gold.Chemscore.Hbonds>
donor molecule, donor type, donor heavy atom, donor atom, acceptor molecule, acceptor atom, score
      L1  H    23    49       P1  7948  0.32
      P1  H  6896  6907       L1    21  0.19
      P1  H  7989  7998       L1    14  0.07

> <Gold.Chemscore.Hbond.Weighted>
-6.1051

> <Gold.Chemscore.Metal.Weighted>
-0.0000

> <Gold.Chemscore.Lipo.Weighted>
-14.9084

> <Gold.Chemscore.Internal_Hbond.Weighted>
0.0000

> <Gold.Chemscore.DEClash.Weighted>
0.3329

> <Gold.Chemscore.DEInternal.Weighted>
4.7761

> <Gold.Chemscore.Rot.Weighted>
9.1423

> <Gold.Chemscore.Internal.Correction.Weighted>
   9.000000E+99

> <Gold.Protein.RotatedTorsions>
[ 6907 6896 6895 6894 ] final  -99.23 input  -60.11 | X-H torsion
[ 7974 7965 7964 7962 ] final   35.11 input  175.53 | X-H torsion
[ 8008 7997 7996 7995 ] final  -98.65 input   59.86 | X-H torsion
[ 10167 10162 10161 10158 ] final -159.46 input  -65.29 | X-H torsion
[ 10718 10713 10712 10709 ] final  -95.17 input   66.30 | X-H torsion
[ 10763 10752 10751 10750 ] final   12.26 input  -60.55 | X-H torsion
[ 11005 11000 10999 10996 ] final  103.43 input  -57.11 | X-H torsion

> <Gold.Protein.ActiveResidues>
 VAL166  LYS551  ARG553  GLY616  TRP617  ASP618  TYR619  PRO620  LYS621  CYS622 
 ASP623  PHE694  ASN695  SER759  ASP760  ASP761  ALA762  ILE779  LEU786  VAL792 
 PHE793  MET794  SER795  GLU796  ALA797  LYS798  CYS799  TRP800  GLU811  SER814 

> <Gold.Protein.RotatedAtoms>
  150.7073  134.1072  159.3986 H   0  0  0  0  0  0  0  0  0  0  0  0  # atno 6907 bound_to 6896
  151.9059  135.0357  160.0519 H   0  0  0  0  0  0  0  0  0  0  0  0  # atno 6908 bound_to 6896
  152.2376  133.5073  159.5288 H   0  0  0  0  0  0  0  0  0  0  0  0  # atno 6909 bound_to 6896
  146.1306  139.6184  142.9229 H   0  0  0  0  0  0  0  0  0  0  0  0  # atno 7974 bound_to 7965
  154.8041  140.0453  157.1294 H   0  0  0  0  0  0  0  0  0  0  0  0  # atno 8008 bound_to 7997
  154.9444  140.3057  155.5085 H   0  0  0  0  0  0  0  0  0  0  0  0  # atno 8009 bound_to 7997
  156.2965  140.2299  156.4517 H   0  0  0  0  0  0  0  0  0  0  0  0  # atno 8010 bound_to 7997
  139.6613  143.9907  152.2227 H   0  0  0  0  0  0  0  0  0  0  0  0  # atno 10167 bound_to 10162
  156.0039  130.5098  150.6037 H   0  0  0  0  0  0  0  0  0  0  0  0  # atno 10718 bound_to 10713
  153.1841  135.6832  153.8438 H   0  0  0  0  0  0  0  0  0  0  0  0  # atno 10763 bound_to 10752
  153.7760  135.3189  155.3360 H   0  0  0  0  0  0  0  0  0  0  0  0  # atno 10764 bound_to 10752
  154.8078  135.4737  154.0533 H   0  0  0  0  0  0  0  0  0  0  0  0  # atno 10765 bound_to 10752
  139.8784  134.9263  156.5209 H   0  0  0  0  0  0  0  0  0  0  0  0  # atno 11005 bound_to 11000
  145.5269  141.0429  143.2405 LP  0  0  0  0  0  0  0  0  0  0  0  0  # atno 17320 bound_to 7965
  144.7687  139.6786  143.7204 LP  0  0  0  0  0  0  0  0  0  0  0  0  # atno 17321 bound_to 7965
  139.9647  144.6534  150.8046 LP  0  0  0  0  0  0  0  0  0  0  0  0  # atno 17342 bound_to 10162
  140.7581  143.3100  151.2867 LP  0  0  0  0  0  0  0  0  0  0  0  0  # atno 17343 bound_to 10162
  157.3881  131.0791  151.1418 LP  0  0  0  0  0  0  0  0  0  0  0  0  # atno 17370 bound_to 10713
  157.2118  130.6441  149.5777 LP  0  0  0  0  0  0  0  0  0  0  0  0  # atno 17371 bound_to 10713
  140.8451  133.8175  155.9113 LP  0  0  0  0  0  0  0  0  0  0  0  0  # atno 17394 bound_to 11000
  140.9199  134.2155  157.4933 LP  0  0  0  0  0  0  0  0  0  0  0  0  # atno 17395 bound_to 11000

$$$$
