AV-unprocessed.smi:1762|AV-procd|sdf|7115|dock6
  -GOLD-   22720 8343D 1   1.00000     0.00000
 Structure written by MMmdl.
 53 54  0  0  0  0  0  0  0  0  2 V2000
  151.0509  135.0759  155.9907 C   0  0  0  0  0  0  0  0  0  0  0  0
  149.9279  135.7219  155.1716 C   0  0  2  0  0  0  0  0  0  0  0  0
  150.1157  137.2448  155.0294 C   0  0  0  0  0  0  0  0  0  0  0  0
  148.9752  137.8626  154.2964 N   0  3  2  0  0  0  0  0  0  0  0  0
  149.0909  139.3442  154.0667 C   0  0  2  0  0  0  0  0  0  0  0  0
  149.9545  140.0094  155.1602 C   0  0  0  0  0  0  0  0  0  0  0  0
  151.1762  140.0861  155.0237 O   0  0  0  0  0  0  0  0  0  0  0  0
  149.3074  140.4855  156.2342 N   0  0  0  0  0  0  0  0  0  0  0  0
  149.9558  141.1444  157.3593 C   0  0  0  0  0  0  0  0  0  0  0  0
  151.0056  142.1495  156.8657 C   0  0  0  0  0  0  0  0  0  0  0  0
  151.4815  143.0719  157.9721 C   0  0  0  0  0  0  0  0  0  0  0  0
  151.3222  144.4700  157.8638 C   0  0  0  0  0  0  0  0  0  0  0  0
  151.7754  145.2805  158.9228 C   0  0  0  0  0  0  0  0  0  0  0  0
  152.3658  144.6651  160.0433 C   0  0  0  0  0  0  0  0  0  0  0  0
  152.4778  143.2603  160.0552 C   0  0  0  0  0  0  0  0  0  0  0  0
  152.0470  142.4739  159.0452 N   0  0  0  0  0  0  0  0  0  0  0  0
  147.7174  140.0839  153.9224 C   0  0  0  0  0  0  0  0  0  0  0  0
  146.8267  139.4985  152.8086 C   0  0  0  0  0  0  0  0  0  0  0  0
  147.8404  141.6128  153.7524 C   0  0  0  0  0  0  0  0  0  0  0  0
  147.7023  137.4758  154.9711 C   0  0  0  0  0  0  0  0  0  0  0  0
  147.5816  135.9467  155.0977 C   0  0  2  0  0  0  0  0  0  0  0  0
  146.3072  135.5259  155.8382 C   0  0  0  0  0  0  0  0  0  0  0  0
  148.6967  135.4580  155.8295 O   0  0  0  0  0  0  0  0  0  0  0  0
  152.0225  135.2395  155.5239 H   0  0  0  0  0  0  0  0  0  0  0  0
  150.9012  133.9993  156.0763 H   0  0  0  0  0  0  0  0  0  0  0  0
  151.0904  135.4874  156.9997 H   0  0  0  0  0  0  0  0  0  0  0  0
  149.9133  135.2604  154.1823 H   0  0  0  0  0  0  0  0  0  0  0  0
  150.2110  137.7102  156.0118 H   0  0  0  0  0  0  0  0  0  0  0  0
  151.0554  137.4019  154.5039 H   0  0  0  0  0  0  0  0  0  0  0  0
  149.6146  139.4627  153.1159 H   0  0  0  0  0  0  0  0  0  0  0  0
  148.3035  140.3837  156.2767 H   0  0  0  0  0  0  0  0  0  0  0  0
  149.2003  141.6534  157.9600 H   0  0  0  0  0  0  0  0  0  0  0  0
  150.4280  140.3970  157.9993 H   0  0  0  0  0  0  0  0  0  0  0  0
  151.8663  141.6198  156.4545 H   0  0  0  0  0  0  0  0  0  0  0  0
  150.5955  142.7481  156.0512 H   0  0  0  0  0  0  0  0  0  0  0  0
  150.8636  144.9133  156.9920 H   0  0  0  0  0  0  0  0  0  0  0  0
  151.6710  146.3545  158.8767 H   0  0  0  0  0  0  0  0  0  0  0  0
  152.7241  145.2549  160.8739 H   0  0  0  0  0  0  0  0  0  0  0  0
  152.9244  142.7549  160.8989 H   0  0  0  0  0  0  0  0  0  0  0  0
  147.1451  139.9025  154.8309 H   0  0  0  0  0  0  0  0  0  0  0  0
  147.2264  139.6984  151.8141 H   0  0  0  0  0  0  0  0  0  0  0  0
  145.8261  139.9302  152.8451 H   0  0  0  0  0  0  0  0  0  0  0  0
  146.7189  138.4189  152.9163 H   0  0  0  0  0  0  0  0  0  0  0  0
  148.2940  141.8779  152.7975 H   0  0  0  0  0  0  0  0  0  0  0  0
  148.4420  142.0660  154.5397 H   0  0  0  0  0  0  0  0  0  0  0  0
  146.8583  142.0857  153.7844 H   0  0  0  0  0  0  0  0  0  0  0  0
  147.6631  137.9371  155.9594 H   0  0  0  0  0  0  0  0  0  0  0  0
  146.8346  137.8399  154.4214 H   0  0  0  0  0  0  0  0  0  0  0  0
  147.5704  135.4936  154.1046 H   0  0  0  0  0  0  0  0  0  0  0  0
  145.4153  135.8687  155.3130 H   0  0  0  0  0  0  0  0  0  0  0  0
  146.2815  135.9388  156.8472 H   0  0  0  0  0  0  0  0  0  0  0  0
  146.2460  134.4405  155.9215 H   0  0  0  0  0  0  0  0  0  0  0  0
  148.9601  137.4381  153.3795 H   0  0  0  0  0  0  0  0  0  0  0  0
  1  2  1  0  0  0  0
  1 24  1  0  0  0  0
  1 25  1  0  0  0  0
  1 26  1  0  0  0  0
  2 23  1  0  0  0  0
  2  3  1  0  0  0  0
  2 27  1  0  0  0  0
  3  4  1  0  0  0  0
  3 28  1  0  0  0  0
  3 29  1  0  0  0  0
  4  5  1  0  0  0  0
  4 20  1  0  0  0  0
  4 53  1  0  0  0  0
  5  6  1  0  0  0  0
  5 17  1  0  0  0  0
  5 30  1  0  0  0  0
  6  7  2  0  0  0  0
  6  8  1  0  0  0  0
  8  9  1  0  0  0  0
  8 31  1  0  0  0  0
  9 10  1  0  0  0  0
  9 32  1  0  0  0  0
  9 33  1  0  0  0  0
 10 11  1  0  0  0  0
 10 34  1  0  0  0  0
 10 35  1  0  0  0  0
 11 16  1  0  0  0  0
 11 12  2  0  0  0  0
 12 13  1  0  0  0  0
 12 36  1  0  0  0  0
 13 14  2  0  0  0  0
 13 37  1  0  0  0  0
 14 15  1  0  0  0  0
 14 38  1  0  0  0  0
 15 16  2  0  0  0  0
 15 39  1  0  0  0  0
 17 18  1  0  0  0  0
 17 19  1  0  0  0  0
 17 40  1  0  0  0  0
 18 41  1  0  0  0  0
 18 42  1  0  0  0  0
 18 43  1  0  0  0  0
 19 44  1  0  0  0  0
 19 45  1  0  0  0  0
 19 46  1  0  0  0  0
 20 21  1  0  0  0  0
 20 47  1  0  0  0  0
 20 48  1  0  0  0  0
 21 22  1  0  0  0  0
 21 23  1  0  0  0  0
 21 49  1  0  0  0  0
 22 50  1  0  0  0  0
 22 51  1  0  0  0  0
 22 52  1  0  0  0  0
M  CHG  1   4   1
M  END
> <s_m_source_file>
AV-unprocessed.smi

> <i_m_source_file_index>
1762

> <i_lp_mmshare_version>
43012

> <i_f3d_flags>
0

> <s_epik_input>
W0NIM11bQ0BASF0xW0NIMl1OKFtDSDJdW0NASF0oTzEpW0NIM10pW0NAQEhdKFtDSF0oW0NIM10pW0NIM10pQyg9TylbTkhdW0NIMl1bQ0gyXWMyW2NIXVtjSF1bY0hdW2NIXW4y

> <s_epik_cmdline>
J2VwaWtfcHl0aG9uJywgJy1waCcsICc3LjAnLCAnLXRuJywgJzgnLCAnLW1hJywgJzIwMCcsICctbWV0YWxfYmluZGluZycsICctaW1hZScsICc8aW5maWxlLm1hZT4nLCAnLW9tYWUnLCAnPG91dGZpbGUubWFlPic=

> <r_epik_Ionization_Penalty>
2.27005

> <r_epik_Ionization_Penalty_Charging>
2.24983

> <r_epik_Ionization_Penalty_Neutral>
0.0202209

> <r_epik_State_Penalty>
2.40228

> <r_epik_Charging_Adjusted_Penalty>
4.65211

> <i_epik_Tot_Q>
1

> <i_epik_Tot_abs_Q>
1

> <r_epik_Metal_State_Penalty>
2.40762

> <b_epik_Metal_Only>
0

> <s_lp_Force_Field>
OPLS_2005

> <r_lp_Energy>
21.2519

> <b_lp_Chiralities_Consistent>
1

> <s_lp_Variant>
AV-unprocessed.smi:1762-17

> <Gold.Version>
5.8.1

> <Gold.Id.Protein>
6NUR|6NUR_protein|mol2

> <Gold.PLP.Fitness>
46.9735

> <Gold.PLP.PLP>
-41.1423

> <Gold.PLP.part.hbond>
-2.0000

> <Gold.PLP.part.metal>
0.0000

> <Gold.PLP.part.buried>
-4.2941

> <Gold.PLP.part.nonpolar>
-34.6730

> <Gold.PLP.part.repulsive>
0.1170

> <Gold.PLP.ligand.clash>
0.0000

> <Gold.PLP.ligand.torsion>
1.7310

> <Gold.PLP.Chemscore.Hbond>
3.0000

> <Gold.PLP.Chemscore.CHOScore>
0.0000

> <Gold.PLP.Chemscore.Metal>
0.0000

> <Gold.Chemscore.Hbonds>
donor molecule, donor type, donor heavy atom, donor atom, acceptor molecule, acceptor atom, score
      L1  H     4    53       P1  7948  2.00
      P1  H  7989  7998       L1     7  1.00

> <Gold.PLP.Chemscore.Internal.Correction>
0.2932

> <Gold.Rescore>
     Score         DG    S(hbond)    S(metal)    S(lipo)     H(rot)  DE(clash)    DE(int)     intcor
     18.61     -21.66       1.98        0.00     118.15       1.66       0.23       2.82       ----

> <Gold.Chemscore.Fitness>
18.6120

> <Gold.Chemscore.DG>
-21.6608

> <Gold.Chemscore.ZeroCoef>
-5.4800

> <Gold.Chemscore.Hbond>
1.9807

> <Gold.Chemscore.Metal>
0.0000

> <Gold.Chemscore.Lipo>
118.1518

> <Gold.Chemscore.Internal_Hbond>
0.0000

> <Gold.Chemscore.DEClash>
0.2334

> <Gold.Chemscore.DEInternal>
2.8154

> <Gold.Chemscore.Rot>
1.6635

> <Gold.Chemscore.Internal.Correction>
   9.000000E+99

> <Gold.Chemscore.Hbonds>
donor molecule, donor type, donor heavy atom, donor atom, acceptor molecule, acceptor atom, score
      L1  H     4    53       P1  7948  1.00
      P1  H  7989  7998       L1     7  0.85

> <Gold.Chemscore.Hbond.Weighted>
-6.6157

> <Gold.Chemscore.Metal.Weighted>
-0.0000

> <Gold.Chemscore.Lipo.Weighted>
-13.8238

> <Gold.Chemscore.Internal_Hbond.Weighted>
0.0000

> <Gold.Chemscore.DEClash.Weighted>
0.2334

> <Gold.Chemscore.DEInternal.Weighted>
2.8154

> <Gold.Chemscore.Rot.Weighted>
4.2586

> <Gold.Chemscore.Internal.Correction.Weighted>
   9.000000E+99

> <Gold.Protein.RotatedTorsions>
[ 6907 6896 6895 6894 ] final   73.14 input  -60.11 | X-H torsion
[ 7974 7965 7964 7962 ] final   -3.69 input  175.53 | X-H torsion
[ 8008 7997 7996 7995 ] final -104.76 input   59.86 | X-H torsion
[ 10167 10162 10161 10158 ] final  121.51 input  -65.29 | X-H torsion
[ 10718 10713 10712 10709 ] final  -12.93 input   66.30 | X-H torsion
[ 10763 10752 10751 10750 ] final -115.80 input  -60.55 | X-H torsion
[ 11005 11000 10999 10996 ] final -109.06 input  -57.11 | X-H torsion

> <Gold.Protein.ActiveResidues>
 VAL166  LYS551  ARG553  GLY616  TRP617  ASP618  TYR619  PRO620  LYS621  CYS622 
 ASP623  PHE694  ASN695  SER759  ASP760  ASP761  ALA762  ILE779  LEU786  VAL792 
 PHE793  MET794  SER795  GLU796  ALA797  LYS798  CYS799  TRP800  GLU811  SER814 

> <Gold.Protein.RotatedAtoms>
  152.4907  134.4466  159.9560 H   0  0  0  0  0  0  0  0  0  0  0  0  # atno 6907 bound_to 6896
  151.4454  133.3626  159.2795 H   0  0  0  0  0  0  0  0  0  0  0  0  # atno 6908 bound_to 6896
  150.9058  134.8497  159.7452 H   0  0  0  0  0  0  0  0  0  0  0  0  # atno 6909 bound_to 6896
  146.2385  140.1759  142.8332 H   0  0  0  0  0  0  0  0  0  0  0  0  # atno 7974 bound_to 7965
  154.8900  140.0416  157.1833 H   0  0  0  0  0  0  0  0  0  0  0  0  # atno 8008 bound_to 7997
  154.8551  140.2935  155.5553 H   0  0  0  0  0  0  0  0  0  0  0  0  # atno 8009 bound_to 7997
  156.2997  140.2457  156.3516 H   0  0  0  0  0  0  0  0  0  0  0  0  # atno 8010 bound_to 7997
  139.5915  144.7027  151.3278 H   0  0  0  0  0  0  0  0  0  0  0  0  # atno 10167 bound_to 10162
  156.6375  130.4918  149.6107 H   0  0  0  0  0  0  0  0  0  0  0  0  # atno 10718 bound_to 10713
  154.8495  135.4368  154.1720 H   0  0  0  0  0  0  0  0  0  0  0  0  # atno 10763 bound_to 10752
  153.2831  135.6955  153.7372 H   0  0  0  0  0  0  0  0  0  0  0  0  # atno 10764 bound_to 10752
  153.6568  135.3442  155.3091 H   0  0  0  0  0  0  0  0  0  0  0  0  # atno 10765 bound_to 10752
  141.0868  133.9125  157.2167 H   0  0  0  0  0  0  0  0  0  0  0  0  # atno 11005 bound_to 11000
  144.9974  140.8601  143.5302 LP  0  0  0  0  0  0  0  0  0  0  0  0  # atno 17320 bound_to 7965
  145.1773  139.2371  143.5311 LP  0  0  0  0  0  0  0  0  0  0  0  0  # atno 17321 bound_to 7965
  140.7177  143.7221  150.7687 LP  0  0  0  0  0  0  0  0  0  0  0  0  # atno 17342 bound_to 10162
  140.0778  143.4998  152.2546 LP  0  0  0  0  0  0  0  0  0  0  0  0  # atno 17343 bound_to 10162
  156.2185  130.6723  151.1344 LP  0  0  0  0  0  0  0  0  0  0  0  0  # atno 17370 bound_to 10713
  157.7181  131.0698  150.6246 LP  0  0  0  0  0  0  0  0  0  0  0  0  # atno 17371 bound_to 10713
  139.9687  135.0134  156.9456 LP  0  0  0  0  0  0  0  0  0  0  0  0  # atno 17394 bound_to 11000
  140.5344  134.0781  155.7324 LP  0  0  0  0  0  0  0  0  0  0  0  0  # atno 17395 bound_to 11000

$$$$
