AV-unprocessed.smi:284|AV-procd|sdf|2164|dock3
  -GOLD-   2262021523D 1   1.00000     0.00000
 Structure written by MMmdl.
 60 62  0  0  0  0  0  0  0  0  1 V2000
  150.1610  133.6741  156.6281 C   0  0  0  0  0  0  0  0  0  0  0  0
  149.7040  134.9789  155.9948 C   0  0  0  0  0  0  0  0  0  0  0  0
  148.3947  135.2875  155.8482 C   0  0  0  0  0  0  0  0  0  0  0  0
  147.9470  136.4660  155.2781 N   0  0  0  0  0  0  0  0  0  0  0  0
  146.4737  136.7785  155.1211 C   0  0  1  0  0  0  0  0  0  0  0  0
  145.8910  136.0367  153.9082 C   0  0  0  0  0  0  0  0  0  0  0  0
  144.5938  135.4686  154.4517 C   0  0  2  0  0  0  0  0  0  0  0  0
  143.5322  136.3877  154.2725 O   0  0  0  0  0  0  0  0  0  0  0  0
  144.9333  135.2528  155.9310 C   0  0  2  0  0  0  0  0  0  0  0  0
  143.7519  135.1396  156.9102 C   0  0  0  0  0  0  0  0  0  0  0  0
  142.9230  134.0550  156.5504 O   0  0  0  0  0  0  0  0  0  0  0  0
  145.7708  136.3582  156.2553 O   0  0  0  0  0  0  0  0  0  0  0  0
  148.8808  137.4076  154.8016 C   0  0  0  0  0  0  0  0  0  0  0  0
  148.5039  138.4596  154.2798 O   0  0  0  0  0  0  0  0  0  0  0  0
  150.2562  137.1144  154.9367 N   0  0  0  0  0  0  0  0  0  0  0  0
  151.2381  138.1145  154.4613 C   0  0  0  0  0  0  0  0  0  0  0  0
  151.2109  139.4232  155.2665 C   0  0  0  0  0  0  0  0  0  0  0  0
  150.7273  140.4435  154.7750 O   0  0  0  0  0  0  0  0  0  0  0  0
  151.7079  139.3349  156.5139 N   0  0  0  0  0  0  0  0  0  0  0  0
  151.8501  140.3480  157.5022 C   0  0  0  0  0  0  0  0  0  0  0  0
  151.4967  141.6595  157.1297 C   0  0  0  0  0  0  0  0  0  0  0  0
  151.5871  142.7203  158.0511 C   0  0  0  0  0  0  0  0  0  0  0  0
  152.0285  142.4935  159.3777 C   0  0  0  0  0  0  0  0  0  0  0  0
  152.1387  143.6258  160.4170 C   0  0  0  0  0  0  0  0  0  0  0  0
  152.8582  143.1052  161.6793 C   0  0  0  0  0  0  0  0  0  0  0  0
  150.7634  144.1765  160.8574 C   0  0  0  0  0  0  0  0  0  0  0  0
  152.9435  144.7987  159.8196 C   0  0  0  0  0  0  0  0  0  0  0  0
  152.3731  141.1719  159.7469 C   0  0  0  0  0  0  0  0  0  0  0  0
  152.2817  140.1093  158.8279 C   0  0  0  0  0  0  0  0  0  0  0  0
  150.7279  135.9199  155.5341 C   0  0  0  0  0  0  0  0  0  0  0  0
  151.9367  135.7113  155.6519 O   0  0  0  0  0  0  0  0  0  0  0  0
  149.3184  133.0491  156.9253 H   0  0  0  0  0  0  0  0  0  0  0  0
  150.7589  133.8721  157.5183 H   0  0  0  0  0  0  0  0  0  0  0  0
  150.7686  133.1021  155.9259 H   0  0  0  0  0  0  0  0  0  0  0  0
  147.6736  134.5659  156.1996 H   0  0  0  0  0  0  0  0  0  0  0  0
  146.3943  137.8648  155.0550 H   0  0  0  0  0  0  0  0  0  0  0  0
  145.7684  136.7042  153.0544 H   0  0  0  0  0  0  0  0  0  0  0  0
  146.5591  135.2226  153.6220 H   0  0  0  0  0  0  0  0  0  0  0  0
  144.3242  134.5334  153.9599 H   0  0  0  0  0  0  0  0  0  0  0  0
  143.0278  136.1221  153.5189 H   0  0  0  0  0  0  0  0  0  0  0  0
  145.5452  134.3532  156.0135 H   0  0  0  0  0  0  0  0  0  0  0  0
  144.1241  134.9614  157.9194 H   0  0  0  0  0  0  0  0  0  0  0  0
  143.1662  136.0580  156.9467 H   0  0  0  0  0  0  0  0  0  0  0  0
  143.3551  133.2514  156.7964 H   0  0  0  0  0  0  0  0  0  0  0  0
  152.2548  137.7203  154.4878 H   0  0  0  0  0  0  0  0  0  0  0  0
  151.0730  138.3394  153.4059 H   0  0  0  0  0  0  0  0  0  0  0  0
  151.9906  138.4104  156.8051 H   0  0  0  0  0  0  0  0  0  0  0  0
  151.1532  141.8615  156.1255 H   0  0  0  0  0  0  0  0  0  0  0  0
  151.3065  143.7034  157.7079 H   0  0  0  0  0  0  0  0  0  0  0  0
  152.9305  143.8806  162.4429 H   0  0  0  0  0  0  0  0  0  0  0  0
  153.8744  142.7730  161.4673 H   0  0  0  0  0  0  0  0  0  0  0  0
  152.3229  142.2628  162.1189 H   0  0  0  0  0  0  0  0  0  0  0  0
  150.1473  143.4025  161.3169 H   0  0  0  0  0  0  0  0  0  0  0  0
  150.2091  144.5979  160.0178 H   0  0  0  0  0  0  0  0  0  0  0  0
  150.8747  144.9727  161.5946 H   0  0  0  0  0  0  0  0  0  0  0  0
  153.0229  145.6261  160.5256 H   0  0  0  0  0  0  0  0  0  0  0  0
  152.4673  145.1839  158.9171 H   0  0  0  0  0  0  0  0  0  0  0  0
  153.9598  144.5065  159.5547 H   0  0  0  0  0  0  0  0  0  0  0  0
  152.7089  140.9567  160.7501 H   0  0  0  0  0  0  0  0  0  0  0  0
  152.5365  139.1201  159.1734 H   0  0  0  0  0  0  0  0  0  0  0  0
  1  2  1  0  0  0  0
  1 32  1  0  0  0  0
  1 33  1  0  0  0  0
  1 34  1  0  0  0  0
  2 30  1  0  0  0  0
  2  3  2  0  0  0  0
  3  4  1  0  0  0  0
  3 35  1  0  0  0  0
  4  5  1  0  0  0  0
  4 13  1  0  0  0  0
  5 12  1  0  0  0  0
  5  6  1  0  0  0  0
  5 36  1  0  0  0  0
  6  7  1  0  0  0  0
  6 37  1  0  0  0  0
  6 38  1  0  0  0  0
  7  8  1  0  0  0  0
  7  9  1  0  0  0  0
  7 39  1  0  0  0  0
  8 40  1  0  0  0  0
  9 10  1  0  0  0  0
  9 12  1  0  0  0  0
  9 41  1  0  0  0  0
 10 11  1  0  0  0  0
 10 42  1  0  0  0  0
 10 43  1  0  0  0  0
 11 44  1  0  0  0  0
 13 14  2  0  0  0  0
 13 15  1  0  0  0  0
 15 16  1  0  0  0  0
 15 30  1  0  0  0  0
 16 17  1  0  0  0  0
 16 45  1  0  0  0  0
 16 46  1  0  0  0  0
 17 18  2  0  0  0  0
 17 19  1  0  0  0  0
 19 20  1  0  0  0  0
 19 47  1  0  0  0  0
 20 29  1  0  0  0  0
 20 21  2  0  0  0  0
 21 22  1  0  0  0  0
 21 48  1  0  0  0  0
 22 23  2  0  0  0  0
 22 49  1  0  0  0  0
 23 24  1  0  0  0  0
 23 28  1  0  0  0  0
 24 25  1  0  0  0  0
 24 26  1  0  0  0  0
 24 27  1  0  0  0  0
 25 50  1  0  0  0  0
 25 51  1  0  0  0  0
 25 52  1  0  0  0  0
 26 53  1  0  0  0  0
 26 54  1  0  0  0  0
 26 55  1  0  0  0  0
 27 56  1  0  0  0  0
 27 57  1  0  0  0  0
 27 58  1  0  0  0  0
 28 29  2  0  0  0  0
 28 59  1  0  0  0  0
 29 60  1  0  0  0  0
 30 31  2  0  0  0  0
M  END
> <s_m_source_file>
AV-unprocessed.smi

> <i_m_source_file_index>
284

> <i_lp_mmshare_version>
43012

> <i_f3d_flags>
0

> <s_epik_input>
W09IXVtDSDJdW0NAQEhdKE8xKVtDQEhdKFtPSF0pW0NIMl1bQ0BIXTFuKFtjSF1jMltDSDNdKWMoPU8pbihjMj1PKVtDSDJdQyg9TylbTkhdYzNbY0hdW2NIXWMoQyhbQ0gzXSkoW0NIM10pW0NIM10pW2NIXVtjSF0z

> <s_epik_cmdline>
J2VwaWtfcHl0aG9uJywgJy1waCcsICc3LjAnLCAnLXRuJywgJzgnLCAnLW1hJywgJzIwMCcsICctbWV0YWxfYmluZGluZycsICctaW1hZScsICc8aW5maWxlLm1hZT4nLCAnLW9tYWUnLCAnPG91dGZpbGUubWFlPic=

> <r_lp_tautomer_probability>
1

> <r_epik_Ionization_Penalty>
4.92358e-06

> <r_epik_Ionization_Penalty_Charging>
1.29777e-07

> <r_epik_Ionization_Penalty_Neutral>
4.79381e-06

> <r_epik_State_Penalty>
-0

> <r_epik_Charging_Adjusted_Penalty>
1.29777e-07

> <i_epik_Tot_Q>
0

> <i_epik_Tot_abs_Q>
0

> <r_epik_Metal_State_Penalty>
-0

> <b_epik_Metal_Only>
0

> <s_epik_Chemistry_Notes>
This compound contains an acetal/aminal-like group ( X-CH(R)-Y where X, Y are N, S, or O) that may be acid/base labile, releasing an aldehyde.

> <s_lp_Force_Field>
OPLS_2005

> <r_lp_Energy>
40.7373

> <b_lp_Chiralities_Consistent>
1

> <s_lp_Variant>
AV-unprocessed.smi:284-8

> <Gold.Version>
5.8.1

> <Gold.Id.Protein>
6NUR|6NUR_protein|mol2

> <Gold.PLP.Fitness>
50.7711

> <Gold.PLP.PLP>
-43.6124

> <Gold.PLP.part.hbond>
-3.9184

> <Gold.PLP.part.metal>
0.0000

> <Gold.PLP.part.buried>
-5.9457

> <Gold.PLP.part.nonpolar>
-34.9763

> <Gold.PLP.part.repulsive>
0.4270

> <Gold.PLP.ligand.clash>
0.0000

> <Gold.PLP.ligand.torsion>
0.9903

> <Gold.PLP.Chemscore.Hbond>
3.0000

> <Gold.PLP.Chemscore.CHOScore>
0.0000

> <Gold.PLP.Chemscore.Metal>
0.0000

> <Gold.Chemscore.Hbonds>
donor molecule, donor type, donor heavy atom, donor atom, acceptor molecule, acceptor atom, score
      P1  H  7989  7998       L1    18  1.00
      P1  H 10752 10763       L1    31  0.60
      P1  H 11000 11005       L1    11  0.77

> <Gold.PLP.Chemscore.Internal.Correction>
0.1394

> <Gold.Rescore>
     Score         DG    S(hbond)    S(metal)    S(lipo)     H(rot)  DE(clash)    DE(int)     intcor
     15.11     -17.67       1.97        0.00     119.57       3.27       0.23       2.33       ----

> <Gold.Chemscore.Fitness>
15.1100

> <Gold.Chemscore.DG>
-17.6700

> <Gold.Chemscore.ZeroCoef>
-5.4800

> <Gold.Chemscore.Hbond>
1.9703

> <Gold.Chemscore.Metal>
0.0000

> <Gold.Chemscore.Lipo>
119.5653

> <Gold.Chemscore.Internal_Hbond>
0.0000

> <Gold.Chemscore.DEClash>
0.2291

> <Gold.Chemscore.DEInternal>
2.3309

> <Gold.Chemscore.Rot>
3.2735

> <Gold.Chemscore.Internal.Correction>
   9.000000E+99

> <Gold.Chemscore.Hbonds>
donor molecule, donor type, donor heavy atom, donor atom, acceptor molecule, acceptor atom, score
      P1  H  7989  7998       L1    18  0.68
      P1  H 10752 10763       L1    31  0.60
      P1  H 11000 11005       L1    11  0.34

> <Gold.Chemscore.Hbond.Weighted>
-6.5809

> <Gold.Chemscore.Metal.Weighted>
-0.0000

> <Gold.Chemscore.Lipo.Weighted>
-13.9891

> <Gold.Chemscore.Internal_Hbond.Weighted>
0.0000

> <Gold.Chemscore.DEClash.Weighted>
0.2291

> <Gold.Chemscore.DEInternal.Weighted>
2.3309

> <Gold.Chemscore.Rot.Weighted>
8.3801

> <Gold.Chemscore.Internal.Correction.Weighted>
   9.000000E+99

> <Gold.Protein.RotatedTorsions>
[ 6907 6896 6895 6894 ] final   61.71 input  -60.11 | X-H torsion
[ 7974 7965 7964 7962 ] final  139.92 input  175.53 | X-H torsion
[ 8008 7997 7996 7995 ] final  149.70 input   59.86 | X-H torsion
[ 10167 10162 10161 10158 ] final  120.37 input  -65.29 | X-H torsion
[ 10718 10713 10712 10709 ] final   26.73 input   66.30 | X-H torsion
[ 10763 10752 10751 10750 ] final   69.51 input  -60.55 | X-H torsion
[ 11005 11000 10999 10996 ] final  -88.37 input  -57.11 | X-H torsion

> <Gold.Protein.ActiveResidues>
 VAL166  LYS551  ARG553  GLY616  TRP617  ASP618  TYR619  PRO620  LYS621  CYS622 
 ASP623  PHE694  ASN695  SER759  ASP760  ASP761  ALA762  ILE779  LEU786  VAL792 
 PHE793  MET794  SER795  GLU796  ALA797  LYS798  CYS799  TRP800  GLU811  SER814 

> <Gold.Protein.RotatedAtoms>
  152.4112  134.6121  160.0028 H   0  0  0  0  0  0  0  0  0  0  0  0  # atno 6907 bound_to 6896
  151.6298  133.3327  159.3114 H   0  0  0  0  0  0  0  0  0  0  0  0  # atno 6908 bound_to 6896
  150.8003  134.7131  159.6660 H   0  0  0  0  0  0  0  0  0  0  0  0  # atno 6909 bound_to 6896
  144.9234  139.5138  143.5652 H   0  0  0  0  0  0  0  0  0  0  0  0  # atno 7974 bound_to 7965
  156.2745  140.2095  156.5900 H   0  0  0  0  0  0  0  0  0  0  0  0  # atno 8008 bound_to 7997
  154.6990  140.0523  157.0463 H   0  0  0  0  0  0  0  0  0  0  0  0  # atno 8009 bound_to 7997
  155.0761  140.3182  155.4618 H   0  0  0  0  0  0  0  0  0  0  0  0  # atno 8010 bound_to 7997
  139.5986  144.7050  151.3116 H   0  0  0  0  0  0  0  0  0  0  0  0  # atno 10167 bound_to 10162
  157.2108  130.6933  149.6227 H   0  0  0  0  0  0  0  0  0  0  0  0  # atno 10718 bound_to 10713
  153.0291  135.5208  154.7300 H   0  0  0  0  0  0  0  0  0  0  0  0  # atno 10763 bound_to 10752
  154.6330  135.2902  155.0196 H   0  0  0  0  0  0  0  0  0  0  0  0  # atno 10764 bound_to 10752
  154.1141  135.6617  153.4943 H   0  0  0  0  0  0  0  0  0  0  0  0  # atno 10765 bound_to 10752
  141.1603  133.7566  156.9442 H   0  0  0  0  0  0  0  0  0  0  0  0  # atno 11005 bound_to 11000
  146.3215  139.8131  142.8942 LP  0  0  0  0  0  0  0  0  0  0  0  0  # atno 17320 bound_to 7965
  145.3259  141.0255  143.3474 LP  0  0  0  0  0  0  0  0  0  0  0  0  # atno 17321 bound_to 7965
  140.7232  143.7077  150.7794 LP  0  0  0  0  0  0  0  0  0  0  0  0  # atno 17342 bound_to 10162
  140.0649  143.5118  152.2609 LP  0  0  0  0  0  0  0  0  0  0  0  0  # atno 17343 bound_to 10162
  155.9691  130.4552  150.5878 LP  0  0  0  0  0  0  0  0  0  0  0  0  # atno 17370 bound_to 10713
  157.3674  131.0760  151.1586 LP  0  0  0  0  0  0  0  0  0  0  0  0  # atno 17371 bound_to 10713
  140.1301  134.9361  157.2325 LP  0  0  0  0  0  0  0  0  0  0  0  0  # atno 17394 bound_to 11000
  140.2964  134.3182  155.7301 LP  0  0  0  0  0  0  0  0  0  0  0  0  # atno 17395 bound_to 11000

$$$$
