AV-unprocessed.smi:2946|AV-procd|sdf|11281|dock6
  -GOLD-   2272016173D 1   1.00000     0.00000
 Structure written by MMmdl.
 35 36  0  0  0  0  0  0  0  0  1 V2000
  152.4638  143.7973  162.6597 C   0  0  0  0  0  0  0  0  0  0  0  0
  152.9033  142.7555  161.7534 N   0  0  0  0  0  0  0  0  0  0  0  0
  153.9308  141.8478  162.0257 C   0  0  0  0  0  0  0  0  0  0  0  0
  154.5864  141.9611  163.2471 N   0  0  0  0  0  0  0  0  0  0  0  0
  154.3121  142.9398  164.2890 C   0  0  0  0  0  0  0  0  0  0  0  0
  155.3329  142.8593  165.4345 C   0  0  1  0  0  0  0  0  0  0  0  0
  155.0253  143.7340  166.6528 C   0  0  0  0  0  0  0  0  0  0  0  0
  155.7458  142.9846  167.7506 C   0  0  0  0  0  0  0  0  0  0  0  0
  155.5008  141.5332  167.3488 C   0  0  0  0  0  0  0  0  0  0  0  0
  155.4568  141.5260  165.9244 O   0  0  0  0  0  0  0  0  0  0  0  0
  154.2682  140.8833  161.1246 C   0  0  0  0  0  0  0  0  0  0  0  0
  155.2673  139.8917  161.3726 C   0  0  0  0  0  0  0  0  0  0  0  0
  156.0676  139.0835  161.5902 N   0  0  0  0  0  0  0  0  0  0  0  0
  153.5982  140.7621  159.8318 C   0  0  0  0  0  0  0  0  0  0  0  0
  153.8667  139.8939  158.9980 O   0  0  0  0  0  0  0  0  0  0  0  0
  152.5954  141.7239  159.5940 N   0  0  0  0  0  0  0  0  0  0  0  0
  151.9058  141.6365  158.3217 C   0  0  0  0  0  0  0  0  0  0  0  0
  152.2155  142.7223  160.5154 C   0  0  0  0  0  0  0  0  0  0  0  0
  151.3194  143.5329  160.2615 O   0  0  0  0  0  0  0  0  0  0  0  0
  152.9559  143.6990  163.6246 H   0  0  0  0  0  0  0  0  0  0  0  0
  151.3865  143.6882  162.7985 H   0  0  0  0  0  0  0  0  0  0  0  0
  152.7195  144.7541  162.2010 H   0  0  0  0  0  0  0  0  0  0  0  0
  154.9080  141.0836  163.6307 H   0  0  0  0  0  0  0  0  0  0  0  0
  154.3288  143.9342  163.8423 H   0  0  0  0  0  0  0  0  0  0  0  0
  153.3136  142.7900  164.6988 H   0  0  0  0  0  0  0  0  0  0  0  0
  156.3136  143.1443  165.0508 H   0  0  0  0  0  0  0  0  0  0  0  0
  155.3720  144.7610  166.5368 H   0  0  0  0  0  0  0  0  0  0  0  0
  153.9569  143.7598  166.8673 H   0  0  0  0  0  0  0  0  0  0  0  0
  156.8129  143.2091  167.7197 H   0  0  0  0  0  0  0  0  0  0  0  0
  155.3737  143.2201  168.7481 H   0  0  0  0  0  0  0  0  0  0  0  0
  156.2692  140.8591  167.7279 H   0  0  0  0  0  0  0  0  0  0  0  0
  154.5363  141.1930  167.7270 H   0  0  0  0  0  0  0  0  0  0  0  0
  151.2806  142.5116  158.1469 H   0  0  0  0  0  0  0  0  0  0  0  0
  151.2977  140.7309  158.3506 H   0  0  0  0  0  0  0  0  0  0  0  0
  152.6615  141.5843  157.5354 H   0  0  0  0  0  0  0  0  0  0  0  0
  1  2  1  0  0  0  0
  1 20  1  0  0  0  0
  1 21  1  0  0  0  0
  1 22  1  0  0  0  0
  2 18  1  0  0  0  0
  2  3  1  0  0  0  0
  3  4  1  0  0  0  0
  3 11  2  0  0  0  0
  4  5  1  0  0  0  0
  4 23  1  0  0  0  0
  5  6  1  0  0  0  0
  5 24  1  0  0  0  0
  5 25  1  0  0  0  0
  6 10  1  0  0  0  0
  6  7  1  0  0  0  0
  6 26  1  0  0  0  0
  7  8  1  0  0  0  0
  7 27  1  0  0  0  0
  7 28  1  0  0  0  0
  8  9  1  0  0  0  0
  8 29  1  0  0  0  0
  8 30  1  0  0  0  0
  9 10  1  0  0  0  0
  9 31  1  0  0  0  0
  9 32  1  0  0  0  0
 11 12  1  0  0  0  0
 11 14  1  0  0  0  0
 12 13  3  0  0  0  0
 14 15  2  0  0  0  0
 14 16  1  0  0  0  0
 16 17  1  0  0  0  0
 16 18  1  0  0  0  0
 17 33  1  0  0  0  0
 17 34  1  0  0  0  0
 17 35  1  0  0  0  0
 18 19  2  0  0  0  0
M  END
> <s_m_source_file>
AV-unprocessed.smi

> <i_m_source_file_index>
2946

> <i_lp_mmshare_version>
43012

> <i_f3d_flags>
0

> <s_epik_input>
Tz1jMW4oW0NIM10pYyg9TyljKEMjTiljKG4xW0NIM10pW05IXVtDSDJdW0NAQEhdMltDSDJdW0NIMl1bQ0gyXU8y

> <s_epik_cmdline>
J2VwaWtfcHl0aG9uJywgJy1waCcsICc3LjAnLCAnLXRuJywgJzgnLCAnLW1hJywgJzIwMCcsICctbWV0YWxfYmluZGluZycsICctaW1hZScsICc8aW5maWxlLm1hZT4nLCAnLW9tYWUnLCAnPG91dGZpbGUubWFlPic=

> <r_epik_Ionization_Penalty>
0.000541801

> <r_epik_Ionization_Penalty_Charging>
8.97317e-10

> <r_epik_Ionization_Penalty_Neutral>
0.000541801

> <r_epik_State_Penalty>
0.000338907

> <r_epik_Charging_Adjusted_Penalty>
0.000338908

> <i_epik_Tot_Q>
0

> <i_epik_Tot_abs_Q>
0

> <r_epik_Metal_State_Penalty>
-0

> <b_epik_Metal_Only>
0

> <s_lp_Force_Field>
OPLS_2005

> <r_lp_Energy>
39.9681

> <b_lp_Chiralities_Consistent>
1

> <s_lp_Variant>
AV-unprocessed.smi:2946-2

> <Gold.Version>
5.8.1

> <Gold.Id.Protein>
6NUR|6NUR_protein|mol2

> <Gold.PLP.Fitness>
43.3904

> <Gold.PLP.PLP>
-42.7787

> <Gold.PLP.part.hbond>
-2.1935

> <Gold.PLP.part.metal>
0.0000

> <Gold.PLP.part.buried>
-2.2024

> <Gold.PLP.part.nonpolar>
-37.8266

> <Gold.PLP.part.repulsive>
0.1104

> <Gold.PLP.ligand.clash>
12.1893

> <Gold.PLP.ligand.torsion>
0.0483

> <Gold.PLP.Chemscore.Hbond>
1.0000

> <Gold.PLP.Chemscore.CHOScore>
0.0000

> <Gold.PLP.Chemscore.Metal>
0.0000

> <Gold.Chemscore.Hbonds>
donor molecule, donor type, donor heavy atom, donor atom, acceptor molecule, acceptor atom, score
      P1  H  7997  8008       L1    15  1.00

> <Gold.PLP.Chemscore.Internal.Correction>
9.8975

> <Gold.Rescore>
     Score         DG    S(hbond)    S(metal)    S(lipo)     H(rot)  DE(clash)    DE(int)     intcor
     10.10     -13.78       0.97        0.00      71.48       1.29       2.00       1.67       ----

> <Gold.Chemscore.Fitness>
10.1025

> <Gold.Chemscore.DG>
-13.7793

> <Gold.Chemscore.ZeroCoef>
-5.4800

> <Gold.Chemscore.Hbond>
0.9730

> <Gold.Chemscore.Metal>
0.0000

> <Gold.Chemscore.Lipo>
71.4835

> <Gold.Chemscore.Internal_Hbond>
0.0000

> <Gold.Chemscore.DEClash>
2.0029

> <Gold.Chemscore.DEInternal>
1.6738

> <Gold.Chemscore.Rot>
1.2946

> <Gold.Chemscore.Internal.Correction>
   9.000000E+99

> <Gold.Chemscore.Hbonds>
donor molecule, donor type, donor heavy atom, donor atom, acceptor molecule, acceptor atom, score
      P1  H  7997  8008       L1    15  0.91

> <Gold.Chemscore.Hbond.Weighted>
-3.2498

> <Gold.Chemscore.Metal.Weighted>
-0.0000

> <Gold.Chemscore.Lipo.Weighted>
-8.3636

> <Gold.Chemscore.Internal_Hbond.Weighted>
0.0000

> <Gold.Chemscore.DEClash.Weighted>
2.0029

> <Gold.Chemscore.DEInternal.Weighted>
1.6738

> <Gold.Chemscore.Rot.Weighted>
3.3141

> <Gold.Chemscore.Internal.Correction.Weighted>
   9.000000E+99

> <Gold.Protein.RotatedTorsions>
[ 6907 6896 6895 6894 ] final  -91.31 input  -60.11 | X-H torsion
[ 7974 7965 7964 7962 ] final  -51.62 input  175.53 | X-H torsion
[ 8008 7997 7996 7995 ] final -111.99 input   59.86 | X-H torsion
[ 10167 10162 10161 10158 ] final   -8.89 input  -65.29 | X-H torsion
[ 10718 10713 10712 10709 ] final  102.66 input   66.30 | X-H torsion
[ 10763 10752 10751 10750 ] final   37.08 input  -60.55 | X-H torsion
[ 11005 11000 10999 10996 ] final -112.18 input  -57.11 | X-H torsion

> <Gold.Protein.ActiveResidues>
 VAL166  LYS551  ARG553  GLY616  TRP617  ASP618  TYR619  PRO620  LYS621  CYS622 
 ASP623  PHE694  ASN695  SER759  ASP760  ASP761  ALA762  ILE779  LEU786  VAL792 
 PHE793  MET794  SER795  GLU796  ALA797  LYS798  CYS799  TRP800  GLU811  SER814 

> <Gold.Protein.RotatedAtoms>
  150.6891  134.2297  159.4429 H   0  0  0  0  0  0  0  0  0  0  0  0  # atno 6907 bound_to 6896
  152.0248  134.9799  160.0580 H   0  0  0  0  0  0  0  0  0  0  0  0  # atno 6908 bound_to 6896
  152.1362  133.4402  159.4781 H   0  0  0  0  0  0  0  0  0  0  0  0  # atno 6909 bound_to 6896
  145.9170  140.7867  142.9666 H   0  0  0  0  0  0  0  0  0  0  0  0  # atno 7974 bound_to 7965
  154.9984  140.0394  157.2349 H   0  0  0  0  0  0  0  0  0  0  0  0  # atno 8008 bound_to 7997
  154.7566  140.2776  155.6226 H   0  0  0  0  0  0  0  0  0  0  0  0  # atno 8009 bound_to 7997
  156.2896  140.2636  156.2333 H   0  0  0  0  0  0  0  0  0  0  0  0  # atno 8010 bound_to 7997
  140.7072  143.5918  150.8886 H   0  0  0  0  0  0  0  0  0  0  0  0  # atno 10167 bound_to 10162
  157.6796  131.0758  150.5437 H   0  0  0  0  0  0  0  0  0  0  0  0  # atno 10718 bound_to 10713
  153.0051  135.6288  154.2088 H   0  0  0  0  0  0  0  0  0  0  0  0  # atno 10763 bound_to 10752
  154.1831  135.2812  155.3047 H   0  0  0  0  0  0  0  0  0  0  0  0  # atno 10764 bound_to 10752
  154.5819  135.5645  153.7253 H   0  0  0  0  0  0  0  0  0  0  0  0  # atno 10765 bound_to 10752
  141.0690  133.9411  157.2522 H   0  0  0  0  0  0  0  0  0  0  0  0  # atno 11005 bound_to 11000
  144.6749  140.1915  143.7396 LP  0  0  0  0  0  0  0  0  0  0  0  0  # atno 17320 bound_to 7965
  145.8599  139.2217  143.1722 LP  0  0  0  0  0  0  0  0  0  0  0  0  # atno 17321 bound_to 7965
  139.9643  143.6128  152.2993 LP  0  0  0  0  0  0  0  0  0  0  0  0  # atno 17342 bound_to 10162
  139.6692  144.7661  151.1815 LP  0  0  0  0  0  0  0  0  0  0  0  0  # atno 17343 bound_to 10162
  156.5743  130.4288  149.6005 LP  0  0  0  0  0  0  0  0  0  0  0  0  # atno 17370 bound_to 10713
  156.2714  130.7019  151.1817 LP  0  0  0  0  0  0  0  0  0  0  0  0  # atno 17371 bound_to 10713
  139.9505  135.0176  156.8979 LP  0  0  0  0  0  0  0  0  0  0  0  0  # atno 17394 bound_to 11000
  140.5713  134.0441  155.7431 LP  0  0  0  0  0  0  0  0  0  0  0  0  # atno 17395 bound_to 11000

$$$$
