AV-unprocessed.smi:256|AV-procd|sdf|1959|dock7
  -GOLD-   2262021103D 1   1.00000     0.00000
 Structure written by MMmdl.
 62 65  0  0  0  0  0  0  0  0  2 V2000
  146.7446  141.8497  155.7484 C   0  0  0  0  0  0  0  0  0  0  0  0
  148.0719  141.5380  156.4540 C   0  0  0  0  0  0  0  0  0  0  0  0
  149.3307  141.8295  155.5939 C   0  0  2  0  0  0  0  0  0  0  0  0
  149.4104  140.9671  154.3113 C   0  0  0  0  0  0  0  0  0  0  0  0
  149.7633  139.5823  154.6235 N   0  0  0  0  0  0  0  0  0  0  0  0
  148.7596  138.6687  154.7415 C   0  0  0  0  0  0  0  0  0  0  0  0
  148.8600  137.7650  155.7515 N   0  0  0  0  0  0  0  0  0  0  0  0
  147.9222  136.8322  155.9323 C   0  0  0  0  0  0  0  0  0  0  0  0
  146.8116  136.6228  155.2273 N   0  0  0  0  0  0  0  0  0  0  0  0
  146.6961  137.5213  154.2094 C   0  0  0  0  0  0  0  0  0  0  0  0
  147.6095  138.5712  153.8976 C   0  0  0  0  0  0  0  0  0  0  0  0
  147.1436  139.2671  152.7859 N   0  0  0  0  0  0  0  0  0  0  0  0
  146.0247  138.6762  152.4710 C   0  0  0  0  0  0  0  0  0  0  0  0
  145.6868  137.6071  153.2666 N   0  0  0  0  0  0  0  0  0  0  0  0
  144.5091  136.7617  153.1404 C   0  0  0  0  0  0  0  0  0  0  0  0
  144.8037  135.3492  152.5766 C   0  0  0  0  0  0  0  0  0  0  0  0
  145.6221  134.6671  153.5113 O   0  0  0  0  0  0  0  0  0  0  0  0
  143.4920  134.5560  152.4104 C   0  0  0  0  0  0  0  0  0  0  0  0
  143.7126  133.2131  151.6922 C   0  0  0  0  0  0  0  0  0  0  0  0
  144.3437  133.4330  150.4367 O   0  0  0  0  0  0  0  0  0  0  0  0
  145.6397  134.0049  150.5658 C   0  0  0  0  0  0  0  0  0  0  0  0
  145.5446  135.3938  151.2222 C   0  0  0  0  0  0  0  0  0  0  0  0
  151.0106  139.4441  155.3654 C   0  0  0  0  0  0  0  0  0  0  0  0
  150.9838  140.2915  156.6508 C   0  0  0  0  0  0  0  0  0  0  0  0
  150.6131  141.7020  156.3588 N   0  3  2  0  0  0  0  0  0  0  0  0
  150.7658  142.5807  157.5507 C   0  0  0  0  0  0  0  0  0  0  0  0
  152.0054  142.2497  158.4054 C   0  0  0  0  0  0  0  0  0  0  0  0
  152.1748  143.1650  159.4803 O   0  0  0  0  0  0  0  0  0  0  0  0
  153.1225  142.7558  160.4543 C   0  0  0  0  0  0  0  0  0  0  0  0
  145.9066  141.7205  156.4336 H   0  0  0  0  0  0  0  0  0  0  0  0
  146.5697  141.1885  154.9002 H   0  0  0  0  0  0  0  0  0  0  0  0
  146.7204  142.8780  155.3869 H   0  0  0  0  0  0  0  0  0  0  0  0
  148.0940  142.1423  157.3596 H   0  0  0  0  0  0  0  0  0  0  0  0
  148.0624  140.5004  156.7868 H   0  0  0  0  0  0  0  0  0  0  0  0
  149.2549  142.8607  155.2508 H   0  0  0  0  0  0  0  0  0  0  0  0
  148.4969  141.0522  153.7249 H   0  0  0  0  0  0  0  0  0  0  0  0
  150.1965  141.3633  153.6672 H   0  0  0  0  0  0  0  0  0  0  0  0
  148.0859  136.1564  156.7587 H   0  0  0  0  0  0  0  0  0  0  0  0
  145.4171  138.9981  151.6376 H   0  0  0  0  0  0  0  0  0  0  0  0
  144.0362  136.6861  154.1206 H   0  0  0  0  0  0  0  0  0  0  0  0
  143.7929  137.2775  152.4995 H   0  0  0  0  0  0  0  0  0  0  0  0
  146.4475  134.4654  153.0978 H   0  0  0  0  0  0  0  0  0  0  0  0
  143.0206  134.3886  153.3799 H   0  0  0  0  0  0  0  0  0  0  0  0
  142.7848  135.1464  151.8262 H   0  0  0  0  0  0  0  0  0  0  0  0
  144.3116  132.5341  152.3007 H   0  0  0  0  0  0  0  0  0  0  0  0
  142.7552  132.7207  151.5222 H   0  0  0  0  0  0  0  0  0  0  0  0
  146.2871  133.3418  151.1414 H   0  0  0  0  0  0  0  0  0  0  0  0
  146.0828  134.0932  149.5737 H   0  0  0  0  0  0  0  0  0  0  0  0
  145.0117  136.0615  150.5441 H   0  0  0  0  0  0  0  0  0  0  0  0
  146.5458  135.8098  151.3383 H   0  0  0  0  0  0  0  0  0  0  0  0
  151.2475  138.4019  155.5745 H   0  0  0  0  0  0  0  0  0  0  0  0
  151.8159  139.7995  154.7217 H   0  0  0  0  0  0  0  0  0  0  0  0
  150.2837  139.8760  157.3754 H   0  0  0  0  0  0  0  0  0  0  0  0
  151.9690  140.2577  157.1173 H   0  0  0  0  0  0  0  0  0  0  0  0
  150.7867  143.6276  157.2488 H   0  0  0  0  0  0  0  0  0  0  0  0
  149.8749  142.4814  158.1706 H   0  0  0  0  0  0  0  0  0  0  0  0
  151.9182  141.2463  158.8216 H   0  0  0  0  0  0  0  0  0  0  0  0
  152.9008  142.2298  157.7826 H   0  0  0  0  0  0  0  0  0  0  0  0
  153.1418  143.4816  161.2672 H   0  0  0  0  0  0  0  0  0  0  0  0
  154.1296  142.6981  160.0418 H   0  0  0  0  0  0  0  0  0  0  0  0
  152.8604  141.7862  160.8798 H   0  0  0  0  0  0  0  0  0  0  0  0
  151.3220  142.0221  155.7143 H   0  0  0  0  0  0  0  0  0  0  0  0
  1  2  1  0  0  0  0
  1 30  1  0  0  0  0
  1 31  1  0  0  0  0
  1 32  1  0  0  0  0
  2  3  1  0  0  0  0
  2 33  1  0  0  0  0
  2 34  1  0  0  0  0
  3 25  1  0  0  0  0
  3  4  1  0  0  0  0
  3 35  1  0  0  0  0
  4  5  1  0  0  0  0
  4 36  1  0  0  0  0
  4 37  1  0  0  0  0
  5  6  1  0  0  0  0
  5 23  1  0  0  0  0
  6 11  1  0  0  0  0
  6  7  2  0  0  0  0
  7  8  1  0  0  0  0
  8  9  2  0  0  0  0
  8 38  1  0  0  0  0
  9 10  1  0  0  0  0
 10 14  1  0  0  0  0
 10 11  2  0  0  0  0
 11 12  1  0  0  0  0
 12 13  2  0  0  0  0
 13 14  1  0  0  0  0
 13 39  1  0  0  0  0
 14 15  1  0  0  0  0
 15 16  1  0  0  0  0
 15 40  1  0  0  0  0
 15 41  1  0  0  0  0
 16 22  1  0  0  0  0
 16 17  1  0  0  0  0
 16 18  1  0  0  0  0
 17 42  1  0  0  0  0
 18 19  1  0  0  0  0
 18 43  1  0  0  0  0
 18 44  1  0  0  0  0
 19 20  1  0  0  0  0
 19 45  1  0  0  0  0
 19 46  1  0  0  0  0
 20 21  1  0  0  0  0
 21 22  1  0  0  0  0
 21 47  1  0  0  0  0
 21 48  1  0  0  0  0
 22 49  1  0  0  0  0
 22 50  1  0  0  0  0
 23 24  1  0  0  0  0
 23 51  1  0  0  0  0
 23 52  1  0  0  0  0
 24 25  1  0  0  0  0
 24 53  1  0  0  0  0
 24 54  1  0  0  0  0
 25 26  1  0  0  0  0
 25 62  1  0  0  0  0
 26 27  1  0  0  0  0
 26 55  1  0  0  0  0
 26 56  1  0  0  0  0
 27 28  1  0  0  0  0
 27 57  1  0  0  0  0
 27 58  1  0  0  0  0
 28 29  1  0  0  0  0
 29 59  1  0  0  0  0
 29 60  1  0  0  0  0
 29 61  1  0  0  0  0
M  CHG  1  25   1
M  END
> <s_m_source_file>
AV-unprocessed.smi

> <i_m_source_file_index>
256

> <i_lp_mmshare_version>
43012

> <i_f3d_flags>
0

> <s_epik_input>
W0NIM11PW0NIMl1bQ0gyXU4xW0NIMl1bQ0gyXU4oW0NIMl1bQ0BIXTFbQ0gyXVtDSDNdKWMobltjSF1uMiljKGMyMyluW2NIXW4zW0NIMl1DNChbT0hdKVtDSDJdW0NIMl1PW0NIMl1bQ0gyXTQ=

> <s_epik_cmdline>
J2VwaWtfcHl0aG9uJywgJy1waCcsICc3LjAnLCAnLXRuJywgJzgnLCAnLW1hJywgJzIwMCcsICctbWV0YWxfYmluZGluZycsICctaW1hZScsICc8aW5maWxlLm1hZT4nLCAnLW9tYWUnLCAnPG91dGZpbGUubWFlPic=

> <r_lp_tautomer_probability>
1

> <r_epik_Ionization_Penalty>
0.233023

> <r_epik_Ionization_Penalty_Charging>
0.23295

> <r_epik_Ionization_Penalty_Neutral>
7.2493e-05

> <r_epik_State_Penalty>
0.223667

> <r_epik_Charging_Adjusted_Penalty>
0.456618

> <i_epik_Tot_Q>
1

> <i_epik_Tot_abs_Q>
1

> <r_epik_Metal_State_Penalty>
0.226879

> <b_epik_Metal_Only>
0

> <s_lp_Force_Field>
OPLS_2005

> <r_lp_Energy>
46.9359

> <b_lp_Chiralities_Consistent>
1

> <s_lp_Variant>
AV-unprocessed.smi:256-3

> <Gold.Version>
5.8.1

> <Gold.Id.Protein>
6NUR|6NUR_protein|mol2

> <Gold.PLP.Fitness>
40.8854

> <Gold.PLP.PLP>
-36.9100

> <Gold.PLP.part.hbond>
0.0000

> <Gold.PLP.part.metal>
0.0000

> <Gold.PLP.part.buried>
-4.2022

> <Gold.PLP.part.nonpolar>
-34.9138

> <Gold.PLP.part.repulsive>
1.5970

> <Gold.PLP.ligand.clash>
0.0000

> <Gold.PLP.ligand.torsion>
0.7245

> <Gold.PLP.Chemscore.Hbond>
0.0000

> <Gold.PLP.Chemscore.CHOScore>
1.6348

> <Gold.PLP.Chemscore.Metal>
0.0000

> <Gold.Chemscore.Hbonds>
donor molecule, donor type, donor heavy atom, donor atom, acceptor molecule, acceptor atom, score
      L1  C    13    39       P1 10171  1.00
      L1  C    13    39       P1 10175  0.59

> <Gold.PLP.Chemscore.Internal.Correction>
0.5199

> <Gold.Rescore>
     Score         DG    S(hbond)    S(metal)    S(lipo)     H(rot)  DE(clash)    DE(int)     intcor
      8.84      -9.66       0.00        0.00      93.64       2.65       0.15       0.67       ----

> <Gold.Chemscore.Fitness>
8.8393

> <Gold.Chemscore.DG>
-9.6618

> <Gold.Chemscore.ZeroCoef>
-5.4800

> <Gold.Chemscore.Hbond>
0.0000

> <Gold.Chemscore.Metal>
0.0000

> <Gold.Chemscore.Lipo>
93.6411

> <Gold.Chemscore.Internal_Hbond>
0.0000

> <Gold.Chemscore.DEClash>
0.1521

> <Gold.Chemscore.DEInternal>
0.6704

> <Gold.Chemscore.Rot>
2.6462

> <Gold.Chemscore.Internal.Correction>
   9.000000E+99

> <Gold.Chemscore.Hbond.Weighted>
-0.0000

> <Gold.Chemscore.Metal.Weighted>
-0.0000

> <Gold.Chemscore.Lipo.Weighted>
-10.9560

> <Gold.Chemscore.Internal_Hbond.Weighted>
0.0000

> <Gold.Chemscore.DEClash.Weighted>
0.1521

> <Gold.Chemscore.DEInternal.Weighted>
0.6704

> <Gold.Chemscore.Rot.Weighted>
6.7742

> <Gold.Chemscore.Internal.Correction.Weighted>
   9.000000E+99

> <Gold.Protein.RotatedTorsions>
[ 6907 6896 6895 6894 ] final  -24.63 input  -60.11 | X-H torsion
[ 7974 7965 7964 7962 ] final  -85.33 input  175.53 | X-H torsion
[ 8008 7997 7996 7995 ] final   83.30 input   59.86 | X-H torsion
[ 10167 10162 10161 10158 ] final  -71.05 input  -65.29 | X-H torsion
[ 10718 10713 10712 10709 ] final   46.61 input   66.30 | X-H torsion
[ 10763 10752 10751 10750 ] final  156.67 input  -60.55 | X-H torsion
[ 11005 11000 10999 10996 ] final   33.05 input  -57.11 | X-H torsion

> <Gold.Protein.ActiveResidues>
 VAL166  LYS551  ARG553  GLY616  TRP617  ASP618  TYR619  PRO620  LYS621  CYS622 
 ASP623  PHE694  ASN695  SER759  ASP760  ASP761  ALA762  ILE779  LEU786  VAL792 
 PHE793  MET794  SER795  GLU796  ALA797  LYS798  CYS799  TRP800  GLU811  SER814 

> <Gold.Protein.RotatedAtoms>
  151.1868  135.0385  159.8815 H   0  0  0  0  0  0  0  0  0  0  0  0  # atno 6907 bound_to 6896
  152.5442  134.1000  159.8324 H   0  0  0  0  0  0  0  0  0  0  0  0  # atno 6908 bound_to 6896
  151.1124  133.5116  159.2637 H   0  0  0  0  0  0  0  0  0  0  0  0  # atno 6909 bound_to 6896
  145.4948  140.9551  143.1792 H   0  0  0  0  0  0  0  0  0  0  0  0  # atno 7974 bound_to 7965
  155.9221  140.3420  155.6181 H   0  0  0  0  0  0  0  0  0  0  0  0  # atno 8008 bound_to 7997
  155.7260  140.0789  157.2328 H   0  0  0  0  0  0  0  0  0  0  0  0  # atno 8009 bound_to 7997
  154.4071  140.1597  156.2443 H   0  0  0  0  0  0  0  0  0  0  0  0  # atno 8010 bound_to 7997
  140.5304  143.2322  151.7272 H   0  0  0  0  0  0  0  0  0  0  0  0  # atno 10167 bound_to 10162
  157.4499  130.8132  149.7778 H   0  0  0  0  0  0  0  0  0  0  0  0  # atno 10718 bound_to 10713
  154.1880  135.2796  155.3031 H   0  0  0  0  0  0  0  0  0  0  0  0  # atno 10763 bound_to 10752
  154.5951  135.5547  153.7321 H   0  0  0  0  0  0  0  0  0  0  0  0  # atno 10764 bound_to 10752
  153.0120  135.6378  154.2018 H   0  0  0  0  0  0  0  0  0  0  0  0  # atno 10765 bound_to 10752
  140.2672  134.3124  155.7839 H   0  0  0  0  0  0  0  0  0  0  0  0  # atno 11005 bound_to 11000
  144.7813  139.6519  143.7153 LP  0  0  0  0  0  0  0  0  0  0  0  0  # atno 17320 bound_to 7965
  146.2262  139.5728  142.9585 LP  0  0  0  0  0  0  0  0  0  0  0  0  # atno 17321 bound_to 7965
  139.4952  144.4122  152.0068 LP  0  0  0  0  0  0  0  0  0  0  0  0  # atno 17342 bound_to 10162
  140.3224  144.3412  150.6006 LP  0  0  0  0  0  0  0  0  0  0  0  0  # atno 17343 bound_to 10162
  155.9983  130.3895  150.2708 LP  0  0  0  0  0  0  0  0  0  0  0  0  # atno 17370 bound_to 10713
  157.0879  131.0161  151.3132 LP  0  0  0  0  0  0  0  0  0  0  0  0  # atno 17371 bound_to 10713
  141.2182  133.7444  156.9278 LP  0  0  0  0  0  0  0  0  0  0  0  0  # atno 17394 bound_to 11000
  140.1408  134.9295  157.2464 LP  0  0  0  0  0  0  0  0  0  0  0  0  # atno 17395 bound_to 11000

$$$$
