AV-unprocessed.smi:229|AV-procd|sdf|1754|dock5
  -GOLD-   2262020283D 1   1.00000     0.00000
 Structure written by MMmdl.
 58 62  0  0  0  0  0  0  0  0  1 V2000
  153.8919  141.2185  160.5663 C   0  0  0  0  0  0  0  0  0  0  0  0
  152.8424  140.4662  159.7383 C   0  0  0  0  0  0  0  0  0  0  0  0
  152.0713  141.3824  158.7766 C   0  0  1  0  0  0  0  0  0  0  0  0
  150.9281  140.6374  158.0683 C   0  0  0  0  0  0  0  0  0  0  0  0
  150.1712  141.5722  157.2487 N   0  0  0  0  0  0  0  0  0  0  0  0
  149.2767  141.0165  156.4049 C   0  0  0  0  0  0  0  0  0  0  0  0
  149.5047  141.1775  155.0785 N   0  0  0  0  0  0  0  0  0  0  0  0
  148.6566  140.6560  154.1868 C   0  0  0  0  0  0  0  0  0  0  0  0
  147.5402  139.9577  154.4050 N   0  0  0  0  0  0  0  0  0  0  0  0
  147.3027  139.8055  155.7398 C   0  0  0  0  0  0  0  0  0  0  0  0
  148.1119  140.2996  156.8015 C   0  0  0  0  0  0  0  0  0  0  0  0
  147.5467  139.9583  158.0249 N   0  0  0  0  0  0  0  0  0  0  0  0
  146.4695  139.2946  157.7046 C   0  0  0  0  0  0  0  0  0  0  0  0
  146.2455  139.1574  156.3540 N   0  0  0  0  0  0  0  0  0  0  0  0
  145.1267  138.4775  155.7252 C   0  0  0  0  0  0  0  0  0  0  0  0
  143.8248  139.2993  155.7983 C   0  0  1  0  0  0  0  0  0  0  0  0
  143.9393  140.4934  155.0463 O   0  0  0  0  0  0  0  0  0  0  0  0
  142.5816  138.5008  155.3540 C   0  0  1  0  0  0  0  0  0  0  0  0
  141.2462  139.2629  155.4107 C   0  0  0  0  0  0  0  0  0  0  0  0
  140.7881  139.2869  153.9649 C   0  0  0  0  0  0  0  0  0  0  0  0
  141.4528  138.0427  153.3917 C   0  0  0  0  0  0  0  0  0  0  0  0
  142.7287  138.0436  154.0116 O   0  0  0  0  0  0  0  0  0  0  0  0
  149.6253  142.6776  158.0215 C   0  0  0  0  0  0  0  0  0  0  0  0
  150.7491  143.4140  158.7827 C   0  0  1  0  0  0  0  0  0  0  0  0
  151.6200  144.3097  157.9073 C   0  0  0  0  0  0  0  0  0  0  0  0
  152.1731  145.3008  158.9197 C   0  0  0  0  0  0  0  0  0  0  0  0
  151.0727  145.5604  159.7778 O   0  0  0  0  0  0  0  0  0  0  0  0
  150.2008  144.4318  159.7956 C   0  0  0  0  0  0  0  0  0  0  0  0
  151.5252  142.4678  159.5300 O   0  0  0  0  0  0  0  0  0  0  0  0
  154.4311  140.5342  161.2217 H   0  0  0  0  0  0  0  0  0  0  0  0
  153.4300  141.9826  161.1923 H   0  0  0  0  0  0  0  0  0  0  0  0
  154.6236  141.7089  159.9238 H   0  0  0  0  0  0  0  0  0  0  0  0
  153.3431  139.6837  159.1670 H   0  0  0  0  0  0  0  0  0  0  0  0
  152.1440  139.9603  160.4058 H   0  0  0  0  0  0  0  0  0  0  0  0
  152.7704  141.7560  158.0292 H   0  0  0  0  0  0  0  0  0  0  0  0
  151.3269  139.8356  157.4453 H   0  0  0  0  0  0  0  0  0  0  0  0
  150.2763  140.1787  158.8118 H   0  0  0  0  0  0  0  0  0  0  0  0
  148.9083  140.8221  153.1497 H   0  0  0  0  0  0  0  0  0  0  0  0
  145.8010  138.8876  158.4494 H   0  0  0  0  0  0  0  0  0  0  0  0
  145.3884  138.2612  154.6888 H   0  0  0  0  0  0  0  0  0  0  0  0
  144.9920  137.5143  156.2186 H   0  0  0  0  0  0  0  0  0  0  0  0
  143.6701  139.6031  156.8344 H   0  0  0  0  0  0  0  0  0  0  0  0
  143.8410  140.2822  154.1307 H   0  0  0  0  0  0  0  0  0  0  0  0
  142.4960  137.6138  155.9838 H   0  0  0  0  0  0  0  0  0  0  0  0
  140.5309  138.7079  156.0190 H   0  0  0  0  0  0  0  0  0  0  0  0
  141.3277  140.2641  155.8345 H   0  0  0  0  0  0  0  0  0  0  0  0
  139.7031  139.2803  153.8587 H   0  0  0  0  0  0  0  0  0  0  0  0
  141.1755  140.1764  153.4665 H   0  0  0  0  0  0  0  0  0  0  0  0
  140.9076  137.1420  153.6784 H   0  0  0  0  0  0  0  0  0  0  0  0
  141.5335  138.0688  152.3049 H   0  0  0  0  0  0  0  0  0  0  0  0
  149.0893  143.3685  157.3690 H   0  0  0  0  0  0  0  0  0  0  0  0
  148.8969  142.2827  158.7315 H   0  0  0  0  0  0  0  0  0  0  0  0
  152.3988  143.7931  157.3492 H   0  0  0  0  0  0  0  0  0  0  0  0
  151.0010  144.8420  157.1837 H   0  0  0  0  0  0  0  0  0  0  0  0
  152.9821  144.8511  159.4971 H   0  0  0  0  0  0  0  0  0  0  0  0
  152.5469  146.2143  158.4575 H   0  0  0  0  0  0  0  0  0  0  0  0
  149.2085  144.7799  159.5061 H   0  0  0  0  0  0  0  0  0  0  0  0
  150.1208  144.0139  160.7999 H   0  0  0  0  0  0  0  0  0  0  0  0
  1  2  1  0  0  0  0
  1 30  1  0  0  0  0
  1 31  1  0  0  0  0
  1 32  1  0  0  0  0
  2  3  1  0  0  0  0
  2 33  1  0  0  0  0
  2 34  1  0  0  0  0
  3 29  1  0  0  0  0
  3  4  1  0  0  0  0
  3 35  1  0  0  0  0
  4  5  1  0  0  0  0
  4 36  1  0  0  0  0
  4 37  1  0  0  0  0
  5  6  1  0  0  0  0
  5 23  1  0  0  0  0
  6 11  1  0  0  0  0
  6  7  2  0  0  0  0
  7  8  1  0  0  0  0
  8  9  2  0  0  0  0
  8 38  1  0  0  0  0
  9 10  1  0  0  0  0
 10 14  1  0  0  0  0
 10 11  2  0  0  0  0
 11 12  1  0  0  0  0
 12 13  2  0  0  0  0
 13 14  1  0  0  0  0
 13 39  1  0  0  0  0
 14 15  1  0  0  0  0
 15 16  1  0  0  0  0
 15 40  1  0  0  0  0
 15 41  1  0  0  0  0
 16 17  1  0  0  0  0
 16 18  1  0  0  0  0
 16 42  1  0  0  0  0
 17 43  1  0  0  0  0
 18 22  1  0  0  0  0
 18 19  1  0  0  0  0
 18 44  1  0  0  0  0
 19 20  1  0  0  0  0
 19 45  1  0  0  0  0
 19 46  1  0  0  0  0
 20 21  1  0  0  0  0
 20 47  1  0  0  0  0
 20 48  1  0  0  0  0
 21 22  1  0  0  0  0
 21 49  1  0  0  0  0
 21 50  1  0  0  0  0
 23 24  1  0  0  0  0
 23 51  1  0  0  0  0
 23 52  1  0  0  0  0
 24 28  1  0  0  0  0
 24 25  1  0  0  0  0
 24 29  1  0  0  0  0
 25 26  1  0  0  0  0
 25 53  1  0  0  0  0
 25 54  1  0  0  0  0
 26 27  1  0  0  0  0
 26 55  1  0  0  0  0
 26 56  1  0  0  0  0
 27 28  1  0  0  0  0
 28 57  1  0  0  0  0
 28 58  1  0  0  0  0
M  END
> <s_m_source_file>
AV-unprocessed.smi

> <i_m_source_file_index>
229

> <i_lp_mmshare_version>
43012

> <i_f3d_flags>
0

> <s_epik_input>
W0NIMl0xT1tDSDJdW0NIMl1bQ0BdMTJbQ0gyXU4oW0NIMl1bQ0BIXShPMilbQ0gyXVtDSDNdKWMobltjSF1uMyljKGMzNCluW2NIXW40W0NIMl1bQ0BIXShbT0hdKVtDQEBIXTVbQ0gyXVtDSDJdW0NIMl1PNQ==

> <s_epik_cmdline>
J2VwaWtfcHl0aG9uJywgJy1waCcsICc3LjAnLCAnLXRuJywgJzgnLCAnLW1hJywgJzIwMCcsICctbWV0YWxfYmluZGluZycsICctaW1hZScsICc8aW5maWxlLm1hZT4nLCAnLW9tYWUnLCAnPG91dGZpbGUubWFlPic=

> <r_lp_tautomer_probability>
1

> <r_epik_Ionization_Penalty>
0.00318402

> <r_epik_Ionization_Penalty_Charging>
0

> <r_epik_Ionization_Penalty_Neutral>
0.00318402

> <r_epik_State_Penalty>
0.00215642

> <r_epik_Charging_Adjusted_Penalty>
0.00215642

> <i_epik_Tot_Q>
0

> <i_epik_Tot_abs_Q>
0

> <r_epik_Metal_State_Penalty>
-0

> <b_epik_Metal_Only>
0

> <s_lp_Force_Field>
OPLS_2005

> <r_lp_Energy>
59.0026

> <b_lp_Chiralities_Consistent>
1

> <s_lp_Variant>
AV-unprocessed.smi:229-8

> <Gold.Version>
5.8.1

> <Gold.Id.Protein>
6NUR|6NUR_protein|mol2

> <Gold.PLP.Fitness>
44.1380

> <Gold.PLP.PLP>
-38.6125

> <Gold.PLP.part.hbond>
-2.6873

> <Gold.PLP.part.metal>
0.0000

> <Gold.PLP.part.buried>
-7.8091

> <Gold.PLP.part.nonpolar>
-30.2457

> <Gold.PLP.part.repulsive>
1.7044

> <Gold.PLP.ligand.clash>
0.0000

> <Gold.PLP.ligand.torsion>
0.3326

> <Gold.PLP.Chemscore.Hbond>
1.0000

> <Gold.PLP.Chemscore.CHOScore>
1.0000

> <Gold.PLP.Chemscore.Metal>
0.0000

> <Gold.Chemscore.Hbonds>
donor molecule, donor type, donor heavy atom, donor atom, acceptor molecule, acceptor atom, score
      L1  H    17    43       P1 10175  1.00
      L1  C     8    38       P1  7957  1.00

> <Gold.PLP.Chemscore.Internal.Correction>
0.1907

> <Gold.Rescore>
     Score         DG    S(hbond)    S(metal)    S(lipo)     H(rot)  DE(clash)    DE(int)     intcor
     13.01     -13.40       0.99        0.00      93.28       2.46       0.01       0.38       ----

> <Gold.Chemscore.Fitness>
13.0102

> <Gold.Chemscore.DG>
-13.4002

> <Gold.Chemscore.ZeroCoef>
-5.4800

> <Gold.Chemscore.Hbond>
0.9886

> <Gold.Chemscore.Metal>
0.0000

> <Gold.Chemscore.Lipo>
93.2796

> <Gold.Chemscore.Internal_Hbond>
0.0000

> <Gold.Chemscore.DEClash>
0.0127

> <Gold.Chemscore.DEInternal>
0.3774

> <Gold.Chemscore.Rot>
2.4591

> <Gold.Chemscore.Internal.Correction>
   9.000000E+99

> <Gold.Chemscore.Hbonds>
donor molecule, donor type, donor heavy atom, donor atom, acceptor molecule, acceptor atom, score
      L1  H    17    43       P1 10175  0.99

> <Gold.Chemscore.Hbond.Weighted>
-3.3018

> <Gold.Chemscore.Metal.Weighted>
-0.0000

> <Gold.Chemscore.Lipo.Weighted>
-10.9137

> <Gold.Chemscore.Internal_Hbond.Weighted>
0.0000

> <Gold.Chemscore.DEClash.Weighted>
0.0127

> <Gold.Chemscore.DEInternal.Weighted>
0.3774

> <Gold.Chemscore.Rot.Weighted>
6.2953

> <Gold.Chemscore.Internal.Correction.Weighted>
   9.000000E+99

> <Gold.Protein.RotatedTorsions>
[ 6907 6896 6895 6894 ] final  -51.96 input  -60.11 | X-H torsion
[ 7974 7965 7964 7962 ] final   -4.06 input  175.53 | X-H torsion
[ 8008 7997 7996 7995 ] final  -63.59 input   59.86 | X-H torsion
[ 10167 10162 10161 10158 ] final   -0.98 input  -65.29 | X-H torsion
[ 10718 10713 10712 10709 ] final  128.85 input   66.30 | X-H torsion
[ 10763 10752 10751 10750 ] final   61.84 input  -60.55 | X-H torsion
[ 11005 11000 10999 10996 ] final -157.81 input  -57.11 | X-H torsion

> <Gold.Protein.ActiveResidues>
 VAL166  LYS551  ARG553  GLY616  TRP617  ASP618  TYR619  PRO620  LYS621  CYS622 
 ASP623  PHE694  ASN695  SER759  ASP760  ASP761  ALA762  ILE779  LEU786  VAL792 
 PHE793  MET794  SER795  GLU796  ALA797  LYS798  CYS799  TRP800  GLU811  SER814 

> <Gold.Protein.RotatedAtoms>
  150.8563  134.7902  159.7047 H   0  0  0  0  0  0  0  0  0  0  0  0  # atno 6907 bound_to 6896
  152.4613  134.5174  159.9782 H   0  0  0  0  0  0  0  0  0  0  0  0  # atno 6908 bound_to 6896
  151.5285  133.3415  159.2949 H   0  0  0  0  0  0  0  0  0  0  0  0  # atno 6909 bound_to 6896
  146.2379  140.1814  142.8332 H   0  0  0  0  0  0  0  0  0  0  0  0  # atno 7974 bound_to 7965
  154.4563  140.0971  156.6766 H   0  0  0  0  0  0  0  0  0  0  0  0  # atno 8008 bound_to 7997
  155.5129  140.3477  155.4373 H   0  0  0  0  0  0  0  0  0  0  0  0  # atno 8009 bound_to 7997
  156.0783  140.1366  156.9733 H   0  0  0  0  0  0  0  0  0  0  0  0  # atno 8010 bound_to 7997
  140.6790  143.6830  150.8090 H   0  0  0  0  0  0  0  0  0  0  0  0  # atno 10167 bound_to 10162
  157.5208  131.1098  150.9157 H   0  0  0  0  0  0  0  0  0  0  0  0  # atno 10718 bound_to 10713
  152.9963  135.5486  154.6097 H   0  0  0  0  0  0  0  0  0  0  0  0  # atno 10763 bound_to 10752
  154.5420  135.2820  155.1088 H   0  0  0  0  0  0  0  0  0  0  0  0  # atno 10764 bound_to 10752
  154.2362  135.6424  153.5244 H   0  0  0  0  0  0  0  0  0  0  0  0  # atno 10765 bound_to 10752
  140.6605  134.4354  157.5234 H   0  0  0  0  0  0  0  0  0  0  0  0  # atno 11005 bound_to 11000
  144.9931  140.8565  143.5327 LP  0  0  0  0  0  0  0  0  0  0  0  0  # atno 17320 bound_to 7965
  145.1823  139.2345  143.5286 LP  0  0  0  0  0  0  0  0  0  0  0  0  # atno 17321 bound_to 7965
  140.0528  143.5233  152.2665 LP  0  0  0  0  0  0  0  0  0  0  0  0  # atno 17342 bound_to 10162
  139.6101  144.7606  151.2972 LP  0  0  0  0  0  0  0  0  0  0  0  0  # atno 17343 bound_to 10162
  156.9768  130.5512  149.5294 LP  0  0  0  0  0  0  0  0  0  0  0  0  # atno 17370 bound_to 10713
  156.0352  130.5440  150.8635 LP  0  0  0  0  0  0  0  0  0  0  0  0  # atno 17371 bound_to 10713
  139.9014  134.8546  156.1878 LP  0  0  0  0  0  0  0  0  0  0  0  0  # atno 17394 bound_to 11000
  141.0469  133.6909  156.1699 LP  0  0  0  0  0  0  0  0  0  0  0  0  # atno 17395 bound_to 11000

$$$$
