AV-unprocessed.smi:3250|AV-procd|sdf|12430|dock2
  -GOLD-   2272018313D 1   1.00000     0.00000
 Structure written by MMmdl.
 38 39  0  0  0  0  0  0  0  0  1 V2000
  154.2947  141.0727  161.7808 C   0  0  0  0  0  0  0  0  0  0  0  0
  153.6375  140.7252  160.4375 C   0  0  0  0  0  0  0  0  0  0  0  0
  153.1174  141.8696  159.6915 N   0  0  0  0  0  0  0  0  0  0  0  0
  152.6232  142.9309  160.5655 C   0  0  0  0  0  0  0  0  0  0  0  0
  152.0463  144.1099  159.7642 C   0  0  0  0  0  0  0  0  0  0  0  0
  151.0214  143.6386  158.8962 O   0  0  0  0  0  0  0  0  0  0  0  0
  151.4801  142.6457  157.9815 C   0  0  2  0  0  0  0  0  0  0  0  0
  150.3008  142.2173  157.0986 C   0  0  0  0  0  0  0  0  0  0  0  0
  150.7528  141.6048  155.8586 N   0  0  0  0  0  0  0  0  0  0  0  0
  150.6493  140.2552  155.5799 C   0  0  0  0  0  0  0  0  0  0  0  0
  150.3607  139.9494  154.3130 N   0  0  0  0  0  0  0  0  0  0  0  0
  150.2481  138.6382  154.0091 C   0  0  0  0  0  0  0  0  0  0  0  0
  150.4264  137.6323  154.9796 C   0  0  0  0  0  0  0  0  0  0  0  0
  150.7313  138.0663  156.2856 C   0  0  0  0  0  0  0  0  0  0  0  0
  150.9225  137.1332  157.2834 O   0  0  0  0  0  0  0  0  0  0  0  0
  151.2008  137.6044  158.5973 C   0  0  0  0  0  0  0  0  0  0  0  0
  150.8412  139.3862  156.5791 N   0  0  0  0  0  0  0  0  0  0  0  0
  152.0449  141.4611  158.7902 C   0  0  0  0  0  0  0  0  0  0  0  0
  154.7443  140.1856  162.2271 H   0  0  0  0  0  0  0  0  0  0  0  0
  153.5741  141.4645  162.4982 H   0  0  0  0  0  0  0  0  0  0  0  0
  155.0837  141.8142  161.6526 H   0  0  0  0  0  0  0  0  0  0  0  0
  154.3886  140.2208  159.8284 H   0  0  0  0  0  0  0  0  0  0  0  0
  152.8433  139.9949  160.5985 H   0  0  0  0  0  0  0  0  0  0  0  0
  151.8534  142.5354  161.2298 H   0  0  0  0  0  0  0  0  0  0  0  0
  153.4257  143.3023  161.2017 H   0  0  0  0  0  0  0  0  0  0  0  0
  151.6277  144.8579  160.4378 H   0  0  0  0  0  0  0  0  0  0  0  0
  152.8275  144.6022  159.1829 H   0  0  0  0  0  0  0  0  0  0  0  0
  152.2701  143.0641  157.3545 H   0  0  0  0  0  0  0  0  0  0  0  0
  149.6862  141.4935  157.6350 H   0  0  0  0  0  0  0  0  0  0  0  0
  149.6656  143.0748  156.8730 H   0  0  0  0  0  0  0  0  0  0  0  0
  151.0752  142.2086  155.1163 H   0  0  0  0  0  0  0  0  0  0  0  0
  150.0142  138.3894  152.9847 H   0  0  0  0  0  0  0  0  0  0  0  0
  150.3352  136.5845  154.7347 H   0  0  0  0  0  0  0  0  0  0  0  0
  151.3323  136.7539  159.2658 H   0  0  0  0  0  0  0  0  0  0  0  0
  150.3802  138.2084  158.9871 H   0  0  0  0  0  0  0  0  0  0  0  0
  152.1203  138.1913  158.6239 H   0  0  0  0  0  0  0  0  0  0  0  0
  152.4146  140.7009  158.1010 H   0  0  0  0  0  0  0  0  0  0  0  0
  151.2399  140.9967  159.3625 H   0  0  0  0  0  0  0  0  0  0  0  0
  1  2  1  0  0  0  0
  1 19  1  0  0  0  0
  1 20  1  0  0  0  0
  1 21  1  0  0  0  0
  2  3  1  0  0  0  0
  2 22  1  0  0  0  0
  2 23  1  0  0  0  0
  3 18  1  0  0  0  0
  3  4  1  0  0  0  0
  4  5  1  0  0  0  0
  4 24  1  0  0  0  0
  4 25  1  0  0  0  0
  5  6  1  0  0  0  0
  5 26  1  0  0  0  0
  5 27  1  0  0  0  0
  6  7  1  0  0  0  0
  7  8  1  0  0  0  0
  7 18  1  0  0  0  0
  7 28  1  0  0  0  0
  8  9  1  0  0  0  0
  8 29  1  0  0  0  0
  8 30  1  0  0  0  0
  9 10  1  0  0  0  0
  9 31  1  0  0  0  0
 10 17  1  0  0  0  0
 10 11  2  0  0  0  0
 11 12  1  0  0  0  0
 12 13  2  0  0  0  0
 12 32  1  0  0  0  0
 13 14  1  0  0  0  0
 13 33  1  0  0  0  0
 14 15  1  0  0  0  0
 14 17  2  0  0  0  0
 15 16  1  0  0  0  0
 16 34  1  0  0  0  0
 16 35  1  0  0  0  0
 16 36  1  0  0  0  0
 18 37  1  0  0  0  0
 18 38  1  0  0  0  0
M  END
> <s_m_source_file>
AV-unprocessed.smi

> <i_m_source_file_index>
3250

> <i_lp_mmshare_version>
43012

> <i_f3d_flags>
0

> <s_epik_input>
W0NIM11bQ0gyXU4xW0NIMl1bQ0gyXU9bQ0BIXShbQ0gyXTEpW0NIMl1bTkhdYzJuW2NIXVtjSF1jKG4yKU9bQ0gzXQ==

> <s_epik_cmdline>
J2VwaWtfcHl0aG9uJywgJy1waCcsICc3LjAnLCAnLXRuJywgJzgnLCAnLW1hJywgJzIwMCcsICctbWV0YWxfYmluZGluZycsICctaW1hZScsICc8aW5maWxlLm1hZT4nLCAnLW9tYWUnLCAnPG91dGZpbGUubWFlPic=

> <r_lp_tautomer_probability>
1

> <r_epik_Ionization_Penalty>
0.832605

> <r_epik_Ionization_Penalty_Charging>
0

> <r_epik_Ionization_Penalty_Neutral>
0.832605

> <r_epik_State_Penalty>
0.927194

> <r_epik_Charging_Adjusted_Penalty>
0.927194

> <i_epik_Tot_Q>
0

> <i_epik_Tot_abs_Q>
0

> <r_epik_Metal_State_Penalty>
0.908632

> <b_epik_Metal_Only>
0

> <s_lp_Force_Field>
OPLS_2005

> <r_lp_Energy>
15.3414

> <b_lp_Chiralities_Consistent>
1

> <s_lp_Variant>
AV-unprocessed.smi:3250-6

> <Gold.Version>
5.8.1

> <Gold.Id.Protein>
6NUR|6NUR_protein|mol2

> <Gold.PLP.Fitness>
38.1100

> <Gold.PLP.PLP>
-31.4190

> <Gold.PLP.part.hbond>
-1.0000

> <Gold.PLP.part.metal>
0.0000

> <Gold.PLP.part.buried>
-4.1282

> <Gold.PLP.part.nonpolar>
-26.5883

> <Gold.PLP.part.repulsive>
0.3603

> <Gold.PLP.ligand.clash>
0.0000

> <Gold.PLP.ligand.torsion>
0.8480

> <Gold.PLP.Chemscore.Hbond>
1.0000

> <Gold.PLP.Chemscore.CHOScore>
1.7760

> <Gold.PLP.Chemscore.Metal>
0.0000

> <Gold.Chemscore.Hbonds>
donor molecule, donor type, donor heavy atom, donor atom, acceptor molecule, acceptor atom, score
      P1  H  7989  7998       L1    11  1.00
      L1  C    12    32       P1  7948  0.82
      L1  C    12    32       P1  7957  0.92

> <Gold.PLP.Chemscore.Internal.Correction>
0.0588

> <Gold.Rescore>
     Score         DG    S(hbond)    S(metal)    S(lipo)     H(rot)  DE(clash)    DE(int)     intcor
     13.59     -14.44       0.90        0.00      87.26       1.67       0.03       0.82       ----

> <Gold.Chemscore.Fitness>
13.5888

> <Gold.Chemscore.DG>
-14.4363

> <Gold.Chemscore.ZeroCoef>
-5.4800

> <Gold.Chemscore.Hbond>
0.9015

> <Gold.Chemscore.Metal>
0.0000

> <Gold.Chemscore.Lipo>
87.2616

> <Gold.Chemscore.Internal_Hbond>
0.0000

> <Gold.Chemscore.DEClash>
0.0252

> <Gold.Chemscore.DEInternal>
0.8223

> <Gold.Chemscore.Rot>
1.6657

> <Gold.Chemscore.Internal.Correction>
   9.000000E+99

> <Gold.Chemscore.Hbonds>
donor molecule, donor type, donor heavy atom, donor atom, acceptor molecule, acceptor atom, score
      P1  H  7989  7998       L1    11  0.24

> <Gold.Chemscore.Hbond.Weighted>
-3.0110

> <Gold.Chemscore.Metal.Weighted>
-0.0000

> <Gold.Chemscore.Lipo.Weighted>
-10.2096

> <Gold.Chemscore.Internal_Hbond.Weighted>
0.0000

> <Gold.Chemscore.DEClash.Weighted>
0.0252

> <Gold.Chemscore.DEInternal.Weighted>
0.8223

> <Gold.Chemscore.Rot.Weighted>
4.2642

> <Gold.Chemscore.Internal.Correction.Weighted>
   9.000000E+99

> <Gold.Protein.RotatedTorsions>
[ 6907 6896 6895 6894 ] final -161.00 input  -60.11 | X-H torsion
[ 7974 7965 7964 7962 ] final   23.89 input  175.53 | X-H torsion
[ 8008 7997 7996 7995 ] final   89.49 input   59.86 | X-H torsion
[ 10167 10162 10161 10158 ] final  125.78 input  -65.29 | X-H torsion
[ 10718 10713 10712 10709 ] final -165.53 input   66.30 | X-H torsion
[ 10763 10752 10751 10750 ] final  136.36 input  -60.55 | X-H torsion
[ 11005 11000 10999 10996 ] final   73.52 input  -57.11 | X-H torsion

> <Gold.Protein.ActiveResidues>
 VAL166  LYS551  ARG553  GLY616  TRP617  ASP618  TYR619  PRO620  LYS621  CYS622 
 ASP623  PHE694  ASN695  SER759  ASP760  ASP761  ALA762  ILE779  LEU786  VAL792 
 PHE793  MET794  SER795  GLU796  ALA797  LYS798  CYS799  TRP800  GLU811  SER814 

> <Gold.Protein.RotatedAtoms>
  151.3578  133.3901  159.2686 H   0  0  0  0  0  0  0  0  0  0  0  0  # atno 6907 bound_to 6896
  150.9749  134.9116  159.7820 H   0  0  0  0  0  0  0  0  0  0  0  0  # atno 6908 bound_to 6896
  152.5197  134.3541  159.9314 H   0  0  0  0  0  0  0  0  0  0  0  0  # atno 6909 bound_to 6896
  146.1963  139.7681  142.8794 H   0  0  0  0  0  0  0  0  0  0  0  0  # atno 7974 bound_to 7965
  156.0006  140.3360  155.6842 H   0  0  0  0  0  0  0  0  0  0  0  0  # atno 8008 bound_to 7997
  155.6295  140.0683  157.2671 H   0  0  0  0  0  0  0  0  0  0  0  0  # atno 8009 bound_to 7997
  154.4248  140.1762  156.1444 H   0  0  0  0  0  0  0  0  0  0  0  0  # atno 8010 bound_to 7997
  139.5666  144.6915  151.3892 H   0  0  0  0  0  0  0  0  0  0  0  0  # atno 10167 bound_to 10162
  156.6547  130.9022  151.3019 H   0  0  0  0  0  0  0  0  0  0  0  0  # atno 10718 bound_to 10713
  153.8552  135.3074  155.3435 H   0  0  0  0  0  0  0  0  0  0  0  0  # atno 10763 bound_to 10752
  154.7873  135.4802  153.9978 H   0  0  0  0  0  0  0  0  0  0  0  0  # atno 10764 bound_to 10752
  153.1494  135.6840  153.8998 H   0  0  0  0  0  0  0  0  0  0  0  0  # atno 10765 bound_to 10752
  139.9436  134.7354  156.1036 H   0  0  0  0  0  0  0  0  0  0  0  0  # atno 11005 bound_to 11000
  145.3632  141.0329  143.3273 LP  0  0  0  0  0  0  0  0  0  0  0  0  # atno 17320 bound_to 7965
  144.8588  139.5209  143.6822 LP  0  0  0  0  0  0  0  0  0  0  0  0  # atno 17321 bound_to 7965
  140.6950  143.7770  150.7313 LP  0  0  0  0  0  0  0  0  0  0  0  0  # atno 17342 bound_to 10162
  140.1264  143.4565  152.2281 LP  0  0  0  0  0  0  0  0  0  0  0  0  # atno 17343 bound_to 10162
  157.7129  130.9462  150.1153 LP  0  0  0  0  0  0  0  0  0  0  0  0  # atno 17370 bound_to 10713
  156.2057  130.3663  149.8732 LP  0  0  0  0  0  0  0  0  0  0  0  0  # atno 17371 bound_to 10713
  141.1079  133.6653  156.2908 LP  0  0  0  0  0  0  0  0  0  0  0  0  # atno 17394 bound_to 11000
  140.5890  134.5669  157.5495 LP  0  0  0  0  0  0  0  0  0  0  0  0  # atno 17395 bound_to 11000

$$$$
