AV-unprocessed.smi:67|AV-procd|sdf|634|dock9
  -GOLD-   2262016533D 1   1.00000     0.00000
 Structure written by MMmdl.
 48 50  0  0  0  0  0  0  0  0  2 V2000
  144.8231  138.7787  154.2373 O   0  0  0  0  0  0  0  0  0  0  0  0
  146.2370  138.7040  154.2828 C   0  0  2  0  0  0  0  0  0  0  0  0
  146.6328  139.0141  155.7473 C   0  0  0  0  0  0  0  0  0  0  0  0
  148.0171  139.4457  155.9587 N   0  0  0  0  0  0  0  0  0  0  0  0
  148.9223  138.2997  156.0706 C   0  0  0  0  0  0  0  0  0  0  0  0
  150.3995  138.7182  156.1629 C   0  0  0  0  0  0  0  0  0  0  0  0
  150.6051  139.7148  157.3243 C   0  0  0  0  0  0  0  0  0  0  0  0
  151.9578  140.1343  157.5221 O   0  0  0  0  0  0  0  0  0  0  0  0
  152.3542  140.9439  158.5698 C   0  0  0  0  0  0  0  0  0  0  0  0
  153.1383  140.5439  159.6808 C   0  0  0  0  0  0  0  0  0  0  0  0
  153.4806  141.4693  160.6847 C   0  0  0  0  0  0  0  0  0  0  0  0
  153.0442  142.8035  160.5995 C   0  0  0  0  0  0  0  0  0  0  0  0
  152.2569  143.2191  159.5060 C   0  0  0  0  0  0  0  0  0  0  0  0
  151.7770  144.6580  159.3902 C   0  0  0  0  0  0  0  0  0  0  0  0
  150.4529  144.6913  159.2374 F   0  0  0  0  0  0  0  0  0  0  0  0
  152.0899  145.3678  160.4749 F   0  0  0  0  0  0  0  0  0  0  0  0
  152.3462  145.2265  158.3280 F   0  0  0  0  0  0  0  0  0  0  0  0
  151.9263  142.2862  158.5004 C   0  0  0  0  0  0  0  0  0  0  0  0
  149.5619  140.8530  157.3335 C   0  0  0  0  0  0  0  0  0  0  0  0
  148.1483  140.2728  157.1647 C   0  0  0  0  0  0  0  0  0  0  0  0
  146.8042  139.6055  153.1799 C   0  0  0  0  0  0  0  0  0  0  0  0
  146.6291  138.7671  151.9122 C   0  0  0  0  0  0  0  0  0  0  0  0
  146.7398  137.3578  152.3382 N   0  3  0  0  0  0  0  0  0  0  0  0
  146.6415  137.2980  153.8117 C   0  0  0  0  0  0  0  0  0  0  0  0
  144.5771  139.5289  153.7171 H   0  0  0  0  0  0  0  0  0  0  0  0
  145.9520  139.7552  156.1704 H   0  0  0  0  0  0  0  0  0  0  0  0
  146.4432  138.1040  156.3193 H   0  0  0  0  0  0  0  0  0  0  0  0
  148.6545  137.6993  156.9416 H   0  0  0  0  0  0  0  0  0  0  0  0
  148.8047  137.6506  155.2019 H   0  0  0  0  0  0  0  0  0  0  0  0
  151.0227  137.8376  156.3200 H   0  0  0  0  0  0  0  0  0  0  0  0
  150.7035  139.1307  155.2045 H   0  0  0  0  0  0  0  0  0  0  0  0
  150.3990  139.1387  158.2274 H   0  0  0  0  0  0  0  0  0  0  0  0
  153.4979  139.5368  159.7999 H   0  0  0  0  0  0  0  0  0  0  0  0
  154.0816  141.1534  161.5245 H   0  0  0  0  0  0  0  0  0  0  0  0
  153.3188  143.5016  161.3766 H   0  0  0  0  0  0  0  0  0  0  0  0
  151.3305  142.6046  157.6573 H   0  0  0  0  0  0  0  0  0  0  0  0
  149.6244  141.4003  158.2745 H   0  0  0  0  0  0  0  0  0  0  0  0
  149.7348  141.5863  156.5506 H   0  0  0  0  0  0  0  0  0  0  0  0
  147.4313  141.0914  157.1551 H   0  0  0  0  0  0  0  0  0  0  0  0
  147.9001  139.6772  158.0449 H   0  0  0  0  0  0  0  0  0  0  0  0
  146.3254  140.5837  153.1206 H   0  0  0  0  0  0  0  0  0  0  0  0
  147.8730  139.7614  153.3219 H   0  0  0  0  0  0  0  0  0  0  0  0
  145.6353  138.9238  151.4909 H   0  0  0  0  0  0  0  0  0  0  0  0
  147.3621  139.0121  151.1431 H   0  0  0  0  0  0  0  0  0  0  0  0
  145.9922  136.8225  151.9200 H   0  0  0  0  0  0  0  0  0  0  0  0
  147.6305  137.0397  154.1921 H   0  0  0  0  0  0  0  0  0  0  0  0
  145.9523  136.5185  154.1392 H   0  0  0  0  0  0  0  0  0  0  0  0
  147.6313  136.9794  152.0514 H   0  0  0  0  0  0  0  0  0  0  0  0
  1  2  1  0  0  0  0
  1 25  1  0  0  0  0
  2 24  1  0  0  0  0
  2  3  1  0  0  0  0
  2 21  1  0  0  0  0
  3  4  1  0  0  0  0
  3 26  1  0  0  0  0
  3 27  1  0  0  0  0
  4 20  1  0  0  0  0
  4  5  1  0  0  0  0
  5  6  1  0  0  0  0
  5 28  1  0  0  0  0
  5 29  1  0  0  0  0
  6  7  1  0  0  0  0
  6 30  1  0  0  0  0
  6 31  1  0  0  0  0
  7  8  1  0  0  0  0
  7 19  1  0  0  0  0
  7 32  1  0  0  0  0
  8  9  1  0  0  0  0
  9 18  1  0  0  0  0
  9 10  2  0  0  0  0
 10 11  1  0  0  0  0
 10 33  1  0  0  0  0
 11 12  2  0  0  0  0
 11 34  1  0  0  0  0
 12 13  1  0  0  0  0
 12 35  1  0  0  0  0
 13 14  1  0  0  0  0
 13 18  2  0  0  0  0
 14 15  1  0  0  0  0
 14 16  1  0  0  0  0
 14 17  1  0  0  0  0
 18 36  1  0  0  0  0
 19 20  1  0  0  0  0
 19 37  1  0  0  0  0
 19 38  1  0  0  0  0
 20 39  1  0  0  0  0
 20 40  1  0  0  0  0
 21 22  1  0  0  0  0
 21 41  1  0  0  0  0
 21 42  1  0  0  0  0
 22 23  1  0  0  0  0
 22 43  1  0  0  0  0
 22 44  1  0  0  0  0
 23 24  1  0  0  0  0
 23 45  1  0  0  0  0
 23 48  1  0  0  0  0
 24 46  1  0  0  0  0
 24 47  1  0  0  0  0
M  CHG  1  23   1
M  END
> <s_m_source_file>
AV-unprocessed.smi

> <i_m_source_file_index>
67

> <i_lp_mmshare_version>
43012

> <i_f3d_flags>
0

> <s_epik_input>
W0NIMl0xW05IXVtDSDJdW0NIMl1bQ0BAXTEoW09IXSlbQ0gyXU4yW0NIMl1bQ0gyXVtDSF0oW0NIMl1bQ0gyXTIpT2MzW2NIXVtjSF1bY0hdYyhDKEYpKEYpRilbY0hdMw==

> <s_epik_cmdline>
J2VwaWtfcHl0aG9uJywgJy1waCcsICc3LjAnLCAnLXRuJywgJzgnLCAnLW1hJywgJzIwMCcsICctbWV0YWxfYmluZGluZycsICctaW1hZScsICc8aW5maWxlLm1hZT4nLCAnLW9tYWUnLCAnPG91dGZpbGUubWFlPic=

> <r_lp_tautomer_probability>
1

> <r_epik_Ionization_Penalty>
1.18002

> <r_epik_Ionization_Penalty_Charging>
0.00399663

> <r_epik_Ionization_Penalty_Neutral>
1.17602

> <r_epik_State_Penalty>
1.25421

> <r_epik_Charging_Adjusted_Penalty>
1.25821

> <i_epik_Tot_Q>
1

> <i_epik_Tot_abs_Q>
1

> <r_epik_Metal_State_Penalty>
1.25387

> <b_epik_Metal_Only>
0

> <s_lp_Force_Field>
OPLS_2005

> <r_lp_Energy>
62.5676

> <b_lp_Chiralities_Consistent>
1

> <s_lp_Variant>
AV-unprocessed.smi:67-6

> <Gold.Version>
5.8.1

> <Gold.Id.Protein>
6NUR|6NUR_protein|mol2

> <Gold.PLP.Fitness>
52.0942

> <Gold.PLP.PLP>
-44.4432

> <Gold.PLP.part.hbond>
-2.0000

> <Gold.PLP.part.metal>
0.0000

> <Gold.PLP.part.buried>
-7.1357

> <Gold.PLP.part.nonpolar>
-36.1462

> <Gold.PLP.part.repulsive>
0.0541

> <Gold.PLP.ligand.clash>
0.4023

> <Gold.PLP.ligand.torsion>
0.8121

> <Gold.PLP.Chemscore.Hbond>
3.0000

> <Gold.PLP.Chemscore.CHOScore>
0.0000

> <Gold.PLP.Chemscore.Metal>
0.0000

> <Gold.Chemscore.Hbonds>
donor molecule, donor type, donor heavy atom, donor atom, acceptor molecule, acceptor atom, score
      L1  H     1    25       P1 10175  1.00
      L1  H    23    48       P1  7948  1.92

> <Gold.PLP.Chemscore.Internal.Correction>
0.6776

> <Gold.Rescore>
     Score         DG    S(hbond)    S(metal)    S(lipo)     H(rot)  DE(clash)    DE(int)     intcor
     16.84     -18.60       1.97        0.00     103.72       2.19       0.02       1.74       ----

> <Gold.Chemscore.Fitness>
16.8374

> <Gold.Chemscore.DG>
-18.5970

> <Gold.Chemscore.ZeroCoef>
-5.4800

> <Gold.Chemscore.Hbond>
1.9717

> <Gold.Chemscore.Metal>
0.0000

> <Gold.Chemscore.Lipo>
103.7157

> <Gold.Chemscore.Internal_Hbond>
0.0000

> <Gold.Chemscore.DEClash>
0.0193

> <Gold.Chemscore.DEInternal>
1.7404

> <Gold.Chemscore.Rot>
2.1887

> <Gold.Chemscore.Internal.Correction>
   9.000000E+99

> <Gold.Chemscore.Hbonds>
donor molecule, donor type, donor heavy atom, donor atom, acceptor molecule, acceptor atom, score
      L1  H     1    25       P1 10175  0.99
      L1  H    23    48       P1  7948  0.91

> <Gold.Chemscore.Hbond.Weighted>
-6.5855

> <Gold.Chemscore.Metal.Weighted>
-0.0000

> <Gold.Chemscore.Lipo.Weighted>
-12.1347

> <Gold.Chemscore.Internal_Hbond.Weighted>
0.0000

> <Gold.Chemscore.DEClash.Weighted>
0.0193

> <Gold.Chemscore.DEInternal.Weighted>
1.7404

> <Gold.Chemscore.Rot.Weighted>
5.6032

> <Gold.Chemscore.Internal.Correction.Weighted>
   9.000000E+99

> <Gold.Protein.RotatedTorsions>
[ 6907 6896 6895 6894 ] final   13.94 input  -60.11 | X-H torsion
[ 7974 7965 7964 7962 ] final  -38.69 input  175.53 | X-H torsion
[ 8008 7997 7996 7995 ] final   38.39 input   59.86 | X-H torsion
[ 10167 10162 10161 10158 ] final  101.67 input  -65.29 | X-H torsion
[ 10718 10713 10712 10709 ] final   49.27 input   66.30 | X-H torsion
[ 10763 10752 10751 10750 ] final   50.74 input  -60.55 | X-H torsion
[ 11005 11000 10999 10996 ] final  -50.00 input  -57.11 | X-H torsion

> <Gold.Protein.ActiveResidues>
 VAL166  LYS551  ARG553  GLY616  TRP617  ASP618  TYR619  PRO620  LYS621  CYS622 
 ASP623  PHE694  ASN695  SER759  ASP760  ASP761  ALA762  ILE779  LEU786  VAL792 
 PHE793  MET794  SER795  GLU796  ALA797  LYS798  CYS799  TRP800  GLU811  SER814 

> <Gold.Protein.RotatedAtoms>
  151.7944  135.0727  160.0391 H   0  0  0  0  0  0  0  0  0  0  0  0  # atno 6907 bound_to 6896
  152.3134  133.5772  159.5704 H   0  0  0  0  0  0  0  0  0  0  0  0  # atno 6908 bound_to 6896
  150.7331  134.0035  159.3688 H   0  0  0  0  0  0  0  0  0  0  0  0  # atno 6909 bound_to 6896
  146.0463  140.6541  142.9063 H   0  0  0  0  0  0  0  0  0  0  0  0  # atno 7974 bound_to 7965
  155.2195  140.3330  155.4317 H   0  0  0  0  0  0  0  0  0  0  0  0  # atno 8008 bound_to 7997
  156.2339  140.1863  156.7219 H   0  0  0  0  0  0  0  0  0  0  0  0  # atno 8009 bound_to 7997
  154.6025  140.0621  156.9373 H   0  0  0  0  0  0  0  0  0  0  0  0  # atno 8010 bound_to 7997
  139.7417  144.7009  151.0565 H   0  0  0  0  0  0  0  0  0  0  0  0  # atno 10167 bound_to 10162
  157.4770  130.8291  149.8050 H   0  0  0  0  0  0  0  0  0  0  0  0  # atno 10718 bound_to 10713
  152.9784  135.5869  154.4302 H   0  0  0  0  0  0  0  0  0  0  0  0  # atno 10763 bound_to 10752
  154.3916  135.2768  155.2153 H   0  0  0  0  0  0  0  0  0  0  0  0  # atno 10764 bound_to 10752
  154.4023  135.6100  153.5958 H   0  0  0  0  0  0  0  0  0  0  0  0  # atno 10765 bound_to 10752
  141.0791  133.6658  156.3667 H   0  0  0  0  0  0  0  0  0  0  0  0  # atno 11005 bound_to 11000
  144.7100  140.4001  143.7088 LP  0  0  0  0  0  0  0  0  0  0  0  0  # atno 17320 bound_to 7965
  145.6799  139.1616  143.2706 LP  0  0  0  0  0  0  0  0  0  0  0  0  # atno 17321 bound_to 7965
  140.7787  143.4916  150.9886 LP  0  0  0  0  0  0  0  0  0  0  0  0  # atno 17342 bound_to 10162
  139.8604  143.7321  152.3173 LP  0  0  0  0  0  0  0  0  0  0  0  0  # atno 17343 bound_to 10162
  156.0102  130.3837  150.2292 LP  0  0  0  0  0  0  0  0  0  0  0  0  # atno 17370 bound_to 10713
  157.0476  131.0053  151.3264 LP  0  0  0  0  0  0  0  0  0  0  0  0  # atno 17371 bound_to 10713
  140.5508  134.6029  157.5407 LP  0  0  0  0  0  0  0  0  0  0  0  0  # atno 17394 bound_to 11000
  139.9604  134.7462  156.0249 LP  0  0  0  0  0  0  0  0  0  0  0  0  # atno 17395 bound_to 11000

$$$$
