AV-unprocessed.smi:1818|AV-procd|sdf|7381|dock7
  -GOLD-   22720 9 53D 1   1.00000     0.00000
 Structure written by MMmdl.
 37 38  0  0  0  0  0  0  0  0  2 V2000
  151.8664  136.6275  158.9228 N   0  0  0  0  0  0  0  0  0  0  0  0
  151.4968  137.5745  158.3702 C   0  0  0  0  0  0  0  0  0  0  0  0
  151.0261  138.7832  157.6649 C   0  0  0  0  0  0  0  0  0  0  0  0
  151.2432  139.9742  158.4924 N   0  0  0  0  0  0  0  0  0  0  0  0
  152.4075  140.4056  159.0063 C   0  0  0  0  0  0  0  0  0  0  0  0
  153.4864  139.8437  158.8252 O   0  0  0  0  0  0  0  0  0  0  0  0
  152.3406  141.6570  159.8809 C   0  0  0  0  0  0  0  0  0  0  0  0
  152.0003  142.8376  159.0816 N   0  0  0  0  0  0  0  0  0  0  0  0
  152.7629  143.9619  158.8897 C   0  0  0  0  0  0  0  0  0  0  0  0
  152.0422  144.7868  158.0647 C   0  0  0  0  0  0  0  0  0  0  0  0
  150.8723  144.1318  157.7869 N   0  3  0  0  0  0  0  0  0  0  0  0
  150.8484  142.9470  158.4060 C   0  0  0  0  0  0  0  0  0  0  0  0
  151.8969  138.9387  156.3940 C   0  0  0  0  0  0  0  0  0  0  0  0
  151.3092  139.8176  155.2753 C   0  0  0  0  0  0  0  0  0  0  0  0
  150.4418  139.0138  154.2898 C   0  0  0  0  0  0  0  0  0  0  0  0
  149.0810  138.5613  154.8424 C   0  0  0  0  0  0  0  0  0  0  0  0
  149.1458  137.7643  156.1576 C   0  0  0  0  0  0  0  0  0  0  0  0
  149.5102  138.6504  157.3606 C   0  0  0  0  0  0  0  0  0  0  0  0
  150.4188  140.5181  158.7013 H   0  0  0  0  0  0  0  0  0  0  0  0
  151.5877  141.5361  160.6616 H   0  0  0  0  0  0  0  0  0  0  0  0
  153.2977  141.8354  160.3736 H   0  0  0  0  0  0  0  0  0  0  0  0
  153.7363  144.0882  159.3414 H   0  0  0  0  0  0  0  0  0  0  0  0
  152.2687  145.7643  157.6642 H   0  0  0  0  0  0  0  0  0  0  0  0
  150.0570  142.2195  158.3649 H   0  0  0  0  0  0  0  0  0  0  0  0
  152.8699  139.3400  156.6820 H   0  0  0  0  0  0  0  0  0  0  0  0
  152.1237  137.9545  155.9811 H   0  0  0  0  0  0  0  0  0  0  0  0
  150.7623  140.6680  155.6836 H   0  0  0  0  0  0  0  0  0  0  0  0
  152.1397  140.2421  154.7102 H   0  0  0  0  0  0  0  0  0  0  0  0
  150.2628  139.6242  153.4041 H   0  0  0  0  0  0  0  0  0  0  0  0
  150.9986  138.1449  153.9368 H   0  0  0  0  0  0  0  0  0  0  0  0
  148.4343  139.4298  154.9733 H   0  0  0  0  0  0  0  0  0  0  0  0
  148.5938  137.9459  154.0854 H   0  0  0  0  0  0  0  0  0  0  0  0
  148.1558  137.3429  156.3359 H   0  0  0  0  0  0  0  0  0  0  0  0
  149.8211  136.9123  156.0734 H   0  0  0  0  0  0  0  0  0  0  0  0
  149.0189  138.2380  158.2430 H   0  0  0  0  0  0  0  0  0  0  0  0
  149.0602  139.6353  157.2263 H   0  0  0  0  0  0  0  0  0  0  0  0
  150.1307  144.4897  157.1978 H   0  0  0  0  0  0  0  0  0  0  0  0
  1  2  3  0  0  0  0
  2  3  1  0  0  0  0
  3 18  1  0  0  0  0
  3  4  1  0  0  0  0
  3 13  1  0  0  0  0
  4  5  1  0  0  0  0
  4 19  1  0  0  0  0
  5  6  2  0  0  0  0
  5  7  1  0  0  0  0
  7  8  1  0  0  0  0
  7 20  1  0  0  0  0
  7 21  1  0  0  0  0
  8 12  1  0  0  0  0
  8  9  1  0  0  0  0
  9 10  2  0  0  0  0
  9 22  1  0  0  0  0
 10 11  1  0  0  0  0
 10 23  1  0  0  0  0
 11 12  2  0  0  0  0
 11 37  1  0  0  0  0
 12 24  1  0  0  0  0
 13 14  1  0  0  0  0
 13 25  1  0  0  0  0
 13 26  1  0  0  0  0
 14 15  1  0  0  0  0
 14 27  1  0  0  0  0
 14 28  1  0  0  0  0
 15 16  1  0  0  0  0
 15 29  1  0  0  0  0
 15 30  1  0  0  0  0
 16 17  1  0  0  0  0
 16 31  1  0  0  0  0
 16 32  1  0  0  0  0
 17 18  1  0  0  0  0
 17 33  1  0  0  0  0
 17 34  1  0  0  0  0
 18 35  1  0  0  0  0
 18 36  1  0  0  0  0
M  CHG  1  11   1
M  END
> <s_m_source_file>
AV-unprocessed.smi

> <i_m_source_file_index>
1818

> <i_lp_mmshare_version>
43012

> <i_f3d_flags>
0

> <s_epik_input>
W0NIMl0xW0NIMl1bQ0gyXVtDSDJdW0NIMl1bQ0gyXUMxKEMjTilbTkhdQyg9TylbQ0gyXW4yW2NIXVtjSF1uW2NIXTI=

> <s_epik_cmdline>
J2VwaWtfcHl0aG9uJywgJy1waCcsICc3LjAnLCAnLXRuJywgJzgnLCAnLW1hJywgJzIwMCcsICctbWV0YWxfYmluZGluZycsICctaW1hZScsICc8aW5maWxlLm1hZT4nLCAnLW9tYWUnLCAnPG91dGZpbGUubWFlPic=

> <r_lp_tautomer_probability>
1

> <r_epik_Ionization_Penalty>
0.70502

> <r_epik_Ionization_Penalty_Charging>
0

> <r_epik_Ionization_Penalty_Neutral>
0.70502

> <r_epik_State_Penalty>
0.72808

> <r_epik_Charging_Adjusted_Penalty>
0.72808

> <i_epik_Tot_Q>
1

> <i_epik_Tot_abs_Q>
1

> <r_epik_Metal_State_Penalty>
0.891186

> <b_epik_Metal_Only>
0

> <s_lp_Force_Field>
OPLS_2005

> <r_lp_Energy>
19.4839

> <b_lp_Chiralities_Consistent>
1

> <s_lp_Variant>
AV-unprocessed.smi:1818-2

> <Gold.Version>
5.8.1

> <Gold.Id.Protein>
6NUR|6NUR_protein|mol2

> <Gold.PLP.Fitness>
46.7010

> <Gold.PLP.PLP>
-34.8331

> <Gold.PLP.part.hbond>
-2.9754

> <Gold.PLP.part.metal>
0.0000

> <Gold.PLP.part.buried>
-4.8019

> <Gold.PLP.part.nonpolar>
-27.5573

> <Gold.PLP.part.repulsive>
0.1470

> <Gold.PLP.ligand.clash>
0.0000

> <Gold.PLP.ligand.torsion>
0.0704

> <Gold.PLP.Chemscore.Hbond>
4.0000

> <Gold.PLP.Chemscore.CHOScore>
0.0000

> <Gold.PLP.Chemscore.Metal>
0.0000

> <Gold.Chemscore.Hbonds>
donor molecule, donor type, donor heavy atom, donor atom, acceptor molecule, acceptor atom, score
      L1  H    11    37       P1  8028  2.00
      P1  H  6896  6908       L1     1  0.70
      P1  H  7997  8010       L1     6  0.81

> <Gold.PLP.Chemscore.Internal.Correction>
0.0087

> <Gold.Rescore>
     Score         DG    S(hbond)    S(metal)    S(lipo)     H(rot)  DE(clash)    DE(int)     intcor
     18.03     -19.67       2.87        0.00      76.29       1.69       0.19       1.44       ----

> <Gold.Chemscore.Fitness>
18.0331

> <Gold.Chemscore.DG>
-19.6662

> <Gold.Chemscore.ZeroCoef>
-5.4800

> <Gold.Chemscore.Hbond>
2.8738

> <Gold.Chemscore.Metal>
0.0000

> <Gold.Chemscore.Lipo>
76.2923

> <Gold.Chemscore.Internal_Hbond>
0.0000

> <Gold.Chemscore.DEClash>
0.1883

> <Gold.Chemscore.DEInternal>
1.4449

> <Gold.Chemscore.Rot>
1.6947

> <Gold.Chemscore.Internal.Correction>
   9.000000E+99

> <Gold.Chemscore.Hbonds>
donor molecule, donor type, donor heavy atom, donor atom, acceptor molecule, acceptor atom, score
      L1  H    11    37       P1  8028  0.49
      P1  H  6896  6908       L1     1  0.70
      P1  H  7997  8010       L1     6  0.76

> <Gold.Chemscore.Hbond.Weighted>
-9.5985

> <Gold.Chemscore.Metal.Weighted>
-0.0000

> <Gold.Chemscore.Lipo.Weighted>
-8.9262

> <Gold.Chemscore.Internal_Hbond.Weighted>
0.0000

> <Gold.Chemscore.DEClash.Weighted>
0.1883

> <Gold.Chemscore.DEInternal.Weighted>
1.4449

> <Gold.Chemscore.Rot.Weighted>
4.3386

> <Gold.Chemscore.Internal.Correction.Weighted>
   9.000000E+99

> <Gold.Protein.RotatedTorsions>
[ 6907 6896 6895 6894 ] final -100.50 input  -60.11 | X-H torsion
[ 7974 7965 7964 7962 ] final -123.25 input  175.53 | X-H torsion
[ 8008 7997 7996 7995 ] final   13.36 input   59.86 | X-H torsion
[ 10167 10162 10161 10158 ] final   67.49 input  -65.29 | X-H torsion
[ 10718 10713 10712 10709 ] final -115.49 input   66.30 | X-H torsion
[ 10763 10752 10751 10750 ] final   80.28 input  -60.55 | X-H torsion
[ 11005 11000 10999 10996 ] final  -56.23 input  -57.11 | X-H torsion

> <Gold.Protein.ActiveResidues>
 VAL166  LYS551  ARG553  GLY616  TRP617  ASP618  TYR619  PRO620  LYS621  CYS622 
 ASP623  PHE694  ASN695  SER759  ASP760  ASP761  ALA762  ILE779  LEU786  VAL792 
 PHE793  MET794  SER795  GLU796  ALA797  LYS798  CYS799  TRP800  GLU811  SER814 

> <Gold.Protein.RotatedAtoms>
  150.7118  134.0878  159.3920 H   0  0  0  0  0  0  0  0  0  0  0  0  # atno 6907 bound_to 6896
  151.8863  135.0432  160.0503 H   0  0  0  0  0  0  0  0  0  0  0  0  # atno 6908 bound_to 6896
  152.2527  133.5193  159.5371 H   0  0  0  0  0  0  0  0  0  0  0  0  # atno 6909 bound_to 6896
  145.0207  140.7985  143.4383 H   0  0  0  0  0  0  0  0  0  0  0  0  # atno 7974 bound_to 7965
  154.8334  140.2903  155.5707 H   0  0  0  0  0  0  0  0  0  0  0  0  # atno 8008 bound_to 7997
  156.3007  140.2527  156.3194 H   0  0  0  0  0  0  0  0  0  0  0  0  # atno 8009 bound_to 7997
  154.9206  140.0386  157.1985 H   0  0  0  0  0  0  0  0  0  0  0  0  # atno 8010 bound_to 7997
  140.0890  144.5004  150.7111 H   0  0  0  0  0  0  0  0  0  0  0  0  # atno 10167 bound_to 10162
  156.0899  130.6084  150.8913 H   0  0  0  0  0  0  0  0  0  0  0  0  # atno 10718 bound_to 10713
  153.1020  135.4808  154.8884 H   0  0  0  0  0  0  0  0  0  0  0  0  # atno 10763 bound_to 10752
  154.7389  135.3077  154.8765 H   0  0  0  0  0  0  0  0  0  0  0  0  # atno 10764 bound_to 10752
  153.9379  135.6837  153.4798 H   0  0  0  0  0  0  0  0  0  0  0  0  # atno 10765 bound_to 10752
  141.1110  133.6610  156.4588 H   0  0  0  0  0  0  0  0  0  0  0  0  # atno 11005 bound_to 11000
  145.1899  139.2306  143.5248 LP  0  0  0  0  0  0  0  0  0  0  0  0  # atno 17320 bound_to 7965
  146.3485  140.1693  142.8590 LP  0  0  0  0  0  0  0  0  0  0  0  0  # atno 17321 bound_to 7965
  140.7038  143.2453  151.4786 LP  0  0  0  0  0  0  0  0  0  0  0  0  # atno 17342 bound_to 10162
  139.5735  144.1872  152.1871 LP  0  0  0  0  0  0  0  0  0  0  0  0  # atno 17343 bound_to 10162
  157.6045  131.0939  150.8902 LP  0  0  0  0  0  0  0  0  0  0  0  0  # atno 17370 bound_to 10713
  156.9053  130.5261  149.5281 LP  0  0  0  0  0  0  0  0  0  0  0  0  # atno 17371 bound_to 10713
  140.4774  134.6696  157.5156 LP  0  0  0  0  0  0  0  0  0  0  0  0  # atno 17394 bound_to 11000
  140.0004  134.6845  155.9539 LP  0  0  0  0  0  0  0  0  0  0  0  0  # atno 17395 bound_to 11000

$$$$
