AV-unprocessed.smi:370|AV-procd|sdf|2438|dock8
  -GOLD-   2262022373D 1   1.00000     0.00000
 Structure written by MMmdl.
 41 42  0  0  0  0  0  0  0  0  2 V2000
  146.6232  133.8915  162.4538 C   0  0  0  0  0  0  0  0  0  0  0  0
  146.9987  135.1130  161.6867 C   0  0  0  0  0  0  0  0  0  0  0  0
  147.4327  135.3066  160.4060 C   0  0  0  0  0  0  0  0  0  0  0  0
  147.5926  136.7171  160.3267 C   0  0  0  0  0  0  0  0  0  0  0  0
  148.0130  137.4052  159.2540 N   0  5  0  0  0  0  0  0  0  0  0  0
  149.2588  137.2061  158.7647 C   0  0  0  0  0  0  0  0  0  0  0  0
  150.0921  136.4028  159.1905 O   0  0  0  0  0  0  0  0  0  0  0  0
  149.5605  137.9840  157.7170 N   0  0  0  0  0  0  0  0  0  0  0  0
  150.8314  137.9716  156.9979 C   0  0  0  0  0  0  0  0  0  0  0  0
  151.2650  139.3916  156.5338 C   0  0  0  0  0  0  0  0  0  0  0  0
  151.7824  140.1416  157.7851 C   0  0  0  0  0  0  0  0  0  0  0  0
  152.4739  139.1884  155.5850 C   0  0  0  0  0  0  0  0  0  0  0  0
  150.1578  140.1091  155.8413 N   0  0  0  0  0  0  0  0  0  0  0  0
  149.6769  139.4665  154.6129 C   0  0  0  0  0  0  0  0  0  0  0  0
  148.4576  140.1921  154.0194 C   0  0  0  0  0  0  0  0  0  0  0  0
  148.7814  141.5559  153.7770 O   0  0  0  0  0  0  0  0  0  0  0  0
  149.1924  142.2319  154.9590 C   0  0  0  0  0  0  0  0  0  0  0  0
  150.4194  141.5255  155.5597 C   0  0  0  0  0  0  0  0  0  0  0  0
  147.3010  137.3236  161.4654 N   0  0  0  0  0  0  0  0  0  0  0  0
  146.9118  136.3027  162.3405 O   0  0  0  0  0  0  0  0  0  0  0  0
  147.4500  133.1817  162.4765 H   0  0  0  0  0  0  0  0  0  0  0  0
  145.7657  133.3985  161.9957 H   0  0  0  0  0  0  0  0  0  0  0  0
  146.3610  134.1377  163.4830 H   0  0  0  0  0  0  0  0  0  0  0  0
  147.6027  134.5604  159.6444 H   0  0  0  0  0  0  0  0  0  0  0  0
  148.8581  138.6337  157.3950 H   0  0  0  0  0  0  0  0  0  0  0  0
  151.5963  137.5103  157.6235 H   0  0  0  0  0  0  0  0  0  0  0  0
  150.7302  137.3100  156.1358 H   0  0  0  0  0  0  0  0  0  0  0  0
  152.5925  139.5898  158.2636 H   0  0  0  0  0  0  0  0  0  0  0  0
  151.0047  140.2713  158.5372 H   0  0  0  0  0  0  0  0  0  0  0  0
  152.1774  141.1277  157.5420 H   0  0  0  0  0  0  0  0  0  0  0  0
  153.2162  138.5187  156.0207 H   0  0  0  0  0  0  0  0  0  0  0  0
  152.9952  140.1214  155.3726 H   0  0  0  0  0  0  0  0  0  0  0  0
  152.1685  138.7567  154.6309 H   0  0  0  0  0  0  0  0  0  0  0  0
  150.4687  139.4428  153.8643 H   0  0  0  0  0  0  0  0  0  0  0  0
  149.3875  138.4343  154.8019 H   0  0  0  0  0  0  0  0  0  0  0  0
  148.1588  139.7248  153.0809 H   0  0  0  0  0  0  0  0  0  0  0  0
  147.6035  140.1275  154.6954 H   0  0  0  0  0  0  0  0  0  0  0  0
  149.4336  143.2660  154.7125 H   0  0  0  0  0  0  0  0  0  0  0  0
  148.3716  142.2572  155.6776 H   0  0  0  0  0  0  0  0  0  0  0  0
  150.6935  142.0586  156.4681 H   0  0  0  0  0  0  0  0  0  0  0  0
  151.2561  141.6247  154.8684 H   0  0  0  0  0  0  0  0  0  0  0  0
  1  2  1  0  0  0  0
  1 21  1  0  0  0  0
  1 22  1  0  0  0  0
  1 23  1  0  0  0  0
  2 20  1  0  0  0  0
  2  3  2  0  0  0  0
  3  4  1  0  0  0  0
  3 24  1  0  0  0  0
  4  5  1  0  0  0  0
  4 19  2  0  0  0  0
  5  6  1  0  0  0  0
  6  7  2  0  0  0  0
  6  8  1  0  0  0  0
  8  9  1  0  0  0  0
  8 25  1  0  0  0  0
  9 10  1  0  0  0  0
  9 26  1  0  0  0  0
  9 27  1  0  0  0  0
 10 11  1  0  0  0  0
 10 12  1  0  0  0  0
 10 13  1  0  0  0  0
 11 28  1  0  0  0  0
 11 29  1  0  0  0  0
 11 30  1  0  0  0  0
 12 31  1  0  0  0  0
 12 32  1  0  0  0  0
 12 33  1  0  0  0  0
 13 18  1  0  0  0  0
 13 14  1  0  0  0  0
 14 15  1  0  0  0  0
 14 34  1  0  0  0  0
 14 35  1  0  0  0  0
 15 16  1  0  0  0  0
 15 36  1  0  0  0  0
 15 37  1  0  0  0  0
 16 17  1  0  0  0  0
 17 18  1  0  0  0  0
 17 38  1  0  0  0  0
 17 39  1  0  0  0  0
 18 40  1  0  0  0  0
 18 41  1  0  0  0  0
 19 20  1  0  0  0  0
M  CHG  1   5  -1
M  END
> <s_m_source_file>
AV-unprocessed.smi

> <i_m_source_file_index>
370

> <i_lp_mmshare_version>
43012

> <i_f3d_flags>
0

> <s_epik_input>
W0NIM11jMVtjSF1jKG5vMSlbTkhdQyg9TylbTkhdW0NIMl1DKFtDSDNdKShbQ0gzXSlOMltDSDJdW0NIMl1PW0NIMl1bQ0gyXTI=

> <s_epik_cmdline>
J2VwaWtfcHl0aG9uJywgJy1waCcsICc3LjAnLCAnLXRuJywgJzgnLCAnLW1hJywgJzIwMCcsICctbWV0YWxfYmluZGluZycsICctaW1hZScsICc8aW5maWxlLm1hZT4nLCAnLW9tYWUnLCAnPG91dGZpbGUubWFlPic=

> <r_epik_Ionization_Penalty>
6.88367

> <r_epik_Ionization_Penalty_Charging>
6.57198

> <r_epik_Ionization_Penalty_Neutral>
0.311685

> <r_epik_State_Penalty>
6.77619

> <r_epik_Charging_Adjusted_Penalty>
13.3482

> <i_epik_Tot_Q>
-1

> <i_epik_Tot_abs_Q>
1

> <r_epik_Metal_State_Penalty>
2.70533

> <b_epik_Metal_Only>
1

> <s_lp_Force_Field>
OPLS_2005

> <r_lp_Energy>
34.5841

> <b_lp_Chiralities_Consistent>
1

> <s_lp_Variant>
AV-unprocessed.smi:370-3

> <Gold.Version>
5.8.1

> <Gold.Id.Protein>
6NUR|6NUR_protein|mol2

> <Gold.PLP.Fitness>
39.7849

> <Gold.PLP.PLP>
-31.0624

> <Gold.PLP.part.hbond>
-4.2390

> <Gold.PLP.part.metal>
0.0000

> <Gold.PLP.part.buried>
1.5112

> <Gold.PLP.part.nonpolar>
-26.5450

> <Gold.PLP.part.repulsive>
0.2639

> <Gold.PLP.ligand.clash>
0.0000

> <Gold.PLP.ligand.torsion>
0.9624

> <Gold.PLP.Chemscore.Hbond>
3.5217

> <Gold.PLP.Chemscore.CHOScore>
0.0000

> <Gold.PLP.Chemscore.Metal>
0.0000

> <Gold.Chemscore.Hbonds>
donor molecule, donor type, donor heavy atom, donor atom, acceptor molecule, acceptor atom, score
      P1  H  6896  6909       L1     7  1.00
      P1  H  6931  6943       L1    19  0.82
      P1  H  6934  6947       L1    19  0.93
      P1  H  8011  8017       L1    16  0.69

> <Gold.PLP.Chemscore.Internal.Correction>
0.0821

> <Gold.Rescore>
     Score         DG    S(hbond)    S(metal)    S(lipo)     H(rot)  DE(clash)    DE(int)     intcor
     16.40     -19.44       2.73        0.00      74.74       1.53       2.00       1.04       ----

> <Gold.Chemscore.Fitness>
16.4004

> <Gold.Chemscore.DG>
-19.4399

> <Gold.Chemscore.ZeroCoef>
-5.4800

> <Gold.Chemscore.Hbond>
2.7319

> <Gold.Chemscore.Metal>
0.0000

> <Gold.Chemscore.Lipo>
74.7390

> <Gold.Chemscore.Internal_Hbond>
0.0000

> <Gold.Chemscore.DEClash>
1.9969

> <Gold.Chemscore.DEInternal>
1.0426

> <Gold.Chemscore.Rot>
1.5269

> <Gold.Chemscore.Internal.Correction>
   9.000000E+99

> <Gold.Chemscore.Hbonds>
donor molecule, donor type, donor heavy atom, donor atom, acceptor molecule, acceptor atom, score
      P1  H  6896  6909       L1     7  1.00
      P1  H  6931  6943       L1    19  0.29
      P1  H  6934  6947       L1    19  0.32
      P1  H  8011  8017       L1    16  0.34

> <Gold.Chemscore.Hbond.Weighted>
-9.1244

> <Gold.Chemscore.Metal.Weighted>
-0.0000

> <Gold.Chemscore.Lipo.Weighted>
-8.7445

> <Gold.Chemscore.Internal_Hbond.Weighted>
0.0000

> <Gold.Chemscore.DEClash.Weighted>
1.9969

> <Gold.Chemscore.DEInternal.Weighted>
1.0426

> <Gold.Chemscore.Rot.Weighted>
3.9090

> <Gold.Chemscore.Internal.Correction.Weighted>
   9.000000E+99

> <Gold.Protein.RotatedTorsions>
[ 6907 6896 6895 6894 ] final   91.98 input  -60.11 | X-H torsion
[ 7974 7965 7964 7962 ] final  144.20 input  175.53 | X-H torsion
[ 8008 7997 7996 7995 ] final  -65.62 input   59.86 | X-H torsion
[ 10167 10162 10161 10158 ] final -119.59 input  -65.29 | X-H torsion
[ 10718 10713 10712 10709 ] final  -60.87 input   66.30 | X-H torsion
[ 10763 10752 10751 10750 ] final -147.70 input  -60.55 | X-H torsion
[ 11005 11000 10999 10996 ] final  176.63 input  -57.11 | X-H torsion

> <Gold.Protein.ActiveResidues>
 VAL166  LYS551  ARG553  GLY616  TRP617  ASP618  TYR619  PRO620  LYS621  CYS622 
 ASP623  PHE694  ASN695  SER759  ASP760  ASP761  ALA762  ILE779  LEU786  VAL792 
 PHE793  MET794  SER795  GLU796  ALA797  LYS798  CYS799  TRP800  GLU811  SER814 

> <Gold.Protein.RotatedAtoms>
  152.5452  134.1572  159.8542 H   0  0  0  0  0  0  0  0  0  0  0  0  # atno 6907 bound_to 6896
  151.1594  133.4848  159.2602 H   0  0  0  0  0  0  0  0  0  0  0  0  # atno 6908 bound_to 6896
  151.1389  135.0180  159.8671 H   0  0  0  0  0  0  0  0  0  0  0  0  # atno 6909 bound_to 6896
  144.8856  139.5634  143.5822 H   0  0  0  0  0  0  0  0  0  0  0  0  # atno 7974 bound_to 7965
  154.4683  140.0929  156.7078 H   0  0  0  0  0  0  0  0  0  0  0  0  # atno 8008 bound_to 7997
  155.4796  140.3467  155.4319 H   0  0  0  0  0  0  0  0  0  0  0  0  # atno 8009 bound_to 7997
  156.0995  140.1418  156.9475 H   0  0  0  0  0  0  0  0  0  0  0  0  # atno 8010 bound_to 7997
  140.0450  143.5116  152.2111 H   0  0  0  0  0  0  0  0  0  0  0  0  # atno 10167 bound_to 10162
  156.0960  130.4193  150.0915 H   0  0  0  0  0  0  0  0  0  0  0  0  # atno 10718 bound_to 10713
  154.8272  135.3353  154.6859 H   0  0  0  0  0  0  0  0  0  0  0  0  # atno 10763 bound_to 10752
  153.7483  135.6941  153.4956 H   0  0  0  0  0  0  0  0  0  0  0  0  # atno 10764 bound_to 10752
  153.2195  135.4454  155.0423 H   0  0  0  0  0  0  0  0  0  0  0  0  # atno 10765 bound_to 10752
  140.3752  134.6995  157.4417 H   0  0  0  0  0  0  0  0  0  0  0  0  # atno 11005 bound_to 11000
  146.3022  139.7463  142.9083 LP  0  0  0  0  0  0  0  0  0  0  0  0  # atno 17320 bound_to 7965
  145.3875  141.0367  143.3142 LP  0  0  0  0  0  0  0  0  0  0  0  0  # atno 17321 bound_to 7965
  139.5990  144.7576  151.3218 LP  0  0  0  0  0  0  0  0  0  0  0  0  # atno 17342 bound_to 10162
  140.7243  143.7048  150.7816 LP  0  0  0  0  0  0  0  0  0  0  0  0  # atno 17343 bound_to 10162
  156.8914  130.9590  151.3588 LP  0  0  0  0  0  0  0  0  0  0  0  0  # atno 17370 bound_to 10713
  157.6121  130.8591  149.8969 LP  0  0  0  0  0  0  0  0  0  0  0  0  # atno 17371 bound_to 10713
  140.0521  134.6116  155.8850 LP  0  0  0  0  0  0  0  0  0  0  0  0  # atno 17394 bound_to 11000
  141.1941  133.6582  156.5581 LP  0  0  0  0  0  0  0  0  0  0  0  0  # atno 17395 bound_to 11000

$$$$
