AV-unprocessed.smi:1867|AV-procd|sdf|7579|dock5
  -GOLD-   22720 9293D 1   1.00000     0.00000
 Structure written by MMmdl.
 52 55  0  0  0  0  0  0  0  0  4 V2000
  152.9736  136.6851  160.1691 O   0  0  0  0  0  0  0  0  0  0  0  0
  153.8086  136.8401  161.0582 C   0  0  0  0  0  0  0  0  0  0  0  0
  154.2598  138.0900  161.3278 N   0  0  0  0  0  0  0  0  0  0  0  0
  153.8469  139.3321  160.7753 C   0  0  0  0  0  0  0  0  0  0  0  0
  154.1755  140.5085  161.4802 C   0  0  0  0  0  0  0  0  0  0  0  0
  153.7670  141.7619  160.9800 C   0  0  0  0  0  0  0  0  0  0  0  0
  153.0227  141.8281  159.7786 C   0  0  0  0  0  0  0  0  0  0  0  0
  152.5802  143.0427  159.2209 N   0  0  0  0  0  0  0  0  0  0  0  0
  152.5751  144.2729  159.9973 C   0  0  0  0  0  0  0  0  0  0  0  0
  151.8418  145.2830  159.1164 C   0  0  0  0  0  0  0  0  0  0  0  0
  150.8312  144.4168  158.3651 C   0  0  0  0  0  0  0  0  0  0  0  0
  151.5448  143.0701  158.1971 C   0  0  0  0  0  0  0  0  0  0  0  0
  152.7091  140.6712  159.1483 N   0  3  0  0  0  0  0  0  0  0  0  0
  153.0812  139.4508  159.5914 C   0  0  0  0  0  0  0  0  0  0  0  0
  154.3006  135.7742  161.7587 N   0  5  0  0  0  0  0  0  0  0  0  0
  155.2150  135.7590  162.9138 C   0  0  1  0  0  0  0  0  0  0  0  0
  154.4548  136.1367  164.1917 C   0  0  0  0  0  0  0  0  0  0  0  0
  153.8319  134.8257  164.7086 C   0  0  0  0  0  0  0  0  0  0  0  0
  154.5462  133.7051  164.0445 N   0  3  1  0  0  0  0  0  0  0  0  0
  153.6262  132.8072  163.2876 C   0  0  0  0  0  0  0  0  0  0  0  0
  154.3820  131.7979  162.4155 C   0  0  0  0  0  0  0  0  0  0  0  0
  155.2659  132.5386  161.4099 C   0  0  0  0  0  0  0  0  0  0  0  0
  156.2795  133.4114  162.1620 C   0  0  0  0  0  0  0  0  0  0  0  0
  155.6527  134.3192  163.2575 C   0  0  1  0  0  0  0  0  0  0  0  0
  155.0255  138.1404  161.9837 H   0  0  0  0  0  0  0  0  0  0  0  0
  154.7416  140.4543  162.3987 H   0  0  0  0  0  0  0  0  0  0  0  0
  154.0236  142.6556  161.5289 H   0  0  0  0  0  0  0  0  0  0  0  0
  152.0341  144.1138  160.9313 H   0  0  0  0  0  0  0  0  0  0  0  0
  153.5867  144.6044  160.2341 H   0  0  0  0  0  0  0  0  0  0  0  0
  151.3761  146.0860  159.6884 H   0  0  0  0  0  0  0  0  0  0  0  0
  152.5395  145.7325  158.4084 H   0  0  0  0  0  0  0  0  0  0  0  0
  149.9398  144.2836  158.9798 H   0  0  0  0  0  0  0  0  0  0  0  0
  150.5197  144.8520  157.4151 H   0  0  0  0  0  0  0  0  0  0  0  0
  152.0177  143.0040  157.2168 H   0  0  0  0  0  0  0  0  0  0  0  0
  150.8410  142.2432  158.2944 H   0  0  0  0  0  0  0  0  0  0  0  0
  152.7395  138.6229  158.9883 H   0  0  0  0  0  0  0  0  0  0  0  0
  156.0828  136.4035  162.7666 H   0  0  0  0  0  0  0  0  0  0  0  0
  155.1657  136.5092  164.9306 H   0  0  0  0  0  0  0  0  0  0  0  0
  153.7134  136.9227  164.0406 H   0  0  0  0  0  0  0  0  0  0  0  0
  153.9352  134.7449  165.7910 H   0  0  0  0  0  0  0  0  0  0  0  0
  152.7623  134.8015  164.4900 H   0  0  0  0  0  0  0  0  0  0  0  0
  152.9857  132.2817  163.9964 H   0  0  0  0  0  0  0  0  0  0  0  0
  152.9656  133.3981  162.6510 H   0  0  0  0  0  0  0  0  0  0  0  0
  154.9876  131.1386  163.0389 H   0  0  0  0  0  0  0  0  0  0  0  0
  153.6718  131.1626  161.8857 H   0  0  0  0  0  0  0  0  0  0  0  0
  155.7885  131.8261  160.7713 H   0  0  0  0  0  0  0  0  0  0  0  0
  154.6505  133.1514  160.7505 H   0  0  0  0  0  0  0  0  0  0  0  0
  156.9843  132.7376  162.6513 H   0  0  0  0  0  0  0  0  0  0  0  0
  156.8810  133.9874  161.4562 H   0  0  0  0  0  0  0  0  0  0  0  0
  156.4513  134.4536  163.9898 H   0  0  0  0  0  0  0  0  0  0  0  0
  154.9783  133.1359  164.7573 H   0  0  0  0  0  0  0  0  0  0  0  0
  152.1596  140.7214  158.2905 H   0  0  0  0  0  0  0  0  0  0  0  0
  1  2  2  0  0  0  0
  2  3  1  0  0  0  0
  2 15  1  0  0  0  0
  3  4  1  0  0  0  0
  3 25  1  0  0  0  0
  4 14  1  0  0  0  0
  4  5  2  0  0  0  0
  5  6  1  0  0  0  0
  5 26  1  0  0  0  0
  6  7  2  0  0  0  0
  6 27  1  0  0  0  0
  7  8  1  0  0  0  0
  7 13  1  0  0  0  0
  8 12  1  0  0  0  0
  8  9  1  0  0  0  0
  9 10  1  0  0  0  0
  9 28  1  0  0  0  0
  9 29  1  0  0  0  0
 10 11  1  0  0  0  0
 10 30  1  0  0  0  0
 10 31  1  0  0  0  0
 11 12  1  0  0  0  0
 11 32  1  0  0  0  0
 11 33  1  0  0  0  0
 12 34  1  0  0  0  0
 12 35  1  0  0  0  0
 13 14  2  0  0  0  0
 13 52  1  0  0  0  0
 14 36  1  0  0  0  0
 15 16  1  0  0  0  0
 16 24  1  0  0  0  0
 16 17  1  0  0  0  0
 16 37  1  0  0  0  0
 17 18  1  0  0  0  0
 17 38  1  0  0  0  0
 17 39  1  0  0  0  0
 18 19  1  0  0  0  0
 18 40  1  0  0  0  0
 18 41  1  0  0  0  0
 19 24  1  0  0  0  0
 19 20  1  0  0  0  0
 19 51  1  0  0  0  0
 20 21  1  0  0  0  0
 20 42  1  0  0  0  0
 20 43  1  0  0  0  0
 21 22  1  0  0  0  0
 21 44  1  0  0  0  0
 21 45  1  0  0  0  0
 22 23  1  0  0  0  0
 22 46  1  0  0  0  0
 22 47  1  0  0  0  0
 23 24  1  0  0  0  0
 23 48  1  0  0  0  0
 23 49  1  0  0  0  0
 24 50  1  0  0  0  0
M  CHG  1  13   1
M  CHG  1  15  -1
M  CHG  1  19   1
M  END
> <s_m_source_file>
AV-unprocessed.smi

> <i_m_source_file_index>
1867

> <i_lp_mmshare_version>
43012

> <i_f3d_flags>
0

> <s_epik_input>
W0NIMl0xW0NIMl1bQ0gyXVtDSDJdW0NASF0oTjEyKVtDQEBIXShbQ0gyXVtDSDJdMilbTkhdQyg9TylbTkhdYzNbY0hdW2NIXWMobltjSF0zKU40W0NIMl1bQ0gyXVtDSDJdW0NIMl00

> <s_epik_cmdline>
J2VwaWtfcHl0aG9uJywgJy1waCcsICc3LjAnLCAnLXRuJywgJzgnLCAnLW1hJywgJzIwMCcsICctbWV0YWxfYmluZGluZycsICctaW1hZScsICc8aW5maWxlLm1hZT4nLCAnLW9tYWUnLCAnPG91dGZpbGUubWFlPic=

> <r_lp_tautomer_probability>
0.999994

> <r_epik_Ionization_Penalty>
8.56137

> <r_epik_Ionization_Penalty_Charging>
8.56136

> <r_epik_Ionization_Penalty_Neutral>
3.91889e-06

> <r_epik_State_Penalty>
8.16255

> <r_epik_Charging_Adjusted_Penalty>
16.7239

> <i_epik_Tot_Q>
1

> <i_epik_Tot_abs_Q>
3

> <r_epik_Metal_State_Penalty>
4.14279

> <b_epik_Metal_Only>
1

> <s_lp_Force_Field>
OPLS_2005

> <r_lp_Energy>
73.5992

> <b_lp_Chiralities_Consistent>
1

> <s_lp_Variant>
AV-unprocessed.smi:1867-20

> <Gold.Version>
5.8.1

> <Gold.Id.Protein>
6NUR|6NUR_protein|mol2

> <Gold.PLP.Fitness>
46.9682

> <Gold.PLP.PLP>
-44.3681

> <Gold.PLP.part.hbond>
-0.9564

> <Gold.PLP.part.metal>
0.0000

> <Gold.PLP.part.buried>
-5.4999

> <Gold.PLP.part.nonpolar>
-38.5881

> <Gold.PLP.part.repulsive>
0.1062

> <Gold.PLP.ligand.clash>
0.0000

> <Gold.PLP.ligand.torsion>
0.3242

> <Gold.PLP.Chemscore.Hbond>
0.9913

> <Gold.PLP.Chemscore.CHOScore>
0.0000

> <Gold.PLP.Chemscore.Metal>
0.0000

> <Gold.Chemscore.Hbonds>
donor molecule, donor type, donor heavy atom, donor atom, acceptor molecule, acceptor atom, score
      P1  H  6896  6909       L1     1  1.00

> <Gold.PLP.Chemscore.Internal.Correction>
0.2747

> <Gold.Rescore>
     Score         DG    S(hbond)    S(metal)    S(lipo)     H(rot)  DE(clash)    DE(int)     intcor
     18.43     -20.03       0.95        0.00     119.26       1.00       0.01       1.58       ----

> <Gold.Chemscore.Fitness>
18.4314

> <Gold.Chemscore.DG>
-20.0310

> <Gold.Chemscore.ZeroCoef>
-5.4800

> <Gold.Chemscore.Hbond>
0.9455

> <Gold.Chemscore.Metal>
0.0000

> <Gold.Chemscore.Lipo>
119.2573

> <Gold.Chemscore.Internal_Hbond>
0.0000

> <Gold.Chemscore.DEClash>
0.0149

> <Gold.Chemscore.DEInternal>
1.5847

> <Gold.Chemscore.Rot>
1.0000

> <Gold.Chemscore.Internal.Correction>
   9.000000E+99

> <Gold.Chemscore.Hbonds>
donor molecule, donor type, donor heavy atom, donor atom, acceptor molecule, acceptor atom, score
      P1  H  6896  6909       L1     1  0.93

> <Gold.Chemscore.Hbond.Weighted>
-3.1579

> <Gold.Chemscore.Metal.Weighted>
-0.0000

> <Gold.Chemscore.Lipo.Weighted>
-13.9531

> <Gold.Chemscore.Internal_Hbond.Weighted>
0.0000

> <Gold.Chemscore.DEClash.Weighted>
0.0149

> <Gold.Chemscore.DEInternal.Weighted>
1.5847

> <Gold.Chemscore.Rot.Weighted>
2.5600

> <Gold.Chemscore.Internal.Correction.Weighted>
   9.000000E+99

> <Gold.Protein.RotatedTorsions>
[ 6907 6896 6895 6894 ] final  156.96 input  -60.11 | X-H torsion
[ 7974 7965 7964 7962 ] final  -77.54 input  175.53 | X-H torsion
[ 8008 7997 7996 7995 ] final   18.13 input   59.86 | X-H torsion
[ 10167 10162 10161 10158 ] final -133.87 input  -65.29 | X-H torsion
[ 10718 10713 10712 10709 ] final   16.77 input   66.30 | X-H torsion
[ 10763 10752 10751 10750 ] final   64.23 input  -60.55 | X-H torsion
[ 11005 11000 10999 10996 ] final   -0.80 input  -57.11 | X-H torsion

> <Gold.Protein.ActiveResidues>
 VAL166  LYS551  ARG553  GLY616  TRP617  ASP618  TYR619  PRO620  LYS621  CYS622 
 ASP623  PHE694  ASN695  SER759  ASP760  ASP761  ALA762  ILE779  LEU786  VAL792 
 PHE793  MET794  SER795  GLU796  ALA797  LYS798  CYS799  TRP800  GLU811  SER814 

> <Gold.Protein.RotatedAtoms>
  152.0221  133.3903  159.4262 H   0  0  0  0  0  0  0  0  0  0  0  0  # atno 6907 bound_to 6896
  150.6889  134.3614  159.4961 H   0  0  0  0  0  0  0  0  0  0  0  0  # atno 6908 bound_to 6896
  152.1389  134.9077  160.0605 H   0  0  0  0  0  0  0  0  0  0  0  0  # atno 6909 bound_to 6896
  145.5983  140.9414  143.1254 H   0  0  0  0  0  0  0  0  0  0  0  0  # atno 7974 bound_to 7965
  154.9016  140.3001  155.5315 H   0  0  0  0  0  0  0  0  0  0  0  0  # atno 8008 bound_to 7997
  156.3018  140.2406  156.3979 H   0  0  0  0  0  0  0  0  0  0  0  0  # atno 8009 bound_to 7997
  154.8516  140.0409  157.1596 H   0  0  0  0  0  0  0  0  0  0  0  0  # atno 8010 bound_to 7997
  139.8938  143.6690  152.2607 H   0  0  0  0  0  0  0  0  0  0  0  0  # atno 10167 bound_to 10162
  157.0727  130.6355  149.5809 H   0  0  0  0  0  0  0  0  0  0  0  0  # atno 10718 bound_to 10713
  153.0047  135.5400  154.6476 H   0  0  0  0  0  0  0  0  0  0  0  0  # atno 10763 bound_to 10752
  154.5716  135.2842  155.0823 H   0  0  0  0  0  0  0  0  0  0  0  0  # atno 10764 bound_to 10752
  154.1987  135.6487  153.5133 H   0  0  0  0  0  0  0  0  0  0  0  0  # atno 10765 bound_to 10752
  140.6403  133.9495  155.8322 H   0  0  0  0  0  0  0  0  0  0  0  0  # atno 11005 bound_to 11000
  144.7321  139.7695  143.7343 LP  0  0  0  0  0  0  0  0  0  0  0  0  # atno 17320 bound_to 7965
  146.1595  139.4704  142.9997 LP  0  0  0  0  0  0  0  0  0  0  0  0  # atno 17321 bound_to 7965
  139.7086  144.7624  151.1151 LP  0  0  0  0  0  0  0  0  0  0  0  0  # atno 17342 bound_to 10162
  140.7721  143.5361  150.9366 LP  0  0  0  0  0  0  0  0  0  0  0  0  # atno 17343 bound_to 10162
  155.9946  130.5010  150.7426 LP  0  0  0  0  0  0  0  0  0  0  0  0  # atno 17370 bound_to 10713
  157.4865  131.0907  151.0476 LP  0  0  0  0  0  0  0  0  0  0  0  0  # atno 17371 bound_to 10713
  141.0611  134.0344  157.3656 LP  0  0  0  0  0  0  0  0  0  0  0  0  # atno 17394 bound_to 11000
  139.9083  135.0184  156.7581 LP  0  0  0  0  0  0  0  0  0  0  0  0  # atno 17395 bound_to 11000

$$$$
