AV-unprocessed.smi:2759|AV-procd|sdf|10627|dock9
  -GOLD-   2272015 73D 1   1.00000     0.00000
 Structure written by MMmdl.
 43 44  0  0  0  0  0  0  0  0  1 V2000
  146.2853  135.1282  162.0005 C   0  0  0  0  0  0  0  0  0  0  0  0
  146.6019  134.4522  160.6533 C   0  0  0  0  0  0  0  0  0  0  0  0
  147.0369  132.9971  160.9157 C   0  0  0  0  0  0  0  0  0  0  0  0
  147.6597  135.2288  159.8240 C   0  0  1  0  0  0  0  0  0  0  0  0
  147.9267  134.5011  158.6387 O   0  0  0  0  0  0  0  0  0  0  0  0
  147.2178  136.6476  159.4014 C   0  0  0  0  0  0  0  0  0  0  0  0
  148.3477  137.4900  158.9045 C   0  0  0  0  0  0  0  0  0  0  0  0
  148.2781  138.7336  158.4359 N   0  0  0  0  0  0  0  0  0  0  0  0
  149.5794  138.9621  158.1038 C   0  0  0  0  0  0  0  0  0  0  0  0
  150.0545  140.2608  157.5300 C   0  0  0  0  0  0  0  0  0  0  0  0
  151.1846  140.8757  158.3646 C   0  0  0  0  0  0  0  0  0  0  0  0
  151.9210  140.1645  159.0499 O   0  0  0  0  0  0  0  0  0  0  0  0
  151.3070  142.2107  158.3007 N   0  0  0  0  0  0  0  0  0  0  0  0
  152.3166  142.9972  159.0052 C   0  0  0  0  0  0  0  0  0  0  0  0
  152.0695  142.9738  160.5260 C   0  0  0  0  0  0  0  0  0  0  0  0
  152.1462  144.4294  160.9902 C   0  0  0  0  0  0  0  0  0  0  0  0
  151.6852  145.2358  159.7806 C   0  0  0  0  0  0  0  0  0  0  0  0
  152.2660  144.4797  158.5854 C   0  0  0  0  0  0  0  0  0  0  0  0
  150.4137  137.9472  158.3020 N   0  0  0  0  0  0  0  0  0  0  0  0
  149.5878  136.9485  158.8376 O   0  0  0  0  0  0  0  0  0  0  0  0
  147.1899  135.2802  162.5901 H   0  0  0  0  0  0  0  0  0  0  0  0
  145.6043  134.5173  162.5939 H   0  0  0  0  0  0  0  0  0  0  0  0
  145.7994  136.0944  161.8718 H   0  0  0  0  0  0  0  0  0  0  0  0
  145.6750  134.4182  160.0785 H   0  0  0  0  0  0  0  0  0  0  0  0
  147.9797  132.9588  161.4623 H   0  0  0  0  0  0  0  0  0  0  0  0
  147.1664  132.4378  159.9891 H   0  0  0  0  0  0  0  0  0  0  0  0
  146.2909  132.4638  161.5056 H   0  0  0  0  0  0  0  0  0  0  0  0
  148.5810  135.2950  160.4048 H   0  0  0  0  0  0  0  0  0  0  0  0
  147.1428  134.0370  158.3865 H   0  0  0  0  0  0  0  0  0  0  0  0
  146.4415  136.5980  158.6365 H   0  0  0  0  0  0  0  0  0  0  0  0
  146.7820  137.1840  160.2422 H   0  0  0  0  0  0  0  0  0  0  0  0
  150.3893  140.0983  156.5043 H   0  0  0  0  0  0  0  0  0  0  0  0
  149.2243  140.9663  157.4851 H   0  0  0  0  0  0  0  0  0  0  0  0
  150.6603  142.7198  157.7157 H   0  0  0  0  0  0  0  0  0  0  0  0
  153.3099  142.5949  158.7965 H   0  0  0  0  0  0  0  0  0  0  0  0
  151.0760  142.5820  160.7504 H   0  0  0  0  0  0  0  0  0  0  0  0
  152.7887  142.3428  161.0494 H   0  0  0  0  0  0  0  0  0  0  0  0
  151.5434  144.6200  161.8785 H   0  0  0  0  0  0  0  0  0  0  0  0
  153.1797  144.6853  161.2275 H   0  0  0  0  0  0  0  0  0  0  0  0
  150.5956  145.2284  159.7273 H   0  0  0  0  0  0  0  0  0  0  0  0
  152.0111  146.2756  159.8187 H   0  0  0  0  0  0  0  0  0  0  0  0
  153.2806  144.8326  158.3960 H   0  0  0  0  0  0  0  0  0  0  0  0
  151.6928  144.6556  157.6741 H   0  0  0  0  0  0  0  0  0  0  0  0
  1  2  1  0  0  0  0
  1 21  1  0  0  0  0
  1 22  1  0  0  0  0
  1 23  1  0  0  0  0
  2  3  1  0  0  0  0
  2  4  1  0  0  0  0
  2 24  1  0  0  0  0
  3 25  1  0  0  0  0
  3 26  1  0  0  0  0
  3 27  1  0  0  0  0
  4  5  1  0  0  0  0
  4  6  1  0  0  0  0
  4 28  1  0  0  0  0
  5 29  1  0  0  0  0
  6  7  1  0  0  0  0
  6 30  1  0  0  0  0
  6 31  1  0  0  0  0
  7 20  1  0  0  0  0
  7  8  2  0  0  0  0
  8  9  1  0  0  0  0
  9 10  1  0  0  0  0
  9 19  2  0  0  0  0
 10 11  1  0  0  0  0
 10 32  1  0  0  0  0
 10 33  1  0  0  0  0
 11 12  2  0  0  0  0
 11 13  1  0  0  0  0
 13 14  1  0  0  0  0
 13 34  1  0  0  0  0
 14 18  1  0  0  0  0
 14 15  1  0  0  0  0
 14 35  1  0  0  0  0
 15 16  1  0  0  0  0
 15 36  1  0  0  0  0
 15 37  1  0  0  0  0
 16 17  1  0  0  0  0
 16 38  1  0  0  0  0
 16 39  1  0  0  0  0
 17 18  1  0  0  0  0
 17 40  1  0  0  0  0
 17 41  1  0  0  0  0
 18 42  1  0  0  0  0
 18 43  1  0  0  0  0
 19 20  1  0  0  0  0
M  END
> <s_m_source_file>
AV-unprocessed.smi

> <i_m_source_file_index>
2759

> <i_lp_mmshare_version>
43012

> <i_f3d_flags>
0

> <s_epik_input>
W0NIM11bQ0hdKFtDSDNdKVtDQEhdKFtPSF0pW0NIMl1jMW5jKG5vMSlbQ0gyXUMoPU8pW05IXVtDSF0yW0NIMl1bQ0gyXVtDSDJdW0NIMl0y

> <s_epik_cmdline>
J2VwaWtfcHl0aG9uJywgJy1waCcsICc3LjAnLCAnLXRuJywgJzgnLCAnLW1hJywgJzIwMCcsICctbWV0YWxfYmluZGluZycsICctaW1hZScsICc8aW5maWxlLm1hZT4nLCAnLW9tYWUnLCAnPG91dGZpbGUubWFlPic=

> <r_lp_tautomer_probability>
1

> <r_epik_Ionization_Penalty>
1.20032e-07

> <r_epik_Ionization_Penalty_Charging>
0

> <r_epik_Ionization_Penalty_Neutral>
1.20032e-07

> <r_epik_State_Penalty>
-0

> <r_epik_Charging_Adjusted_Penalty>
0

> <i_epik_Tot_Q>
0

> <i_epik_Tot_abs_Q>
0

> <r_epik_Metal_State_Penalty>
-0

> <b_epik_Metal_Only>
0

> <s_lp_Force_Field>
OPLS_2005

> <r_lp_Energy>
21.2868

> <b_lp_Chiralities_Consistent>
1

> <s_lp_Variant>
AV-unprocessed.smi:2759-2

> <Gold.Version>
5.8.1

> <Gold.Id.Protein>
6NUR|6NUR_protein|mol2

> <Gold.PLP.Fitness>
44.4083

> <Gold.PLP.PLP>
-42.4759

> <Gold.PLP.part.hbond>
-2.5870

> <Gold.PLP.part.metal>
0.0000

> <Gold.PLP.part.buried>
-6.6407

> <Gold.PLP.part.nonpolar>
-33.3066

> <Gold.PLP.part.repulsive>
0.0648

> <Gold.PLP.ligand.clash>
0.0000

> <Gold.PLP.ligand.torsion>
0.5460

> <Gold.PLP.Chemscore.Hbond>
0.9913

> <Gold.PLP.Chemscore.CHOScore>
0.0000

> <Gold.PLP.Chemscore.Metal>
0.0000

> <Gold.PLP.Chemscore.Internal.Correction>
0.0507

> <Gold.Rescore>
     Score         DG    S(hbond)    S(metal)    S(lipo)     H(rot)  DE(clash)    DE(int)     intcor
      9.53     -13.49       0.79        0.00     104.04       2.65       0.04       3.92       ----

> <Gold.Chemscore.Fitness>
9.5279

> <Gold.Chemscore.DG>
-13.4866

> <Gold.Chemscore.ZeroCoef>
-5.4800

> <Gold.Chemscore.Hbond>
0.7870

> <Gold.Chemscore.Metal>
0.0000

> <Gold.Chemscore.Lipo>
104.0430

> <Gold.Chemscore.Internal_Hbond>
0.0000

> <Gold.Chemscore.DEClash>
0.0363

> <Gold.Chemscore.DEInternal>
3.9224

> <Gold.Chemscore.Rot>
2.6543

> <Gold.Chemscore.Internal.Correction>
   9.000000E+99

> <Gold.Chemscore.Hbond.Weighted>
-2.6286

> <Gold.Chemscore.Metal.Weighted>
-0.0000

> <Gold.Chemscore.Lipo.Weighted>
-12.1730

> <Gold.Chemscore.Internal_Hbond.Weighted>
0.0000

> <Gold.Chemscore.DEClash.Weighted>
0.0363

> <Gold.Chemscore.DEInternal.Weighted>
3.9224

> <Gold.Chemscore.Rot.Weighted>
6.7950

> <Gold.Chemscore.Internal.Correction.Weighted>
   9.000000E+99

> <Gold.Protein.RotatedTorsions>
[ 6907 6896 6895 6894 ] final  147.02 input  -60.11 | X-H torsion
[ 7974 7965 7964 7962 ] final  136.38 input  175.53 | X-H torsion
[ 8008 7997 7996 7995 ] final  -15.32 input   59.86 | X-H torsion
[ 10167 10162 10161 10158 ] final -125.26 input  -65.29 | X-H torsion
[ 10718 10713 10712 10709 ] final  149.38 input   66.30 | X-H torsion
[ 10763 10752 10751 10750 ] final -111.20 input  -60.55 | X-H torsion
[ 11005 11000 10999 10996 ] final   32.72 input  -57.11 | X-H torsion

> <Gold.Protein.ActiveResidues>
 VAL166  LYS551  ARG553  GLY616  TRP617  ASP618  TYR619  PRO620  LYS621  CYS622 
 ASP623  PHE694  ASN695  SER759  ASP760  ASP761  ALA762  ILE779  LEU786  VAL792 
 PHE793  MET794  SER795  GLU796  ALA797  LYS798  CYS799  TRP800  GLU811  SER814 

> <Gold.Protein.RotatedAtoms>
  152.1603  133.4577  159.4857 H   0  0  0  0  0  0  0  0  0  0  0  0  # atno 6907 bound_to 6896
  150.6906  134.2080  159.4357 H   0  0  0  0  0  0  0  0  0  0  0  0  # atno 6908 bound_to 6896
  151.9982  134.9942  160.0615 H   0  0  0  0  0  0  0  0  0  0  0  0  # atno 6909 bound_to 6896
  144.9571  139.4753  143.5498 H   0  0  0  0  0  0  0  0  0  0  0  0  # atno 7974 bound_to 7965
  154.5140  140.2199  155.9102 H   0  0  0  0  0  0  0  0  0  0  0  0  # atno 8008 bound_to 7997
  156.1585  140.3147  155.8733 H   0  0  0  0  0  0  0  0  0  0  0  0  # atno 8009 bound_to 7997
  155.3798  140.0471  157.3034 H   0  0  0  0  0  0  0  0  0  0  0  0  # atno 8010 bound_to 7997
  139.9840  143.5712  152.2367 H   0  0  0  0  0  0  0  0  0  0  0  0  # atno 10167 bound_to 10162
  157.2968  131.0863  151.1420 H   0  0  0  0  0  0  0  0  0  0  0  0  # atno 10718 bound_to 10713
  154.8288  135.4536  154.1002 H   0  0  0  0  0  0  0  0  0  0  0  0  # atno 10763 bound_to 10752
  153.2293  135.6903  153.7914 H   0  0  0  0  0  0  0  0  0  0  0  0  # atno 10764 bound_to 10752
  153.7303  135.3328  155.3261 H   0  0  0  0  0  0  0  0  0  0  0  0  # atno 10765 bound_to 10752
  140.2705  134.3087  155.7829 H   0  0  0  0  0  0  0  0  0  0  0  0  # atno 11005 bound_to 11000
  146.3341  139.8695  142.8842 LP  0  0  0  0  0  0  0  0  0  0  0  0  # atno 17320 bound_to 7965
  145.2756  141.0122  143.3746 LP  0  0  0  0  0  0  0  0  0  0  0  0  # atno 17321 bound_to 7965
  139.6389  144.7653  151.2380 LP  0  0  0  0  0  0  0  0  0  0  0  0  # atno 17342 bound_to 10162
  140.7479  143.6351  150.8387 LP  0  0  0  0  0  0  0  0  0  0  0  0  # atno 17343 bound_to 10162
  157.2795  130.6743  149.6059 LP  0  0  0  0  0  0  0  0  0  0  0  0  # atno 17370 bound_to 10713
  155.9669  130.4454  150.5500 LP  0  0  0  0  0  0  0  0  0  0  0  0  # atno 17371 bound_to 10713
  141.2178  133.7464  156.9327 LP  0  0  0  0  0  0  0  0  0  0  0  0  # atno 17394 bound_to 11000
  140.1377  134.9314  157.2425 LP  0  0  0  0  0  0  0  0  0  0  0  0  # atno 17395 bound_to 11000

$$$$
