AV-unprocessed.smi:962|AV-procd|sdf|4275|dock6
  -GOLD-   22720 2183D 1   1.00000     0.00000
 Structure written by MMmdl.
 42 43  0  0  0  0  0  0  0  0  1 V2000
  151.8487  144.9911  160.4035 C   0  0  0  0  0  0  0  0  0  0  0  0
  151.6570  144.0436  159.2001 C   0  0  0  0  0  0  0  0  0  0  0  0
  150.1436  143.8328  158.9966 C   0  0  0  0  0  0  0  0  0  0  0  0
  152.2660  144.7227  157.9577 C   0  0  0  0  0  0  0  0  0  0  0  0
  152.3298  142.7080  159.4431 C   0  0  0  0  0  0  0  0  0  0  0  0
  153.1212  142.3368  160.5063 C   0  0  0  0  0  0  0  0  0  0  0  0
  153.6453  140.6801  160.3946 S   0  0  0  0  0  0  0  0  0  0  0  0
  152.7694  140.5400  158.8764 C   0  0  0  0  0  0  0  0  0  0  0  0
  152.6513  139.2615  158.1106 C   0  0  0  0  0  0  0  0  0  0  0  0
  152.1667  139.4451  156.6582 C   0  0  0  0  0  0  0  0  0  0  0  0
  150.7847  139.9163  156.5902 N   0  0  0  0  0  0  0  0  0  0  0  0
  150.0752  140.0991  155.4615 C   0  0  0  0  0  0  0  0  0  0  0  0
  150.4923  139.7839  154.3464 O   0  0  0  0  0  0  0  0  0  0  0  0
  148.8660  140.6677  155.6574 N   0  0  0  0  0  0  0  0  0  0  0  0
  148.1784  140.8389  156.9407 C   0  0  0  0  0  0  0  0  0  0  0  0
  147.0241  141.8035  156.6674 C   0  0  0  0  0  0  0  0  0  0  0  0
  146.7336  141.6260  155.1841 C   0  0  0  0  0  0  0  0  0  0  0  0
  148.0926  141.2777  154.5776 C   0  0  0  0  0  0  0  0  0  0  0  0
  152.1535  141.6685  158.5204 N   0  0  0  0  0  0  0  0  0  0  0  0
  151.3686  145.9548  160.2301 H   0  0  0  0  0  0  0  0  0  0  0  0
  152.9046  145.1860  160.5959 H   0  0  0  0  0  0  0  0  0  0  0  0
  151.4158  144.5747  161.3141 H   0  0  0  0  0  0  0  0  0  0  0  0
  149.6926  143.3478  159.8634 H   0  0  0  0  0  0  0  0  0  0  0  0
  149.9371  143.2060  158.1283 H   0  0  0  0  0  0  0  0  0  0  0  0
  149.6261  144.7802  158.8422 H   0  0  0  0  0  0  0  0  0  0  0  0
  151.8080  145.6949  157.7720 H   0  0  0  0  0  0  0  0  0  0  0  0
  152.1223  144.1216  157.0593 H   0  0  0  0  0  0  0  0  0  0  0  0
  153.3383  144.8813  158.0787 H   0  0  0  0  0  0  0  0  0  0  0  0
  153.4197  142.9297  161.3578 H   0  0  0  0  0  0  0  0  0  0  0  0
  153.6163  138.7538  158.1196 H   0  0  0  0  0  0  0  0  0  0  0  0
  151.9580  138.6110  158.6446 H   0  0  0  0  0  0  0  0  0  0  0  0
  152.8302  140.1380  156.1381 H   0  0  0  0  0  0  0  0  0  0  0  0
  152.2404  138.4990  156.1222 H   0  0  0  0  0  0  0  0  0  0  0  0
  150.3550  140.1886  157.4624 H   0  0  0  0  0  0  0  0  0  0  0  0
  147.7989  139.8712  157.2726 H   0  0  0  0  0  0  0  0  0  0  0  0
  148.8380  141.2326  157.7159 H   0  0  0  0  0  0  0  0  0  0  0  0
  146.1539  141.6126  157.2960 H   0  0  0  0  0  0  0  0  0  0  0  0
  147.3520  142.8271  156.8538 H   0  0  0  0  0  0  0  0  0  0  0  0
  146.0461  140.7905  155.0447 H   0  0  0  0  0  0  0  0  0  0  0  0
  146.2819  142.5093  154.7316 H   0  0  0  0  0  0  0  0  0  0  0  0
  148.6047  142.1809  154.2417 H   0  0  0  0  0  0  0  0  0  0  0  0
  147.9871  140.6094  153.7217 H   0  0  0  0  0  0  0  0  0  0  0  0
  1  2  1  0  0  0  0
  1 20  1  0  0  0  0
  1 21  1  0  0  0  0
  1 22  1  0  0  0  0
  2  3  1  0  0  0  0
  2  4  1  0  0  0  0
  2  5  1  0  0  0  0
  3 23  1  0  0  0  0
  3 24  1  0  0  0  0
  3 25  1  0  0  0  0
  4 26  1  0  0  0  0
  4 27  1  0  0  0  0
  4 28  1  0  0  0  0
  5 19  1  0  0  0  0
  5  6  2  0  0  0  0
  6  7  1  0  0  0  0
  6 29  1  0  0  0  0
  7  8  1  0  0  0  0
  8  9  1  0  0  0  0
  8 19  2  0  0  0  0
  9 10  1  0  0  0  0
  9 30  1  0  0  0  0
  9 31  1  0  0  0  0
 10 11  1  0  0  0  0
 10 32  1  0  0  0  0
 10 33  1  0  0  0  0
 11 12  1  0  0  0  0
 11 34  1  0  0  0  0
 12 13  2  0  0  0  0
 12 14  1  0  0  0  0
 14 18  1  0  0  0  0
 14 15  1  0  0  0  0
 15 16  1  0  0  0  0
 15 35  1  0  0  0  0
 15 36  1  0  0  0  0
 16 17  1  0  0  0  0
 16 37  1  0  0  0  0
 16 38  1  0  0  0  0
 17 18  1  0  0  0  0
 17 39  1  0  0  0  0
 17 40  1  0  0  0  0
 18 41  1  0  0  0  0
 18 42  1  0  0  0  0
M  END
> <s_m_source_file>
AV-unprocessed.smi

> <i_m_source_file_index>
962

> <i_lp_mmshare_version>
43012

> <i_f3d_flags>
0

> <s_epik_input>
W0NIM11DKFtDSDNdKShbQ0gzXSljMVtjSF1zYyhuMSlbQ0gyXVtDSDJdW05IXUMoPU8pTjJbQ0gyXVtDSDJdW0NIMl1bQ0gyXTI=

> <s_epik_cmdline>
J2VwaWtfcHl0aG9uJywgJy1waCcsICc3LjAnLCAnLXRuJywgJzgnLCAnLW1hJywgJzIwMCcsICctbWV0YWxfYmluZGluZycsICctaW1hZScsICc8aW5maWxlLm1hZT4nLCAnLW9tYWUnLCAnPG91dGZpbGUubWFlPic=

> <r_epik_Ionization_Penalty>
0.00160156

> <r_epik_Ionization_Penalty_Charging>
0

> <r_epik_Ionization_Penalty_Neutral>
0.00160156

> <r_epik_State_Penalty>
0.00103428

> <r_epik_Charging_Adjusted_Penalty>
0.00103428

> <i_epik_Tot_Q>
0

> <i_epik_Tot_abs_Q>
0

> <r_epik_Metal_State_Penalty>
-0

> <b_epik_Metal_Only>
0

> <s_lp_Force_Field>
OPLS_2005

> <r_lp_Energy>
25.7371

> <b_lp_Chiralities_Consistent>
1

> <s_lp_Variant>
AV-unprocessed.smi:962-1

> <Gold.Version>
5.8.1

> <Gold.Id.Protein>
6NUR|6NUR_protein|mol2

> <Gold.PLP.Fitness>
45.2529

> <Gold.PLP.PLP>
-43.1137

> <Gold.PLP.part.hbond>
-0.9744

> <Gold.PLP.part.metal>
0.0000

> <Gold.PLP.part.buried>
-5.0300

> <Gold.PLP.part.nonpolar>
-37.6143

> <Gold.PLP.part.repulsive>
0.2059

> <Gold.PLP.ligand.clash>
0.0000

> <Gold.PLP.ligand.torsion>
0.4471

> <Gold.PLP.Chemscore.Hbond>
1.0000

> <Gold.PLP.Chemscore.CHOScore>
0.0000

> <Gold.PLP.Chemscore.Metal>
0.0000

> <Gold.Chemscore.Hbonds>
donor molecule, donor type, donor heavy atom, donor atom, acceptor molecule, acceptor atom, score
      P1  H  7989  7998       L1    13  1.00

> <Gold.PLP.Chemscore.Internal.Correction>
0.0333

> <Gold.Rescore>
     Score         DG    S(hbond)    S(metal)    S(lipo)     H(rot)  DE(clash)    DE(int)     intcor
     17.73     -18.17       0.98        0.00     111.35       1.41       0.02       0.43       ----

> <Gold.Chemscore.Fitness>
17.7304

> <Gold.Chemscore.DG>
-18.1734

> <Gold.Chemscore.ZeroCoef>
-5.4800

> <Gold.Chemscore.Hbond>
0.9845

> <Gold.Chemscore.Metal>
0.0000

> <Gold.Chemscore.Lipo>
111.3452

> <Gold.Chemscore.Internal_Hbond>
0.0000

> <Gold.Chemscore.DEClash>
0.0163

> <Gold.Chemscore.DEInternal>
0.4267

> <Gold.Chemscore.Rot>
1.4149

> <Gold.Chemscore.Internal.Correction>
   9.000000E+99

> <Gold.Chemscore.Hbonds>
donor molecule, donor type, donor heavy atom, donor atom, acceptor molecule, acceptor atom, score
      P1  H  7989  7998       L1    13  0.98

> <Gold.Chemscore.Hbond.Weighted>
-3.2883

> <Gold.Chemscore.Metal.Weighted>
-0.0000

> <Gold.Chemscore.Lipo.Weighted>
-13.0274

> <Gold.Chemscore.Internal_Hbond.Weighted>
0.0000

> <Gold.Chemscore.DEClash.Weighted>
0.0163

> <Gold.Chemscore.DEInternal.Weighted>
0.4267

> <Gold.Chemscore.Rot.Weighted>
3.6222

> <Gold.Chemscore.Internal.Correction.Weighted>
   9.000000E+99

> <Gold.Protein.RotatedTorsions>
[ 6907 6896 6895 6894 ] final   12.42 input  -60.11 | X-H torsion
[ 7974 7965 7964 7962 ] final  139.86 input  175.53 | X-H torsion
[ 8008 7997 7996 7995 ] final -149.40 input   59.86 | X-H torsion
[ 10167 10162 10161 10158 ] final    1.46 input  -65.29 | X-H torsion
[ 10718 10713 10712 10709 ] final  126.55 input   66.30 | X-H torsion
[ 10763 10752 10751 10750 ] final  105.64 input  -60.55 | X-H torsion
[ 11005 11000 10999 10996 ] final -138.53 input  -57.11 | X-H torsion

> <Gold.Protein.ActiveResidues>
 VAL166  LYS551  ARG553  GLY616  TRP617  ASP618  TYR619  PRO620  LYS621  CYS622 
 ASP623  PHE694  ASN695  SER759  ASP760  ASP761  ALA762  ILE779  LEU786  VAL792 
 PHE793  MET794  SER795  GLU796  ALA797  LYS798  CYS799  TRP800  GLU811  SER814 

> <Gold.Protein.RotatedAtoms>
  151.7701  135.0788  160.0358 H   0  0  0  0  0  0  0  0  0  0  0  0  # atno 6907 bound_to 6896
  152.3294  133.5937  159.5808 H   0  0  0  0  0  0  0  0  0  0  0  0  # atno 6908 bound_to 6896
  150.7414  133.9807  159.3617 H   0  0  0  0  0  0  0  0  0  0  0  0  # atno 6909 bound_to 6896
  144.9240  139.5132  143.5650 H   0  0  0  0  0  0  0  0  0  0  0  0  # atno 7974 bound_to 7965
  155.6069  140.0668  157.2717 H   0  0  0  0  0  0  0  0  0  0  0  0  # atno 8008 bound_to 7997
  154.4263  140.1808  156.1279 H   0  0  0  0  0  0  0  0  0  0  0  0  # atno 8009 bound_to 7997
  156.0115  140.3326  155.6949 H   0  0  0  0  0  0  0  0  0  0  0  0  # atno 8010 bound_to 7997
  140.6682  143.7122  150.7868 H   0  0  0  0  0  0  0  0  0  0  0  0  # atno 10167 bound_to 10162
  157.5409  131.1097  150.8860 H   0  0  0  0  0  0  0  0  0  0  0  0  # atno 10718 bound_to 10713
  153.3822  135.3903  155.1864 H   0  0  0  0  0  0  0  0  0  0  0  0  # atno 10763 bound_to 10752
  154.8709  135.3728  154.4843 H   0  0  0  0  0  0  0  0  0  0  0  0  # atno 10764 bound_to 10752
  153.5321  135.7085  153.5739 H   0  0  0  0  0  0  0  0  0  0  0  0  # atno 10765 bound_to 10752
  140.8607  134.2173  157.4709 H   0  0  0  0  0  0  0  0  0  0  0  0  # atno 11005 bound_to 11000
  146.3217  139.8140  142.8940 LP  0  0  0  0  0  0  0  0  0  0  0  0  # atno 17320 bound_to 7965
  145.3250  141.0253  143.3478 LP  0  0  0  0  0  0  0  0  0  0  0  0  # atno 17321 bound_to 7965
  140.0803  143.4975  152.2533 LP  0  0  0  0  0  0  0  0  0  0  0  0  # atno 17342 bound_to 10162
  139.5939  144.7560  151.3334 LP  0  0  0  0  0  0  0  0  0  0  0  0  # atno 17343 bound_to 10162
  156.9413  130.5385  149.5280 LP  0  0  0  0  0  0  0  0  0  0  0  0  # atno 17370 bound_to 10713
  156.0496  130.5567  150.8959 LP  0  0  0  0  0  0  0  0  0  0  0  0  # atno 17371 bound_to 10713
  139.8707  134.9728  156.4785 LP  0  0  0  0  0  0  0  0  0  0  0  0  # atno 17394 bound_to 11000
  140.8686  133.8005  155.9341 LP  0  0  0  0  0  0  0  0  0  0  0  0  # atno 17395 bound_to 11000

$$$$
