AV-unprocessed.smi:942|AV-procd|sdf|4227|dock3
  -GOLD-   22720 2133D 1   1.00000     0.00000
 Structure written by MMmdl.
 42 44  0  0  0  0  0  0  0  0  1 V2000
  149.0387  141.5005  157.2850 O   0  0  0  0  0  0  0  0  0  0  0  0
  150.1251  141.6890  156.7368 C   0  0  0  0  0  0  0  0  0  0  0  0
  150.3536  141.4175  155.4437 N   0  0  0  0  0  0  0  0  0  0  0  0
  149.3565  140.9326  154.4889 C   0  0  2  0  0  0  0  0  0  0  0  0
  148.0435  141.7353  154.6153 C   0  0  0  0  0  0  0  0  0  0  0  0
  146.9718  140.7554  155.1134 C   0  0  0  0  0  0  0  0  0  0  0  0
  147.7440  139.5682  155.6857 C   0  0  0  0  0  0  0  0  0  0  0  0
  148.9651  139.4644  154.7667 C   0  0  2  0  0  0  0  0  0  0  0  0
  150.0525  138.6230  155.2597 N   0  0  0  0  0  0  0  0  0  0  0  0
  150.6573  138.6303  156.5134 C   0  0  0  0  0  0  0  0  0  0  0  0
  151.6215  137.6482  156.4939 C   0  0  0  0  0  0  0  0  0  0  0  0
  151.6199  137.0140  155.2550 N   0  0  0  0  0  0  0  0  0  0  0  0
  150.6610  137.6372  154.5835 C   0  0  0  0  0  0  0  0  0  0  0  0
  151.3033  142.2742  157.5258 C   0  0  0  0  0  0  0  0  0  0  0  0
  151.6216  141.4212  158.7721 C   0  0  0  0  0  0  0  0  0  0  0  0
  152.7938  142.0160  159.5701 C   0  0  0  0  0  0  0  0  0  0  0  0
  152.5169  143.4757  159.9639 C   0  0  0  0  0  0  0  0  0  0  0  0
  152.1892  144.3321  158.7306 C   0  0  0  0  0  0  0  0  0  0  0  0
  151.0176  143.7349  157.9342 C   0  0  0  0  0  0  0  0  0  0  0  0
  151.2775  141.6009  155.0797 H   0  0  0  0  0  0  0  0  0  0  0  0
  149.7588  141.0103  153.4770 H   0  0  0  0  0  0  0  0  0  0  0  0
  148.1496  142.5644  155.3167 H   0  0  0  0  0  0  0  0  0  0  0  0
  147.7521  142.1685  153.6580 H   0  0  0  0  0  0  0  0  0  0  0  0
  146.3013  141.2073  155.8450 H   0  0  0  0  0  0  0  0  0  0  0  0
  146.3637  140.4217  154.2716 H   0  0  0  0  0  0  0  0  0  0  0  0
  148.0481  139.7991  156.7075 H   0  0  0  0  0  0  0  0  0  0  0  0
  147.1503  138.6538  155.7062 H   0  0  0  0  0  0  0  0  0  0  0  0
  148.6290  139.0239  153.8262 H   0  0  0  0  0  0  0  0  0  0  0  0
  150.3698  139.3128  157.2991 H   0  0  0  0  0  0  0  0  0  0  0  0
  152.3070  137.3477  157.2726 H   0  0  0  0  0  0  0  0  0  0  0  0
  150.3999  137.3768  153.5682 H   0  0  0  0  0  0  0  0  0  0  0  0
  152.1836  142.2697  156.8800 H   0  0  0  0  0  0  0  0  0  0  0  0
  150.7448  141.3557  159.4184 H   0  0  0  0  0  0  0  0  0  0  0  0
  151.8639  140.3995  158.4765 H   0  0  0  0  0  0  0  0  0  0  0  0
  152.9769  141.4184  160.4635 H   0  0  0  0  0  0  0  0  0  0  0  0
  153.7048  141.9659  158.9726 H   0  0  0  0  0  0  0  0  0  0  0  0
  151.6826  143.5128  160.6656 H   0  0  0  0  0  0  0  0  0  0  0  0
  153.3796  143.8902  160.4862 H   0  0  0  0  0  0  0  0  0  0  0  0
  151.9483  145.3499  159.0388 H   0  0  0  0  0  0  0  0  0  0  0  0
  153.0685  144.4038  158.0894 H   0  0  0  0  0  0  0  0  0  0  0  0
  150.8321  144.3435  157.0479 H   0  0  0  0  0  0  0  0  0  0  0  0
  150.1106  143.7860  158.5387 H   0  0  0  0  0  0  0  0  0  0  0  0
  1  2  2  0  0  0  0
  2  3  1  0  0  0  0
  2 14  1  0  0  0  0
  3  4  1  0  0  0  0
  3 20  1  0  0  0  0
  4  8  1  0  0  0  0
  4  5  1  0  0  0  0
  4 21  1  0  0  0  0
  5  6  1  0  0  0  0
  5 22  1  0  0  0  0
  5 23  1  0  0  0  0
  6  7  1  0  0  0  0
  6 24  1  0  0  0  0
  6 25  1  0  0  0  0
  7  8  1  0  0  0  0
  7 26  1  0  0  0  0
  7 27  1  0  0  0  0
  8  9  1  0  0  0  0
  8 28  1  0  0  0  0
  9 13  1  0  0  0  0
  9 10  1  0  0  0  0
 10 11  2  0  0  0  0
 10 29  1  0  0  0  0
 11 12  1  0  0  0  0
 11 30  1  0  0  0  0
 12 13  2  0  0  0  0
 13 31  1  0  0  0  0
 14 19  1  0  0  0  0
 14 15  1  0  0  0  0
 14 32  1  0  0  0  0
 15 16  1  0  0  0  0
 15 33  1  0  0  0  0
 15 34  1  0  0  0  0
 16 17  1  0  0  0  0
 16 35  1  0  0  0  0
 16 36  1  0  0  0  0
 17 18  1  0  0  0  0
 17 37  1  0  0  0  0
 17 38  1  0  0  0  0
 18 19  1  0  0  0  0
 18 39  1  0  0  0  0
 18 40  1  0  0  0  0
 19 41  1  0  0  0  0
 19 42  1  0  0  0  0
M  END
> <s_m_source_file>
AV-unprocessed.smi

> <i_m_source_file_index>
942

> <i_lp_mmshare_version>
43012

> <i_f3d_flags>
0

> <s_epik_input>
W0NIMl0xW0NIMl1bQ0gyXVtDSDJdW0NIMl1bQ0hdMUMoPU8pW05IXVtDQEBIXTJbQ0gyXVtDSDJdW0NIMl1bQ0BIXTJuM1tjSF1bY0hdbltjSF0z

> <s_epik_cmdline>
J2VwaWtfcHl0aG9uJywgJy1waCcsICc3LjAnLCAnLXRuJywgJzgnLCAnLW1hJywgJzIwMCcsICctbWV0YWxfYmluZGluZycsICctaW1hZScsICc8aW5maWxlLm1hZT4nLCAnLW9tYWUnLCAnPG91dGZpbGUubWFlPic=

> <r_lp_tautomer_probability>
1

> <r_epik_Ionization_Penalty>
0.778458

> <r_epik_Ionization_Penalty_Charging>
0.778458

> <r_epik_Ionization_Penalty_Neutral>
2.79355e-08

> <r_epik_State_Penalty>
0.807804

> <r_epik_Charging_Adjusted_Penalty>
1.58626

> <i_epik_Tot_Q>
0

> <i_epik_Tot_abs_Q>
0

> <r_epik_Metal_State_Penalty>
0.343007

> <b_epik_Metal_Only>
0

> <s_lp_Force_Field>
OPLS_2005

> <r_lp_Energy>
33.2669

> <b_lp_Chiralities_Consistent>
1

> <s_lp_Variant>
AV-unprocessed.smi:942-7

> <Gold.Version>
5.8.1

> <Gold.Id.Protein>
6NUR|6NUR_protein|mol2

> <Gold.PLP.Fitness>
41.2369

> <Gold.PLP.PLP>
-36.2629

> <Gold.PLP.part.hbond>
-1.0000

> <Gold.PLP.part.metal>
0.0000

> <Gold.PLP.part.buried>
-3.0715

> <Gold.PLP.part.nonpolar>
-33.5748

> <Gold.PLP.part.repulsive>
0.9450

> <Gold.PLP.ligand.clash>
0.0000

> <Gold.PLP.ligand.torsion>
0.4297

> <Gold.PLP.Chemscore.Hbond>
0.8640

> <Gold.PLP.Chemscore.CHOScore>
1.0731

> <Gold.PLP.Chemscore.Metal>
0.0000

> <Gold.Chemscore.Hbonds>
donor molecule, donor type, donor heavy atom, donor atom, acceptor molecule, acceptor atom, score
      P1  H 10752 10763       L1    12  0.93
      L1  C    13    31       P1  7948  0.78
      L1  C    13    31       P1  7949  0.35

> <Gold.PLP.Chemscore.Internal.Correction>
0.0222

> <Gold.Rescore>
     Score         DG    S(hbond)    S(metal)    S(lipo)     H(rot)  DE(clash)    DE(int)     intcor
     12.63     -15.95       0.87        0.00      96.22       1.44       0.01       3.30       ----

> <Gold.Chemscore.Fitness>
12.6312

> <Gold.Chemscore.DG>
-15.9471

> <Gold.Chemscore.ZeroCoef>
-5.4800

> <Gold.Chemscore.Hbond>
0.8666

> <Gold.Chemscore.Metal>
0.0000

> <Gold.Chemscore.Lipo>
96.2200

> <Gold.Chemscore.Internal_Hbond>
0.0000

> <Gold.Chemscore.DEClash>
0.0141

> <Gold.Chemscore.DEInternal>
3.3018

> <Gold.Chemscore.Rot>
1.4395

> <Gold.Chemscore.Internal.Correction>
   9.000000E+99

> <Gold.Chemscore.Hbonds>
donor molecule, donor type, donor heavy atom, donor atom, acceptor molecule, acceptor atom, score
      P1  H 10752 10763       L1    12  0.86

> <Gold.Chemscore.Hbond.Weighted>
-2.8946

> <Gold.Chemscore.Metal.Weighted>
-0.0000

> <Gold.Chemscore.Lipo.Weighted>
-11.2577

> <Gold.Chemscore.Internal_Hbond.Weighted>
0.0000

> <Gold.Chemscore.DEClash.Weighted>
0.0141

> <Gold.Chemscore.DEInternal.Weighted>
3.3018

> <Gold.Chemscore.Rot.Weighted>
3.6852

> <Gold.Chemscore.Internal.Correction.Weighted>
   9.000000E+99

> <Gold.Protein.RotatedTorsions>
[ 6907 6896 6895 6894 ] final  108.38 input  -60.11 | X-H torsion
[ 7974 7965 7964 7962 ] final -161.51 input  175.53 | X-H torsion
[ 8008 7997 7996 7995 ] final  -46.66 input   59.86 | X-H torsion
[ 10167 10162 10161 10158 ] final   -7.30 input  -65.29 | X-H torsion
[ 10718 10713 10712 10709 ] final  -73.71 input   66.30 | X-H torsion
[ 10763 10752 10751 10750 ] final   51.85 input  -60.55 | X-H torsion
[ 11005 11000 10999 10996 ] final  131.04 input  -57.11 | X-H torsion

> <Gold.Protein.ActiveResidues>
 VAL166  LYS551  ARG553  GLY616  TRP617  ASP618  TYR619  PRO620  LYS621  CYS622 
 ASP623  PHE694  ASN695  SER759  ASP760  ASP761  ALA762  ILE779  LEU786  VAL792 
 PHE793  MET794  SER795  GLU796  ALA797  LYS798  CYS799  TRP800  GLU811  SER814 

> <Gold.Protein.RotatedAtoms>
  152.5115  133.9098  159.7481 H   0  0  0  0  0  0  0  0  0  0  0  0  # atno 6907 bound_to 6896
  150.9494  133.6558  159.2782 H   0  0  0  0  0  0  0  0  0  0  0  0  # atno 6908 bound_to 6896
  151.3842  135.0950  159.9558 H   0  0  0  0  0  0  0  0  0  0  0  0  # atno 6909 bound_to 6896
  144.7388  140.3386  143.6139 H   0  0  0  0  0  0  0  0  0  0  0  0  # atno 7974 bound_to 7965
  154.4009  140.1366  156.4047 H   0  0  0  0  0  0  0  0  0  0  0  0  # atno 8008 bound_to 7997
  155.7791  140.3482  155.5267 H   0  0  0  0  0  0  0  0  0  0  0  0  # atno 8009 bound_to 7997
  155.8692  140.0969  157.1552 H   0  0  0  0  0  0  0  0  0  0  0  0  # atno 8010 bound_to 7997
  140.7024  143.6096  150.8717 H   0  0  0  0  0  0  0  0  0  0  0  0  # atno 10167 bound_to 10162
  156.0270  130.4400  150.2783 H   0  0  0  0  0  0  0  0  0  0  0  0  # atno 10718 bound_to 10713
  152.9786  135.5832  154.4482 H   0  0  0  0  0  0  0  0  0  0  0  0  # atno 10763 bound_to 10752
  154.4075  135.2769  155.2060 H   0  0  0  0  0  0  0  0  0  0  0  0  # atno 10764 bound_to 10752
  154.3864  135.6135  153.5873 H   0  0  0  0  0  0  0  0  0  0  0  0  # atno 10765 bound_to 10752
  139.9707  134.9578  156.9380 H   0  0  0  0  0  0  0  0  0  0  0  0  # atno 11005 bound_to 11000
  145.7397  139.1760  143.2383 LP  0  0  0  0  0  0  0  0  0  0  0  0  # atno 17320 bound_to 7965
  146.1143  140.7389  142.9488 LP  0  0  0  0  0  0  0  0  0  0  0  0  # atno 17321 bound_to 7965
  139.9819  143.5942  152.2940 LP  0  0  0  0  0  0  0  0  0  0  0  0  # atno 17342 bound_to 10162
  139.6566  144.7662  151.2044 LP  0  0  0  0  0  0  0  0  0  0  0  0  # atno 17343 bound_to 10162
  157.0887  131.0163  151.3130 LP  0  0  0  0  0  0  0  0  0  0  0  0  # atno 17370 bound_to 10713
  157.4871  130.7800  149.7471 LP  0  0  0  0  0  0  0  0  0  0  0  0  # atno 17371 bound_to 10713
  140.5300  134.0822  155.7313 LP  0  0  0  0  0  0  0  0  0  0  0  0  # atno 17394 bound_to 11000
  141.1386  133.9178  157.2377 LP  0  0  0  0  0  0  0  0  0  0  0  0  # atno 17395 bound_to 11000

$$$$
