AV-unprocessed.smi:982|AV-procd|sdf|4314|dock3
  -GOLD-   22720 2223D 1   1.00000     0.00000
 Structure written by MMmdl.
 30 31  0  0  0  0  0  0  0  0  2 V2000
  149.6896  138.3904  153.4318 N   0  3  0  0  0  0  0  0  0  0  0  0
  150.9983  138.3752  154.1062 C   0  0  0  0  0  0  0  0  0  0  0  0
  151.0680  139.4431  155.1793 C   0  0  0  0  0  0  0  0  0  0  0  0
  150.1046  140.4703  155.2462 C   0  0  0  0  0  0  0  0  0  0  0  0
  150.2157  141.4410  156.2601 C   0  0  0  0  0  0  0  0  0  0  0  0
  151.2872  141.3505  157.1734 C   0  0  0  0  0  0  0  0  0  0  0  0
  151.4037  142.3166  158.1827 N   0  0  0  0  0  0  0  0  0  0  0  0
  152.4958  142.0554  159.1123 C   0  0  0  0  0  0  0  0  0  0  0  0
  152.4751  143.0875  160.2533 C   0  0  0  0  0  0  0  0  0  0  0  0
  152.5287  144.4032  159.7090 O   0  0  0  0  0  0  0  0  0  0  0  0
  151.4179  144.6765  158.8595 C   0  0  0  0  0  0  0  0  0  0  0  0
  151.4141  143.6861  157.6822 C   0  0  0  0  0  0  0  0  0  0  0  0
  152.2136  140.3633  157.1144 N   0  0  0  0  0  0  0  0  0  0  0  0
  152.0998  139.4351  156.1413 C   0  0  0  0  0  0  0  0  0  0  0  0
  149.5431  137.5100  152.9588 H   0  0  0  0  0  0  0  0  0  0  0  0
  149.6671  139.1419  152.7573 H   0  0  0  0  0  0  0  0  0  0  0  0
  151.1665  137.3916  154.5461 H   0  0  0  0  0  0  0  0  0  0  0  0
  151.7852  138.5381  153.3692 H   0  0  0  0  0  0  0  0  0  0  0  0
  149.2939  140.5171  154.5337 H   0  0  0  0  0  0  0  0  0  0  0  0
  149.4916  142.2394  156.3347 H   0  0  0  0  0  0  0  0  0  0  0  0
  152.4043  141.0467  159.5174 H   0  0  0  0  0  0  0  0  0  0  0  0
  153.4496  142.1071  158.5854 H   0  0  0  0  0  0  0  0  0  0  0  0
  151.5799  142.9726  160.8668 H   0  0  0  0  0  0  0  0  0  0  0  0
  153.3326  142.9400  160.9097 H   0  0  0  0  0  0  0  0  0  0  0  0
  150.4878  144.6118  159.4270 H   0  0  0  0  0  0  0  0  0  0  0  0
  151.4961  145.6992  158.4912 H   0  0  0  0  0  0  0  0  0  0  0  0
  152.2978  143.8470  157.0631 H   0  0  0  0  0  0  0  0  0  0  0  0
  150.5413  143.8568  157.0509 H   0  0  0  0  0  0  0  0  0  0  0  0
  152.8583  138.6662  156.1266 H   0  0  0  0  0  0  0  0  0  0  0  0
  148.9594  138.5310  154.1152 H   0  0  0  0  0  0  0  0  0  0  0  0
  1  2  1  0  0  0  0
  1 15  1  0  0  0  0
  1 16  1  0  0  0  0
  1 30  1  0  0  0  0
  2  3  1  0  0  0  0
  2 17  1  0  0  0  0
  2 18  1  0  0  0  0
  3 14  1  0  0  0  0
  3  4  2  0  0  0  0
  4  5  1  0  0  0  0
  4 19  1  0  0  0  0
  5  6  2  0  0  0  0
  5 20  1  0  0  0  0
  6  7  1  0  0  0  0
  6 13  1  0  0  0  0
  7 12  1  0  0  0  0
  7  8  1  0  0  0  0
  8  9  1  0  0  0  0
  8 21  1  0  0  0  0
  8 22  1  0  0  0  0
  9 10  1  0  0  0  0
  9 23  1  0  0  0  0
  9 24  1  0  0  0  0
 10 11  1  0  0  0  0
 11 12  1  0  0  0  0
 11 25  1  0  0  0  0
 11 26  1  0  0  0  0
 12 27  1  0  0  0  0
 12 28  1  0  0  0  0
 13 14  2  0  0  0  0
 14 29  1  0  0  0  0
M  CHG  1   1   1
M  END
> <s_m_source_file>
AV-unprocessed.smi

> <i_m_source_file_index>
982

> <i_lp_mmshare_version>
43012

> <i_f3d_flags>
0

> <s_epik_input>
W05IMl1bQ0gyXWMxW2NIXVtjSF1jKG5bY0hdMSlOMltDSDJdW0NIMl1PW0NIMl1bQ0gyXTI=

> <s_epik_cmdline>
J2VwaWtfcHl0aG9uJywgJy1waCcsICc3LjAnLCAnLXRuJywgJzgnLCAnLW1hJywgJzIwMCcsICctbWV0YWxfYmluZGluZycsICctaW1hZScsICc8aW5maWxlLm1hZT4nLCAnLW9tYWUnLCAnPG91dGZpbGUubWFlPic=

> <r_lp_tautomer_probability>
1

> <r_epik_Ionization_Penalty>
0.0609618

> <r_epik_Ionization_Penalty_Charging>
0.0601937

> <r_epik_Ionization_Penalty_Neutral>
0.000768071

> <r_epik_State_Penalty>
0.0525568

> <r_epik_Charging_Adjusted_Penalty>
0.112751

> <i_epik_Tot_Q>
1

> <i_epik_Tot_abs_Q>
1

> <r_epik_Metal_State_Penalty>
0.0526295

> <b_epik_Metal_Only>
0

> <s_lp_Force_Field>
OPLS_2005

> <r_lp_Energy>
17.8415

> <b_lp_Chiralities_Consistent>
1

> <s_lp_Variant>
AV-unprocessed.smi:982-1

> <Gold.Version>
5.8.1

> <Gold.Id.Protein>
6NUR|6NUR_protein|mol2

> <Gold.PLP.Fitness>
41.6524

> <Gold.PLP.PLP>
-32.7296

> <Gold.PLP.part.hbond>
-2.6804

> <Gold.PLP.part.metal>
0.0000

> <Gold.PLP.part.buried>
-3.6624

> <Gold.PLP.part.nonpolar>
-27.0406

> <Gold.PLP.part.repulsive>
0.1376

> <Gold.PLP.ligand.clash>
0.0000

> <Gold.PLP.ligand.torsion>
0.2114

> <Gold.PLP.Chemscore.Hbond>
3.0811

> <Gold.PLP.Chemscore.CHOScore>
0.0000

> <Gold.PLP.Chemscore.Metal>
0.0000

> <Gold.Chemscore.Hbonds>
donor molecule, donor type, donor heavy atom, donor atom, acceptor molecule, acceptor atom, score
      L1  H     1    15       P1  7948  2.00
      L1  H     1    16       P1  7957  1.00
      P1  H  7997  8009       L1    13  0.08

> <Gold.PLP.Chemscore.Internal.Correction>
0.1023

> <Gold.Rescore>
     Score         DG    S(hbond)    S(metal)    S(lipo)     H(rot)  DE(clash)    DE(int)     intcor
     18.31     -18.60       1.99        0.00      84.25       1.32       0.03       0.26       ----

> <Gold.Chemscore.Fitness>
18.3064

> <Gold.Chemscore.DG>
-18.6030

> <Gold.Chemscore.ZeroCoef>
-5.4800

> <Gold.Chemscore.Hbond>
1.9862

> <Gold.Chemscore.Metal>
0.0000

> <Gold.Chemscore.Lipo>
84.2536

> <Gold.Chemscore.Internal_Hbond>
0.0000

> <Gold.Chemscore.DEClash>
0.0329

> <Gold.Chemscore.DEInternal>
0.2638

> <Gold.Chemscore.Rot>
1.3158

> <Gold.Chemscore.Internal.Correction>
   9.000000E+99

> <Gold.Chemscore.Hbonds>
donor molecule, donor type, donor heavy atom, donor atom, acceptor molecule, acceptor atom, score
      L1  H     1    15       P1  7948  0.78
      L1  H     1    16       P1  7957  0.96

> <Gold.Chemscore.Hbond.Weighted>
-6.6338

> <Gold.Chemscore.Metal.Weighted>
-0.0000

> <Gold.Chemscore.Lipo.Weighted>
-9.8577

> <Gold.Chemscore.Internal_Hbond.Weighted>
0.0000

> <Gold.Chemscore.DEClash.Weighted>
0.0329

> <Gold.Chemscore.DEInternal.Weighted>
0.2638

> <Gold.Chemscore.Rot.Weighted>
3.3684

> <Gold.Chemscore.Internal.Correction.Weighted>
   9.000000E+99

> <Gold.Protein.RotatedTorsions>
[ 6907 6896 6895 6894 ] final   72.24 input  -60.11 | X-H torsion
[ 7974 7965 7964 7962 ] final   68.56 input  175.53 | X-H torsion
[ 8008 7997 7996 7995 ] final  167.02 input   59.86 | X-H torsion
[ 10167 10162 10161 10158 ] final -147.50 input  -65.29 | X-H torsion
[ 10718 10713 10712 10709 ] final   43.38 input   66.30 | X-H torsion
[ 10763 10752 10751 10750 ] final  -93.14 input  -60.55 | X-H torsion
[ 11005 11000 10999 10996 ] final -161.00 input  -57.11 | X-H torsion

> <Gold.Protein.ActiveResidues>
 VAL166  LYS551  ARG553  GLY616  TRP617  ASP618  TYR619  PRO620  LYS621  CYS622 
 ASP623  PHE694  ASN695  SER759  ASP760  ASP761  ALA762  ILE779  LEU786  VAL792 
 PHE793  MET794  SER795  GLU796  ALA797  LYS798  CYS799  TRP800  GLU811  SER814 

> <Gold.Protein.RotatedAtoms>
  152.4857  134.4600  159.9601 H   0  0  0  0  0  0  0  0  0  0  0  0  # atno 6907 bound_to 6896
  151.4597  133.3590  159.2815 H   0  0  0  0  0  0  0  0  0  0  0  0  # atno 6908 bound_to 6896
  150.8965  134.8398  159.7390 H   0  0  0  0  0  0  0  0  0  0  0  0  # atno 6909 bound_to 6896
  145.8011  139.2983  143.1154 H   0  0  0  0  0  0  0  0  0  0  0  0  # atno 7974 bound_to 7965
  156.1669  140.1628  156.8515 H   0  0  0  0  0  0  0  0  0  0  0  0  # atno 8008 bound_to 7997
  154.5217  140.0777  156.8219 H   0  0  0  0  0  0  0  0  0  0  0  0  # atno 8009 bound_to 7997
  155.3592  140.3394  155.4243 H   0  0  0  0  0  0  0  0  0  0  0  0  # atno 8010 bound_to 7997
  139.7616  143.8368  152.2608 H   0  0  0  0  0  0  0  0  0  0  0  0  # atno 10167 bound_to 10162
  157.4153  130.7938  149.7466 H   0  0  0  0  0  0  0  0  0  0  0  0  # atno 10718 bound_to 10713
  154.6930  135.5205  153.8419 H   0  0  0  0  0  0  0  0  0  0  0  0  # atno 10763 bound_to 10752
  153.0646  135.6580  154.0393 H   0  0  0  0  0  0  0  0  0  0  0  0  # atno 10764 bound_to 10752
  154.0264  135.2989  155.3354 H   0  0  0  0  0  0  0  0  0  0  0  0  # atno 10765 bound_to 10752
  140.6252  134.4709  157.5226 H   0  0  0  0  0  0  0  0  0  0  0  0  # atno 11005 bound_to 11000
  145.9877  140.8629  143.0082 LP  0  0  0  0  0  0  0  0  0  0  0  0  # atno 17320 bound_to 7965
  144.6768  140.2170  143.7370 LP  0  0  0  0  0  0  0  0  0  0  0  0  # atno 17321 bound_to 7965
  139.8376  144.7225  150.9371 LP  0  0  0  0  0  0  0  0  0  0  0  0  # atno 17342 bound_to 10162
  140.7807  143.4012  151.1145 LP  0  0  0  0  0  0  0  0  0  0  0  0  # atno 17343 bound_to 10162
  155.9863  130.3976  150.3219 LP  0  0  0  0  0  0  0  0  0  0  0  0  # atno 17370 bound_to 10713
  157.1361  131.0284  151.2948 LP  0  0  0  0  0  0  0  0  0  0  0  0  # atno 17371 bound_to 10713
  139.9137  134.8290  156.1438 LP  0  0  0  0  0  0  0  0  0  0  0  0  # atno 17394 bound_to 11000
  141.0714  133.6795  156.2148 LP  0  0  0  0  0  0  0  0  0  0  0  0  # atno 17395 bound_to 11000

$$$$
