AV-unprocessed.smi:2246|AV-procd|sdf|9082|dock1
  -GOLD-   2272012283D 1   1.00000     0.00000
 Structure written by MMmdl.
 29 30  0  0  0  0  0  0  0  0  1 V2000
  153.2176  139.8815  157.8803 O   0  0  0  0  0  0  0  0  0  0  0  0
  152.2286  140.4929  157.4774 C   0  0  0  0  0  0  0  0  0  0  0  0
  151.7368  140.3995  156.0328 C   0  0  1  0  0  0  0  0  0  0  0  0
  151.2970  139.0157  155.7335 N   0  0  0  0  0  0  0  0  0  0  0  0
  151.7338  137.9020  156.4415 C   0  0  0  0  0  0  0  0  0  0  0  0
  151.3755  136.6324  156.1334 C   0  0  0  0  0  0  0  0  0  0  0  0
  151.9650  135.3042  157.0670 Cl  0  0  0  0  0  0  0  0  0  0  0  0
  150.4915  136.3767  154.9982 C   0  0  0  0  0  0  0  0  0  0  0  0
  150.0974  135.2697  154.6367 O   0  0  0  0  0  0  0  0  0  0  0  0
  150.0972  137.5193  154.2972 N   0  0  0  0  0  0  0  0  0  0  0  0
  150.4679  138.8293  154.6018 C   0  0  0  0  0  0  0  0  0  0  0  0
  150.0705  139.7521  153.8911 O   0  0  0  0  0  0  0  0  0  0  0  0
  150.5717  141.4151  156.0240 C   0  0  0  0  0  0  0  0  0  0  0  0
  150.3241  141.8270  157.4802 C   0  0  0  0  0  0  0  0  0  0  0  0
  151.4656  141.3111  158.2114 N   0  0  0  0  0  0  0  0  0  0  0  0
  151.6431  141.6238  159.6283 C   0  0  0  0  0  0  0  0  0  0  0  0
  152.9419  142.4044  159.8986 C   0  0  0  0  0  0  0  0  0  0  0  0
  153.9806  141.5839  159.7477 F   0  0  0  0  0  0  0  0  0  0  0  0
  153.0795  143.4213  159.0483 F   0  0  0  0  0  0  0  0  0  0  0  0
  152.9485  142.8728  161.1466 F   0  0  0  0  0  0  0  0  0  0  0  0
  149.4978  137.3842  153.4959 H   0  0  0  0  0  0  0  0  0  0  0  0
  152.5173  140.7710  155.3663 H   0  0  0  0  0  0  0  0  0  0  0  0
  152.4006  138.0402  157.2795 H   0  0  0  0  0  0  0  0  0  0  0  0
  150.8758  142.2963  155.4573 H   0  0  0  0  0  0  0  0  0  0  0  0
  149.6670  141.0468  155.5391 H   0  0  0  0  0  0  0  0  0  0  0  0
  150.2409  142.9095  157.5856 H   0  0  0  0  0  0  0  0  0  0  0  0
  149.4100  141.3743  157.8667 H   0  0  0  0  0  0  0  0  0  0  0  0
  150.7879  142.2067  159.9728 H   0  0  0  0  0  0  0  0  0  0  0  0
  151.6337  140.7009  160.2105 H   0  0  0  0  0  0  0  0  0  0  0  0
  1  2  2  0  0  0  0
  2 15  1  0  0  0  0
  2  3  1  0  0  0  0
  3  4  1  0  0  0  0
  3 13  1  0  0  0  0
  3 22  1  0  0  0  0
  4 11  1  0  0  0  0
  4  5  1  0  0  0  0
  5  6  2  0  0  0  0
  5 23  1  0  0  0  0
  6  7  1  0  0  0  0
  6  8  1  0  0  0  0
  8  9  2  0  0  0  0
  8 10  1  0  0  0  0
 10 21  1  0  0  0  0
 10 11  1  0  0  0  0
 11 12  2  0  0  0  0
 13 14  1  0  0  0  0
 13 24  1  0  0  0  0
 13 25  1  0  0  0  0
 14 15  1  0  0  0  0
 14 26  1  0  0  0  0
 14 27  1  0  0  0  0
 15 16  1  0  0  0  0
 16 17  1  0  0  0  0
 16 28  1  0  0  0  0
 16 29  1  0  0  0  0
 17 18  1  0  0  0  0
 17 19  1  0  0  0  0
 17 20  1  0  0  0  0
M  END
> <s_m_source_file>
AV-unprocessed.smi

> <i_m_source_file_index>
2246

> <i_lp_mmshare_version>
43012

> <i_f3d_flags>
0

> <s_epik_input>
RkMoRikoRilbQ0gyXU4xW0NIMl1bQ0gyXVtDQEBIXShDMT1PKW4yW2NIXWMoQ2wpYyg9TylbbkhdYzI9Tw==

> <s_epik_cmdline>
J2VwaWtfcHl0aG9uJywgJy1waCcsICc3LjAnLCAnLXRuJywgJzgnLCAnLW1hJywgJzIwMCcsICctbWV0YWxfYmluZGluZycsICctaW1hZScsICc8aW5maWxlLm1hZT4nLCAnLW9tYWUnLCAnPG91dGZpbGUubWFlPic=

> <r_lp_tautomer_probability>
0.999537

> <r_epik_Ionization_Penalty>
0.0656354

> <r_epik_Ionization_Penalty_Charging>
0.0656354

> <r_epik_Ionization_Penalty_Neutral>
1.30579e-10

> <r_epik_State_Penalty>
0.0572525

> <r_epik_Charging_Adjusted_Penalty>
0.122888

> <i_epik_Tot_Q>
0

> <i_epik_Tot_abs_Q>
0

> <r_epik_Metal_State_Penalty>
2.74286

> <b_epik_Metal_Only>
0

> <s_lp_Force_Field>
OPLS_2005

> <r_lp_Energy>
21.6737

> <b_lp_Chiralities_Consistent>
1

> <s_lp_Variant>
AV-unprocessed.smi:2246-1

> <Gold.Version>
5.8.1

> <Gold.Id.Protein>
6NUR|6NUR_protein|mol2

> <Gold.PLP.Fitness>
43.1745

> <Gold.PLP.PLP>
-35.3683

> <Gold.PLP.part.hbond>
-3.0000

> <Gold.PLP.part.metal>
0.0000

> <Gold.PLP.part.buried>
-2.2214

> <Gold.PLP.part.nonpolar>
-32.8893

> <Gold.PLP.part.repulsive>
2.8644

> <Gold.PLP.ligand.clash>
0.0000

> <Gold.PLP.ligand.torsion>
0.5652

> <Gold.PLP.Chemscore.Hbond>
2.9360

> <Gold.PLP.Chemscore.CHOScore>
0.0000

> <Gold.PLP.Chemscore.Metal>
0.0000

> <Gold.Chemscore.Hbonds>
donor molecule, donor type, donor heavy atom, donor atom, acceptor molecule, acceptor atom, score
      L1  H    10    21       P1  7948  0.94
      P1  H  7989  7998       L1    12  0.94
      P1  H  7997  8010       L1     1  1.00

> <Gold.PLP.Chemscore.Internal.Correction>
0.1286

> <Gold.Rescore>
     Score         DG    S(hbond)    S(metal)    S(lipo)     H(rot)  DE(clash)    DE(int)     intcor
      7.94     -15.34       2.26        0.00      51.90       1.46       2.40       5.00       ----

> <Gold.Chemscore.Fitness>
7.9404

> <Gold.Chemscore.DG>
-15.3425

> <Gold.Chemscore.ZeroCoef>
-5.4800

> <Gold.Chemscore.Hbond>
2.2562

> <Gold.Chemscore.Metal>
0.0000

> <Gold.Chemscore.Lipo>
51.9034

> <Gold.Chemscore.Internal_Hbond>
0.0000

> <Gold.Chemscore.DEClash>
2.3983

> <Gold.Chemscore.DEInternal>
5.0038

> <Gold.Chemscore.Rot>
1.4632

> <Gold.Chemscore.Internal.Correction>
   9.000000E+99

> <Gold.Chemscore.Hbonds>
donor molecule, donor type, donor heavy atom, donor atom, acceptor molecule, acceptor atom, score
      L1  H    10    21       P1  7948  0.78
      P1  H  7989  7998       L1    12  0.54
      P1  H  7997  8010       L1     1  0.84

> <Gold.Chemscore.Hbond.Weighted>
-7.5356

> <Gold.Chemscore.Metal.Weighted>
-0.0000

> <Gold.Chemscore.Lipo.Weighted>
-6.0727

> <Gold.Chemscore.Internal_Hbond.Weighted>
0.0000

> <Gold.Chemscore.DEClash.Weighted>
2.3983

> <Gold.Chemscore.DEInternal.Weighted>
5.0038

> <Gold.Chemscore.Rot.Weighted>
3.7458

> <Gold.Chemscore.Internal.Correction.Weighted>
   9.000000E+99

> <Gold.Protein.RotatedTorsions>
[ 6907 6896 6895 6894 ] final   61.01 input  -60.11 | X-H torsion
[ 7974 7965 7964 7962 ] final  129.96 input  175.53 | X-H torsion
[ 8008 7997 7996 7995 ] final   42.92 input   59.86 | X-H torsion
[ 10167 10162 10161 10158 ] final  122.62 input  -65.29 | X-H torsion
[ 10718 10713 10712 10709 ] final   -9.08 input   66.30 | X-H torsion
[ 10763 10752 10751 10750 ] final  161.27 input  -60.55 | X-H torsion
[ 11005 11000 10999 10996 ] final   30.56 input  -57.11 | X-H torsion

> <Gold.Protein.ActiveResidues>
 VAL166  LYS551  ARG553  GLY616  TRP617  ASP618  TYR619  PRO620  LYS621  CYS622 
 ASP623  PHE694  ASN695  SER759  ASP760  ASP761  ALA762  ILE779  LEU786  VAL792 
 PHE793  MET794  SER795  GLU796  ALA797  LYS798  CYS799  TRP800  GLU811  SER814 

> <Gold.Protein.RotatedAtoms>
  152.4052  134.6219  160.0052 H   0  0  0  0  0  0  0  0  0  0  0  0  # atno 6907 bound_to 6896
  151.6412  133.3320  159.3138 H   0  0  0  0  0  0  0  0  0  0  0  0  # atno 6908 bound_to 6896
  150.7948  134.7040  159.6611 H   0  0  0  0  0  0  0  0  0  0  0  0  # atno 6909 bound_to 6896
  145.0230  139.4114  143.5188 H   0  0  0  0  0  0  0  0  0  0  0  0  # atno 7974 bound_to 7965
  155.2941  140.3381  155.4251 H   0  0  0  0  0  0  0  0  0  0  0  0  # atno 8008 bound_to 7997
  156.2032  140.1741  156.7895 H   0  0  0  0  0  0  0  0  0  0  0  0  # atno 8009 bound_to 7997
  154.5586  140.0691  156.8768 H   0  0  0  0  0  0  0  0  0  0  0  0  # atno 8010 bound_to 7997
  139.5848  144.7001  151.3438 H   0  0  0  0  0  0  0  0  0  0  0  0  # atno 10167 bound_to 10162
  156.6932  130.5071  149.5938 H   0  0  0  0  0  0  0  0  0  0  0  0  # atno 10718 bound_to 10713
  154.2603  135.2768  155.2781 H   0  0  0  0  0  0  0  0  0  0  0  0  # atno 10763 bound_to 10752
  154.5389  135.5708  153.6826 H   0  0  0  0  0  0  0  0  0  0  0  0  # atno 10764 bound_to 10752
  152.9963  135.6246  154.2753 H   0  0  0  0  0  0  0  0  0  0  0  0  # atno 10765 bound_to 10752
  140.2930  134.2842  155.7771 H   0  0  0  0  0  0  0  0  0  0  0  0  # atno 11005 bound_to 11000
  146.3488  139.9738  142.8703 LP  0  0  0  0  0  0  0  0  0  0  0  0  # atno 17320 bound_to 7965
  145.1870  140.9794  143.4233 LP  0  0  0  0  0  0  0  0  0  0  0  0  # atno 17321 bound_to 7965
  140.7121  143.7363  150.7586 LP  0  0  0  0  0  0  0  0  0  0  0  0  # atno 17342 bound_to 10162
  140.0905  143.4883  152.2481 LP  0  0  0  0  0  0  0  0  0  0  0  0  # atno 17343 bound_to 10162
  156.1782  130.6482  151.0920 LP  0  0  0  0  0  0  0  0  0  0  0  0  # atno 17370 bound_to 10713
  157.7001  131.0779  150.6847 LP  0  0  0  0  0  0  0  0  0  0  0  0  # atno 17371 bound_to 10713
  141.2142  133.7597  156.9654 LP  0  0  0  0  0  0  0  0  0  0  0  0  # atno 17394 bound_to 11000
  140.1178  134.9436  157.2159 LP  0  0  0  0  0  0  0  0  0  0  0  0  # atno 17395 bound_to 11000

$$$$
