AV-unprocessed.smi:3270|AV-procd|sdf|12514|dock4
  -GOLD-   2272018423D 1   1.00000     0.00000
 Structure written by MMmdl.
 39 40  0  0  0  0  0  0  0  0  2 V2000
  153.1134  142.4000  161.7389 C   0  0  0  0  0  0  0  0  0  0  0  0
  152.6011  141.9513  160.3549 C   0  0  2  0  0  0  0  0  0  0  0  0
  153.6060  141.0639  159.5978 C   0  0  0  0  0  0  0  0  0  0  0  0
  153.3023  140.5357  158.5272 O   0  0  0  0  0  0  0  0  0  0  0  0
  154.8173  140.9203  160.1599 N   0  0  0  0  0  0  0  0  0  0  0  0
  155.9091  140.1301  159.6041 C   0  0  0  0  0  0  0  0  0  0  0  0
  156.3922  139.0604  160.6021 C   0  0  0  0  0  0  0  0  0  0  0  0
  155.5319  137.8507  160.6053 N   0  3  0  0  0  0  0  0  0  0  0  0
  154.1802  138.1265  161.1490 C   0  0  0  0  0  0  0  0  0  0  0  0
  153.3368  136.8409  161.1817 C   0  0  0  0  0  0  0  0  0  0  0  0
  153.2601  136.2896  159.8733 O   0  0  0  0  0  0  0  0  0  0  0  0
  154.5421  135.9338  159.3717 C   0  0  0  0  0  0  0  0  0  0  0  0
  155.4308  137.1865  159.2814 C   0  0  0  0  0  0  0  0  0  0  0  0
  152.1891  143.0881  159.5382 N   0  0  0  0  0  0  0  0  0  0  0  0
  152.9790  144.1003  159.0316 C   0  0  0  0  0  0  0  0  0  0  0  0
  152.1625  144.9574  158.3514 C   0  0  0  0  0  0  0  0  0  0  0  0
  150.8695  144.3841  158.5034 C   0  0  0  0  0  0  0  0  0  0  0  0
  150.8870  143.2708  159.2177 N   0  0  0  0  0  0  0  0  0  0  0  0
  153.3481  141.5420  162.3700 H   0  0  0  0  0  0  0  0  0  0  0  0
  152.3584  142.9893  162.2601 H   0  0  0  0  0  0  0  0  0  0  0  0
  154.0137  143.0112  161.6623 H   0  0  0  0  0  0  0  0  0  0  0  0
  151.7133  141.3401  160.5244 H   0  0  0  0  0  0  0  0  0  0  0  0
  154.9889  141.3836  161.0408 H   0  0  0  0  0  0  0  0  0  0  0  0
  155.5379  139.6694  158.6895 H   0  0  0  0  0  0  0  0  0  0  0  0
  156.7333  140.7830  159.3113 H   0  0  0  0  0  0  0  0  0  0  0  0
  157.4059  138.7651  160.3270 H   0  0  0  0  0  0  0  0  0  0  0  0
  156.4546  139.4725  161.6105 H   0  0  0  0  0  0  0  0  0  0  0  0
  154.2613  138.5352  162.1571 H   0  0  0  0  0  0  0  0  0  0  0  0
  153.6861  138.8815  160.5355 H   0  0  0  0  0  0  0  0  0  0  0  0
  153.7613  136.1123  161.8742 H   0  0  0  0  0  0  0  0  0  0  0  0
  152.3281  137.0623  161.5309 H   0  0  0  0  0  0  0  0  0  0  0  0
  154.9990  135.1765  160.0108 H   0  0  0  0  0  0  0  0  0  0  0  0
  154.4224  135.4868  158.3846 H   0  0  0  0  0  0  0  0  0  0  0  0
  155.0164  137.8840  158.5517 H   0  0  0  0  0  0  0  0  0  0  0  0
  156.4174  136.8965  158.9219 H   0  0  0  0  0  0  0  0  0  0  0  0
  154.0463  144.1266  159.1951 H   0  0  0  0  0  0  0  0  0  0  0  0
  152.4451  145.8577  157.8265 H   0  0  0  0  0  0  0  0  0  0  0  0
  149.9250  144.7425  158.1216 H   0  0  0  0  0  0  0  0  0  0  0  0
  155.9622  137.1906  161.2375 H   0  0  0  0  0  0  0  0  0  0  0  0
  1  2  1  0  0  0  0
  1 19  1  0  0  0  0
  1 20  1  0  0  0  0
  1 21  1  0  0  0  0
  2  3  1  0  0  0  0
  2 14  1  0  0  0  0
  2 22  1  0  0  0  0
  3  4  2  0  0  0  0
  3  5  1  0  0  0  0
  5  6  1  0  0  0  0
  5 23  1  0  0  0  0
  6  7  1  0  0  0  0
  6 24  1  0  0  0  0
  6 25  1  0  0  0  0
  7  8  1  0  0  0  0
  7 26  1  0  0  0  0
  7 27  1  0  0  0  0
  8 13  1  0  0  0  0
  8  9  1  0  0  0  0
  8 39  1  0  0  0  0
  9 10  1  0  0  0  0
  9 28  1  0  0  0  0
  9 29  1  0  0  0  0
 10 11  1  0  0  0  0
 10 30  1  0  0  0  0
 10 31  1  0  0  0  0
 11 12  1  0  0  0  0
 12 13  1  0  0  0  0
 12 32  1  0  0  0  0
 12 33  1  0  0  0  0
 13 34  1  0  0  0  0
 13 35  1  0  0  0  0
 14 18  1  0  0  0  0
 14 15  1  0  0  0  0
 15 16  2  0  0  0  0
 15 36  1  0  0  0  0
 16 17  1  0  0  0  0
 16 37  1  0  0  0  0
 17 18  2  0  0  0  0
 17 38  1  0  0  0  0
M  CHG  1   8   1
M  END
> <s_m_source_file>
AV-unprocessed.smi

> <i_m_source_file_index>
3270

> <i_lp_mmshare_version>
43012

> <i_f3d_flags>
0

> <s_epik_input>
bjFbY0hdW2NIXVtjSF1uMVtDQEhdKFtDSDNdKUMoPU8pW05IXVtDSDJdW0NIMl1OMltDSDJdW0NIMl1PW0NIMl1bQ0gyXTI=

> <s_epik_cmdline>
J2VwaWtfcHl0aG9uJywgJy1waCcsICc3LjAnLCAnLXRuJywgJzgnLCAnLW1hJywgJzIwMCcsICctbWV0YWxfYmluZGluZycsICctaW1hZScsICc8aW5maWxlLm1hZT4nLCAnLW9tYWUnLCAnPG91dGZpbGUubWFlPic=

> <r_lp_tautomer_probability>
1

> <r_epik_Ionization_Penalty>
0.73255

> <r_epik_Ionization_Penalty_Charging>
0.732531

> <r_epik_Ionization_Penalty_Neutral>
1.96965e-05

> <r_epik_State_Penalty>
0.757939

> <r_epik_Charging_Adjusted_Penalty>
1.49047

> <i_epik_Tot_Q>
1

> <i_epik_Tot_abs_Q>
1

> <r_epik_Metal_State_Penalty>
0.757952

> <b_epik_Metal_Only>
0

> <s_lp_Force_Field>
OPLS_2005

> <r_lp_Energy>
19.6504

> <b_lp_Chiralities_Consistent>
1

> <s_lp_Variant>
AV-unprocessed.smi:3270-3

> <Gold.Version>
5.8.1

> <Gold.Id.Protein>
6NUR|6NUR_protein|mol2

> <Gold.PLP.Fitness>
44.5155

> <Gold.PLP.PLP>
-36.0331

> <Gold.PLP.part.hbond>
-2.1689

> <Gold.PLP.part.metal>
0.0000

> <Gold.PLP.part.buried>
-3.6203

> <Gold.PLP.part.nonpolar>
-30.3754

> <Gold.PLP.part.repulsive>
0.1077

> <Gold.PLP.ligand.clash>
0.0000

> <Gold.PLP.ligand.torsion>
0.2089

> <Gold.PLP.Chemscore.Hbond>
1.7303

> <Gold.PLP.Chemscore.CHOScore>
1.1942

> <Gold.PLP.Chemscore.Metal>
0.0000

> <Gold.Chemscore.Hbonds>
donor molecule, donor type, donor heavy atom, donor atom, acceptor molecule, acceptor atom, score
      P1  H  6896  6909       L1    11  1.00
      P1  H  7997  8010       L1     4  0.77
      L1  C    17    38       P1  8028  0.33
      L1  C    17    38       P1  8029  0.76

> <Gold.PLP.Chemscore.Internal.Correction>
0.1265

> <Gold.Rescore>
     Score         DG    S(hbond)    S(metal)    S(lipo)     H(rot)  DE(clash)    DE(int)     intcor
     17.17     -17.48       1.83        0.00      92.23       1.91       0.01       0.30       ----

> <Gold.Chemscore.Fitness>
17.1682

> <Gold.Chemscore.DG>
-17.4840

> <Gold.Chemscore.ZeroCoef>
-5.4800

> <Gold.Chemscore.Hbond>
1.8279

> <Gold.Chemscore.Metal>
0.0000

> <Gold.Chemscore.Lipo>
92.2285

> <Gold.Chemscore.Internal_Hbond>
0.0000

> <Gold.Chemscore.DEClash>
0.0149

> <Gold.Chemscore.DEInternal>
0.3009

> <Gold.Chemscore.Rot>
1.9109

> <Gold.Chemscore.Internal.Correction>
   9.000000E+99

> <Gold.Chemscore.Hbonds>
donor molecule, donor type, donor heavy atom, donor atom, acceptor molecule, acceptor atom, score
      P1  H  6896  6909       L1    11  0.39
      P1  H  7997  8010       L1     4  0.70

> <Gold.Chemscore.Hbond.Weighted>
-6.1052

> <Gold.Chemscore.Metal.Weighted>
-0.0000

> <Gold.Chemscore.Lipo.Weighted>
-10.7907

> <Gold.Chemscore.Internal_Hbond.Weighted>
0.0000

> <Gold.Chemscore.DEClash.Weighted>
0.0149

> <Gold.Chemscore.DEInternal.Weighted>
0.3009

> <Gold.Chemscore.Rot.Weighted>
4.8919

> <Gold.Chemscore.Internal.Correction.Weighted>
   9.000000E+99

> <Gold.Protein.RotatedTorsions>
[ 6907 6896 6895 6894 ] final  163.57 input  -60.11 | X-H torsion
[ 7974 7965 7964 7962 ] final   11.00 input  175.53 | X-H torsion
[ 8008 7997 7996 7995 ] final   27.03 input   59.86 | X-H torsion
[ 10167 10162 10161 10158 ] final   -6.27 input  -65.29 | X-H torsion
[ 10718 10713 10712 10709 ] final   41.63 input   66.30 | X-H torsion
[ 10763 10752 10751 10750 ] final  163.15 input  -60.55 | X-H torsion
[ 11005 11000 10999 10996 ] final -138.74 input  -57.11 | X-H torsion

> <Gold.Protein.ActiveResidues>
 VAL166  LYS551  ARG553  GLY616  TRP617  ASP618  TYR619  PRO620  LYS621  CYS622 
 ASP623  PHE694  ASN695  SER759  ASP760  ASP761  ALA762  ILE779  LEU786  VAL792 
 PHE793  MET794  SER795  GLU796  ALA797  LYS798  CYS799  TRP800  GLU811  SER814 

> <Gold.Protein.RotatedAtoms>
  151.9232  133.3591  159.3904 H   0  0  0  0  0  0  0  0  0  0  0  0  # atno 6907 bound_to 6896
  150.7032  134.4613  159.5391 H   0  0  0  0  0  0  0  0  0  0  0  0  # atno 6908 bound_to 6896
  152.2241  134.8385  160.0533 H   0  0  0  0  0  0  0  0  0  0  0  0  # atno 6909 bound_to 6896
  146.2379  139.9550  142.8466 H   0  0  0  0  0  0  0  0  0  0  0  0  # atno 7974 bound_to 7965
  155.0365  140.3164  155.4739 H   0  0  0  0  0  0  0  0  0  0  0  0  # atno 8008 bound_to 7997
  156.2863  140.2171  156.5431 H   0  0  0  0  0  0  0  0  0  0  0  0  # atno 8009 bound_to 7997
  154.7326  140.0480  157.0728 H   0  0  0  0  0  0  0  0  0  0  0  0  # atno 8010 bound_to 7997
  140.6991  143.6213  150.8610 H   0  0  0  0  0  0  0  0  0  0  0  0  # atno 10167 bound_to 10162
  157.3957  130.7832  149.7306 H   0  0  0  0  0  0  0  0  0  0  0  0  # atno 10718 bound_to 10713
  154.2893  135.2761  155.2662 H   0  0  0  0  0  0  0  0  0  0  0  0  # atno 10763 bound_to 10752
  154.5148  135.5772  153.6636 H   0  0  0  0  0  0  0  0  0  0  0  0  # atno 10764 bound_to 10752
  152.9916  135.6190  154.3057 H   0  0  0  0  0  0  0  0  0  0  0  0  # atno 10765 bound_to 10752
  140.8586  134.2196  157.4720 H   0  0  0  0  0  0  0  0  0  0  0  0  # atno 11005 bound_to 11000
  145.1825  140.9774  143.4258 LP  0  0  0  0  0  0  0  0  0  0  0  0  # atno 17320 bound_to 7965
  144.9929  139.3672  143.6206 LP  0  0  0  0  0  0  0  0  0  0  0  0  # atno 17321 bound_to 7965
  139.9934  143.5822  152.2902 LP  0  0  0  0  0  0  0  0  0  0  0  0  # atno 17342 bound_to 10162
  139.6486  144.7659  151.2194 LP  0  0  0  0  0  0  0  0  0  0  0  0  # atno 17343 bound_to 10162
  155.9810  130.4024  150.3497 LP  0  0  0  0  0  0  0  0  0  0  0  0  # atno 17370 bound_to 10713
  157.1619  131.0347  151.2837 LP  0  0  0  0  0  0  0  0  0  0  0  0  # atno 17371 bound_to 10713
  139.8706  134.9719  156.4752 LP  0  0  0  0  0  0  0  0  0  0  0  0  # atno 17394 bound_to 11000
  140.8708  133.7990  155.9362 LP  0  0  0  0  0  0  0  0  0  0  0  0  # atno 17395 bound_to 11000

$$$$
