AV-unprocessed.smi:2856|AV-procd|sdf|10995|dock2
  -GOLD-   2272015453D 1   1.00000     0.00000
 Structure written by MMmdl.
 37 38  0  0  0  0  0  0  0  0  1 V2000
  144.2275  132.1189  150.5583 C   0  0  0  0  0  0  0  0  0  0  0  0
  145.0658  130.7284  151.3642 S   0  0  0  0  0  0  0  0  0  0  0  0
  146.1454  131.6046  152.5414 C   0  0  2  0  0  0  0  0  0  0  0  0
  147.0197  132.6392  151.8062 C   0  0  0  0  0  0  0  0  0  0  0  0
  147.9167  133.4159  152.7830 C   0  0  0  0  0  0  0  0  0  0  0  0
  148.7843  132.4645  153.6206 C   0  0  0  0  0  0  0  0  0  0  0  0
  147.9201  131.4278  154.3588 C   0  0  0  0  0  0  0  0  0  0  0  0
  147.0037  130.6401  153.3974 C   0  0  2  0  0  0  0  0  0  0  0  0
  147.7892  129.7436  152.5482 N   0  0  0  0  0  0  0  0  0  0  0  0
  147.6389  128.4139  152.4732 C   0  0  0  0  0  0  0  0  0  0  0  0
  146.8143  127.7838  153.1358 O   0  0  0  0  0  0  0  0  0  0  0  0
  148.4983  127.8765  151.5911 N   0  0  0  0  0  0  0  0  0  0  0  0
  148.6344  126.5093  151.2403 C   0  0  0  0  0  0  0  0  0  0  0  0
  149.3077  126.1259  150.0500 C   0  0  0  0  0  0  0  0  0  0  0  0
  149.2244  124.7618  150.0749 C   0  0  0  0  0  0  0  0  0  0  0  0
  149.7072  123.6989  149.1487 C   0  0  0  0  0  0  0  0  0  0  0  0
  148.5558  124.3482  151.1855 O   0  0  0  0  0  0  0  0  0  0  0  0
  148.1809  125.4733  151.9294 N   0  0  0  0  0  0  0  0  0  0  0  0
  143.5906  131.7531  149.7532 H   0  0  0  0  0  0  0  0  0  0  0  0
  144.9551  132.8109  150.1346 H   0  0  0  0  0  0  0  0  0  0  0  0
  143.6010  132.6586  151.2679 H   0  0  0  0  0  0  0  0  0  0  0  0
  145.4851  132.1560  153.2123 H   0  0  0  0  0  0  0  0  0  0  0  0
  147.6395  132.1412  151.0594 H   0  0  0  0  0  0  0  0  0  0  0  0
  146.3862  133.3389  151.2600 H   0  0  0  0  0  0  0  0  0  0  0  0
  148.5517  134.1105  152.2325 H   0  0  0  0  0  0  0  0  0  0  0  0
  147.2966  134.0219  153.4447 H   0  0  0  0  0  0  0  0  0  0  0  0
  149.5001  131.9557  152.9738 H   0  0  0  0  0  0  0  0  0  0  0  0
  149.3724  133.0355  154.3397 H   0  0  0  0  0  0  0  0  0  0  0  0
  148.5567  130.7464  154.9244 H   0  0  0  0  0  0  0  0  0  0  0  0
  147.3027  131.9423  155.0962 H   0  0  0  0  0  0  0  0  0  0  0  0
  146.3306  130.0343  154.0049 H   0  0  0  0  0  0  0  0  0  0  0  0
  148.4898  130.1762  151.9643 H   0  0  0  0  0  0  0  0  0  0  0  0
  149.1209  128.5144  151.1180 H   0  0  0  0  0  0  0  0  0  0  0  0
  149.7749  126.7460  149.2994 H   0  0  0  0  0  0  0  0  0  0  0  0
  150.4356  124.0987  148.4431 H   0  0  0  0  0  0  0  0  0  0  0  0
  148.8784  123.2794  148.5784 H   0  0  0  0  0  0  0  0  0  0  0  0
  150.1825  122.8885  149.7015 H   0  0  0  0  0  0  0  0  0  0  0  0
  1  2  1  0  0  0  0
  1 19  1  0  0  0  0
  1 20  1  0  0  0  0
  1 21  1  0  0  0  0
  2  3  1  0  0  0  0
  3  8  1  0  0  0  0
  3  4  1  0  0  0  0
  3 22  1  0  0  0  0
  4  5  1  0  0  0  0
  4 23  1  0  0  0  0
  4 24  1  0  0  0  0
  5  6  1  0  0  0  0
  5 25  1  0  0  0  0
  5 26  1  0  0  0  0
  6  7  1  0  0  0  0
  6 27  1  0  0  0  0
  6 28  1  0  0  0  0
  7  8  1  0  0  0  0
  7 29  1  0  0  0  0
  7 30  1  0  0  0  0
  8  9  1  0  0  0  0
  8 31  1  0  0  0  0
  9 10  1  0  0  0  0
  9 32  1  0  0  0  0
 10 11  2  0  0  0  0
 10 12  1  0  0  0  0
 12 13  1  0  0  0  0
 12 33  1  0  0  0  0
 13 18  2  0  0  0  0
 13 14  1  0  0  0  0
 14 15  2  0  0  0  0
 14 34  1  0  0  0  0
 15 16  1  0  0  0  0
 15 17  1  0  0  0  0
 16 35  1  0  0  0  0
 16 36  1  0  0  0  0
 16 37  1  0  0  0  0
 17 18  1  0  0  0  0
M  END
> <s_m_source_file>
AV-unprocessed.smi

> <i_m_source_file_index>
2856

> <i_lp_mmshare_version>
43012

> <i_f3d_flags>
0

> <s_epik_input>
W0NIM11TW0NAQEhdMVtDSDJdW0NIMl1bQ0gyXVtDSDJdW0NASF0xW05IXUMoPU8pW05IXWMyW2NIXWMoW0NIM10pb24y

> <s_epik_cmdline>
J2VwaWtfcHl0aG9uJywgJy1waCcsICc3LjAnLCAnLXRuJywgJzgnLCAnLW1hJywgJzIwMCcsICctbWV0YWxfYmluZGluZycsICctaW1hZScsICc8aW5maWxlLm1hZT4nLCAnLW9tYWUnLCAnPG91dGZpbGUubWFlPic=

> <r_lp_tautomer_probability>
1

> <r_epik_Ionization_Penalty>
2.20874e-05

> <r_epik_Ionization_Penalty_Charging>
0

> <r_epik_Ionization_Penalty_Neutral>
2.20874e-05

> <r_epik_State_Penalty>
-0

> <r_epik_Charging_Adjusted_Penalty>
0

> <i_epik_Tot_Q>
0

> <i_epik_Tot_abs_Q>
0

> <r_epik_Metal_State_Penalty>
-0

> <b_epik_Metal_Only>
0

> <s_lp_Force_Field>
OPLS_2005

> <r_lp_Energy>
4.88366

> <b_lp_Chiralities_Consistent>
1

> <s_lp_Variant>
AV-unprocessed.smi:2856-3

> <Gold.Version>
5.8.1

> <Gold.Id.Protein>
6NUR|6NUR_protein|mol2

> <Gold.PLP.Fitness>
36.7131

> <Gold.PLP.PLP>
-33.8798

> <Gold.PLP.part.hbond>
-2.0012

> <Gold.PLP.part.metal>
0.0000

> <Gold.PLP.part.buried>
-2.8434

> <Gold.PLP.part.nonpolar>
-27.9831

> <Gold.PLP.part.repulsive>
0.2395

> <Gold.PLP.ligand.clash>
0.0000

> <Gold.PLP.ligand.torsion>
0.0920

> <Gold.PLP.Chemscore.Hbond>
1.0000

> <Gold.PLP.Chemscore.CHOScore>
0.0000

> <Gold.PLP.Chemscore.Metal>
0.0000

> <Gold.Chemscore.Hbonds>
donor molecule, donor type, donor heavy atom, donor atom, acceptor molecule, acceptor atom, score
      L1  H     9    32       P1 10747  0.99

> <Gold.PLP.Chemscore.Internal.Correction>
0.0173

> <Gold.Rescore>
     Score         DG    S(hbond)    S(metal)    S(lipo)     H(rot)  DE(clash)    DE(int)     intcor
     12.87     -14.17       0.96        0.00      73.43       1.21       0.02       1.27       ----

> <Gold.Chemscore.Fitness>
12.8719

> <Gold.Chemscore.DG>
-14.1659

> <Gold.Chemscore.ZeroCoef>
-5.4800

> <Gold.Chemscore.Hbond>
0.9565

> <Gold.Chemscore.Metal>
0.0000

> <Gold.Chemscore.Lipo>
73.4288

> <Gold.Chemscore.Internal_Hbond>
0.0000

> <Gold.Chemscore.DEClash>
0.0240

> <Gold.Chemscore.DEInternal>
1.2700

> <Gold.Chemscore.Rot>
1.2109

> <Gold.Chemscore.Internal.Correction>
   9.000000E+99

> <Gold.Chemscore.Hbonds>
donor molecule, donor type, donor heavy atom, donor atom, acceptor molecule, acceptor atom, score
      L1  H     9    32       P1 10747  0.61

> <Gold.Chemscore.Hbond.Weighted>
-3.1948

> <Gold.Chemscore.Metal.Weighted>
-0.0000

> <Gold.Chemscore.Lipo.Weighted>
-8.5912

> <Gold.Chemscore.Internal_Hbond.Weighted>
0.0000

> <Gold.Chemscore.DEClash.Weighted>
0.0240

> <Gold.Chemscore.DEInternal.Weighted>
1.2700

> <Gold.Chemscore.Rot.Weighted>
3.1000

> <Gold.Chemscore.Internal.Correction.Weighted>
   9.000000E+99

> <Gold.Protein.RotatedTorsions>
[ 6907 6896 6895 6894 ] final  -25.34 input  -60.11 | X-H torsion
[ 7974 7965 7964 7962 ] final -112.69 input  175.53 | X-H torsion
[ 8008 7997 7996 7995 ] final   46.88 input   59.86 | X-H torsion
[ 10167 10162 10161 10158 ] final  157.57 input  -65.29 | X-H torsion
[ 10718 10713 10712 10709 ] final -139.48 input   66.30 | X-H torsion
[ 10763 10752 10751 10750 ] final  -73.77 input  -60.55 | X-H torsion
[ 11005 11000 10999 10996 ] final  -90.76 input  -57.11 | X-H torsion

> <Gold.Protein.ActiveResidues>
 VAL166  LYS551  ARG553  GLY616  TRP617  ASP618  TYR619  PRO620  LYS621  CYS622 
 ASP623  PHE694  ASN695  SER759  ASP760  ASP761  ALA762  ILE779  LEU786  VAL792 
 PHE793  MET794  SER795  GLU796  ALA797  LYS798  CYS799  TRP800  GLU811  SER814 

> <Gold.Protein.RotatedAtoms>
  151.1766  135.0342  159.8774 H   0  0  0  0  0  0  0  0  0  0  0  0  # atno 6907 bound_to 6896
  152.5446  134.1110  159.8368 H   0  0  0  0  0  0  0  0  0  0  0  0  # atno 6908 bound_to 6896
  151.1222  133.5049  159.2634 H   0  0  0  0  0  0  0  0  0  0  0  0  # atno 6909 bound_to 6896
  145.1410  140.8778  143.3702 H   0  0  0  0  0  0  0  0  0  0  0  0  # atno 7974 bound_to 7965
  155.3598  140.3418  155.4240 H   0  0  0  0  0  0  0  0  0  0  0  0  # atno 8008 bound_to 7997
  156.1719  140.1635  156.8466 H   0  0  0  0  0  0  0  0  0  0  0  0  # atno 8009 bound_to 7997
  154.5242  140.0760  156.8211 H   0  0  0  0  0  0  0  0  0  0  0  0  # atno 8010 bound_to 7997
  139.4823  144.4905  151.8315 H   0  0  0  0  0  0  0  0  0  0  0  0  # atno 10167 bound_to 10162
  156.3112  130.7483  151.1559 H   0  0  0  0  0  0  0  0  0  0  0  0  # atno 10718 bound_to 10713
  154.4640  135.5886  153.6275 H   0  0  0  0  0  0  0  0  0  0  0  0  # atno 10763 bound_to 10752
  152.9826  135.6050  154.3451 H   0  0  0  0  0  0  0  0  0  0  0  0  # atno 10764 bound_to 10752
  154.3325  135.2842  155.2443 H   0  0  0  0  0  0  0  0  0  0  0  0  # atno 10765 bound_to 10752
  141.1559  133.7712  156.9783 H   0  0  0  0  0  0  0  0  0  0  0  0  # atno 11005 bound_to 11000
  145.0532  139.3165  143.5918 LP  0  0  0  0  0  0  0  0  0  0  0  0  # atno 17320 bound_to 7965
  146.3505  139.9948  142.8682 LP  0  0  0  0  0  0  0  0  0  0  0  0  # atno 17321 bound_to 7965
  140.4389  144.2014  150.5890 LP  0  0  0  0  0  0  0  0  0  0  0  0  # atno 17342 bound_to 10162
  140.4703  143.2415  151.9098 LP  0  0  0  0  0  0  0  0  0  0  0  0  # atno 17343 bound_to 10162
  157.7391  131.0533  150.5251 LP  0  0  0  0  0  0  0  0  0  0  0  0  # atno 17370 bound_to 10713
  156.5391  130.4203  149.6163 LP  0  0  0  0  0  0  0  0  0  0  0  0  # atno 17371 bound_to 10713
  140.1083  134.9493  157.2027 LP  0  0  0  0  0  0  0  0  0  0  0  0  # atno 17394 bound_to 11000
  140.3228  134.2897  155.7243 LP  0  0  0  0  0  0  0  0  0  0  0  0  # atno 17395 bound_to 11000

$$$$
