AV-unprocessed.smi:928|AV-procd|sdf|4192|dock3
  -GOLD-   22720 2 93D 1   1.00000     0.00000
 Structure written by MMmdl.
 43 44  0  0  0  0  0  0  0  0  1 V2000
  151.6104  142.9979  157.9895 C   0  0  0  0  0  0  0  0  0  0  0  0
  150.7682  141.7729  158.3662 C   0  0  0  0  0  0  0  0  0  0  0  0
  150.6257  140.8001  157.2434 C   0  0  0  0  0  0  0  0  0  0  0  0
  150.2537  141.0616  155.9477 C   0  0  0  0  0  0  0  0  0  0  0  0
  150.2733  139.9395  155.1163 N   0  0  0  0  0  0  0  0  0  0  0  0
  150.6514  138.8342  155.7623 C   0  0  0  0  0  0  0  0  0  0  0  0
  150.8843  137.5217  155.0842 C   0  0  0  0  0  0  0  0  0  0  0  0
  149.9438  136.3947  155.5635 C   0  0  0  0  0  0  0  0  0  0  0  0
  149.3571  135.6448  154.4536 N   0  0  0  0  0  0  0  0  0  0  0  0
  148.5078  134.6142  154.5805 C   0  0  0  0  0  0  0  0  0  0  0  0
  148.1984  134.1005  155.6556 O   0  0  0  0  0  0  0  0  0  0  0  0
  147.9888  134.2495  153.4006 N   0  0  0  0  0  0  0  0  0  0  0  0
  146.9149  133.2742  153.2265 C   0  0  1  0  0  0  0  0  0  0  0  0
  145.7058  133.9217  152.5255 C   0  0  0  0  0  0  0  0  0  0  0  0
  144.5573  132.9128  152.3675 C   0  0  0  0  0  0  0  0  0  0  0  0
  145.0193  131.6558  151.6129 C   0  0  0  0  0  0  0  0  0  0  0  0
  146.2409  131.0065  152.2898 C   0  0  0  0  0  0  0  0  0  0  0  0
  147.3994  132.0043  152.4868 C   0  0  1  0  0  0  0  0  0  0  0  0
  147.9465  132.3354  151.2239 O   0  0  0  0  0  0  0  0  0  0  0  0
  150.9656  139.1053  157.4738 S   0  0  0  0  0  0  0  0  0  0  0  0
  151.6840  143.6919  158.8268 H   0  0  0  0  0  0  0  0  0  0  0  0
  151.1693  143.5344  157.1488 H   0  0  0  0  0  0  0  0  0  0  0  0
  152.6232  142.7100  157.7063 H   0  0  0  0  0  0  0  0  0  0  0  0
  151.2193  141.2730  159.2239 H   0  0  0  0  0  0  0  0  0  0  0  0
  149.7808  142.1016  158.6920 H   0  0  0  0  0  0  0  0  0  0  0  0
  149.9853  142.0189  155.5260 H   0  0  0  0  0  0  0  0  0  0  0  0
  150.7633  137.6668  154.0102 H   0  0  0  0  0  0  0  0  0  0  0  0
  151.9227  137.2268  155.2383 H   0  0  0  0  0  0  0  0  0  0  0  0
  150.4982  135.6982  156.1925 H   0  0  0  0  0  0  0  0  0  0  0  0
  149.1581  136.8123  156.1956 H   0  0  0  0  0  0  0  0  0  0  0  0
  149.5483  135.9885  153.5239 H   0  0  0  0  0  0  0  0  0  0  0  0
  148.3042  134.7304  152.5711 H   0  0  0  0  0  0  0  0  0  0  0  0
  146.5773  132.9720  154.2203 H   0  0  0  0  0  0  0  0  0  0  0  0
  145.3589  134.7824  153.0987 H   0  0  0  0  0  0  0  0  0  0  0  0
  145.9976  134.3012  151.5452 H   0  0  0  0  0  0  0  0  0  0  0  0
  144.1816  132.6310  153.3523 H   0  0  0  0  0  0  0  0  0  0  0  0
  143.7239  133.3778  151.8404 H   0  0  0  0  0  0  0  0  0  0  0  0
  144.2022  130.9361  151.5565 H   0  0  0  0  0  0  0  0  0  0  0  0
  145.2663  131.9191  150.5837 H   0  0  0  0  0  0  0  0  0  0  0  0
  145.9395  130.6168  153.2631 H   0  0  0  0  0  0  0  0  0  0  0  0
  146.5775  130.1460  151.7103 H   0  0  0  0  0  0  0  0  0  0  0  0
  148.1867  131.5196  153.0652 H   0  0  0  0  0  0  0  0  0  0  0  0
  148.0880  131.5344  150.7429 H   0  0  0  0  0  0  0  0  0  0  0  0
  1  2  1  0  0  0  0
  1 21  1  0  0  0  0
  1 22  1  0  0  0  0
  1 23  1  0  0  0  0
  2  3  1  0  0  0  0
  2 24  1  0  0  0  0
  2 25  1  0  0  0  0
  3 20  1  0  0  0  0
  3  4  2  0  0  0  0
  4  5  1  0  0  0  0
  4 26  1  0  0  0  0
  5  6  2  0  0  0  0
  6  7  1  0  0  0  0
  6 20  1  0  0  0  0
  7  8  1  0  0  0  0
  7 27  1  0  0  0  0
  7 28  1  0  0  0  0
  8  9  1  0  0  0  0
  8 29  1  0  0  0  0
  8 30  1  0  0  0  0
  9 10  1  0  0  0  0
  9 31  1  0  0  0  0
 10 11  2  0  0  0  0
 10 12  1  0  0  0  0
 12 13  1  0  0  0  0
 12 32  1  0  0  0  0
 13 18  1  0  0  0  0
 13 14  1  0  0  0  0
 13 33  1  0  0  0  0
 14 15  1  0  0  0  0
 14 34  1  0  0  0  0
 14 35  1  0  0  0  0
 15 16  1  0  0  0  0
 15 36  1  0  0  0  0
 15 37  1  0  0  0  0
 16 17  1  0  0  0  0
 16 38  1  0  0  0  0
 16 39  1  0  0  0  0
 17 18  1  0  0  0  0
 17 40  1  0  0  0  0
 17 41  1  0  0  0  0
 18 19  1  0  0  0  0
 18 42  1  0  0  0  0
 19 43  1  0  0  0  0
M  END
> <s_m_source_file>
AV-unprocessed.smi

> <i_m_source_file_index>
928

> <i_lp_mmshare_version>
43012

> <i_f3d_flags>
0

> <s_epik_input>
W0NIM11bQ0gyXWMxW2NIXW5jKHMxKVtDSDJdW0NIMl1bTkhdQyg9TylbTkhdW0NAQEhdMltDSDJdW0NIMl1bQ0gyXVtDSDJdW0NASF0yW09IXQ==

> <s_epik_cmdline>
J2VwaWtfcHl0aG9uJywgJy1waCcsICc3LjAnLCAnLXRuJywgJzgnLCAnLW1hJywgJzIwMCcsICctbWV0YWxfYmluZGluZycsICctaW1hZScsICc8aW5maWxlLm1hZT4nLCAnLW9tYWUnLCAnPG91dGZpbGUubWFlPic=

> <r_epik_Ionization_Penalty>
0.000957396

> <r_epik_Ionization_Penalty_Charging>
0

> <r_epik_Ionization_Penalty_Neutral>
0.000957396

> <r_epik_State_Penalty>
0.000586538

> <r_epik_Charging_Adjusted_Penalty>
0.000586538

> <i_epik_Tot_Q>
0

> <i_epik_Tot_abs_Q>
0

> <r_epik_Metal_State_Penalty>
-0

> <b_epik_Metal_Only>
0

> <s_lp_Force_Field>
OPLS_2005

> <r_lp_Energy>
0.733769

> <b_lp_Chiralities_Consistent>
1

> <s_lp_Variant>
AV-unprocessed.smi:928-2

> <Gold.Version>
5.8.1

> <Gold.Id.Protein>
6NUR|6NUR_protein|mol2

> <Gold.PLP.Fitness>
42.9098

> <Gold.PLP.PLP>
-29.4676

> <Gold.PLP.part.hbond>
-3.4378

> <Gold.PLP.part.metal>
0.0000

> <Gold.PLP.part.buried>
-4.0888

> <Gold.PLP.part.nonpolar>
-22.1634

> <Gold.PLP.part.repulsive>
0.1278

> <Gold.PLP.ligand.clash>
0.0000

> <Gold.PLP.ligand.torsion>
0.4682

> <Gold.PLP.Chemscore.Hbond>
3.7673

> <Gold.PLP.Chemscore.CHOScore>
1.0000

> <Gold.PLP.Chemscore.Metal>
0.0000

> <Gold.Chemscore.Hbonds>
donor molecule, donor type, donor heavy atom, donor atom, acceptor molecule, acceptor atom, score
      L1  H     9    31       P1  7948  0.98
      L1  H    12    32       P1  7948  0.98
      L1  H    19    43       P1 10747  0.16
      P1  H  7989  7998       L1     5  0.25
      L1  C     4    26       P1  8028  0.03

> <Gold.PLP.Chemscore.Internal.Correction>
0.0768

> <Gold.Rescore>
     Score         DG    S(hbond)    S(metal)    S(lipo)     H(rot)  DE(clash)    DE(int)     intcor
     18.99     -19.38       3.11        0.00      78.24       2.21       0.01       0.37       ----

> <Gold.Chemscore.Fitness>
18.9918

> <Gold.Chemscore.DG>
-19.3813

> <Gold.Chemscore.ZeroCoef>
-5.4800

> <Gold.Chemscore.Hbond>
3.1138

> <Gold.Chemscore.Metal>
0.0000

> <Gold.Chemscore.Lipo>
78.2448

> <Gold.Chemscore.Internal_Hbond>
0.0000

> <Gold.Chemscore.DEClash>
0.0149

> <Gold.Chemscore.DEInternal>
0.3747

> <Gold.Chemscore.Rot>
2.2084

> <Gold.Chemscore.Internal.Correction>
   9.000000E+99

> <Gold.Chemscore.Hbonds>
donor molecule, donor type, donor heavy atom, donor atom, acceptor molecule, acceptor atom, score
      L1  H     9    31       P1  7948  0.32
      L1  H    12    32       P1  7948  0.32
      L1  H    19    43       P1 10747  0.17
      P1  H  7989  7998       L1     5  0.04

> <Gold.Chemscore.Hbond.Weighted>
-10.4002

> <Gold.Chemscore.Metal.Weighted>
-0.0000

> <Gold.Chemscore.Lipo.Weighted>
-9.1546

> <Gold.Chemscore.Internal_Hbond.Weighted>
0.0000

> <Gold.Chemscore.DEClash.Weighted>
0.0149

> <Gold.Chemscore.DEInternal.Weighted>
0.3747

> <Gold.Chemscore.Rot.Weighted>
5.6535

> <Gold.Chemscore.Internal.Correction.Weighted>
   9.000000E+99

> <Gold.Protein.RotatedTorsions>
[ 6907 6896 6895 6894 ] final -164.90 input  -60.11 | X-H torsion
[ 7974 7965 7964 7962 ] final -144.83 input  175.53 | X-H torsion
[ 8008 7997 7996 7995 ] final  137.20 input   59.86 | X-H torsion
[ 10167 10162 10161 10158 ] final  -99.17 input  -65.29 | X-H torsion
[ 10718 10713 10712 10709 ] final  -37.03 input   66.30 | X-H torsion
[ 10763 10752 10751 10750 ] final  121.52 input  -60.55 | X-H torsion
[ 11005 11000 10999 10996 ] final   93.40 input  -57.11 | X-H torsion

> <Gold.Protein.ActiveResidues>
 VAL166  LYS551  ARG553  GLY616  TRP617  ASP618  TYR619  PRO620  LYS621  CYS622 
 ASP623  PHE694  ASN695  SER759  ASP760  ASP761  ALA762  ILE779  LEU786  VAL792 
 PHE793  MET794  SER795  GLU796  ALA797  LYS798  CYS799  TRP800  GLU811  SER814 

> <Gold.Protein.RotatedAtoms>
  151.4191  133.3704  159.2753 H   0  0  0  0  0  0  0  0  0  0  0  0  # atno 6907 bound_to 6896
  150.9307  134.8723  159.7560 H   0  0  0  0  0  0  0  0  0  0  0  0  # atno 6908 bound_to 6896
  152.5026  134.4135  159.9509 H   0  0  0  0  0  0  0  0  0  0  0  0  # atno 6909 bound_to 6896
  144.8270  140.5661  143.5540 H   0  0  0  0  0  0  0  0  0  0  0  0  # atno 7974 bound_to 7965
  156.3003  140.2425  156.3871 H   0  0  0  0  0  0  0  0  0  0  0  0  # atno 8008 bound_to 7997
  154.8648  140.0418  157.1707 H   0  0  0  0  0  0  0  0  0  0  0  0  # atno 8009 bound_to 7997
  154.8858  140.2956  155.5402 H   0  0  0  0  0  0  0  0  0  0  0  0  # atno 8010 bound_to 7997
  140.2653  143.3380  152.0587 H   0  0  0  0  0  0  0  0  0  0  0  0  # atno 10167 bound_to 10162
  156.3199  130.4264  149.7970 H   0  0  0  0  0  0  0  0  0  0  0  0  # atno 10718 bound_to 10713
  153.6154  135.3423  155.2993 H   0  0  0  0  0  0  0  0  0  0  0  0  # atno 10763 bound_to 10752
  154.8610  135.4260  154.2264 H   0  0  0  0  0  0  0  0  0  0  0  0  # atno 10764 bound_to 10752
  153.3125  135.7032  153.7175 H   0  0  0  0  0  0  0  0  0  0  0  0  # atno 10765 bound_to 10752
  139.8810  134.8788  156.3712 H   0  0  0  0  0  0  0  0  0  0  0  0  # atno 11005 bound_to 11000
  145.4979  139.1485  143.3674 LP  0  0  0  0  0  0  0  0  0  0  0  0  # atno 17320 bound_to 7965
  146.2575  140.5118  142.8867 LP  0  0  0  0  0  0  0  0  0  0  0  0  # atno 17321 bound_to 7965
  139.5004  144.6692  151.6283 LP  0  0  0  0  0  0  0  0  0  0  0  0  # atno 17342 bound_to 10162
  140.5933  143.9741  150.6338 LP  0  0  0  0  0  0  0  0  0  0  0  0  # atno 17343 bound_to 10162
  156.5282  130.8245  151.3227 LP  0  0  0  0  0  0  0  0  0  0  0  0  # atno 17370 bound_to 10713
  157.7409  130.9860  150.2412 LP  0  0  0  0  0  0  0  0  0  0  0  0  # atno 17371 bound_to 10713
  140.9463  133.7481  156.0212 LP  0  0  0  0  0  0  0  0  0  0  0  0  # atno 17394 bound_to 11000
  140.8160  134.3345  157.5397 LP  0  0  0  0  0  0  0  0  0  0  0  0  # atno 17395 bound_to 11000

$$$$
