AV-unprocessed.smi:110|AV-procd|sdf|1064|dock3
  -GOLD-   2262018143D 1   1.00000     0.00000
 Structure written by MMmdl.
 46 50  0  0  0  0  0  0  0  0  1 V2000
  144.7821  142.8231  154.4043 O   0  0  0  0  0  0  0  0  0  0  0  0
  146.0669  142.9950  153.8447 C   0  0  0  0  0  0  0  0  0  0  0  0
  147.0837  141.9153  154.2732 C   0  0  2  0  0  0  0  0  0  0  0  0
  148.4125  142.1966  153.8587 O   0  0  0  0  0  0  0  0  0  0  0  0
  149.2041  141.0689  154.0963 C   0  0  1  0  0  0  0  0  0  0  0  0
  149.9201  141.2706  155.3971 N   0  0  0  0  0  0  0  0  0  0  0  0
  149.7067  142.2126  156.3810 C   0  0  0  0  0  0  0  0  0  0  0  0
  150.5072  142.1348  157.4092 N   0  0  0  0  0  0  0  0  0  0  0  0
  151.3597  141.0802  157.1030 C   0  0  0  0  0  0  0  0  0  0  0  0
  152.4567  140.4539  157.7616 C   0  0  0  0  0  0  0  0  0  0  0  0
  152.9396  140.8188  158.9722 N   0  0  0  0  0  0  0  0  0  0  0  0
  153.5148  139.7900  159.8509 C   0  0  0  0  0  0  0  0  0  0  0  0
  153.5308  140.3561  161.2834 C   0  0  0  0  0  0  0  0  0  0  0  0
  153.0324  141.7452  161.0471 C   0  0  0  0  0  0  0  0  0  0  0  0
  152.8911  142.7723  161.9964 C   0  0  0  0  0  0  0  0  0  0  0  0
  152.4212  144.0272  161.5534 C   0  0  0  0  0  0  0  0  0  0  0  0
  152.1148  144.2342  160.1882 C   0  0  0  0  0  0  0  0  0  0  0  0
  152.2666  143.1877  159.2520 C   0  0  0  0  0  0  0  0  0  0  0  0
  152.7151  141.9300  159.7051 C   0  0  0  0  0  0  0  0  0  0  0  0
  153.0254  139.3816  157.1535 N   0  0  0  0  0  0  0  0  0  0  0  0
  152.5834  138.9718  155.9613 C   0  0  0  0  0  0  0  0  0  0  0  0
  151.5902  139.4712  155.2237 N   0  0  0  0  0  0  0  0  0  0  0  0
  150.9924  140.5292  155.8432 C   0  0  0  0  0  0  0  0  0  0  0  0
  148.2536  139.8532  154.2013 C   0  0  2  0  0  0  0  0  0  0  0  0
  148.6108  138.7920  153.3352 O   0  0  0  0  0  0  0  0  0  0  0  0
  146.8768  140.4459  153.8834 C   0  0  2  0  0  0  0  0  0  0  0  0
  146.5318  140.2964  152.5171 O   0  0  0  0  0  0  0  0  0  0  0  0
  147.0994  141.9468  155.3642 H   0  0  0  0  0  0  0  0  0  0  0  0
  149.9960  140.9723  153.3523 H   0  0  0  0  0  0  0  0  0  0  0  0
  148.2529  139.4812  155.2272 H   0  0  0  0  0  0  0  0  0  0  0  0
  146.0914  139.9832  154.4818 H   0  0  0  0  0  0  0  0  0  0  0  0
  144.2881  142.2381  153.8502 H   0  0  0  0  0  0  0  0  0  0  0  0
  145.9769  143.0097  152.7582 H   0  0  0  0  0  0  0  0  0  0  0  0
  146.4315  143.9781  154.1431 H   0  0  0  0  0  0  0  0  0  0  0  0
  148.9332  142.9643  156.3219 H   0  0  0  0  0  0  0  0  0  0  0  0
  152.9318  138.8692  159.8025 H   0  0  0  0  0  0  0  0  0  0  0  0
  154.5283  139.5603  159.5197 H   0  0  0  0  0  0  0  0  0  0  0  0
  152.8534  139.8155  161.9449 H   0  0  0  0  0  0  0  0  0  0  0  0
  154.5324  140.3631  161.7144 H   0  0  0  0  0  0  0  0  0  0  0  0
  153.1394  142.6077  163.0345 H   0  0  0  0  0  0  0  0  0  0  0  0
  152.3030  144.8363  162.2591 H   0  0  0  0  0  0  0  0  0  0  0  0
  151.7665  145.2016  159.8577 H   0  0  0  0  0  0  0  0  0  0  0  0
  152.0454  143.3577  158.2087 H   0  0  0  0  0  0  0  0  0  0  0  0
  153.0977  138.1213  155.5389 H   0  0  0  0  0  0  0  0  0  0  0  0
  149.1468  139.1404  152.6396 H   0  0  0  0  0  0  0  0  0  0  0  0
  147.3253  140.1646  152.0201 H   0  0  0  0  0  0  0  0  0  0  0  0
  1  2  1  0  0  0  0
  1 32  1  0  0  0  0
  2  3  1  0  0  0  0
  2 33  1  0  0  0  0
  2 34  1  0  0  0  0
  3 28  1  0  0  0  0
  3 26  1  0  0  0  0
  3  4  1  0  0  0  0
  4  5  1  0  0  0  0
  5 29  1  0  0  0  0
  5  6  1  0  0  0  0
  5 24  1  0  0  0  0
  6 23  1  0  0  0  0
  6  7  1  0  0  0  0
  7  8  2  0  0  0  0
  7 35  1  0  0  0  0
  8  9  1  0  0  0  0
  9 23  2  0  0  0  0
  9 10  1  0  0  0  0
 10 11  1  0  0  0  0
 10 20  2  0  0  0  0
 11 19  1  0  0  0  0
 11 12  1  0  0  0  0
 12 13  1  0  0  0  0
 12 36  1  0  0  0  0
 12 37  1  0  0  0  0
 13 14  1  0  0  0  0
 13 38  1  0  0  0  0
 13 39  1  0  0  0  0
 14 19  2  0  0  0  0
 14 15  1  0  0  0  0
 15 16  2  0  0  0  0
 15 40  1  0  0  0  0
 16 17  1  0  0  0  0
 16 41  1  0  0  0  0
 17 18  2  0  0  0  0
 17 42  1  0  0  0  0
 18 19  1  0  0  0  0
 18 43  1  0  0  0  0
 20 21  1  0  0  0  0
 21 22  2  0  0  0  0
 21 44  1  0  0  0  0
 22 23  1  0  0  0  0
 24 30  1  0  0  0  0
 24 25  1  0  0  0  0
 24 26  1  0  0  0  0
 25 45  1  0  0  0  0
 26 31  1  0  0  0  0
 26 27  1  0  0  0  0
 27 46  1  0  0  0  0
M  END
> <s_m_source_file>
AV-unprocessed.smi

> <i_m_source_file_index>
110

> <i_lp_mmshare_version>
43012

> <i_f3d_flags>
0

> <s_epik_input>
W09IXVtDSDJdW0NASF0xT1tDQEhdKFtDQEhdKFtPSF0pW0NAQEhdMVtPSF0pbihbY0hdbjIpYyhjMjMpbltjSF1uYzNOKFtDSDJdW0NIMl00KWMoYzQ1KVtjSF1bY0hdW2NIXVtjSF01

> <s_epik_cmdline>
J2VwaWtfcHl0aG9uJywgJy1waCcsICc3LjAnLCAnLXRuJywgJzgnLCAnLW1hJywgJzIwMCcsICctbWV0YWxfYmluZGluZycsICctaW1hZScsICc8aW5maWxlLm1hZT4nLCAnLW9tYWUnLCAnPG91dGZpbGUubWFlPic=

> <r_lp_tautomer_probability>
1

> <r_epik_Ionization_Penalty>
0.00068475

> <r_epik_Ionization_Penalty_Charging>
0

> <r_epik_Ionization_Penalty_Neutral>
0.00068475

> <r_epik_State_Penalty>
0.000417442

> <r_epik_Charging_Adjusted_Penalty>
0.000417442

> <i_epik_Tot_Q>
0

> <i_epik_Tot_abs_Q>
0

> <r_epik_Metal_State_Penalty>
-0

> <b_epik_Metal_Only>
0

> <s_epik_Chemistry_Notes>
This compound contains an acetal/aminal-like group ( X-CH(R)-Y where X, Y are N, S, or O) that may be acid/base labile, releasing an aldehyde.

> <s_lp_Force_Field>
OPLS_2005

> <r_lp_Energy>
64.7575

> <b_lp_Chiralities_Consistent>
1

> <s_lp_Variant>
AV-unprocessed.smi:110-2

> <Gold.Version>
5.8.1

> <Gold.Id.Protein>
6NUR|6NUR_protein|mol2

> <Gold.PLP.Fitness>
65.8193

> <Gold.PLP.PLP>
-55.5719

> <Gold.PLP.part.hbond>
-7.7582

> <Gold.PLP.part.metal>
0.0000

> <Gold.PLP.part.buried>
2.0943

> <Gold.PLP.part.nonpolar>
-49.8057

> <Gold.PLP.part.repulsive>
0.3001

> <Gold.PLP.ligand.clash>
0.0000

> <Gold.PLP.ligand.torsion>
0.6362

> <Gold.PLP.Chemscore.Hbond>
2.8290

> <Gold.PLP.Chemscore.CHOScore>
0.9773

> <Gold.PLP.Chemscore.Metal>
0.0000

> <Gold.Chemscore.Hbonds>
donor molecule, donor type, donor heavy atom, donor atom, acceptor molecule, acceptor atom, score
      L1  H     1    32       P1 10175  0.02
      L1  H    25    45       P1  7957  1.00
      L1  H    27    46       P1  7957  0.05
      P1  H  7989  7998       L1    22  0.08
      P1  H  7997  8010       L1    20  0.85
      P1  H  8011  8017       L1     4  0.01
      L1  C     7    35       P1  8028  0.61

> <Gold.PLP.Chemscore.Internal.Correction>
0.1010

> <Gold.Rescore>
     Score         DG    S(hbond)    S(metal)    S(lipo)     H(rot)  DE(clash)    DE(int)     intcor
     11.08     -15.00       1.49        0.00     112.93       3.38       1.76       2.16       ----

> <Gold.Chemscore.Fitness>
11.0835

> <Gold.Chemscore.DG>
-15.0035

> <Gold.Chemscore.ZeroCoef>
-5.4800

> <Gold.Chemscore.Hbond>
1.4890

> <Gold.Chemscore.Metal>
0.0000

> <Gold.Chemscore.Lipo>
112.9279

> <Gold.Chemscore.Internal_Hbond>
0.0000

> <Gold.Chemscore.DEClash>
1.7643

> <Gold.Chemscore.DEInternal>
2.1558

> <Gold.Chemscore.Rot>
3.3837

> <Gold.Chemscore.Internal.Correction>
   9.000000E+99

> <Gold.Chemscore.Hbonds>
donor molecule, donor type, donor heavy atom, donor atom, acceptor molecule, acceptor atom, score
      L1  H    25    45       P1  7957  0.99
      L1  H    27    46       P1  7957  0.10
      P1  H  7997  8010       L1    20  0.09

> <Gold.Chemscore.Hbond.Weighted>
-4.9731

> <Gold.Chemscore.Metal.Weighted>
-0.0000

> <Gold.Chemscore.Lipo.Weighted>
-13.2126

> <Gold.Chemscore.Internal_Hbond.Weighted>
0.0000

> <Gold.Chemscore.DEClash.Weighted>
1.7643

> <Gold.Chemscore.DEInternal.Weighted>
2.1558

> <Gold.Chemscore.Rot.Weighted>
8.6622

> <Gold.Chemscore.Internal.Correction.Weighted>
   9.000000E+99

> <Gold.Protein.RotatedTorsions>
[ 6907 6896 6895 6894 ] final -112.39 input  -60.11 | X-H torsion
[ 7974 7965 7964 7962 ] final   -3.43 input  175.53 | X-H torsion
[ 8008 7997 7996 7995 ] final   39.80 input   59.86 | X-H torsion
[ 10167 10162 10161 10158 ] final -102.52 input  -65.29 | X-H torsion
[ 10718 10713 10712 10709 ] final   45.97 input   66.30 | X-H torsion
[ 10763 10752 10751 10750 ] final -151.09 input  -60.55 | X-H torsion
[ 11005 11000 10999 10996 ] final  151.55 input  -57.11 | X-H torsion

> <Gold.Protein.ActiveResidues>
 VAL166  LYS551  ARG553  GLY616  TRP617  ASP618  TYR619  PRO620  LYS621  CYS622 
 ASP623  PHE694  ASN695  SER759  ASP760  ASP761  ALA762  ILE779  LEU786  VAL792 
 PHE793  MET794  SER795  GLU796  ALA797  LYS798  CYS799  TRP800  GLU811  SER814 

> <Gold.Protein.RotatedAtoms>
  150.7755  133.9097  159.3365 H   0  0  0  0  0  0  0  0  0  0  0  0  # atno 6907 bound_to 6896
  151.6973  135.0934  160.0254 H   0  0  0  0  0  0  0  0  0  0  0  0  # atno 6908 bound_to 6896
  152.3789  133.6481  159.6181 H   0  0  0  0  0  0  0  0  0  0  0  0  # atno 6909 bound_to 6896
  146.2389  140.1719  142.8332 H   0  0  0  0  0  0  0  0  0  0  0  0  # atno 7974 bound_to 7965
  155.2425  140.3346  155.4290 H   0  0  0  0  0  0  0  0  0  0  0  0  # atno 8008 bound_to 7997
  156.2250  140.1825  156.7431 H   0  0  0  0  0  0  0  0  0  0  0  0  # atno 8009 bound_to 7997
  154.5884  140.0642  156.9189 H   0  0  0  0  0  0  0  0  0  0  0  0  # atno 8010 bound_to 7997
  140.2298  143.3615  152.0896 H   0  0  0  0  0  0  0  0  0  0  0  0  # atno 10167 bound_to 10162
  157.4432  130.8094  149.7715 H   0  0  0  0  0  0  0  0  0  0  0  0  # atno 10718 bound_to 10713
  154.8079  135.3268  154.7383 H   0  0  0  0  0  0  0  0  0  0  0  0  # atno 10763 bound_to 10752
  153.8038  135.6901  153.4856 H   0  0  0  0  0  0  0  0  0  0  0  0  # atno 10764 bound_to 10752
  153.1837  135.4577  155.0006 H   0  0  0  0  0  0  0  0  0  0  0  0  # atno 10765 bound_to 10752
  140.1228  134.8852  157.2096 H   0  0  0  0  0  0  0  0  0  0  0  0  # atno 11005 bound_to 11000
  145.0004  140.8627  143.5285 LP  0  0  0  0  0  0  0  0  0  0  0  0  # atno 17320 bound_to 7965
  145.1738  139.2389  143.5328 LP  0  0  0  0  0  0  0  0  0  0  0  0  # atno 17321 bound_to 7965
  139.5114  144.6900  151.5786 LP  0  0  0  0  0  0  0  0  0  0  0  0  # atno 17342 bound_to 10162
  140.6193  143.9288  150.6513 LP  0  0  0  0  0  0  0  0  0  0  0  0  # atno 17343 bound_to 10162
  155.9957  130.3910  150.2808 LP  0  0  0  0  0  0  0  0  0  0  0  0  # atno 17370 bound_to 10713
  157.0975  131.0186  151.3098 LP  0  0  0  0  0  0  0  0  0  0  0  0  # atno 17371 bound_to 10713
  140.2942  134.3205  155.7307 LP  0  0  0  0  0  0  0  0  0  0  0  0  # atno 17394 bound_to 11000
  141.2155  133.7553  156.9548 LP  0  0  0  0  0  0  0  0  0  0  0  0  # atno 17395 bound_to 11000

$$$$
