AV-unprocessed.smi:2755|AV-procd|sdf|10617|dock3
  -GOLD-   2272015 63D 1   1.00000     0.00000
 Structure written by MMmdl.
 32 32  0  0  0  0  0  0  0  0  1 V2000
  153.7642  141.3838  160.7902 C   0  0  0  0  0  0  0  0  0  0  0  0
  152.8578  142.6099  160.6347 C   0  0  0  0  0  0  0  0  0  0  0  0
  152.4874  142.8889  159.1710 C   0  0  0  0  0  0  0  0  0  0  0  0
  151.6084  141.7852  158.5657 C   0  0  0  0  0  0  0  0  0  0  0  0
  151.3045  142.0223  157.0806 C   0  0  0  0  0  0  0  0  0  0  0  0
  150.5358  140.9119  156.5380 N   0  0  0  0  0  0  0  0  0  0  0  0
  150.9732  140.0639  155.5930 C   0  0  0  0  0  0  0  0  0  0  0  0
  152.0966  140.1446  155.0976 O   0  0  0  0  0  0  0  0  0  0  0  0
  150.0247  138.9505  155.1159 C   0  0  0  0  0  0  0  0  0  0  0  0
  148.8146  139.4195  154.4335 N   0  0  0  0  0  0  0  0  0  0  0  0
  147.7847  138.5211  154.2875 N   0  0  0  0  0  0  0  0  0  0  0  0
  146.8284  139.1286  153.6783 C   0  0  0  0  0  0  0  0  0  0  0  0
  145.6072  138.5870  153.3334 N   0  0  0  0  0  0  0  0  0  0  0  0
  147.0401  140.8298  153.2089 S   0  0  0  0  0  0  0  0  0  0  0  0
  148.6558  140.7175  153.9355 C   0  0  0  0  0  0  0  0  0  0  0  0
  149.4498  141.6557  153.9726 O   0  0  0  0  0  0  0  0  0  0  0  0
  154.0098  141.2132  161.8385 H   0  0  0  0  0  0  0  0  0  0  0  0
  154.7001  141.5145  160.2462 H   0  0  0  0  0  0  0  0  0  0  0  0
  153.2783  140.4842  160.4117 H   0  0  0  0  0  0  0  0  0  0  0  0
  151.9499  142.4613  161.2203 H   0  0  0  0  0  0  0  0  0  0  0  0
  153.3588  143.4812  161.0581 H   0  0  0  0  0  0  0  0  0  0  0  0
  151.9658  143.8446  159.1055 H   0  0  0  0  0  0  0  0  0  0  0  0
  153.3977  142.9926  158.5790 H   0  0  0  0  0  0  0  0  0  0  0  0
  152.1042  140.8210  158.6860 H   0  0  0  0  0  0  0  0  0  0  0  0
  150.6716  141.7230  159.1214 H   0  0  0  0  0  0  0  0  0  0  0  0
  150.7442  142.9509  156.9579 H   0  0  0  0  0  0  0  0  0  0  0  0
  152.2324  142.1256  156.5161 H   0  0  0  0  0  0  0  0  0  0  0  0
  149.6023  140.7794  156.8996 H   0  0  0  0  0  0  0  0  0  0  0  0
  150.5789  138.2876  154.4495 H   0  0  0  0  0  0  0  0  0  0  0  0
  149.7474  138.3430  155.9791 H   0  0  0  0  0  0  0  0  0  0  0  0
  145.3455  137.6327  153.5351 H   0  0  0  0  0  0  0  0  0  0  0  0
  144.8863  139.1003  152.8468 H   0  0  0  0  0  0  0  0  0  0  0  0
  1  2  1  0  0  0  0
  1 17  1  0  0  0  0
  1 18  1  0  0  0  0
  1 19  1  0  0  0  0
  2  3  1  0  0  0  0
  2 20  1  0  0  0  0
  2 21  1  0  0  0  0
  3  4  1  0  0  0  0
  3 22  1  0  0  0  0
  3 23  1  0  0  0  0
  4  5  1  0  0  0  0
  4 24  1  0  0  0  0
  4 25  1  0  0  0  0
  5  6  1  0  0  0  0
  5 26  1  0  0  0  0
  5 27  1  0  0  0  0
  6  7  1  0  0  0  0
  6 28  1  0  0  0  0
  7  8  2  0  0  0  0
  7  9  1  0  0  0  0
  9 10  1  0  0  0  0
  9 29  1  0  0  0  0
  9 30  1  0  0  0  0
 10 15  1  0  0  0  0
 10 11  1  0  0  0  0
 11 12  2  0  0  0  0
 12 13  1  0  0  0  0
 12 14  1  0  0  0  0
 13 31  1  0  0  0  0
 13 32  1  0  0  0  0
 14 15  1  0  0  0  0
 15 16  2  0  0  0  0
M  END
> <s_m_source_file>
AV-unprocessed.smi

> <i_m_source_file_index>
2755

> <i_lp_mmshare_version>
43012

> <i_f3d_flags>
0

> <s_epik_input>
W0NIM11bQ0gyXVtDSDJdW0NIMl1bQ0gyXVtOSF1DKD1PKVtDSDJdbjFuYyhbTkgyXSlzYzE9Tw==

> <s_epik_cmdline>
J2VwaWtfcHl0aG9uJywgJy1waCcsICc3LjAnLCAnLXRuJywgJzgnLCAnLW1hJywgJzIwMCcsICctbWV0YWxfYmluZGluZycsICctaW1hZScsICc8aW5maWxlLm1hZT4nLCAnLW9tYWUnLCAnPG91dGZpbGUubWFlPic=

> <r_lp_tautomer_probability>
1

> <r_epik_Ionization_Penalty>
4.62415e-07

> <r_epik_Ionization_Penalty_Charging>
1.84682e-08

> <r_epik_Ionization_Penalty_Neutral>
4.43947e-07

> <r_epik_State_Penalty>
-0

> <r_epik_Charging_Adjusted_Penalty>
1.84682e-08

> <i_epik_Tot_Q>
0

> <i_epik_Tot_abs_Q>
0

> <r_epik_Metal_State_Penalty>
-0

> <b_epik_Metal_Only>
0

> <s_lp_Force_Field>
OPLS_2005

> <r_lp_Energy>
7.41943

> <b_lp_Chiralities_Consistent>
1

> <s_lp_Variant>
AV-unprocessed.smi:2755-1

> <Gold.Version>
5.8.1

> <Gold.Id.Protein>
6NUR|6NUR_protein|mol2

> <Gold.PLP.Fitness>
37.8857

> <Gold.PLP.PLP>
-31.8662

> <Gold.PLP.part.hbond>
-4.0000

> <Gold.PLP.part.metal>
0.0000

> <Gold.PLP.part.buried>
-1.0309

> <Gold.PLP.part.nonpolar>
-25.9604

> <Gold.PLP.part.repulsive>
0.4384

> <Gold.PLP.ligand.clash>
0.5406

> <Gold.PLP.ligand.torsion>
0.2540

> <Gold.PLP.Chemscore.Hbond>
2.3440

> <Gold.PLP.Chemscore.CHOScore>
0.0000

> <Gold.PLP.Chemscore.Metal>
0.0000

> <Gold.Chemscore.Hbonds>
donor molecule, donor type, donor heavy atom, donor atom, acceptor molecule, acceptor atom, score
      L1  H    13    32       P1 10175  1.00
      P1  H  7989  7998       L1     8  0.74
      P1  H  8011  8017       L1    16  0.61

> <Gold.PLP.Chemscore.Internal.Correction>
0.0362

> <Gold.Rescore>
     Score         DG    S(hbond)    S(metal)    S(lipo)     H(rot)  DE(clash)    DE(int)     intcor
     10.93     -13.98       2.45        0.00      64.02       2.81       0.30       2.76       ----

> <Gold.Chemscore.Fitness>
10.9256

> <Gold.Chemscore.DG>
-13.9845

> <Gold.Chemscore.ZeroCoef>
-5.4800

> <Gold.Chemscore.Hbond>
2.4549

> <Gold.Chemscore.Metal>
0.0000

> <Gold.Chemscore.Lipo>
64.0233

> <Gold.Chemscore.Internal_Hbond>
0.0000

> <Gold.Chemscore.DEClash>
0.3024

> <Gold.Chemscore.DEInternal>
2.7564

> <Gold.Chemscore.Rot>
2.8069

> <Gold.Chemscore.Internal.Correction>
   9.000000E+99

> <Gold.Chemscore.Hbonds>
donor molecule, donor type, donor heavy atom, donor atom, acceptor molecule, acceptor atom, score
      L1  H    13    32       P1 10175  1.00
      P1  H  7989  7998       L1     8  0.19
      P1  H  8011  8017       L1    16  0.54

> <Gold.Chemscore.Hbond.Weighted>
-8.1993

> <Gold.Chemscore.Metal.Weighted>
-0.0000

> <Gold.Chemscore.Lipo.Weighted>
-7.4907

> <Gold.Chemscore.Internal_Hbond.Weighted>
0.0000

> <Gold.Chemscore.DEClash.Weighted>
0.3024

> <Gold.Chemscore.DEInternal.Weighted>
2.7564

> <Gold.Chemscore.Rot.Weighted>
7.1856

> <Gold.Chemscore.Internal.Correction.Weighted>
   9.000000E+99

> <Gold.Protein.RotatedTorsions>
[ 6907 6896 6895 6894 ] final -139.25 input  -60.11 | X-H torsion
[ 7974 7965 7964 7962 ] final   24.30 input  175.53 | X-H torsion
[ 8008 7997 7996 7995 ] final  139.60 input   59.86 | X-H torsion
[ 10167 10162 10161 10158 ] final  -18.43 input  -65.29 | X-H torsion
[ 10718 10713 10712 10709 ] final  -39.66 input   66.30 | X-H torsion
[ 10763 10752 10751 10750 ] final   79.50 input  -60.55 | X-H torsion
[ 11005 11000 10999 10996 ] final    8.22 input  -57.11 | X-H torsion

> <Gold.Protein.ActiveResidues>
 VAL166  LYS551  ARG553  GLY616  TRP617  ASP618  TYR619  PRO620  LYS621  CYS622 
 ASP623  PHE694  ASN695  SER759  ASP760  ASP761  ALA762  ILE779  LEU786  VAL792 
 PHE793  MET794  SER795  GLU796  ALA797  LYS798  CYS799  TRP800  GLU811  SER814 

> <Gold.Protein.RotatedAtoms>
  151.0454  133.5670  159.2646 H   0  0  0  0  0  0  0  0  0  0  0  0  # atno 6907 bound_to 6896
  151.2701  135.0681  159.9140 H   0  0  0  0  0  0  0  0  0  0  0  0  # atno 6908 bound_to 6896
  152.5372  134.0185  159.8025 H   0  0  0  0  0  0  0  0  0  0  0  0  # atno 6909 bound_to 6896
  146.1944  139.7624  142.8808 H   0  0  0  0  0  0  0  0  0  0  0  0  # atno 7974 bound_to 7965
  156.2988  140.2363  156.4264 H   0  0  0  0  0  0  0  0  0  0  0  0  # atno 8008 bound_to 7997
  154.8309  140.0433  157.1496 H   0  0  0  0  0  0  0  0  0  0  0  0  # atno 8009 bound_to 7997
  154.9209  140.3003  155.5220 H   0  0  0  0  0  0  0  0  0  0  0  0  # atno 8010 bound_to 7997
  140.7258  143.4917  150.9983 H   0  0  0  0  0  0  0  0  0  0  0  0  # atno 10167 bound_to 10162
  156.2900  130.4227  149.8249 H   0  0  0  0  0  0  0  0  0  0  0  0  # atno 10718 bound_to 10713
  153.0958  135.4837  154.8775 H   0  0  0  0  0  0  0  0  0  0  0  0  # atno 10763 bound_to 10752
  154.7322  135.3063  154.8874 H   0  0  0  0  0  0  0  0  0  0  0  0  # atno 10764 bound_to 10752
  153.9507  135.6823  153.4797 H   0  0  0  0  0  0  0  0  0  0  0  0  # atno 10765 bound_to 10752
  140.5394  134.0389  155.7899 H   0  0  0  0  0  0  0  0  0  0  0  0  # atno 11005 bound_to 11000
  145.3691  141.0339  143.3241 LP  0  0  0  0  0  0  0  0  0  0  0  0  # atno 17320 bound_to 7965
  144.8550  139.5263  143.6838 LP  0  0  0  0  0  0  0  0  0  0  0  0  # atno 17321 bound_to 7965
  139.8622  143.7300  152.3172 LP  0  0  0  0  0  0  0  0  0  0  0  0  # atno 17342 bound_to 10162
  139.7519  144.7531  151.0493 LP  0  0  0  0  0  0  0  0  0  0  0  0  # atno 17343 bound_to 10162
  156.5665  130.8406  151.3344 LP  0  0  0  0  0  0  0  0  0  0  0  0  # atno 17370 bound_to 10713
  157.7339  130.9738  150.2004 LP  0  0  0  0  0  0  0  0  0  0  0  0  # atno 17371 bound_to 10713
  141.1236  133.9421  157.2681 LP  0  0  0  0  0  0  0  0  0  0  0  0  # atno 17394 bound_to 11000
  139.9512  135.0175  156.8998 LP  0  0  0  0  0  0  0  0  0  0  0  0  # atno 17395 bound_to 11000

$$$$
