AV-unprocessed.smi:2828|AV-procd|sdf|10897|dock3
  -GOLD-   2272015343D 1   1.00000     0.00000
 Structure written by MMmdl.
 38 39  0  0  0  0  0  0  0  0  1 V2000
  152.7805  144.7165  157.9984 C   0  0  0  0  0  0  0  0  0  0  0  0
  152.0252  144.3320  159.2709 C   0  0  0  0  0  0  0  0  0  0  0  0
  151.4534  145.6038  159.8832 C   0  0  0  0  0  0  0  0  0  0  0  0
  151.2142  143.0443  159.4115 C   0  0  0  0  0  0  0  0  0  0  0  0
  151.0982  142.1106  158.2499 C   0  0  0  0  0  0  0  0  0  0  0  0
  151.4728  140.9390  158.2990 O   0  0  0  0  0  0  0  0  0  0  0  0
  150.6214  142.6816  157.1331 N   0  0  0  0  0  0  0  0  0  0  0  0
  150.4372  141.9993  155.8577 C   0  0  0  0  0  0  0  0  0  0  0  0
  149.7692  140.6271  156.0396 C   0  0  0  0  0  0  0  0  0  0  0  0
  148.7912  140.3221  154.9550 C   0  0  0  0  0  0  0  0  0  0  0  0
  148.8409  139.3127  154.0887 N   0  0  0  0  0  0  0  0  0  0  0  0
  147.6864  139.5070  153.3968 C   0  0  0  0  0  0  0  0  0  0  0  0
  147.3202  138.6565  152.3407 N   0  0  0  0  0  0  0  0  0  0  0  0
  146.9420  140.5345  153.7832 N   0  0  0  0  0  0  0  0  0  0  0  0
  147.6761  141.0836  154.8447 O   0  0  0  0  0  0  0  0  0  0  0  0
  152.5374  143.1953  160.1569 C   0  0  0  0  0  0  0  0  0  0  0  0
  153.7934  142.4127  159.7728 C   0  0  0  0  0  0  0  0  0  0  0  0
  152.4946  143.3125  161.6745 C   0  0  0  0  0  0  0  0  0  0  0  0
  152.1186  145.2448  157.3114 H   0  0  0  0  0  0  0  0  0  0  0  0
  153.1780  143.8546  157.4665 H   0  0  0  0  0  0  0  0  0  0  0  0
  153.6158  145.3734  158.2427 H   0  0  0  0  0  0  0  0  0  0  0  0
  150.7893  145.3857  160.7185 H   0  0  0  0  0  0  0  0  0  0  0  0
  150.8736  146.1555  159.1426 H   0  0  0  0  0  0  0  0  0  0  0  0
  152.2585  146.2460  160.2413 H   0  0  0  0  0  0  0  0  0  0  0  0
  150.2977  143.1342  159.9920 H   0  0  0  0  0  0  0  0  0  0  0  0
  150.3598  143.6563  157.1730 H   0  0  0  0  0  0  0  0  0  0  0  0
  149.8509  142.6238  155.1812 H   0  0  0  0  0  0  0  0  0  0  0  0
  151.4171  141.8769  155.3955 H   0  0  0  0  0  0  0  0  0  0  0  0
  150.5241  139.8404  156.0579 H   0  0  0  0  0  0  0  0  0  0  0  0
  149.2474  140.5812  156.9963 H   0  0  0  0  0  0  0  0  0  0  0  0
  147.9140  137.8830  152.0788 H   0  0  0  0  0  0  0  0  0  0  0  0
  146.4560  138.8072  151.8408 H   0  0  0  0  0  0  0  0  0  0  0  0
  153.8174  141.4554  160.2942 H   0  0  0  0  0  0  0  0  0  0  0  0
  154.6845  142.9765  160.0503 H   0  0  0  0  0  0  0  0  0  0  0  0
  153.8474  142.2004  158.7069 H   0  0  0  0  0  0  0  0  0  0  0  0
  152.5987  142.3304  162.1366 H   0  0  0  0  0  0  0  0  0  0  0  0
  151.5510  143.7343  162.0184 H   0  0  0  0  0  0  0  0  0  0  0  0
  153.3063  143.9496  162.0273 H   0  0  0  0  0  0  0  0  0  0  0  0
  1  2  1  0  0  0  0
  1 19  1  0  0  0  0
  1 20  1  0  0  0  0
  1 21  1  0  0  0  0
  2 16  1  0  0  0  0
  2  3  1  0  0  0  0
  2  4  1  0  0  0  0
  3 22  1  0  0  0  0
  3 23  1  0  0  0  0
  3 24  1  0  0  0  0
  4  5  1  0  0  0  0
  4 16  1  0  0  0  0
  4 25  1  0  0  0  0
  5  6  2  0  0  0  0
  5  7  1  0  0  0  0
  7  8  1  0  0  0  0
  7 26  1  0  0  0  0
  8  9  1  0  0  0  0
  8 27  1  0  0  0  0
  8 28  1  0  0  0  0
  9 10  1  0  0  0  0
  9 29  1  0  0  0  0
  9 30  1  0  0  0  0
 10 15  1  0  0  0  0
 10 11  2  0  0  0  0
 11 12  1  0  0  0  0
 12 13  1  0  0  0  0
 12 14  2  0  0  0  0
 13 31  1  0  0  0  0
 13 32  1  0  0  0  0
 14 15  1  0  0  0  0
 16 17  1  0  0  0  0
 16 18  1  0  0  0  0
 17 33  1  0  0  0  0
 17 34  1  0  0  0  0
 17 35  1  0  0  0  0
 18 36  1  0  0  0  0
 18 37  1  0  0  0  0
 18 38  1  0  0  0  0
M  END
> <s_m_source_file>
AV-unprocessed.smi

> <i_m_source_file_index>
2828

> <i_lp_mmshare_version>
43012

> <i_f3d_flags>
0

> <s_epik_input>
W0NIM11DMShbQ0gzXSlbQ0hdKEMxKFtDSDNdKVtDSDNdKUMoPU8pW05IXVtDSDJdW0NIMl1jMm5jKFtOSDJdKW5vMg==

> <s_epik_cmdline>
J2VwaWtfcHl0aG9uJywgJy1waCcsICc3LjAnLCAnLXRuJywgJzgnLCAnLW1hJywgJzIwMCcsICctbWV0YWxfYmluZGluZycsICctaW1hZScsICc8aW5maWxlLm1hZT4nLCAnLW9tYWUnLCAnPG91dGZpbGUubWFlPic=

> <r_lp_tautomer_probability>
1

> <r_epik_Ionization_Penalty>
9.99855e-05

> <r_epik_Ionization_Penalty_Charging>
0

> <r_epik_Ionization_Penalty_Neutral>
9.99855e-05

> <r_epik_State_Penalty>
-0

> <r_epik_Charging_Adjusted_Penalty>
0

> <i_epik_Tot_Q>
0

> <i_epik_Tot_abs_Q>
0

> <r_epik_Metal_State_Penalty>
-0

> <b_epik_Metal_Only>
0

> <s_lp_Force_Field>
OPLS_2005

> <r_lp_Energy>
20.4222

> <b_lp_Chiralities_Consistent>
1

> <s_lp_Variant>
AV-unprocessed.smi:2828-1

> <Gold.Version>
5.8.1

> <Gold.Id.Protein>
6NUR|6NUR_protein|mol2

> <Gold.PLP.Fitness>
42.0693

> <Gold.PLP.PLP>
-39.5869

> <Gold.PLP.part.hbond>
-2.8262

> <Gold.PLP.part.metal>
0.0000

> <Gold.PLP.part.buried>
-4.4819

> <Gold.PLP.part.nonpolar>
-32.2594

> <Gold.PLP.part.repulsive>
0.6073

> <Gold.PLP.ligand.clash>
0.0000

> <Gold.PLP.ligand.torsion>
0.4483

> <Gold.PLP.Chemscore.Hbond>
1.0772

> <Gold.PLP.Chemscore.CHOScore>
0.0000

> <Gold.PLP.Chemscore.Metal>
0.0000

> <Gold.Chemscore.Hbonds>
donor molecule, donor type, donor heavy atom, donor atom, acceptor molecule, acceptor atom, score
      L1  H     7    26       P1  8028  0.10
      L1  H    13    31       P1  7948  1.00

> <Gold.PLP.Chemscore.Internal.Correction>
0.1474

> <Gold.Rescore>
     Score         DG    S(hbond)    S(metal)    S(lipo)     H(rot)  DE(clash)    DE(int)     intcor
     14.30     -16.19       1.62        0.00      95.04       2.28       0.08       1.81       ----

> <Gold.Chemscore.Fitness>
14.3041

> <Gold.Chemscore.DG>
-16.1858

> <Gold.Chemscore.ZeroCoef>
-5.4800

> <Gold.Chemscore.Hbond>
1.6235

> <Gold.Chemscore.Metal>
0.0000

> <Gold.Chemscore.Lipo>
95.0438

> <Gold.Chemscore.Internal_Hbond>
0.0000

> <Gold.Chemscore.DEClash>
0.0758

> <Gold.Chemscore.DEInternal>
1.8059

> <Gold.Chemscore.Rot>
2.2801

> <Gold.Chemscore.Internal.Correction>
   9.000000E+99

> <Gold.Chemscore.Hbonds>
donor molecule, donor type, donor heavy atom, donor atom, acceptor molecule, acceptor atom, score
      L1  H     7    26       P1  8028  0.11
      L1  H    13    31       P1  7948  0.99

> <Gold.Chemscore.Hbond.Weighted>
-5.4226

> <Gold.Chemscore.Metal.Weighted>
-0.0000

> <Gold.Chemscore.Lipo.Weighted>
-11.1201

> <Gold.Chemscore.Internal_Hbond.Weighted>
0.0000

> <Gold.Chemscore.DEClash.Weighted>
0.0758

> <Gold.Chemscore.DEInternal.Weighted>
1.8059

> <Gold.Chemscore.Rot.Weighted>
5.8370

> <Gold.Chemscore.Internal.Correction.Weighted>
   9.000000E+99

> <Gold.Protein.RotatedTorsions>
[ 6907 6896 6895 6894 ] final   65.47 input  -60.11 | X-H torsion
[ 7974 7965 7964 7962 ] final   76.88 input  175.53 | X-H torsion
[ 8008 7997 7996 7995 ] final   72.60 input   59.86 | X-H torsion
[ 10167 10162 10161 10158 ] final  -23.33 input  -65.29 | X-H torsion
[ 10718 10713 10712 10709 ] final  -34.28 input   66.30 | X-H torsion
[ 10763 10752 10751 10750 ] final    3.29 input  -60.55 | X-H torsion
[ 11005 11000 10999 10996 ] final  -50.92 input  -57.11 | X-H torsion

> <Gold.Protein.ActiveResidues>
 VAL166  LYS551  ARG553  GLY616  TRP617  ASP618  TYR619  PRO620  LYS621  CYS622 
 ASP623  PHE694  ASN695  SER759  ASP760  ASP761  ALA762  ILE779  LEU786  VAL792 
 PHE793  MET794  SER795  GLU796  ALA797  LYS798  CYS799  TRP800  GLU811  SER814 

> <Gold.Protein.RotatedAtoms>
  152.4410  134.5592  159.9888 H   0  0  0  0  0  0  0  0  0  0  0  0  # atno 6907 bound_to 6896
  151.5689  133.3387  159.2993 H   0  0  0  0  0  0  0  0  0  0  0  0  # atno 6908 bound_to 6896
  150.8316  134.7605  159.6922 H   0  0  0  0  0  0  0  0  0  0  0  0  # atno 6909 bound_to 6896
  145.6972  139.2571  143.1726 H   0  0  0  0  0  0  0  0  0  0  0  0  # atno 7974 bound_to 7965
  155.7713  140.3484  155.5248 H   0  0  0  0  0  0  0  0  0  0  0  0  # atno 8008 bound_to 7997
  155.8819  140.1003  157.1500 H   0  0  0  0  0  0  0  0  0  0  0  0  # atno 8009 bound_to 7997
  154.4025  140.1321  156.4195 H   0  0  0  0  0  0  0  0  0  0  0  0  # atno 8010 bound_to 7997
  140.7288  143.4453  151.0596 H   0  0  0  0  0  0  0  0  0  0  0  0  # atno 10167 bound_to 10162
  156.3525  130.4310  149.7692 H   0  0  0  0  0  0  0  0  0  0  0  0  # atno 10718 bound_to 10713
  153.2852  135.6944  153.7347 H   0  0  0  0  0  0  0  0  0  0  0  0  # atno 10763 bound_to 10752
  153.6319  135.3408  155.3045 H   0  0  0  0  0  0  0  0  0  0  0  0  # atno 10764 bound_to 10752
  154.8507  135.4411  154.1917 H   0  0  0  0  0  0  0  0  0  0  0  0  # atno 10765 bound_to 10752
  141.0843  133.6646  156.3801 H   0  0  0  0  0  0  0  0  0  0  0  0  # atno 11005 bound_to 11000
  146.0830  140.7742  142.9632 LP  0  0  0  0  0  0  0  0  0  0  0  0  # atno 17320 bound_to 7965
  144.6979  140.3518  143.7180 LP  0  0  0  0  0  0  0  0  0  0  0  0  # atno 17321 bound_to 7965
  139.8124  143.7932  152.3172 LP  0  0  0  0  0  0  0  0  0  0  0  0  # atno 17342 bound_to 10162
  139.7986  144.7382  150.9855 LP  0  0  0  0  0  0  0  0  0  0  0  0  # atno 17343 bound_to 10162
  156.4887  130.8075  151.3086 LP  0  0  0  0  0  0  0  0  0  0  0  0  # atno 17370 bound_to 10713
  157.7463  130.9982  150.2845 LP  0  0  0  0  0  0  0  0  0  0  0  0  # atno 17371 bound_to 10713
  140.5399  134.6130  157.5376 LP  0  0  0  0  0  0  0  0  0  0  0  0  # atno 17394 bound_to 11000
  139.9659  134.7374  156.0139 LP  0  0  0  0  0  0  0  0  0  0  0  0  # atno 17395 bound_to 11000

$$$$
