AV-unprocessed.smi:2078|AV-procd|sdf|8463|dock2
  -GOLD-   2272011163D 1   1.00000     0.00000
 Structure written by MMmdl.
 42 43  0  0  0  0  0  0  0  0  2 V2000
  153.4597  137.5850  157.6130 C   0  0  0  0  0  0  0  0  0  0  0  0
  152.4883  137.9606  156.5473 C   0  0  0  0  0  0  0  0  0  0  0  0
  151.4179  137.3160  155.9937 C   0  0  0  0  0  0  0  0  0  0  0  0
  150.9430  138.2504  155.0354 C   0  0  0  0  0  0  0  0  0  0  0  0
  149.8142  137.9566  154.2285 N   0  0  0  0  0  0  0  0  0  0  0  0
  148.6844  138.6748  154.1114 C   0  0  0  0  0  0  0  0  0  0  0  0
  148.4475  139.7287  154.7028 O   0  0  0  0  0  0  0  0  0  0  0  0
  147.8216  138.0981  153.2620 N   0  0  0  0  0  0  0  0  0  0  0  0
  146.5087  138.6349  152.9234 C   0  0  0  0  0  0  0  0  0  0  0  0
  145.7034  137.6511  152.0525 C   0  0  0  0  0  0  0  0  0  0  0  0
  146.1250  136.2425  152.2556 N   0  3  1  0  0  0  0  0  0  0  0  0
  145.9253  135.7930  153.6574 C   0  0  0  0  0  0  0  0  0  0  0  0
  146.4955  134.3822  153.8730 C   0  0  0  0  0  0  0  0  0  0  0  0
  145.8749  133.3830  152.8889 C   0  0  0  0  0  0  0  0  0  0  0  0
  146.0587  133.8740  151.4429 C   0  0  1  0  0  0  0  0  0  0  0  0
  145.4195  132.9067  150.4365 C   0  0  0  0  0  0  0  0  0  0  0  0
  145.4983  135.3023  151.2873 C   0  0  0  0  0  0  0  0  0  0  0  0
  151.6588  139.3641  155.0060 N   0  0  0  0  0  0  0  0  0  0  0  0
  152.6528  139.1839  155.9750 O   0  0  0  0  0  0  0  0  0  0  0  0
  153.2646  136.5777  157.9814 H   0  0  0  0  0  0  0  0  0  0  0  0
  153.3925  138.2727  158.4561 H   0  0  0  0  0  0  0  0  0  0  0  0
  154.4809  137.6139  157.2327 H   0  0  0  0  0  0  0  0  0  0  0  0
  151.0385  136.3347  156.2384 H   0  0  0  0  0  0  0  0  0  0  0  0
  149.8738  137.1087  153.6846 H   0  0  0  0  0  0  0  0  0  0  0  0
  148.0943  137.2348  152.8148 H   0  0  0  0  0  0  0  0  0  0  0  0
  145.9791  138.8845  153.8433 H   0  0  0  0  0  0  0  0  0  0  0  0
  146.6534  139.5723  152.3860 H   0  0  0  0  0  0  0  0  0  0  0  0
  144.6503  137.7563  152.3173 H   0  0  0  0  0  0  0  0  0  0  0  0
  145.7784  137.9038  150.9935 H   0  0  0  0  0  0  0  0  0  0  0  0
  146.4185  136.4842  154.3419 H   0  0  0  0  0  0  0  0  0  0  0  0
  144.8613  135.8116  153.8990 H   0  0  0  0  0  0  0  0  0  0  0  0
  147.5787  134.3999  153.7446 H   0  0  0  0  0  0  0  0  0  0  0  0
  146.3112  134.0584  154.8978 H   0  0  0  0  0  0  0  0  0  0  0  0
  146.3335  132.4018  153.0177 H   0  0  0  0  0  0  0  0  0  0  0  0
  144.8132  133.2625  153.1101 H   0  0  0  0  0  0  0  0  0  0  0  0
  147.1288  133.9071  151.2312 H   0  0  0  0  0  0  0  0  0  0  0  0
  144.3428  132.8268  150.5907 H   0  0  0  0  0  0  0  0  0  0  0  0
  145.8439  131.9066  150.5293 H   0  0  0  0  0  0  0  0  0  0  0  0
  145.5849  133.2397  149.4115 H   0  0  0  0  0  0  0  0  0  0  0  0
  144.4166  135.3009  151.4323 H   0  0  0  0  0  0  0  0  0  0  0  0
  145.6760  135.6426  150.2679 H   0  0  0  0  0  0  0  0  0  0  0  0
  147.1211  136.2154  152.0919 H   0  0  0  0  0  0  0  0  0  0  0  0
  1  2  1  0  0  0  0
  1 20  1  0  0  0  0
  1 21  1  0  0  0  0
  1 22  1  0  0  0  0
  2 19  1  0  0  0  0
  2  3  2  0  0  0  0
  3  4  1  0  0  0  0
  3 23  1  0  0  0  0
  4  5  1  0  0  0  0
  4 18  2  0  0  0  0
  5  6  1  0  0  0  0
  5 24  1  0  0  0  0
  6  7  2  0  0  0  0
  6  8  1  0  0  0  0
  8  9  1  0  0  0  0
  8 25  1  0  0  0  0
  9 10  1  0  0  0  0
  9 26  1  0  0  0  0
  9 27  1  0  0  0  0
 10 11  1  0  0  0  0
 10 28  1  0  0  0  0
 10 29  1  0  0  0  0
 11 17  1  0  0  0  0
 11 12  1  0  0  0  0
 11 42  1  0  0  0  0
 12 13  1  0  0  0  0
 12 30  1  0  0  0  0
 12 31  1  0  0  0  0
 13 14  1  0  0  0  0
 13 32  1  0  0  0  0
 13 33  1  0  0  0  0
 14 15  1  0  0  0  0
 14 34  1  0  0  0  0
 14 35  1  0  0  0  0
 15 16  1  0  0  0  0
 15 17  1  0  0  0  0
 15 36  1  0  0  0  0
 16 37  1  0  0  0  0
 16 38  1  0  0  0  0
 16 39  1  0  0  0  0
 17 40  1  0  0  0  0
 17 41  1  0  0  0  0
 18 19  1  0  0  0  0
M  CHG  1  11   1
M  END
> <s_m_source_file>
AV-unprocessed.smi

> <i_m_source_file_index>
2078

> <i_lp_mmshare_version>
43012

> <i_f3d_flags>
0

> <s_epik_input>
W0NIM11jMVtjSF1jKG5vMSlbTkhdQyg9TylbTkhdW0NIMl1bQ0gyXU4yW0NIMl1bQ0gyXVtDSDJdW0NAQEhdKFtDSDNdKVtDSDJdMg==

> <s_epik_cmdline>
J2VwaWtfcHl0aG9uJywgJy1waCcsICc3LjAnLCAnLXRuJywgJzgnLCAnLW1hJywgJzIwMCcsICctbWV0YWxfYmluZGluZycsICctaW1hZScsICc8aW5maWxlLm1hZT4nLCAnLW9tYWUnLCAnPG91dGZpbGUubWFlPic=

> <r_epik_Ionization_Penalty>
0.00216453

> <r_epik_Ionization_Penalty_Charging>
0.00212879

> <r_epik_Ionization_Penalty_Neutral>
3.57418e-05

> <r_epik_State_Penalty>
0.00146033

> <r_epik_Charging_Adjusted_Penalty>
0.00358912

> <i_epik_Tot_Q>
1

> <i_epik_Tot_abs_Q>
1

> <r_epik_Metal_State_Penalty>
0.0215827

> <b_epik_Metal_Only>
0

> <s_lp_Force_Field>
OPLS_2005

> <r_lp_Energy>
12.7312

> <b_lp_Chiralities_Consistent>
1

> <s_lp_Variant>
AV-unprocessed.smi:2078-1

> <Gold.Version>
5.8.1

> <Gold.Id.Protein>
6NUR|6NUR_protein|mol2

> <Gold.PLP.Fitness>
44.6454

> <Gold.PLP.PLP>
-28.8321

> <Gold.PLP.part.hbond>
-5.3687

> <Gold.PLP.part.metal>
0.0000

> <Gold.PLP.part.buried>
-2.4809

> <Gold.PLP.part.nonpolar>
-21.8342

> <Gold.PLP.part.repulsive>
0.2833

> <Gold.PLP.ligand.clash>
0.0000

> <Gold.PLP.ligand.torsion>
0.7884

> <Gold.PLP.Chemscore.Hbond>
5.7862

> <Gold.PLP.Chemscore.CHOScore>
0.0000

> <Gold.PLP.Chemscore.Metal>
0.0000

> <Gold.Chemscore.Hbonds>
donor molecule, donor type, donor heavy atom, donor atom, acceptor molecule, acceptor atom, score
      L1  H     5    24       P1  7948  0.48
      L1  H     8    25       P1  7948  1.00
      L1  H    11    42       P1  7948  2.00
      P1  H  7989  7998       L1    18  0.76
      P1  H  7997  8008       L1    19  0.68

> <Gold.PLP.Chemscore.Internal.Correction>
0.0313

> <Gold.Rescore>
     Score         DG    S(hbond)    S(metal)    S(lipo)     H(rot)  DE(clash)    DE(int)     intcor
     21.09     -21.85       4.12        0.00      56.60       1.57       0.03       0.74       ----

> <Gold.Chemscore.Fitness>
21.0853

> <Gold.Chemscore.DG>
-21.8522

> <Gold.Chemscore.ZeroCoef>
-5.4800

> <Gold.Chemscore.Hbond>
4.1224

> <Gold.Chemscore.Metal>
0.0000

> <Gold.Chemscore.Lipo>
56.5962

> <Gold.Chemscore.Internal_Hbond>
0.0000

> <Gold.Chemscore.DEClash>
0.0294

> <Gold.Chemscore.DEInternal>
0.7375

> <Gold.Chemscore.Rot>
1.5697

> <Gold.Chemscore.Internal.Correction>
   9.000000E+99

> <Gold.Chemscore.Hbonds>
donor molecule, donor type, donor heavy atom, donor atom, acceptor molecule, acceptor atom, score
      L1  H     5    24       P1  7948  0.26
      L1  H     8    25       P1  7948  0.98
      L1  H    11    42       P1  7948  1.00
      P1  H  7989  7998       L1    18  0.75
      P1  H  7997  8008       L1    19  0.66

> <Gold.Chemscore.Hbond.Weighted>
-13.7689

> <Gold.Chemscore.Metal.Weighted>
-0.0000

> <Gold.Chemscore.Lipo.Weighted>
-6.6218

> <Gold.Chemscore.Internal_Hbond.Weighted>
0.0000

> <Gold.Chemscore.DEClash.Weighted>
0.0294

> <Gold.Chemscore.DEInternal.Weighted>
0.7375

> <Gold.Chemscore.Rot.Weighted>
4.0185

> <Gold.Chemscore.Internal.Correction.Weighted>
   9.000000E+99

> <Gold.Protein.RotatedTorsions>
[ 6907 6896 6895 6894 ] final    5.61 input  -60.11 | X-H torsion
[ 7974 7965 7964 7962 ] final  101.13 input  175.53 | X-H torsion
[ 8008 7997 7996 7995 ] final  -10.84 input   59.86 | X-H torsion
[ 10167 10162 10161 10158 ] final  151.14 input  -65.29 | X-H torsion
[ 10718 10713 10712 10709 ] final   85.11 input   66.30 | X-H torsion
[ 10763 10752 10751 10750 ] final   45.27 input  -60.55 | X-H torsion
[ 11005 11000 10999 10996 ] final  152.81 input  -57.11 | X-H torsion

> <Gold.Protein.ActiveResidues>
 VAL166  LYS551  ARG553  GLY616  TRP617  ASP618  TYR619  PRO620  LYS621  CYS622 
 ASP623  PHE694  ASN695  SER759  ASP760  ASP761  ALA762  ILE779  LEU786  VAL792 
 PHE793  MET794  SER795  GLU796  ALA797  LYS798  CYS799  TRP800  GLU811  SER814 

> <Gold.Protein.RotatedAtoms>
  151.6603  135.0990  160.0177 H   0  0  0  0  0  0  0  0  0  0  0  0  # atno 6907 bound_to 6896
  152.3951  133.6730  159.6278 H   0  0  0  0  0  0  0  0  0  0  0  0  # atno 6908 bound_to 6896
  150.7859  133.8805  159.3325 H   0  0  0  0  0  0  0  0  0  0  0  0  # atno 6909 bound_to 6896
  145.3763  139.2388  143.3427 H   0  0  0  0  0  0  0  0  0  0  0  0  # atno 7974 bound_to 7965
  154.5518  140.2318  155.8472 H   0  0  0  0  0  0  0  0  0  0  0  0  # atno 8008 bound_to 7997
  156.1954  140.3066  155.9376 H   0  0  0  0  0  0  0  0  0  0  0  0  # atno 8009 bound_to 7997
  155.3055  140.0433  157.3022 H   0  0  0  0  0  0  0  0  0  0  0  0  # atno 8010 bound_to 7997
  139.4843  144.5465  151.7474 H   0  0  0  0  0  0  0  0  0  0  0  0  # atno 10167 bound_to 10162
  157.6909  131.0161  150.2773 H   0  0  0  0  0  0  0  0  0  0  0  0  # atno 10718 bound_to 10713
  152.9827  135.6045  154.3409 H   0  0  0  0  0  0  0  0  0  0  0  0  # atno 10763 bound_to 10752
  154.3106  135.2771  155.2569 H   0  0  0  0  0  0  0  0  0  0  0  0  # atno 10764 bound_to 10752
  154.4781  135.5924  153.6425 H   0  0  0  0  0  0  0  0  0  0  0  0  # atno 10765 bound_to 10752
  140.1341  134.8782  157.2243 H   0  0  0  0  0  0  0  0  0  0  0  0  # atno 11005 bound_to 11000
  146.2862  140.4423  142.8757 LP  0  0  0  0  0  0  0  0  0  0  0  0  # atno 17320 bound_to 7965
  144.8539  140.7042  143.6150 LP  0  0  0  0  0  0  0  0  0  0  0  0  # atno 17321 bound_to 7965
  140.5013  144.1165  150.5971 LP  0  0  0  0  0  0  0  0  0  0  0  0  # atno 17342 bound_to 10162
  140.4059  143.2680  151.9891 LP  0  0  0  0  0  0  0  0  0  0  0  0  # atno 17343 bound_to 10162
  156.3325  130.3802  149.7478 LP  0  0  0  0  0  0  0  0  0  0  0  0  # atno 17370 bound_to 10713
  156.5013  130.8130  151.3133 LP  0  0  0  0  0  0  0  0  0  0  0  0  # atno 17371 bound_to 10713
  140.2805  134.3356  155.7345 LP  0  0  0  0  0  0  0  0  0  0  0  0  # atno 17394 bound_to 11000
  141.2175  133.7475  156.9356 LP  0  0  0  0  0  0  0  0  0  0  0  0  # atno 17395 bound_to 11000

$$$$
