AV-unprocessed.smi:236|AV-procd|sdf|1811|dock7
  -GOLD-   2262020393D 1   1.00000     0.00000
 Structure written by MMmdl.
 58 62  0  0  0  0  0  0  0  0  1 V2000
  143.6961  138.7335  157.7328 C   0  0  0  0  0  0  0  0  0  0  0  0
  143.2831  140.2104  157.6308 C   0  0  2  0  0  0  0  0  0  0  0  0
  141.9671  140.3730  158.1470 O   0  0  0  0  0  0  0  0  0  0  0  0
  141.4088  141.5332  157.5578 C   0  0  0  0  0  0  0  0  0  0  0  0
  141.8349  141.3911  156.1052 C   0  0  0  0  0  0  0  0  0  0  0  0
  143.2587  140.8365  156.2086 C   0  0  2  0  0  0  0  0  0  0  0  0
  143.4299  139.8662  155.1887 O   0  0  0  0  0  0  0  0  0  0  0  0
  144.3657  141.9121  156.0558 C   0  0  0  0  0  0  0  0  0  0  0  0
  145.7121  141.4329  156.3331 N   0  0  0  0  0  0  0  0  0  0  0  0
  146.1950  140.9749  157.5388 C   0  0  0  0  0  0  0  0  0  0  0  0
  147.4475  140.6079  157.5344 N   0  0  0  0  0  0  0  0  0  0  0  0
  147.8649  140.8441  156.2301 C   0  0  0  0  0  0  0  0  0  0  0  0
  149.0956  140.6834  155.5328 C   0  0  0  0  0  0  0  0  0  0  0  0
  150.2357  140.2110  156.0774 N   0  0  0  0  0  0  0  0  0  0  0  0
  151.3482  140.1483  155.1392 C   0  0  0  0  0  0  0  0  0  0  0  0
  152.5520  139.4622  155.8046 C   0  0  0  0  0  0  0  0  0  0  0  0
  152.8792  140.1459  157.0109 O   0  0  0  0  0  0  0  0  0  0  0  0
  151.8137  140.1200  157.9597 C   0  0  1  0  0  0  0  0  0  0  0  0
  152.2931  140.8147  159.2406 C   0  0  0  0  0  0  0  0  0  0  0  0
  152.3285  142.2156  159.0238 O   0  0  0  0  0  0  0  0  0  0  0  0
  152.2986  142.9562  160.2317 C   0  0  0  0  0  0  0  0  0  0  0  0
  152.1424  144.4265  159.9062 C   0  0  0  0  0  0  0  0  0  0  0  0
  150.8476  144.9635  159.3381 C   0  0  0  0  0  0  0  0  0  0  0  0
  152.0741  144.8818  158.4660 C   0  0  0  0  0  0  0  0  0  0  0  0
  150.5966  140.8369  157.3430 C   0  0  0  0  0  0  0  0  0  0  0  0
  149.1383  141.0374  154.2253 N   0  0  0  0  0  0  0  0  0  0  0  0
  148.0440  141.5194  153.6285 C   0  0  0  0  0  0  0  0  0  0  0  0
  146.8310  141.7243  154.1468 N   0  0  0  0  0  0  0  0  0  0  0  0
  146.7869  141.3684  155.4632 C   0  0  0  0  0  0  0  0  0  0  0  0
  144.7031  138.5795  157.3443 H   0  0  0  0  0  0  0  0  0  0  0  0
  143.0154  138.0885  157.1766 H   0  0  0  0  0  0  0  0  0  0  0  0
  143.6882  138.4013  158.7709 H   0  0  0  0  0  0  0  0  0  0  0  0
  143.9421  140.7944  158.2753 H   0  0  0  0  0  0  0  0  0  0  0  0
  140.3259  141.5672  157.6786 H   0  0  0  0  0  0  0  0  0  0  0  0
  141.8399  142.4277  158.0102 H   0  0  0  0  0  0  0  0  0  0  0  0
  141.1740  140.6680  155.6240 H   0  0  0  0  0  0  0  0  0  0  0  0
  141.7482  142.3234  155.5499 H   0  0  0  0  0  0  0  0  0  0  0  0
  143.6777  140.3103  154.3924 H   0  0  0  0  0  0  0  0  0  0  0  0
  144.3538  142.3206  155.0444 H   0  0  0  0  0  0  0  0  0  0  0  0
  144.1637  142.7516  156.7224 H   0  0  0  0  0  0  0  0  0  0  0  0
  145.5838  140.9190  158.4281 H   0  0  0  0  0  0  0  0  0  0  0  0
  151.0510  139.5991  154.2446 H   0  0  0  0  0  0  0  0  0  0  0  0
  151.6252  141.1553  154.8242 H   0  0  0  0  0  0  0  0  0  0  0  0
  152.3369  138.4133  156.0143 H   0  0  0  0  0  0  0  0  0  0  0  0
  153.4139  139.4841  155.1376 H   0  0  0  0  0  0  0  0  0  0  0  0
  151.5476  139.0867  158.1909 H   0  0  0  0  0  0  0  0  0  0  0  0
  151.6388  140.5651  160.0776 H   0  0  0  0  0  0  0  0  0  0  0  0
  153.2972  140.4710  159.4943 H   0  0  0  0  0  0  0  0  0  0  0  0
  151.4545  142.6399  160.8464 H   0  0  0  0  0  0  0  0  0  0  0  0
  153.2121  142.7972  160.8071 H   0  0  0  0  0  0  0  0  0  0  0  0
  152.6870  145.0861  160.5794 H   0  0  0  0  0  0  0  0  0  0  0  0
  150.0451  144.2551  159.1430 H   0  0  0  0  0  0  0  0  0  0  0  0
  150.5279  145.9506  159.6661 H   0  0  0  0  0  0  0  0  0  0  0  0
  152.5724  145.8147  158.2103 H   0  0  0  0  0  0  0  0  0  0  0  0
  152.0892  144.1181  157.6910 H   0  0  0  0  0  0  0  0  0  0  0  0
  150.8302  141.8903  157.1843 H   0  0  0  0  0  0  0  0  0  0  0  0
  149.7486  140.7934  158.0280 H   0  0  0  0  0  0  0  0  0  0  0  0
  148.1571  141.7805  152.5867 H   0  0  0  0  0  0  0  0  0  0  0  0
  1  2  1  0  0  0  0
  1 30  1  0  0  0  0
  1 31  1  0  0  0  0
  1 32  1  0  0  0  0
  2  6  1  0  0  0  0
  2  3  1  0  0  0  0
  2 33  1  0  0  0  0
  3  4  1  0  0  0  0
  4  5  1  0  0  0  0
  4 34  1  0  0  0  0
  4 35  1  0  0  0  0
  5  6  1  0  0  0  0
  5 36  1  0  0  0  0
  5 37  1  0  0  0  0
  6  7  1  0  0  0  0
  6  8  1  0  0  0  0
  7 38  1  0  0  0  0
  8  9  1  0  0  0  0
  8 39  1  0  0  0  0
  8 40  1  0  0  0  0
  9 29  1  0  0  0  0
  9 10  1  0  0  0  0
 10 11  2  0  0  0  0
 10 41  1  0  0  0  0
 11 12  1  0  0  0  0
 12 29  2  0  0  0  0
 12 13  1  0  0  0  0
 13 14  1  0  0  0  0
 13 26  2  0  0  0  0
 14 25  1  0  0  0  0
 14 15  1  0  0  0  0
 15 16  1  0  0  0  0
 15 42  1  0  0  0  0
 15 43  1  0  0  0  0
 16 17  1  0  0  0  0
 16 44  1  0  0  0  0
 16 45  1  0  0  0  0
 17 18  1  0  0  0  0
 18 19  1  0  0  0  0
 18 25  1  0  0  0  0
 18 46  1  0  0  0  0
 19 20  1  0  0  0  0
 19 47  1  0  0  0  0
 19 48  1  0  0  0  0
 20 21  1  0  0  0  0
 21 22  1  0  0  0  0
 21 49  1  0  0  0  0
 21 50  1  0  0  0  0
 22 24  1  0  0  0  0
 22 23  1  0  0  0  0
 22 51  1  0  0  0  0
 23 24  1  0  0  0  0
 23 52  1  0  0  0  0
 23 53  1  0  0  0  0
 24 54  1  0  0  0  0
 24 55  1  0  0  0  0
 25 56  1  0  0  0  0
 25 57  1  0  0  0  0
 26 27  1  0  0  0  0
 27 28  2  0  0  0  0
 27 58  1  0  0  0  0
 28 29  1  0  0  0  0
M  END
> <s_m_source_file>
AV-unprocessed.smi

> <i_m_source_file_index>
236

> <i_lp_mmshare_version>
43012

> <i_f3d_flags>
0

> <s_epik_input>
W0NIMl0xW0NIMl1PW0NAQEhdKFtDSDNdKVtDQEBdMShbT0hdKVtDSDJdbihbY0hdbjIpYyhjMjMpbltjSF1uYzNONFtDSDJdW0NIMl1PW0NASF0oW0NIMl00KVtDSDJdT1tDSDJdW0NIXTVbQ0gyXVtDSDJdNQ==

> <s_epik_cmdline>
J2VwaWtfcHl0aG9uJywgJy1waCcsICc3LjAnLCAnLXRuJywgJzgnLCAnLW1hJywgJzIwMCcsICctbWV0YWxfYmluZGluZycsICctaW1hZScsICc8aW5maWxlLm1hZT4nLCAnLW9tYWUnLCAnPG91dGZpbGUubWFlPic=

> <r_lp_tautomer_probability>
1

> <r_epik_Ionization_Penalty>
7.21838e-05

> <r_epik_Ionization_Penalty_Charging>
0

> <r_epik_Ionization_Penalty_Neutral>
7.21838e-05

> <r_epik_State_Penalty>
-0

> <r_epik_Charging_Adjusted_Penalty>
0

> <i_epik_Tot_Q>
0

> <i_epik_Tot_abs_Q>
0

> <r_epik_Metal_State_Penalty>
-0

> <b_epik_Metal_Only>
0

> <s_lp_Force_Field>
OPLS_2005

> <r_lp_Energy>
49.5811

> <b_lp_Chiralities_Consistent>
1

> <s_lp_Variant>
AV-unprocessed.smi:236-3

> <Gold.Version>
5.8.1

> <Gold.Id.Protein>
6NUR|6NUR_protein|mol2

> <Gold.PLP.Fitness>
48.9856

> <Gold.PLP.PLP>
-41.1465

> <Gold.PLP.part.hbond>
-2.0000

> <Gold.PLP.part.metal>
0.0000

> <Gold.PLP.part.buried>
-5.9335

> <Gold.PLP.part.nonpolar>
-33.0046

> <Gold.PLP.part.repulsive>
0.3429

> <Gold.PLP.ligand.clash>
0.0000

> <Gold.PLP.ligand.torsion>
0.7773

> <Gold.PLP.Chemscore.Hbond>
1.9600

> <Gold.PLP.Chemscore.CHOScore>
0.8872

> <Gold.PLP.Chemscore.Metal>
0.0000

> <Gold.Chemscore.Hbonds>
donor molecule, donor type, donor heavy atom, donor atom, acceptor molecule, acceptor atom, score
      L1  H     7    38       P1 10175  1.00
      P1  H  7997  8008       L1    17  0.65
      L1  C    27    58       P1  7957  0.49

> <Gold.PLP.Chemscore.Internal.Correction>
0.8522

> <Gold.Rescore>
     Score         DG    S(hbond)    S(metal)    S(lipo)     H(rot)  DE(clash)    DE(int)     intcor
     13.42     -14.61       1.82        0.00      88.83       2.87       0.23       0.96       ----

> <Gold.Chemscore.Fitness>
13.4216

> <Gold.Chemscore.DG>
-14.6065

> <Gold.Chemscore.ZeroCoef>
-5.4800

> <Gold.Chemscore.Hbond>
1.8170

> <Gold.Chemscore.Metal>
0.0000

> <Gold.Chemscore.Lipo>
88.8332

> <Gold.Chemscore.Internal_Hbond>
0.0000

> <Gold.Chemscore.DEClash>
0.2251

> <Gold.Chemscore.DEInternal>
0.9598

> <Gold.Chemscore.Rot>
2.8655

> <Gold.Chemscore.Internal.Correction>
   9.000000E+99

> <Gold.Chemscore.Hbonds>
donor molecule, donor type, donor heavy atom, donor atom, acceptor molecule, acceptor atom, score
      L1  H     7    38       P1 10175  0.95
      P1  H  7997  8008       L1    17  0.05

> <Gold.Chemscore.Hbond.Weighted>
-6.0688

> <Gold.Chemscore.Metal.Weighted>
-0.0000

> <Gold.Chemscore.Lipo.Weighted>
-10.3935

> <Gold.Chemscore.Internal_Hbond.Weighted>
0.0000

> <Gold.Chemscore.DEClash.Weighted>
0.2251

> <Gold.Chemscore.DEInternal.Weighted>
0.9598

> <Gold.Chemscore.Rot.Weighted>
7.3358

> <Gold.Chemscore.Internal.Correction.Weighted>
   9.000000E+99

> <Gold.Protein.RotatedTorsions>
[ 6907 6896 6895 6894 ] final    7.00 input  -60.11 | X-H torsion
[ 7974 7965 7964 7962 ] final -162.88 input  175.53 | X-H torsion
[ 8008 7997 7996 7995 ] final  -66.46 input   59.86 | X-H torsion
[ 10167 10162 10161 10158 ] final  102.07 input  -65.29 | X-H torsion
[ 10718 10713 10712 10709 ] final -101.60 input   66.30 | X-H torsion
[ 10763 10752 10751 10750 ] final  -86.41 input  -60.55 | X-H torsion
[ 11005 11000 10999 10996 ] final   69.53 input  -57.11 | X-H torsion

> <Gold.Protein.ActiveResidues>
 VAL166  LYS551  ARG553  GLY616  TRP617  ASP618  TYR619  PRO620  LYS621  CYS622 
 ASP623  PHE694  ASN695  SER759  ASP760  ASP761  ALA762  ILE779  LEU786  VAL792 
 PHE793  MET794  SER795  GLU796  ALA797  LYS798  CYS799  TRP800  GLU811  SER814 

> <Gold.Protein.RotatedAtoms>
  151.6828  135.0959  160.0218 H   0  0  0  0  0  0  0  0  0  0  0  0  # atno 6907 bound_to 6896
  152.3825  133.6561  159.6181 H   0  0  0  0  0  0  0  0  0  0  0  0  # atno 6908 bound_to 6896
  150.7758  133.9006  159.3381 H   0  0  0  0  0  0  0  0  0  0  0  0  # atno 6909 bound_to 6896
  144.7343  140.3188  143.6174 H   0  0  0  0  0  0  0  0  0  0  0  0  # atno 7974 bound_to 7965
  154.4736  140.0912  156.7207 H   0  0  0  0  0  0  0  0  0  0  0  0  # atno 8008 bound_to 7997
  155.4657  140.3462  155.4300 H   0  0  0  0  0  0  0  0  0  0  0  0  # atno 8009 bound_to 7997
  156.1080  140.1440  156.9366 H   0  0  0  0  0  0  0  0  0  0  0  0  # atno 8010 bound_to 7997
  139.7382  144.7018  151.0616 H   0  0  0  0  0  0  0  0  0  0  0  0  # atno 10167 bound_to 10162
  156.0200  130.5381  150.6987 H   0  0  0  0  0  0  0  0  0  0  0  0  # atno 10718 bound_to 10713
  154.6221  135.5450  153.7586 H   0  0  0  0  0  0  0  0  0  0  0  0  # atno 10763 bound_to 10752
  153.0243  135.6415  154.1425 H   0  0  0  0  0  0  0  0  0  0  0  0  # atno 10764 bound_to 10752
  154.1359  135.2911  155.3153 H   0  0  0  0  0  0  0  0  0  0  0  0  # atno 10765 bound_to 10752
  139.9649  134.6999  156.0568 H   0  0  0  0  0  0  0  0  0  0  0  0  # atno 11005 bound_to 11000
  145.7590  139.1818  143.2278 LP  0  0  0  0  0  0  0  0  0  0  0  0  # atno 17320 bound_to 7965
  146.1002  140.7553  142.9553 LP  0  0  0  0  0  0  0  0  0  0  0  0  # atno 17321 bound_to 7965
  140.7782  143.4957  150.9835 LP  0  0  0  0  0  0  0  0  0  0  0  0  # atno 17342 bound_to 10162
  139.8646  143.7271  152.3171 LP  0  0  0  0  0  0  0  0  0  0  0  0  # atno 17343 bound_to 10162
  157.4652  131.0887  151.0702 LP  0  0  0  0  0  0  0  0  0  0  0  0  # atno 17370 bound_to 10713
  157.1179  130.6049  149.5497 LP  0  0  0  0  0  0  0  0  0  0  0  0  # atno 17371 bound_to 10713
  141.1328  133.6582  156.3510 LP  0  0  0  0  0  0  0  0  0  0  0  0  # atno 17394 bound_to 11000
  140.5419  134.6112  157.5382 LP  0  0  0  0  0  0  0  0  0  0  0  0  # atno 17395 bound_to 11000

$$$$
