AV-unprocessed.smi:3348|AV-procd|sdf|12920|dock8
  -GOLD-   2272019343D 1   1.00000     0.00000
 Structure written by MMmdl.
 47 48  0  0  0  0  0  0  0  0  2 V2000
  144.7267  135.4460  154.1319 C   0  0  0  0  0  0  0  0  0  0  0  0
  145.8565  135.4165  153.0942 C   0  0  1  0  0  0  0  0  0  0  0  0
  145.3028  135.1695  151.6764 C   0  0  0  0  0  0  0  0  0  0  0  0
  145.0970  133.7593  151.3961 N   0  0  0  0  0  0  0  0  0  0  0  0
  143.9068  133.0839  151.2257 C   0  0  0  0  0  0  0  0  0  0  0  0
  144.2137  131.7741  150.9923 C   0  0  0  0  0  0  0  0  0  0  0  0
  145.6356  131.7457  151.0374 C   0  0  0  0  0  0  0  0  0  0  0  0
  146.1616  132.9354  151.2809 N   0  0  0  0  0  0  0  0  0  0  0  0
  146.6101  136.6890  153.1482 N   0  3  0  0  0  0  0  0  0  0  0  0
  145.9113  137.8497  152.5594 C   0  0  0  0  0  0  0  0  0  0  0  0
  146.8756  139.0214  152.3588 C   0  0  0  0  0  0  0  0  0  0  0  0
  147.0468  139.6853  153.6013 O   0  0  0  0  0  0  0  0  0  0  0  0
  147.9825  140.7578  153.5698 C   0  0  2  0  0  0  0  0  0  0  0  0
  149.3254  140.2248  154.1029 C   0  0  0  0  0  0  0  0  0  0  0  0
  149.2442  139.8480  155.5918 C   0  0  0  0  0  0  0  0  0  0  0  0
  148.7418  141.0272  156.4379 C   0  0  0  0  0  0  0  0  0  0  0  0
  147.3932  141.5511  155.9195 C   0  0  0  0  0  0  0  0  0  0  0  0
  147.4710  141.9385  154.4293 C   0  0  2  0  0  0  0  0  0  0  0  0
  146.1378  142.5080  153.9204 C   0  0  0  0  0  0  0  0  0  0  0  0
  144.1723  134.5071  154.1358 H   0  0  0  0  0  0  0  0  0  0  0  0
  144.0178  136.2492  153.9266 H   0  0  0  0  0  0  0  0  0  0  0  0
  145.1210  135.5983  155.1372 H   0  0  0  0  0  0  0  0  0  0  0  0
  146.5193  134.5894  153.3558 H   0  0  0  0  0  0  0  0  0  0  0  0
  144.3451  135.6776  151.5558 H   0  0  0  0  0  0  0  0  0  0  0  0
  145.9712  135.5875  150.9216 H   0  0  0  0  0  0  0  0  0  0  0  0
  142.9517  133.5851  151.2852 H   0  0  0  0  0  0  0  0  0  0  0  0
  143.5271  130.9598  150.8145 H   0  0  0  0  0  0  0  0  0  0  0  0
  146.2962  130.9020  150.9022 H   0  0  0  0  0  0  0  0  0  0  0  0
  146.8110  136.8935  154.1170 H   0  0  0  0  0  0  0  0  0  0  0  0
  145.4566  137.5645  151.6099 H   0  0  0  0  0  0  0  0  0  0  0  0
  145.1046  138.1565  153.2263 H   0  0  0  0  0  0  0  0  0  0  0  0
  147.8402  138.6508  152.0096 H   0  0  0  0  0  0  0  0  0  0  0  0
  146.4910  139.7024  151.5983 H   0  0  0  0  0  0  0  0  0  0  0  0
  148.1424  141.1038  152.5465 H   0  0  0  0  0  0  0  0  0  0  0  0
  149.6430  139.3617  153.5171 H   0  0  0  0  0  0  0  0  0  0  0  0
  150.0947  140.9861  153.9672 H   0  0  0  0  0  0  0  0  0  0  0  0
  148.5760  138.9954  155.7200 H   0  0  0  0  0  0  0  0  0  0  0  0
  150.2237  139.5274  155.9471 H   0  0  0  0  0  0  0  0  0  0  0  0
  148.6457  140.7223  157.4803 H   0  0  0  0  0  0  0  0  0  0  0  0
  149.4787  141.8310  156.4177 H   0  0  0  0  0  0  0  0  0  0  0  0
  146.6250  140.7906  156.0662 H   0  0  0  0  0  0  0  0  0  0  0  0
  147.0882  142.4140  156.5126 H   0  0  0  0  0  0  0  0  0  0  0  0
  148.2064  142.7399  154.3422 H   0  0  0  0  0  0  0  0  0  0  0  0
  145.3323  141.7784  154.0055 H   0  0  0  0  0  0  0  0  0  0  0  0
  146.2118  142.8074  152.8747 H   0  0  0  0  0  0  0  0  0  0  0  0
  145.8458  143.3883  154.4933 H   0  0  0  0  0  0  0  0  0  0  0  0
  147.4852  136.5672  152.6585 H   0  0  0  0  0  0  0  0  0  0  0  0
  1  2  1  0  0  0  0
  1 20  1  0  0  0  0
  1 21  1  0  0  0  0
  1 22  1  0  0  0  0
  2  3  1  0  0  0  0
  2  9  1  0  0  0  0
  2 23  1  0  0  0  0
  3  4  1  0  0  0  0
  3 24  1  0  0  0  0
  3 25  1  0  0  0  0
  4  8  1  0  0  0  0
  4  5  1  0  0  0  0
  5  6  2  0  0  0  0
  5 26  1  0  0  0  0
  6  7  1  0  0  0  0
  6 27  1  0  0  0  0
  7  8  2  0  0  0  0
  7 28  1  0  0  0  0
  9 10  1  0  0  0  0
  9 29  1  0  0  0  0
  9 47  1  0  0  0  0
 10 11  1  0  0  0  0
 10 30  1  0  0  0  0
 10 31  1  0  0  0  0
 11 12  1  0  0  0  0
 11 32  1  0  0  0  0
 11 33  1  0  0  0  0
 12 13  1  0  0  0  0
 13 18  1  0  0  0  0
 13 14  1  0  0  0  0
 13 34  1  0  0  0  0
 14 15  1  0  0  0  0
 14 35  1  0  0  0  0
 14 36  1  0  0  0  0
 15 16  1  0  0  0  0
 15 37  1  0  0  0  0
 15 38  1  0  0  0  0
 16 17  1  0  0  0  0
 16 39  1  0  0  0  0
 16 40  1  0  0  0  0
 17 18  1  0  0  0  0
 17 41  1  0  0  0  0
 17 42  1  0  0  0  0
 18 19  1  0  0  0  0
 18 43  1  0  0  0  0
 19 44  1  0  0  0  0
 19 45  1  0  0  0  0
 19 46  1  0  0  0  0
M  CHG  1   9   1
M  END
> <s_m_source_file>
AV-unprocessed.smi

> <i_m_source_file_index>
3348

> <i_lp_mmshare_version>
43012

> <i_f3d_flags>
0

> <s_epik_input>
bjFbY0hdW2NIXVtjSF1uMVtDSDJdW0NAQEhdKFtDSDNdKVtOSF1bQ0gyXVtDSDJdT1tDQEBIXTJbQ0gyXVtDSDJdW0NIMl1bQ0gyXVtDQEhdMltDSDNd

> <s_epik_cmdline>
J2VwaWtfcHl0aG9uJywgJy1waCcsICc3LjAnLCAnLXRuJywgJzgnLCAnLW1hJywgJzIwMCcsICctbWV0YWxfYmluZGluZycsICctaW1hZScsICc8aW5maWxlLm1hZT4nLCAnLW9tYWUnLCAnPG91dGZpbGUubWFlPic=

> <r_lp_tautomer_probability>
1

> <r_epik_Ionization_Penalty>
0.00925088

> <r_epik_Ionization_Penalty_Charging>
0.00924645

> <r_epik_Ionization_Penalty_Neutral>
4.42413e-06

> <r_epik_State_Penalty>
0.0070118

> <r_epik_Charging_Adjusted_Penalty>
0.0162583

> <i_epik_Tot_Q>
1

> <i_epik_Tot_abs_Q>
1

> <r_epik_Metal_State_Penalty>
0.00701222

> <b_epik_Metal_Only>
0

> <s_lp_Force_Field>
OPLS_2005

> <r_lp_Energy>
18.0188

> <b_lp_Chiralities_Consistent>
1

> <s_lp_Variant>
AV-unprocessed.smi:3348-6

> <Gold.Version>
5.8.1

> <Gold.Id.Protein>
6NUR|6NUR_protein|mol2

> <Gold.PLP.Fitness>
45.9011

> <Gold.PLP.PLP>
-36.0254

> <Gold.PLP.part.hbond>
-1.0000

> <Gold.PLP.part.metal>
0.0000

> <Gold.PLP.part.buried>
-1.8534

> <Gold.PLP.part.nonpolar>
-33.8220

> <Gold.PLP.part.repulsive>
0.4175

> <Gold.PLP.ligand.clash>
0.0000

> <Gold.PLP.ligand.torsion>
1.1057

> <Gold.PLP.Chemscore.Hbond>
2.0000

> <Gold.PLP.Chemscore.CHOScore>
2.0000

> <Gold.PLP.Chemscore.Metal>
0.0000

> <Gold.Chemscore.Hbonds>
donor molecule, donor type, donor heavy atom, donor atom, acceptor molecule, acceptor atom, score
      L1  H     9    47       P1  7948  2.00
      L1  C     5    26       P1 10186  0.50
      L1  C     7    28       P1 10747  0.46

> <Gold.PLP.Chemscore.Internal.Correction>
0.0870

> <Gold.Rescore>
     Score         DG    S(hbond)    S(metal)    S(lipo)     H(rot)  DE(clash)    DE(int)     intcor
     13.30     -14.05       0.97        0.00      85.34       1.82       0.31       0.44       ----

> <Gold.Chemscore.Fitness>
13.3019

> <Gold.Chemscore.DG>
-14.0464

> <Gold.Chemscore.ZeroCoef>
-5.4800

> <Gold.Chemscore.Hbond>
0.9674

> <Gold.Chemscore.Metal>
0.0000

> <Gold.Chemscore.Lipo>
85.3436

> <Gold.Chemscore.Internal_Hbond>
0.0000

> <Gold.Chemscore.DEClash>
0.3063

> <Gold.Chemscore.DEInternal>
0.4383

> <Gold.Chemscore.Rot>
1.8163

> <Gold.Chemscore.Internal.Correction>
   9.000000E+99

> <Gold.Chemscore.Hbonds>
donor molecule, donor type, donor heavy atom, donor atom, acceptor molecule, acceptor atom, score
      L1  H     9    47       P1  7948  1.00

> <Gold.Chemscore.Hbond.Weighted>
-3.2310

> <Gold.Chemscore.Metal.Weighted>
-0.0000

> <Gold.Chemscore.Lipo.Weighted>
-9.9852

> <Gold.Chemscore.Internal_Hbond.Weighted>
0.0000

> <Gold.Chemscore.DEClash.Weighted>
0.3063

> <Gold.Chemscore.DEInternal.Weighted>
0.4383

> <Gold.Chemscore.Rot.Weighted>
4.6497

> <Gold.Chemscore.Internal.Correction.Weighted>
   9.000000E+99

> <Gold.Protein.RotatedTorsions>
[ 6907 6896 6895 6894 ] final -112.00 input  -60.11 | X-H torsion
[ 7974 7965 7964 7962 ] final -109.10 input  175.53 | X-H torsion
[ 8008 7997 7996 7995 ] final -151.57 input   59.86 | X-H torsion
[ 10167 10162 10161 10158 ] final  101.09 input  -65.29 | X-H torsion
[ 10718 10713 10712 10709 ] final -123.52 input   66.30 | X-H torsion
[ 10763 10752 10751 10750 ] final  -19.70 input  -60.55 | X-H torsion
[ 11005 11000 10999 10996 ] final  135.38 input  -57.11 | X-H torsion

> <Gold.Protein.ActiveResidues>
 VAL166  LYS551  ARG553  GLY616  TRP617  ASP618  TYR619  PRO620  LYS621  CYS622 
 ASP623  PHE694  ASN695  SER759  ASP760  ASP761  ALA762  ILE779  LEU786  VAL792 
 PHE793  MET794  SER795  GLU796  ALA797  LYS798  CYS799  TRP800  GLU811  SER814 

> <Gold.Protein.RotatedAtoms>
  150.7728  133.9154  159.3381 H   0  0  0  0  0  0  0  0  0  0  0  0  # atno 6907 bound_to 6896
  151.7036  135.0924  160.0265 H   0  0  0  0  0  0  0  0  0  0  0  0  # atno 6908 bound_to 6896
  152.3752  133.6434  159.6154 H   0  0  0  0  0  0  0  0  0  0  0  0  # atno 6909 bound_to 6896
  145.1847  140.8987  143.3459 H   0  0  0  0  0  0  0  0  0  0  0  0  # atno 7974 bound_to 7965
  155.6415  140.0702  157.2617 H   0  0  0  0  0  0  0  0  0  0  0  0  # atno 8008 bound_to 7997
  154.4182  140.1749  156.1627 H   0  0  0  0  0  0  0  0  0  0  0  0  # atno 8009 bound_to 7997
  155.9851  140.3350  155.6703 H   0  0  0  0  0  0  0  0  0  0  0  0  # atno 8010 bound_to 7997
  139.7468  144.6995  151.0491 H   0  0  0  0  0  0  0  0  0  0  0  0  # atno 10167 bound_to 10162
  156.1509  130.6534  150.9912 H   0  0  0  0  0  0  0  0  0  0  0  0  # atno 10718 bound_to 10713
  153.6089  135.6997  153.5354 H   0  0  0  0  0  0  0  0  0  0  0  0  # atno 10763 bound_to 10752
  153.3033  135.4122  155.1271 H   0  0  0  0  0  0  0  0  0  0  0  0  # atno 10764 bound_to 10752
  154.8567  135.3654  154.5627 H   0  0  0  0  0  0  0  0  0  0  0  0  # atno 10765 bound_to 10752
  139.9976  134.9491  157.0000 H   0  0  0  0  0  0  0  0  0  0  0  0  # atno 11005 bound_to 11000
  145.0101  139.3518  143.6124 LP  0  0  0  0  0  0  0  0  0  0  0  0  # atno 17320 bound_to 7965
  146.3447  139.9360  142.8747 LP  0  0  0  0  0  0  0  0  0  0  0  0  # atno 17321 bound_to 7965
  140.7793  143.4857  150.9960 LP  0  0  0  0  0  0  0  0  0  0  0  0  # atno 17342 bound_to 10162
  139.8544  143.7395  152.3176 LP  0  0  0  0  0  0  0  0  0  0  0  0  # atno 17343 bound_to 10162
  157.6656  131.0872  150.7736 LP  0  0  0  0  0  0  0  0  0  0  0  0  # atno 17370 bound_to 10713
  156.7805  130.4857  149.5402 LP  0  0  0  0  0  0  0  0  0  0  0  0  # atno 17371 bound_to 10713
  140.4788  134.1310  155.7214 LP  0  0  0  0  0  0  0  0  0  0  0  0  # atno 17394 bound_to 11000
  141.1617  133.8781  157.1830 LP  0  0  0  0  0  0  0  0  0  0  0  0  # atno 17395 bound_to 11000

$$$$
