AV-unprocessed.smi:101|AV-procd|sdf|936|dock1
  -GOLD-   2262017453D 1   1.00000     0.00000
 Structure written by MMmdl.
 43 45  0  0  0  0  0  0  0  0  2 V2000
  144.6907  139.6675  158.9345 C   0  0  0  0  0  0  0  0  0  0  0  0
  144.7766  140.7723  157.8958 C   0  0  0  0  0  0  0  0  0  0  0  0
  145.8089  140.8668  157.0289 C   0  0  0  0  0  0  0  0  0  0  0  0
  145.8859  141.8770  156.0838 N   0  0  0  0  0  0  0  0  0  0  0  0
  147.0576  141.9845  155.1225 C   0  0  1  0  0  0  0  0  0  0  0  0
  148.2531  141.7865  155.8200 O   0  0  0  0  0  0  0  0  0  0  0  0
  148.7689  140.4919  155.5324 C   0  0  2  0  0  0  0  0  0  0  0  0
  150.2601  140.3990  155.8804 C   0  0  0  0  0  0  0  0  0  0  0  0
  150.5314  141.3277  156.9172 O   0  0  0  0  0  0  0  0  0  0  0  0
  151.6675  141.2367  157.6326 C   0  0  0  0  0  0  0  0  0  0  0  0
  152.4935  140.3329  157.4907 O   0  0  0  0  0  0  0  0  0  0  0  0
  151.8205  142.3480  158.6160 C   0  0  0  0  0  0  0  0  0  0  0  0
  151.3100  143.6288  158.3005 C   0  0  0  0  0  0  0  0  0  0  0  0
  151.4413  144.6973  159.2089 C   0  0  0  0  0  0  0  0  0  0  0  0
  152.0857  144.4984  160.4438 C   0  0  0  0  0  0  0  0  0  0  0  0
  152.5969  143.2287  160.7703 C   0  0  0  0  0  0  0  0  0  0  0  0
  152.4656  142.1586  159.8637 C   0  0  0  0  0  0  0  0  0  0  0  0
  148.4048  140.3049  154.0585 C   0  0  2  0  0  0  0  0  0  0  0  0
  149.3190  140.9933  153.2251 O   0  0  0  0  0  0  0  0  0  0  0  0
  147.0192  140.9365  153.9786 C   0  0  1  0  0  0  0  0  0  0  0  0
  146.0332  139.9325  154.1494 O   0  0  0  0  0  0  0  0  0  0  0  0
  144.8606  142.8573  156.0235 C   0  0  0  0  0  0  0  0  0  0  0  0
  144.9628  143.7475  155.1789 O   0  0  0  0  0  0  0  0  0  0  0  0
  143.8141  142.7684  156.8929 N   0  5  0  0  0  0  0  0  0  0  0  0
  143.7106  141.7786  157.8255 C   0  0  0  0  0  0  0  0  0  0  0  0
  142.7588  141.7081  158.6023 O   0  0  0  0  0  0  0  0  0  0  0  0
  145.5519  139.0008  158.8778 H   0  0  0  0  0  0  0  0  0  0  0  0
  143.7911  139.0708  158.7814 H   0  0  0  0  0  0  0  0  0  0  0  0
  144.6574  140.0910  159.9389 H   0  0  0  0  0  0  0  0  0  0  0  0
  146.5914  140.1273  157.0927 H   0  0  0  0  0  0  0  0  0  0  0  0
  147.0481  143.0160  154.7665 H   0  0  0  0  0  0  0  0  0  0  0  0
  148.2170  139.7497  156.1118 H   0  0  0  0  0  0  0  0  0  0  0  0
  150.5023  139.3956  156.2331 H   0  0  0  0  0  0  0  0  0  0  0  0
  150.8748  140.6024  155.0023 H   0  0  0  0  0  0  0  0  0  0  0  0
  150.8115  143.8062  157.3583 H   0  0  0  0  0  0  0  0  0  0  0  0
  151.0470  145.6708  158.9571 H   0  0  0  0  0  0  0  0  0  0  0  0
  152.1870  145.3181  161.1397 H   0  0  0  0  0  0  0  0  0  0  0  0
  153.0911  143.0744  161.7181 H   0  0  0  0  0  0  0  0  0  0  0  0
  152.8694  141.1973  160.1468 H   0  0  0  0  0  0  0  0  0  0  0  0
  148.4085  139.2534  153.7673 H   0  0  0  0  0  0  0  0  0  0  0  0
  149.7018  140.3708  152.6256 H   0  0  0  0  0  0  0  0  0  0  0  0
  146.8434  141.4339  153.0237 H   0  0  0  0  0  0  0  0  0  0  0  0
  145.3614  140.0593  153.4972 H   0  0  0  0  0  0  0  0  0  0  0  0
  1  2  1  0  0  0  0
  1 27  1  0  0  0  0
  1 28  1  0  0  0  0
  1 29  1  0  0  0  0
  2 25  1  0  0  0  0
  2  3  2  0  0  0  0
  3  4  1  0  0  0  0
  3 30  1  0  0  0  0
  4  5  1  0  0  0  0
  4 22  1  0  0  0  0
  5 20  1  0  0  0  0
  5  6  1  0  0  0  0
  5 31  1  0  0  0  0
  6  7  1  0  0  0  0
  7  8  1  0  0  0  0
  7 18  1  0  0  0  0
  7 32  1  0  0  0  0
  8  9  1  0  0  0  0
  8 33  1  0  0  0  0
  8 34  1  0  0  0  0
  9 10  1  0  0  0  0
 10 11  2  0  0  0  0
 10 12  1  0  0  0  0
 12 17  1  0  0  0  0
 12 13  2  0  0  0  0
 13 14  1  0  0  0  0
 13 35  1  0  0  0  0
 14 15  2  0  0  0  0
 14 36  1  0  0  0  0
 15 16  1  0  0  0  0
 15 37  1  0  0  0  0
 16 17  2  0  0  0  0
 16 38  1  0  0  0  0
 17 39  1  0  0  0  0
 18 19  1  0  0  0  0
 18 20  1  0  0  0  0
 18 40  1  0  0  0  0
 19 41  1  0  0  0  0
 20 21  1  0  0  0  0
 20 42  1  0  0  0  0
 21 43  1  0  0  0  0
 22 23  2  0  0  0  0
 22 24  1  0  0  0  0
 24 25  1  0  0  0  0
 25 26  2  0  0  0  0
M  CHG  1  24  -1
M  END
> <s_m_source_file>
AV-unprocessed.smi

> <i_m_source_file_index>
101

> <i_lp_mmshare_version>
43012

> <i_f3d_flags>
0

> <s_epik_input>
Tz1jMVtuSF1jKD1PKW4oW2NIXWMxW0NIM10pW0NAQEhdMk9bQ0BIXShbQ0BASF0oW09IXSlbQ0BIXTJbT0hdKVtDSDJdT0MoPU8pYzNbY0hdW2NIXVtjSF1bY0hdW2NIXTM=

> <s_epik_cmdline>
J2VwaWtfcHl0aG9uJywgJy1waCcsICc3LjAnLCAnLXRuJywgJzgnLCAnLW1hJywgJzIwMCcsICctbWV0YWxfYmluZGluZycsICctaW1hZScsICc8aW5maWxlLm1hZT4nLCAnLW9tYWUnLCAnPG91dGZpbGUubWFlPic=

> <r_lp_tautomer_probability>
0.999537

> <r_epik_Ionization_Penalty>
3.21006

> <r_epik_Ionization_Penalty_Charging>
5.75142e-08

> <r_epik_Ionization_Penalty_Neutral>
3.21006

> <r_epik_State_Penalty>
3.20925

> <r_epik_Charging_Adjusted_Penalty>
3.20925

> <i_epik_Tot_Q>
-1

> <i_epik_Tot_abs_Q>
1

> <r_epik_Metal_State_Penalty>
0.119957

> <b_epik_Metal_Only>
1

> <s_epik_Chemistry_Notes>
This compound has an ester and may undergo hydrolysis at high or low pH. This compound contains an acetal/aminal-like group ( X-CH(R)-Y where X, Y are N, S, or O) that may be acid/base labile, releasing an aldehyde.

> <s_lp_Force_Field>
OPLS_2005

> <r_lp_Energy>
44.1701

> <b_lp_Chiralities_Consistent>
1

> <s_lp_Variant>
AV-unprocessed.smi:101-24

> <Gold.Version>
5.8.1

> <Gold.Id.Protein>
6NUR|6NUR_protein|mol2

> <Gold.PLP.Fitness>
47.6006

> <Gold.PLP.PLP>
-39.4583

> <Gold.PLP.part.hbond>
-4.0034

> <Gold.PLP.part.metal>
0.0000

> <Gold.PLP.part.buried>
-5.7623

> <Gold.PLP.part.nonpolar>
-30.4846

> <Gold.PLP.part.repulsive>
1.7323

> <Gold.PLP.ligand.clash>
0.0000

> <Gold.PLP.ligand.torsion>
1.3414

> <Gold.PLP.Chemscore.Hbond>
3.4162

> <Gold.PLP.Chemscore.CHOScore>
0.0000

> <Gold.PLP.Chemscore.Metal>
0.0000

> <Gold.Chemscore.Hbonds>
donor molecule, donor type, donor heavy atom, donor atom, acceptor molecule, acceptor atom, score
      L1  H    19    41       P1  7957  0.70
      L1  H    21    43       P1 10175  1.00
      P1  H  7997  8008       L1    11  0.87
      P1  H  8011  8017       L1    19  0.75

> <Gold.PLP.Chemscore.Internal.Correction>
0.5764

> <Gold.Rescore>
     Score         DG    S(hbond)    S(metal)    S(lipo)     H(rot)  DE(clash)    DE(int)     intcor
     15.61     -17.80       2.91        0.00      93.60       3.27       0.87       1.32       ----

> <Gold.Chemscore.Fitness>
15.6067

> <Gold.Chemscore.DG>
-17.7995

> <Gold.Chemscore.ZeroCoef>
-5.4800

> <Gold.Chemscore.Hbond>
2.9126

> <Gold.Chemscore.Metal>
0.0000

> <Gold.Chemscore.Lipo>
93.6007

> <Gold.Chemscore.Internal_Hbond>
0.0000

> <Gold.Chemscore.DEClash>
0.8692

> <Gold.Chemscore.DEInternal>
1.3236

> <Gold.Chemscore.Rot>
3.2656

> <Gold.Chemscore.Internal.Correction>
   9.000000E+99

> <Gold.Chemscore.Hbonds>
donor molecule, donor type, donor heavy atom, donor atom, acceptor molecule, acceptor atom, score
      L1  H    19    41       P1  7957  0.65
      L1  H    21    43       P1 10175  0.95
      P1  H  7997  8008       L1    11  0.80
      P1  H  8011  8017       L1    19  0.09

> <Gold.Chemscore.Hbond.Weighted>
-9.7281

> <Gold.Chemscore.Metal.Weighted>
-0.0000

> <Gold.Chemscore.Lipo.Weighted>
-10.9513

> <Gold.Chemscore.Internal_Hbond.Weighted>
0.0000

> <Gold.Chemscore.DEClash.Weighted>
0.8692

> <Gold.Chemscore.DEInternal.Weighted>
1.3236

> <Gold.Chemscore.Rot.Weighted>
8.3598

> <Gold.Chemscore.Internal.Correction.Weighted>
   9.000000E+99

> <Gold.Protein.RotatedTorsions>
[ 6907 6896 6895 6894 ] final  -39.96 input  -60.11 | X-H torsion
[ 7974 7965 7964 7962 ] final -172.87 input  175.53 | X-H torsion
[ 8008 7997 7996 7995 ] final  -65.49 input   59.86 | X-H torsion
[ 10167 10162 10161 10158 ] final   84.94 input  -65.29 | X-H torsion
[ 10718 10713 10712 10709 ] final  150.98 input   66.30 | X-H torsion
[ 10763 10752 10751 10750 ] final  173.94 input  -60.55 | X-H torsion
[ 11005 11000 10999 10996 ] final -119.48 input  -57.11 | X-H torsion

> <Gold.Protein.ActiveResidues>
 VAL166  LYS551  ARG553  GLY616  TRP617  ASP618  TYR619  PRO620  LYS621  CYS622 
 ASP623  PHE694  ASN695  SER759  ASP760  ASP761  ALA762  ILE779  LEU786  VAL792 
 PHE793  MET794  SER795  GLU796  ALA797  LYS798  CYS799  TRP800  GLU811  SER814 

> <Gold.Protein.RotatedAtoms>
  150.9841  134.9190  159.7861 H   0  0  0  0  0  0  0  0  0  0  0  0  # atno 6907 bound_to 6896
  152.5231  134.3370  159.9213 H   0  0  0  0  0  0  0  0  0  0  0  0  # atno 6908 bound_to 6896
  151.3377  133.3934  159.2703 H   0  0  0  0  0  0  0  0  0  0  0  0  # atno 6909 bound_to 6896
  144.7142  140.1708  143.6367 H   0  0  0  0  0  0  0  0  0  0  0  0  # atno 7974 bound_to 7965
  154.4675  140.0932  156.7058 H   0  0  0  0  0  0  0  0  0  0  0  0  # atno 8008 bound_to 7997
  155.4817  140.3468  155.4322 H   0  0  0  0  0  0  0  0  0  0  0  0  # atno 8009 bound_to 7997
  156.0982  140.1415  156.9492 H   0  0  0  0  0  0  0  0  0  0  0  0  # atno 8010 bound_to 7997
  139.9028  144.6319  150.8619 H   0  0  0  0  0  0  0  0  0  0  0  0  # atno 10167 bound_to 10162
  157.2765  131.0827  151.1562 H   0  0  0  0  0  0  0  0  0  0  0  0  # atno 10718 bound_to 10713
  154.4471  135.2763  155.1807 H   0  0  0  0  0  0  0  0  0  0  0  0  # atno 10763 bound_to 10752
  154.3650  135.6121  153.5714 H   0  0  0  0  0  0  0  0  0  0  0  0  # atno 10764 bound_to 10752
  152.9844  135.5843  154.4808 H   0  0  0  0  0  0  0  0  0  0  0  0  # atno 10765 bound_to 10752
  141.0212  134.0120  157.3279 H   0  0  0  0  0  0  0  0  0  0  0  0  # atno 11005 bound_to 11000
  145.8946  139.2395  143.1529 LP  0  0  0  0  0  0  0  0  0  0  0  0  # atno 17320 bound_to 7965
  145.9870  140.8634  143.0085 LP  0  0  0  0  0  0  0  0  0  0  0  0  # atno 17321 bound_to 7965
  140.7703  143.3424  151.2181 LP  0  0  0  0  0  0  0  0  0  0  0  0  # atno 17342 bound_to 10162
  139.7010  143.9533  152.2905 LP  0  0  0  0  0  0  0  0  0  0  0  0  # atno 17343 bound_to 10162
  157.3013  130.6844  149.6165 LP  0  0  0  0  0  0  0  0  0  0  0  0  # atno 17370 bound_to 10713
  155.9664  130.4391  150.5245 LP  0  0  0  0  0  0  0  0  0  0  0  0  # atno 17371 bound_to 10713
  139.9147  135.0195  156.7835 LP  0  0  0  0  0  0  0  0  0  0  0  0  # atno 17394 bound_to 11000
  140.6569  133.9681  155.7784 LP  0  0  0  0  0  0  0  0  0  0  0  0  # atno 17395 bound_to 11000

$$$$
