AV-unprocessed.smi:1818|AV-procd|sdf|7381|dock1
  -GOLD-   22720 9 43D 1   1.00000     0.00000
 Structure written by MMmdl.
 37 38  0  0  0  0  0  0  0  0  2 V2000
  146.4280  137.0445  156.3669 N   0  0  0  0  0  0  0  0  0  0  0  0
  146.7888  137.5964  155.4161 C   0  0  0  0  0  0  0  0  0  0  0  0
  147.2491  138.3014  154.2034 C   0  0  0  0  0  0  0  0  0  0  0  0
  146.9022  137.5331  153.0034 N   0  0  0  0  0  0  0  0  0  0  0  0
  145.6723  137.1867  152.5876 C   0  0  0  0  0  0  0  0  0  0  0  0
  144.6375  137.4987  153.1745 O   0  0  0  0  0  0  0  0  0  0  0  0
  145.5994  136.3351  151.3208 C   0  0  0  0  0  0  0  0  0  0  0  0
  144.8175  135.1169  151.5523 N   0  0  0  0  0  0  0  0  0  0  0  0
  144.4903  134.1502  150.6355 C   0  0  0  0  0  0  0  0  0  0  0  0
  143.7634  133.2026  151.3094 C   0  0  0  0  0  0  0  0  0  0  0  0
  143.6787  133.6295  152.6077 N   0  3  0  0  0  0  0  0  0  0  0  0
  144.3200  134.7935  152.7536 C   0  0  0  0  0  0  0  0  0  0  0  0
  146.4767  139.6416  154.1331 C   0  0  0  0  0  0  0  0  0  0  0  0
  147.1045  140.7385  153.2546 C   0  0  0  0  0  0  0  0  0  0  0  0
  148.0906  141.6256  154.0359 C   0  0  0  0  0  0  0  0  0  0  0  0
  149.4247  140.9527  154.3954 C   0  0  0  0  0  0  0  0  0  0  0  0
  149.2970  139.6214  155.1572 C   0  0  0  0  0  0  0  0  0  0  0  0
  148.7896  138.4806  154.2593 C   0  0  0  0  0  0  0  0  0  0  0  0
  147.6815  137.2270  152.4394 H   0  0  0  0  0  0  0  0  0  0  0  0
  145.1349  136.8982  150.5096 H   0  0  0  0  0  0  0  0  0  0  0  0
  146.5989  136.0484  150.9902 H   0  0  0  0  0  0  0  0  0  0  0  0
  144.7916  134.2058  149.5994 H   0  0  0  0  0  0  0  0  0  0  0  0
  143.3130  132.2805  150.9717 H   0  0  0  0  0  0  0  0  0  0  0  0
  144.4206  135.3590  153.6632 H   0  0  0  0  0  0  0  0  0  0  0  0
  145.4633  139.4446  153.7791 H   0  0  0  0  0  0  0  0  0  0  0  0
  146.3371  140.0387  155.1398 H   0  0  0  0  0  0  0  0  0  0  0  0
  147.5701  140.3164  152.3635 H   0  0  0  0  0  0  0  0  0  0  0  0
  146.3007  141.3810  152.8936 H   0  0  0  0  0  0  0  0  0  0  0  0
  148.3073  142.5139  153.4417 H   0  0  0  0  0  0  0  0  0  0  0  0
  147.6116  141.9928  154.9444 H   0  0  0  0  0  0  0  0  0  0  0  0
  150.0111  140.7996  153.4885 H   0  0  0  0  0  0  0  0  0  0  0  0
  150.0038  141.6484  155.0036 H   0  0  0  0  0  0  0  0  0  0  0  0
  150.2906  139.3517  155.5171 H   0  0  0  0  0  0  0  0  0  0  0  0
  148.6775  139.7307  156.0478 H   0  0  0  0  0  0  0  0  0  0  0  0
  149.2296  137.5491  154.6182 H   0  0  0  0  0  0  0  0  0  0  0  0
  149.1954  138.6110  153.2548 H   0  0  0  0  0  0  0  0  0  0  0  0
  143.2009  133.1370  153.3522 H   0  0  0  0  0  0  0  0  0  0  0  0
  1  2  3  0  0  0  0
  2  3  1  0  0  0  0
  3 18  1  0  0  0  0
  3  4  1  0  0  0  0
  3 13  1  0  0  0  0
  4  5  1  0  0  0  0
  4 19  1  0  0  0  0
  5  6  2  0  0  0  0
  5  7  1  0  0  0  0
  7  8  1  0  0  0  0
  7 20  1  0  0  0  0
  7 21  1  0  0  0  0
  8 12  1  0  0  0  0
  8  9  1  0  0  0  0
  9 10  2  0  0  0  0
  9 22  1  0  0  0  0
 10 11  1  0  0  0  0
 10 23  1  0  0  0  0
 11 12  2  0  0  0  0
 11 37  1  0  0  0  0
 12 24  1  0  0  0  0
 13 14  1  0  0  0  0
 13 25  1  0  0  0  0
 13 26  1  0  0  0  0
 14 15  1  0  0  0  0
 14 27  1  0  0  0  0
 14 28  1  0  0  0  0
 15 16  1  0  0  0  0
 15 29  1  0  0  0  0
 15 30  1  0  0  0  0
 16 17  1  0  0  0  0
 16 31  1  0  0  0  0
 16 32  1  0  0  0  0
 17 18  1  0  0  0  0
 17 33  1  0  0  0  0
 17 34  1  0  0  0  0
 18 35  1  0  0  0  0
 18 36  1  0  0  0  0
M  CHG  1  11   1
M  END
> <s_m_source_file>
AV-unprocessed.smi

> <i_m_source_file_index>
1818

> <i_lp_mmshare_version>
43012

> <i_f3d_flags>
0

> <s_epik_input>
W0NIMl0xW0NIMl1bQ0gyXVtDSDJdW0NIMl1bQ0gyXUMxKEMjTilbTkhdQyg9TylbQ0gyXW4yW2NIXVtjSF1uW2NIXTI=

> <s_epik_cmdline>
J2VwaWtfcHl0aG9uJywgJy1waCcsICc3LjAnLCAnLXRuJywgJzgnLCAnLW1hJywgJzIwMCcsICctbWV0YWxfYmluZGluZycsICctaW1hZScsICc8aW5maWxlLm1hZT4nLCAnLW9tYWUnLCAnPG91dGZpbGUubWFlPic=

> <r_lp_tautomer_probability>
1

> <r_epik_Ionization_Penalty>
0.70502

> <r_epik_Ionization_Penalty_Charging>
0

> <r_epik_Ionization_Penalty_Neutral>
0.70502

> <r_epik_State_Penalty>
0.72808

> <r_epik_Charging_Adjusted_Penalty>
0.72808

> <i_epik_Tot_Q>
1

> <i_epik_Tot_abs_Q>
1

> <r_epik_Metal_State_Penalty>
0.891186

> <b_epik_Metal_Only>
0

> <s_lp_Force_Field>
OPLS_2005

> <r_lp_Energy>
19.4839

> <b_lp_Chiralities_Consistent>
1

> <s_lp_Variant>
AV-unprocessed.smi:1818-2

> <Gold.Version>
5.8.1

> <Gold.Id.Protein>
6NUR|6NUR_protein|mol2

> <Gold.PLP.Fitness>
39.9091

> <Gold.PLP.PLP>
-28.0094

> <Gold.PLP.part.hbond>
-2.0000

> <Gold.PLP.part.metal>
0.0000

> <Gold.PLP.part.buried>
-3.3036

> <Gold.PLP.part.nonpolar>
-23.6592

> <Gold.PLP.part.repulsive>
0.2153

> <Gold.PLP.ligand.clash>
0.0000

> <Gold.PLP.ligand.torsion>
0.0668

> <Gold.PLP.Chemscore.Hbond>
3.0000

> <Gold.PLP.Chemscore.CHOScore>
1.0000

> <Gold.PLP.Chemscore.Metal>
0.0000

> <Gold.Chemscore.Hbonds>
donor molecule, donor type, donor heavy atom, donor atom, acceptor molecule, acceptor atom, score
      L1  H     4    19       P1  7948  1.00
      L1  H    11    37       P1 10957  1.92
      L1  C     9    22       P1  7921  1.00

> <Gold.PLP.Chemscore.Internal.Correction>
0.0332

> <Gold.Rescore>
     Score         DG    S(hbond)    S(metal)    S(lipo)     H(rot)  DE(clash)    DE(int)     intcor
     12.08     -14.84       1.96        0.00      61.04       1.69       0.04       2.71       ----

> <Gold.Chemscore.Fitness>
12.0840

> <Gold.Chemscore.DG>
-14.8363

> <Gold.Chemscore.ZeroCoef>
-5.4800

> <Gold.Chemscore.Hbond>
1.9621

> <Gold.Chemscore.Metal>
0.0000

> <Gold.Chemscore.Lipo>
61.0383

> <Gold.Chemscore.Internal_Hbond>
0.0000

> <Gold.Chemscore.DEClash>
0.0436

> <Gold.Chemscore.DEInternal>
2.7087

> <Gold.Chemscore.Rot>
1.6947

> <Gold.Chemscore.Internal.Correction>
   9.000000E+99

> <Gold.Chemscore.Hbonds>
donor molecule, donor type, donor heavy atom, donor atom, acceptor molecule, acceptor atom, score
      L1  H     4    19       P1  7948  1.00
      L1  H    11    37       P1 10957  0.80

> <Gold.Chemscore.Hbond.Weighted>
-6.5534

> <Gold.Chemscore.Metal.Weighted>
-0.0000

> <Gold.Chemscore.Lipo.Weighted>
-7.1415

> <Gold.Chemscore.Internal_Hbond.Weighted>
0.0000

> <Gold.Chemscore.DEClash.Weighted>
0.0436

> <Gold.Chemscore.DEInternal.Weighted>
2.7087

> <Gold.Chemscore.Rot.Weighted>
4.3386

> <Gold.Chemscore.Internal.Correction.Weighted>
   9.000000E+99

> <Gold.Protein.RotatedTorsions>
[ 6907 6896 6895 6894 ] final  140.17 input  -60.11 | X-H torsion
[ 7974 7965 7964 7962 ] final  146.50 input  175.53 | X-H torsion
[ 8008 7997 7996 7995 ] final   -9.81 input   59.86 | X-H torsion
[ 10167 10162 10161 10158 ] final  -31.16 input  -65.29 | X-H torsion
[ 10718 10713 10712 10709 ] final   98.45 input   66.30 | X-H torsion
[ 10763 10752 10751 10750 ] final   57.21 input  -60.55 | X-H torsion
[ 11005 11000 10999 10996 ] final -107.10 input  -57.11 | X-H torsion

> <Gold.Protein.ActiveResidues>
 VAL166  LYS551  ARG553  GLY616  TRP617  ASP618  TYR619  PRO620  LYS621  CYS622 
 ASP623  PHE694  ASN695  SER759  ASP760  ASP761  ALA762  ILE779  LEU786  VAL792 
 PHE793  MET794  SER795  GLU796  ALA797  LYS798  CYS799  TRP800  GLU811  SER814 

> <Gold.Protein.RotatedAtoms>
  152.2463  133.5177  159.5298 H   0  0  0  0  0  0  0  0  0  0  0  0  # atno 6907 bound_to 6896
  150.7079  134.1021  159.3978 H   0  0  0  0  0  0  0  0  0  0  0  0  # atno 6908 bound_to 6896
  151.8941  135.0404  160.0551 H   0  0  0  0  0  0  0  0  0  0  0  0  # atno 6909 bound_to 6896
  144.8666  139.5913  143.5906 H   0  0  0  0  0  0  0  0  0  0  0  0  # atno 7974 bound_to 7965
  154.5612  140.2345  155.8332 H   0  0  0  0  0  0  0  0  0  0  0  0  # atno 8008 bound_to 7997
  156.2031  140.3047  155.9528 H   0  0  0  0  0  0  0  0  0  0  0  0  # atno 8009 bound_to 7997
  155.2885  140.0425  157.3011 H   0  0  0  0  0  0  0  0  0  0  0  0  # atno 8010 bound_to 7997
  140.7240  143.3792  151.1632 H   0  0  0  0  0  0  0  0  0  0  0  0  # atno 10167 bound_to 10162
  157.6895  131.0640  150.4797 H   0  0  0  0  0  0  0  0  0  0  0  0  # atno 10718 bound_to 10713
  152.9846  135.5649  154.5354 H   0  0  0  0  0  0  0  0  0  0  0  0  # atno 10763 bound_to 10752
  154.4818  135.2789  155.1567 H   0  0  0  0  0  0  0  0  0  0  0  0  # atno 10764 bound_to 10752
  154.3072  135.6295  153.5503 H   0  0  0  0  0  0  0  0  0  0  0  0  # atno 10765 bound_to 10752
  141.0971  133.8952  157.1936 H   0  0  0  0  0  0  0  0  0  0  0  0  # atno 11005 bound_to 11000
  146.2900  139.7111  142.9168 LP  0  0  0  0  0  0  0  0  0  0  0  0  # atno 17320 bound_to 7965
  145.4210  141.0406  143.2963 LP  0  0  0  0  0  0  0  0  0  0  0  0  # atno 17321 bound_to 7965
  139.7378  143.8972  152.3040 LP  0  0  0  0  0  0  0  0  0  0  0  0  # atno 17342 bound_to 10162
  139.8783  144.7031  150.8907 LP  0  0  0  0  0  0  0  0  0  0  0  0  # atno 17343 bound_to 10162
  156.5130  130.4144  149.6291 LP  0  0  0  0  0  0  0  0  0  0  0  0  # atno 17370 bound_to 10713
  156.3223  130.7287  151.2201 LP  0  0  0  0  0  0  0  0  0  0  0  0  # atno 17371 bound_to 10713
  139.9811  135.0098  156.9751 LP  0  0  0  0  0  0  0  0  0  0  0  0  # atno 17394 bound_to 11000
  140.5114  134.0999  155.7271 LP  0  0  0  0  0  0  0  0  0  0  0  0  # atno 17395 bound_to 11000

$$$$
