AV-unprocessed.smi:2451|AV-procd|sdf|9683|dock3
  -GOLD-   2272013323D 1   1.00000     0.00000
 Structure written by MMmdl.
 37 38  0  0  0  0  0  0  0  0  2 V2000
  150.6838  145.3494  160.0610 C   0  0  0  0  0  0  0  0  0  0  0  0
  151.2639  143.9630  160.3919 C   0  0  2  0  0  0  0  0  0  0  0  0
  152.2288  144.0322  161.6024 C   0  0  0  0  0  0  0  0  0  0  0  0
  152.7370  142.6170  161.9544 C   0  0  0  0  0  0  0  0  0  0  0  0
  153.3340  141.8600  160.7410 C   0  0  0  0  0  0  0  0  0  0  0  0
  152.3657  141.7969  159.5329 C   0  0  2  0  0  0  0  0  0  0  0  0
  152.9800  141.1169  158.4008 N   0  5  0  0  0  0  0  0  0  0  0  0
  152.3896  139.6941  157.8911 S   0  0  0  0  0  0  0  0  0  0  0  0
  151.1302  139.8304  157.1403 O   0  0  0  0  0  0  0  0  0  0  0  0
  153.4366  138.8470  157.2974 O   0  0  0  0  0  0  0  0  0  0  0  0
  151.9559  138.9035  159.5034 C   0  0  0  0  0  0  0  0  0  0  0  0
  152.8628  137.7353  159.7843 C   0  0  0  0  0  0  0  0  0  0  0  0
  153.7256  137.5290  160.8970 C   0  0  0  0  0  0  0  0  0  0  0  0
  154.2995  136.3185  160.6376 C   0  0  0  0  0  0  0  0  0  0  0  0
  153.8444  135.8196  159.4609 O   0  0  0  0  0  0  0  0  0  0  0  0
  152.9307  136.7326  158.9218 N   0  0  0  0  0  0  0  0  0  0  0  0
  151.9049  143.2440  159.1547 C   0  0  2  0  0  0  0  0  0  0  0  0
  153.0134  144.1069  158.4892 C   0  0  0  0  0  0  0  0  0  0  0  0
  151.4654  146.0791  159.8505 H   0  0  0  0  0  0  0  0  0  0  0  0
  150.1012  145.7342  160.8984 H   0  0  0  0  0  0  0  0  0  0  0  0
  150.0220  145.3025  159.1960 H   0  0  0  0  0  0  0  0  0  0  0  0
  150.4017  143.3712  160.7104 H   0  0  0  0  0  0  0  0  0  0  0  0
  153.0740  144.6826  161.3759 H   0  0  0  0  0  0  0  0  0  0  0  0
  151.7259  144.4690  162.4657 H   0  0  0  0  0  0  0  0  0  0  0  0
  153.4881  142.6881  162.7415 H   0  0  0  0  0  0  0  0  0  0  0  0
  151.9164  142.0381  162.3831 H   0  0  0  0  0  0  0  0  0  0  0  0
  154.2670  142.3404  160.4444 H   0  0  0  0  0  0  0  0  0  0  0  0
  153.6051  140.8516  161.0543 H   0  0  0  0  0  0  0  0  0  0  0  0
  151.4744  141.2596  159.8605 H   0  0  0  0  0  0  0  0  0  0  0  0
  152.0587  139.6648  160.2769 H   0  0  0  0  0  0  0  0  0  0  0  0
  150.9085  138.6047  159.4786 H   0  0  0  0  0  0  0  0  0  0  0  0
  153.8874  138.1657  161.7541 H   0  0  0  0  0  0  0  0  0  0  0  0
  155.0172  135.7092  161.1666 H   0  0  0  0  0  0  0  0  0  0  0  0
  151.1167  143.1342  158.4082 H   0  0  0  0  0  0  0  0  0  0  0  0
  153.8444  144.3176  159.1631 H   0  0  0  0  0  0  0  0  0  0  0  0
  152.6187  145.0663  158.1577 H   0  0  0  0  0  0  0  0  0  0  0  0
  153.4282  143.6404  157.5941 H   0  0  0  0  0  0  0  0  0  0  0  0
  1  2  1  0  0  0  0
  1 19  1  0  0  0  0
  1 20  1  0  0  0  0
  1 21  1  0  0  0  0
  2 17  1  0  0  0  0
  2  3  1  0  0  0  0
  2 22  1  0  0  0  0
  3  4  1  0  0  0  0
  3 23  1  0  0  0  0
  3 24  1  0  0  0  0
  4  5  1  0  0  0  0
  4 25  1  0  0  0  0
  4 26  1  0  0  0  0
  5  6  1  0  0  0  0
  5 27  1  0  0  0  0
  5 28  1  0  0  0  0
  6  7  1  0  0  0  0
  6 17  1  0  0  0  0
  6 29  1  0  0  0  0
  7  8  1  0  0  0  0
  8  9  2  0  0  0  0
  8 10  2  0  0  0  0
  8 11  1  0  0  0  0
 11 12  1  0  0  0  0
 11 30  1  0  0  0  0
 11 31  1  0  0  0  0
 12 16  2  0  0  0  0
 12 13  1  0  0  0  0
 13 14  2  0  0  0  0
 13 32  1  0  0  0  0
 14 15  1  0  0  0  0
 14 33  1  0  0  0  0
 15 16  1  0  0  0  0
 17 18  1  0  0  0  0
 17 34  1  0  0  0  0
 18 35  1  0  0  0  0
 18 36  1  0  0  0  0
 18 37  1  0  0  0  0
M  CHG  1   7  -1
M  END
> <s_m_source_file>
AV-unprocessed.smi

> <i_m_source_file_index>
2451

> <i_lp_mmshare_version>
43012

> <i_f3d_flags>
0

> <s_epik_input>
W0NIM11bQ0BASF0xW0NIMl1bQ0gyXVtDSDJdW0NASF0oW0NASF0xW0NIM10pW05IXVMoPU8pKD1PKVtDSDJdYzJbY0hdW2NIXW9uMg==

> <s_epik_cmdline>
J2VwaWtfcHl0aG9uJywgJy1waCcsICc3LjAnLCAnLXRuJywgJzgnLCAnLW1hJywgJzIwMCcsICctbWV0YWxfYmluZGluZycsICctaW1hZScsICc8aW5maWxlLm1hZT4nLCAnLW9tYWUnLCAnPG91dGZpbGUubWFlPic=

> <r_lp_tautomer_probability>
1

> <r_epik_Ionization_Penalty>
5.22693

> <r_epik_Ionization_Penalty_Charging>
5.22693

> <r_epik_Ionization_Penalty_Neutral>
2.67702e-10

> <r_epik_State_Penalty>
5.22685

> <r_epik_Charging_Adjusted_Penalty>
10.4538

> <i_epik_Tot_Q>
-1

> <i_epik_Tot_abs_Q>
1

> <r_epik_Metal_State_Penalty>
1.28716

> <b_epik_Metal_Only>
1

> <s_lp_Force_Field>
OPLS_2005

> <r_lp_Energy>
15.3168

> <b_lp_Chiralities_Consistent>
1

> <s_lp_Variant>
AV-unprocessed.smi:2451-15

> <Gold.Version>
5.8.1

> <Gold.Id.Protein>
6NUR|6NUR_protein|mol2

> <Gold.PLP.Fitness>
42.7888

> <Gold.PLP.PLP>
-37.6216

> <Gold.PLP.part.hbond>
-3.7109

> <Gold.PLP.part.metal>
0.0000

> <Gold.PLP.part.buried>
-1.9574

> <Gold.PLP.part.nonpolar>
-31.8916

> <Gold.PLP.part.repulsive>
0.0000

> <Gold.PLP.ligand.clash>
0.0000

> <Gold.PLP.ligand.torsion>
0.7119

> <Gold.PLP.Chemscore.Hbond>
1.8640

> <Gold.PLP.Chemscore.CHOScore>
0.0000

> <Gold.PLP.Chemscore.Metal>
0.0000

> <Gold.Chemscore.Hbonds>
donor molecule, donor type, donor heavy atom, donor atom, acceptor molecule, acceptor atom, score
      P1  H  6896  6908       L1    15  0.83
      P1  H  7997  8009       L1    10  0.95

> <Gold.PLP.Chemscore.Internal.Correction>
0.9990

> <Gold.Rescore>
     Score         DG    S(hbond)    S(metal)    S(lipo)     H(rot)  DE(clash)    DE(int)     intcor
     16.01     -18.21       0.96        0.00     112.10       1.40       0.02       2.17       ----

> <Gold.Chemscore.Fitness>
16.0150

> <Gold.Chemscore.DG>
-18.2139

> <Gold.Chemscore.ZeroCoef>
-5.4800

> <Gold.Chemscore.Hbond>
0.9575

> <Gold.Chemscore.Metal>
0.0000

> <Gold.Chemscore.Lipo>
112.1048

> <Gold.Chemscore.Internal_Hbond>
0.0000

> <Gold.Chemscore.DEClash>
0.0240

> <Gold.Chemscore.DEInternal>
2.1750

> <Gold.Chemscore.Rot>
1.3986

> <Gold.Chemscore.Internal.Correction>
   9.000000E+99

> <Gold.Chemscore.Hbonds>
donor molecule, donor type, donor heavy atom, donor atom, acceptor molecule, acceptor atom, score
      P1  H  6896  6908       L1    15  0.07
      P1  H  7997  8009       L1    10  0.21

> <Gold.Chemscore.Hbond.Weighted>
-3.1981

> <Gold.Chemscore.Metal.Weighted>
-0.0000

> <Gold.Chemscore.Lipo.Weighted>
-13.1163

> <Gold.Chemscore.Internal_Hbond.Weighted>
0.0000

> <Gold.Chemscore.DEClash.Weighted>
0.0240

> <Gold.Chemscore.DEInternal.Weighted>
2.1750

> <Gold.Chemscore.Rot.Weighted>
3.5804

> <Gold.Chemscore.Internal.Correction.Weighted>
   9.000000E+99

> <Gold.Protein.RotatedTorsions>
[ 6907 6896 6895 6894 ] final  -44.41 input  -60.11 | X-H torsion
[ 7974 7965 7964 7962 ] final  111.10 input  175.53 | X-H torsion
[ 8008 7997 7996 7995 ] final  154.94 input   59.86 | X-H torsion
[ 10167 10162 10161 10158 ] final -112.61 input  -65.29 | X-H torsion
[ 10718 10713 10712 10709 ] final   30.72 input   66.30 | X-H torsion
[ 10763 10752 10751 10750 ] final  105.11 input  -60.55 | X-H torsion
[ 11005 11000 10999 10996 ] final  101.25 input  -57.11 | X-H torsion

> <Gold.Protein.ActiveResidues>
 VAL166  LYS551  ARG553  GLY616  TRP617  ASP618  TYR619  PRO620  LYS621  CYS622 
 ASP623  PHE694  ASN695  SER759  ASP760  ASP761  ALA762  ILE779  LEU786  VAL792 
 PHE793  MET794  SER795  GLU796  ALA797  LYS798  CYS799  TRP800  GLU811  SER814 

> <Gold.Protein.RotatedAtoms>
  150.9331  134.8745  159.7563 H   0  0  0  0  0  0  0  0  0  0  0  0  # atno 6907 bound_to 6896
  152.5047  134.4050  159.9439 H   0  0  0  0  0  0  0  0  0  0  0  0  # atno 6908 bound_to 6896
  151.4076  133.3698  159.2775 H   0  0  0  0  0  0  0  0  0  0  0  0  # atno 6909 bound_to 6896
  145.2465  139.2757  143.4090 H   0  0  0  0  0  0  0  0  0  0  0  0  # atno 7974 bound_to 7965
  156.2504  140.1953  156.6725 H   0  0  0  0  0  0  0  0  0  0  0  0  # atno 8008 bound_to 7997
  154.6382  140.0587  156.9840 H   0  0  0  0  0  0  0  0  0  0  0  0  # atno 8009 bound_to 7997
  155.1604  140.3259  155.4415 H   0  0  0  0  0  0  0  0  0  0  0  0  # atno 8010 bound_to 7997
  140.1208  143.4445  152.1692 H   0  0  0  0  0  0  0  0  0  0  0  0  # atno 10167 bound_to 10162
  157.2633  130.7172  149.6465 H   0  0  0  0  0  0  0  0  0  0  0  0  # atno 10718 bound_to 10713
  153.3750  135.3920  155.1816 H   0  0  0  0  0  0  0  0  0  0  0  0  # atno 10763 bound_to 10752
  154.8700  135.3711  154.4929 H   0  0  0  0  0  0  0  0  0  0  0  0  # atno 10764 bound_to 10752
  153.5400  135.7084  153.5702 H   0  0  0  0  0  0  0  0  0  0  0  0  # atno 10765 bound_to 10752
  139.8773  134.9175  156.4879 H   0  0  0  0  0  0  0  0  0  0  0  0  # atno 11005 bound_to 11000
  146.3314  140.2843  142.8612 LP  0  0  0  0  0  0  0  0  0  0  0  0  # atno 17320 bound_to 7965
  144.9542  140.8209  143.5553 LP  0  0  0  0  0  0  0  0  0  0  0  0  # atno 17321 bound_to 7965
  139.5569  144.7379  151.4267 LP  0  0  0  0  0  0  0  0  0  0  0  0  # atno 17342 bound_to 10162
  140.6873  143.7944  150.7204 LP  0  0  0  0  0  0  0  0  0  0  0  0  # atno 17343 bound_to 10162
  155.9664  130.4391  150.5243 LP  0  0  0  0  0  0  0  0  0  0  0  0  # atno 17370 bound_to 10713
  157.3152  131.0671  151.1972 LP  0  0  0  0  0  0  0  0  0  0  0  0  # atno 17371 bound_to 10713
  140.8680  133.8010  155.9334 LP  0  0  0  0  0  0  0  0  0  0  0  0  # atno 17394 bound_to 11000
  140.8982  134.2411  157.5057 LP  0  0  0  0  0  0  0  0  0  0  0  0  # atno 17395 bound_to 11000

$$$$
