AV-unprocessed.smi:114|AV-procd|sdf|1117|dock7
  -GOLD-   2262018233D 1   1.00000     0.00000
 Structure written by MMmdl.
 32 34  0  0  0  0  0  0  0  0  1 V2000
  143.0069  134.7219  155.2768 N   0  0  0  0  0  0  0  0  0  0  0  0
  144.0647  135.1802  154.5924 C   0  0  0  0  0  0  0  0  0  0  0  0
  144.6999  134.3348  153.7482 N   0  0  0  0  0  0  0  0  0  0  0  0
  145.7589  134.7524  153.0446 C   0  0  0  0  0  0  0  0  0  0  0  0
  146.3349  133.8411  152.2259 F   0  0  0  0  0  0  0  0  0  0  0  0
  146.3138  135.9688  153.0610 N   0  0  0  0  0  0  0  0  0  0  0  0
  145.6783  136.8268  153.9104 C   0  0  0  0  0  0  0  0  0  0  0  0
  144.5479  136.5066  154.7102 C   0  0  0  0  0  0  0  0  0  0  0  0
  144.1622  137.6143  155.4514 N   0  0  0  0  0  0  0  0  0  0  0  0
  145.0174  138.5372  155.1019 C   0  0  0  0  0  0  0  0  0  0  0  0
  145.9700  138.1499  154.1843 N   0  0  0  0  0  0  0  0  0  0  0  0
  147.0508  139.0046  153.5960 C   0  0  2  0  0  0  0  0  0  0  0  0
  148.2833  138.4259  153.9097 O   0  0  0  0  0  0  0  0  0  0  0  0
  149.0560  139.2957  154.7360 C   0  0  1  0  0  0  0  0  0  0  0  0
  150.5631  139.0737  154.5164 C   0  0  0  0  0  0  0  0  0  0  0  0
  151.2886  140.2030  154.9538 O   0  0  0  0  0  0  0  0  0  0  0  0
  148.5301  140.6913  154.3764 C   0  0  1  0  0  0  0  0  0  0  0  0
  149.1602  141.1735  153.1993 O   0  0  0  0  0  0  0  0  0  0  0  0
  147.0410  140.4277  154.1749 C   0  0  1  0  0  0  0  0  0  0  0  0
  146.4513  141.3842  153.3141 O   0  0  0  0  0  0  0  0  0  0  0  0
  146.8951  138.9682  152.5169 H   0  0  0  0  0  0  0  0  0  0  0  0
  148.8102  139.1067  155.7808 H   0  0  0  0  0  0  0  0  0  0  0  0
  148.7071  141.4101  155.1772 H   0  0  0  0  0  0  0  0  0  0  0  0
  146.5324  140.4394  155.1389 H   0  0  0  0  0  0  0  0  0  0  0  0
  142.5154  135.3336  155.9124 H   0  0  0  0  0  0  0  0  0  0  0  0
  142.6992  133.7685  155.1500 H   0  0  0  0  0  0  0  0  0  0  0  0
  144.9749  139.5376  155.5081 H   0  0  0  0  0  0  0  0  0  0  0  0
  150.9135  138.1779  155.0300 H   0  0  0  0  0  0  0  0  0  0  0  0
  150.7731  138.9447  153.4542 H   0  0  0  0  0  0  0  0  0  0  0  0
  151.5217  140.0775  155.8610 H   0  0  0  0  0  0  0  0  0  0  0  0
  149.1546  140.4809  152.5559 H   0  0  0  0  0  0  0  0  0  0  0  0
  145.5341  141.1760  153.2201 H   0  0  0  0  0  0  0  0  0  0  0  0
  1  2  1  0  0  0  0
  1 25  1  0  0  0  0
  1 26  1  0  0  0  0
  2  8  1  0  0  0  0
  2  3  2  0  0  0  0
  3  4  1  0  0  0  0
  4  5  1  0  0  0  0
  4  6  2  0  0  0  0
  6  7  1  0  0  0  0
  7 11  1  0  0  0  0
  7  8  2  0  0  0  0
  8  9  1  0  0  0  0
  9 10  2  0  0  0  0
 10 11  1  0  0  0  0
 10 27  1  0  0  0  0
 11 12  1  0  0  0  0
 12 21  1  0  0  0  0
 12 19  1  0  0  0  0
 12 13  1  0  0  0  0
 13 14  1  0  0  0  0
 14 22  1  0  0  0  0
 14 15  1  0  0  0  0
 14 17  1  0  0  0  0
 15 16  1  0  0  0  0
 15 28  1  0  0  0  0
 15 29  1  0  0  0  0
 16 30  1  0  0  0  0
 17 23  1  0  0  0  0
 17 18  1  0  0  0  0
 17 19  1  0  0  0  0
 18 31  1  0  0  0  0
 19 24  1  0  0  0  0
 19 20  1  0  0  0  0
 20 32  1  0  0  0  0
M  END
> <s_m_source_file>
AV-unprocessed.smi

> <i_m_source_file_index>
114

> <i_lp_mmshare_version>
43012

> <i_f3d_flags>
0

> <s_epik_input>
RmMobjEpbmMoW05IMl0pYyhjMTIpbltjSF1uMltDQEBIXTNPW0NASF0oW0NIMl1bT0hdKVtDQEBIXShbT0hdKVtDQEBIXTNbT0hd

> <s_epik_cmdline>
J2VwaWtfcHl0aG9uJywgJy1waCcsICc3LjAnLCAnLXRuJywgJzgnLCAnLW1hJywgJzIwMCcsICctbWV0YWxfYmluZGluZycsICctaW1hZScsICc8aW5maWxlLm1hZT4nLCAnLW9tYWUnLCAnPG91dGZpbGUubWFlPic=

> <r_lp_tautomer_probability>
1

> <r_epik_Ionization_Penalty>
1.13199e-05

> <r_epik_Ionization_Penalty_Charging>
0

> <r_epik_Ionization_Penalty_Neutral>
1.13199e-05

> <r_epik_State_Penalty>
-0

> <r_epik_Charging_Adjusted_Penalty>
0

> <i_epik_Tot_Q>
0

> <i_epik_Tot_abs_Q>
0

> <r_epik_Metal_State_Penalty>
-0

> <b_epik_Metal_Only>
0

> <s_epik_Chemistry_Notes>
This compound contains an acetal/aminal-like group ( X-CH(R)-Y where X, Y are N, S, or O) that may be acid/base labile, releasing an aldehyde.

> <s_lp_Force_Field>
OPLS_2005

> <r_lp_Energy>
42.9568

> <b_lp_Chiralities_Consistent>
1

> <s_lp_Variant>
AV-unprocessed.smi:114-11

> <Gold.Version>
5.8.1

> <Gold.Id.Protein>
6NUR|6NUR_protein|mol2

> <Gold.PLP.Fitness>
35.5041

> <Gold.PLP.PLP>
-21.6280

> <Gold.PLP.part.hbond>
-6.4236

> <Gold.PLP.part.metal>
0.0000

> <Gold.PLP.part.buried>
-5.4834

> <Gold.PLP.part.nonpolar>
-11.9836

> <Gold.PLP.part.repulsive>
2.2926

> <Gold.PLP.ligand.clash>
0.0000

> <Gold.PLP.ligand.torsion>
0.1769

> <Gold.PLP.Chemscore.Hbond>
4.7408

> <Gold.PLP.Chemscore.CHOScore>
0.0000

> <Gold.PLP.Chemscore.Metal>
0.0000

> <Gold.Chemscore.Hbonds>
donor molecule, donor type, donor heavy atom, donor atom, acceptor molecule, acceptor atom, score
      L1  H     1    26       P1 10957  1.00
      L1  H    18    31       P1  7957  0.90
      L1  H    20    32       P1 10175  0.83
      P1  H  7989  7998       L1    16  1.00
      P1  H  8011  8017       L1    18  1.00

> <Gold.PLP.Chemscore.Internal.Correction>
0.0076

> <Gold.Rescore>
     Score         DG    S(hbond)    S(metal)    S(lipo)     H(rot)  DE(clash)    DE(int)     intcor
      9.57     -10.39       3.72        0.00      23.96       4.03       0.58       0.24       ----

> <Gold.Chemscore.Fitness>
9.5706

> <Gold.Chemscore.DG>
-10.3877

> <Gold.Chemscore.ZeroCoef>
-5.4800

> <Gold.Chemscore.Hbond>
3.7172

> <Gold.Chemscore.Metal>
0.0000

> <Gold.Chemscore.Lipo>
23.9599

> <Gold.Chemscore.Internal_Hbond>
0.0000

> <Gold.Chemscore.DEClash>
0.5811

> <Gold.Chemscore.DEInternal>
0.2360

> <Gold.Chemscore.Rot>
4.0277

> <Gold.Chemscore.Internal.Correction>
   9.000000E+99

> <Gold.Chemscore.Hbonds>
donor molecule, donor type, donor heavy atom, donor atom, acceptor molecule, acceptor atom, score
      L1  H     1    26       P1 10957  0.93
      L1  H    18    31       P1  7957  0.81
      L1  H    20    32       P1 10175  0.21
      P1  H  7989  7998       L1    16  0.25
      P1  H  8011  8017       L1    18  0.30

> <Gold.Chemscore.Hbond.Weighted>
-12.4154

> <Gold.Chemscore.Metal.Weighted>
-0.0000

> <Gold.Chemscore.Lipo.Weighted>
-2.8033

> <Gold.Chemscore.Internal_Hbond.Weighted>
0.0000

> <Gold.Chemscore.DEClash.Weighted>
0.5811

> <Gold.Chemscore.DEInternal.Weighted>
0.2360

> <Gold.Chemscore.Rot.Weighted>
10.3110

> <Gold.Chemscore.Internal.Correction.Weighted>
   9.000000E+99

> <Gold.Protein.RotatedTorsions>
[ 6907 6896 6895 6894 ] final  168.84 input  -60.11 | X-H torsion
[ 7974 7965 7964 7962 ] final  -18.02 input  175.53 | X-H torsion
[ 8008 7997 7996 7995 ] final  -42.55 input   59.86 | X-H torsion
[ 10167 10162 10161 10158 ] final   14.50 input  -65.29 | X-H torsion
[ 10718 10713 10712 10709 ] final   31.98 input   66.30 | X-H torsion
[ 10763 10752 10751 10750 ] final  168.06 input  -60.55 | X-H torsion
[ 11005 11000 10999 10996 ] final  -97.84 input  -57.11 | X-H torsion

> <Gold.Protein.ActiveResidues>
 VAL166  LYS551  ARG553  GLY616  TRP617  ASP618  TYR619  PRO620  LYS621  CYS622 
 ASP623  PHE694  ASN695  SER759  ASP760  ASP761  ALA762  ILE779  LEU786  VAL792 
 PHE793  MET794  SER795  GLU796  ALA797  LYS798  CYS799  TRP800  GLU811  SER814 

> <Gold.Protein.RotatedAtoms>
  151.8414  133.3424  159.3643 H   0  0  0  0  0  0  0  0  0  0  0  0  # atno 6907 bound_to 6896
  150.7234  134.5388  159.5746 H   0  0  0  0  0  0  0  0  0  0  0  0  # atno 6908 bound_to 6896
  152.2862  134.7774  160.0438 H   0  0  0  0  0  0  0  0  0  0  0  0  # atno 6909 bound_to 6896
  146.1913  140.3862  142.8457 H   0  0  0  0  0  0  0  0  0  0  0  0  # atno 7974 bound_to 7965
  154.3998  140.1470  156.3374 H   0  0  0  0  0  0  0  0  0  0  0  0  # atno 8008 bound_to 7997
  155.8388  140.3463  155.5597 H   0  0  0  0  0  0  0  0  0  0  0  0  # atno 8009 bound_to 7997
  155.8110  140.0884  157.1894 H   0  0  0  0  0  0  0  0  0  0  0  0  # atno 8010 bound_to 7997
  140.5931  143.8755  150.6892 H   0  0  0  0  0  0  0  0  0  0  0  0  # atno 10167 bound_to 10162
  157.2794  130.7247  149.6548 H   0  0  0  0  0  0  0  0  0  0  0  0  # atno 10718 bound_to 10713
  154.3630  135.2753  155.2309 H   0  0  0  0  0  0  0  0  0  0  0  0  # atno 10763 bound_to 10752
  154.4489  135.5935  153.6182 H   0  0  0  0  0  0  0  0  0  0  0  0  # atno 10764 bound_to 10752
  152.9842  135.6037  154.3852 H   0  0  0  0  0  0  0  0  0  0  0  0  # atno 10765 bound_to 10752
  141.1365  133.8201  157.0760 H   0  0  0  0  0  0  0  0  0  0  0  0  # atno 11005 bound_to 11000
  144.8492  140.6975  143.6179 LP  0  0  0  0  0  0  0  0  0  0  0  0  # atno 17320 bound_to 7965
  145.3785  139.1642  143.4293 LP  0  0  0  0  0  0  0  0  0  0  0  0  # atno 17321 bound_to 7965
  140.2283  143.3755  152.1586 LP  0  0  0  0  0  0  0  0  0  0  0  0  # atno 17342 bound_to 10162
  139.5240  144.7079  151.5298 LP  0  0  0  0  0  0  0  0  0  0  0  0  # atno 17343 bound_to 10162
  155.9664  130.4343  150.5042 LP  0  0  0  0  0  0  0  0  0  0  0  0  # atno 17370 bound_to 10713
  157.2983  131.0640  151.2086 LP  0  0  0  0  0  0  0  0  0  0  0  0  # atno 17371 bound_to 10713
  140.0481  134.9820  157.1086 LP  0  0  0  0  0  0  0  0  0  0  0  0  # atno 17394 bound_to 11000
  140.4031  134.2061  155.7163 LP  0  0  0  0  0  0  0  0  0  0  0  0  # atno 17395 bound_to 11000

$$$$
