AV-unprocessed.smi:156|AV-procd|sdf|1289|dock4
  -GOLD-   2262018573D 1   1.00000     0.00000
 Structure written by MMmdl.
 51 53  0  0  0  0  0  0  0  0  1 V2000
  148.1108  138.1795  156.5222 C   0  0  0  0  0  0  0  0  0  0  0  0
  148.3911  137.5457  155.1443 C   0  0  2  0  0  0  0  0  0  0  0  0
  149.7422  137.9940  154.5151 C   0  0  1  0  0  0  0  0  0  0  0  0
  149.8841  139.5259  154.4325 C   0  0  0  0  0  0  0  0  0  0  0  0
  151.2209  137.2890  155.4147 S   0  0  0  0  0  0  0  0  0  0  0  0
  152.2110  138.7820  155.8477 C   0  0  0  0  0  0  0  0  0  0  0  0
  150.7816  136.6651  156.6717 O   0  0  0  0  0  0  0  0  0  0  0  0
  152.0129  136.4993  154.4592 O   0  0  0  0  0  0  0  0  0  0  0  0
  147.2582  137.7827  154.2401 N   0  0  0  0  0  0  0  0  0  0  0  0
  146.9974  139.1141  153.6995 C   0  0  0  0  0  0  0  0  0  0  0  0
  146.2953  136.8355  154.0803 C   0  0  0  0  0  0  0  0  0  0  0  0
  145.6547  136.3492  155.1767 N   0  0  0  0  0  0  0  0  0  0  0  0
  144.7050  135.4184  155.0523 C   0  0  0  0  0  0  0  0  0  0  0  0
  144.2507  134.8348  153.9432 N   0  0  0  0  0  0  0  0  0  0  0  0
  144.8937  135.3068  152.8371 C   0  0  0  0  0  0  0  0  0  0  0  0
  145.9104  136.3045  152.8141 C   0  0  0  0  0  0  0  0  0  0  0  0
  146.3176  136.5247  151.5032 N   0  0  0  0  0  0  0  0  0  0  0  0
  145.5848  135.7098  150.7961 C   0  0  0  0  0  0  0  0  0  0  0  0
  144.7152  134.9242  151.5181 N   0  0  0  0  0  0  0  0  0  0  0  0
  143.7900  133.9290  150.9922 C   0  0  0  0  0  0  0  0  0  0  0  0
  144.4581  132.7390  150.2598 C   0  0  0  0  0  0  0  0  0  0  0  0
  143.9019  132.6854  148.8300 C   0  0  0  0  0  0  0  0  0  0  0  0
  142.5810  132.1827  148.8094 O   0  0  0  0  0  0  0  0  0  0  0  0
  145.9905  132.6560  150.3664 C   0  0  0  0  0  0  0  0  0  0  0  0
  145.9191  131.6186  151.3668 O   0  0  0  0  0  0  0  0  0  0  0  0
  144.5399  131.3952  151.0052 C   0  0  0  0  0  0  0  0  0  0  0  0
  148.8284  137.8454  157.2709 H   0  0  0  0  0  0  0  0  0  0  0  0
  147.1232  137.8968  156.8882 H   0  0  0  0  0  0  0  0  0  0  0  0
  148.1515  139.2680  156.4852 H   0  0  0  0  0  0  0  0  0  0  0  0
  148.4861  136.4753  155.3215 H   0  0  0  0  0  0  0  0  0  0  0  0
  149.8049  137.6102  153.4965 H   0  0  0  0  0  0  0  0  0  0  0  0
  149.1313  139.9647  153.7786 H   0  0  0  0  0  0  0  0  0  0  0  0
  150.8514  139.8144  154.0216 H   0  0  0  0  0  0  0  0  0  0  0  0
  149.7870  139.9910  155.4132 H   0  0  0  0  0  0  0  0  0  0  0  0
  153.1492  138.4659  156.3028 H   0  0  0  0  0  0  0  0  0  0  0  0
  151.6669  139.3974  156.5630 H   0  0  0  0  0  0  0  0  0  0  0  0
  152.4269  139.3610  154.9508 H   0  0  0  0  0  0  0  0  0  0  0  0
  145.9414  139.3725  153.7856 H   0  0  0  0  0  0  0  0  0  0  0  0
  147.2795  139.1612  152.6479 H   0  0  0  0  0  0  0  0  0  0  0  0
  147.5671  139.8778  154.2275 H   0  0  0  0  0  0  0  0  0  0  0  0
  144.2451  135.0931  155.9738 H   0  0  0  0  0  0  0  0  0  0  0  0
  145.6657  135.6575  149.7204 H   0  0  0  0  0  0  0  0  0  0  0  0
  143.1814  133.5784  151.8262 H   0  0  0  0  0  0  0  0  0  0  0  0
  143.1003  134.4431  150.3216 H   0  0  0  0  0  0  0  0  0  0  0  0
  143.9135  133.6722  148.3660 H   0  0  0  0  0  0  0  0  0  0  0  0
  144.5128  132.0391  148.1986 H   0  0  0  0  0  0  0  0  0  0  0  0
  141.9956  132.8613  149.1094 H   0  0  0  0  0  0  0  0  0  0  0  0
  146.4801  132.3019  149.4575 H   0  0  0  0  0  0  0  0  0  0  0  0
  146.4739  133.5630  150.7262 H   0  0  0  0  0  0  0  0  0  0  0  0
  143.8822  131.3064  151.8679 H   0  0  0  0  0  0  0  0  0  0  0  0
  144.4318  130.5252  150.3551 H   0  0  0  0  0  0  0  0  0  0  0  0
  1  2  1  0  0  0  0
  1 27  1  0  0  0  0
  1 28  1  0  0  0  0
  1 29  1  0  0  0  0
  2  3  1  0  0  0  0
  2  9  1  0  0  0  0
  2 30  1  0  0  0  0
  3  4  1  0  0  0  0
  3  5  1  0  0  0  0
  3 31  1  0  0  0  0
  4 32  1  0  0  0  0
  4 33  1  0  0  0  0
  4 34  1  0  0  0  0
  5  6  1  0  0  0  0
  5  7  2  0  0  0  0
  5  8  2  0  0  0  0
  6 35  1  0  0  0  0
  6 36  1  0  0  0  0
  6 37  1  0  0  0  0
  9 10  1  0  0  0  0
  9 11  1  0  0  0  0
 10 38  1  0  0  0  0
 10 39  1  0  0  0  0
 10 40  1  0  0  0  0
 11 16  1  0  0  0  0
 11 12  2  0  0  0  0
 12 13  1  0  0  0  0
 13 14  2  0  0  0  0
 13 41  1  0  0  0  0
 14 15  1  0  0  0  0
 15 19  1  0  0  0  0
 15 16  2  0  0  0  0
 16 17  1  0  0  0  0
 17 18  2  0  0  0  0
 18 19  1  0  0  0  0
 18 42  1  0  0  0  0
 19 20  1  0  0  0  0
 20 21  1  0  0  0  0
 20 43  1  0  0  0  0
 20 44  1  0  0  0  0
 21 26  1  0  0  0  0
 21 22  1  0  0  0  0
 21 24  1  0  0  0  0
 22 23  1  0  0  0  0
 22 45  1  0  0  0  0
 22 46  1  0  0  0  0
 23 47  1  0  0  0  0
 24 25  1  0  0  0  0
 24 48  1  0  0  0  0
 24 49  1  0  0  0  0
 25 26  1  0  0  0  0
 26 50  1  0  0  0  0
 26 51  1  0  0  0  0
M  END
> <s_m_source_file>
AV-unprocessed.smi

> <i_m_source_file_index>
156

> <i_lp_mmshare_version>
43012

> <i_f3d_flags>
0

> <s_epik_input>
W0NIM11TKD1PKSg9TylbQ0BASF0oW0NIM10pW0NAQEhdKFtDSDNdKU4oW0NIM10pYyhuW2NIXW4xKWMoYzEyKW5bY0hdbjJbQ0gyXUMzKFtDSDJdW09IXSlbQ0gyXU9bQ0gyXTM=

> <s_epik_cmdline>
J2VwaWtfcHl0aG9uJywgJy1waCcsICc3LjAnLCAnLXRuJywgJzgnLCAnLW1hJywgJzIwMCcsICctbWV0YWxfYmluZGluZycsICctaW1hZScsICc8aW5maWxlLm1hZT4nLCAnLW9tYWUnLCAnPG91dGZpbGUubWFlPic=

> <r_lp_tautomer_probability>
1

> <r_epik_Ionization_Penalty>
0.00107697

> <r_epik_Ionization_Penalty_Charging>
0

> <r_epik_Ionization_Penalty_Neutral>
0.00107697

> <r_epik_State_Penalty>
0.000614712

> <r_epik_Charging_Adjusted_Penalty>
0.000614712

> <i_epik_Tot_Q>
0

> <i_epik_Tot_abs_Q>
0

> <r_epik_Metal_State_Penalty>
-0

> <b_epik_Metal_Only>
0

> <s_lp_Force_Field>
OPLS_2005

> <r_lp_Energy>
28.6083

> <b_lp_Chiralities_Consistent>
1

> <s_lp_Variant>
AV-unprocessed.smi:156-3

> <Gold.Version>
5.8.1

> <Gold.Id.Protein>
6NUR|6NUR_protein|mol2

> <Gold.PLP.Fitness>
45.0025

> <Gold.PLP.PLP>
-37.8851

> <Gold.PLP.part.hbond>
-4.0000

> <Gold.PLP.part.metal>
0.0000

> <Gold.PLP.part.buried>
-8.4354

> <Gold.PLP.part.nonpolar>
-29.2042

> <Gold.PLP.part.repulsive>
2.5612

> <Gold.PLP.ligand.clash>
0.0000

> <Gold.PLP.ligand.torsion>
2.9535

> <Gold.PLP.Chemscore.Hbond>
3.0000

> <Gold.PLP.Chemscore.CHOScore>
1.0000

> <Gold.PLP.Chemscore.Metal>
0.0000

> <Gold.Chemscore.Hbonds>
donor molecule, donor type, donor heavy atom, donor atom, acceptor molecule, acceptor atom, score
      L1  H    23    47       P1 10186  1.00
      P1  H 10752 10763       L1     8  0.31
      P1  H 10785 10796       L1    23  0.57
      L1  C    18    42       P1  7921  1.00

> <Gold.PLP.Chemscore.Internal.Correction>
1.0244

> <Gold.Rescore>
     Score         DG    S(hbond)    S(metal)    S(lipo)     H(rot)  DE(clash)    DE(int)     intcor
     10.31     -13.95       2.54        0.00      70.09       3.21       0.86       2.78       ----

> <Gold.Chemscore.Fitness>
10.3145

> <Gold.Chemscore.DG>
-13.9468

> <Gold.Chemscore.ZeroCoef>
-5.4800

> <Gold.Chemscore.Hbond>
2.5411

> <Gold.Chemscore.Metal>
0.0000

> <Gold.Chemscore.Lipo>
70.0933

> <Gold.Chemscore.Internal_Hbond>
0.0000

> <Gold.Chemscore.DEClash>
0.8572

> <Gold.Chemscore.DEInternal>
2.7750

> <Gold.Chemscore.Rot>
3.2115

> <Gold.Chemscore.Internal.Correction>
   9.000000E+99

> <Gold.Chemscore.Hbonds>
donor molecule, donor type, donor heavy atom, donor atom, acceptor molecule, acceptor atom, score
      L1  H    23    47       P1 10186  1.00
      P1  H 10752 10763       L1     8  0.31
      P1  H 10785 10796       L1    23  0.07

> <Gold.Chemscore.Hbond.Weighted>
-8.4874

> <Gold.Chemscore.Metal.Weighted>
-0.0000

> <Gold.Chemscore.Lipo.Weighted>
-8.2009

> <Gold.Chemscore.Internal_Hbond.Weighted>
0.0000

> <Gold.Chemscore.DEClash.Weighted>
0.8572

> <Gold.Chemscore.DEInternal.Weighted>
2.7750

> <Gold.Chemscore.Rot.Weighted>
8.2215

> <Gold.Chemscore.Internal.Correction.Weighted>
   9.000000E+99

> <Gold.Protein.RotatedTorsions>
[ 6907 6896 6895 6894 ] final  102.85 input  -60.11 | X-H torsion
[ 7974 7965 7964 7962 ] final  -86.66 input  175.53 | X-H torsion
[ 8008 7997 7996 7995 ] final  115.14 input   59.86 | X-H torsion
[ 10167 10162 10161 10158 ] final   87.89 input  -65.29 | X-H torsion
[ 10718 10713 10712 10709 ] final  153.03 input   66.30 | X-H torsion
[ 10763 10752 10751 10750 ] final   46.28 input  -60.55 | X-H torsion
[ 11005 11000 10999 10996 ] final  133.39 input  -57.11 | X-H torsion

> <Gold.Protein.ActiveResidues>
 VAL166  LYS551  ARG553  GLY616  TRP617  ASP618  TYR619  PRO620  LYS621  CYS622 
 ASP623  PHE694  ASN695  SER759  ASP760  ASP761  ALA762  ILE779  LEU786  VAL792 
 PHE793  MET794  SER795  GLU796  ALA797  LYS798  CYS799  TRP800  GLU811  SER814 

> <Gold.Protein.RotatedAtoms>
  152.5312  133.9914  159.7852 H   0  0  0  0  0  0  0  0  0  0  0  0  # atno 6907 bound_to 6896
  151.0149  133.5922  159.2685 H   0  0  0  0  0  0  0  0  0  0  0  0  # atno 6908 bound_to 6896
  151.2983  135.0768  159.9282 H   0  0  0  0  0  0  0  0  0  0  0  0  # atno 6909 bound_to 6896
  145.4770  140.9558  143.1885 H   0  0  0  0  0  0  0  0  0  0  0  0  # atno 7974 bound_to 7965
  156.2364  140.2944  156.0323 H   0  0  0  0  0  0  0  0  0  0  0  0  # atno 8008 bound_to 7997
  155.2080  140.0411  157.2946 H   0  0  0  0  0  0  0  0  0  0  0  0  # atno 8009 bound_to 7997
  154.6086  140.2446  155.7706 H   0  0  0  0  0  0  0  0  0  0  0  0  # atno 8010 bound_to 7997
  139.8727  144.6483  150.8931 H   0  0  0  0  0  0  0  0  0  0  0  0  # atno 10167 bound_to 10162
  157.2500  131.0777  151.1736 H   0  0  0  0  0  0  0  0  0  0  0  0  # atno 10718 bound_to 10713
  152.9813  135.6013  154.3574 H   0  0  0  0  0  0  0  0  0  0  0  0  # atno 10763 bound_to 10752
  154.3259  135.2769  155.2498 H   0  0  0  0  0  0  0  0  0  0  0  0  # atno 10764 bound_to 10752
  154.4644  135.5958  153.6333 H   0  0  0  0  0  0  0  0  0  0  0  0  # atno 10765 bound_to 10752
  139.9849  134.9535  156.9718 H   0  0  0  0  0  0  0  0  0  0  0  0  # atno 11005 bound_to 11000
  144.7911  139.6326  143.7113 LP  0  0  0  0  0  0  0  0  0  0  0  0  # atno 17320 bound_to 7965
  146.2363  139.5913  142.9521 LP  0  0  0  0  0  0  0  0  0  0  0  0  # atno 17321 bound_to 7965
  140.7758  143.3650  151.1756 LP  0  0  0  0  0  0  0  0  0  0  0  0  # atno 17342 bound_to 10162
  139.7268  143.9135  152.3005 LP  0  0  0  0  0  0  0  0  0  0  0  0  # atno 17343 bound_to 10162
  157.3288  130.6974  149.6312 LP  0  0  0  0  0  0  0  0  0  0  0  0  # atno 17370 bound_to 10713
  155.9666  130.4314  150.4917 LP  0  0  0  0  0  0  0  0  0  0  0  0  # atno 17371 bound_to 10713
  140.5023  134.1085  155.7253 LP  0  0  0  0  0  0  0  0  0  0  0  0  # atno 17394 bound_to 11000
  141.1515  133.8959  157.2085 LP  0  0  0  0  0  0  0  0  0  0  0  0  # atno 17395 bound_to 11000

$$$$
