AV-unprocessed.smi:1288|AV-procd|sdf|5381|dock8
  -GOLD-   22720 4533D 1   1.00000     0.00000
 Structure written by MMmdl.
 42 44  0  0  0  0  0  0  0  0  1 V2000
  150.9620  139.8978  155.4683 C   0  0  0  0  0  0  0  0  0  0  0  0
  151.2813  140.7290  156.6703 C   0  0  0  0  0  0  0  0  0  0  0  0
  150.9173  142.0078  156.7677 N   0  0  0  0  0  0  0  0  0  0  0  0
  151.4147  142.3707  158.0045 C   0  0  0  0  0  0  0  0  0  0  0  0
  151.3574  143.6047  158.6911 C   0  0  0  0  0  0  0  0  0  0  0  0
  151.9460  143.7406  159.9653 C   0  0  0  0  0  0  0  0  0  0  0  0
  152.6001  142.6476  160.5699 C   0  0  0  0  0  0  0  0  0  0  0  0
  152.6682  141.4089  159.9034 C   0  0  0  0  0  0  0  0  0  0  0  0
  152.0786  141.2781  158.6317 C   0  0  0  0  0  0  0  0  0  0  0  0
  151.9647  140.2259  157.7277 N   0  0  0  0  0  0  0  0  0  0  0  0
  152.4828  138.8747  157.8979 C   0  0  0  0  0  0  0  0  0  0  0  0
  151.7040  138.0631  158.9532 C   0  0  2  0  0  0  0  0  0  0  0  0
  152.4527  136.9130  159.2955 O   0  0  0  0  0  0  0  0  0  0  0  0
  150.3309  137.6129  158.4297 C   0  0  0  0  0  0  0  0  0  0  0  0
  149.9026  136.4759  159.1618 O   0  0  0  0  0  0  0  0  0  0  0  0
  148.5145  136.2237  159.0222 C   0  0  0  0  0  0  0  0  0  0  0  0
  147.9401  135.5866  160.2722 C   0  0  0  0  0  0  0  0  0  0  0  0
  147.7656  136.3574  161.4411 C   0  0  0  0  0  0  0  0  0  0  0  0
  147.2331  135.7691  162.6049 C   0  0  0  0  0  0  0  0  0  0  0  0
  146.8715  134.4081  162.6041 C   0  0  0  0  0  0  0  0  0  0  0  0
  147.0415  133.6362  161.4385 C   0  0  0  0  0  0  0  0  0  0  0  0
  147.5738  134.2230  160.2736 C   0  0  0  0  0  0  0  0  0  0  0  0
  147.7310  133.4716  159.1573 F   0  0  0  0  0  0  0  0  0  0  0  0
  150.3922  140.4788  154.7424 H   0  0  0  0  0  0  0  0  0  0  0  0
  150.3680  139.0294  155.7520 H   0  0  0  0  0  0  0  0  0  0  0  0
  151.8802  139.5581  154.9890 H   0  0  0  0  0  0  0  0  0  0  0  0
  150.8588  144.4480  158.2365 H   0  0  0  0  0  0  0  0  0  0  0  0
  151.8955  144.6881  160.4815 H   0  0  0  0  0  0  0  0  0  0  0  0
  153.0488  142.7602  161.5460 H   0  0  0  0  0  0  0  0  0  0  0  0
  153.1657  140.5694  160.3657 H   0  0  0  0  0  0  0  0  0  0  0  0
  152.4558  138.3671  156.9333 H   0  0  0  0  0  0  0  0  0  0  0  0
  153.5364  138.9387  158.1728 H   0  0  0  0  0  0  0  0  0  0  0  0
  151.5687  138.6727  159.8471 H   0  0  0  0  0  0  0  0  0  0  0  0
  153.3374  137.0284  158.9838 H   0  0  0  0  0  0  0  0  0  0  0  0
  149.6010  138.4095  158.5836 H   0  0  0  0  0  0  0  0  0  0  0  0
  150.3647  137.4094  157.3577 H   0  0  0  0  0  0  0  0  0  0  0  0
  147.9823  137.1547  158.8206 H   0  0  0  0  0  0  0  0  0  0  0  0
  148.3406  135.5676  158.1677 H   0  0  0  0  0  0  0  0  0  0  0  0
  148.0385  137.4026  161.4488 H   0  0  0  0  0  0  0  0  0  0  0  0
  147.1019  136.3625  163.4978 H   0  0  0  0  0  0  0  0  0  0  0  0
  146.4630  133.9570  163.4964 H   0  0  0  0  0  0  0  0  0  0  0  0
  146.7629  132.5928  161.4372 H   0  0  0  0  0  0  0  0  0  0  0  0
  1  2  1  0  0  0  0
  1 24  1  0  0  0  0
  1 25  1  0  0  0  0
  1 26  1  0  0  0  0
  2 10  1  0  0  0  0
  2  3  2  0  0  0  0
  3  4  1  0  0  0  0
  4  9  2  0  0  0  0
  4  5  1  0  0  0  0
  5  6  2  0  0  0  0
  5 27  1  0  0  0  0
  6  7  1  0  0  0  0
  6 28  1  0  0  0  0
  7  8  2  0  0  0  0
  7 29  1  0  0  0  0
  8  9  1  0  0  0  0
  8 30  1  0  0  0  0
  9 10  1  0  0  0  0
 10 11  1  0  0  0  0
 11 12  1  0  0  0  0
 11 31  1  0  0  0  0
 11 32  1  0  0  0  0
 12 13  1  0  0  0  0
 12 14  1  0  0  0  0
 12 33  1  0  0  0  0
 13 34  1  0  0  0  0
 14 15  1  0  0  0  0
 14 35  1  0  0  0  0
 14 36  1  0  0  0  0
 15 16  1  0  0  0  0
 16 17  1  0  0  0  0
 16 37  1  0  0  0  0
 16 38  1  0  0  0  0
 17 22  1  0  0  0  0
 17 18  2  0  0  0  0
 18 19  1  0  0  0  0
 18 39  1  0  0  0  0
 19 20  2  0  0  0  0
 19 40  1  0  0  0  0
 20 21  1  0  0  0  0
 20 41  1  0  0  0  0
 21 22  2  0  0  0  0
 21 42  1  0  0  0  0
 22 23  1  0  0  0  0
M  END
> <s_m_source_file>
AV-unprocessed.smi

> <i_m_source_file_index>
1288

> <i_lp_mmshare_version>
43012

> <i_f3d_flags>
0

> <s_epik_input>
W2NIXTFbY0hdW2NIXVtjSF1jKGMxMiluKGMobjIpW0NIM10pW0NIMl1bQ0BIXShbT0hdKVtDSDJdT1tDSDJdYzNbY0hdW2NIXVtjSF1bY0hdYzNG

> <s_epik_cmdline>
J2VwaWtfcHl0aG9uJywgJy1waCcsICc3LjAnLCAnLXRuJywgJzgnLCAnLW1hJywgJzIwMCcsICctbWV0YWxfYmluZGluZycsICctaW1hZScsICc8aW5maWxlLm1hZT4nLCAnLW9tYWUnLCAnPG91dGZpbGUubWFlPic=

> <r_epik_Ionization_Penalty>
0.132603

> <r_epik_Ionization_Penalty_Charging>
0

> <r_epik_Ionization_Penalty_Neutral>
0.132603

> <r_epik_State_Penalty>
0.121982

> <r_epik_Charging_Adjusted_Penalty>
0.121982

> <i_epik_Tot_Q>
0

> <i_epik_Tot_abs_Q>
0

> <r_epik_Metal_State_Penalty>
0.000135431

> <b_epik_Metal_Only>
0

> <s_lp_Force_Field>
OPLS_2005

> <r_lp_Energy>
16.1737

> <b_lp_Chiralities_Consistent>
1

> <s_lp_Variant>
AV-unprocessed.smi:1288-1

> <Gold.Version>
5.8.1

> <Gold.Id.Protein>
6NUR|6NUR_protein|mol2

> <Gold.PLP.Fitness>
55.3388

> <Gold.PLP.PLP>
-52.5694

> <Gold.PLP.part.hbond>
-2.0000

> <Gold.PLP.part.metal>
0.0000

> <Gold.PLP.part.buried>
-6.1282

> <Gold.PLP.part.nonpolar>
-45.1764

> <Gold.PLP.part.repulsive>
0.0557

> <Gold.PLP.ligand.clash>
0.0000

> <Gold.PLP.ligand.torsion>
0.8731

> <Gold.PLP.Chemscore.Hbond>
1.4560

> <Gold.PLP.Chemscore.CHOScore>
0.0000

> <Gold.PLP.Chemscore.Metal>
0.0000

> <Gold.Chemscore.Hbonds>
donor molecule, donor type, donor heavy atom, donor atom, acceptor molecule, acceptor atom, score
      P1  H  6896  6907       L1    15  0.73
      P1  H  6896  6908       L1    13  0.35

> <Gold.PLP.Chemscore.Internal.Correction>
0.1477

> <Gold.Rescore>
     Score         DG    S(hbond)    S(metal)    S(lipo)     H(rot)  DE(clash)    DE(int)     intcor
     17.63     -18.64       0.98        0.00     134.40       2.29       0.09       0.91       ----

> <Gold.Chemscore.Fitness>
17.6280

> <Gold.Chemscore.DG>
-18.6357

> <Gold.Chemscore.ZeroCoef>
-5.4800

> <Gold.Chemscore.Hbond>
0.9831

> <Gold.Chemscore.Metal>
0.0000

> <Gold.Chemscore.Lipo>
134.4014

> <Gold.Chemscore.Internal_Hbond>
0.0000

> <Gold.Chemscore.DEClash>
0.0930

> <Gold.Chemscore.DEInternal>
0.9146

> <Gold.Chemscore.Rot>
2.2863

> <Gold.Chemscore.Internal.Correction>
   9.000000E+99

> <Gold.Chemscore.Hbonds>
donor molecule, donor type, donor heavy atom, donor atom, acceptor molecule, acceptor atom, score
      P1  H  6896  6907       L1    15  0.28
      P1  H  6896  6908       L1    13  0.22

> <Gold.Chemscore.Hbond.Weighted>
-3.2837

> <Gold.Chemscore.Metal.Weighted>
-0.0000

> <Gold.Chemscore.Lipo.Weighted>
-15.7250

> <Gold.Chemscore.Internal_Hbond.Weighted>
0.0000

> <Gold.Chemscore.DEClash.Weighted>
0.0930

> <Gold.Chemscore.DEInternal.Weighted>
0.9146

> <Gold.Chemscore.Rot.Weighted>
5.8530

> <Gold.Chemscore.Internal.Correction.Weighted>
   9.000000E+99

> <Gold.Protein.RotatedTorsions>
[ 6907 6896 6895 6894 ] final  -71.05 input  -60.11 | X-H torsion
[ 7974 7965 7964 7962 ] final  -90.25 input  175.53 | X-H torsion
[ 8008 7997 7996 7995 ] final   94.23 input   59.86 | X-H torsion
[ 10167 10162 10161 10158 ] final  -90.54 input  -65.29 | X-H torsion
[ 10718 10713 10712 10709 ] final  -49.61 input   66.30 | X-H torsion
[ 10763 10752 10751 10750 ] final -134.15 input  -60.55 | X-H torsion
[ 11005 11000 10999 10996 ] final -143.29 input  -57.11 | X-H torsion

> <Gold.Protein.ActiveResidues>
 VAL166  LYS551  ARG553  GLY616  TRP617  ASP618  TYR619  PRO620  LYS621  CYS622 
 ASP623  PHE694  ASN695  SER759  ASP760  ASP761  ALA762  ILE779  LEU786  VAL792 
 PHE793  MET794  SER795  GLU796  ALA797  LYS798  CYS799  TRP800  GLU811  SER814 

> <Gold.Protein.RotatedAtoms>
  150.7230  134.5365  159.5725 H   0  0  0  0  0  0  0  0  0  0  0  0  # atno 6907 bound_to 6896
  152.2885  134.7745  160.0391 H   0  0  0  0  0  0  0  0  0  0  0  0  # atno 6908 bound_to 6896
  151.8366  133.3381  159.3667 H   0  0  0  0  0  0  0  0  0  0  0  0  # atno 6909 bound_to 6896
  145.4290  140.9555  143.2138 H   0  0  0  0  0  0  0  0  0  0  0  0  # atno 7974 bound_to 7965
  156.0556  140.3302  155.7401 H   0  0  0  0  0  0  0  0  0  0  0  0  # atno 8008 bound_to 7997
  155.5534  140.0612  157.2862 H   0  0  0  0  0  0  0  0  0  0  0  0  # atno 8009 bound_to 7997
  154.4456  140.1890  156.0698 H   0  0  0  0  0  0  0  0  0  0  0  0  # atno 8010 bound_to 7997
  140.3539  143.2877  151.9694 H   0  0  0  0  0  0  0  0  0  0  0  0  # atno 10167 bound_to 10162
  156.1877  130.4152  149.9416 H   0  0  0  0  0  0  0  0  0  0  0  0  # atno 10718 bound_to 10713
  154.8723  135.3744  154.4688 H   0  0  0  0  0  0  0  0  0  0  0  0  # atno 10763 bound_to 10752
  153.5350  135.7027  153.5669 H   0  0  0  0  0  0  0  0  0  0  0  0  # atno 10764 bound_to 10752
  153.3857  135.3985  155.1853 H   0  0  0  0  0  0  0  0  0  0  0  0  # atno 10765 bound_to 10752
  140.8140  134.2710  157.4929 H   0  0  0  0  0  0  0  0  0  0  0  0  # atno 11005 bound_to 11000
  144.8195  139.5816  143.6993 LP  0  0  0  0  0  0  0  0  0  0  0  0  # atno 17320 bound_to 7965
  146.2617  139.6426  142.9357 LP  0  0  0  0  0  0  0  0  0  0  0  0  # atno 17321 bound_to 7965
  139.4823  144.6052  151.7534 LP  0  0  0  0  0  0  0  0  0  0  0  0  # atno 17342 bound_to 10162
  140.5193  144.0904  150.6017 LP  0  0  0  0  0  0  0  0  0  0  0  0  # atno 17343 bound_to 10162
  156.7166  130.8991  151.3614 LP  0  0  0  0  0  0  0  0  0  0  0  0  # atno 17370 bound_to 10713
  157.6909  130.9232  150.0511 LP  0  0  0  0  0  0  0  0  0  0  0  0  # atno 17371 bound_to 10713
  139.8712  134.9499  156.4039 LP  0  0  0  0  0  0  0  0  0  0  0  0  # atno 17394 bound_to 11000
  140.9168  133.7673  155.9858 LP  0  0  0  0  0  0  0  0  0  0  0  0  # atno 17395 bound_to 11000

$$$$
