AV-unprocessed.smi:3056|AV-procd|sdf|11656|dock6
  -GOLD-   2272017 53D 1   1.00000     0.00000
 Structure written by MMmdl.
 47 48  0  0  0  0  0  0  0  0  1 V2000
  151.0159  135.9050  156.3516 C   0  0  0  0  0  0  0  0  0  0  0  0
  150.8165  137.2164  155.6481 C   0  0  0  0  0  0  0  0  0  0  0  0
  151.7899  138.2154  155.3645 C   0  0  0  0  0  0  0  0  0  0  0  0
  151.2829  139.2637  154.7369 N   0  0  0  0  0  0  0  0  0  0  0  0
  149.9742  138.9690  154.5788 N   0  0  0  0  0  0  0  0  0  0  0  0
  149.0890  139.9441  153.9478 C   0  0  1  0  0  0  0  0  0  0  0  0
  147.6741  139.3644  153.7370 C   0  0  0  0  0  0  0  0  0  0  0  0
  149.1145  141.3044  154.6964 C   0  0  1  0  0  0  0  0  0  0  0  0
  147.8978  142.1868  154.3519 C   0  0  0  0  0  0  0  0  0  0  0  0
  149.2148  141.0587  156.1329 N   0  0  0  0  0  0  0  0  0  0  0  0
  150.0268  142.0415  156.8614 C   0  0  0  0  0  0  0  0  0  0  0  0
  151.1125  141.3480  157.6930 C   0  0  0  0  0  0  0  0  0  0  0  0
  151.0359  140.1272  157.8319 O   0  0  0  0  0  0  0  0  0  0  0  0
  152.1024  142.0826  158.2580 N   0  0  0  0  0  0  0  0  0  0  0  0
  153.0871  141.5196  159.1840 C   0  0  0  0  0  0  0  0  0  0  0  0
  152.8101  142.1057  160.5812 C   0  0  0  0  0  0  0  0  0  0  0  0
  152.8631  143.5315  160.5306 O   0  0  0  0  0  0  0  0  0  0  0  0
  151.9450  144.1036  159.5987 C   0  0  1  0  0  0  0  0  0  0  0  0
  152.0807  145.6286  159.6526 C   0  0  0  0  0  0  0  0  0  0  0  0
  152.2467  143.5397  158.1958 C   0  0  0  0  0  0  0  0  0  0  0  0
  149.6657  137.7416  155.1339 C   0  0  0  0  0  0  0  0  0  0  0  0
  151.9186  135.9065  156.9627 H   0  0  0  0  0  0  0  0  0  0  0  0
  151.1072  135.0801  155.6449 H   0  0  0  0  0  0  0  0  0  0  0  0
  150.1817  135.6716  157.0133 H   0  0  0  0  0  0  0  0  0  0  0  0
  152.8436  138.2124  155.6019 H   0  0  0  0  0  0  0  0  0  0  0  0
  149.4920  140.1228  152.9490 H   0  0  0  0  0  0  0  0  0  0  0  0
  147.0619  140.0212  153.1194 H   0  0  0  0  0  0  0  0  0  0  0  0
  147.1478  139.2158  154.6801 H   0  0  0  0  0  0  0  0  0  0  0  0
  147.7203  138.4008  153.2291 H   0  0  0  0  0  0  0  0  0  0  0  0
  150.0156  141.8332  154.3810 H   0  0  0  0  0  0  0  0  0  0  0  0
  147.7481  142.2383  153.2731 H   0  0  0  0  0  0  0  0  0  0  0  0
  148.0294  143.2115  154.6987 H   0  0  0  0  0  0  0  0  0  0  0  0
  146.9797  141.8017  154.7966 H   0  0  0  0  0  0  0  0  0  0  0  0
  149.5894  140.1291  156.2602 H   0  0  0  0  0  0  0  0  0  0  0  0
  150.5021  142.7176  156.1490 H   0  0  0  0  0  0  0  0  0  0  0  0
  149.4111  142.6563  157.5170 H   0  0  0  0  0  0  0  0  0  0  0  0
  153.0581  140.4301  159.2258 H   0  0  0  0  0  0  0  0  0  0  0  0
  154.0932  141.7836  158.8553 H   0  0  0  0  0  0  0  0  0  0  0  0
  151.8339  141.7848  160.9485 H   0  0  0  0  0  0  0  0  0  0  0  0
  153.5529  141.7491  161.2948 H   0  0  0  0  0  0  0  0  0  0  0  0
  150.9287  143.8363  159.8939 H   0  0  0  0  0  0  0  0  0  0  0  0
  151.3823  146.1073  158.9656 H   0  0  0  0  0  0  0  0  0  0  0  0
  153.0884  145.9455  159.3825 H   0  0  0  0  0  0  0  0  0  0  0  0
  151.8700  146.0032  160.6545 H   0  0  0  0  0  0  0  0  0  0  0  0
  153.2672  143.7890  157.9009 H   0  0  0  0  0  0  0  0  0  0  0  0
  151.6065  144.0112  157.4523 H   0  0  0  0  0  0  0  0  0  0  0  0
  148.6606  137.3462  155.1238 H   0  0  0  0  0  0  0  0  0  0  0  0
  1  2  1  0  0  0  0
  1 22  1  0  0  0  0
  1 23  1  0  0  0  0
  1 24  1  0  0  0  0
  2 21  2  0  0  0  0
  2  3  1  0  0  0  0
  3  4  2  0  0  0  0
  3 25  1  0  0  0  0
  4  5  1  0  0  0  0
  5  6  1  0  0  0  0
  5 21  1  0  0  0  0
  6  7  1  0  0  0  0
  6  8  1  0  0  0  0
  6 26  1  0  0  0  0
  7 27  1  0  0  0  0
  7 28  1  0  0  0  0
  7 29  1  0  0  0  0
  8  9  1  0  0  0  0
  8 10  1  0  0  0  0
  8 30  1  0  0  0  0
  9 31  1  0  0  0  0
  9 32  1  0  0  0  0
  9 33  1  0  0  0  0
 10 11  1  0  0  0  0
 10 34  1  0  0  0  0
 11 12  1  0  0  0  0
 11 35  1  0  0  0  0
 11 36  1  0  0  0  0
 12 13  2  0  0  0  0
 12 14  1  0  0  0  0
 14 20  1  0  0  0  0
 14 15  1  0  0  0  0
 15 16  1  0  0  0  0
 15 37  1  0  0  0  0
 15 38  1  0  0  0  0
 16 17  1  0  0  0  0
 16 39  1  0  0  0  0
 16 40  1  0  0  0  0
 17 18  1  0  0  0  0
 18 19  1  0  0  0  0
 18 20  1  0  0  0  0
 18 41  1  0  0  0  0
 19 42  1  0  0  0  0
 19 43  1  0  0  0  0
 19 44  1  0  0  0  0
 20 45  1  0  0  0  0
 20 46  1  0  0  0  0
 21 47  1  0  0  0  0
M  END
> <s_m_source_file>
AV-unprocessed.smi

> <i_m_source_file_index>
3056

> <i_lp_mmshare_version>
43012

> <i_f3d_flags>
0

> <s_epik_input>
W0NIM11jMVtjSF1ubihbY0hdMSlbQ0BIXShbQ0gzXSlbQ0BIXShbQ0gzXSlbTkhdW0NIMl1DKD1PKU4yW0NIMl1bQ0gyXU9bQ0BASF0oW0NIM10pW0NIMl0y

> <s_epik_cmdline>
J2VwaWtfcHl0aG9uJywgJy1waCcsICc3LjAnLCAnLXRuJywgJzgnLCAnLW1hJywgJzIwMCcsICctbWV0YWxfYmluZGluZycsICctaW1hZScsICc8aW5maWxlLm1hZT4nLCAnLW9tYWUnLCAnPG91dGZpbGUubWFlPic=

> <r_lp_tautomer_probability>
1

> <r_epik_Ionization_Penalty>
0.667689

> <r_epik_Ionization_Penalty_Charging>
0

> <r_epik_Ionization_Penalty_Neutral>
0.667689

> <r_epik_State_Penalty>
0.684601

> <r_epik_Charging_Adjusted_Penalty>
0.684601

> <i_epik_Tot_Q>
0

> <i_epik_Tot_abs_Q>
0

> <r_epik_Metal_State_Penalty>
0.681448

> <b_epik_Metal_Only>
0

> <s_lp_Force_Field>
OPLS_2005

> <r_lp_Energy>
30.7947

> <b_lp_Chiralities_Consistent>
1

> <s_lp_Variant>
AV-unprocessed.smi:3056-12

> <Gold.Version>
5.8.1

> <Gold.Id.Protein>
6NUR|6NUR_protein|mol2

> <Gold.PLP.Fitness>
43.4088

> <Gold.PLP.PLP>
-43.2594

> <Gold.PLP.part.hbond>
-1.0000

> <Gold.PLP.part.metal>
0.0000

> <Gold.PLP.part.buried>
-1.0256

> <Gold.PLP.part.nonpolar>
-40.7445

> <Gold.PLP.part.repulsive>
0.1157

> <Gold.PLP.ligand.clash>
0.0000

> <Gold.PLP.ligand.torsion>
1.5195

> <Gold.PLP.Chemscore.Hbond>
1.0000

> <Gold.PLP.Chemscore.CHOScore>
0.0000

> <Gold.PLP.Chemscore.Metal>
0.0000

> <Gold.Chemscore.Hbonds>
donor molecule, donor type, donor heavy atom, donor atom, acceptor molecule, acceptor atom, score
      P1  H  7989  7998       L1     4  0.94

> <Gold.PLP.Chemscore.Internal.Correction>
0.1884

> <Gold.Rescore>
     Score         DG    S(hbond)    S(metal)    S(lipo)     H(rot)  DE(clash)    DE(int)     intcor
     15.49     -17.00       0.99        0.00     107.06       1.68       0.09       1.43       ----

> <Gold.Chemscore.Fitness>
15.4924

> <Gold.Chemscore.DG>
-17.0047

> <Gold.Chemscore.ZeroCoef>
-5.4800

> <Gold.Chemscore.Hbond>
0.9874

> <Gold.Chemscore.Metal>
0.0000

> <Gold.Chemscore.Lipo>
107.0575

> <Gold.Chemscore.Internal_Hbond>
0.0000

> <Gold.Chemscore.DEClash>
0.0857

> <Gold.Chemscore.DEInternal>
1.4266

> <Gold.Chemscore.Rot>
1.6793

> <Gold.Chemscore.Internal.Correction>
   9.000000E+99

> <Gold.Chemscore.Hbonds>
donor molecule, donor type, donor heavy atom, donor atom, acceptor molecule, acceptor atom, score
      P1  H  7989  7998       L1     4  0.50

> <Gold.Chemscore.Hbond.Weighted>
-3.2980

> <Gold.Chemscore.Metal.Weighted>
-0.0000

> <Gold.Chemscore.Lipo.Weighted>
-12.5257

> <Gold.Chemscore.Internal_Hbond.Weighted>
0.0000

> <Gold.Chemscore.DEClash.Weighted>
0.0857

> <Gold.Chemscore.DEInternal.Weighted>
1.4266

> <Gold.Chemscore.Rot.Weighted>
4.2990

> <Gold.Chemscore.Internal.Correction.Weighted>
   9.000000E+99

> <Gold.Protein.RotatedTorsions>
[ 6907 6896 6895 6894 ] final -116.86 input  -60.11 | X-H torsion
[ 7974 7965 7964 7962 ] final -124.64 input  175.53 | X-H torsion
[ 8008 7997 7996 7995 ] final -115.34 input   59.86 | X-H torsion
[ 10167 10162 10161 10158 ] final  -17.80 input  -65.29 | X-H torsion
[ 10718 10713 10712 10709 ] final  142.59 input   66.30 | X-H torsion
[ 10763 10752 10751 10750 ] final   72.42 input  -60.55 | X-H torsion
[ 11005 11000 10999 10996 ] final  -33.84 input  -57.11 | X-H torsion

> <Gold.Protein.ActiveResidues>
 VAL166  LYS551  ARG553  GLY616  TRP617  ASP618  TYR619  PRO620  LYS621  CYS622 
 ASP623  PHE694  ASN695  SER759  ASP760  ASP761  ALA762  ILE779  LEU786  VAL792 
 PHE793  MET794  SER795  GLU796  ALA797  LYS798  CYS799  TRP800  GLU811  SER814 

> <Gold.Protein.RotatedAtoms>
  150.8090  133.8457  159.3191 H   0  0  0  0  0  0  0  0  0  0  0  0  # atno 6907 bound_to 6896
  151.6247  135.1027  160.0118 H   0  0  0  0  0  0  0  0  0  0  0  0  # atno 6908 bound_to 6896
  152.4182  133.7032  159.6492 H   0  0  0  0  0  0  0  0  0  0  0  0  # atno 6909 bound_to 6896
  145.0059  140.7862  143.4468 H   0  0  0  0  0  0  0  0  0  0  0  0  # atno 7974 bound_to 7965
  155.0505  140.0393  157.2542 H   0  0  0  0  0  0  0  0  0  0  0  0  # atno 8008 bound_to 7997
  154.7141  140.2699  155.6577 H   0  0  0  0  0  0  0  0  0  0  0  0  # atno 8009 bound_to 7997
  156.2798  140.2716  156.1792 H   0  0  0  0  0  0  0  0  0  0  0  0  # atno 8010 bound_to 7997
  140.7251  143.4980  150.9906 H   0  0  0  0  0  0  0  0  0  0  0  0  # atno 10167 bound_to 10162
  157.3788  131.0989  151.0758 H   0  0  0  0  0  0  0  0  0  0  0  0  # atno 10718 bound_to 10713
  153.0458  135.5100  154.7741 H   0  0  0  0  0  0  0  0  0  0  0  0  # atno 10763 bound_to 10752
  154.6643  135.2943  154.9828 H   0  0  0  0  0  0  0  0  0  0  0  0  # atno 10764 bound_to 10752
  154.0669  135.6683  153.4871 H   0  0  0  0  0  0  0  0  0  0  0  0  # atno 10765 bound_to 10752
  140.9667  133.7133  156.1457 H   0  0  0  0  0  0  0  0  0  0  0  0  # atno 11005 bound_to 11000
  145.2089  139.2214  143.5153 LP  0  0  0  0  0  0  0  0  0  0  0  0  # atno 17320 bound_to 7965
  146.3461  140.1923  142.8589 LP  0  0  0  0  0  0  0  0  0  0  0  0  # atno 17321 bound_to 7965
  139.8688  143.7219  152.3168 LP  0  0  0  0  0  0  0  0  0  0  0  0  # atno 17342 bound_to 10162
  139.7461  144.7547  151.0578 LP  0  0  0  0  0  0  0  0  0  0  0  0  # atno 17343 bound_to 10162
  157.1835  130.6320  149.5680 LP  0  0  0  0  0  0  0  0  0  0  0  0  # atno 17370 bound_to 10713
  155.9771  130.4746  150.6572 LP  0  0  0  0  0  0  0  0  0  0  0  0  # atno 17371 bound_to 10713
  140.7388  134.4173  157.5557 LP  0  0  0  0  0  0  0  0  0  0  0  0  # atno 17394 bound_to 11000
  139.8897  134.8823  156.2406 LP  0  0  0  0  0  0  0  0  0  0  0  0  # atno 17395 bound_to 11000

$$$$
