AV-unprocessed.smi:416|AV-procd|sdf|2526|dock5
  -GOLD-   2262022483D 1   1.00000     0.00000
 Structure written by MMmdl.
 43 44  0  0  0  0  0  0  0  0  1 V2000
  146.7547  138.6869  152.1929 C   0  0  0  0  0  0  0  0  0  0  0  0
  146.8901  139.4231  153.5412 C   0  0  0  0  0  0  0  0  0  0  0  0
  147.0104  140.9389  153.2778 C   0  0  0  0  0  0  0  0  0  0  0  0
  145.6208  139.1646  154.3873 C   0  0  0  0  0  0  0  0  0  0  0  0
  148.1811  138.9323  154.2411 C   0  0  0  0  0  0  0  0  0  0  0  0
  148.1145  138.4582  155.3762 O   0  0  0  0  0  0  0  0  0  0  0  0
  149.3466  139.0514  153.5816 N   0  0  0  0  0  0  0  0  0  0  0  0
  150.6611  138.6706  154.0889 C   0  0  0  0  0  0  0  0  0  0  0  0
  151.1053  139.5028  155.2808 C   0  0  0  0  0  0  0  0  0  0  0  0
  150.3927  140.6576  155.6587 C   0  0  0  0  0  0  0  0  0  0  0  0
  150.8379  141.4051  156.7658 C   0  0  0  0  0  0  0  0  0  0  0  0
  151.9927  140.9821  157.4672 C   0  0  0  0  0  0  0  0  0  0  0  0
  152.4617  141.7166  158.5789 N   0  0  0  0  0  0  0  0  0  0  0  0
  152.6718  140.9511  159.8057 C   0  0  0  0  0  0  0  0  0  0  0  0
  153.4626  141.7837  160.8292 C   0  0  0  0  0  0  0  0  0  0  0  0
  152.8000  143.0224  161.0593 O   0  0  0  0  0  0  0  0  0  0  0  0
  152.7097  143.8015  159.8714 C   0  0  0  0  0  0  0  0  0  0  0  0
  151.8903  143.0420  158.8144 C   0  0  0  0  0  0  0  0  0  0  0  0
  152.6732  139.8677  157.1007 N   0  0  0  0  0  0  0  0  0  0  0  0
  152.2426  139.1550  156.0390 C   0  0  0  0  0  0  0  0  0  0  0  0
  145.8690  139.0184  151.6500 H   0  0  0  0  0  0  0  0  0  0  0  0
  146.6648  137.6090  152.3350 H   0  0  0  0  0  0  0  0  0  0  0  0
  147.6150  138.8624  151.5453 H   0  0  0  0  0  0  0  0  0  0  0  0
  147.8601  141.1751  152.6353 H   0  0  0  0  0  0  0  0  0  0  0  0
  147.1346  141.4968  154.2070 H   0  0  0  0  0  0  0  0  0  0  0  0
  146.1184  141.3251  152.7835 H   0  0  0  0  0  0  0  0  0  0  0  0
  144.7304  139.5384  153.8805 H   0  0  0  0  0  0  0  0  0  0  0  0
  145.6715  139.6648  155.3556 H   0  0  0  0  0  0  0  0  0  0  0  0
  145.4617  138.1003  154.5666 H   0  0  0  0  0  0  0  0  0  0  0  0
  149.3192  139.4504  152.6543 H   0  0  0  0  0  0  0  0  0  0  0  0
  150.6869  137.6152  154.3648 H   0  0  0  0  0  0  0  0  0  0  0  0
  151.3774  138.7874  153.2750 H   0  0  0  0  0  0  0  0  0  0  0  0
  149.5129  140.9677  155.1143 H   0  0  0  0  0  0  0  0  0  0  0  0
  150.2824  142.2796  157.0693 H   0  0  0  0  0  0  0  0  0  0  0  0
  151.7006  140.6767  160.2192 H   0  0  0  0  0  0  0  0  0  0  0  0
  153.2096  140.0233  159.6179 H   0  0  0  0  0  0  0  0  0  0  0  0
  153.5408  141.2429  161.7722 H   0  0  0  0  0  0  0  0  0  0  0  0
  154.4809  141.9627  160.4802 H   0  0  0  0  0  0  0  0  0  0  0  0
  152.2308  144.7521  160.1057 H   0  0  0  0  0  0  0  0  0  0  0  0
  153.7086  144.0319  159.4975 H   0  0  0  0  0  0  0  0  0  0  0  0
  151.8765  143.6184  157.8885 H   0  0  0  0  0  0  0  0  0  0  0  0
  150.8573  142.9357  159.1490 H   0  0  0  0  0  0  0  0  0  0  0  0
  152.8291  138.2834  155.7899 H   0  0  0  0  0  0  0  0  0  0  0  0
  1  2  1  0  0  0  0
  1 21  1  0  0  0  0
  1 22  1  0  0  0  0
  1 23  1  0  0  0  0
  2  3  1  0  0  0  0
  2  4  1  0  0  0  0
  2  5  1  0  0  0  0
  3 24  1  0  0  0  0
  3 25  1  0  0  0  0
  3 26  1  0  0  0  0
  4 27  1  0  0  0  0
  4 28  1  0  0  0  0
  4 29  1  0  0  0  0
  5  6  2  0  0  0  0
  5  7  1  0  0  0  0
  7  8  1  0  0  0  0
  7 30  1  0  0  0  0
  8  9  1  0  0  0  0
  8 31  1  0  0  0  0
  8 32  1  0  0  0  0
  9 20  1  0  0  0  0
  9 10  2  0  0  0  0
 10 11  1  0  0  0  0
 10 33  1  0  0  0  0
 11 12  2  0  0  0  0
 11 34  1  0  0  0  0
 12 13  1  0  0  0  0
 12 19  1  0  0  0  0
 13 18  1  0  0  0  0
 13 14  1  0  0  0  0
 14 15  1  0  0  0  0
 14 35  1  0  0  0  0
 14 36  1  0  0  0  0
 15 16  1  0  0  0  0
 15 37  1  0  0  0  0
 15 38  1  0  0  0  0
 16 17  1  0  0  0  0
 17 18  1  0  0  0  0
 17 39  1  0  0  0  0
 17 40  1  0  0  0  0
 18 41  1  0  0  0  0
 18 42  1  0  0  0  0
 19 20  2  0  0  0  0
 20 43  1  0  0  0  0
M  END
> <s_m_source_file>
AV-unprocessed.smi

> <i_m_source_file_index>
416

> <i_lp_mmshare_version>
43012

> <i_f3d_flags>
0

> <s_epik_input>
W0NIM11DKFtDSDNdKShbQ0gzXSlDKD1PKVtOSF1bQ0gyXWMxW2NIXVtjSF1jKG5bY0hdMSlOMltDSDJdW0NIMl1PW0NIMl1bQ0gyXTI=

> <s_epik_cmdline>
J2VwaWtfcHl0aG9uJywgJy1waCcsICc3LjAnLCAnLXRuJywgJzgnLCAnLW1hJywgJzIwMCcsICctbWV0YWxfYmluZGluZycsICctaW1hZScsICc8aW5maWxlLm1hZT4nLCAnLW9tYWUnLCAnPG91dGZpbGUubWFlPic=

> <r_lp_tautomer_probability>
1

> <r_epik_Ionization_Penalty>
0.00522353

> <r_epik_Ionization_Penalty_Charging>
0

> <r_epik_Ionization_Penalty_Neutral>
0.00522353

> <r_epik_State_Penalty>
0.0038086

> <r_epik_Charging_Adjusted_Penalty>
0.0038086

> <i_epik_Tot_Q>
0

> <i_epik_Tot_abs_Q>
0

> <r_epik_Metal_State_Penalty>
-0

> <b_epik_Metal_Only>
0

> <s_lp_Force_Field>
OPLS_2005

> <r_lp_Energy>
22.6444

> <b_lp_Chiralities_Consistent>
1

> <s_lp_Variant>
AV-unprocessed.smi:416-1

> <Gold.Version>
5.8.1

> <Gold.Id.Protein>
6NUR|6NUR_protein|mol2

> <Gold.PLP.Fitness>
44.9358

> <Gold.PLP.PLP>
-39.2374

> <Gold.PLP.part.hbond>
-2.1869

> <Gold.PLP.part.metal>
0.0000

> <Gold.PLP.part.buried>
-3.2869

> <Gold.PLP.part.nonpolar>
-33.4451

> <Gold.PLP.part.repulsive>
0.2060

> <Gold.PLP.ligand.clash>
0.0000

> <Gold.PLP.ligand.torsion>
0.3121

> <Gold.PLP.Chemscore.Hbond>
1.9920

> <Gold.PLP.Chemscore.CHOScore>
0.0000

> <Gold.PLP.Chemscore.Metal>
0.0000

> <Gold.Chemscore.Hbonds>
donor molecule, donor type, donor heavy atom, donor atom, acceptor molecule, acceptor atom, score
      L1  H     7    30       P1  7957  1.00
      P1  H  7997  8010       L1    19  0.99

> <Gold.PLP.Chemscore.Internal.Correction>
0.3466

> <Gold.Rescore>
     Score         DG    S(hbond)    S(metal)    S(lipo)     H(rot)  DE(clash)    DE(int)     intcor
     16.12     -16.82       0.99        0.00     101.78       1.52       0.25       0.46       ----

> <Gold.Chemscore.Fitness>
16.1187

> <Gold.Chemscore.DG>
-16.8245

> <Gold.Chemscore.ZeroCoef>
-5.4800

> <Gold.Chemscore.Hbond>
0.9943

> <Gold.Chemscore.Metal>
0.0000

> <Gold.Chemscore.Lipo>
101.7761

> <Gold.Chemscore.Internal_Hbond>
0.0000

> <Gold.Chemscore.DEClash>
0.2507

> <Gold.Chemscore.DEInternal>
0.4551

> <Gold.Chemscore.Rot>
1.5173

> <Gold.Chemscore.Internal.Correction>
   9.000000E+99

> <Gold.Chemscore.Hbonds>
donor molecule, donor type, donor heavy atom, donor atom, acceptor molecule, acceptor atom, score
      L1  H     7    30       P1  7957  0.99
      P1  H  7997  8010       L1    19  0.48

> <Gold.Chemscore.Hbond.Weighted>
-3.3210

> <Gold.Chemscore.Metal.Weighted>
-0.0000

> <Gold.Chemscore.Lipo.Weighted>
-11.9078

> <Gold.Chemscore.Internal_Hbond.Weighted>
0.0000

> <Gold.Chemscore.DEClash.Weighted>
0.2507

> <Gold.Chemscore.DEInternal.Weighted>
0.4551

> <Gold.Chemscore.Rot.Weighted>
3.8843

> <Gold.Chemscore.Internal.Correction.Weighted>
   9.000000E+99

> <Gold.Protein.RotatedTorsions>
[ 6907 6896 6895 6894 ] final  157.62 input  -60.11 | X-H torsion
[ 7974 7965 7964 7962 ] final  -55.91 input  175.53 | X-H torsion
[ 8008 7997 7996 7995 ] final   43.11 input   59.86 | X-H torsion
[ 10167 10162 10161 10158 ] final   89.80 input  -65.29 | X-H torsion
[ 10718 10713 10712 10709 ] final -134.36 input   66.30 | X-H torsion
[ 10763 10752 10751 10750 ] final  -32.84 input  -60.55 | X-H torsion
[ 11005 11000 10999 10996 ] final  172.91 input  -57.11 | X-H torsion

> <Gold.Protein.ActiveResidues>
 VAL166  LYS551  ARG553  GLY616  TRP617  ASP618  TYR619  PRO620  LYS621  CYS622 
 ASP623  PHE694  ASN695  SER759  ASP760  ASP761  ALA762  ILE779  LEU786  VAL792 
 PHE793  MET794  SER795  GLU796  ALA797  LYS798  CYS799  TRP800  GLU811  SER814 

> <Gold.Protein.RotatedAtoms>
  152.0125  133.3867  159.4225 H   0  0  0  0  0  0  0  0  0  0  0  0  # atno 6907 bound_to 6896
  150.6898  134.3715  159.5003 H   0  0  0  0  0  0  0  0  0  0  0  0  # atno 6908 bound_to 6896
  152.1478  134.9012  160.0600 H   0  0  0  0  0  0  0  0  0  0  0  0  # atno 6909 bound_to 6896
  145.8687  140.8232  142.9899 H   0  0  0  0  0  0  0  0  0  0  0  0  # atno 7974 bound_to 7965
  155.2973  140.3382  155.4249 H   0  0  0  0  0  0  0  0  0  0  0  0  # atno 8008 bound_to 7997
  156.2018  140.1736  156.7923 H   0  0  0  0  0  0  0  0  0  0  0  0  # atno 8009 bound_to 7997
  154.5569  140.0695  156.8741 H   0  0  0  0  0  0  0  0  0  0  0  0  # atno 8010 bound_to 7997
  139.8536  144.6581  150.9140 H   0  0  0  0  0  0  0  0  0  0  0  0  # atno 10167 bound_to 10162
  156.2547  130.7174  151.1086 H   0  0  0  0  0  0  0  0  0  0  0  0  # atno 10718 bound_to 10713
  153.8203  135.6875  153.4828 H   0  0  0  0  0  0  0  0  0  0  0  0  # atno 10763 bound_to 10752
  153.1573  135.4594  154.9721 H   0  0  0  0  0  0  0  0  0  0  0  0  # atno 10764 bound_to 10752
  154.7930  135.3308  154.7676 H   0  0  0  0  0  0  0  0  0  0  0  0  # atno 10765 bound_to 10752
  140.3348  134.7326  157.4160 H   0  0  0  0  0  0  0  0  0  0  0  0  # atno 11005 bound_to 11000
  144.6726  140.1206  143.7450 LP  0  0  0  0  0  0  0  0  0  0  0  0  # atno 17320 bound_to 7965
  145.9162  139.2517  143.1408 LP  0  0  0  0  0  0  0  0  0  0  0  0  # atno 17321 bound_to 7965
  140.7784  143.3805  151.1485 LP  0  0  0  0  0  0  0  0  0  0  0  0  # atno 17342 bound_to 10162
  139.7441  143.8879  152.3058 LP  0  0  0  0  0  0  0  0  0  0  0  0  # atno 17343 bound_to 10162
  157.7228  131.0670  150.6063 LP  0  0  0  0  0  0  0  0  0  0  0  0  # atno 17370 bound_to 10713
  156.6146  130.4389  149.5845 LP  0  0  0  0  0  0  0  0  0  0  0  0  # atno 17371 bound_to 10713
  140.0830  134.5705  155.8521 LP  0  0  0  0  0  0  0  0  0  0  0  0  # atno 17394 bound_to 11000
  141.2054  133.6646  156.6178 LP  0  0  0  0  0  0  0  0  0  0  0  0  # atno 17395 bound_to 11000

$$$$
