AV-unprocessed.smi:1945|AV-procd|sdf|7858|dock9
  -GOLD-   2272010 03D 1   1.00000     0.00000
 Structure written by MMmdl.
 47 48  0  0  0  0  0  0  0  0  1 V2000
  151.0079  140.3734  154.0625 C   0  0  0  0  0  0  0  0  0  0  0  0
  149.5295  140.3837  153.8084 C   0  0  0  0  0  0  0  0  0  0  0  0
  148.6541  139.2668  153.6778 C   0  0  0  0  0  0  0  0  0  0  0  0
  147.4406  139.8598  153.4592 C   0  0  0  0  0  0  0  0  0  0  0  0
  146.2353  139.2722  153.2361 N   0  0  0  0  0  0  0  0  0  0  0  0
  145.9601  137.9614  153.1289 C   0  0  0  0  0  0  0  0  0  0  0  0
  146.7328  137.0485  153.4217 O   0  0  0  0  0  0  0  0  0  0  0  0
  144.7254  137.7608  152.6456 N   0  0  0  0  0  0  0  0  0  0  0  0
  144.1836  136.4626  152.2553 C   0  0  0  0  0  0  0  0  0  0  0  0
  144.9640  135.8731  151.0696 C   0  0  0  0  0  0  0  0  0  0  0  0
  144.6383  134.4966  150.9525 O   0  0  0  0  0  0  0  0  0  0  0  0
  145.5495  133.7084  150.1981 C   0  0  1  0  0  0  0  0  0  0  0  0
  146.8075  133.3801  151.0335 C   0  0  0  0  0  0  0  0  0  0  0  0
  146.4716  132.5164  152.2613 C   0  0  0  0  0  0  0  0  0  0  0  0
  145.7256  131.2358  151.8585 C   0  0  0  0  0  0  0  0  0  0  0  0
  144.4752  131.5538  151.0234 C   0  0  0  0  0  0  0  0  0  0  0  0
  144.8213  132.4092  149.7868 C   0  0  1  0  0  0  0  0  0  0  0  0
  143.5819  132.6912  148.9233 C   0  0  0  0  0  0  0  0  0  0  0  0
  147.6080  141.2266  153.4482 N   0  0  0  0  0  0  0  0  0  0  0  0
  146.6279  142.2750  153.2432 C   0  0  0  0  0  0  0  0  0  0  0  0
  148.9008  141.5463  153.6739 N   0  0  0  0  0  0  0  0  0  0  0  0
  151.4030  139.3576  154.0462 H   0  0  0  0  0  0  0  0  0  0  0  0
  151.2412  140.8048  155.0361 H   0  0  0  0  0  0  0  0  0  0  0  0
  151.5415  140.9481  153.3053 H   0  0  0  0  0  0  0  0  0  0  0  0
  148.8963  138.2159  153.7306 H   0  0  0  0  0  0  0  0  0  0  0  0
  145.4721  139.9072  153.0547 H   0  0  0  0  0  0  0  0  0  0  0  0
  144.1522  138.5686  152.4515 H   0  0  0  0  0  0  0  0  0  0  0  0
  144.1803  135.7701  153.0989 H   0  0  0  0  0  0  0  0  0  0  0  0
  143.1418  136.6077  151.9694 H   0  0  0  0  0  0  0  0  0  0  0  0
  144.6919  136.3868  150.1469 H   0  0  0  0  0  0  0  0  0  0  0  0
  146.0328  136.0232  151.2212 H   0  0  0  0  0  0  0  0  0  0  0  0
  145.8386  134.2499  149.2957 H   0  0  0  0  0  0  0  0  0  0  0  0
  147.5206  132.8438  150.4064 H   0  0  0  0  0  0  0  0  0  0  0  0
  147.3179  134.2888  151.3499 H   0  0  0  0  0  0  0  0  0  0  0  0
  147.3861  132.2594  152.7964 H   0  0  0  0  0  0  0  0  0  0  0  0
  145.8610  133.0896  152.9581 H   0  0  0  0  0  0  0  0  0  0  0  0
  146.3923  130.5913  151.2846 H   0  0  0  0  0  0  0  0  0  0  0  0
  145.4438  130.6750  152.7503 H   0  0  0  0  0  0  0  0  0  0  0  0
  144.0006  130.6227  150.7121 H   0  0  0  0  0  0  0  0  0  0  0  0
  143.7461  132.0755  151.6450 H   0  0  0  0  0  0  0  0  0  0  0  0
  145.5101  131.8294  149.1705 H   0  0  0  0  0  0  0  0  0  0  0  0
  142.8282  133.2516  149.4775 H   0  0  0  0  0  0  0  0  0  0  0  0
  143.1208  131.7631  148.5845 H   0  0  0  0  0  0  0  0  0  0  0  0
  143.8439  133.2714  148.0381 H   0  0  0  0  0  0  0  0  0  0  0  0
  145.9941  142.0271  152.3914 H   0  0  0  0  0  0  0  0  0  0  0  0
  147.1218  143.2275  153.0466 H   0  0  0  0  0  0  0  0  0  0  0  0
  146.0073  142.3732  154.1341 H   0  0  0  0  0  0  0  0  0  0  0  0
  1  2  1  0  0  0  0
  1 22  1  0  0  0  0
  1 23  1  0  0  0  0
  1 24  1  0  0  0  0
  2 21  2  0  0  0  0
  2  3  1  0  0  0  0
  3  4  2  0  0  0  0
  3 25  1  0  0  0  0
  4  5  1  0  0  0  0
  4 19  1  0  0  0  0
  5  6  1  0  0  0  0
  5 26  1  0  0  0  0
  6  7  2  0  0  0  0
  6  8  1  0  0  0  0
  8  9  1  0  0  0  0
  8 27  1  0  0  0  0
  9 10  1  0  0  0  0
  9 28  1  0  0  0  0
  9 29  1  0  0  0  0
 10 11  1  0  0  0  0
 10 30  1  0  0  0  0
 10 31  1  0  0  0  0
 11 12  1  0  0  0  0
 12 17  1  0  0  0  0
 12 13  1  0  0  0  0
 12 32  1  0  0  0  0
 13 14  1  0  0  0  0
 13 33  1  0  0  0  0
 13 34  1  0  0  0  0
 14 15  1  0  0  0  0
 14 35  1  0  0  0  0
 14 36  1  0  0  0  0
 15 16  1  0  0  0  0
 15 37  1  0  0  0  0
 15 38  1  0  0  0  0
 16 17  1  0  0  0  0
 16 39  1  0  0  0  0
 16 40  1  0  0  0  0
 17 18  1  0  0  0  0
 17 41  1  0  0  0  0
 18 42  1  0  0  0  0
 18 43  1  0  0  0  0
 18 44  1  0  0  0  0
 19 20  1  0  0  0  0
 19 21  1  0  0  0  0
 20 45  1  0  0  0  0
 20 46  1  0  0  0  0
 20 47  1  0  0  0  0
M  END
> <s_m_source_file>
AV-unprocessed.smi

> <i_m_source_file_index>
1945

> <i_lp_mmshare_version>
43012

> <i_f3d_flags>
0

> <s_epik_input>
W0NIM11jMVtjSF1jKG4objEpW0NIM10pW05IXUMoPU8pW05IXVtDSDJdW0NIMl1PW0NAQEhdMltDSDJdW0NIMl1bQ0gyXVtDSDJdW0NASF0yW0NIM10=

> <s_epik_cmdline>
J2VwaWtfcHl0aG9uJywgJy1waCcsICc3LjAnLCAnLXRuJywgJzgnLCAnLW1hJywgJzIwMCcsICctbWV0YWxfYmluZGluZycsICctaW1hZScsICc8aW5maWxlLm1hZT4nLCAnLW9tYWUnLCAnPG91dGZpbGUubWFlPic=

> <r_lp_tautomer_probability>
1

> <r_epik_Ionization_Penalty>
9.47735e-05

> <r_epik_Ionization_Penalty_Charging>
0

> <r_epik_Ionization_Penalty_Neutral>
9.47735e-05

> <r_epik_State_Penalty>
-0

> <r_epik_Charging_Adjusted_Penalty>
0

> <i_epik_Tot_Q>
0

> <i_epik_Tot_abs_Q>
0

> <r_epik_Metal_State_Penalty>
-0

> <b_epik_Metal_Only>
0

> <s_lp_Force_Field>
OPLS_2005

> <r_lp_Energy>
11.3834

> <b_lp_Chiralities_Consistent>
1

> <s_lp_Variant>
AV-unprocessed.smi:1945-2

> <Gold.Version>
5.8.1

> <Gold.Id.Protein>
6NUR|6NUR_protein|mol2

> <Gold.PLP.Fitness>
45.8702

> <Gold.PLP.PLP>
-39.9632

> <Gold.PLP.part.hbond>
-3.4756

> <Gold.PLP.part.metal>
0.0000

> <Gold.PLP.part.buried>
-2.2624

> <Gold.PLP.part.nonpolar>
-34.3448

> <Gold.PLP.part.repulsive>
0.4947

> <Gold.PLP.ligand.clash>
0.0000

> <Gold.PLP.ligand.torsion>
0.3039

> <Gold.PLP.Chemscore.Hbond>
2.1599

> <Gold.PLP.Chemscore.CHOScore>
0.0000

> <Gold.PLP.Chemscore.Metal>
0.0000

> <Gold.Chemscore.Hbonds>
donor molecule, donor type, donor heavy atom, donor atom, acceptor molecule, acceptor atom, score
      L1  H     5    26       P1 10175  1.00
      L1  H     8    27       P1 10175  1.00
      P1  H  8011  8017       L1    21  0.74

> <Gold.PLP.Chemscore.Internal.Correction>
0.0352

> <Gold.Rescore>
     Score         DG    S(hbond)    S(metal)    S(lipo)     H(rot)  DE(clash)    DE(int)     intcor
     16.62     -20.56       2.29        0.00      99.11       1.63       2.44       1.50       ----

> <Gold.Chemscore.Fitness>
16.6162

> <Gold.Chemscore.DG>
-20.5575

> <Gold.Chemscore.ZeroCoef>
-5.4800

> <Gold.Chemscore.Hbond>
2.2930

> <Gold.Chemscore.Metal>
0.0000

> <Gold.Chemscore.Lipo>
99.1092

> <Gold.Chemscore.Internal_Hbond>
0.0000

> <Gold.Chemscore.DEClash>
2.4412

> <Gold.Chemscore.DEInternal>
1.5001

> <Gold.Chemscore.Rot>
1.6316

> <Gold.Chemscore.Internal.Correction>
   9.000000E+99

> <Gold.Chemscore.Hbonds>
donor molecule, donor type, donor heavy atom, donor atom, acceptor molecule, acceptor atom, score
      L1  H     5    26       P1 10175  0.97
      L1  H     8    27       P1 10175  0.98
      P1  H  8011  8017       L1    21  0.35

> <Gold.Chemscore.Hbond.Weighted>
-7.6585

> <Gold.Chemscore.Metal.Weighted>
-0.0000

> <Gold.Chemscore.Lipo.Weighted>
-11.5958

> <Gold.Chemscore.Internal_Hbond.Weighted>
0.0000

> <Gold.Chemscore.DEClash.Weighted>
2.4412

> <Gold.Chemscore.DEInternal.Weighted>
1.5001

> <Gold.Chemscore.Rot.Weighted>
4.1768

> <Gold.Chemscore.Internal.Correction.Weighted>
   9.000000E+99

> <Gold.Protein.RotatedTorsions>
[ 6907 6896 6895 6894 ] final   55.62 input  -60.11 | X-H torsion
[ 7974 7965 7964 7962 ] final  -50.57 input  175.53 | X-H torsion
[ 8008 7997 7996 7995 ] final   12.99 input   59.86 | X-H torsion
[ 10167 10162 10161 10158 ] final -107.44 input  -65.29 | X-H torsion
[ 10718 10713 10712 10709 ] final -154.43 input   66.30 | X-H torsion
[ 10763 10752 10751 10750 ] final   15.87 input  -60.55 | X-H torsion
[ 11005 11000 10999 10996 ] final  156.20 input  -57.11 | X-H torsion

> <Gold.Protein.ActiveResidues>
 VAL166  LYS551  ARG553  GLY616  TRP617  ASP618  TYR619  PRO620  LYS621  CYS622 
 ASP623  PHE694  ASN695  SER759  ASP760  ASP761  ALA762  ILE779  LEU786  VAL792 
 PHE793  MET794  SER795  GLU796  ALA797  LYS798  CYS799  TRP800  GLU811  SER814 

> <Gold.Protein.RotatedAtoms>
  152.3556  134.6944  160.0222 H   0  0  0  0  0  0  0  0  0  0  0  0  # atno 6907 bound_to 6896
  151.7284  133.3311  159.3342 H   0  0  0  0  0  0  0  0  0  0  0  0  # atno 6908 bound_to 6896
  150.7569  134.6319  159.6235 H   0  0  0  0  0  0  0  0  0  0  0  0  # atno 6909 bound_to 6896
  145.9284  140.7771  142.9612 H   0  0  0  0  0  0  0  0  0  0  0  0  # atno 7974 bound_to 7965
  154.8283  140.2895  155.5740 H   0  0  0  0  0  0  0  0  0  0  0  0  # atno 8008 bound_to 7997
  156.3003  140.2537  156.3134 H   0  0  0  0  0  0  0  0  0  0  0  0  # atno 8009 bound_to 7997
  154.9260  140.0384  157.2012 H   0  0  0  0  0  0  0  0  0  0  0  0  # atno 8010 bound_to 7997
  140.1769  143.3997  152.1311 H   0  0  0  0  0  0  0  0  0  0  0  0  # atno 10167 bound_to 10162
  156.4992  130.8383  151.2602 H   0  0  0  0  0  0  0  0  0  0  0  0  # atno 10718 bound_to 10713
  153.1484  135.6774  153.8919 H   0  0  0  0  0  0  0  0  0  0  0  0  # atno 10763 bound_to 10752
  153.8353  135.3112  155.3423 H   0  0  0  0  0  0  0  0  0  0  0  0  # atno 10764 bound_to 10752
  154.7843  135.4871  153.9998 H   0  0  0  0  0  0  0  0  0  0  0  0  # atno 10765 bound_to 10752
  140.1653  134.8581  157.2624 H   0  0  0  0  0  0  0  0  0  0  0  0  # atno 11005 bound_to 11000
  144.6761  140.2088  143.7379 LP  0  0  0  0  0  0  0  0  0  0  0  0  # atno 17320 bound_to 7965
  145.8458  139.2151  143.1801 LP  0  0  0  0  0  0  0  0  0  0  0  0  # atno 17321 bound_to 7965
  139.5313  144.7162  151.5047 LP  0  0  0  0  0  0  0  0  0  0  0  0  # atno 17342 bound_to 10162
  140.6545  143.8628  150.6820 LP  0  0  0  0  0  0  0  0  0  0  0  0  # atno 17343 bound_to 10162
  157.7465  130.9987  150.2863 LP  0  0  0  0  0  0  0  0  0  0  0  0  # atno 17370 bound_to 10713
  156.3349  130.3806  149.7459 LP  0  0  0  0  0  0  0  0  0  0  0  0  # atno 17371 bound_to 10713
  140.2441  134.3760  155.7468 LP  0  0  0  0  0  0  0  0  0  0  0  0  # atno 17394 bound_to 11000
  141.2213  133.7281  156.8835 LP  0  0  0  0  0  0  0  0  0  0  0  0  # atno 17395 bound_to 11000

$$$$
