AV-unprocessed.smi:2714|AV-procd|sdf|10481|dock9
  -GOLD-   2272014523D 1   1.00000     0.00000
 Structure written by MMmdl.
 46 47  0  0  0  0  0  0  0  0  1 V2000
  152.8998  143.2530  162.1321 C   0  0  0  0  0  0  0  0  0  0  0  0
  152.4028  143.1973  160.6836 C   0  0  0  0  0  0  0  0  0  0  0  0
  151.4665  144.3697  160.3375 C   0  0  0  0  0  0  0  0  0  0  0  0
  150.9397  144.3551  158.8851 C   0  0  1  0  0  0  0  0  0  0  0  0
  152.0996  144.4386  157.8781 C   0  0  0  0  0  0  0  0  0  0  0  0
  150.0842  143.1133  158.5948 C   0  0  0  0  0  0  0  0  0  0  0  0
  150.5758  141.9885  158.6892 O   0  0  0  0  0  0  0  0  0  0  0  0
  148.8093  143.3372  158.2396 N   0  0  0  0  0  0  0  0  0  0  0  0
  147.8363  142.3191  157.8576 C   0  0  0  0  0  0  0  0  0  0  0  0
  148.0682  141.8115  156.4406 C   0  0  0  0  0  0  0  0  0  0  0  0
  149.2037  141.0193  156.1666 C   0  0  0  0  0  0  0  0  0  0  0  0
  149.4030  140.5299  154.8630 C   0  0  0  0  0  0  0  0  0  0  0  0
  148.4517  140.8515  153.8780 C   0  0  0  0  0  0  0  0  0  0  0  0
  147.3618  141.6074  154.1233 N   0  0  0  0  0  0  0  0  0  0  0  0
  147.1657  142.0817  155.3780 C   0  0  0  0  0  0  0  0  0  0  0  0
  146.0343  142.8867  155.5937 N   0  0  0  0  0  0  0  0  0  0  0  0
  145.0871  142.4032  156.5915 C   0  0  0  0  0  0  0  0  0  0  0  0
  144.0013  143.4644  156.8371 C   0  0  0  0  0  0  0  0  0  0  0  0
  143.3663  143.7886  155.6032 O   0  0  0  0  0  0  0  0  0  0  0  0
  144.2828  144.3295  154.6553 C   0  0  0  0  0  0  0  0  0  0  0  0
  145.3886  143.3023  154.3556 C   0  0  0  0  0  0  0  0  0  0  0  0
  153.5621  142.4145  162.3484 H   0  0  0  0  0  0  0  0  0  0  0  0
  152.0685  143.2106  162.8363 H   0  0  0  0  0  0  0  0  0  0  0  0
  153.4545  144.1722  162.3225 H   0  0  0  0  0  0  0  0  0  0  0  0
  153.2652  143.1934  160.0164 H   0  0  0  0  0  0  0  0  0  0  0  0
  151.8819  142.2532  160.5201 H   0  0  0  0  0  0  0  0  0  0  0  0
  150.6141  144.3429  161.0175 H   0  0  0  0  0  0  0  0  0  0  0  0
  151.9759  145.3137  160.5384 H   0  0  0  0  0  0  0  0  0  0  0  0
  150.3194  145.2416  158.7425 H   0  0  0  0  0  0  0  0  0  0  0  0
  151.7372  144.4072  156.8497 H   0  0  0  0  0  0  0  0  0  0  0  0
  152.8044  143.6163  158.0082 H   0  0  0  0  0  0  0  0  0  0  0  0
  152.6543  145.3694  157.9989 H   0  0  0  0  0  0  0  0  0  0  0  0
  148.4973  144.2965  158.1963 H   0  0  0  0  0  0  0  0  0  0  0  0
  147.8311  141.4771  158.5507 H   0  0  0  0  0  0  0  0  0  0  0  0
  146.8432  142.7638  157.9278 H   0  0  0  0  0  0  0  0  0  0  0  0
  149.9136  140.7830  156.9458 H   0  0  0  0  0  0  0  0  0  0  0  0
  150.2621  139.9203  154.6248 H   0  0  0  0  0  0  0  0  0  0  0  0
  148.5688  140.4931  152.8660 H   0  0  0  0  0  0  0  0  0  0  0  0
  144.6239  141.4767  156.2488 H   0  0  0  0  0  0  0  0  0  0  0  0
  145.6126  142.1810  157.5212 H   0  0  0  0  0  0  0  0  0  0  0  0
  143.2540  143.0839  157.5333 H   0  0  0  0  0  0  0  0  0  0  0  0
  144.4274  144.3626  157.2861 H   0  0  0  0  0  0  0  0  0  0  0  0
  143.7431  144.5768  153.7411 H   0  0  0  0  0  0  0  0  0  0  0  0
  144.7072  145.2599  155.0350 H   0  0  0  0  0  0  0  0  0  0  0  0
  146.1224  143.7324  153.6732 H   0  0  0  0  0  0  0  0  0  0  0  0
  144.9622  142.4289  153.8604 H   0  0  0  0  0  0  0  0  0  0  0  0
  1  2  1  0  0  0  0
  1 22  1  0  0  0  0
  1 23  1  0  0  0  0
  1 24  1  0  0  0  0
  2  3  1  0  0  0  0
  2 25  1  0  0  0  0
  2 26  1  0  0  0  0
  3  4  1  0  0  0  0
  3 27  1  0  0  0  0
  3 28  1  0  0  0  0
  4  5  1  0  0  0  0
  4  6  1  0  0  0  0
  4 29  1  0  0  0  0
  5 30  1  0  0  0  0
  5 31  1  0  0  0  0
  5 32  1  0  0  0  0
  6  7  2  0  0  0  0
  6  8  1  0  0  0  0
  8  9  1  0  0  0  0
  8 33  1  0  0  0  0
  9 10  1  0  0  0  0
  9 34  1  0  0  0  0
  9 35  1  0  0  0  0
 10 15  1  0  0  0  0
 10 11  2  0  0  0  0
 11 12  1  0  0  0  0
 11 36  1  0  0  0  0
 12 13  2  0  0  0  0
 12 37  1  0  0  0  0
 13 14  1  0  0  0  0
 13 38  1  0  0  0  0
 14 15  2  0  0  0  0
 15 16  1  0  0  0  0
 16 21  1  0  0  0  0
 16 17  1  0  0  0  0
 17 18  1  0  0  0  0
 17 39  1  0  0  0  0
 17 40  1  0  0  0  0
 18 19  1  0  0  0  0
 18 41  1  0  0  0  0
 18 42  1  0  0  0  0
 19 20  1  0  0  0  0
 20 21  1  0  0  0  0
 20 43  1  0  0  0  0
 20 44  1  0  0  0  0
 21 45  1  0  0  0  0
 21 46  1  0  0  0  0
M  END
> <s_m_source_file>
AV-unprocessed.smi

> <i_m_source_file_index>
2714

> <i_lp_mmshare_version>
43012

> <i_f3d_flags>
0

> <s_epik_input>
W0NIM11bQ0gyXVtDSDJdW0NASF0oW0NIM10pQyg9TylbTkhdW0NIMl1jMVtjSF1bY0hdW2NIXW5jMU4yW0NIMl1bQ0gyXU9bQ0gyXVtDSDJdMg==

> <s_epik_cmdline>
J2VwaWtfcHl0aG9uJywgJy1waCcsICc3LjAnLCAnLXRuJywgJzgnLCAnLW1hJywgJzIwMCcsICctbWV0YWxfYmluZGluZycsICctaW1hZScsICc8aW5maWxlLm1hZT4nLCAnLW9tYWUnLCAnPG91dGZpbGUubWFlPic=

> <r_lp_tautomer_probability>
1

> <r_epik_Ionization_Penalty>
0.00517355

> <r_epik_Ionization_Penalty_Charging>
0

> <r_epik_Ionization_Penalty_Neutral>
0.00517355

> <r_epik_State_Penalty>
0.00376978

> <r_epik_Charging_Adjusted_Penalty>
0.00376978

> <i_epik_Tot_Q>
0

> <i_epik_Tot_abs_Q>
0

> <r_epik_Metal_State_Penalty>
-0

> <b_epik_Metal_Only>
0

> <s_lp_Force_Field>
OPLS_2005

> <r_lp_Energy>
17.5243

> <b_lp_Chiralities_Consistent>
1

> <s_lp_Variant>
AV-unprocessed.smi:2714-2

> <Gold.Version>
5.8.1

> <Gold.Id.Protein>
6NUR|6NUR_protein|mol2

> <Gold.PLP.Fitness>
45.0522

> <Gold.PLP.PLP>
-39.5249

> <Gold.PLP.part.hbond>
-2.0058

> <Gold.PLP.part.metal>
0.0000

> <Gold.PLP.part.buried>
-3.4317

> <Gold.PLP.part.nonpolar>
-34.5017

> <Gold.PLP.part.repulsive>
0.5368

> <Gold.PLP.ligand.clash>
0.0000

> <Gold.PLP.ligand.torsion>
0.3360

> <Gold.PLP.Chemscore.Hbond>
1.0000

> <Gold.PLP.Chemscore.CHOScore>
1.0000

> <Gold.PLP.Chemscore.Metal>
0.0000

> <Gold.Chemscore.Hbonds>
donor molecule, donor type, donor heavy atom, donor atom, acceptor molecule, acceptor atom, score
      L1  H     8    33       P1  8029  1.00
      L1  C    13    38       P1  7957  1.00

> <Gold.PLP.Chemscore.Internal.Correction>
0.1992

> <Gold.Rescore>
     Score         DG    S(hbond)    S(metal)    S(lipo)     H(rot)  DE(clash)    DE(int)     intcor
     11.44     -13.41       0.29        0.00      97.26       1.72       0.02       1.96       ----

> <Gold.Chemscore.Fitness>
11.4387

> <Gold.Chemscore.DG>
-13.4144

> <Gold.Chemscore.ZeroCoef>
-5.4800

> <Gold.Chemscore.Hbond>
0.2863

> <Gold.Chemscore.Metal>
0.0000

> <Gold.Chemscore.Lipo>
97.2589

> <Gold.Chemscore.Internal_Hbond>
0.0000

> <Gold.Chemscore.DEClash>
0.0180

> <Gold.Chemscore.DEInternal>
1.9578

> <Gold.Chemscore.Rot>
1.7192

> <Gold.Chemscore.Internal.Correction>
   9.000000E+99

> <Gold.Chemscore.Hbonds>
donor molecule, donor type, donor heavy atom, donor atom, acceptor molecule, acceptor atom, score
      L1  H     8    33       P1  8029  0.29

> <Gold.Chemscore.Hbond.Weighted>
-0.9563

> <Gold.Chemscore.Metal.Weighted>
-0.0000

> <Gold.Chemscore.Lipo.Weighted>
-11.3793

> <Gold.Chemscore.Internal_Hbond.Weighted>
0.0000

> <Gold.Chemscore.DEClash.Weighted>
0.0180

> <Gold.Chemscore.DEInternal.Weighted>
1.9578

> <Gold.Chemscore.Rot.Weighted>
4.4011

> <Gold.Chemscore.Internal.Correction.Weighted>
   9.000000E+99

> <Gold.Protein.RotatedTorsions>
[ 6907 6896 6895 6894 ] final   58.42 input  -60.11 | X-H torsion
[ 7974 7965 7964 7962 ] final   32.21 input  175.53 | X-H torsion
[ 8008 7997 7996 7995 ] final  114.34 input   59.86 | X-H torsion
[ 10167 10162 10161 10158 ] final  -15.79 input  -65.29 | X-H torsion
[ 10718 10713 10712 10709 ] final  107.56 input   66.30 | X-H torsion
[ 10763 10752 10751 10750 ] final  149.00 input  -60.55 | X-H torsion
[ 11005 11000 10999 10996 ] final -159.92 input  -57.11 | X-H torsion

> <Gold.Protein.ActiveResidues>
 VAL166  LYS551  ARG553  GLY616  TRP617  ASP618  TYR619  PRO620  LYS621  CYS622 
 ASP623  PHE694  ASN695  SER759  ASP760  ASP761  ALA762  ILE779  LEU786  VAL792 
 PHE793  MET794  SER795  GLU796  ALA797  LYS798  CYS799  TRP800  GLU811  SER814 

> <Gold.Protein.RotatedAtoms>
  152.3823  134.6572  160.0138 H   0  0  0  0  0  0  0  0  0  0  0  0  # atno 6907 bound_to 6896
  151.6831  133.3306  159.3232 H   0  0  0  0  0  0  0  0  0  0  0  0  # atno 6908 bound_to 6896
  150.7757  134.6699  159.6431 H   0  0  0  0  0  0  0  0  0  0  0  0  # atno 6909 bound_to 6896
  146.1501  139.6555  142.9105 H   0  0  0  0  0  0  0  0  0  0  0  0  # atno 7974 bound_to 7965
  156.2315  140.2961  156.0200 H   0  0  0  0  0  0  0  0  0  0  0  0  # atno 8008 bound_to 7997
  155.2212  140.0415  157.2965 H   0  0  0  0  0  0  0  0  0  0  0  0  # atno 8009 bound_to 7997
  154.6004  140.2425  155.7808 H   0  0  0  0  0  0  0  0  0  0  0  0  # atno 8010 bound_to 7997
  140.7224  143.5182  150.9666 H   0  0  0  0  0  0  0  0  0  0  0  0  # atno 10167 bound_to 10162
  157.6623  131.0875  150.6174 H   0  0  0  0  0  0  0  0  0  0  0  0  # atno 10718 bound_to 10713
  154.0640  135.2872  155.3320 H   0  0  0  0  0  0  0  0  0  0  0  0  # atno 10763 bound_to 10752
  154.6790  135.5271  153.8241 H   0  0  0  0  0  0  0  0  0  0  0  0  # atno 10764 bound_to 10752
  153.0511  135.6577  154.0826 H   0  0  0  0  0  0  0  0  0  0  0  0  # atno 10765 bound_to 10752
  140.6372  134.4589  157.5232 H   0  0  0  0  0  0  0  0  0  0  0  0  # atno 11005 bound_to 11000
  145.4844  141.0438  143.2628 LP  0  0  0  0  0  0  0  0  0  0  0  0  # atno 17320 bound_to 7965
  144.7893  139.6361  143.7120 LP  0  0  0  0  0  0  0  0  0  0  0  0  # atno 17321 bound_to 7965
  139.8898  143.6967  152.3147 LP  0  0  0  0  0  0  0  0  0  0  0  0  # atno 17342 bound_to 10162
  139.7279  144.7589  151.0849 LP  0  0  0  0  0  0  0  0  0  0  0  0  # atno 17343 bound_to 10162
  156.6476  130.4476  149.5730 LP  0  0  0  0  0  0  0  0  0  0  0  0  # atno 17370 bound_to 10713
  156.2162  130.6709  151.1321 LP  0  0  0  0  0  0  0  0  0  0  0  0  # atno 17371 bound_to 10713
  139.9094  134.8378  156.1585 LP  0  0  0  0  0  0  0  0  0  0  0  0  # atno 17394 bound_to 11000
  141.0633  133.6831  156.1995 LP  0  0  0  0  0  0  0  0  0  0  0  0  # atno 17395 bound_to 11000

$$$$
