AV-unprocessed.smi:845|AV-procd|sdf|3934|dock7
  -GOLD-   22720 1393D 1   1.00000     0.00000
 Structure written by MMmdl.
 41 42  0  0  0  0  0  0  0  0  2 V2000
  147.2818  139.7554  152.2672 C   0  0  0  0  0  0  0  0  0  0  0  0
  147.2295  139.5593  153.7974 C   0  0  0  0  0  0  0  0  0  0  0  0
  145.8763  138.9741  154.2384 C   0  0  0  0  0  0  0  0  0  0  0  0
  147.6763  140.7724  154.6767 C   0  0  1  0  0  0  0  0  0  0  0  0
  149.1567  141.1850  154.4605 C   0  0  0  0  0  0  0  0  0  0  0  0
  149.5694  142.2202  155.4011 N   0  0  0  0  0  0  0  0  0  0  0  0
  150.4798  142.0655  156.3708 C   0  0  0  0  0  0  0  0  0  0  0  0
  151.0409  140.9771  156.5180 O   0  0  0  0  0  0  0  0  0  0  0  0
  150.6838  143.1809  157.1081 N   0  5  0  0  0  0  0  0  0  0  0  0
  151.2888  143.0952  158.3040 C   0  0  0  0  0  0  0  0  0  0  0  0
  151.7049  144.1669  158.9886 N   0  0  0  0  0  0  0  0  0  0  0  0
  152.2976  143.8488  160.2119 C   0  0  0  0  0  0  0  0  0  0  0  0
  152.3258  142.5037  160.4689 C   0  0  0  0  0  0  0  0  0  0  0  0
  151.6055  141.5909  159.1735 S   0  0  0  0  0  0  0  0  0  0  0  0
  146.7189  141.8964  154.7231 N   0  0  0  0  0  0  0  0  0  0  0  0
  146.3409  142.3853  153.3983 C   0  0  0  0  0  0  0  0  0  0  0  0
  145.4590  143.6419  153.4849 C   0  0  0  0  0  0  0  0  0  0  0  0
  144.3029  143.3557  154.2649 O   0  0  0  0  0  0  0  0  0  0  0  0
  144.6249  142.9194  155.5814 C   0  0  0  0  0  0  0  0  0  0  0  0
  145.5147  141.6653  155.5179 C   0  0  0  0  0  0  0  0  0  0  0  0
  146.5309  140.4501  151.8999 H   0  0  0  0  0  0  0  0  0  0  0  0
  147.1006  138.8070  151.7609 H   0  0  0  0  0  0  0  0  0  0  0  0
  148.2571  140.1042  151.9290 H   0  0  0  0  0  0  0  0  0  0  0  0
  147.9572  138.7719  153.9986 H   0  0  0  0  0  0  0  0  0  0  0  0
  145.0539  139.6557  154.0192 H   0  0  0  0  0  0  0  0  0  0  0  0
  145.8664  138.7706  155.3095 H   0  0  0  0  0  0  0  0  0  0  0  0
  145.6691  138.0353  153.7244 H   0  0  0  0  0  0  0  0  0  0  0  0
  147.6600  140.3535  155.6844 H   0  0  0  0  0  0  0  0  0  0  0  0
  149.8178  140.3234  154.5607 H   0  0  0  0  0  0  0  0  0  0  0  0
  149.3078  141.5782  153.4556 H   0  0  0  0  0  0  0  0  0  0  0  0
  149.1302  143.1247  155.3118 H   0  0  0  0  0  0  0  0  0  0  0  0
  152.6706  144.6451  160.8385 H   0  0  0  0  0  0  0  0  0  0  0  0
  152.7224  141.9966  161.3356 H   0  0  0  0  0  0  0  0  0  0  0  0
  147.2341  142.6137  152.8160 H   0  0  0  0  0  0  0  0  0  0  0  0
  145.7955  141.6168  152.8508 H   0  0  0  0  0  0  0  0  0  0  0  0
  146.0113  144.4722  153.9277 H   0  0  0  0  0  0  0  0  0  0  0  0
  145.1486  143.9573  152.4889 H   0  0  0  0  0  0  0  0  0  0  0  0
  145.1303  143.7215  156.1216 H   0  0  0  0  0  0  0  0  0  0  0  0
  143.7026  142.7024  156.1205 H   0  0  0  0  0  0  0  0  0  0  0  0
  144.9395  140.8392  155.0987 H   0  0  0  0  0  0  0  0  0  0  0  0
  145.7751  141.3896  156.5347 H   0  0  0  0  0  0  0  0  0  0  0  0
  1  2  1  0  0  0  0
  1 21  1  0  0  0  0
  1 22  1  0  0  0  0
  1 23  1  0  0  0  0
  2  3  1  0  0  0  0
  2  4  1  0  0  0  0
  2 24  1  0  0  0  0
  3 25  1  0  0  0  0
  3 26  1  0  0  0  0
  3 27  1  0  0  0  0
  4  5  1  0  0  0  0
  4 15  1  0  0  0  0
  4 28  1  0  0  0  0
  5  6  1  0  0  0  0
  5 29  1  0  0  0  0
  5 30  1  0  0  0  0
  6  7  1  0  0  0  0
  6 31  1  0  0  0  0
  7  8  2  0  0  0  0
  7  9  1  0  0  0  0
  9 10  1  0  0  0  0
 10 14  1  0  0  0  0
 10 11  2  0  0  0  0
 11 12  1  0  0  0  0
 12 13  2  0  0  0  0
 12 32  1  0  0  0  0
 13 14  1  0  0  0  0
 13 33  1  0  0  0  0
 15 20  1  0  0  0  0
 15 16  1  0  0  0  0
 16 17  1  0  0  0  0
 16 34  1  0  0  0  0
 16 35  1  0  0  0  0
 17 18  1  0  0  0  0
 17 36  1  0  0  0  0
 17 37  1  0  0  0  0
 18 19  1  0  0  0  0
 19 20  1  0  0  0  0
 19 38  1  0  0  0  0
 19 39  1  0  0  0  0
 20 40  1  0  0  0  0
 20 41  1  0  0  0  0
M  CHG  1   9  -1
M  END
> <s_m_source_file>
AV-unprocessed.smi

> <i_m_source_file_index>
845

> <i_lp_mmshare_version>
43012

> <i_f3d_flags>
0

> <s_epik_input>
W0NIMl0xW0NIMl1PW0NIMl1bQ0gyXU4xW0NASF0oW0NIXShbQ0gzXSlbQ0gzXSlbQ0gyXVtOSF1DKD1PKVtOSF1jMm5bY0hdW2NIXXMy

> <s_epik_cmdline>
J2VwaWtfcHl0aG9uJywgJy1waCcsICc3LjAnLCAnLXRuJywgJzgnLCAnLW1hJywgJzIwMCcsICctbWV0YWxfYmluZGluZycsICctaW1hZScsICc8aW5maWxlLm1hZT4nLCAnLW9tYWUnLCAnPG91dGZpbGUubWFlPic=

> <r_lp_tautomer_probability>
0.999

> <r_epik_Ionization_Penalty>
9.02543

> <r_epik_Ionization_Penalty_Charging>
6.76546

> <r_epik_Ionization_Penalty_Neutral>
2.25997

> <r_epik_State_Penalty>
7.18984

> <r_epik_Charging_Adjusted_Penalty>
13.9553

> <i_epik_Tot_Q>
-1

> <i_epik_Tot_abs_Q>
1

> <r_epik_Metal_State_Penalty>
3.11401

> <b_epik_Metal_Only>
1

> <s_lp_Force_Field>
OPLS_2005

> <r_lp_Energy>
34.4261

> <b_lp_Chiralities_Consistent>
1

> <s_lp_Variant>
AV-unprocessed.smi:845-8

> <Gold.Version>
5.8.1

> <Gold.Id.Protein>
6NUR|6NUR_protein|mol2

> <Gold.PLP.Fitness>
37.8083

> <Gold.PLP.PLP>
-35.2645

> <Gold.PLP.part.hbond>
-1.0000

> <Gold.PLP.part.metal>
0.0000

> <Gold.PLP.part.buried>
-4.2957

> <Gold.PLP.part.nonpolar>
-30.9916

> <Gold.PLP.part.repulsive>
0.8141

> <Gold.PLP.ligand.clash>
0.0000

> <Gold.PLP.ligand.torsion>
0.5518

> <Gold.PLP.Chemscore.Hbond>
1.0000

> <Gold.PLP.Chemscore.CHOScore>
0.0000

> <Gold.PLP.Chemscore.Metal>
0.0000

> <Gold.Chemscore.Hbonds>
donor molecule, donor type, donor heavy atom, donor atom, acceptor molecule, acceptor atom, score
      L1  H     6    31       P1  8028  1.00

> <Gold.PLP.Chemscore.Internal.Correction>
0.6475

> <Gold.Rescore>
     Score         DG    S(hbond)    S(metal)    S(lipo)     H(rot)  DE(clash)    DE(int)     intcor
      9.09     -13.73       1.00        0.00      79.36       1.71       1.32       3.32       ----

> <Gold.Chemscore.Fitness>
9.0942

> <Gold.Chemscore.DG>
-13.7307

> <Gold.Chemscore.ZeroCoef>
-5.4800

> <Gold.Chemscore.Hbond>
0.9994

> <Gold.Chemscore.Metal>
0.0000

> <Gold.Chemscore.Lipo>
79.3623

> <Gold.Chemscore.Internal_Hbond>
0.0000

> <Gold.Chemscore.DEClash>
1.3202

> <Gold.Chemscore.DEInternal>
3.3163

> <Gold.Chemscore.Rot>
1.7081

> <Gold.Chemscore.Internal.Correction>
   9.000000E+99

> <Gold.Chemscore.Hbonds>
donor molecule, donor type, donor heavy atom, donor atom, acceptor molecule, acceptor atom, score
      L1  H     6    31       P1  8028  0.99

> <Gold.Chemscore.Hbond.Weighted>
-3.3381

> <Gold.Chemscore.Metal.Weighted>
-0.0000

> <Gold.Chemscore.Lipo.Weighted>
-9.2854

> <Gold.Chemscore.Internal_Hbond.Weighted>
0.0000

> <Gold.Chemscore.DEClash.Weighted>
1.3202

> <Gold.Chemscore.DEInternal.Weighted>
3.3163

> <Gold.Chemscore.Rot.Weighted>
4.3728

> <Gold.Chemscore.Internal.Correction.Weighted>
   9.000000E+99

> <Gold.Protein.RotatedTorsions>
[ 6907 6896 6895 6894 ] final  -24.80 input  -60.11 | X-H torsion
[ 7974 7965 7964 7962 ] final   69.23 input  175.53 | X-H torsion
[ 8008 7997 7996 7995 ] final   50.08 input   59.86 | X-H torsion
[ 10167 10162 10161 10158 ] final  164.81 input  -65.29 | X-H torsion
[ 10718 10713 10712 10709 ] final  -96.91 input   66.30 | X-H torsion
[ 10763 10752 10751 10750 ] final  175.35 input  -60.55 | X-H torsion
[ 11005 11000 10999 10996 ] final -134.63 input  -57.11 | X-H torsion

> <Gold.Protein.ActiveResidues>
 VAL166  LYS551  ARG553  GLY616  TRP617  ASP618  TYR619  PRO620  LYS621  CYS622 
 ASP623  PHE694  ASN695  SER759  ASP760  ASP761  ALA762  ILE779  LEU786  VAL792 
 PHE793  MET794  SER795  GLU796  ALA797  LYS798  CYS799  TRP800  GLU811  SER814 

> <Gold.Protein.RotatedAtoms>
  151.1844  135.0375  159.8805 H   0  0  0  0  0  0  0  0  0  0  0  0  # atno 6907 bound_to 6896
  152.5443  134.1027  159.8335 H   0  0  0  0  0  0  0  0  0  0  0  0  # atno 6908 bound_to 6896
  151.1147  133.5100  159.2636 H   0  0  0  0  0  0  0  0  0  0  0  0  # atno 6909 bound_to 6896
  145.7930  139.2943  143.1199 H   0  0  0  0  0  0  0  0  0  0  0  0  # atno 7974 bound_to 7965
  155.4128  140.3443  155.4265 H   0  0  0  0  0  0  0  0  0  0  0  0  # atno 8008 bound_to 7997
  156.1439  140.1550  156.8909 H   0  0  0  0  0  0  0  0  0  0  0  0  # atno 8009 bound_to 7997
  154.4994  140.0819  156.7746 H   0  0  0  0  0  0  0  0  0  0  0  0  # atno 8010 bound_to 7997
  139.4895  144.4197  151.9202 H   0  0  0  0  0  0  0  0  0  0  0  0  # atno 10167 bound_to 10162
  156.0072  130.5171  150.6296 H   0  0  0  0  0  0  0  0  0  0  0  0  # atno 10718 bound_to 10713
  154.4664  135.2769  155.1675 H   0  0  0  0  0  0  0  0  0  0  0  0  # atno 10763 bound_to 10752
  154.3442  135.6163  153.5615 H   0  0  0  0  0  0  0  0  0  0  0  0  # atno 10764 bound_to 10752
  152.9859  135.5796  154.5036 H   0  0  0  0  0  0  0  0  0  0  0  0  # atno 10765 bound_to 10752
  140.8972  134.1736  157.4486 H   0  0  0  0  0  0  0  0  0  0  0  0  # atno 11005 bound_to 11000
  145.9957  140.8564  143.0044 LP  0  0  0  0  0  0  0  0  0  0  0  0  # atno 17320 bound_to 7965
  144.6779  140.2280  143.7358 LP  0  0  0  0  0  0  0  0  0  0  0  0  # atno 17321 bound_to 7965
  140.3640  144.2937  150.5929 LP  0  0  0  0  0  0  0  0  0  0  0  0  # atno 17342 bound_to 10162
  140.5377  143.2230  151.8135 LP  0  0  0  0  0  0  0  0  0  0  0  0  # atno 17343 bound_to 10162
  157.4097  131.0822  151.1233 LP  0  0  0  0  0  0  0  0  0  0  0  0  # atno 17370 bound_to 10713
  157.1868  130.6334  149.5690 LP  0  0  0  0  0  0  0  0  0  0  0  0  # atno 17371 bound_to 10713
  139.8737  134.9883  156.5407 LP  0  0  0  0  0  0  0  0  0  0  0  0  # atno 17394 bound_to 11000
  140.8274  133.8305  155.8952 LP  0  0  0  0  0  0  0  0  0  0  0  0  # atno 17395 bound_to 11000

$$$$
