AV-unprocessed.smi:265|AV-procd|sdf|2019|dock9
  -GOLD-   2262021223D 1   1.00000     0.00000
 Structure written by MMmdl.
 52 56  0  0  0  0  0  0  0  0  1 V2000
  148.1662  135.8887  159.2296 C   0  0  0  0  0  0  0  0  0  0  0  0
  147.2295  135.8521  160.4475 C   0  0  2  0  0  0  0  0  0  0  0  0
  147.7519  136.7480  161.4250 O   0  0  0  0  0  0  0  0  0  0  0  0
  147.3900  136.2811  162.7120 C   0  0  0  0  0  0  0  0  0  0  0  0
  147.5865  134.7790  162.5785 C   0  0  0  0  0  0  0  0  0  0  0  0
  147.0702  134.4848  161.1719 C   0  0  1  0  0  0  0  0  0  0  0  0
  145.6834  134.2068  161.2689 O   0  0  0  0  0  0  0  0  0  0  0  0
  147.7585  133.2666  160.5016 C   0  0  0  0  0  0  0  0  0  0  0  0
  147.4816  133.1539  159.0771 N   0  0  0  0  0  0  0  0  0  0  0  0
  146.2777  133.3809  158.4470 C   0  0  0  0  0  0  0  0  0  0  0  0
  146.2840  133.2121  157.1524 N   0  0  0  0  0  0  0  0  0  0  0  0
  147.5887  132.8283  156.8720 C   0  0  0  0  0  0  0  0  0  0  0  0
  148.2796  132.4805  155.6824 C   0  0  0  0  0  0  0  0  0  0  0  0
  147.6731  132.4877  154.4761 N   0  0  0  0  0  0  0  0  0  0  0  0
  146.4923  131.6321  154.4287 C   0  0  0  0  0  0  0  0  0  0  0  0
  146.0042  131.4642  152.9813 C   0  0  0  0  0  0  0  0  0  0  0  0
  145.7843  132.8207  152.2893 C   0  0  1  0  0  0  0  0  0  0  0  0
  144.6704  133.4927  152.8632 O   0  0  0  0  0  0  0  0  0  0  0  0
  144.2848  134.6746  152.1584 C   0  0  0  0  0  0  0  0  0  0  0  0
  145.4808  135.6002  151.8674 C   0  0  0  0  0  0  0  0  0  0  0  0
  145.2860  136.7661  151.5317 O   0  0  0  0  0  0  0  0  0  0  0  0
  146.7168  135.0824  151.9508 N   0  0  0  0  0  0  0  0  0  0  0  0
  147.0146  133.7420  152.4448 C   0  0  1  0  0  0  0  0  0  0  0  0
  147.4758  133.8208  153.9145 C   0  0  0  0  0  0  0  0  0  0  0  0
  149.5922  132.1422  155.7822 N   0  0  0  0  0  0  0  0  0  0  0  0
  150.1906  132.1429  156.9777 C   0  0  0  0  0  0  0  0  0  0  0  0
  149.6722  132.4423  158.1713 N   0  0  0  0  0  0  0  0  0  0  0  0
  148.3553  132.7839  158.0695 C   0  0  0  0  0  0  0  0  0  0  0  0
  145.5780  132.6409  151.2323 H   0  0  0  0  0  0  0  0  0  0  0  0
  147.8314  133.3389  151.8448 H   0  0  0  0  0  0  0  0  0  0  0  0
  147.8104  135.2353  158.4330 H   0  0  0  0  0  0  0  0  0  0  0  0
  149.1799  135.5869  159.4934 H   0  0  0  0  0  0  0  0  0  0  0  0
  148.2235  136.8975  158.8204 H   0  0  0  0  0  0  0  0  0  0  0  0
  146.2543  136.2357  160.1411 H   0  0  0  0  0  0  0  0  0  0  0  0
  148.0126  136.7222  163.4906 H   0  0  0  0  0  0  0  0  0  0  0  0
  146.3471  136.5272  162.9176 H   0  0  0  0  0  0  0  0  0  0  0  0
  148.6538  134.5623  162.6386 H   0  0  0  0  0  0  0  0  0  0  0  0
  147.0870  134.2081  163.3628 H   0  0  0  0  0  0  0  0  0  0  0  0
  145.2690  134.9105  161.7442 H   0  0  0  0  0  0  0  0  0  0  0  0
  148.8398  133.3216  160.6344 H   0  0  0  0  0  0  0  0  0  0  0  0
  147.4369  132.3379  160.9733 H   0  0  0  0  0  0  0  0  0  0  0  0
  145.3878  133.6805  158.9808 H   0  0  0  0  0  0  0  0  0  0  0  0
  146.7219  130.6551  154.8566 H   0  0  0  0  0  0  0  0  0  0  0  0
  145.7015  132.0705  155.0394 H   0  0  0  0  0  0  0  0  0  0  0  0
  146.7469  130.8951  152.4207 H   0  0  0  0  0  0  0  0  0  0  0  0
  145.0859  130.8769  152.9600 H   0  0  0  0  0  0  0  0  0  0  0  0
  143.8164  134.3970  151.2134 H   0  0  0  0  0  0  0  0  0  0  0  0
  143.5375  135.2104  152.7441 H   0  0  0  0  0  0  0  0  0  0  0  0
  147.5005  135.6775  151.7255 H   0  0  0  0  0  0  0  0  0  0  0  0
  146.7329  134.3546  154.5095 H   0  0  0  0  0  0  0  0  0  0  0  0
  148.4053  134.3881  153.9823 H   0  0  0  0  0  0  0  0  0  0  0  0
  151.2343  131.8646  156.9783 H   0  0  0  0  0  0  0  0  0  0  0  0
  1  2  1  0  0  0  0
  1 31  1  0  0  0  0
  1 32  1  0  0  0  0
  1 33  1  0  0  0  0
  2  6  1  0  0  0  0
  2  3  1  0  0  0  0
  2 34  1  0  0  0  0
  3  4  1  0  0  0  0
  4  5  1  0  0  0  0
  4 35  1  0  0  0  0
  4 36  1  0  0  0  0
  5  6  1  0  0  0  0
  5 37  1  0  0  0  0
  5 38  1  0  0  0  0
  6  7  1  0  0  0  0
  6  8  1  0  0  0  0
  7 39  1  0  0  0  0
  8  9  1  0  0  0  0
  8 40  1  0  0  0  0
  8 41  1  0  0  0  0
  9 28  1  0  0  0  0
  9 10  1  0  0  0  0
 10 11  2  0  0  0  0
 10 42  1  0  0  0  0
 11 12  1  0  0  0  0
 12 28  2  0  0  0  0
 12 13  1  0  0  0  0
 13 14  1  0  0  0  0
 13 25  2  0  0  0  0
 14 24  1  0  0  0  0
 14 15  1  0  0  0  0
 15 16  1  0  0  0  0
 15 43  1  0  0  0  0
 15 44  1  0  0  0  0
 16 17  1  0  0  0  0
 16 45  1  0  0  0  0
 16 46  1  0  0  0  0
 17 29  1  0  0  0  0
 17 23  1  0  0  0  0
 17 18  1  0  0  0  0
 18 19  1  0  0  0  0
 19 20  1  0  0  0  0
 19 47  1  0  0  0  0
 19 48  1  0  0  0  0
 20 21  2  0  0  0  0
 20 22  1  0  0  0  0
 22 23  1  0  0  0  0
 22 49  1  0  0  0  0
 23 30  1  0  0  0  0
 23 24  1  0  0  0  0
 24 50  1  0  0  0  0
 24 51  1  0  0  0  0
 25 26  1  0  0  0  0
 26 27  2  0  0  0  0
 26 52  1  0  0  0  0
 27 28  1  0  0  0  0
M  END
> <s_m_source_file>
AV-unprocessed.smi

> <i_m_source_file_index>
265

> <i_lp_mmshare_version>
43012

> <i_f3d_flags>
0

> <s_epik_input>
W0NIMl0xW0NIMl1PW0NAQEhdKFtDSDNdKVtDQEBdMShbT0hdKVtDSDJdbihbY0hdbjIpYyhjMjMpbltjSF1uYzNOKFtDSDJdW0NIMl00KVtDSDJdW0NAQEhdKFtDQEhdNDUpW05IXUMoPU8pW0NIMl1PNQ==

> <s_epik_cmdline>
J2VwaWtfcHl0aG9uJywgJy1waCcsICc3LjAnLCAnLXRuJywgJzgnLCAnLW1hJywgJzIwMCcsICctbWV0YWxfYmluZGluZycsICctaW1hZScsICc8aW5maWxlLm1hZT4nLCAnLW9tYWUnLCAnPG91dGZpbGUubWFlPic=

> <r_lp_tautomer_probability>
1

> <r_epik_Ionization_Penalty>
0.00221504

> <r_epik_Ionization_Penalty_Charging>
0

> <r_epik_Ionization_Penalty_Neutral>
0.00221504

> <r_epik_State_Penalty>
-0

> <r_epik_Charging_Adjusted_Penalty>
0

> <i_epik_Tot_Q>
0

> <i_epik_Tot_abs_Q>
0

> <r_epik_Metal_State_Penalty>
-0

> <b_epik_Metal_Only>
0

> <s_lp_Force_Field>
OPLS_2005

> <r_lp_Energy>
45.6992

> <b_lp_Chiralities_Consistent>
1

> <s_lp_Variant>
AV-unprocessed.smi:265-5

> <Gold.Version>
5.8.1

> <Gold.Id.Protein>
6NUR|6NUR_protein|mol2

> <Gold.PLP.Fitness>
40.1890

> <Gold.PLP.PLP>
-29.8580

> <Gold.PLP.part.hbond>
-3.8210

> <Gold.PLP.part.metal>
0.0000

> <Gold.PLP.part.buried>
-5.3638

> <Gold.PLP.part.nonpolar>
-23.4423

> <Gold.PLP.part.repulsive>
2.3628

> <Gold.PLP.ligand.clash>
0.0084

> <Gold.PLP.ligand.torsion>
0.6260

> <Gold.PLP.Chemscore.Hbond>
3.8060

> <Gold.PLP.Chemscore.CHOScore>
0.0000

> <Gold.PLP.Chemscore.Metal>
0.0000

> <Gold.Chemscore.Hbonds>
donor molecule, donor type, donor heavy atom, donor atom, acceptor molecule, acceptor atom, score
      L1  H    22    49       P1  7948  0.98
      P1  H  6896  6909       L1    27  0.66
      P1  H  6931  6943       L1     3  0.99
      P1  H  6934  6947       L1     3  0.08

> <Gold.PLP.Chemscore.Internal.Correction>
0.1734

> <Gold.Rescore>
     Score         DG    S(hbond)    S(metal)    S(lipo)     H(rot)  DE(clash)    DE(int)     intcor
     14.16     -17.12       2.86        0.00      67.05       2.25       0.31       2.65       ----

> <Gold.Chemscore.Fitness>
14.1617

> <Gold.Chemscore.DG>
-17.1223

> <Gold.Chemscore.ZeroCoef>
-5.4800

> <Gold.Chemscore.Hbond>
2.8580

> <Gold.Chemscore.Metal>
0.0000

> <Gold.Chemscore.Lipo>
67.0486

> <Gold.Chemscore.Internal_Hbond>
0.0000

> <Gold.Chemscore.DEClash>
0.3098

> <Gold.Chemscore.DEInternal>
2.6508

> <Gold.Chemscore.Rot>
2.2453

> <Gold.Chemscore.Internal.Correction>
   9.000000E+99

> <Gold.Chemscore.Hbonds>
donor molecule, donor type, donor heavy atom, donor atom, acceptor molecule, acceptor atom, score
      L1  H    22    49       P1  7948  0.91
      P1  H  6896  6909       L1    27  0.43
      P1  H  6931  6943       L1     3  0.28
      P1  H  6934  6947       L1     3  0.08

> <Gold.Chemscore.Hbond.Weighted>
-9.5456

> <Gold.Chemscore.Metal.Weighted>
-0.0000

> <Gold.Chemscore.Lipo.Weighted>
-7.8447

> <Gold.Chemscore.Internal_Hbond.Weighted>
0.0000

> <Gold.Chemscore.DEClash.Weighted>
0.3098

> <Gold.Chemscore.DEInternal.Weighted>
2.6508

> <Gold.Chemscore.Rot.Weighted>
5.7479

> <Gold.Chemscore.Internal.Correction.Weighted>
   9.000000E+99

> <Gold.Protein.RotatedTorsions>
[ 6907 6896 6895 6894 ] final   10.71 input  -60.11 | X-H torsion
[ 7974 7965 7964 7962 ] final   -4.83 input  175.53 | X-H torsion
[ 8008 7997 7996 7995 ] final  110.56 input   59.86 | X-H torsion
[ 10167 10162 10161 10158 ] final  -70.81 input  -65.29 | X-H torsion
[ 10718 10713 10712 10709 ] final -160.25 input   66.30 | X-H torsion
[ 10763 10752 10751 10750 ] final -155.07 input  -60.55 | X-H torsion
[ 11005 11000 10999 10996 ] final -110.74 input  -57.11 | X-H torsion

> <Gold.Protein.ActiveResidues>
 VAL166  LYS551  ARG553  GLY616  TRP617  ASP618  TYR619  PRO620  LYS621  CYS622 
 ASP623  PHE694  ASN695  SER759  ASP760  ASP761  ALA762  ILE779  LEU786  VAL792 
 PHE793  MET794  SER795  GLU796  ALA797  LYS798  CYS799  TRP800  GLU811  SER814 

> <Gold.Protein.RotatedAtoms>
  151.7426  135.0851  160.0317 H   0  0  0  0  0  0  0  0  0  0  0  0  # atno 6907 bound_to 6896
  152.3469  133.6129  159.5925 H   0  0  0  0  0  0  0  0  0  0  0  0  # atno 6908 bound_to 6896
  150.7514  133.9551  159.3539 H   0  0  0  0  0  0  0  0  0  0  0  0  # atno 6909 bound_to 6896
  146.2365  140.1930  142.8333 H   0  0  0  0  0  0  0  0  0  0  0  0  # atno 7974 bound_to 7965
  156.2061  140.3036  155.9631 H   0  0  0  0  0  0  0  0  0  0  0  0  # atno 8008 bound_to 7997
  155.2837  140.0439  157.3034 H   0  0  0  0  0  0  0  0  0  0  0  0  # atno 8009 bound_to 7997
  154.5636  140.2327  155.8307 H   0  0  0  0  0  0  0  0  0  0  0  0  # atno 8010 bound_to 7997
  140.5323  143.2320  151.7240 H   0  0  0  0  0  0  0  0  0  0  0  0  # atno 10167 bound_to 10162
  156.5795  130.8723  151.2860 H   0  0  0  0  0  0  0  0  0  0  0  0  # atno 10718 bound_to 10713
  154.7813  135.3176  154.7983 H   0  0  0  0  0  0  0  0  0  0  0  0  # atno 10763 bound_to 10752
  153.8693  135.6846  153.4780 H   0  0  0  0  0  0  0  0  0  0  0  0  # atno 10764 bound_to 10752
  153.1451  135.4723  154.9491 H   0  0  0  0  0  0  0  0  0  0  0  0  # atno 10765 bound_to 10752
  141.0774  133.9277  157.2360 H   0  0  0  0  0  0  0  0  0  0  0  0  # atno 11005 bound_to 11000
  144.9843  140.8488  143.5378 LP  0  0  0  0  0  0  0  0  0  0  0  0  # atno 17320 bound_to 7965
  145.1927  139.2292  143.5234 LP  0  0  0  0  0  0  0  0  0  0  0  0  # atno 17321 bound_to 7965
  139.4958  144.4095  152.0095 LP  0  0  0  0  0  0  0  0  0  0  0  0  # atno 17342 bound_to 10162
  140.3198  144.3441  150.6012 LP  0  0  0  0  0  0  0  0  0  0  0  0  # atno 17343 bound_to 10162
  157.7330  130.9723  150.1955 LP  0  0  0  0  0  0  0  0  0  0  0  0  # atno 17370 bound_to 10713
  156.2644  130.3714  149.8097 LP  0  0  0  0  0  0  0  0  0  0  0  0  # atno 17371 bound_to 10713
  139.9587  135.0159  156.9200 LP  0  0  0  0  0  0  0  0  0  0  0  0  # atno 17394 bound_to 11000
  140.5543  134.0597  155.7379 LP  0  0  0  0  0  0  0  0  0  0  0  0  # atno 17395 bound_to 11000

$$$$
