AV-unprocessed.smi:1754|AV-procd|sdf|7068|dock1
  -GOLD-   22720 8283D 1   1.00000     0.00000
 Structure written by MMmdl.
 44 45  0  0  0  0  0  0  0  0  3 V2000
  149.3751  145.1025  160.0834 C   0  0  0  0  0  0  0  0  0  0  0  0
  150.7729  145.0791  159.4456 C   0  0  0  0  0  0  0  0  0  0  0  0
  151.2823  143.7229  159.2433 N   0  0  0  0  0  0  0  0  0  0  0  0
  150.4347  142.8013  158.4831 C   0  0  0  0  0  0  0  0  0  0  0  0
  151.2399  141.7836  157.6593 C   0  0  0  0  0  0  0  0  0  0  0  0
  152.0598  143.2102  160.3069 C   0  0  0  0  0  0  0  0  0  0  0  0
  152.9843  142.1541  160.1243 C   0  0  0  0  0  0  0  0  0  0  0  0
  153.7469  141.6919  161.2160 C   0  0  0  0  0  0  0  0  0  0  0  0
  153.5938  142.2946  162.4810 C   0  0  0  0  0  0  0  0  0  0  0  0
  154.3656  141.7848  163.5584 N   0  0  0  0  0  0  0  0  0  0  0  0
  154.6031  142.3319  164.7764 C   0  0  0  0  0  0  0  0  0  0  0  0
  154.1759  143.4604  165.0149 O   0  0  0  0  0  0  0  0  0  0  0  0
  155.3309  141.6372  165.7034 N   0  5  0  0  0  0  0  0  0  0  0  0
  155.0862  141.4822  167.1461 C   0  0  2  0  0  0  0  0  0  0  0  0
  155.1058  142.8461  167.8671 C   0  0  0  0  0  0  0  0  0  0  0  0
  155.2068  142.6012  169.3793 C   0  0  0  0  0  0  0  0  0  0  0  0
  156.1760  141.0547  169.5707 S   0  0  0  0  0  0  0  0  0  0  0  0
  157.5512  141.3827  169.9771 O   0  0  0  0  0  0  0  0  0  0  0  0
  155.3771  140.0831  170.3342 O   0  0  0  0  0  0  0  0  0  0  0  0
  156.1659  140.6028  167.7912 C   0  0  0  0  0  0  0  0  0  0  0  0
  152.6456  143.3349  162.6187 C   0  0  0  0  0  0  0  0  0  0  0  0
  151.9341  143.7446  161.5466 N   0  3  0  0  0  0  0  0  0  0  0  0
  149.0244  146.1278  160.2018 H   0  0  0  0  0  0  0  0  0  0  0  0
  149.3790  144.6398  161.0707 H   0  0  0  0  0  0  0  0  0  0  0  0
  148.6464  144.5745  159.4680 H   0  0  0  0  0  0  0  0  0  0  0  0
  150.7334  145.5800  158.4779 H   0  0  0  0  0  0  0  0  0  0  0  0
  151.4637  145.6686  160.0469 H   0  0  0  0  0  0  0  0  0  0  0  0
  149.7506  142.2844  159.1571 H   0  0  0  0  0  0  0  0  0  0  0  0
  149.8056  143.3778  157.8039 H   0  0  0  0  0  0  0  0  0  0  0  0
  150.5717  141.1476  157.0784 H   0  0  0  0  0  0  0  0  0  0  0  0
  151.8470  141.1310  158.2863 H   0  0  0  0  0  0  0  0  0  0  0  0
  151.9060  142.2877  156.9586 H   0  0  0  0  0  0  0  0  0  0  0  0
  153.1085  141.6820  159.1614 H   0  0  0  0  0  0  0  0  0  0  0  0
  154.4482  140.8817  161.0786 H   0  0  0  0  0  0  0  0  0  0  0  0
  154.8415  140.9130  163.3782 H   0  0  0  0  0  0  0  0  0  0  0  0
  154.1204  141.0149  167.3457 H   0  0  0  0  0  0  0  0  0  0  0  0
  155.9821  143.4122  167.5468 H   0  0  0  0  0  0  0  0  0  0  0  0
  154.2315  143.4488  167.6203 H   0  0  0  0  0  0  0  0  0  0  0  0
  155.6979  143.4193  169.9061 H   0  0  0  0  0  0  0  0  0  0  0  0
  154.2228  142.4447  169.8237 H   0  0  0  0  0  0  0  0  0  0  0  0
  155.9742  139.5366  167.6721 H   0  0  0  0  0  0  0  0  0  0  0  0
  157.1536  140.8270  167.3865 H   0  0  0  0  0  0  0  0  0  0  0  0
  152.4182  143.8468  163.5419 H   0  0  0  0  0  0  0  0  0  0  0  0
  151.2630  144.5008  161.6804 H   0  0  0  0  0  0  0  0  0  0  0  0
  1  2  1  0  0  0  0
  1 23  1  0  0  0  0
  1 24  1  0  0  0  0
  1 25  1  0  0  0  0
  2  3  1  0  0  0  0
  2 26  1  0  0  0  0
  2 27  1  0  0  0  0
  3  4  1  0  0  0  0
  3  6  1  0  0  0  0
  4  5  1  0  0  0  0
  4 28  1  0  0  0  0
  4 29  1  0  0  0  0
  5 30  1  0  0  0  0
  5 31  1  0  0  0  0
  5 32  1  0  0  0  0
  6 22  1  0  0  0  0
  6  7  2  0  0  0  0
  7  8  1  0  0  0  0
  7 33  1  0  0  0  0
  8  9  2  0  0  0  0
  8 34  1  0  0  0  0
  9 10  1  0  0  0  0
  9 21  1  0  0  0  0
 10 11  1  0  0  0  0
 10 35  1  0  0  0  0
 11 12  2  0  0  0  0
 11 13  1  0  0  0  0
 13 14  1  0  0  0  0
 14 20  1  0  0  0  0
 14 15  1  0  0  0  0
 14 36  1  0  0  0  0
 15 16  1  0  0  0  0
 15 37  1  0  0  0  0
 15 38  1  0  0  0  0
 16 17  1  0  0  0  0
 16 39  1  0  0  0  0
 16 40  1  0  0  0  0
 17 18  2  0  0  0  0
 17 19  2  0  0  0  0
 17 20  1  0  0  0  0
 20 41  1  0  0  0  0
 20 42  1  0  0  0  0
 21 22  2  0  0  0  0
 21 43  1  0  0  0  0
 22 44  1  0  0  0  0
M  CHG  1  13  -1
M  CHG  1  22   1
M  END
> <s_m_source_file>
AV-unprocessed.smi

> <i_m_source_file_index>
1754

> <i_lp_mmshare_version>
43012

> <i_f3d_flags>
0

> <s_epik_input>
W0NIM11bQ0gyXU4oW0NIMl1bQ0gzXSljMVtjSF1bY0hdYyhbY0hdbjEpW05IXUMoPU8pW05IXVtDQEBIXShbQ0gyXTIpW0NIMl1bQ0gyXVMyKD1PKT1P

> <s_epik_cmdline>
J2VwaWtfcHl0aG9uJywgJy1waCcsICc3LjAnLCAnLXRuJywgJzgnLCAnLW1hJywgJzIwMCcsICctbWV0YWxfYmluZGluZycsICctaW1hZScsICc8aW5maWxlLm1hZT4nLCAnLW9tYWUnLCAnPG91dGZpbGUubWFlPic=

> <r_lp_tautomer_probability>
0.999994

> <r_epik_Ionization_Penalty>
7.1175

> <r_epik_Ionization_Penalty_Charging>
7.11749

> <r_epik_Ionization_Penalty_Neutral>
3.13064e-06

> <r_epik_State_Penalty>
6.65299

> <r_epik_Charging_Adjusted_Penalty>
13.7705

> <i_epik_Tot_Q>
0

> <i_epik_Tot_abs_Q>
2

> <r_epik_Metal_State_Penalty>
2.60496

> <b_epik_Metal_Only>
1

> <s_lp_Force_Field>
OPLS_2005

> <r_lp_Energy>
20.9126

> <b_lp_Chiralities_Consistent>
1

> <s_lp_Variant>
AV-unprocessed.smi:1754-5

> <Gold.Version>
5.8.1

> <Gold.Id.Protein>
6NUR|6NUR_protein|mol2

> <Gold.PLP.Fitness>
45.5859

> <Gold.PLP.PLP>
-47.3923

> <Gold.PLP.part.hbond>
-2.3503

> <Gold.PLP.part.metal>
0.0000

> <Gold.PLP.part.buried>
-7.9131

> <Gold.PLP.part.nonpolar>
-36.7986

> <Gold.PLP.part.repulsive>
0.2411

> <Gold.PLP.ligand.clash>
0.1264

> <Gold.PLP.ligand.torsion>
1.4339

> <Gold.PLP.Chemscore.Hbond>
0.0000

> <Gold.PLP.Chemscore.CHOScore>
0.0000

> <Gold.PLP.Chemscore.Metal>
0.0000

> <Gold.PLP.Chemscore.Internal.Correction>
1.1878

> <Gold.Rescore>
     Score         DG    S(hbond)    S(metal)    S(lipo)     H(rot)  DE(clash)    DE(int)     intcor
      9.14     -13.51       0.00        0.00      99.03       1.39       0.37       4.00       ----

> <Gold.Chemscore.Fitness>
9.1434

> <Gold.Chemscore.DG>
-13.5142

> <Gold.Chemscore.ZeroCoef>
-5.4800

> <Gold.Chemscore.Hbond>
0.0000

> <Gold.Chemscore.Metal>
0.0000

> <Gold.Chemscore.Lipo>
99.0302

> <Gold.Chemscore.Internal_Hbond>
0.0000

> <Gold.Chemscore.DEClash>
0.3718

> <Gold.Chemscore.DEInternal>
3.9990

> <Gold.Chemscore.Rot>
1.3876

> <Gold.Chemscore.Internal.Correction>
   9.000000E+99

> <Gold.Chemscore.Hbond.Weighted>
-0.0000

> <Gold.Chemscore.Metal.Weighted>
-0.0000

> <Gold.Chemscore.Lipo.Weighted>
-11.5865

> <Gold.Chemscore.Internal_Hbond.Weighted>
0.0000

> <Gold.Chemscore.DEClash.Weighted>
0.3718

> <Gold.Chemscore.DEInternal.Weighted>
3.9990

> <Gold.Chemscore.Rot.Weighted>
3.5524

> <Gold.Chemscore.Internal.Correction.Weighted>
   9.000000E+99

> <Gold.Protein.RotatedTorsions>
[ 6907 6896 6895 6894 ] final   46.79 input  -60.11 | X-H torsion
[ 7974 7965 7964 7962 ] final  -88.93 input  175.53 | X-H torsion
[ 8008 7997 7996 7995 ] final -135.71 input   59.86 | X-H torsion
[ 10167 10162 10161 10158 ] final  150.14 input  -65.29 | X-H torsion
[ 10718 10713 10712 10709 ] final -127.27 input   66.30 | X-H torsion
[ 10763 10752 10751 10750 ] final   27.60 input  -60.55 | X-H torsion
[ 11005 11000 10999 10996 ] final  -20.21 input  -57.11 | X-H torsion

> <Gold.Protein.ActiveResidues>
 VAL166  LYS551  ARG553  GLY616  TRP617  ASP618  TYR619  PRO620  LYS621  CYS622 
 ASP623  PHE694  ASN695  SER759  ASP760  ASP761  ALA762  ILE779  LEU786  VAL792 
 PHE793  MET794  SER795  GLU796  ALA797  LYS798  CYS799  TRP800  GLU811  SER814 

> <Gold.Protein.RotatedAtoms>
  152.2605  134.8039  160.0431 H   0  0  0  0  0  0  0  0  0  0  0  0  # atno 6907 bound_to 6896
  151.8687  133.3466  159.3736 H   0  0  0  0  0  0  0  0  0  0  0  0  # atno 6908 bound_to 6896
  150.7115  134.5061  159.5629 H   0  0  0  0  0  0  0  0  0  0  0  0  # atno 6909 bound_to 6896
  145.4466  140.9560  143.2045 H   0  0  0  0  0  0  0  0  0  0  0  0  # atno 7974 bound_to 7965
  155.3832  140.0495  157.3043 H   0  0  0  0  0  0  0  0  0  0  0  0  # atno 8008 bound_to 7997
  154.5072  140.2178  155.9189 H   0  0  0  0  0  0  0  0  0  0  0  0  # atno 8009 bound_to 7997
  156.1540  140.3130  155.8701 H   0  0  0  0  0  0  0  0  0  0  0  0  # atno 8010 bound_to 7997
  139.4853  144.5545  151.7341 H   0  0  0  0  0  0  0  0  0  0  0  0  # atno 10167 bound_to 10162
  156.1842  130.6752  151.0343 H   0  0  0  0  0  0  0  0  0  0  0  0  # atno 10718 bound_to 10713
  153.0545  135.6533  154.0610 H   0  0  0  0  0  0  0  0  0  0  0  0  # atno 10763 bound_to 10752
  154.0291  135.2913  155.3372 H   0  0  0  0  0  0  0  0  0  0  0  0  # atno 10764 bound_to 10752
  154.6853  135.5304  153.8385 H   0  0  0  0  0  0  0  0  0  0  0  0  # atno 10765 bound_to 10752
  140.8442  133.7904  155.9894 H   0  0  0  0  0  0  0  0  0  0  0  0  # atno 11005 bound_to 11000
  144.8088  139.6001  143.7039 LP  0  0  0  0  0  0  0  0  0  0  0  0  # atno 17320 bound_to 7965
  146.2527  139.6235  142.9416 LP  0  0  0  0  0  0  0  0  0  0  0  0  # atno 17321 bound_to 7965
  140.5105  144.1032  150.5994 LP  0  0  0  0  0  0  0  0  0  0  0  0  # atno 17342 bound_to 10162
  140.3956  143.2730  152.0008 LP  0  0  0  0  0  0  0  0  0  0  0  0  # atno 17343 bound_to 10162
  157.6888  131.0816  150.7167 LP  0  0  0  0  0  0  0  0  0  0  0  0  # atno 17370 bound_to 10713
  156.7224  130.4685  149.5519 LP  0  0  0  0  0  0  0  0  0  0  0  0  # atno 17371 bound_to 10713
  140.8861  134.2552  157.5119 LP  0  0  0  0  0  0  0  0  0  0  0  0  # atno 17394 bound_to 11000
  139.8703  134.9639  156.4477 LP  0  0  0  0  0  0  0  0  0  0  0  0  # atno 17395 bound_to 11000

$$$$
