AV-unprocessed.smi:2049|AV-procd|sdf|8322|dock5
  -GOLD-   2272010583D 1   1.00000     0.00000
 Structure written by MMmdl.
 51 53  0  0  0  0  0  0  0  0  2 V2000
  147.4109  137.9916  155.7884 O   0  0  0  0  0  0  0  0  0  0  0  0
  147.9250  137.6261  154.7319 C   0  0  0  0  0  0  0  0  0  0  0  0
  149.2749  138.2010  154.2912 C   0  0  0  0  0  0  0  0  0  0  0  0
  149.1320  139.5793  153.7973 N   0  0  0  0  0  0  0  0  0  0  0  0
  148.3850  139.7788  152.6242 C   0  0  0  0  0  0  0  0  0  0  0  0
  148.2303  141.0065  152.1079 C   0  0  0  0  0  0  0  0  0  0  0  0
  148.8792  142.1069  152.8331 C   0  0  0  0  0  0  0  0  0  0  0  0
  149.5618  141.9282  153.9022 N   0  0  0  0  0  0  0  0  0  0  0  0
  149.7233  140.6387  154.4419 C   0  0  0  0  0  0  0  0  0  0  0  0
  150.3833  140.4593  155.4664 O   0  0  0  0  0  0  0  0  0  0  0  0
  147.3601  136.7421  153.8974 N   0  0  0  0  0  0  0  0  0  0  0  0
  146.0198  136.1757  154.0329 C   0  0  0  0  0  0  0  0  0  0  0  0
  145.9584  134.6445  153.7038 C   0  0  0  0  0  0  0  0  0  0  0  0
  145.9919  134.4760  152.1984 N   0  3  0  0  0  0  0  0  0  0  0  0
  146.0639  133.0639  151.7237 C   0  0  0  0  0  0  0  0  0  0  0  0
  146.3120  133.0087  150.2097 C   0  0  0  0  0  0  0  0  0  0  0  0
  145.2532  133.6787  149.5437 O   0  0  0  0  0  0  0  0  0  0  0  0
  145.2105  135.0539  149.8925 C   0  0  0  0  0  0  0  0  0  0  0  0
  144.9697  135.2184  151.4046 C   0  0  0  0  0  0  0  0  0  0  0  0
  147.1604  133.9216  154.3820 C   0  0  0  0  0  0  0  0  0  0  0  0
  147.1092  133.9496  155.9227 C   0  0  0  0  0  0  0  0  0  0  0  0
  145.7960  133.3673  156.4625 C   0  0  0  0  0  0  0  0  0  0  0  0
  144.5786  134.0658  155.8427 C   0  0  0  0  0  0  0  0  0  0  0  0
  144.6533  134.0241  154.3052 C   0  0  0  0  0  0  0  0  0  0  0  0
  149.9604  138.1571  155.1389 H   0  0  0  0  0  0  0  0  0  0  0  0
  149.7261  137.5728  153.5205 H   0  0  0  0  0  0  0  0  0  0  0  0
  147.9632  138.8888  152.1804 H   0  0  0  0  0  0  0  0  0  0  0  0
  147.6735  141.2295  151.2097 H   0  0  0  0  0  0  0  0  0  0  0  0
  148.7414  143.0996  152.3967 H   0  0  0  0  0  0  0  0  0  0  0  0
  147.8797  136.4828  153.0715 H   0  0  0  0  0  0  0  0  0  0  0  0
  145.7096  136.3511  155.0622 H   0  0  0  0  0  0  0  0  0  0  0  0
  145.3106  136.7585  153.4477 H   0  0  0  0  0  0  0  0  0  0  0  0
  146.8627  132.5159  152.2195 H   0  0  0  0  0  0  0  0  0  0  0  0
  145.1316  132.5433  151.9449 H   0  0  0  0  0  0  0  0  0  0  0  0
  147.2735  133.4562  149.9517 H   0  0  0  0  0  0  0  0  0  0  0  0
  146.3403  131.9727  149.8715 H   0  0  0  0  0  0  0  0  0  0  0  0
  146.1381  135.5425  149.5913 H   0  0  0  0  0  0  0  0  0  0  0  0
  144.4077  135.5335  149.3321 H   0  0  0  0  0  0  0  0  0  0  0  0
  143.9689  134.8718  151.6639 H   0  0  0  0  0  0  0  0  0  0  0  0
  145.0111  136.2883  151.5979 H   0  0  0  0  0  0  0  0  0  0  0  0
  147.1962  132.8808  154.0595 H   0  0  0  0  0  0  0  0  0  0  0  0
  148.1061  134.3659  154.0719 H   0  0  0  0  0  0  0  0  0  0  0  0
  147.9498  133.3841  156.3260 H   0  0  0  0  0  0  0  0  0  0  0  0
  147.2350  134.9700  156.2846 H   0  0  0  0  0  0  0  0  0  0  0  0
  145.7546  132.3004  156.2389 H   0  0  0  0  0  0  0  0  0  0  0  0
  145.7656  133.4561  157.5488 H   0  0  0  0  0  0  0  0  0  0  0  0
  143.6683  133.5659  156.1749 H   0  0  0  0  0  0  0  0  0  0  0  0
  144.5001  135.0882  156.2092 H   0  0  0  0  0  0  0  0  0  0  0  0
  143.7649  134.4836  153.8727 H   0  0  0  0  0  0  0  0  0  0  0  0
  144.5907  132.9647  154.0625 H   0  0  0  0  0  0  0  0  0  0  0  0
  146.8700  134.8938  151.9244 H   0  0  0  0  0  0  0  0  0  0  0  0
  1  2  2  0  0  0  0
  2  3  1  0  0  0  0
  2 11  1  0  0  0  0
  3  4  1  0  0  0  0
  3 25  1  0  0  0  0
  3 26  1  0  0  0  0
  4  9  1  0  0  0  0
  4  5  1  0  0  0  0
  5  6  2  0  0  0  0
  5 27  1  0  0  0  0
  6  7  1  0  0  0  0
  6 28  1  0  0  0  0
  7  8  2  0  0  0  0
  7 29  1  0  0  0  0
  8  9  1  0  0  0  0
  9 10  2  0  0  0  0
 11 12  1  0  0  0  0
 11 30  1  0  0  0  0
 12 13  1  0  0  0  0
 12 31  1  0  0  0  0
 12 32  1  0  0  0  0
 13 24  1  0  0  0  0
 13 14  1  0  0  0  0
 13 20  1  0  0  0  0
 14 19  1  0  0  0  0
 14 15  1  0  0  0  0
 14 51  1  0  0  0  0
 15 16  1  0  0  0  0
 15 33  1  0  0  0  0
 15 34  1  0  0  0  0
 16 17  1  0  0  0  0
 16 35  1  0  0  0  0
 16 36  1  0  0  0  0
 17 18  1  0  0  0  0
 18 19  1  0  0  0  0
 18 37  1  0  0  0  0
 18 38  1  0  0  0  0
 19 39  1  0  0  0  0
 19 40  1  0  0  0  0
 20 21  1  0  0  0  0
 20 41  1  0  0  0  0
 20 42  1  0  0  0  0
 21 22  1  0  0  0  0
 21 43  1  0  0  0  0
 21 44  1  0  0  0  0
 22 23  1  0  0  0  0
 22 45  1  0  0  0  0
 22 46  1  0  0  0  0
 23 24  1  0  0  0  0
 23 47  1  0  0  0  0
 23 48  1  0  0  0  0
 24 49  1  0  0  0  0
 24 50  1  0  0  0  0
M  CHG  1  14   1
M  END
> <s_m_source_file>
AV-unprocessed.smi

> <i_m_source_file_index>
2049

> <i_lp_mmshare_version>
43012

> <i_f3d_flags>
0

> <s_epik_input>
Tz1jMW5bY0hdW2NIXVtjSF1uMVtDSDJdQyg9TylbTkhdW0NIMl1DMihbQ0gyXVtDSDJdW0NIMl1bQ0gyXVtDSDJdMilOM1tDSDJdW0NIMl1PW0NIMl1bQ0gyXTM=

> <s_epik_cmdline>
J2VwaWtfcHl0aG9uJywgJy1waCcsICc3LjAnLCAnLXRuJywgJzgnLCAnLW1hJywgJzIwMCcsICctbWV0YWxfYmluZGluZycsICctaW1hZScsICc8aW5maWxlLm1hZT4nLCAnLW9tYWUnLCAnPG91dGZpbGUubWFlPic=

> <r_lp_tautomer_probability>
1

> <r_epik_Ionization_Penalty>
0.40042

> <r_epik_Ionization_Penalty_Charging>
0.400415

> <r_epik_Ionization_Penalty_Neutral>
5.09538e-06

> <r_epik_State_Penalty>
0.399732

> <r_epik_Charging_Adjusted_Penalty>
0.800147

> <i_epik_Tot_Q>
1

> <i_epik_Tot_abs_Q>
1

> <r_epik_Metal_State_Penalty>
0.399734

> <b_epik_Metal_Only>
0

> <s_lp_Force_Field>
OPLS_2005

> <r_lp_Energy>
43.1449

> <b_lp_Chiralities_Consistent>
1

> <s_lp_Variant>
AV-unprocessed.smi:2049-1

> <Gold.Version>
5.8.1

> <Gold.Id.Protein>
6NUR|6NUR_protein|mol2

> <Gold.PLP.Fitness>
52.6639

> <Gold.PLP.PLP>
-38.7331

> <Gold.PLP.part.hbond>
-4.0000

> <Gold.PLP.part.metal>
0.0000

> <Gold.PLP.part.buried>
-3.5484

> <Gold.PLP.part.nonpolar>
-29.9105

> <Gold.PLP.part.repulsive>
0.2106

> <Gold.PLP.ligand.clash>
0.0000

> <Gold.PLP.ligand.torsion>
0.6013

> <Gold.PLP.Chemscore.Hbond>
4.0000

> <Gold.PLP.Chemscore.CHOScore>
1.0000

> <Gold.PLP.Chemscore.Metal>
0.0000

> <Gold.Chemscore.Hbonds>
donor molecule, donor type, donor heavy atom, donor atom, acceptor molecule, acceptor atom, score
      L1  H    11    30       P1  7948  1.00
      L1  C     5    27       P1  7948  0.28

> <Gold.PLP.Chemscore.Internal.Correction>
0.1335

> <Gold.Rescore>
     Score         DG    S(hbond)    S(metal)    S(lipo)     H(rot)  DE(clash)    DE(int)     intcor
     17.91     -18.23       2.91        0.00      69.90       2.02       0.03       0.29       ----

> <Gold.Chemscore.Fitness>
17.9090

> <Gold.Chemscore.DG>
-18.2285

> <Gold.Chemscore.ZeroCoef>
-5.4800

> <Gold.Chemscore.Hbond>
2.9138

> <Gold.Chemscore.Metal>
0.0000

> <Gold.Chemscore.Lipo>
69.8957

> <Gold.Chemscore.Internal_Hbond>
0.0000

> <Gold.Chemscore.DEClash>
0.0255

> <Gold.Chemscore.DEInternal>
0.2940

> <Gold.Chemscore.Rot>
2.0162

> <Gold.Chemscore.Internal.Correction>
   9.000000E+99

> <Gold.Chemscore.Hbonds>
donor molecule, donor type, donor heavy atom, donor atom, acceptor molecule, acceptor atom, score
      L1  H    11    30       P1  7948  1.00
      L1  H    14    51       P1  7948  0.06

> <Gold.Chemscore.Hbond.Weighted>
-9.7321

> <Gold.Chemscore.Metal.Weighted>
-0.0000

> <Gold.Chemscore.Lipo.Weighted>
-8.1778

> <Gold.Chemscore.Internal_Hbond.Weighted>
0.0000

> <Gold.Chemscore.DEClash.Weighted>
0.0255

> <Gold.Chemscore.DEInternal.Weighted>
0.2940

> <Gold.Chemscore.Rot.Weighted>
5.1614

> <Gold.Chemscore.Internal.Correction.Weighted>
   9.000000E+99

> <Gold.Protein.RotatedTorsions>
[ 6907 6896 6895 6894 ] final    5.03 input  -60.11 | X-H torsion
[ 7974 7965 7964 7962 ] final -144.19 input  175.53 | X-H torsion
[ 8008 7997 7996 7995 ] final  101.50 input   59.86 | X-H torsion
[ 10167 10162 10161 10158 ] final  139.73 input  -65.29 | X-H torsion
[ 10718 10713 10712 10709 ] final  141.15 input   66.30 | X-H torsion
[ 10763 10752 10751 10750 ] final -178.29 input  -60.55 | X-H torsion
[ 11005 11000 10999 10996 ] final  114.99 input  -57.11 | X-H torsion

> <Gold.Protein.ActiveResidues>
 VAL166  LYS551  ARG553  GLY616  TRP617  ASP618  TYR619  PRO620  LYS621  CYS622 
 ASP623  PHE694  ASN695  SER759  ASP760  ASP761  ALA762  ILE779  LEU786  VAL792 
 PHE793  MET794  SER795  GLU796  ALA797  LYS798  CYS799  TRP800  GLU811  SER814 

> <Gold.Protein.RotatedAtoms>
  151.6510  135.1001  160.0160 H   0  0  0  0  0  0  0  0  0  0  0  0  # atno 6907 bound_to 6896
  152.4001  133.6800  159.6317 H   0  0  0  0  0  0  0  0  0  0  0  0  # atno 6908 bound_to 6896
  150.7902  133.8723  159.3303 H   0  0  0  0  0  0  0  0  0  0  0  0  # atno 6909 bound_to 6896
  144.8315  140.5741  143.5512 H   0  0  0  0  0  0  0  0  0  0  0  0  # atno 7974 bound_to 7965
  156.1305  140.3196  155.8342 H   0  0  0  0  0  0  0  0  0  0  0  0  # atno 8008 bound_to 7997
  155.4340  140.0521  157.3033 H   0  0  0  0  0  0  0  0  0  0  0  0  # atno 8009 bound_to 7997
  154.4896  140.2086  155.9591 H   0  0  0  0  0  0  0  0  0  0  0  0  # atno 8010 bound_to 7997
  139.5070  144.6277  151.5896 H   0  0  0  0  0  0  0  0  0  0  0  0  # atno 10167 bound_to 10162
  157.3952  131.1010  151.0607 H   0  0  0  0  0  0  0  0  0  0  0  0  # atno 10718 bound_to 10713
  154.5495  135.2812  155.1022 H   0  0  0  0  0  0  0  0  0  0  0  0  # atno 10763 bound_to 10752
  154.2473  135.6346  153.5231 H   0  0  0  0  0  0  0  0  0  0  0  0  # atno 10764 bound_to 10752
  152.9999  135.5574  154.6057 H   0  0  0  0  0  0  0  0  0  0  0  0  # atno 10765 bound_to 10752
  139.8996  134.9577  156.6977 H   0  0  0  0  0  0  0  0  0  0  0  0  # atno 11005 bound_to 11000
  145.4885  139.1490  143.3723 LP  0  0  0  0  0  0  0  0  0  0  0  0  # atno 17320 bound_to 7965
  146.2618  140.5023  142.8850 LP  0  0  0  0  0  0  0  0  0  0  0  0  # atno 17321 bound_to 7965
  140.5999  143.9628  150.6379 LP  0  0  0  0  0  0  0  0  0  0  0  0  # atno 17342 bound_to 10162
  140.2837  143.3372  152.1128 LP  0  0  0  0  0  0  0  0  0  0  0  0  # atno 17343 bound_to 10162
  157.1626  130.6232  149.5615 LP  0  0  0  0  0  0  0  0  0  0  0  0  # atno 17370 bound_to 10713
  155.9808  130.4812  150.6795 LP  0  0  0  0  0  0  0  0  0  0  0  0  # atno 17371 bound_to 10713
  140.7175  133.9169  155.8125 LP  0  0  0  0  0  0  0  0  0  0  0  0  # atno 17394 bound_to 11000
  141.0253  134.0832  157.4075 LP  0  0  0  0  0  0  0  0  0  0  0  0  # atno 17395 bound_to 11000

$$$$
