AV-unprocessed.smi:1554|AV-procd|sdf|6253|dock1
  -GOLD-   22720 6433D 1   1.00000     0.00000
 Structure written by MMmdl.
 48 50  0  0  0  0  0  0  0  0  2 V2000
  152.2285  144.1389  161.1468 C   0  0  0  0  0  0  0  0  0  0  0  0
  152.0473  143.2112  159.9573 C   0  0  0  0  0  0  0  0  0  0  0  0
  151.1779  143.6104  158.9174 C   0  0  0  0  0  0  0  0  0  0  0  0
  151.0329  142.7405  157.8430 C   0  0  0  0  0  0  0  0  0  0  0  0
  150.2579  142.8372  156.6862 N   0  3  0  0  0  0  0  0  0  0  0  0
  150.4416  141.7250  155.9224 C   0  0  0  0  0  0  0  0  0  0  0  0
  151.3391  140.9255  156.5653 N   0  0  0  0  0  0  0  0  0  0  0  0
  151.8833  139.6010  156.2172 C   0  0  0  0  0  0  0  0  0  0  0  0
  150.8110  138.5539  155.8524 C   0  0  1  0  0  0  0  0  0  0  0  0
  150.3091  138.8373  154.5607 O   0  0  0  0  0  0  0  0  0  0  0  0
  151.3958  137.1271  155.8409 C   0  0  0  0  0  0  0  0  0  0  0  0
  150.4607  136.0591  156.2005 N   0  0  0  0  0  0  0  0  0  0  0  0
  151.1211  134.7585  156.1669 C   0  0  0  0  0  0  0  0  0  0  0  0
  150.1600  133.6154  156.5328 C   0  0  0  0  0  0  0  0  0  0  0  0
  149.5965  133.8622  157.8166 O   0  0  0  0  0  0  0  0  0  0  0  0
  148.8973  135.1017  157.8873 C   0  0  1  0  0  0  0  0  0  0  0  0
  148.3260  135.2538  159.3012 C   0  0  0  0  0  0  0  0  0  0  0  0
  149.8599  136.2487  157.5200 C   0  0  0  0  0  0  0  0  0  0  0  0
  151.7198  141.5128  157.7767 C   0  0  0  0  0  0  0  0  0  0  0  0
  152.5766  141.1021  158.7950 C   0  0  0  0  0  0  0  0  0  0  0  0
  152.7363  141.9720  159.8977 C   0  0  0  0  0  0  0  0  0  0  0  0
  153.6659  141.5513  161.0232 C   0  0  0  0  0  0  0  0  0  0  0  0
  151.6444  145.0528  161.0331 H   0  0  0  0  0  0  0  0  0  0  0  0
  153.2752  144.4248  161.2541 H   0  0  0  0  0  0  0  0  0  0  0  0
  151.9060  143.6500  162.0663 H   0  0  0  0  0  0  0  0  0  0  0  0
  150.6479  144.5509  158.9572 H   0  0  0  0  0  0  0  0  0  0  0  0
  149.9652  141.5213  154.9743 H   0  0  0  0  0  0  0  0  0  0  0  0
  152.5679  139.7245  155.3766 H   0  0  0  0  0  0  0  0  0  0  0  0
  152.4729  139.2588  157.0689 H   0  0  0  0  0  0  0  0  0  0  0  0
  149.9954  138.6269  156.5705 H   0  0  0  0  0  0  0  0  0  0  0  0
  151.0427  139.0030  153.9876 H   0  0  0  0  0  0  0  0  0  0  0  0
  151.7922  136.9352  154.8423 H   0  0  0  0  0  0  0  0  0  0  0  0
  152.2562  137.0867  156.5107 H   0  0  0  0  0  0  0  0  0  0  0  0
  151.5314  134.5768  155.1728 H   0  0  0  0  0  0  0  0  0  0  0  0
  151.9654  134.7535  156.8582 H   0  0  0  0  0  0  0  0  0  0  0  0
  149.3665  133.5240  155.7894 H   0  0  0  0  0  0  0  0  0  0  0  0
  150.6917  132.6642  156.5535 H   0  0  0  0  0  0  0  0  0  0  0  0
  148.0690  135.0802  157.1768 H   0  0  0  0  0  0  0  0  0  0  0  0
  147.7663  136.1841  159.4006 H   0  0  0  0  0  0  0  0  0  0  0  0
  149.1196  135.2583  160.0492 H   0  0  0  0  0  0  0  0  0  0  0  0
  147.6494  134.4324  159.5382 H   0  0  0  0  0  0  0  0  0  0  0  0
  150.6445  136.3211  158.2750 H   0  0  0  0  0  0  0  0  0  0  0  0
  149.3059  137.1854  157.5543 H   0  0  0  0  0  0  0  0  0  0  0  0
  153.1021  140.1598  158.7488 H   0  0  0  0  0  0  0  0  0  0  0  0
  154.1047  140.5712  160.8331 H   0  0  0  0  0  0  0  0  0  0  0  0
  153.1238  141.4954  161.9675 H   0  0  0  0  0  0  0  0  0  0  0  0
  154.4820  142.2660  161.1331 H   0  0  0  0  0  0  0  0  0  0  0  0
  149.6450  143.6021  156.4352 H   0  0  0  0  0  0  0  0  0  0  0  0
  1  2  1  0  0  0  0
  1 23  1  0  0  0  0
  1 24  1  0  0  0  0
  1 25  1  0  0  0  0
  2 21  1  0  0  0  0
  2  3  2  0  0  0  0
  3  4  1  0  0  0  0
  3 26  1  0  0  0  0
  4 19  2  0  0  0  0
  4  5  1  0  0  0  0
  5  6  2  0  0  0  0
  5 48  1  0  0  0  0
  6  7  1  0  0  0  0
  6 27  1  0  0  0  0
  7  8  1  0  0  0  0
  7 19  1  0  0  0  0
  8  9  1  0  0  0  0
  8 28  1  0  0  0  0
  8 29  1  0  0  0  0
  9 10  1  0  0  0  0
  9 11  1  0  0  0  0
  9 30  1  0  0  0  0
 10 31  1  0  0  0  0
 11 12  1  0  0  0  0
 11 32  1  0  0  0  0
 11 33  1  0  0  0  0
 12 18  1  0  0  0  0
 12 13  1  0  0  0  0
 13 14  1  0  0  0  0
 13 34  1  0  0  0  0
 13 35  1  0  0  0  0
 14 15  1  0  0  0  0
 14 36  1  0  0  0  0
 14 37  1  0  0  0  0
 15 16  1  0  0  0  0
 16 17  1  0  0  0  0
 16 18  1  0  0  0  0
 16 38  1  0  0  0  0
 17 39  1  0  0  0  0
 17 40  1  0  0  0  0
 17 41  1  0  0  0  0
 18 42  1  0  0  0  0
 18 43  1  0  0  0  0
 19 20  1  0  0  0  0
 20 21  2  0  0  0  0
 20 44  1  0  0  0  0
 21 22  1  0  0  0  0
 22 45  1  0  0  0  0
 22 46  1  0  0  0  0
 22 47  1  0  0  0  0
M  CHG  1   5   1
M  END
> <s_m_source_file>
AV-unprocessed.smi

> <i_m_source_file_index>
1554

> <i_lp_mmshare_version>
43012

> <i_f3d_flags>
0

> <s_epik_input>
W0NIM11jKFtjSF0xKWMoW0NIM10pW2NIXWMoYzEyKW4oW2NIXW4yKVtDSDJdW0NASF0oW09IXSlbQ0gyXU4zW0NIMl1bQ0gyXU9bQ0BASF0oW0NIM10pW0NIMl0z

> <s_epik_cmdline>
J2VwaWtfcHl0aG9uJywgJy1waCcsICc3LjAnLCAnLXRuJywgJzgnLCAnLW1hJywgJzIwMCcsICctbWV0YWxfYmluZGluZycsICctaW1hZScsICc8aW5maWxlLm1hZT4nLCAnLW9tYWUnLCAnPG91dGZpbGUubWFlPic=

> <r_epik_Ionization_Penalty>
1.42504

> <r_epik_Ionization_Penalty_Charging>
1.21068

> <r_epik_Ionization_Penalty_Neutral>
0.214359

> <r_epik_State_Penalty>
1.46962

> <r_epik_Charging_Adjusted_Penalty>
2.6803

> <i_epik_Tot_Q>
1

> <i_epik_Tot_abs_Q>
1

> <r_epik_Metal_State_Penalty>
5.48754

> <b_epik_Metal_Only>
0

> <s_lp_Force_Field>
OPLS_2005

> <r_lp_Energy>
36.3239

> <b_lp_Chiralities_Consistent>
1

> <s_lp_Variant>
AV-unprocessed.smi:1554-14

> <Gold.Version>
5.8.1

> <Gold.Id.Protein>
6NUR|6NUR_protein|mol2

> <Gold.PLP.Fitness>
48.5663

> <Gold.PLP.PLP>
-40.5513

> <Gold.PLP.part.hbond>
-1.9824

> <Gold.PLP.part.metal>
0.0000

> <Gold.PLP.part.buried>
-6.5749

> <Gold.PLP.part.nonpolar>
-33.1348

> <Gold.PLP.part.repulsive>
0.0822

> <Gold.PLP.ligand.clash>
0.0000

> <Gold.PLP.ligand.torsion>
0.5606

> <Gold.PLP.Chemscore.Hbond>
3.0000

> <Gold.PLP.Chemscore.CHOScore>
0.0000

> <Gold.PLP.Chemscore.Metal>
0.0000

> <Gold.Chemscore.Hbonds>
donor molecule, donor type, donor heavy atom, donor atom, acceptor molecule, acceptor atom, score
      L1  H     5    48       P1  8028  2.00
      P1  H  6896  6908       L1    15  1.00

> <Gold.PLP.Chemscore.Internal.Correction>
0.1363

> <Gold.Rescore>
     Score         DG    S(hbond)    S(metal)    S(lipo)     H(rot)  DE(clash)    DE(int)     intcor
     18.61     -19.31       1.73        0.00     113.51       2.04       0.04       0.66       ----

> <Gold.Chemscore.Fitness>
18.6097

> <Gold.Chemscore.DG>
-19.3130

> <Gold.Chemscore.ZeroCoef>
-5.4800

> <Gold.Chemscore.Hbond>
1.7310

> <Gold.Chemscore.Metal>
0.0000

> <Gold.Chemscore.Lipo>
113.5128

> <Gold.Chemscore.Internal_Hbond>
0.0000

> <Gold.Chemscore.DEClash>
0.0441

> <Gold.Chemscore.DEInternal>
0.6593

> <Gold.Chemscore.Rot>
2.0427

> <Gold.Chemscore.Internal.Correction>
   9.000000E+99

> <Gold.Chemscore.Hbonds>
donor molecule, donor type, donor heavy atom, donor atom, acceptor molecule, acceptor atom, score
      L1  H     5    48       P1  8028  0.95
      P1  H  6896  6908       L1    15  0.67

> <Gold.Chemscore.Hbond.Weighted>
-5.7815

> <Gold.Chemscore.Metal.Weighted>
-0.0000

> <Gold.Chemscore.Lipo.Weighted>
-13.2810

> <Gold.Chemscore.Internal_Hbond.Weighted>
0.0000

> <Gold.Chemscore.DEClash.Weighted>
0.0441

> <Gold.Chemscore.DEInternal.Weighted>
0.6593

> <Gold.Chemscore.Rot.Weighted>
5.2294

> <Gold.Chemscore.Internal.Correction.Weighted>
   9.000000E+99

> <Gold.Protein.RotatedTorsions>
[ 6907 6896 6895 6894 ] final  113.34 input  -60.11 | X-H torsion
[ 7974 7965 7964 7962 ] final  136.17 input  175.53 | X-H torsion
[ 8008 7997 7996 7995 ] final   16.77 input   59.86 | X-H torsion
[ 10167 10162 10161 10158 ] final   81.63 input  -65.29 | X-H torsion
[ 10718 10713 10712 10709 ] final  -67.20 input   66.30 | X-H torsion
[ 10763 10752 10751 10750 ] final  -55.48 input  -60.55 | X-H torsion
[ 11005 11000 10999 10996 ] final  -46.76 input  -57.11 | X-H torsion

> <Gold.Protein.ActiveResidues>
 VAL166  LYS551  ARG553  GLY616  TRP617  ASP618  TYR619  PRO620  LYS621  CYS622 
 ASP623  PHE694  ASN695  SER759  ASP760  ASP761  ALA762  ILE779  LEU786  VAL792 
 PHE793  MET794  SER795  GLU796  ALA797  LYS798  CYS799  TRP800  GLU811  SER814 

> <Gold.Protein.RotatedAtoms>
  152.4866  133.8390  159.7142 H   0  0  0  0  0  0  0  0  0  0  0  0  # atno 6907 bound_to 6896
  150.8958  133.7173  159.2898 H   0  0  0  0  0  0  0  0  0  0  0  0  # atno 6908 bound_to 6896
  151.4631  135.1044  159.9782 H   0  0  0  0  0  0  0  0  0  0  0  0  # atno 6909 bound_to 6896
  144.9591  139.4731  143.5488 H   0  0  0  0  0  0  0  0  0  0  0  0  # atno 7974 bound_to 7965
  154.8818  140.2974  155.5421 H   0  0  0  0  0  0  0  0  0  0  0  0  # atno 8008 bound_to 7997
  156.3022  140.2441  156.3755 H   0  0  0  0  0  0  0  0  0  0  0  0  # atno 8009 bound_to 7997
  154.8709  140.0401  157.1713 H   0  0  0  0  0  0  0  0  0  0  0  0  # atno 8010 bound_to 7997
  139.9373  144.6113  150.8286 H   0  0  0  0  0  0  0  0  0  0  0  0  # atno 10167 bound_to 10162
  156.0570  130.4274  150.1820 H   0  0  0  0  0  0  0  0  0  0  0  0  # atno 10718 bound_to 10713
  154.1914  135.6426  153.5061 H   0  0  0  0  0  0  0  0  0  0  0  0  # atno 10763 bound_to 10752
  153.0034  135.5429  154.6411 H   0  0  0  0  0  0  0  0  0  0  0  0  # atno 10764 bound_to 10752
  154.5800  135.2924  155.0715 H   0  0  0  0  0  0  0  0  0  0  0  0  # atno 10765 bound_to 10752
  141.0599  133.6713  156.3200 H   0  0  0  0  0  0  0  0  0  0  0  0  # atno 11005 bound_to 11000
  146.3347  139.8728  142.8837 LP  0  0  0  0  0  0  0  0  0  0  0  0  # atno 17320 bound_to 7965
  145.2727  141.0114  143.3762 LP  0  0  0  0  0  0  0  0  0  0  0  0  # atno 17321 bound_to 7965
  140.7621  143.3190  151.2666 LP  0  0  0  0  0  0  0  0  0  0  0  0  # atno 17342 bound_to 10162
  139.6733  143.9981  152.2766 LP  0  0  0  0  0  0  0  0  0  0  0  0  # atno 17343 bound_to 10162
  156.9894  130.9889  151.3418 LP  0  0  0  0  0  0  0  0  0  0  0  0  # atno 17370 bound_to 10713
  157.5549  130.8207  149.8191 LP  0  0  0  0  0  0  0  0  0  0  0  0  # atno 17371 bound_to 10713
  140.5890  134.5669  157.5495 LP  0  0  0  0  0  0  0  0  0  0  0  0  # atno 17394 bound_to 11000
  139.9423  134.7765  156.0648 LP  0  0  0  0  0  0  0  0  0  0  0  0  # atno 17395 bound_to 11000

$$$$
