AV-unprocessed.smi:252|AV-procd|sdf|1938|dock9
  -GOLD-   2262021 63D 1   1.00000     0.00000
 Structure written by MMmdl.
 56 59  0  0  0  0  0  0  0  0  1 V2000
  147.7237  126.7461  152.0877 C   0  0  0  0  0  0  0  0  0  0  0  0
  147.8461  128.0251  152.9311 C   0  0  0  0  0  0  0  0  0  0  0  0
  146.5237  128.7791  153.1068 C   0  0  0  0  0  0  0  0  0  0  0  0
  145.5882  128.2835  153.7361 O   0  0  0  0  0  0  0  0  0  0  0  0
  146.4648  129.9917  152.5360 N   0  0  0  0  0  0  0  0  0  0  0  0
  145.3174  130.8922  152.5828 C   0  0  2  0  0  0  0  0  0  0  0  0
  144.3677  130.6319  151.3963 C   0  0  0  0  0  0  0  0  0  0  0  0
  143.2211  131.6543  151.3930 C   0  0  0  0  0  0  0  0  0  0  0  0
  143.7641  133.0922  151.4076 C   0  0  0  0  0  0  0  0  0  0  0  0
  144.6885  133.2860  152.5258 N   0  0  0  0  0  0  0  0  0  0  0  0
  144.9993  134.5595  152.8759 C   0  0  0  0  0  0  0  0  0  0  0  0
  144.2263  135.5914  152.4427 N   0  0  0  0  0  0  0  0  0  0  0  0
  144.5296  136.8488  152.7775 C   0  0  0  0  0  0  0  0  0  0  0  0
  145.5422  137.2923  153.5246 N   0  0  0  0  0  0  0  0  0  0  0  0
  146.3205  136.2629  153.9654 C   0  0  0  0  0  0  0  0  0  0  0  0
  146.1200  134.8797  153.6935 C   0  0  0  0  0  0  0  0  0  0  0  0
  147.0993  134.1262  154.3301 N   0  0  0  0  0  0  0  0  0  0  0  0
  147.8385  135.0128  154.9381 C   0  0  0  0  0  0  0  0  0  0  0  0
  147.4510  136.3221  154.7622 N   0  0  0  0  0  0  0  0  0  0  0  0
  148.0898  137.5006  155.3284 C   0  0  0  0  0  0  0  0  0  0  0  0
  148.9278  138.3288  154.3163 C   0  0  2  0  0  0  0  0  0  0  0  0
  148.1837  138.4569  153.1173 O   0  0  0  0  0  0  0  0  0  0  0  0
  150.2861  137.7179  153.9862 C   0  0  0  0  0  0  0  0  0  0  0  0
  151.1606  138.2543  155.1077 C   0  0  0  0  0  0  0  0  0  0  0  0
  150.7176  139.5942  155.2575 O   0  0  0  0  0  0  0  0  0  0  0  0
  149.3326  139.6984  154.9227 C   0  0  1  0  0  0  0  0  0  0  0  0
  149.1922  140.9145  153.9912 C   0  0  0  0  0  0  0  0  0  0  0  0
  145.8115  132.3504  152.5705 C   0  0  0  0  0  0  0  0  0  0  0  0
  148.6923  126.2554  151.9919 H   0  0  0  0  0  0  0  0  0  0  0  0
  147.3649  126.9646  151.0812 H   0  0  0  0  0  0  0  0  0  0  0  0
  147.0376  126.0312  152.5436 H   0  0  0  0  0  0  0  0  0  0  0  0
  148.2357  127.7739  153.9182 H   0  0  0  0  0  0  0  0  0  0  0  0
  148.5712  128.6958  152.4687 H   0  0  0  0  0  0  0  0  0  0  0  0
  147.2794  130.3199  152.0379 H   0  0  0  0  0  0  0  0  0  0  0  0
  144.7732  130.7294  153.5154 H   0  0  0  0  0  0  0  0  0  0  0  0
  144.9185  130.7008  150.4570 H   0  0  0  0  0  0  0  0  0  0  0  0
  143.9607  129.6215  151.4467 H   0  0  0  0  0  0  0  0  0  0  0  0
  142.5868  131.5038  150.5192 H   0  0  0  0  0  0  0  0  0  0  0  0
  142.5887  131.4946  152.2674 H   0  0  0  0  0  0  0  0  0  0  0  0
  144.2818  133.3040  150.4711 H   0  0  0  0  0  0  0  0  0  0  0  0
  142.9311  133.7925  151.4829 H   0  0  0  0  0  0  0  0  0  0  0  0
  143.8665  137.6084  152.3905 H   0  0  0  0  0  0  0  0  0  0  0  0
  148.6968  134.7349  155.5325 H   0  0  0  0  0  0  0  0  0  0  0  0
  147.3140  138.1278  155.7700 H   0  0  0  0  0  0  0  0  0  0  0  0
  148.7153  137.1724  156.1594 H   0  0  0  0  0  0  0  0  0  0  0  0
  148.1744  137.6196  152.6793 H   0  0  0  0  0  0  0  0  0  0  0  0
  150.2950  136.6313  153.9161 H   0  0  0  0  0  0  0  0  0  0  0  0
  150.6573  138.1067  153.0363 H   0  0  0  0  0  0  0  0  0  0  0  0
  150.9901  137.7057  156.0348 H   0  0  0  0  0  0  0  0  0  0  0  0
  152.2242  138.2083  154.8725 H   0  0  0  0  0  0  0  0  0  0  0  0
  148.7686  139.8934  155.8360 H   0  0  0  0  0  0  0  0  0  0  0  0
  148.1510  141.0891  153.7187 H   0  0  0  0  0  0  0  0  0  0  0  0
  149.7657  140.7810  153.0734 H   0  0  0  0  0  0  0  0  0  0  0  0
  149.5573  141.8182  154.4796 H   0  0  0  0  0  0  0  0  0  0  0  0
  146.4402  132.5260  153.4431 H   0  0  0  0  0  0  0  0  0  0  0  0
  146.4391  132.5255  151.6953 H   0  0  0  0  0  0  0  0  0  0  0  0
  1  2  1  0  0  0  0
  1 29  1  0  0  0  0
  1 30  1  0  0  0  0
  1 31  1  0  0  0  0
  2  3  1  0  0  0  0
  2 32  1  0  0  0  0
  2 33  1  0  0  0  0
  3  4  2  0  0  0  0
  3  5  1  0  0  0  0
  5  6  1  0  0  0  0
  5 34  1  0  0  0  0
  6 28  1  0  0  0  0
  6  7  1  0  0  0  0
  6 35  1  0  0  0  0
  7  8  1  0  0  0  0
  7 36  1  0  0  0  0
  7 37  1  0  0  0  0
  8  9  1  0  0  0  0
  8 38  1  0  0  0  0
  8 39  1  0  0  0  0
  9 10  1  0  0  0  0
  9 40  1  0  0  0  0
  9 41  1  0  0  0  0
 10 11  1  0  0  0  0
 10 28  1  0  0  0  0
 11 16  1  0  0  0  0
 11 12  2  0  0  0  0
 12 13  1  0  0  0  0
 13 14  2  0  0  0  0
 13 42  1  0  0  0  0
 14 15  1  0  0  0  0
 15 19  1  0  0  0  0
 15 16  2  0  0  0  0
 16 17  1  0  0  0  0
 17 18  2  0  0  0  0
 18 19  1  0  0  0  0
 18 43  1  0  0  0  0
 19 20  1  0  0  0  0
 20 21  1  0  0  0  0
 20 44  1  0  0  0  0
 20 45  1  0  0  0  0
 21 26  1  0  0  0  0
 21 22  1  0  0  0  0
 21 23  1  0  0  0  0
 22 46  1  0  0  0  0
 23 24  1  0  0  0  0
 23 47  1  0  0  0  0
 23 48  1  0  0  0  0
 24 25  1  0  0  0  0
 24 49  1  0  0  0  0
 24 50  1  0  0  0  0
 25 26  1  0  0  0  0
 26 27  1  0  0  0  0
 26 51  1  0  0  0  0
 27 52  1  0  0  0  0
 27 53  1  0  0  0  0
 27 54  1  0  0  0  0
 28 55  1  0  0  0  0
 28 56  1  0  0  0  0
M  END
> <s_m_source_file>
AV-unprocessed.smi

> <i_m_source_file_index>
252

> <i_lp_mmshare_version>
43012

> <i_f3d_flags>
0

> <s_epik_input>
W0NIM11bQ0gyXUMoPU8pW05IXVtDQEBIXTFbQ0gyXVtDSDJdW0NIMl1OKFtDSDJdMSljKG5bY0hdbjIpYyhjMjMpbltjSF1uM1tDSDJdW0NAQF00KFtPSF0pW0NIMl1bQ0gyXU9bQ0BIXTRbQ0gzXQ==

> <s_epik_cmdline>
J2VwaWtfcHl0aG9uJywgJy1waCcsICc3LjAnLCAnLXRuJywgJzgnLCAnLW1hJywgJzIwMCcsICctbWV0YWxfYmluZGluZycsICctaW1hZScsICc8aW5maWxlLm1hZT4nLCAnLW9tYWUnLCAnPG91dGZpbGUubWFlPic=

> <r_lp_tautomer_probability>
1

> <r_epik_Ionization_Penalty>
0.00182575

> <r_epik_Ionization_Penalty_Charging>
0

> <r_epik_Ionization_Penalty_Neutral>
0.00182575

> <r_epik_State_Penalty>
0.00104524

> <r_epik_Charging_Adjusted_Penalty>
0.00104524

> <i_epik_Tot_Q>
0

> <i_epik_Tot_abs_Q>
0

> <r_epik_Metal_State_Penalty>
-0

> <b_epik_Metal_Only>
0

> <s_lp_Force_Field>
OPLS_2005

> <r_lp_Energy>
36.3421

> <b_lp_Chiralities_Consistent>
1

> <s_lp_Variant>
AV-unprocessed.smi:252-3

> <Gold.Version>
5.8.1

> <Gold.Id.Protein>
6NUR|6NUR_protein|mol2

> <Gold.PLP.Fitness>
49.0673

> <Gold.PLP.PLP>
-39.7212

> <Gold.PLP.part.hbond>
-3.0000

> <Gold.PLP.part.metal>
0.0000

> <Gold.PLP.part.buried>
-1.9873

> <Gold.PLP.part.nonpolar>
-33.8655

> <Gold.PLP.part.repulsive>
0.6301

> <Gold.PLP.ligand.clash>
0.0000

> <Gold.PLP.ligand.torsion>
1.3155

> <Gold.PLP.Chemscore.Hbond>
1.9750

> <Gold.PLP.Chemscore.CHOScore>
1.8777

> <Gold.PLP.Chemscore.Metal>
0.0000

> <Gold.Chemscore.Hbonds>
donor molecule, donor type, donor heavy atom, donor atom, acceptor molecule, acceptor atom, score
      L1  H    22    46       P1  7948  1.00
      P1  H  7989  7998       L1    25  0.17
      L1  C    13    42       P1 10171  0.42
      L1  C    13    42       P1 10175  0.24

> <Gold.PLP.Chemscore.Internal.Correction>
0.4189

> <Gold.Rescore>
     Score         DG    S(hbond)    S(metal)    S(lipo)     H(rot)  DE(clash)    DE(int)     intcor
     12.57     -15.24       1.99        0.00      85.77       2.70       0.09       2.58       ----

> <Gold.Chemscore.Fitness>
12.5697

> <Gold.Chemscore.DG>
-15.2438

> <Gold.Chemscore.ZeroCoef>
-5.4800

> <Gold.Chemscore.Hbond>
1.9915

> <Gold.Chemscore.Metal>
0.0000

> <Gold.Chemscore.Lipo>
85.7669

> <Gold.Chemscore.Internal_Hbond>
0.0000

> <Gold.Chemscore.DEClash>
0.0933

> <Gold.Chemscore.DEInternal>
2.5808

> <Gold.Chemscore.Rot>
2.7041

> <Gold.Chemscore.Internal.Correction>
   9.000000E+99

> <Gold.Chemscore.Hbonds>
donor molecule, donor type, donor heavy atom, donor atom, acceptor molecule, acceptor atom, score
      L1  H     5    34       P1 10747  0.02
      L1  H    22    46       P1  7948  0.97
      P1  H  7989  7998       L1    25  0.03

> <Gold.Chemscore.Hbond.Weighted>
-6.6515

> <Gold.Chemscore.Metal.Weighted>
-0.0000

> <Gold.Chemscore.Lipo.Weighted>
-10.0347

> <Gold.Chemscore.Internal_Hbond.Weighted>
0.0000

> <Gold.Chemscore.DEClash.Weighted>
0.0933

> <Gold.Chemscore.DEInternal.Weighted>
2.5808

> <Gold.Chemscore.Rot.Weighted>
6.9225

> <Gold.Chemscore.Internal.Correction.Weighted>
   9.000000E+99

> <Gold.Protein.RotatedTorsions>
[ 6907 6896 6895 6894 ] final  117.74 input  -60.11 | X-H torsion
[ 7974 7965 7964 7962 ] final  -38.67 input  175.53 | X-H torsion
[ 8008 7997 7996 7995 ] final   23.69 input   59.86 | X-H torsion
[ 10167 10162 10161 10158 ] final   55.91 input  -65.29 | X-H torsion
[ 10718 10713 10712 10709 ] final  163.30 input   66.30 | X-H torsion
[ 10763 10752 10751 10750 ] final  -93.46 input  -60.55 | X-H torsion
[ 11005 11000 10999 10996 ] final  -55.72 input  -57.11 | X-H torsion

> <Gold.Protein.ActiveResidues>
 VAL166  LYS551  ARG553  GLY616  TRP617  ASP618  TYR619  PRO620  LYS621  CYS622 
 ASP623  PHE694  ASN695  SER759  ASP760  ASP761  ALA762  ILE779  LEU786  VAL792 
 PHE793  MET794  SER795  GLU796  ALA797  LYS798  CYS799  TRP800  GLU811  SER814 

> <Gold.Protein.RotatedAtoms>
  152.4591  133.7785  159.6837 H   0  0  0  0  0  0  0  0  0  0  0  0  # atno 6907 bound_to 6896
  150.8528  133.7751  159.3025 H   0  0  0  0  0  0  0  0  0  0  0  0  # atno 6908 bound_to 6896
  151.5341  135.1071  159.9962 H   0  0  0  0  0  0  0  0  0  0  0  0  # atno 6909 bound_to 6896
  146.0465  140.6539  142.9062 H   0  0  0  0  0  0  0  0  0  0  0  0  # atno 7974 bound_to 7965
  154.9848  140.3106  155.4931 H   0  0  0  0  0  0  0  0  0  0  0  0  # atno 8008 bound_to 7997
  156.2948  140.2260  156.4889 H   0  0  0  0  0  0  0  0  0  0  0  0  # atno 8009 bound_to 7997
  154.7756  140.0449  157.1075 H   0  0  0  0  0  0  0  0  0  0  0  0  # atno 8010 bound_to 7997
  140.2144  144.3855  150.6475 H   0  0  0  0  0  0  0  0  0  0  0  0  # atno 10167 bound_to 10162
  157.1104  131.0466  151.2459 H   0  0  0  0  0  0  0  0  0  0  0  0  # atno 10718 bound_to 10713
  154.6961  135.5193  153.8460 H   0  0  0  0  0  0  0  0  0  0  0  0  # atno 10763 bound_to 10752
  153.0668  135.6588  154.0345 H   0  0  0  0  0  0  0  0  0  0  0  0  # atno 10764 bound_to 10752
  154.0212  135.2993  155.3360 H   0  0  0  0  0  0  0  0  0  0  0  0  # atno 10765 bound_to 10752
  141.1087  133.6611  156.4512 H   0  0  0  0  0  0  0  0  0  0  0  0  # atno 11005 bound_to 11000
  144.7100  140.4004  143.7088 LP  0  0  0  0  0  0  0  0  0  0  0  0  # atno 17320 bound_to 7965
  145.6797  139.1616  143.2708 LP  0  0  0  0  0  0  0  0  0  0  0  0  # atno 17321 bound_to 7965
  140.6300  143.2186  151.6515 LP  0  0  0  0  0  0  0  0  0  0  0  0  # atno 17342 bound_to 10162
  139.5167  144.3337  152.0803 LP  0  0  0  0  0  0  0  0  0  0  0  0  # atno 17343 bound_to 10162
  157.4564  130.7628  149.7197 LP  0  0  0  0  0  0  0  0  0  0  0  0  # atno 17370 bound_to 10713
  155.9852  130.3985  150.3274 LP  0  0  0  0  0  0  0  0  0  0  0  0  # atno 17371 bound_to 10713
  140.4833  134.6644  157.5180 LP  0  0  0  0  0  0  0  0  0  0  0  0  # atno 17394 bound_to 11000
  139.9970  134.6896  155.9593 LP  0  0  0  0  0  0  0  0  0  0  0  0  # atno 17395 bound_to 11000

$$$$
