AV-unprocessed.smi:38|AV-procd|sdf|346|dock10
  -GOLD-   2262016183D 1   1.00000     0.00000
 Structure written by MMmdl.
 27 28  0  0  0  0  0  0  0  0  2 V2000
  152.1790  136.6252  159.0735 O   0  0  0  0  0  0  0  0  0  0  0  0
  151.8208  137.4480  158.2319 C   0  0  0  0  0  0  0  0  0  0  0  0
  152.6975  138.0921  157.4085 N   0  5  0  0  0  0  0  0  0  0  0  0
  152.2980  139.0070  156.4768 C   0  0  0  0  0  0  0  0  0  0  0  0
  153.0825  139.5908  155.7286 O   0  0  0  0  0  0  0  0  0  0  0  0
  150.9135  139.3098  156.3570 N   0  0  0  0  0  0  0  0  0  0  0  0
  150.4775  140.3267  155.3198 C   0  0  2  0  0  0  0  0  0  0  0  0
  149.7147  141.4886  155.9830 C   0  0  0  0  0  0  0  0  0  0  0  0
  148.4284  141.5696  155.1800 C   0  0  1  0  0  0  0  0  0  0  0  0
  148.5521  142.5094  154.1286 O   0  0  0  0  0  0  0  0  0  0  0  0
  148.2699  140.1359  154.6606 C   0  0  1  0  0  0  0  0  0  0  0  0
  147.3819  139.9375  153.4197 C   0  0  0  0  0  0  0  0  0  0  0  0
  147.7829  138.7875  152.7046 O   0  0  0  0  0  0  0  0  0  0  0  0
  149.6081  139.7284  154.4008 O   0  0  0  0  0  0  0  0  0  0  0  0
  150.0002  138.6644  157.1759 C   0  0  0  0  0  0  0  0  0  0  0  0
  150.3997  137.7605  158.0938 C   0  0  0  0  0  0  0  0  0  0  0  0
  149.4893  137.1519  158.8736 F   0  0  0  0  0  0  0  0  0  0  0  0
  151.3891  140.6305  154.8025 H   0  0  0  0  0  0  0  0  0  0  0  0
  147.5839  141.8658  155.8028 H   0  0  0  0  0  0  0  0  0  0  0  0
  147.8900  139.5137  155.4728 H   0  0  0  0  0  0  0  0  0  0  0  0
  149.4900  141.2380  157.0209 H   0  0  0  0  0  0  0  0  0  0  0  0
  150.3050  142.4057  155.9690 H   0  0  0  0  0  0  0  0  0  0  0  0
  148.6132  143.3735  154.5065 H   0  0  0  0  0  0  0  0  0  0  0  0
  146.3291  139.8542  153.6892 H   0  0  0  0  0  0  0  0  0  0  0  0
  147.4717  140.8004  152.7594 H   0  0  0  0  0  0  0  0  0  0  0  0
  148.4611  139.0349  152.0947 H   0  0  0  0  0  0  0  0  0  0  0  0
  148.9448  138.8729  157.0927 H   0  0  0  0  0  0  0  0  0  0  0  0
  1  2  2  0  0  0  0
  2 16  1  0  0  0  0
  2  3  1  0  0  0  0
  3  4  1  0  0  0  0
  4  5  2  0  0  0  0
  4  6  1  0  0  0  0
  6  7  1  0  0  0  0
  6 15  1  0  0  0  0
  7 18  1  0  0  0  0
  7 14  1  0  0  0  0
  7  8  1  0  0  0  0
  8  9  1  0  0  0  0
  8 21  1  0  0  0  0
  8 22  1  0  0  0  0
  9 19  1  0  0  0  0
  9 10  1  0  0  0  0
  9 11  1  0  0  0  0
 10 23  1  0  0  0  0
 11 20  1  0  0  0  0
 11 12  1  0  0  0  0
 11 14  1  0  0  0  0
 12 13  1  0  0  0  0
 12 24  1  0  0  0  0
 12 25  1  0  0  0  0
 13 26  1  0  0  0  0
 15 16  2  0  0  0  0
 15 27  1  0  0  0  0
 16 17  1  0  0  0  0
M  CHG  1   3  -1
M  END
> <s_m_source_file>
AV-unprocessed.smi

> <i_m_source_file_index>
38

> <i_lp_mmshare_version>
43012

> <i_f3d_flags>
0

> <s_epik_input>
Tz1jMVtuSF1jKD1PKW4oW2NIXWMxRilbQ0BIXTJbQ0gyXVtDQEhdKFtPSF0pW0NASF0oTzIpW0NIMl1bT0hd

> <s_epik_cmdline>
J2VwaWtfcHl0aG9uJywgJy1waCcsICc3LjAnLCAnLXRuJywgJzgnLCAnLW1hJywgJzIwMCcsICctbWV0YWxfYmluZGluZycsICctaW1hZScsICc8aW5maWxlLm1hZT4nLCAnLW9tYWUnLCAnPG91dGZpbGUubWFlPic=

> <r_epik_Ionization_Penalty>
1.68146

> <r_epik_Ionization_Penalty_Charging>
3.4211e-08

> <r_epik_Ionization_Penalty_Neutral>
1.68146

> <r_epik_State_Penalty>
1.78593

> <r_epik_Charging_Adjusted_Penalty>
1.78593

> <i_epik_Tot_Q>
-1

> <i_epik_Tot_abs_Q>
1

> <r_epik_Metal_State_Penalty>
0.0113696

> <b_epik_Metal_Only>
0

> <s_epik_Chemistry_Notes>
This compound contains an acetal/aminal-like group ( X-CH(R)-Y where X, Y are N, S, or O) that may be acid/base labile, releasing an aldehyde.

> <s_lp_Force_Field>
OPLS_2005

> <r_lp_Energy>
41.2481

> <b_lp_Chiralities_Consistent>
1

> <s_lp_Variant>
AV-unprocessed.smi:38-12

> <Gold.Version>
5.8.1

> <Gold.Id.Protein>
6NUR|6NUR_protein|mol2

> <Gold.PLP.Fitness>
36.5396

> <Gold.PLP.PLP>
-24.6859

> <Gold.PLP.part.hbond>
-6.0341

> <Gold.PLP.part.metal>
0.0000

> <Gold.PLP.part.buried>
-3.3713

> <Gold.PLP.part.nonpolar>
-15.7234

> <Gold.PLP.part.repulsive>
0.1275

> <Gold.PLP.ligand.clash>
0.0000

> <Gold.PLP.ligand.torsion>
0.3010

> <Gold.PLP.Chemscore.Hbond>
4.1507

> <Gold.PLP.Chemscore.CHOScore>
0.0000

> <Gold.PLP.Chemscore.Metal>
0.0000

> <Gold.Chemscore.Hbonds>
donor molecule, donor type, donor heavy atom, donor atom, acceptor molecule, acceptor atom, score
      L1  H    10    23       P1  8028  1.00
      L1  H    13    26       P1  7957  1.00
      P1  H  6896  6909       L1     1  0.90
      P1  H  7997  8010       L1     5  0.99
      P1  H  8011  8017       L1    10  0.10

> <Gold.PLP.Chemscore.Internal.Correction>
0.0037

> <Gold.Rescore>
     Score         DG    S(hbond)    S(metal)    S(lipo)     H(rot)  DE(clash)    DE(int)     intcor
     14.54     -15.01       3.97        0.00      31.25       2.88       0.12       0.35       ----

> <Gold.Chemscore.Fitness>
14.5420

> <Gold.Chemscore.DG>
-15.0103

> <Gold.Chemscore.ZeroCoef>
-5.4800

> <Gold.Chemscore.Hbond>
3.9673

> <Gold.Chemscore.Metal>
0.0000

> <Gold.Chemscore.Lipo>
31.2480

> <Gold.Chemscore.Internal_Hbond>
0.0000

> <Gold.Chemscore.DEClash>
0.1199

> <Gold.Chemscore.DEInternal>
0.3484

> <Gold.Chemscore.Rot>
2.8815

> <Gold.Chemscore.Internal.Correction>
   9.000000E+99

> <Gold.Chemscore.Hbonds>
donor molecule, donor type, donor heavy atom, donor atom, acceptor molecule, acceptor atom, score
      L1  H    10    23       P1  8028  1.00
      L1  H    13    26       P1  7957  0.99
      P1  H  6896  6909       L1     1  0.88
      P1  H  7997  8010       L1     5  0.89
      P1  H  8011  8017       L1    10  0.07

> <Gold.Chemscore.Hbond.Weighted>
-13.2508

> <Gold.Chemscore.Metal.Weighted>
-0.0000

> <Gold.Chemscore.Lipo.Weighted>
-3.6560

> <Gold.Chemscore.Internal_Hbond.Weighted>
0.0000

> <Gold.Chemscore.DEClash.Weighted>
0.1199

> <Gold.Chemscore.DEInternal.Weighted>
0.3484

> <Gold.Chemscore.Rot.Weighted>
7.3765

> <Gold.Chemscore.Internal.Correction.Weighted>
   9.000000E+99

> <Gold.Protein.RotatedTorsions>
[ 6907 6896 6895 6894 ] final  128.69 input  -60.11 | X-H torsion
[ 7974 7965 7964 7962 ] final  -57.56 input  175.53 | X-H torsion
[ 8008 7997 7996 7995 ] final  108.37 input   59.86 | X-H torsion
[ 10167 10162 10161 10158 ] final -105.31 input  -65.29 | X-H torsion
[ 10718 10713 10712 10709 ] final   15.88 input   66.30 | X-H torsion
[ 10763 10752 10751 10750 ] final -157.90 input  -60.55 | X-H torsion
[ 11005 11000 10999 10996 ] final -165.64 input  -57.11 | X-H torsion

> <Gold.Protein.ActiveResidues>
 VAL166  LYS551  ARG553  GLY616  TRP617  ASP618  TYR619  PRO620  LYS621  CYS622 
 ASP623  PHE694  ASN695  SER759  ASP760  ASP761  ALA762  ILE779  LEU786  VAL792 
 PHE793  MET794  SER795  GLU796  ALA797  LYS798  CYS799  TRP800  GLU811  SER814 

> <Gold.Protein.RotatedAtoms>
  152.3696  133.6401  159.6076 H   0  0  0  0  0  0  0  0  0  0  0  0  # atno 6907 bound_to 6896
  150.7659  133.9292  159.3430 H   0  0  0  0  0  0  0  0  0  0  0  0  # atno 6908 bound_to 6896
  151.7117  135.0912  160.0320 H   0  0  0  0  0  0  0  0  0  0  0  0  # atno 6909 bound_to 6896
  145.8497  140.8361  142.9992 H   0  0  0  0  0  0  0  0  0  0  0  0  # atno 7974 bound_to 7965
  156.1898  140.3077  155.9310 H   0  0  0  0  0  0  0  0  0  0  0  0  # atno 8008 bound_to 7997
  155.3199  140.0455  157.3056 H   0  0  0  0  0  0  0  0  0  0  0  0  # atno 8009 bound_to 7997
  154.5438  140.2270  155.8606 H   0  0  0  0  0  0  0  0  0  0  0  0  # atno 8010 bound_to 7997
  140.1999  143.3827  152.1138 H   0  0  0  0  0  0  0  0  0  0  0  0  # atno 10167 bound_to 10162
  157.0598  130.6304  149.5784 H   0  0  0  0  0  0  0  0  0  0  0  0  # atno 10718 bound_to 10713
  154.7600  135.3115  154.8397 H   0  0  0  0  0  0  0  0  0  0  0  0  # atno 10763 bound_to 10752
  153.9161  135.6800  153.4753 H   0  0  0  0  0  0  0  0  0  0  0  0  # atno 10764 bound_to 10752
  153.1199  135.4827  154.9110 H   0  0  0  0  0  0  0  0  0  0  0  0  # atno 10765 bound_to 10752
  140.5734  134.5214  157.5166 H   0  0  0  0  0  0  0  0  0  0  0  0  # atno 11005 bound_to 11000
  144.6729  140.0934  143.7464 LP  0  0  0  0  0  0  0  0  0  0  0  0  # atno 17320 bound_to 7965
  145.9372  139.2645  143.1290 LP  0  0  0  0  0  0  0  0  0  0  0  0  # atno 17321 bound_to 7965
  139.5221  144.7055  151.5367 LP  0  0  0  0  0  0  0  0  0  0  0  0  # atno 17342 bound_to 10162
  140.6398  143.8912  150.6681 LP  0  0  0  0  0  0  0  0  0  0  0  0  # atno 17343 bound_to 10162
  155.9982  130.5055  150.7561 LP  0  0  0  0  0  0  0  0  0  0  0  0  # atno 17370 bound_to 10713
  157.4963  131.0915  151.0367 LP  0  0  0  0  0  0  0  0  0  0  0  0  # atno 17371 bound_to 10713
  139.9351  134.7891  156.0825 LP  0  0  0  0  0  0  0  0  0  0  0  0  # atno 17394 bound_to 11000
  141.1042  133.6666  156.2824 LP  0  0  0  0  0  0  0  0  0  0  0  0  # atno 17395 bound_to 11000

$$$$
