AV-unprocessed.smi:37|AV-procd|sdf|333|dock8
  -GOLD-   2262016163D 1   1.00000     0.00000
 Structure written by MMmdl.
 43 44  0  0  0  0  0  0  0  0  2 V2000
  146.8657  135.0198  162.2492 C   0  0  0  0  0  0  0  0  0  0  0  0
  147.7955  134.9369  161.0288 C   0  0  0  0  0  0  0  0  0  0  0  0
  148.1239  136.2999  160.4156 C   0  0  0  0  0  0  0  0  0  0  0  0
  147.5319  137.3293  160.7440 O   0  0  0  0  0  0  0  0  0  0  0  0
  149.1072  136.2146  159.5012 O   0  0  0  0  0  0  0  0  0  0  0  0
  149.5335  137.3673  158.7870 C   0  0  0  0  0  0  0  0  0  0  0  0
  150.9299  137.1431  158.1743 C   0  0  2  0  0  0  0  0  0  0  0  0
  151.8762  137.0323  159.2397 O   0  0  0  0  0  0  0  0  0  0  0  0
  153.0139  137.7660  158.9208 C   0  0  2  0  0  0  0  0  0  0  0  0
  153.7661  138.1435  160.1761 N   0  0  0  0  0  0  0  0  0  0  0  0
  153.4082  137.6340  161.4136 C   0  0  0  0  0  0  0  0  0  0  0  0
  154.0801  137.9777  162.5310 C   0  0  0  0  0  0  0  0  0  0  0  0
  153.7061  137.4719  163.7189 F   0  0  0  0  0  0  0  0  0  0  0  0
  155.2096  138.9015  162.4407 C   0  0  0  0  0  0  0  0  0  0  0  0
  155.8204  139.2097  163.4629 O   0  0  0  0  0  0  0  0  0  0  0  0
  155.5398  139.3869  161.2086 N   0  5  0  0  0  0  0  0  0  0  0  0
  154.8607  139.0435  160.0752 C   0  0  0  0  0  0  0  0  0  0  0  0
  155.1479  139.4773  158.9591 O   0  0  0  0  0  0  0  0  0  0  0  0
  152.5009  138.9771  158.1481 C   0  0  2  0  0  0  0  0  0  0  0  0
  151.6584  140.3211  159.3673 Br  0  0  0  0  0  0  0  0  0  0  0  0
  151.4439  138.2998  157.2870 C   0  0  2  0  0  0  0  0  0  0  0  0
  150.4281  139.1954  156.8460 O   0  0  0  0  0  0  0  0  0  0  0  0
  150.6238  139.9686  155.7635 C   0  0  0  0  0  0  0  0  0  0  0  0
  151.4659  139.7754  154.8850 O   0  0  0  0  0  0  0  0  0  0  0  0
  149.6663  141.1617  155.7351 C   0  0  0  0  0  0  0  0  0  0  0  0
  148.9777  141.3658  154.3773 C   0  0  0  0  0  0  0  0  0  0  0  0
  146.6730  134.0258  162.6527 H   0  0  0  0  0  0  0  0  0  0  0  0
  145.9034  135.4622  161.9888 H   0  0  0  0  0  0  0  0  0  0  0  0
  147.3084  135.6186  163.0461 H   0  0  0  0  0  0  0  0  0  0  0  0
  148.7298  134.4529  161.3139 H   0  0  0  0  0  0  0  0  0  0  0  0
  147.3388  134.3126  160.2606 H   0  0  0  0  0  0  0  0  0  0  0  0
  148.8064  137.5199  157.9896 H   0  0  0  0  0  0  0  0  0  0  0  0
  149.5095  138.2668  159.4037 H   0  0  0  0  0  0  0  0  0  0  0  0
  150.9305  136.2232  157.5883 H   0  0  0  0  0  0  0  0  0  0  0  0
  153.6883  137.1342  158.3389 H   0  0  0  0  0  0  0  0  0  0  0  0
  152.5731  136.9570  161.5028 H   0  0  0  0  0  0  0  0  0  0  0  0
  153.2930  139.4629  157.5777 H   0  0  0  0  0  0  0  0  0  0  0  0
  151.9382  137.8454  156.4264 H   0  0  0  0  0  0  0  0  0  0  0  0
  148.9138  141.0199  156.5112 H   0  0  0  0  0  0  0  0  0  0  0  0
  150.2264  142.0590  155.9995 H   0  0  0  0  0  0  0  0  0  0  0  0
  148.3150  142.2307  154.4096 H   0  0  0  0  0  0  0  0  0  0  0  0
  148.3752  140.4994  154.1022 H   0  0  0  0  0  0  0  0  0  0  0  0
  149.7056  141.5386  153.5839 H   0  0  0  0  0  0  0  0  0  0  0  0
  1  2  1  0  0  0  0
  1 27  1  0  0  0  0
  1 28  1  0  0  0  0
  1 29  1  0  0  0  0
  2  3  1  0  0  0  0
  2 30  1  0  0  0  0
  2 31  1  0  0  0  0
  3  4  2  0  0  0  0
  3  5  1  0  0  0  0
  5  6  1  0  0  0  0
  6  7  1  0  0  0  0
  6 32  1  0  0  0  0
  6 33  1  0  0  0  0
  7 21  1  0  0  0  0
  7  8  1  0  0  0  0
  7 34  1  0  0  0  0
  8  9  1  0  0  0  0
  9 10  1  0  0  0  0
  9 19  1  0  0  0  0
  9 35  1  0  0  0  0
 10 17  1  0  0  0  0
 10 11  1  0  0  0  0
 11 12  2  0  0  0  0
 11 36  1  0  0  0  0
 12 13  1  0  0  0  0
 12 14  1  0  0  0  0
 14 15  2  0  0  0  0
 14 16  1  0  0  0  0
 16 17  1  0  0  0  0
 17 18  2  0  0  0  0
 19 20  1  0  0  0  0
 19 21  1  0  0  0  0
 19 37  1  0  0  0  0
 21 22  1  0  0  0  0
 21 38  1  0  0  0  0
 22 23  1  0  0  0  0
 23 24  2  0  0  0  0
 23 25  1  0  0  0  0
 25 26  1  0  0  0  0
 25 39  1  0  0  0  0
 25 40  1  0  0  0  0
 26 41  1  0  0  0  0
 26 42  1  0  0  0  0
 26 43  1  0  0  0  0
M  CHG  1  16  -1
M  END
> <s_m_source_file>
AV-unprocessed.smi

> <i_m_source_file_index>
37

> <i_lp_mmshare_version>
43012

> <i_f3d_flags>
0

> <s_epik_input>
W0NIM11bQ0gyXUMoPU8pT1tDSDJdW0NAQEhdMU9bQ0BASF0objJbY0hdYyhGKWMoPU8pW25IXWMyPU8pW0NAQEhdKEJyKVtDQEhdMU9DKD1PKVtDSDJdW0NIM10=

> <s_epik_cmdline>
J2VwaWtfcHl0aG9uJywgJy1waCcsICc3LjAnLCAnLXRuJywgJzgnLCAnLW1hJywgJzIwMCcsICctbWV0YWxfYmluZGluZycsICctaW1hZScsICc8aW5maWxlLm1hZT4nLCAnLW9tYWUnLCAnPG91dGZpbGUubWFlPic=

> <r_epik_Ionization_Penalty>
1.08158

> <r_epik_Ionization_Penalty_Charging>
9.05154e-09

> <r_epik_Ionization_Penalty_Neutral>
1.08158

> <r_epik_State_Penalty>
1.13706

> <r_epik_Charging_Adjusted_Penalty>
1.13706

> <i_epik_Tot_Q>
-1

> <i_epik_Tot_abs_Q>
1

> <r_epik_Metal_State_Penalty>
0.00343535

> <b_epik_Metal_Only>
0

> <s_epik_Chemistry_Notes>
This compound has an ester and may undergo hydrolysis at high or low pH. This compound contains an acetal/aminal-like group ( X-CH(R)-Y where X, Y are N, S, or O) that may be acid/base labile, releasing an aldehyde.

> <s_lp_Force_Field>
OPLS_2005

> <r_lp_Energy>
37.8596

> <b_lp_Chiralities_Consistent>
1

> <s_lp_Variant>
AV-unprocessed.smi:37-31

> <Gold.Version>
5.8.1

> <Gold.Id.Protein>
6NUR|6NUR_protein|mol2

> <Gold.PLP.Fitness>
53.0838

> <Gold.PLP.PLP>
-41.1972

> <Gold.PLP.part.hbond>
-6.0000

> <Gold.PLP.part.metal>
0.0000

> <Gold.PLP.part.buried>
-5.6255

> <Gold.PLP.part.nonpolar>
-29.9595

> <Gold.PLP.part.repulsive>
0.0457

> <Gold.PLP.ligand.clash>
0.0000

> <Gold.PLP.ligand.torsion>
0.9221

> <Gold.PLP.Chemscore.Hbond>
4.5280

> <Gold.PLP.Chemscore.CHOScore>
0.0000

> <Gold.PLP.Chemscore.Metal>
0.0000

> <Gold.Chemscore.Hbonds>
donor molecule, donor type, donor heavy atom, donor atom, acceptor molecule, acceptor atom, score
      P1  H  6896  6908       L1     8  0.61
      P1  H  6931  6943       L1     4  0.60
      P1  H  6934  6947       L1     4  0.99
      P1  H  7989  7998       L1    24  1.00
      P1  H  7997  8009       L1    18  1.00

> <Gold.PLP.Chemscore.Internal.Correction>
0.1467

> <Gold.Rescore>
     Score         DG    S(hbond)    S(metal)    S(lipo)     H(rot)  DE(clash)    DE(int)     intcor
     16.82     -19.25       4.30        0.00      66.47       3.27       0.19       2.24       ----

> <Gold.Chemscore.Fitness>
16.8241

> <Gold.Chemscore.DG>
-19.2474

> <Gold.Chemscore.ZeroCoef>
-5.4800

> <Gold.Chemscore.Hbond>
4.2974

> <Gold.Chemscore.Metal>
0.0000

> <Gold.Chemscore.Lipo>
66.4747

> <Gold.Chemscore.Internal_Hbond>
0.0000

> <Gold.Chemscore.DEClash>
0.1872

> <Gold.Chemscore.DEInternal>
2.2361

> <Gold.Chemscore.Rot>
3.2669

> <Gold.Chemscore.Internal.Correction>
   9.000000E+99

> <Gold.Chemscore.Hbonds>
donor molecule, donor type, donor heavy atom, donor atom, acceptor molecule, acceptor atom, score
      P1  H  6896  6908       L1     8  0.50
      P1  H  6931  6943       L1     4  0.15
      P1  H  6934  6947       L1     4  0.94
      P1  H  7989  7998       L1    24  0.99
      P1  H  7997  8009       L1    18  1.00

> <Gold.Chemscore.Hbond.Weighted>
-14.3532

> <Gold.Chemscore.Metal.Weighted>
-0.0000

> <Gold.Chemscore.Lipo.Weighted>
-7.7775

> <Gold.Chemscore.Internal_Hbond.Weighted>
0.0000

> <Gold.Chemscore.DEClash.Weighted>
0.1872

> <Gold.Chemscore.DEInternal.Weighted>
2.2361

> <Gold.Chemscore.Rot.Weighted>
8.3634

> <Gold.Chemscore.Internal.Correction.Weighted>
   9.000000E+99

> <Gold.Protein.RotatedTorsions>
[ 6907 6896 6895 6894 ] final  -93.44 input  -60.11 | X-H torsion
[ 7974 7965 7964 7962 ] final   11.25 input  175.53 | X-H torsion
[ 8008 7997 7996 7995 ] final  118.15 input   59.86 | X-H torsion
[ 10167 10162 10161 10158 ] final  -23.94 input  -65.29 | X-H torsion
[ 10718 10713 10712 10709 ] final -137.87 input   66.30 | X-H torsion
[ 10763 10752 10751 10750 ] final -176.43 input  -60.55 | X-H torsion
[ 11005 11000 10999 10996 ] final -170.80 input  -57.11 | X-H torsion

> <Gold.Protein.ActiveResidues>
 VAL166  LYS551  ARG553  GLY616  TRP617  ASP618  TYR619  PRO620  LYS621  CYS622 
 ASP623  PHE694  ASN695  SER759  ASP760  ASP761  ALA762  ILE779  LEU786  VAL792 
 PHE793  MET794  SER795  GLU796  ALA797  LYS798  CYS799  TRP800  GLU811  SER814 

> <Gold.Protein.RotatedAtoms>
  150.6923  134.1967  159.4305 H   0  0  0  0  0  0  0  0  0  0  0  0  # atno 6907 bound_to 6896
  151.9935  134.9964  160.0571 H   0  0  0  0  0  0  0  0  0  0  0  0  # atno 6908 bound_to 6896
  152.1645  133.4568  159.4915 H   0  0  0  0  0  0  0  0  0  0  0  0  # atno 6909 bound_to 6896
  146.2374  139.9513  142.8470 H   0  0  0  0  0  0  0  0  0  0  0  0  # atno 7974 bound_to 7965
  156.2532  140.2881  156.0790 H   0  0  0  0  0  0  0  0  0  0  0  0  # atno 8008 bound_to 7997
  155.1587  140.0399  157.2855 H   0  0  0  0  0  0  0  0  0  0  0  0  # atno 8009 bound_to 7997
  154.6408  140.2522  155.7331 H   0  0  0  0  0  0  0  0  0  0  0  0  # atno 8010 bound_to 7997
  140.7288  143.4398  151.0674 H   0  0  0  0  0  0  0  0  0  0  0  0  # atno 10167 bound_to 10162
  156.2929  130.7385  151.1416 H   0  0  0  0  0  0  0  0  0  0  0  0  # atno 10718 bound_to 10713
  154.5724  135.2829  155.0814 H   0  0  0  0  0  0  0  0  0  0  0  0  # atno 10763 bound_to 10752
  154.2181  135.6396  153.5140 H   0  0  0  0  0  0  0  0  0  0  0  0  # atno 10764 bound_to 10752
  153.0062  135.5508  154.6352 H   0  0  0  0  0  0  0  0  0  0  0  0  # atno 10765 bound_to 10752
  140.5154  134.5761  157.5032 H   0  0  0  0  0  0  0  0  0  0  0  0  # atno 11005 bound_to 11000
  145.1858  140.9789  143.4239 LP  0  0  0  0  0  0  0  0  0  0  0  0  # atno 17320 bound_to 7965
  144.9901  139.3698  143.6219 LP  0  0  0  0  0  0  0  0  0  0  0  0  # atno 17321 bound_to 7965
  139.8064  143.8012  152.3167 LP  0  0  0  0  0  0  0  0  0  0  0  0  # atno 17342 bound_to 10162
  139.8046  144.7360  150.9778 LP  0  0  0  0  0  0  0  0  0  0  0  0  # atno 17343 bound_to 10162
  157.7347  131.0579  150.5508 LP  0  0  0  0  0  0  0  0  0  0  0  0  # atno 17370 bound_to 10713
  156.5626  130.4259  149.6056 LP  0  0  0  0  0  0  0  0  0  0  0  0  # atno 17371 bound_to 10713
  139.9635  134.7412  156.0186 LP  0  0  0  0  0  0  0  0  0  0  0  0  # atno 17394 bound_to 11000
  141.1363  133.6574  156.3603 LP  0  0  0  0  0  0  0  0  0  0  0  0  # atno 17395 bound_to 11000

$$$$
