AV-unprocessed.smi:2124|AV-procd|sdf|8662|dock4
  -GOLD-   2272011413D 1   1.00000     0.00000
 Structure written by MMmdl.
 47 49  0  0  0  0  0  0  0  0  1 V2000
  145.3196  137.2127  151.9502 C   0  0  0  0  0  0  0  0  0  0  0  0
  145.8816  138.3174  152.8183 C   0  0  0  0  0  0  0  0  0  0  0  0
  146.2417  139.4526  152.1108 N   0  0  0  0  0  0  0  0  0  0  0  0
  146.7802  140.5131  152.8180 C   0  0  0  0  0  0  0  0  0  0  0  0
  147.1572  141.7123  151.9656 C   0  0  0  0  0  0  0  0  0  0  0  0
  146.9422  140.4487  154.1641 C   0  0  0  0  0  0  0  0  0  0  0  0
  147.5272  141.5926  154.9904 C   0  0  0  0  0  0  0  0  0  0  0  0
  149.0518  141.6082  155.1267 C   0  0  0  0  0  0  0  0  0  0  0  0
  149.7694  141.4256  154.1432 O   0  0  0  0  0  0  0  0  0  0  0  0
  149.5309  141.8323  156.3595 N   0  0  0  0  0  0  0  0  0  0  0  0
  150.9443  141.9193  156.7221 C   0  0  2  0  0  0  0  0  0  0  0  0
  151.6116  140.5576  156.4557 C   0  0  0  0  0  0  0  0  0  0  0  0
  151.0695  142.3722  158.1982 C   0  0  2  0  0  0  0  0  0  0  0  0
  150.3846  143.7313  158.4929 C   0  0  0  0  0  0  0  0  0  0  0  0
  151.4993  144.5545  159.1611 C   0  0  1  0  0  0  0  0  0  0  0  0
  151.8060  143.9748  160.5538 C   0  0  0  0  0  0  0  0  0  0  0  0
  152.5401  142.6632  160.2189 C   0  0  0  0  0  0  0  0  0  0  0  0
  152.5183  142.6443  158.6781 C   0  0  2  0  0  0  0  0  0  0  0  0
  152.7181  144.1225  158.3575 C   0  0  0  0  0  0  0  0  0  0  0  0
  146.5202  139.2152  154.8683 C   0  0  0  0  0  0  0  0  0  0  0  0
  146.6187  139.1073  156.0901 O   0  0  0  0  0  0  0  0  0  0  0  0
  145.9940  138.1623  154.1024 N   0  0  0  0  0  0  0  0  0  0  0  0
  146.1377  139.5424  151.1103 H   0  0  0  0  0  0  0  0  0  0  0  0
  145.0652  136.3370  152.5487 H   0  0  0  0  0  0  0  0  0  0  0  0
  146.0499  136.9108  151.1986 H   0  0  0  0  0  0  0  0  0  0  0  0
  144.4165  137.5513  151.4415 H   0  0  0  0  0  0  0  0  0  0  0  0
  148.2314  141.8911  152.0146 H   0  0  0  0  0  0  0  0  0  0  0  0
  146.6417  142.6072  152.3148 H   0  0  0  0  0  0  0  0  0  0  0  0
  146.8912  141.5617  150.9186 H   0  0  0  0  0  0  0  0  0  0  0  0
  147.1129  141.5555  155.9976 H   0  0  0  0  0  0  0  0  0  0  0  0
  147.1866  142.5477  154.5871 H   0  0  0  0  0  0  0  0  0  0  0  0
  148.8643  141.9725  157.1047 H   0  0  0  0  0  0  0  0  0  0  0  0
  151.4264  142.6677  156.0910 H   0  0  0  0  0  0  0  0  0  0  0  0
  152.6850  140.5882  156.6369 H   0  0  0  0  0  0  0  0  0  0  0  0
  151.4744  140.2501  155.4186 H   0  0  0  0  0  0  0  0  0  0  0  0
  151.1886  139.7780  157.0901 H   0  0  0  0  0  0  0  0  0  0  0  0
  150.6202  141.5988  158.8236 H   0  0  0  0  0  0  0  0  0  0  0  0
  150.0642  144.2277  157.5758 H   0  0  0  0  0  0  0  0  0  0  0  0
  149.5073  143.6234  159.1319 H   0  0  0  0  0  0  0  0  0  0  0  0
  151.3066  145.6277  159.1656 H   0  0  0  0  0  0  0  0  0  0  0  0
  152.4544  144.6435  161.1216 H   0  0  0  0  0  0  0  0  0  0  0  0
  150.9008  143.8076  161.1388 H   0  0  0  0  0  0  0  0  0  0  0  0
  153.5655  142.6950  160.5892 H   0  0  0  0  0  0  0  0  0  0  0  0
  152.0563  141.7892  160.6564 H   0  0  0  0  0  0  0  0  0  0  0  0
  153.2732  141.9827  158.2558 H   0  0  0  0  0  0  0  0  0  0  0  0
  152.6411  144.3544  157.2941 H   0  0  0  0  0  0  0  0  0  0  0  0
  153.6559  144.5263  158.7437 H   0  0  0  0  0  0  0  0  0  0  0  0
  1 24  1  0  0  0  0
  1 25  1  0  0  0  0
  1 26  1  0  0  0  0
  1  2  1  0  0  0  0
  2  3  1  0  0  0  0
  2 22  2  0  0  0  0
  3  4  1  0  0  0  0
  3 23  1  0  0  0  0
  4  6  2  0  0  0  0
  4  5  1  0  0  0  0
  5 27  1  0  0  0  0
  5 28  1  0  0  0  0
  5 29  1  0  0  0  0
  6 20  1  0  0  0  0
  6  7  1  0  0  0  0
  7  8  1  0  0  0  0
  7 30  1  0  0  0  0
  7 31  1  0  0  0  0
  8  9  2  0  0  0  0
  8 10  1  0  0  0  0
 10 11  1  0  0  0  0
 10 32  1  0  0  0  0
 11 12  1  0  0  0  0
 11 13  1  0  0  0  0
 11 33  1  0  0  0  0
 12 34  1  0  0  0  0
 12 35  1  0  0  0  0
 12 36  1  0  0  0  0
 13 18  1  0  0  0  0
 13 14  1  0  0  0  0
 13 37  1  0  0  0  0
 14 15  1  0  0  0  0
 14 38  1  0  0  0  0
 14 39  1  0  0  0  0
 15 19  1  0  0  0  0
 15 16  1  0  0  0  0
 15 40  1  0  0  0  0
 16 17  1  0  0  0  0
 16 41  1  0  0  0  0
 16 42  1  0  0  0  0
 17 18  1  0  0  0  0
 17 43  1  0  0  0  0
 17 44  1  0  0  0  0
 18 19  1  0  0  0  0
 18 45  1  0  0  0  0
 19 46  1  0  0  0  0
 19 47  1  0  0  0  0
 20 21  2  0  0  0  0
 20 22  1  0  0  0  0
M  END
> <s_m_source_file>
AV-unprocessed.smi

> <i_m_source_file_index>
2124

> <i_lp_mmshare_version>
43012

> <i_f3d_flags>
0

> <s_epik_input>
W0NIM11jMW5jKFtDSDNdKWMoYyg9TylbbkhdMSlbQ0gyXUMoPU8pW05IXVtDQEhdKFtDSDNdKVtDQEhdKFtDSDJdW0NASF0yMylbQ0BIXShbQ0gyXTMpW0NIMl1bQ0gyXTI=

> <s_epik_cmdline>
J2VwaWtfcHl0aG9uJywgJy1waCcsICc3LjAnLCAnLXRuJywgJzgnLCAnLW1hJywgJzIwMCcsICctbWV0YWxfYmluZGluZycsICctaW1hZScsICc8aW5maWxlLm1hZT4nLCAnLW9tYWUnLCAnPG91dGZpbGUubWFlPic=

> <r_lp_tautomer_probability>
0.156392

> <r_epik_Ionization_Penalty>
0.0139374

> <r_epik_Ionization_Penalty_Charging>
0.0138122

> <r_epik_Ionization_Penalty_Neutral>
0.000125146

> <r_epik_State_Penalty>
1.15342

> <r_epik_Charging_Adjusted_Penalty>
1.16723

> <i_epik_Tot_Q>
0

> <i_epik_Tot_abs_Q>
0

> <r_epik_Metal_State_Penalty>
1.3173

> <b_epik_Metal_Only>
0

> <s_lp_Force_Field>
OPLS_2005

> <r_lp_Energy>
56.0301

> <b_lp_Chiralities_Consistent>
1

> <s_lp_Variant>
AV-unprocessed.smi:2124-13

> <Gold.Version>
5.8.1

> <Gold.Id.Protein>
6NUR|6NUR_protein|mol2

> <Gold.PLP.Fitness>
38.9942

> <Gold.PLP.PLP>
-37.3942

> <Gold.PLP.part.hbond>
-3.8570

> <Gold.PLP.part.metal>
0.0000

> <Gold.PLP.part.buried>
-1.2204

> <Gold.PLP.part.nonpolar>
-31.8484

> <Gold.PLP.part.repulsive>
0.4134

> <Gold.PLP.ligand.clash>
0.0000

> <Gold.PLP.ligand.torsion>
0.5937

> <Gold.PLP.Chemscore.Hbond>
0.9223

> <Gold.PLP.Chemscore.CHOScore>
0.0000

> <Gold.PLP.Chemscore.Metal>
0.0000

> <Gold.Chemscore.Hbonds>
donor molecule, donor type, donor heavy atom, donor atom, acceptor molecule, acceptor atom, score
      P1  H  7989  7998       L1     9  0.29
      P1  H  8011  8017       L1     9  0.59

> <Gold.PLP.Chemscore.Internal.Correction>
0.0205

> <Gold.Rescore>
     Score         DG    S(hbond)    S(metal)    S(lipo)     H(rot)  DE(clash)    DE(int)     intcor
     14.55     -18.56       0.85        0.00     123.81       1.65       2.90       1.12       ----

> <Gold.Chemscore.Fitness>
14.5499

> <Gold.Chemscore.DG>
-18.5630

> <Gold.Chemscore.ZeroCoef>
-5.4800

> <Gold.Chemscore.Hbond>
0.8471

> <Gold.Chemscore.Metal>
0.0000

> <Gold.Chemscore.Lipo>
123.8142

> <Gold.Chemscore.Internal_Hbond>
0.0000

> <Gold.Chemscore.DEClash>
2.8972

> <Gold.Chemscore.DEInternal>
1.1159

> <Gold.Chemscore.Rot>
1.6534

> <Gold.Chemscore.Internal.Correction>
   9.000000E+99

> <Gold.Chemscore.Hbonds>
donor molecule, donor type, donor heavy atom, donor atom, acceptor molecule, acceptor atom, score
      P1  H  7989  7998       L1     9  0.28
      P1  H  8011  8017       L1     9  0.57

> <Gold.Chemscore.Hbond.Weighted>
-2.8293

> <Gold.Chemscore.Metal.Weighted>
-0.0000

> <Gold.Chemscore.Lipo.Weighted>
-14.4863

> <Gold.Chemscore.Internal_Hbond.Weighted>
0.0000

> <Gold.Chemscore.DEClash.Weighted>
2.8972

> <Gold.Chemscore.DEInternal.Weighted>
1.1159

> <Gold.Chemscore.Rot.Weighted>
4.2326

> <Gold.Chemscore.Internal.Correction.Weighted>
   9.000000E+99

> <Gold.Protein.RotatedTorsions>
[ 6907 6896 6895 6894 ] final  121.34 input  -60.11 | X-H torsion
[ 7974 7965 7964 7962 ] final   43.95 input  175.53 | X-H torsion
[ 8008 7997 7996 7995 ] final  120.56 input   59.86 | X-H torsion
[ 10167 10162 10161 10158 ] final  -72.92 input  -65.29 | X-H torsion
[ 10718 10713 10712 10709 ] final  116.46 input   66.30 | X-H torsion
[ 10763 10752 10751 10750 ] final   24.72 input  -60.55 | X-H torsion
[ 11005 11000 10999 10996 ] final   58.55 input  -57.11 | X-H torsion

> <Gold.Protein.ActiveResidues>
 VAL166  LYS551  ARG553  GLY616  TRP617  ASP618  TYR619  PRO620  LYS621  CYS622 
 ASP623  PHE694  ASN695  SER759  ASP760  ASP761  ALA762  ILE779  LEU786  VAL792 
 PHE793  MET794  SER795  GLU796  ALA797  LYS798  CYS799  TRP800  GLU811  SER814 

> <Gold.Protein.RotatedAtoms>
  152.4329  133.7309  159.6586 H   0  0  0  0  0  0  0  0  0  0  0  0  # atno 6907 bound_to 6896
  150.8210  133.8243  159.3145 H   0  0  0  0  0  0  0  0  0  0  0  0  # atno 6908 bound_to 6896
  151.5925  135.1055  160.0094 H   0  0  0  0  0  0  0  0  0  0  0  0  # atno 6909 bound_to 6896
  146.0611  139.5128  142.9658 H   0  0  0  0  0  0  0  0  0  0  0  0  # atno 7974 bound_to 7965
  156.2648  140.2828  156.1169 H   0  0  0  0  0  0  0  0  0  0  0  0  # atno 8008 bound_to 7997
  155.1197  140.0392  157.2764 H   0  0  0  0  0  0  0  0  0  0  0  0  # atno 8009 bound_to 7997
  154.6680  140.2581  155.7044 H   0  0  0  0  0  0  0  0  0  0  0  0  # atno 8010 bound_to 7997
  140.5152  143.2339  151.7524 H   0  0  0  0  0  0  0  0  0  0  0  0  # atno 10167 bound_to 10162
  157.6159  131.1025  150.7476 H   0  0  0  0  0  0  0  0  0  0  0  0  # atno 10718 bound_to 10713
  153.0743  135.6599  154.0179 H   0  0  0  0  0  0  0  0  0  0  0  0  # atno 10763 bound_to 10752
  153.9817  135.2954  155.3421 H   0  0  0  0  0  0  0  0  0  0  0  0  # atno 10764 bound_to 10752
  154.7127  135.5198  153.8761 H   0  0  0  0  0  0  0  0  0  0  0  0  # atno 10765 bound_to 10752
  140.0369  134.5930  155.9433 H   0  0  0  0  0  0  0  0  0  0  0  0  # atno 11005 bound_to 11000
  145.6559  141.0252  143.1735 LP  0  0  0  0  0  0  0  0  0  0  0  0  # atno 17320 bound_to 7965
  144.7175  139.8145  143.7393 LP  0  0  0  0  0  0  0  0  0  0  0  0  # atno 17321 bound_to 7965
  139.4907  144.4333  151.9847 LP  0  0  0  0  0  0  0  0  0  0  0  0  # atno 17342 bound_to 10162
  140.3427  144.3183  150.5964 LP  0  0  0  0  0  0  0  0  0  0  0  0  # atno 17343 bound_to 10162
  156.7844  130.4870  149.5395 LP  0  0  0  0  0  0  0  0  0  0  0  0  # atno 17370 bound_to 10713
  156.1280  130.6158  151.0292 LP  0  0  0  0  0  0  0  0  0  0  0  0  # atno 17371 bound_to 10713
  141.1862  133.6557  156.5229 LP  0  0  0  0  0  0  0  0  0  0  0  0  # atno 17394 bound_to 11000
  140.4133  134.7253  157.4848 LP  0  0  0  0  0  0  0  0  0  0  0  0  # atno 17395 bound_to 11000

$$$$
