AV-unprocessed.smi:157|AV-procd|sdf|1315|dock2
  -GOLD-   2262019 03D 1   1.00000     0.00000
 Structure written by MMmdl.
 36 38  0  0  0  0  0  0  0  0  2 V2000
  148.6401  138.4425  153.1345 O   0  0  0  0  0  0  0  0  0  0  0  0
  149.6950  139.3124  153.4875 C   0  0  0  0  0  0  0  0  0  0  0  0
  150.7157  138.5964  154.3948 C   0  0  1  0  0  0  0  0  0  0  0  0
  151.5003  139.6155  155.0203 O   0  0  0  0  0  0  0  0  0  0  0  0
  151.3746  139.5418  156.4069 C   0  0  1  0  0  0  0  0  0  0  0  0
  151.2938  140.9300  156.9511 N   0  0  0  0  0  0  0  0  0  0  0  0
  150.5940  141.9532  156.4177 C   0  0  0  0  0  0  0  0  0  0  0  0
  150.6822  143.0855  157.0948 N   0  3  0  0  0  0  0  0  0  0  0  0
  151.4980  142.8308  158.1769 C   0  0  0  0  0  0  0  0  0  0  0  0
  151.8750  141.4897  158.0656 C   0  0  0  0  0  0  0  0  0  0  0  0
  152.6985  140.7162  158.8982 N   0  0  0  0  0  0  0  0  0  0  0  0
  153.4957  141.2332  159.7760 C   0  0  0  0  0  0  0  0  0  0  0  0
  153.6455  142.5595  160.1459 N   0  0  0  0  0  0  0  0  0  0  0  0
  152.5210  143.4343  160.4269 C   0  0  0  0  0  0  0  0  0  0  0  0
  151.7843  143.9142  159.1692 C   0  0  1  0  0  0  0  0  0  0  0  0
  152.5073  144.9887  158.6051 O   0  0  0  0  0  0  0  0  0  0  0  0
  150.0876  138.7792  156.6868 C   0  0  0  0  0  0  0  0  0  0  0  0
  150.1260  137.7732  155.5586 C   0  0  1  0  0  0  0  0  0  0  0  0
  148.8460  137.2253  155.3169 O   0  0  0  0  0  0  0  0  0  0  0  0
  151.3755  137.9766  153.7860 H   0  0  0  0  0  0  0  0  0  0  0  0
  152.2619  139.0852  156.8468 H   0  0  0  0  0  0  0  0  0  0  0  0
  150.8279  144.3309  159.4873 H   0  0  0  0  0  0  0  0  0  0  0  0
  150.8139  136.9667  155.8174 H   0  0  0  0  0  0  0  0  0  0  0  0
  148.9938  137.7332  152.6196 H   0  0  0  0  0  0  0  0  0  0  0  0
  150.1793  139.6265  152.5623 H   0  0  0  0  0  0  0  0  0  0  0  0
  149.2999  140.2114  153.9613 H   0  0  0  0  0  0  0  0  0  0  0  0
  150.0131  141.8489  155.5187 H   0  0  0  0  0  0  0  0  0  0  0  0
  154.1604  140.5749  160.3374 H   0  0  0  0  0  0  0  0  0  0  0  0
  154.4611  142.8234  160.6804 H   0  0  0  0  0  0  0  0  0  0  0  0
  151.8234  142.8768  161.0539 H   0  0  0  0  0  0  0  0  0  0  0  0
  152.8556  144.2813  161.0268 H   0  0  0  0  0  0  0  0  0  0  0  0
  153.2589  144.6441  158.1478 H   0  0  0  0  0  0  0  0  0  0  0  0
  150.0948  138.3351  157.6826 H   0  0  0  0  0  0  0  0  0  0  0  0
  149.2296  139.4471  156.5910 H   0  0  0  0  0  0  0  0  0  0  0  0
  148.8072  136.9385  154.4168 H   0  0  0  0  0  0  0  0  0  0  0  0
  150.2305  143.9611  156.8635 H   0  0  0  0  0  0  0  0  0  0  0  0
  1  2  1  0  0  0  0
  1 24  1  0  0  0  0
  2  3  1  0  0  0  0
  2 25  1  0  0  0  0
  2 26  1  0  0  0  0
  3 20  1  0  0  0  0
  3 18  1  0  0  0  0
  3  4  1  0  0  0  0
  4  5  1  0  0  0  0
  5 21  1  0  0  0  0
  5  6  1  0  0  0  0
  5 17  1  0  0  0  0
  6 10  1  0  0  0  0
  6  7  1  0  0  0  0
  7  8  2  0  0  0  0
  7 27  1  0  0  0  0
  8  9  1  0  0  0  0
  8 36  1  0  0  0  0
  9 15  1  0  0  0  0
  9 10  2  0  0  0  0
 10 11  1  0  0  0  0
 11 12  2  0  0  0  0
 12 13  1  0  0  0  0
 12 28  1  0  0  0  0
 13 14  1  0  0  0  0
 13 29  1  0  0  0  0
 14 15  1  0  0  0  0
 14 30  1  0  0  0  0
 14 31  1  0  0  0  0
 15 22  1  0  0  0  0
 15 16  1  0  0  0  0
 16 32  1  0  0  0  0
 17 18  1  0  0  0  0
 17 33  1  0  0  0  0
 17 34  1  0  0  0  0
 18 23  1  0  0  0  0
 18 19  1  0  0  0  0
 19 35  1  0  0  0  0
M  CHG  1   8   1
M  END
> <s_m_source_file>
AV-unprocessed.smi

> <i_m_source_file_index>
157

> <i_lp_mmshare_version>
43012

> <i_f3d_flags>
0

> <s_epik_input>
W09IXVtDSDJdW0NASF0xT1tDQEhdKFtDSDJdW0NAQEhdMVtPSF0pbihbY0hdbjIpYyhjMjMpTj1bQ0hdW05IXVtDSDJdW0NASF0zW09IXQ==

> <s_epik_cmdline>
J2VwaWtfcHl0aG9uJywgJy1waCcsICc3LjAnLCAnLXRuJywgJzgnLCAnLW1hJywgJzIwMCcsICctbWV0YWxfYmluZGluZycsICctaW1hZScsICc8aW5maWxlLm1hZT4nLCAnLW9tYWUnLCAnPG91dGZpbGUubWFlPic=

> <r_epik_Ionization_Penalty>
1.68594

> <r_epik_Ionization_Penalty_Charging>
0

> <r_epik_Ionization_Penalty_Neutral>
1.68594

> <r_epik_State_Penalty>
1.79006

> <r_epik_Charging_Adjusted_Penalty>
1.79006

> <i_epik_Tot_Q>
1

> <i_epik_Tot_abs_Q>
1

> <r_epik_Metal_State_Penalty>
5.85324

> <b_epik_Metal_Only>
0

> <s_epik_Chemistry_Notes>
This compound has an imine and may undergo hydrolysis. This compound contains an acetal/aminal-like group ( X-CH(R)-Y where X, Y are N, S, or O) that may be acid/base labile, releasing an aldehyde.

> <s_lp_Force_Field>
OPLS_2005

> <r_lp_Energy>
55.0394

> <b_lp_Chiralities_Consistent>
1

> <s_lp_Variant>
AV-unprocessed.smi:157-25

> <Gold.Version>
5.8.1

> <Gold.Id.Protein>
6NUR|6NUR_protein|mol2

> <Gold.PLP.Fitness>
42.5196

> <Gold.PLP.PLP>
-32.3552

> <Gold.PLP.part.hbond>
-4.0000

> <Gold.PLP.part.metal>
0.0000

> <Gold.PLP.part.buried>
-2.3789

> <Gold.PLP.part.nonpolar>
-25.8152

> <Gold.PLP.part.repulsive>
0.0749

> <Gold.PLP.ligand.clash>
0.0000

> <Gold.PLP.ligand.torsion>
0.5650

> <Gold.PLP.Chemscore.Hbond>
3.7600

> <Gold.PLP.Chemscore.CHOScore>
0.0000

> <Gold.PLP.Chemscore.Metal>
0.0000

> <Gold.Chemscore.Hbonds>
donor molecule, donor type, donor heavy atom, donor atom, acceptor molecule, acceptor atom, score
      L1  H     1    24       P1  7948  1.00
      L1  H     8    36       P1  8028  1.73
      P1  H  7989  7998       L1     4  0.95

> <Gold.PLP.Chemscore.Internal.Correction>
0.0143

> <Gold.Rescore>
     Score         DG    S(hbond)    S(metal)    S(lipo)     H(rot)  DE(clash)    DE(int)     intcor
     11.24     -13.91       3.35        0.00      56.72       3.67       2.03       0.64       ----

> <Gold.Chemscore.Fitness>
11.2428

> <Gold.Chemscore.DG>
-13.9118

> <Gold.Chemscore.ZeroCoef>
-5.4800

> <Gold.Chemscore.Hbond>
3.3473

> <Gold.Chemscore.Metal>
0.0000

> <Gold.Chemscore.Lipo>
56.7229

> <Gold.Chemscore.Internal_Hbond>
0.0000

> <Gold.Chemscore.DEClash>
2.0337

> <Gold.Chemscore.DEInternal>
0.6353

> <Gold.Chemscore.Rot>
3.6659

> <Gold.Chemscore.Internal.Correction>
   9.000000E+99

> <Gold.Chemscore.Hbonds>
donor molecule, donor type, donor heavy atom, donor atom, acceptor molecule, acceptor atom, score
      L1  H     1    24       P1  7948  0.98
      L1  H     8    36       P1  8028  0.83
      P1  H  7989  7998       L1     4  0.21

> <Gold.Chemscore.Hbond.Weighted>
-11.1801

> <Gold.Chemscore.Metal.Weighted>
-0.0000

> <Gold.Chemscore.Lipo.Weighted>
-6.6366

> <Gold.Chemscore.Internal_Hbond.Weighted>
0.0000

> <Gold.Chemscore.DEClash.Weighted>
2.0337

> <Gold.Chemscore.DEInternal.Weighted>
0.6353

> <Gold.Chemscore.Rot.Weighted>
9.3848

> <Gold.Chemscore.Internal.Correction.Weighted>
   9.000000E+99

> <Gold.Protein.RotatedTorsions>
[ 6907 6896 6895 6894 ] final  -80.59 input  -60.11 | X-H torsion
[ 7974 7965 7964 7962 ] final   29.89 input  175.53 | X-H torsion
[ 8008 7997 7996 7995 ] final  143.35 input   59.86 | X-H torsion
[ 10167 10162 10161 10158 ] final -121.74 input  -65.29 | X-H torsion
[ 10718 10713 10712 10709 ] final -132.17 input   66.30 | X-H torsion
[ 10763 10752 10751 10750 ] final  -94.24 input  -60.55 | X-H torsion
[ 11005 11000 10999 10996 ] final -124.17 input  -57.11 | X-H torsion

> <Gold.Protein.ActiveResidues>
 VAL166  LYS551  ARG553  GLY616  TRP617  ASP618  TYR619  PRO620  LYS621  CYS622 
 ASP623  PHE694  ASN695  SER759  ASP760  ASP761  ALA762  ILE779  LEU786  VAL792 
 PHE793  MET794  SER795  GLU796  ALA797  LYS798  CYS799  TRP800  GLU811  SER814 

> <Gold.Protein.RotatedAtoms>
  150.6927  134.3946  159.5091 H   0  0  0  0  0  0  0  0  0  0  0  0  # atno 6907 bound_to 6896
  152.1729  134.8816  160.0542 H   0  0  0  0  0  0  0  0  0  0  0  0  # atno 6908 bound_to 6896
  151.9836  133.3731  159.4154 H   0  0  0  0  0  0  0  0  0  0  0  0  # atno 6909 bound_to 6896
  146.1645  139.6862  142.9011 H   0  0  0  0  0  0  0  0  0  0  0  0  # atno 7974 bound_to 7965
  156.2932  140.2264  156.4876 H   0  0  0  0  0  0  0  0  0  0  0  0  # atno 8008 bound_to 7997
  154.7798  140.0461  157.1139 H   0  0  0  0  0  0  0  0  0  0  0  0  # atno 8009 bound_to 7997
  154.9772  140.3074  155.4965 H   0  0  0  0  0  0  0  0  0  0  0  0  # atno 8010 bound_to 7997
  140.0218  143.5336  152.2217 H   0  0  0  0  0  0  0  0  0  0  0  0  # atno 10167 bound_to 10162
  156.2318  130.7042  151.0866 H   0  0  0  0  0  0  0  0  0  0  0  0  # atno 10718 bound_to 10713
  154.7036  135.5165  153.8562 H   0  0  0  0  0  0  0  0  0  0  0  0  # atno 10763 bound_to 10752
  153.0723  135.6605  154.0230 H   0  0  0  0  0  0  0  0  0  0  0  0  # atno 10764 bound_to 10752
  154.0084  135.3004  155.3374 H   0  0  0  0  0  0  0  0  0  0  0  0  # atno 10765 bound_to 10752
  140.9862  134.0603  157.3708 H   0  0  0  0  0  0  0  0  0  0  0  0  # atno 11005 bound_to 11000
  145.4504  141.0428  143.2808 LP  0  0  0  0  0  0  0  0  0  0  0  0  # atno 17320 bound_to 7965
  144.8073  139.6028  143.7045 LP  0  0  0  0  0  0  0  0  0  0  0  0  # atno 17321 bound_to 7965
  139.6134  144.7614  151.2900 LP  0  0  0  0  0  0  0  0  0  0  0  0  # atno 17342 bound_to 10162
  140.7339  143.6781  150.8024 LP  0  0  0  0  0  0  0  0  0  0  0  0  # atno 17343 bound_to 10162
  157.7136  131.0721  150.6409 LP  0  0  0  0  0  0  0  0  0  0  0  0  # atno 17370 bound_to 10713
  156.6477  130.4476  149.5730 LP  0  0  0  0  0  0  0  0  0  0  0  0  # atno 17371 bound_to 10713
  139.8971  135.0149  156.7087 LP  0  0  0  0  0  0  0  0  0  0  0  0  # atno 17394 bound_to 11000
  140.7111  133.9223  155.8085 LP  0  0  0  0  0  0  0  0  0  0  0  0  # atno 17395 bound_to 11000

$$$$
