AV-unprocessed.smi:1826|AV-procd|sdf|7415|dock3
  -GOLD-   22720 9 93D 1   1.00000     0.00000
 Structure written by MMmdl.
 39 41  0  0  0  0  0  0  0  0  1 V2000
  153.9238  135.4242  157.3862 O   0  0  0  0  0  0  0  0  0  0  0  0
  154.5134  136.4153  158.2000 C   0  0  0  0  0  0  0  0  0  0  0  0
  154.5455  136.0282  159.6474 C   0  0  0  0  0  0  0  0  0  0  0  0
  155.1110  134.8900  160.0512 N   0  0  0  0  0  0  0  0  0  0  0  0
  154.8739  134.8969  161.4109 C   0  0  0  0  0  0  0  0  0  0  0  0
  155.2213  133.9566  162.4072 C   0  0  0  0  0  0  0  0  0  0  0  0
  154.8570  134.1734  163.7522 C   0  0  0  0  0  0  0  0  0  0  0  0
  154.1370  135.3286  164.1184 C   0  0  0  0  0  0  0  0  0  0  0  0
  153.7802  136.2766  163.1409 C   0  0  0  0  0  0  0  0  0  0  0  0
  154.1561  136.0627  161.8006 C   0  0  0  0  0  0  0  0  0  0  0  0
  153.9858  136.7892  160.6238 N   0  0  0  0  0  0  0  0  0  0  0  0
  153.3149  138.0805  160.4975 C   0  0  0  0  0  0  0  0  0  0  0  0
  154.2751  139.2796  160.3047 C   0  0  2  0  0  0  0  0  0  0  0  0
  155.1737  139.3787  161.3921 O   0  0  0  0  0  0  0  0  0  0  0  0
  153.5439  140.5865  160.0213 C   0  0  0  0  0  0  0  0  0  0  0  0
  152.6224  140.6942  158.9554 C   0  0  0  0  0  0  0  0  0  0  0  0
  151.9789  141.9183  158.6912 C   0  0  0  0  0  0  0  0  0  0  0  0
  152.2481  143.0523  159.4876 C   0  0  0  0  0  0  0  0  0  0  0  0
  151.5581  144.3797  159.2101 C   0  0  0  0  0  0  0  0  0  0  0  0
  150.9885  144.8214  160.3308 F   0  0  0  0  0  0  0  0  0  0  0  0
  152.4430  145.2854  158.7920 F   0  0  0  0  0  0  0  0  0  0  0  0
  150.6180  144.2522  158.2729 F   0  0  0  0  0  0  0  0  0  0  0  0
  153.1588  142.9408  160.5597 C   0  0  0  0  0  0  0  0  0  0  0  0
  153.8030  141.7170  160.8241 C   0  0  0  0  0  0  0  0  0  0  0  0
  153.3413  134.9058  157.9197 H   0  0  0  0  0  0  0  0  0  0  0  0
  155.5322  136.5889  157.8520 H   0  0  0  0  0  0  0  0  0  0  0  0
  153.9777  137.3532  158.0686 H   0  0  0  0  0  0  0  0  0  0  0  0
  155.7678  133.0659  162.1356 H   0  0  0  0  0  0  0  0  0  0  0  0
  155.1288  133.4486  164.5058 H   0  0  0  0  0  0  0  0  0  0  0  0
  153.8594  135.4875  165.1503 H   0  0  0  0  0  0  0  0  0  0  0  0
  153.2297  137.1619  163.4209 H   0  0  0  0  0  0  0  0  0  0  0  0
  152.6127  138.0322  159.6653 H   0  0  0  0  0  0  0  0  0  0  0  0
  152.7028  138.2358  161.3865 H   0  0  0  0  0  0  0  0  0  0  0  0
  154.8938  139.0672  159.4319 H   0  0  0  0  0  0  0  0  0  0  0  0
  155.6413  140.1967  161.3193 H   0  0  0  0  0  0  0  0  0  0  0  0
  152.4154  139.8438  158.3222 H   0  0  0  0  0  0  0  0  0  0  0  0
  151.2808  141.9806  157.8696 H   0  0  0  0  0  0  0  0  0  0  0  0
  153.3691  143.7976  161.1830 H   0  0  0  0  0  0  0  0  0  0  0  0
  154.5058  141.6516  161.6417 H   0  0  0  0  0  0  0  0  0  0  0  0
  1  2  1  0  0  0  0
  1 25  1  0  0  0  0
  2  3  1  0  0  0  0
  2 26  1  0  0  0  0
  2 27  1  0  0  0  0
  3 11  1  0  0  0  0
  3  4  2  0  0  0  0
  4  5  1  0  0  0  0
  5 10  2  0  0  0  0
  5  6  1  0  0  0  0
  6  7  2  0  0  0  0
  6 28  1  0  0  0  0
  7  8  1  0  0  0  0
  7 29  1  0  0  0  0
  8  9  2  0  0  0  0
  8 30  1  0  0  0  0
  9 10  1  0  0  0  0
  9 31  1  0  0  0  0
 10 11  1  0  0  0  0
 11 12  1  0  0  0  0
 12 13  1  0  0  0  0
 12 32  1  0  0  0  0
 12 33  1  0  0  0  0
 13 14  1  0  0  0  0
 13 15  1  0  0  0  0
 13 34  1  0  0  0  0
 14 35  1  0  0  0  0
 15 24  1  0  0  0  0
 15 16  2  0  0  0  0
 16 17  1  0  0  0  0
 16 36  1  0  0  0  0
 17 18  2  0  0  0  0
 17 37  1  0  0  0  0
 18 19  1  0  0  0  0
 18 23  1  0  0  0  0
 19 20  1  0  0  0  0
 19 21  1  0  0  0  0
 19 22  1  0  0  0  0
 23 24  2  0  0  0  0
 23 38  1  0  0  0  0
 24 39  1  0  0  0  0
M  END
> <s_m_source_file>
AV-unprocessed.smi

> <i_m_source_file_index>
1826

> <i_lp_mmshare_version>
43012

> <i_f3d_flags>
0

> <s_epik_input>
W2NIXTFbY0hdW2NIXVtjSF1jKGMxMiluKGMobjIpW0NIMl1bT0hdKVtDSDJdW0NASF0oW09IXSljM1tjSF1bY0hdYyhDKEYpKEYpRilbY0hdW2NIXTM=

> <s_epik_cmdline>
J2VwaWtfcHl0aG9uJywgJy1waCcsICc3LjAnLCAnLXRuJywgJzgnLCAnLW1hJywgJzIwMCcsICctbWV0YWxfYmluZGluZycsICctaW1hZScsICc8aW5maWxlLm1hZT4nLCAnLW9tYWUnLCAnPG91dGZpbGUubWFlPic=

> <r_epik_Ionization_Penalty>
0.0634718

> <r_epik_Ionization_Penalty_Charging>
0

> <r_epik_Ionization_Penalty_Neutral>
0.0634718

> <r_epik_State_Penalty>
0.0551572

> <r_epik_Charging_Adjusted_Penalty>
0.0551572

> <i_epik_Tot_Q>
0

> <i_epik_Tot_abs_Q>
0

> <r_epik_Metal_State_Penalty>
5.78034e-05

> <b_epik_Metal_Only>
0

> <s_lp_Force_Field>
OPLS_2005

> <r_lp_Energy>
13.2523

> <b_lp_Chiralities_Consistent>
1

> <s_lp_Variant>
AV-unprocessed.smi:1826-1

> <Gold.Version>
5.8.1

> <Gold.Id.Protein>
6NUR|6NUR_protein|mol2

> <Gold.PLP.Fitness>
51.1788

> <Gold.PLP.PLP>
-48.7723

> <Gold.PLP.part.hbond>
-0.9641

> <Gold.PLP.part.metal>
0.0000

> <Gold.PLP.part.buried>
-5.2608

> <Gold.PLP.part.nonpolar>
-43.1637

> <Gold.PLP.part.repulsive>
0.0000

> <Gold.PLP.ligand.clash>
0.5873

> <Gold.PLP.ligand.torsion>
0.4152

> <Gold.PLP.Chemscore.Hbond>
0.9913

> <Gold.PLP.Chemscore.CHOScore>
0.0000

> <Gold.PLP.Chemscore.Metal>
0.0000

> <Gold.Chemscore.Hbonds>
donor molecule, donor type, donor heavy atom, donor atom, acceptor molecule, acceptor atom, score
      P1  H 10752 10764       L1     1  1.00

> <Gold.PLP.Chemscore.Internal.Correction>
0.8506

> <Gold.Rescore>
     Score         DG    S(hbond)    S(metal)    S(lipo)     H(rot)  DE(clash)    DE(int)     intcor
     15.14     -15.36       0.98        0.00     120.07       2.91       0.01       0.20       ----

> <Gold.Chemscore.Fitness>
15.1437

> <Gold.Chemscore.DG>
-15.3570

> <Gold.Chemscore.ZeroCoef>
-5.4800

> <Gold.Chemscore.Hbond>
0.9845

> <Gold.Chemscore.Metal>
0.0000

> <Gold.Chemscore.Lipo>
120.0742

> <Gold.Chemscore.Internal_Hbond>
0.0000

> <Gold.Chemscore.DEClash>
0.0109

> <Gold.Chemscore.DEInternal>
0.2025

> <Gold.Chemscore.Rot>
2.9141

> <Gold.Chemscore.Internal.Correction>
   9.000000E+99

> <Gold.Chemscore.Hbonds>
donor molecule, donor type, donor heavy atom, donor atom, acceptor molecule, acceptor atom, score
      P1  H 10752 10764       L1     1  0.96

> <Gold.Chemscore.Hbond.Weighted>
-3.2884

> <Gold.Chemscore.Metal.Weighted>
-0.0000

> <Gold.Chemscore.Lipo.Weighted>
-14.0487

> <Gold.Chemscore.Internal_Hbond.Weighted>
0.0000

> <Gold.Chemscore.DEClash.Weighted>
0.0109

> <Gold.Chemscore.DEInternal.Weighted>
0.2025

> <Gold.Chemscore.Rot.Weighted>
7.4600

> <Gold.Chemscore.Internal.Correction.Weighted>
   9.000000E+99

> <Gold.Protein.RotatedTorsions>
[ 6907 6896 6895 6894 ] final  -68.16 input  -60.11 | X-H torsion
[ 7974 7965 7964 7962 ] final   81.94 input  175.53 | X-H torsion
[ 8008 7997 7996 7995 ] final   89.11 input   59.86 | X-H torsion
[ 10167 10162 10161 10158 ] final  152.55 input  -65.29 | X-H torsion
[ 10718 10713 10712 10709 ] final  -86.00 input   66.30 | X-H torsion
[ 10763 10752 10751 10750 ] final   17.35 input  -60.55 | X-H torsion
[ 11005 11000 10999 10996 ] final   17.38 input  -57.11 | X-H torsion

> <Gold.Protein.ActiveResidues>
 VAL166  LYS551  ARG553  GLY616  TRP617  ASP618  TYR619  PRO620  LYS621  CYS622 
 ASP623  PHE694  ASN695  SER759  ASP760  ASP761  ALA762  ILE779  LEU786  VAL792 
 PHE793  MET794  SER795  GLU796  ALA797  LYS798  CYS799  TRP800  GLU811  SER814 

> <Gold.Protein.RotatedAtoms>
  150.7371  134.5778  159.5923 H   0  0  0  0  0  0  0  0  0  0  0  0  # atno 6907 bound_to 6896
  152.3200  134.7389  160.0325 H   0  0  0  0  0  0  0  0  0  0  0  0  # atno 6908 bound_to 6896
  151.7908  133.3323  159.3535 H   0  0  0  0  0  0  0  0  0  0  0  0  # atno 6909 bound_to 6896
  145.6316  139.2406  143.2081 H   0  0  0  0  0  0  0  0  0  0  0  0  # atno 7974 bound_to 7965
  155.9959  140.3364  155.6798 H   0  0  0  0  0  0  0  0  0  0  0  0  # atno 8008 bound_to 7997
  155.6356  140.0690  157.2653 H   0  0  0  0  0  0  0  0  0  0  0  0  # atno 8009 bound_to 7997
  154.4234  140.1752  156.1506 H   0  0  0  0  0  0  0  0  0  0  0  0  # atno 8010 bound_to 7997
  139.4832  144.5349  151.7662 H   0  0  0  0  0  0  0  0  0  0  0  0  # atno 10167 bound_to 10162
  155.9992  130.4750  150.4648 H   0  0  0  0  0  0  0  0  0  0  0  0  # atno 10718 bound_to 10713
  153.1347  135.6747  153.9121 H   0  0  0  0  0  0  0  0  0  0  0  0  # atno 10763 bound_to 10752
  153.8597  135.3083  155.3438 H   0  0  0  0  0  0  0  0  0  0  0  0  # atno 10764 bound_to 10752
  154.7737  135.4925  153.9784 H   0  0  0  0  0  0  0  0  0  0  0  0  # atno 10765 bound_to 10752
  140.4366  134.1365  155.7686 H   0  0  0  0  0  0  0  0  0  0  0  0  # atno 11005 bound_to 11000
  146.1352  140.7132  142.9393 LP  0  0  0  0  0  0  0  0  0  0  0  0  # atno 17320 bound_to 7965
  144.7191  140.4313  143.7021 LP  0  0  0  0  0  0  0  0  0  0  0  0  # atno 17321 bound_to 7965
  140.4880  144.1353  150.5944 LP  0  0  0  0  0  0  0  0  0  0  0  0  # atno 17342 bound_to 10162
  140.4203  143.2614  151.9723 LP  0  0  0  0  0  0  0  0  0  0  0  0  # atno 17343 bound_to 10162
  157.2669  131.0579  151.2285 LP  0  0  0  0  0  0  0  0  0  0  0  0  # atno 17370 bound_to 10713
  157.3379  130.7018  149.6364 LP  0  0  0  0  0  0  0  0  0  0  0  0  # atno 17371 bound_to 10713
  141.1723  133.8583  157.1531 LP  0  0  0  0  0  0  0  0  0  0  0  0  # atno 17394 bound_to 11000
  140.0098  134.9993  157.0371 LP  0  0  0  0  0  0  0  0  0  0  0  0  # atno 17395 bound_to 11000

$$$$
