AV-unprocessed.smi:157|AV-procd|sdf|1301|dock5
  -GOLD-   2262018593D 1   1.00000     0.00000
 Structure written by MMmdl.
 35 37  0  0  0  0  0  0  0  0  1 V2000
  151.9361  136.8911  153.7462 O   0  0  0  0  0  0  0  0  0  0  0  0
  151.0690  136.9826  154.8564 C   0  0  0  0  0  0  0  0  0  0  0  0
  151.5420  138.0915  155.8116 C   0  0  1  0  0  0  0  0  0  0  0  0
  150.6671  138.2184  156.9253 O   0  0  0  0  0  0  0  0  0  0  0  0
  151.3162  138.9035  157.9561 C   0  0  2  0  0  0  0  0  0  0  0  0
  150.8719  140.3384  157.9462 N   0  0  0  0  0  0  0  0  0  0  0  0
  149.8841  140.8777  157.2171 C   0  0  0  0  0  0  0  0  0  0  0  0
  149.7011  142.1728  157.4099 N   0  0  0  0  0  0  0  0  0  0  0  0
  150.6616  142.5100  158.3610 C   0  0  0  0  0  0  0  0  0  0  0  0
  151.3953  141.3858  158.7105 C   0  0  0  0  0  0  0  0  0  0  0  0
  152.4317  141.1043  159.5804 N   0  0  0  0  0  0  0  0  0  0  0  0
  153.1523  142.0931  160.0070 C   0  0  0  0  0  0  0  0  0  0  0  0
  153.0057  143.4584  159.8083 N   0  0  0  0  0  0  0  0  0  0  0  0
  151.7468  144.1595  159.9952 C   0  0  0  0  0  0  0  0  0  0  0  0
  150.7393  143.9227  158.8632 C   0  0  1  0  0  0  0  0  0  0  0  0
  151.0804  144.7346  157.7582 O   0  0  0  0  0  0  0  0  0  0  0  0
  152.8282  138.8180  157.6809 C   0  0  0  0  0  0  0  0  0  0  0  0
  152.9152  137.9060  156.4687 C   0  0  1  0  0  0  0  0  0  0  0  0
  153.1394  136.5670  156.8673 O   0  0  0  0  0  0  0  0  0  0  0  0
  151.5359  139.0447  155.2797 H   0  0  0  0  0  0  0  0  0  0  0  0
  151.0127  138.5209  158.9311 H   0  0  0  0  0  0  0  0  0  0  0  0
  149.7558  144.2491  159.2027 H   0  0  0  0  0  0  0  0  0  0  0  0
  153.7230  138.2024  155.7989 H   0  0  0  0  0  0  0  0  0  0  0  0
  151.4547  136.5264  153.0192 H   0  0  0  0  0  0  0  0  0  0  0  0
  150.0678  137.2124  154.4909 H   0  0  0  0  0  0  0  0  0  0  0  0
  151.0082  136.0169  155.3583 H   0  0  0  0  0  0  0  0  0  0  0  0
  149.2775  140.3112  156.5264 H   0  0  0  0  0  0  0  0  0  0  0  0
  154.0193  141.8708  160.6307 H   0  0  0  0  0  0  0  0  0  0  0  0
  153.7919  144.0603  160.0066 H   0  0  0  0  0  0  0  0  0  0  0  0
  151.3137  143.8015  160.9304 H   0  0  0  0  0  0  0  0  0  0  0  0
  151.9318  145.2250  160.1341 H   0  0  0  0  0  0  0  0  0  0  0  0
  150.4490  144.5784  157.0722 H   0  0  0  0  0  0  0  0  0  0  0  0
  153.2218  139.8069  157.4402 H   0  0  0  0  0  0  0  0  0  0  0  0
  153.3621  138.4390  158.5534 H   0  0  0  0  0  0  0  0  0  0  0  0
  152.7936  136.4540  157.7396 H   0  0  0  0  0  0  0  0  0  0  0  0
  1  2  1  0  0  0  0
  1 24  1  0  0  0  0
  2  3  1  0  0  0  0
  2 25  1  0  0  0  0
  2 26  1  0  0  0  0
  3 20  1  0  0  0  0
  3 18  1  0  0  0  0
  3  4  1  0  0  0  0
  4  5  1  0  0  0  0
  5 21  1  0  0  0  0
  5  6  1  0  0  0  0
  5 17  1  0  0  0  0
  6 10  1  0  0  0  0
  6  7  1  0  0  0  0
  7  8  2  0  0  0  0
  7 27  1  0  0  0  0
  8  9  1  0  0  0  0
  9 15  1  0  0  0  0
  9 10  2  0  0  0  0
 10 11  1  0  0  0  0
 11 12  2  0  0  0  0
 12 13  1  0  0  0  0
 12 28  1  0  0  0  0
 13 14  1  0  0  0  0
 13 29  1  0  0  0  0
 14 15  1  0  0  0  0
 14 30  1  0  0  0  0
 14 31  1  0  0  0  0
 15 22  1  0  0  0  0
 15 16  1  0  0  0  0
 16 32  1  0  0  0  0
 17 18  1  0  0  0  0
 17 33  1  0  0  0  0
 17 34  1  0  0  0  0
 18 23  1  0  0  0  0
 18 19  1  0  0  0  0
 19 35  1  0  0  0  0
M  END
> <s_m_source_file>
AV-unprocessed.smi

> <i_m_source_file_index>
157

> <i_lp_mmshare_version>
43012

> <i_f3d_flags>
0

> <s_epik_input>
W09IXVtDSDJdW0NASF0xT1tDQEhdKFtDSDJdW0NAQEhdMVtPSF0pbihbY0hdbjIpYyhjMjMpTj1bQ0hdW05IXVtDSDJdW0NASF0zW09IXQ==

> <s_epik_cmdline>
J2VwaWtfcHl0aG9uJywgJy1waCcsICc3LjAnLCAnLXRuJywgJzgnLCAnLW1hJywgJzIwMCcsICctbWV0YWxfYmluZGluZycsICctaW1hZScsICc8aW5maWxlLm1hZT4nLCAnLW9tYWUnLCAnPG91dGZpbGUubWFlPic=

> <r_lp_tautomer_probability>
1

> <r_epik_Ionization_Penalty>
0.0357149

> <r_epik_Ionization_Penalty_Charging>
0.0355056

> <r_epik_Ionization_Penalty_Neutral>
0.000209255

> <r_epik_State_Penalty>
0.0296046

> <r_epik_Charging_Adjusted_Penalty>
0.0651102

> <i_epik_Tot_Q>
0

> <i_epik_Tot_abs_Q>
0

> <r_epik_Metal_State_Penalty>
3.03559e-05

> <b_epik_Metal_Only>
0

> <s_epik_Chemistry_Notes>
This compound has an imine and may undergo hydrolysis. This compound contains an acetal/aminal-like group ( X-CH(R)-Y where X, Y are N, S, or O) that may be acid/base labile, releasing an aldehyde.

> <s_lp_Force_Field>
OPLS_2005

> <r_lp_Energy>
44.137

> <b_lp_Chiralities_Consistent>
1

> <s_lp_Variant>
AV-unprocessed.smi:157-11

> <Gold.Version>
5.8.1

> <Gold.Id.Protein>
6NUR|6NUR_protein|mol2

> <Gold.PLP.Fitness>
39.9808

> <Gold.PLP.PLP>
-28.1985

> <Gold.PLP.part.hbond>
-3.9275

> <Gold.PLP.part.metal>
0.0000

> <Gold.PLP.part.buried>
-5.1007

> <Gold.PLP.part.nonpolar>
-19.8212

> <Gold.PLP.part.repulsive>
0.1456

> <Gold.PLP.ligand.clash>
0.0000

> <Gold.PLP.ligand.torsion>
0.1013

> <Gold.PLP.Chemscore.Hbond>
3.9920

> <Gold.PLP.Chemscore.CHOScore>
0.0000

> <Gold.PLP.Chemscore.Metal>
0.0000

> <Gold.Chemscore.Hbonds>
donor molecule, donor type, donor heavy atom, donor atom, acceptor molecule, acceptor atom, score
      L1  H     1    24       P1  7949  1.00
      L1  H    16    32       P1  8028  0.89
      P1  H 10752 10764       L1     1  0.90
      P1  H 10752 10765       L1    19  0.99

> <Gold.PLP.Chemscore.Internal.Correction>
0.0089

> <Gold.Rescore>
     Score         DG    S(hbond)    S(metal)    S(lipo)     H(rot)  DE(clash)    DE(int)     intcor
     12.80     -12.81       3.28        0.00      48.55       3.64       0.00       0.01       ----

> <Gold.Chemscore.Fitness>
12.7993

> <Gold.Chemscore.DG>
-12.8075

> <Gold.Chemscore.ZeroCoef>
-5.4800

> <Gold.Chemscore.Hbond>
3.2802

> <Gold.Chemscore.Metal>
0.0000

> <Gold.Chemscore.Lipo>
48.5513

> <Gold.Chemscore.Internal_Hbond>
0.0000

> <Gold.Chemscore.DEClash>
0.0021

> <Gold.Chemscore.DEInternal>
0.0061

> <Gold.Chemscore.Rot>
3.6362

> <Gold.Chemscore.Internal.Correction>
   9.000000E+99

> <Gold.Chemscore.Hbonds>
donor molecule, donor type, donor heavy atom, donor atom, acceptor molecule, acceptor atom, score
      L1  H     1    24       P1  7949  0.87
      L1  H    16    32       P1  8028  0.64
      P1  H 10752 10764       L1     1  0.16
      P1  H 10752 10765       L1    19  0.80

> <Gold.Chemscore.Hbond.Weighted>
-10.9558

> <Gold.Chemscore.Metal.Weighted>
-0.0000

> <Gold.Chemscore.Lipo.Weighted>
-5.6805

> <Gold.Chemscore.Internal_Hbond.Weighted>
0.0000

> <Gold.Chemscore.DEClash.Weighted>
0.0021

> <Gold.Chemscore.DEInternal.Weighted>
0.0061

> <Gold.Chemscore.Rot.Weighted>
9.3087

> <Gold.Chemscore.Internal.Correction.Weighted>
   9.000000E+99

> <Gold.Protein.RotatedTorsions>
[ 6907 6896 6895 6894 ] final  -16.15 input  -60.11 | X-H torsion
[ 7974 7965 7964 7962 ] final  138.91 input  175.53 | X-H torsion
[ 8008 7997 7996 7995 ] final -105.61 input   59.86 | X-H torsion
[ 10167 10162 10161 10158 ] final  -76.02 input  -65.29 | X-H torsion
[ 10718 10713 10712 10709 ] final -128.96 input   66.30 | X-H torsion
[ 10763 10752 10751 10750 ] final -109.31 input  -60.55 | X-H torsion
[ 11005 11000 10999 10996 ] final  113.30 input  -57.11 | X-H torsion

> <Gold.Protein.ActiveResidues>
 VAL166  LYS551  ARG553  GLY616  TRP617  ASP618  TYR619  PRO620  LYS621  CYS622 
 ASP623  PHE694  ASN695  SER759  ASP760  ASP761  ALA762  ILE779  LEU786  VAL792 
 PHE793  MET794  SER795  GLU796  ALA797  LYS798  CYS799  TRP800  GLU811  SER814 

> <Gold.Protein.RotatedAtoms>
  151.3130  135.0799  159.9278 H   0  0  0  0  0  0  0  0  0  0  0  0  # atno 6907 bound_to 6896
  152.5273  133.9716  159.7775 H   0  0  0  0  0  0  0  0  0  0  0  0  # atno 6908 bound_to 6896
  151.0023  133.5992  159.2723 H   0  0  0  0  0  0  0  0  0  0  0  0  # atno 6909 bound_to 6896
  144.9328  139.5026  143.5609 H   0  0  0  0  0  0  0  0  0  0  0  0  # atno 7974 bound_to 7965
  154.9024  140.0412  157.1900 H   0  0  0  0  0  0  0  0  0  0  0  0  # atno 8008 bound_to 7997
  154.8431  140.2917  155.5625 H   0  0  0  0  0  0  0  0  0  0  0  0  # atno 8009 bound_to 7997
  156.2993  140.2479  156.3376 H   0  0  0  0  0  0  0  0  0  0  0  0  # atno 8010 bound_to 7997
  140.4893  143.2384  151.7933 H   0  0  0  0  0  0  0  0  0  0  0  0  # atno 10167 bound_to 10162
  156.2001  130.6851  151.0528 H   0  0  0  0  0  0  0  0  0  0  0  0  # atno 10718 bound_to 10713
  154.8186  135.4605  154.0713 H   0  0  0  0  0  0  0  0  0  0  0  0  # atno 10763 bound_to 10752
  153.2086  135.6878  153.8149 H   0  0  0  0  0  0  0  0  0  0  0  0  # atno 10764 bound_to 10752
  153.7608  135.3284  155.3313 H   0  0  0  0  0  0  0  0  0  0  0  0  # atno 10765 bound_to 10752
  139.8949  134.9547  156.6717 H   0  0  0  0  0  0  0  0  0  0  0  0  # atno 11005 bound_to 11000
  146.3254  139.8290  142.8912 LP  0  0  0  0  0  0  0  0  0  0  0  0  # atno 17320 bound_to 7965
  145.3115  141.0221  143.3552 LP  0  0  0  0  0  0  0  0  0  0  0  0  # atno 17321 bound_to 7965
  139.4848  144.4670  151.9471 LP  0  0  0  0  0  0  0  0  0  0  0  0  # atno 17342 bound_to 10162
  140.3757  144.2800  150.5914 LP  0  0  0  0  0  0  0  0  0  0  0  0  # atno 17343 bound_to 10162
  157.6980  131.0786  150.6908 LP  0  0  0  0  0  0  0  0  0  0  0  0  # atno 17370 bound_to 10713
  156.6965  130.4610  149.5585 LP  0  0  0  0  0  0  0  0  0  0  0  0  # atno 17371 bound_to 10713
  140.7368  133.9012  155.8249 LP  0  0  0  0  0  0  0  0  0  0  0  0  # atno 17394 bound_to 11000
  141.0110  134.1021  157.4222 LP  0  0  0  0  0  0  0  0  0  0  0  0  # atno 17395 bound_to 11000

$$$$
