AV-unprocessed.smi:1211|AV-procd|sdf|5078|dock6
  -GOLD-   22720 4123D 1   1.00000     0.00000
 Structure written by MMmdl.
 47 49  0  0  0  0  0  0  0  0  1 V2000
  144.1420  135.4007  151.3873 C   0  0  0  0  0  0  0  0  0  0  0  0
  144.7642  134.1115  150.8757 C   0  0  0  0  0  0  0  0  0  0  0  0
  144.0374  133.3049  149.9743 C   0  0  0  0  0  0  0  0  0  0  0  0
  144.6140  132.1136  149.5014 C   0  0  0  0  0  0  0  0  0  0  0  0
  145.9023  131.7783  149.9519 C   0  0  0  0  0  0  0  0  0  0  0  0
  146.6040  132.5430  150.8128 N   0  0  0  0  0  0  0  0  0  0  0  0
  146.0613  133.6956  151.2798 C   0  0  0  0  0  0  0  0  0  0  0  0
  146.7414  134.5502  152.1922 N   0  0  0  0  0  0  0  0  0  0  0  0
  146.6485  134.5876  153.5331 C   0  0  0  0  0  0  0  0  0  0  0  0
  145.9369  133.8565  154.2225 O   0  0  0  0  0  0  0  0  0  0  0  0
  147.4442  135.5347  154.0444 N   0  0  0  0  0  0  0  0  0  0  0  0
  147.5890  135.8193  155.4685 C   0  0  0  0  0  0  0  0  0  0  0  0
  149.0845  136.0270  155.8715 C   0  0  1  0  0  0  0  0  0  0  0  0
  149.6719  137.1709  155.1082 N   0  0  0  0  0  0  0  0  0  0  0  0
  149.0242  138.4772  155.2959 C   0  0  0  0  0  0  0  0  0  0  0  0
  149.6428  139.5708  154.4075 C   0  0  0  0  0  0  0  0  0  0  0  0
  151.0380  139.6661  154.6597 O   0  0  0  0  0  0  0  0  0  0  0  0
  151.7120  138.4394  154.4131 C   0  0  0  0  0  0  0  0  0  0  0  0
  151.1187  137.3359  155.3042 C   0  0  0  0  0  0  0  0  0  0  0  0
  149.1297  136.2249  157.4148 C   0  0  0  0  0  0  0  0  0  0  0  0
  148.8235  134.8913  158.1060 C   0  0  0  0  0  0  0  0  0  0  0  0
  149.4611  133.5736  157.0444 S   0  0  0  0  0  0  0  0  0  0  0  0
  149.8377  134.6883  155.6634 C   0  0  0  0  0  0  0  0  0  0  0  0
  143.1438  135.5504  150.9750 H   0  0  0  0  0  0  0  0  0  0  0  0
  144.7537  136.2582  151.1048 H   0  0  0  0  0  0  0  0  0  0  0  0
  144.0560  135.3786  152.4739 H   0  0  0  0  0  0  0  0  0  0  0  0
  143.0491  133.5930  149.6471 H   0  0  0  0  0  0  0  0  0  0  0  0
  144.0835  131.4744  148.8113 H   0  0  0  0  0  0  0  0  0  0  0  0
  146.3821  130.8722  149.6128 H   0  0  0  0  0  0  0  0  0  0  0  0
  147.3761  135.2120  151.7707 H   0  0  0  0  0  0  0  0  0  0  0  0
  148.0014  136.0907  153.4122 H   0  0  0  0  0  0  0  0  0  0  0  0
  146.9841  136.6933  155.7090 H   0  0  0  0  0  0  0  0  0  0  0  0
  147.1303  135.0118  156.0389 H   0  0  0  0  0  0  0  0  0  0  0  0
  147.9688  138.4325  155.0384 H   0  0  0  0  0  0  0  0  0  0  0  0
  149.0893  138.7934  156.3362 H   0  0  0  0  0  0  0  0  0  0  0  0
  149.4704  139.3546  153.3520 H   0  0  0  0  0  0  0  0  0  0  0  0
  149.1776  140.5342  154.6160 H   0  0  0  0  0  0  0  0  0  0  0  0
  151.6263  138.1717  153.3588 H   0  0  0  0  0  0  0  0  0  0  0  0
  152.7734  138.5678  154.6256 H   0  0  0  0  0  0  0  0  0  0  0  0
  151.3290  137.5712  156.3481 H   0  0  0  0  0  0  0  0  0  0  0  0
  151.6538  136.4170  155.0754 H   0  0  0  0  0  0  0  0  0  0  0  0
  150.1283  136.4948  157.7499 H   0  0  0  0  0  0  0  0  0  0  0  0
  148.4653  137.0178  157.7595 H   0  0  0  0  0  0  0  0  0  0  0  0
  149.2721  134.8371  159.0980 H   0  0  0  0  0  0  0  0  0  0  0  0
  147.7491  134.7557  158.2300 H   0  0  0  0  0  0  0  0  0  0  0  0
  149.5902  134.2105  154.7149 H   0  0  0  0  0  0  0  0  0  0  0  0
  150.9169  134.8311  155.6730 H   0  0  0  0  0  0  0  0  0  0  0  0
  1  2  1  0  0  0  0
  1 24  1  0  0  0  0
  1 25  1  0  0  0  0
  1 26  1  0  0  0  0
  2  7  1  0  0  0  0
  2  3  2  0  0  0  0
  3  4  1  0  0  0  0
  3 27  1  0  0  0  0
  4  5  2  0  0  0  0
  4 28  1  0  0  0  0
  5  6  1  0  0  0  0
  5 29  1  0  0  0  0
  6  7  2  0  0  0  0
  7  8  1  0  0  0  0
  8  9  1  0  0  0  0
  8 30  1  0  0  0  0
  9 10  2  0  0  0  0
  9 11  1  0  0  0  0
 11 12  1  0  0  0  0
 11 31  1  0  0  0  0
 12 13  1  0  0  0  0
 12 32  1  0  0  0  0
 12 33  1  0  0  0  0
 13 23  1  0  0  0  0
 13 14  1  0  0  0  0
 13 20  1  0  0  0  0
 14 19  1  0  0  0  0
 14 15  1  0  0  0  0
 15 16  1  0  0  0  0
 15 34  1  0  0  0  0
 15 35  1  0  0  0  0
 16 17  1  0  0  0  0
 16 36  1  0  0  0  0
 16 37  1  0  0  0  0
 17 18  1  0  0  0  0
 18 19  1  0  0  0  0
 18 38  1  0  0  0  0
 18 39  1  0  0  0  0
 19 40  1  0  0  0  0
 19 41  1  0  0  0  0
 20 21  1  0  0  0  0
 20 42  1  0  0  0  0
 20 43  1  0  0  0  0
 21 22  1  0  0  0  0
 21 44  1  0  0  0  0
 21 45  1  0  0  0  0
 22 23  1  0  0  0  0
 23 46  1  0  0  0  0
 23 47  1  0  0  0  0
M  END
> <s_m_source_file>
AV-unprocessed.smi

> <i_m_source_file_index>
1211

> <i_lp_mmshare_version>
43012

> <i_f3d_flags>
0

> <s_epik_input>
W0NIM11jMVtjSF1bY0hdW2NIXW5jMVtOSF1DKD1PKVtOSF1bQ0gyXVtDQF0yKFtDSDJdW0NIMl1TW0NIMl0yKU4zW0NIMl1bQ0gyXU9bQ0gyXVtDSDJdMw==

> <s_epik_cmdline>
J2VwaWtfcHl0aG9uJywgJy1waCcsICc3LjAnLCAnLXRuJywgJzgnLCAnLW1hJywgJzIwMCcsICctbWV0YWxfYmluZGluZycsICctaW1hZScsICc8aW5maWxlLm1hZT4nLCAnLW9tYWUnLCAnPG91dGZpbGUubWFlPic=

> <r_epik_Ionization_Penalty>
0.0195636

> <r_epik_Ionization_Penalty_Charging>
0

> <r_epik_Ionization_Penalty_Neutral>
0.0195636

> <r_epik_State_Penalty>
0.0155843

> <r_epik_Charging_Adjusted_Penalty>
0.0155843

> <i_epik_Tot_Q>
0

> <i_epik_Tot_abs_Q>
0

> <r_epik_Metal_State_Penalty>
0.0155842

> <b_epik_Metal_Only>
0

> <s_lp_Force_Field>
OPLS_2005

> <r_lp_Energy>
55.2683

> <b_lp_Chiralities_Consistent>
1

> <s_lp_Variant>
AV-unprocessed.smi:1211-1

> <Gold.Version>
5.8.1

> <Gold.Id.Protein>
6NUR|6NUR_protein|mol2

> <Gold.PLP.Fitness>
41.4001

> <Gold.PLP.PLP>
-33.4991

> <Gold.PLP.part.hbond>
-3.0000

> <Gold.PLP.part.metal>
0.0000

> <Gold.PLP.part.buried>
-5.1300

> <Gold.PLP.part.nonpolar>
-26.6353

> <Gold.PLP.part.repulsive>
1.3019

> <Gold.PLP.ligand.clash>
0.0000

> <Gold.PLP.ligand.torsion>
0.9026

> <Gold.PLP.Chemscore.Hbond>
2.8880

> <Gold.PLP.Chemscore.CHOScore>
0.3186

> <Gold.PLP.Chemscore.Metal>
0.0000

> <Gold.Chemscore.Hbonds>
donor molecule, donor type, donor heavy atom, donor atom, acceptor molecule, acceptor atom, score
      L1  H     8    30       P1  7948  1.00
      L1  H    11    31       P1  7948  0.98
      P1  H  7989  7998       L1    17  1.00
      L1  C     5    29       P1 10747  0.44

> <Gold.PLP.Chemscore.Internal.Correction>
0.0866

> <Gold.Rescore>
     Score         DG    S(hbond)    S(metal)    S(lipo)     H(rot)  DE(clash)    DE(int)     intcor
     17.94     -18.89       2.09        0.00      86.61       1.44       0.06       0.89       ----

> <Gold.Chemscore.Fitness>
17.9416

> <Gold.Chemscore.DG>
-18.8922

> <Gold.Chemscore.ZeroCoef>
-5.4800

> <Gold.Chemscore.Hbond>
2.0856

> <Gold.Chemscore.Metal>
0.0000

> <Gold.Chemscore.Lipo>
86.6148

> <Gold.Chemscore.Internal_Hbond>
0.0000

> <Gold.Chemscore.DEClash>
0.0620

> <Gold.Chemscore.DEInternal>
0.8886

> <Gold.Chemscore.Rot>
1.4405

> <Gold.Chemscore.Internal.Correction>
   9.000000E+99

> <Gold.Chemscore.Hbonds>
donor molecule, donor type, donor heavy atom, donor atom, acceptor molecule, acceptor atom, score
      L1  H     8    30       P1  7948  0.90
      L1  H    11    31       P1  7948  0.93
      P1  H  7989  7998       L1    17  0.33

> <Gold.Chemscore.Hbond.Weighted>
-6.9659

> <Gold.Chemscore.Metal.Weighted>
-0.0000

> <Gold.Chemscore.Lipo.Weighted>
-10.1339

> <Gold.Chemscore.Internal_Hbond.Weighted>
0.0000

> <Gold.Chemscore.DEClash.Weighted>
0.0620

> <Gold.Chemscore.DEInternal.Weighted>
0.8886

> <Gold.Chemscore.Rot.Weighted>
3.6876

> <Gold.Chemscore.Internal.Correction.Weighted>
   9.000000E+99

> <Gold.Protein.RotatedTorsions>
[ 6907 6896 6895 6894 ] final  -91.89 input  -60.11 | X-H torsion
[ 7974 7965 7964 7962 ] final   75.90 input  175.53 | X-H torsion
[ 8008 7997 7996 7995 ] final -166.44 input   59.86 | X-H torsion
[ 10167 10162 10161 10158 ] final -152.47 input  -65.29 | X-H torsion
[ 10718 10713 10712 10709 ] final   76.39 input   66.30 | X-H torsion
[ 10763 10752 10751 10750 ] final  135.80 input  -60.55 | X-H torsion
[ 11005 11000 10999 10996 ] final   75.54 input  -57.11 | X-H torsion

> <Gold.Protein.ActiveResidues>
 VAL166  LYS551  ARG553  GLY616  TRP617  ASP618  TYR619  PRO620  LYS621  CYS622 
 ASP623  PHE694  ASN695  SER759  ASP760  ASP761  ALA762  ILE779  LEU786  VAL792 
 PHE793  MET794  SER795  GLU796  ALA797  LYS798  CYS799  TRP800  GLU811  SER814 

> <Gold.Protein.RotatedAtoms>
  150.6898  134.2207  159.4395 H   0  0  0  0  0  0  0  0  0  0  0  0  # atno 6907 bound_to 6896
  152.0163  134.9845  160.0579 H   0  0  0  0  0  0  0  0  0  0  0  0  # atno 6908 bound_to 6896
  152.1440  133.4446  159.4817 H   0  0  0  0  0  0  0  0  0  0  0  0  # atno 6909 bound_to 6896
  145.7097  139.2610  143.1658 H   0  0  0  0  0  0  0  0  0  0  0  0  # atno 7974 bound_to 7965
  155.8638  140.0982  157.1595 H   0  0  0  0  0  0  0  0  0  0  0  0  # atno 8008 bound_to 7997
  154.3992  140.1360  156.4056 H   0  0  0  0  0  0  0  0  0  0  0  0  # atno 8009 bound_to 7997
  155.7827  140.3458  155.5308 H   0  0  0  0  0  0  0  0  0  0  0  0  # atno 8010 bound_to 7997
  139.7178  143.9005  152.2492 H   0  0  0  0  0  0  0  0  0  0  0  0  # atno 10167 bound_to 10162
  157.6671  130.9772  150.1490 H   0  0  0  0  0  0  0  0  0  0  0  0  # atno 10718 bound_to 10713
  153.8459  135.3085  155.3429 H   0  0  0  0  0  0  0  0  0  0  0  0  # atno 10763 bound_to 10752
  154.7912  135.4781  154.0061 H   0  0  0  0  0  0  0  0  0  0  0  0  # atno 10764 bound_to 10752
  153.1547  135.6850  153.8922 H   0  0  0  0  0  0  0  0  0  0  0  0  # atno 10765 bound_to 10752
  139.9339  134.7526  156.1283 H   0  0  0  0  0  0  0  0  0  0  0  0  # atno 11005 bound_to 11000
  146.0724  140.7854  142.9681 LP  0  0  0  0  0  0  0  0  0  0  0  0  # atno 17320 bound_to 7965
  144.6945  140.3362  143.7207 LP  0  0  0  0  0  0  0  0  0  0  0  0  # atno 17321 bound_to 7965
  139.8892  144.6975  150.8789 LP  0  0  0  0  0  0  0  0  0  0  0  0  # atno 17342 bound_to 10162
  140.7747  143.3599  151.1848 LP  0  0  0  0  0  0  0  0  0  0  0  0  # atno 17343 bound_to 10162
  156.2294  130.3681  149.8462 LP  0  0  0  0  0  0  0  0  0  0  0  0  # atno 17370 bound_to 10713
  156.6293  130.8659  151.3492 LP  0  0  0  0  0  0  0  0  0  0  0  0  # atno 17371 bound_to 10713
  141.0943  133.6702  156.2609 LP  0  0  0  0  0  0  0  0  0  0  0  0  # atno 17394 bound_to 11000
  140.6128  134.5441  157.5536 LP  0  0  0  0  0  0  0  0  0  0  0  0  # atno 17395 bound_to 11000

$$$$
