AV-unprocessed.smi:2062|AV-procd|sdf|8396|dock2
  -GOLD-   2272011 83D 1   1.00000     0.00000
 Structure written by MMmdl.
 43 44  0  0  0  0  0  0  0  0  2 V2000
  148.0477  126.7204  151.6794 C   0  0  0  0  0  0  0  0  0  0  0  0
  148.2926  128.2016  152.0040 C   0  0  0  0  0  0  0  0  0  0  0  0
  149.1592  128.3372  153.2673 C   0  0  0  0  0  0  0  0  0  0  0  0
  146.9525  128.9547  152.1441 C   0  0  0  0  0  0  0  0  0  0  0  0
  147.0992  130.4280  152.0237 N   0  3  1  0  0  0  0  0  0  0  0  0
  145.8445  131.1216  151.6413 C   0  0  0  0  0  0  0  0  0  0  0  0
  146.0885  132.6326  151.5013 C   0  0  0  0  0  0  0  0  0  0  0  0
  146.6188  133.1433  152.7179 O   0  0  0  0  0  0  0  0  0  0  0  0
  147.8745  132.5594  153.0461 C   0  0  1  0  0  0  0  0  0  0  0  0
  148.4070  133.2697  154.3058 C   0  0  0  0  0  0  0  0  0  0  0  0
  148.9327  134.6020  154.0231 N   0  0  0  0  0  0  0  0  0  0  0  0
  149.7952  135.2670  154.8049 C   0  0  0  0  0  0  0  0  0  0  0  0
  150.2322  134.8163  155.8642 O   0  0  0  0  0  0  0  0  0  0  0  0
  150.1033  136.4674  154.2837 N   0  0  0  0  0  0  0  0  0  0  0  0
  150.9647  137.4600  154.8205 C   0  0  0  0  0  0  0  0  0  0  0  0
  152.1339  137.2012  155.4179 N   0  0  0  0  0  0  0  0  0  0  0  0
  152.7710  138.3667  155.8509 C   0  0  0  0  0  0  0  0  0  0  0  0
  152.0661  139.5120  155.5756 C   0  0  0  0  0  0  0  0  0  0  0  0
  150.5665  139.1706  154.7547 S   0  0  0  0  0  0  0  0  0  0  0  0
  147.6794  131.0411  153.2419 C   0  0  0  0  0  0  0  0  0  0  0  0
  147.4967  126.2242  152.4791 H   0  0  0  0  0  0  0  0  0  0  0  0
  148.9889  126.1866  151.5434 H   0  0  0  0  0  0  0  0  0  0  0  0
  147.4725  126.6080  150.7597 H   0  0  0  0  0  0  0  0  0  0  0  0
  148.8518  128.6182  151.1666 H   0  0  0  0  0  0  0  0  0  0  0  0
  148.6499  127.9326  154.1425 H   0  0  0  0  0  0  0  0  0  0  0  0
  149.4031  129.3790  153.4759 H   0  0  0  0  0  0  0  0  0  0  0  0
  150.1015  127.8004  153.1548 H   0  0  0  0  0  0  0  0  0  0  0  0
  146.2331  128.6043  151.4022 H   0  0  0  0  0  0  0  0  0  0  0  0
  146.5248  128.7097  153.1176 H   0  0  0  0  0  0  0  0  0  0  0  0
  145.4619  130.7308  150.6989 H   0  0  0  0  0  0  0  0  0  0  0  0
  145.0792  130.9391  152.3973 H   0  0  0  0  0  0  0  0  0  0  0  0
  146.7676  132.8446  150.6738 H   0  0  0  0  0  0  0  0  0  0  0  0
  145.1515  133.1452  151.2830 H   0  0  0  0  0  0  0  0  0  0  0  0
  148.5651  132.7344  152.2190 H   0  0  0  0  0  0  0  0  0  0  0  0
  147.6183  133.3438  155.0564 H   0  0  0  0  0  0  0  0  0  0  0  0
  149.2047  132.6787  154.7565 H   0  0  0  0  0  0  0  0  0  0  0  0
  148.6275  135.0409  153.1666 H   0  0  0  0  0  0  0  0  0  0  0  0
  149.6713  136.7001  153.4017 H   0  0  0  0  0  0  0  0  0  0  0  0
  153.7268  138.2891  156.3476 H   0  0  0  0  0  0  0  0  0  0  0  0
  152.3378  140.5316  155.8048 H   0  0  0  0  0  0  0  0  0  0  0  0
  147.0259  130.8497  154.0948 H   0  0  0  0  0  0  0  0  0  0  0  0
  148.6385  130.5693  153.4592 H   0  0  0  0  0  0  0  0  0  0  0  0
  147.7668  130.5908  151.2831 H   0  0  0  0  0  0  0  0  0  0  0  0
  1  2  1  0  0  0  0
  1 21  1  0  0  0  0
  1 22  1  0  0  0  0
  1 23  1  0  0  0  0
  2  3  1  0  0  0  0
  2  4  1  0  0  0  0
  2 24  1  0  0  0  0
  3 25  1  0  0  0  0
  3 26  1  0  0  0  0
  3 27  1  0  0  0  0
  4  5  1  0  0  0  0
  4 28  1  0  0  0  0
  4 29  1  0  0  0  0
  5 20  1  0  0  0  0
  5  6  1  0  0  0  0
  5 43  1  0  0  0  0
  6  7  1  0  0  0  0
  6 30  1  0  0  0  0
  6 31  1  0  0  0  0
  7  8  1  0  0  0  0
  7 32  1  0  0  0  0
  7 33  1  0  0  0  0
  8  9  1  0  0  0  0
  9 10  1  0  0  0  0
  9 20  1  0  0  0  0
  9 34  1  0  0  0  0
 10 11  1  0  0  0  0
 10 35  1  0  0  0  0
 10 36  1  0  0  0  0
 11 12  1  0  0  0  0
 11 37  1  0  0  0  0
 12 13  2  0  0  0  0
 12 14  1  0  0  0  0
 14 15  1  0  0  0  0
 14 38  1  0  0  0  0
 15 19  1  0  0  0  0
 15 16  2  0  0  0  0
 16 17  1  0  0  0  0
 17 18  2  0  0  0  0
 17 39  1  0  0  0  0
 18 19  1  0  0  0  0
 18 40  1  0  0  0  0
 20 41  1  0  0  0  0
 20 42  1  0  0  0  0
M  CHG  1   5   1
M  END
> <s_m_source_file>
AV-unprocessed.smi

> <i_m_source_file_index>
2062

> <i_lp_mmshare_version>
43012

> <i_f3d_flags>
0

> <s_epik_input>
W0NIM11bQ0hdKFtDSDNdKVtDSDJdTjFbQ0gyXVtDSDJdT1tDQEhdKFtDSDJdMSlbQ0gyXVtOSF1DKD1PKVtOSF1jMm5bY0hdW2NIXXMy

> <s_epik_cmdline>
J2VwaWtfcHl0aG9uJywgJy1waCcsICc3LjAnLCAnLXRuJywgJzgnLCAnLW1hJywgJzIwMCcsICctbWV0YWxfYmluZGluZycsICctaW1hZScsICc8aW5maWxlLm1hZT4nLCAnLW9tYWUnLCAnPG91dGZpbGUubWFlPic=

> <r_lp_tautomer_probability>
0.999

> <r_epik_Ionization_Penalty>
0.0985527

> <r_epik_Ionization_Penalty_Charging>
0.098413

> <r_epik_Ionization_Penalty_Neutral>
0.000139681

> <r_epik_State_Penalty>
0.0884988

> <r_epik_Charging_Adjusted_Penalty>
0.186912

> <i_epik_Tot_Q>
1

> <i_epik_Tot_abs_Q>
1

> <r_epik_Metal_State_Penalty>
0.141792

> <b_epik_Metal_Only>
0

> <s_lp_Force_Field>
OPLS_2005

> <r_lp_Energy>
15.1925

> <b_lp_Chiralities_Consistent>
1

> <s_lp_Variant>
AV-unprocessed.smi:2062-1

> <Gold.Version>
5.8.1

> <Gold.Id.Protein>
6NUR|6NUR_protein|mol2

> <Gold.PLP.Fitness>
49.0731

> <Gold.PLP.PLP>
-39.2175

> <Gold.PLP.part.hbond>
-5.0000

> <Gold.PLP.part.metal>
0.0000

> <Gold.PLP.part.buried>
-1.6440

> <Gold.PLP.part.nonpolar>
-32.4202

> <Gold.PLP.part.repulsive>
0.2907

> <Gold.PLP.ligand.clash>
0.0000

> <Gold.PLP.ligand.torsion>
0.8904

> <Gold.PLP.Chemscore.Hbond>
3.8320

> <Gold.PLP.Chemscore.CHOScore>
0.0000

> <Gold.PLP.Chemscore.Metal>
0.0000

> <Gold.Chemscore.Hbonds>
donor molecule, donor type, donor heavy atom, donor atom, acceptor molecule, acceptor atom, score
      L1  H     5    43       P1 10747  1.00
      L1  H    11    37       P1  7948  0.96
      L1  H    14    38       P1  7948  1.00
      P1  H 10752 10763       L1    16  0.86

> <Gold.PLP.Chemscore.Internal.Correction>
0.1403

> <Gold.Rescore>
     Score         DG    S(hbond)    S(metal)    S(lipo)     H(rot)  DE(clash)    DE(int)     intcor
     19.73     -21.20       3.23        0.00      80.73       1.76       0.05       1.41       ----

> <Gold.Chemscore.Fitness>
19.7314

> <Gold.Chemscore.DG>
-21.1953

> <Gold.Chemscore.ZeroCoef>
-5.4800

> <Gold.Chemscore.Hbond>
3.2260

> <Gold.Chemscore.Metal>
0.0000

> <Gold.Chemscore.Lipo>
80.7336

> <Gold.Chemscore.Internal_Hbond>
0.0000

> <Gold.Chemscore.DEClash>
0.0500

> <Gold.Chemscore.DEInternal>
1.4139

> <Gold.Chemscore.Rot>
1.7599

> <Gold.Chemscore.Internal.Correction>
   9.000000E+99

> <Gold.Chemscore.Hbonds>
donor molecule, donor type, donor heavy atom, donor atom, acceptor molecule, acceptor atom, score
      L1  H     5    43       P1 10747  0.98
      L1  H    11    37       P1  7948  0.60
      L1  H    14    38       P1  7948  0.48
      P1  H 10752 10763       L1    16  0.66

> <Gold.Chemscore.Hbond.Weighted>
-10.7749

> <Gold.Chemscore.Metal.Weighted>
-0.0000

> <Gold.Chemscore.Lipo.Weighted>
-9.4458

> <Gold.Chemscore.Internal_Hbond.Weighted>
0.0000

> <Gold.Chemscore.DEClash.Weighted>
0.0500

> <Gold.Chemscore.DEInternal.Weighted>
1.4139

> <Gold.Chemscore.Rot.Weighted>
4.5054

> <Gold.Chemscore.Internal.Correction.Weighted>
   9.000000E+99

> <Gold.Protein.RotatedTorsions>
[ 6907 6896 6895 6894 ] final  102.09 input  -60.11 | X-H torsion
[ 7974 7965 7964 7962 ] final  -41.81 input  175.53 | X-H torsion
[ 8008 7997 7996 7995 ] final  -77.16 input   59.86 | X-H torsion
[ 10167 10162 10161 10158 ] final  111.28 input  -65.29 | X-H torsion
[ 10718 10713 10712 10709 ] final -173.63 input   66.30 | X-H torsion
[ 10763 10752 10751 10750 ] final   64.61 input  -60.55 | X-H torsion
[ 11005 11000 10999 10996 ] final   89.55 input  -57.11 | X-H torsion

> <Gold.Protein.ActiveResidues>
 VAL166  LYS551  ARG553  GLY616  TRP617  ASP618  TYR619  PRO620  LYS621  CYS622 
 ASP623  PHE694  ASN695  SER759  ASP760  ASP761  ALA762  ILE779  LEU786  VAL792 
 PHE793  MET794  SER795  GLU796  ALA797  LYS798  CYS799  TRP800  GLU811  SER814 

> <Gold.Protein.RotatedAtoms>
  152.5333  134.0028  159.7902 H   0  0  0  0  0  0  0  0  0  0  0  0  # atno 6907 bound_to 6896
  151.0244  133.5840  159.2675 H   0  0  0  0  0  0  0  0  0  0  0  0  # atno 6908 bound_to 6896
  151.2867  135.0737  159.9243 H   0  0  0  0  0  0  0  0  0  0  0  0  # atno 6909 bound_to 6896
  146.0176  140.6889  142.9194 H   0  0  0  0  0  0  0  0  0  0  0  0  # atno 7974 bound_to 7965
  154.5570  140.0715  156.8760 H   0  0  0  0  0  0  0  0  0  0  0  0  # atno 8008 bound_to 7997
  155.2883  140.3376  155.4236 H   0  0  0  0  0  0  0  0  0  0  0  0  # atno 8009 bound_to 7997
  156.2011  140.1722  156.7884 H   0  0  0  0  0  0  0  0  0  0  0  0  # atno 8010 bound_to 7997
  139.6623  144.7128  151.1842 H   0  0  0  0  0  0  0  0  0  0  0  0  # atno 10167 bound_to 10162
  156.7731  130.9456  151.3120 H   0  0  0  0  0  0  0  0  0  0  0  0  # atno 10718 bound_to 10713
  153.0062  135.5387  154.6536 H   0  0  0  0  0  0  0  0  0  0  0  0  # atno 10763 bound_to 10752
  154.5762  135.2846  155.0780 H   0  0  0  0  0  0  0  0  0  0  0  0  # atno 10764 bound_to 10752
  154.1927  135.6497  153.5117 H   0  0  0  0  0  0  0  0  0  0  0  0  # atno 10765 bound_to 10752
  139.8873  134.8558  156.3158 H   0  0  0  0  0  0  0  0  0  0  0  0  # atno 11005 bound_to 11000
  144.6977  140.3508  143.7182 LP  0  0  0  0  0  0  0  0  0  0  0  0  # atno 17320 bound_to 7965
  145.7244  139.1719  143.2466 LP  0  0  0  0  0  0  0  0  0  0  0  0  # atno 17321 bound_to 7965
  140.7585  143.5975  150.8734 LP  0  0  0  0  0  0  0  0  0  0  0  0  # atno 17342 bound_to 10162
  139.9633  143.6139  152.2996 LP  0  0  0  0  0  0  0  0  0  0  0  0  # atno 17343 bound_to 10162
  157.6681  130.9026  149.9978 LP  0  0  0  0  0  0  0  0  0  0  0  0  # atno 17370 bound_to 10713
  156.1265  130.3644  149.9801 LP  0  0  0  0  0  0  0  0  0  0  0  0  # atno 17371 bound_to 10713
  140.9820  133.7262  156.0685 LP  0  0  0  0  0  0  0  0  0  0  0  0  # atno 17394 bound_to 11000
  140.7737  134.3803  157.5502 LP  0  0  0  0  0  0  0  0  0  0  0  0  # atno 17395 bound_to 11000

$$$$
