AV-unprocessed.smi:2026|AV-procd|sdf|8201|dock9
  -GOLD-   2272010463D 1   1.00000     0.00000
 Structure written by MMmdl.
 46 48  0  0  0  0  0  0  0  0  1 V2000
  152.2142  145.7591  159.6594 C   0  0  0  0  0  0  0  0  0  0  0  0
  151.9966  144.3228  159.2177 C   0  0  0  0  0  0  0  0  0  0  0  0
  151.5850  144.0667  157.8896 C   0  0  0  0  0  0  0  0  0  0  0  0
  151.3749  142.7447  157.4388 C   0  0  0  0  0  0  0  0  0  0  0  0
  150.9800  142.2648  156.2010 N   0  0  0  0  0  0  0  0  0  0  0  0
  150.9683  140.9511  156.4129 C   0  0  0  0  0  0  0  0  0  0  0  0
  151.3084  140.5245  157.6440 N   0  0  0  0  0  0  0  0  0  0  0  0
  151.3672  139.1588  158.1272 C   0  0  0  0  0  0  0  0  0  0  0  0
  152.6418  138.8955  158.9546 C   0  0  2  0  0  0  0  0  0  0  0  0
  153.7737  138.9780  158.1127 O   0  0  0  0  0  0  0  0  0  0  0  0
  152.6522  137.5259  159.6654 C   0  0  0  0  0  0  0  0  0  0  0  0
  153.9511  137.2266  160.2814 N   0  0  0  0  0  0  0  0  0  0  0  0
  154.6330  138.0725  161.0748 C   0  0  0  0  0  0  0  0  0  0  0  0
  154.2828  139.2016  161.4145 O   0  0  0  0  0  0  0  0  0  0  0  0
  155.7803  137.4814  161.4334 N   0  0  0  0  0  0  0  0  0  0  0  0
  155.9341  136.1553  160.8667 C   0  0  0  0  0  0  0  0  0  0  0  0
  157.1476  136.1006  159.9209 C   0  0  0  0  0  0  0  0  0  0  0  0
  156.0076  135.0894  161.9746 C   0  0  0  0  0  0  0  0  0  0  0  0
  154.6226  136.0808  160.1007 C   0  0  0  0  0  0  0  0  0  0  0  0
  154.2738  135.1118  159.4262 O   0  0  0  0  0  0  0  0  0  0  0  0
  151.5876  141.6805  158.3619 C   0  0  0  0  0  0  0  0  0  0  0  0
  151.9957  141.9217  159.6850 C   0  0  0  0  0  0  0  0  0  0  0  0
  152.2014  143.2472  160.1192 C   0  0  0  0  0  0  0  0  0  0  0  0
  152.6443  143.4951  161.5505 C   0  0  0  0  0  0  0  0  0  0  0  0
  152.0896  146.4547  158.8291 H   0  0  0  0  0  0  0  0  0  0  0  0
  153.2215  145.8907  160.0552 H   0  0  0  0  0  0  0  0  0  0  0  0
  151.4985  146.0300  160.4358 H   0  0  0  0  0  0  0  0  0  0  0  0
  151.4279  144.8859  157.2035 H   0  0  0  0  0  0  0  0  0  0  0  0
  150.6979  140.2592  155.6286 H   0  0  0  0  0  0  0  0  0  0  0  0
  150.4743  138.9942  158.7298 H   0  0  0  0  0  0  0  0  0  0  0  0
  151.3021  138.4730  157.2814 H   0  0  0  0  0  0  0  0  0  0  0  0
  152.7518  139.6798  159.7041 H   0  0  0  0  0  0  0  0  0  0  0  0
  154.3007  138.2041  158.2395 H   0  0  0  0  0  0  0  0  0  0  0  0
  151.8523  137.4852  160.4068 H   0  0  0  0  0  0  0  0  0  0  0  0
  152.4242  136.7371  158.9460 H   0  0  0  0  0  0  0  0  0  0  0  0
  156.4785  137.9073  162.0256 H   0  0  0  0  0  0  0  0  0  0  0  0
  157.2494  135.1155  159.4642 H   0  0  0  0  0  0  0  0  0  0  0  0
  158.0728  136.3107  160.4583 H   0  0  0  0  0  0  0  0  0  0  0  0
  157.0650  136.8301  159.1140 H   0  0  0  0  0  0  0  0  0  0  0  0
  156.1227  134.0896  161.5543 H   0  0  0  0  0  0  0  0  0  0  0  0
  155.1088  135.0852  162.5930 H   0  0  0  0  0  0  0  0  0  0  0  0
  156.8579  135.2682  162.6333 H   0  0  0  0  0  0  0  0  0  0  0  0
  152.1532  141.0914  160.3572 H   0  0  0  0  0  0  0  0  0  0  0  0
  152.6878  142.5656  162.1196 H   0  0  0  0  0  0  0  0  0  0  0  0
  151.9494  144.1645  162.0577 H   0  0  0  0  0  0  0  0  0  0  0  0
  153.6366  143.9462  161.5685 H   0  0  0  0  0  0  0  0  0  0  0  0
  1  2  1  0  0  0  0
  1 25  1  0  0  0  0
  1 26  1  0  0  0  0
  1 27  1  0  0  0  0
  2 23  1  0  0  0  0
  2  3  2  0  0  0  0
  3  4  1  0  0  0  0
  3 28  1  0  0  0  0
  4 21  2  0  0  0  0
  4  5  1  0  0  0  0
  5  6  2  0  0  0  0
  6  7  1  0  0  0  0
  6 29  1  0  0  0  0
  7  8  1  0  0  0  0
  7 21  1  0  0  0  0
  8  9  1  0  0  0  0
  8 30  1  0  0  0  0
  8 31  1  0  0  0  0
  9 10  1  0  0  0  0
  9 11  1  0  0  0  0
  9 32  1  0  0  0  0
 10 33  1  0  0  0  0
 11 12  1  0  0  0  0
 11 34  1  0  0  0  0
 11 35  1  0  0  0  0
 12 19  1  0  0  0  0
 12 13  1  0  0  0  0
 13 14  2  0  0  0  0
 13 15  1  0  0  0  0
 15 16  1  0  0  0  0
 15 36  1  0  0  0  0
 16 17  1  0  0  0  0
 16 18  1  0  0  0  0
 16 19  1  0  0  0  0
 17 37  1  0  0  0  0
 17 38  1  0  0  0  0
 17 39  1  0  0  0  0
 18 40  1  0  0  0  0
 18 41  1  0  0  0  0
 18 42  1  0  0  0  0
 19 20  2  0  0  0  0
 21 22  1  0  0  0  0
 22 23  2  0  0  0  0
 22 43  1  0  0  0  0
 23 24  1  0  0  0  0
 24 44  1  0  0  0  0
 24 45  1  0  0  0  0
 24 46  1  0  0  0  0
M  END
> <s_m_source_file>
AV-unprocessed.smi

> <i_m_source_file_index>
2026

> <i_lp_mmshare_version>
43012

> <i_f3d_flags>
0

> <s_epik_input>
W0NIM11jKFtjSF0xKWMoW0NIM10pW2NIXWMoYzEyKW4oW2NIXW4yKVtDSDJdW0NASF0oW09IXSlbQ0gyXU4oQzM9TylDKD1PKVtOSF1DMyhbQ0gzXSlbQ0gzXQ==

> <s_epik_cmdline>
J2VwaWtfcHl0aG9uJywgJy1waCcsICc3LjAnLCAnLXRuJywgJzgnLCAnLW1hJywgJzIwMCcsICctbWV0YWxfYmluZGluZycsICctaW1hZScsICc8aW5maWxlLm1hZT4nLCAnLW9tYWUnLCAnPG91dGZpbGUubWFlPic=

> <r_lp_tautomer_probability>
1

> <r_epik_Ionization_Penalty>
0.103994

> <r_epik_Ionization_Penalty_Charging>
0

> <r_epik_Ionization_Penalty_Neutral>
0.103994

> <r_epik_State_Penalty>
0.0938482

> <r_epik_Charging_Adjusted_Penalty>
0.0938482

> <i_epik_Tot_Q>
0

> <i_epik_Tot_abs_Q>
0

> <r_epik_Metal_State_Penalty>
0.106997

> <b_epik_Metal_Only>
0

> <s_lp_Force_Field>
OPLS_2005

> <r_lp_Energy>
21.0149

> <b_lp_Chiralities_Consistent>
1

> <s_lp_Variant>
AV-unprocessed.smi:2026-1

> <Gold.Version>
5.8.1

> <Gold.Id.Protein>
6NUR|6NUR_protein|mol2

> <Gold.PLP.Fitness>
46.8773

> <Gold.PLP.PLP>
-41.6085

> <Gold.PLP.part.hbond>
-2.0000

> <Gold.PLP.part.metal>
0.0000

> <Gold.PLP.part.buried>
-4.7533

> <Gold.PLP.part.nonpolar>
-34.5824

> <Gold.PLP.part.repulsive>
0.1073

> <Gold.PLP.ligand.clash>
0.0000

> <Gold.PLP.ligand.torsion>
0.3713

> <Gold.PLP.Chemscore.Hbond>
2.0000

> <Gold.PLP.Chemscore.CHOScore>
0.0000

> <Gold.PLP.Chemscore.Metal>
0.0000

> <Gold.Chemscore.Hbonds>
donor molecule, donor type, donor heavy atom, donor atom, acceptor molecule, acceptor atom, score
      P1  H  6896  6908       L1    20  1.00
      P1  H  7997  8008       L1    10  1.00

> <Gold.PLP.Chemscore.Internal.Correction>
0.0113

> <Gold.Rescore>
     Score         DG    S(hbond)    S(metal)    S(lipo)     H(rot)  DE(clash)    DE(int)     intcor
     16.20     -17.50       1.70        0.00     107.47       2.44       0.04       1.27       ----

> <Gold.Chemscore.Fitness>
16.1956

> <Gold.Chemscore.DG>
-17.5011

> <Gold.Chemscore.ZeroCoef>
-5.4800

> <Gold.Chemscore.Hbond>
1.7015

> <Gold.Chemscore.Metal>
0.0000

> <Gold.Chemscore.Lipo>
107.4680

> <Gold.Chemscore.Internal_Hbond>
0.0000

> <Gold.Chemscore.DEClash>
0.0359

> <Gold.Chemscore.DEInternal>
1.2696

> <Gold.Chemscore.Rot>
2.4358

> <Gold.Chemscore.Internal.Correction>
   9.000000E+99

> <Gold.Chemscore.Hbonds>
donor molecule, donor type, donor heavy atom, donor atom, acceptor molecule, acceptor atom, score
      P1  H  6896  6908       L1    20  0.64
      P1  H  7997  8008       L1    10  0.45

> <Gold.Chemscore.Hbond.Weighted>
-5.6830

> <Gold.Chemscore.Metal.Weighted>
-0.0000

> <Gold.Chemscore.Lipo.Weighted>
-12.5738

> <Gold.Chemscore.Internal_Hbond.Weighted>
0.0000

> <Gold.Chemscore.DEClash.Weighted>
0.0359

> <Gold.Chemscore.DEInternal.Weighted>
1.2696

> <Gold.Chemscore.Rot.Weighted>
6.2357

> <Gold.Chemscore.Internal.Correction.Weighted>
   9.000000E+99

> <Gold.Protein.RotatedTorsions>
[ 6907 6896 6895 6894 ] final  -57.54 input  -60.11 | X-H torsion
[ 7974 7965 7964 7962 ] final -152.45 input  175.53 | X-H torsion
[ 8008 7997 7996 7995 ] final  -98.02 input   59.86 | X-H torsion
[ 10167 10162 10161 10158 ] final  -76.44 input  -65.29 | X-H torsion
[ 10718 10713 10712 10709 ] final   69.36 input   66.30 | X-H torsion
[ 10763 10752 10751 10750 ] final   69.16 input  -60.55 | X-H torsion
[ 11005 11000 10999 10996 ] final -179.28 input  -57.11 | X-H torsion

> <Gold.Protein.ActiveResidues>
 VAL166  LYS551  ARG553  GLY616  TRP617  ASP618  TYR619  PRO620  LYS621  CYS622 
 ASP623  PHE694  ASN695  SER759  ASP760  ASP761  ALA762  ILE779  LEU786  VAL792 
 PHE793  MET794  SER795  GLU796  ALA797  LYS798  CYS799  TRP800  GLU811  SER814 

> <Gold.Protein.RotatedAtoms>
  150.8078  134.7214  159.6659 H   0  0  0  0  0  0  0  0  0  0  0  0  # atno 6907 bound_to 6896
  152.4198  134.5973  160.0000 H   0  0  0  0  0  0  0  0  0  0  0  0  # atno 6908 bound_to 6896
  151.6191  133.3303  159.3120 H   0  0  0  0  0  0  0  0  0  0  0  0  # atno 6909 bound_to 6896
  144.7793  140.4660  143.5850 H   0  0  0  0  0  0  0  0  0  0  0  0  # atno 7974 bound_to 7965
  154.7956  140.0458  157.1234 H   0  0  0  0  0  0  0  0  0  0  0  0  # atno 8008 bound_to 7997
  154.9539  140.3068  155.5042 H   0  0  0  0  0  0  0  0  0  0  0  0  # atno 8009 bound_to 7997
  156.2955  140.2283  156.4619 H   0  0  0  0  0  0  0  0  0  0  0  0  # atno 8010 bound_to 7997
  140.4857  143.2392  151.7987 H   0  0  0  0  0  0  0  0  0  0  0  0  # atno 10167 bound_to 10162
  157.6341  130.9421  150.0502 H   0  0  0  0  0  0  0  0  0  0  0  0  # atno 10718 bound_to 10713
  153.0272  135.5221  154.7245 H   0  0  0  0  0  0  0  0  0  0  0  0  # atno 10763 bound_to 10752
  154.6291  135.2898  155.0240 H   0  0  0  0  0  0  0  0  0  0  0  0  # atno 10764 bound_to 10752
  154.1198  135.6609  153.4953 H   0  0  0  0  0  0  0  0  0  0  0  0  # atno 10765 bound_to 10752
  140.4204  134.6611  157.4661 H   0  0  0  0  0  0  0  0  0  0  0  0  # atno 11005 bound_to 11000
  145.6094  139.1512  143.3084 LP  0  0  0  0  0  0  0  0  0  0  0  0  # atno 17320 bound_to 7965
  146.1992  140.6211  142.9110 LP  0  0  0  0  0  0  0  0  0  0  0  0  # atno 17321 bound_to 7965
  139.4841  144.4715  151.9419 LP  0  0  0  0  0  0  0  0  0  0  0  0  # atno 17342 bound_to 10162
  140.3801  144.2747  150.5909 LP  0  0  0  0  0  0  0  0  0  0  0  0  # atno 17343 bound_to 10162
  156.1566  130.3643  149.9359 LP  0  0  0  0  0  0  0  0  0  0  0  0  # atno 17370 bound_to 10713
  156.7367  130.9064  151.3629 LP  0  0  0  0  0  0  0  0  0  0  0  0  # atno 17371 bound_to 10713
  140.0204  134.6555  155.9248 LP  0  0  0  0  0  0  0  0  0  0  0  0  # atno 17394 bound_to 11000
  141.1786  133.6543  156.4929 LP  0  0  0  0  0  0  0  0  0  0  0  0  # atno 17395 bound_to 11000

$$$$
