AV-unprocessed.smi:302|AV-procd|sdf|2272|dock8
  -GOLD-   2262022163D 1   1.00000     0.00000
 Structure written by MMmdl.
 44 45  0  0  0  0  0  0  0  0  1 V2000
  142.3279  141.1681  157.2985 C   0  0  0  0  0  0  0  0  0  0  0  0
  142.0823  140.5665  155.9132 C   0  0  0  0  0  0  0  0  0  0  0  0
  140.7296  140.8103  155.5431 O   0  0  0  0  0  0  0  0  0  0  0  0
  140.3623  140.3855  154.2318 C   0  0  2  0  0  0  0  0  0  0  0  0
  138.8769  140.7535  154.0362 C   0  0  0  0  0  0  0  0  0  0  0  0
  138.1858  139.9948  152.8930 C   0  0  0  0  0  0  0  0  0  0  0  0
  140.6232  138.8764  154.0747 C   0  0  0  0  0  0  0  0  0  0  0  0
  139.8552  138.0673  154.5946 O   0  0  0  0  0  0  0  0  0  0  0  0
  141.7286  138.5450  153.3822 N   0  0  0  0  0  0  0  0  0  0  0  0
  142.2423  137.2508  153.1015 C   0  0  0  0  0  0  0  0  0  0  0  0
  141.5857  136.0432  153.4326 C   0  0  0  0  0  0  0  0  0  0  0  0
  142.1950  134.8204  153.0918 C   0  0  0  0  0  0  0  0  0  0  0  0
  143.4405  134.8294  152.4201 C   0  0  0  0  0  0  0  0  0  0  0  0
  144.0735  133.6145  152.0781 N   0  0  0  0  0  0  0  0  0  0  0  0
  144.1187  133.2933  150.6538 C   0  0  0  0  0  0  0  0  0  0  0  0
  144.5236  131.8230  150.4507 C   0  0  0  0  0  0  0  0  0  0  0  0
  145.7560  131.5644  151.1155 O   0  0  0  0  0  0  0  0  0  0  0  0
  145.6552  131.7785  152.5193 C   0  0  0  0  0  0  0  0  0  0  0  0
  145.2939  133.2477  152.7945 C   0  0  0  0  0  0  0  0  0  0  0  0
  144.0606  135.9903  152.0946 N   0  0  0  0  0  0  0  0  0  0  0  0
  143.4721  137.1598  152.4207 C   0  0  0  0  0  0  0  0  0  0  0  0
  143.3578  141.0051  157.6170 H   0  0  0  0  0  0  0  0  0  0  0  0
  141.6721  140.7159  158.0433 H   0  0  0  0  0  0  0  0  0  0  0  0
  142.1438  142.2428  157.2968 H   0  0  0  0  0  0  0  0  0  0  0  0
  142.7580  141.0224  155.1881 H   0  0  0  0  0  0  0  0  0  0  0  0
  142.2981  139.4979  155.9394 H   0  0  0  0  0  0  0  0  0  0  0  0
  140.9517  140.9428  153.5008 H   0  0  0  0  0  0  0  0  0  0  0  0
  138.3250  140.5937  154.9636 H   0  0  0  0  0  0  0  0  0  0  0  0
  138.8071  141.8222  153.8312 H   0  0  0  0  0  0  0  0  0  0  0  0
  137.1594  140.3397  152.7674 H   0  0  0  0  0  0  0  0  0  0  0  0
  138.1492  138.9222  153.0846 H   0  0  0  0  0  0  0  0  0  0  0  0
  138.7055  140.1500  151.9472 H   0  0  0  0  0  0  0  0  0  0  0  0
  142.3098  139.3156  153.0855 H   0  0  0  0  0  0  0  0  0  0  0  0
  140.6289  136.0287  153.9309 H   0  0  0  0  0  0  0  0  0  0  0  0
  141.7077  133.8958  153.3622 H   0  0  0  0  0  0  0  0  0  0  0  0
  143.1600  133.4667  150.1678 H   0  0  0  0  0  0  0  0  0  0  0  0
  144.8428  133.9494  150.1691 H   0  0  0  0  0  0  0  0  0  0  0  0
  143.7490  131.1516  150.8249 H   0  0  0  0  0  0  0  0  0  0  0  0
  144.6424  131.6106  149.3882 H   0  0  0  0  0  0  0  0  0  0  0  0
  144.9088  131.1077  152.9480 H   0  0  0  0  0  0  0  0  0  0  0  0
  146.6091  131.5326  152.9860 H   0  0  0  0  0  0  0  0  0  0  0  0
  146.1090  133.8991  152.4759 H   0  0  0  0  0  0  0  0  0  0  0  0
  145.1608  133.3905  153.8676 H   0  0  0  0  0  0  0  0  0  0  0  0
  144.0082  138.0532  152.1351 H   0  0  0  0  0  0  0  0  0  0  0  0
  1  2  1  0  0  0  0
  1 22  1  0  0  0  0
  1 23  1  0  0  0  0
  1 24  1  0  0  0  0
  2  3  1  0  0  0  0
  2 25  1  0  0  0  0
  2 26  1  0  0  0  0
  3  4  1  0  0  0  0
  4  5  1  0  0  0  0
  4  7  1  0  0  0  0
  4 27  1  0  0  0  0
  5  6  1  0  0  0  0
  5 28  1  0  0  0  0
  5 29  1  0  0  0  0
  6 30  1  0  0  0  0
  6 31  1  0  0  0  0
  6 32  1  0  0  0  0
  7  8  2  0  0  0  0
  7  9  1  0  0  0  0
  9 10  1  0  0  0  0
  9 33  1  0  0  0  0
 10 21  1  0  0  0  0
 10 11  2  0  0  0  0
 11 12  1  0  0  0  0
 11 34  1  0  0  0  0
 12 13  2  0  0  0  0
 12 35  1  0  0  0  0
 13 14  1  0  0  0  0
 13 20  1  0  0  0  0
 14 19  1  0  0  0  0
 14 15  1  0  0  0  0
 15 16  1  0  0  0  0
 15 36  1  0  0  0  0
 15 37  1  0  0  0  0
 16 17  1  0  0  0  0
 16 38  1  0  0  0  0
 16 39  1  0  0  0  0
 17 18  1  0  0  0  0
 18 19  1  0  0  0  0
 18 40  1  0  0  0  0
 18 41  1  0  0  0  0
 19 42  1  0  0  0  0
 19 43  1  0  0  0  0
 20 21  2  0  0  0  0
 21 44  1  0  0  0  0
M  END
> <s_m_source_file>
AV-unprocessed.smi

> <i_m_source_file_index>
302

> <i_lp_mmshare_version>
43012

> <i_f3d_flags>
0

> <s_epik_input>
W0NIM11bQ0gyXU9bQ0BIXShbQ0gyXVtDSDNdKUMoPU8pW05IXWMxW2NIXVtjSF1jKG5bY0hdMSlOMltDSDJdW0NIMl1PW0NIMl1bQ0gyXTI=

> <s_epik_cmdline>
J2VwaWtfcHl0aG9uJywgJy1waCcsICc3LjAnLCAnLXRuJywgJzgnLCAnLW1hJywgJzIwMCcsICctbWV0YWxfYmluZGluZycsICctaW1hZScsICc8aW5maWxlLm1hZT4nLCAnLW9tYWUnLCAnPG91dGZpbGUubWFlPic=

> <r_lp_tautomer_probability>
1

> <r_epik_Ionization_Penalty>
0.000497413

> <r_epik_Ionization_Penalty_Charging>
0

> <r_epik_Ionization_Penalty_Neutral>
0.000497413

> <r_epik_State_Penalty>
0.000308489

> <r_epik_Charging_Adjusted_Penalty>
0.000308489

> <i_epik_Tot_Q>
0

> <i_epik_Tot_abs_Q>
0

> <r_epik_Metal_State_Penalty>
-0

> <b_epik_Metal_Only>
0

> <s_lp_Force_Field>
OPLS_2005

> <r_lp_Energy>
24.0205

> <b_lp_Chiralities_Consistent>
1

> <s_lp_Variant>
AV-unprocessed.smi:302-1

> <Gold.Version>
5.8.1

> <Gold.Id.Protein>
6NUR|6NUR_protein|mol2

> <Gold.PLP.Fitness>
36.6641

> <Gold.PLP.PLP>
-29.6645

> <Gold.PLP.part.hbond>
-1.0000

> <Gold.PLP.part.metal>
0.0000

> <Gold.PLP.part.buried>
-5.3007

> <Gold.PLP.part.nonpolar>
-23.5773

> <Gold.PLP.part.repulsive>
0.4932

> <Gold.PLP.ligand.clash>
0.0000

> <Gold.PLP.ligand.torsion>
0.8087

> <Gold.PLP.Chemscore.Hbond>
1.0000

> <Gold.PLP.Chemscore.CHOScore>
1.7399

> <Gold.PLP.Chemscore.Metal>
0.0000

> <Gold.Chemscore.Hbonds>
donor molecule, donor type, donor heavy atom, donor atom, acceptor molecule, acceptor atom, score
      L1  H     9    33       P1 10175  1.00
      L1  C    21    44       P1 10171  0.69
      L1  C    21    44       P1 10175  1.00

> <Gold.PLP.Chemscore.Internal.Correction>
0.3975

> <Gold.Rescore>
     Score         DG    S(hbond)    S(metal)    S(lipo)     H(rot)  DE(clash)    DE(int)     intcor
     10.17     -12.10       1.00        0.00      63.77       1.63       0.01       1.93       ----

> <Gold.Chemscore.Fitness>
10.1691

> <Gold.Chemscore.DG>
-12.1028

> <Gold.Chemscore.ZeroCoef>
-5.4800

> <Gold.Chemscore.Hbond>
0.9953

> <Gold.Chemscore.Metal>
0.0000

> <Gold.Chemscore.Lipo>
63.7689

> <Gold.Chemscore.Internal_Hbond>
0.0000

> <Gold.Chemscore.DEClash>
0.0057

> <Gold.Chemscore.DEInternal>
1.9280

> <Gold.Chemscore.Rot>
1.6260

> <Gold.Chemscore.Internal.Correction>
   9.000000E+99

> <Gold.Chemscore.Hbonds>
donor molecule, donor type, donor heavy atom, donor atom, acceptor molecule, acceptor atom, score
      L1  H     9    33       P1 10175  0.98

> <Gold.Chemscore.Hbond.Weighted>
-3.3244

> <Gold.Chemscore.Metal.Weighted>
-0.0000

> <Gold.Chemscore.Lipo.Weighted>
-7.4610

> <Gold.Chemscore.Internal_Hbond.Weighted>
0.0000

> <Gold.Chemscore.DEClash.Weighted>
0.0057

> <Gold.Chemscore.DEInternal.Weighted>
1.9280

> <Gold.Chemscore.Rot.Weighted>
4.1626

> <Gold.Chemscore.Internal.Correction.Weighted>
   9.000000E+99

> <Gold.Protein.RotatedTorsions>
[ 6907 6896 6895 6894 ] final   22.03 input  -60.11 | X-H torsion
[ 7974 7965 7964 7962 ] final -122.46 input  175.53 | X-H torsion
[ 8008 7997 7996 7995 ] final  -59.10 input   59.86 | X-H torsion
[ 10167 10162 10161 10158 ] final   72.11 input  -65.29 | X-H torsion
[ 10718 10713 10712 10709 ] final -119.61 input   66.30 | X-H torsion
[ 10763 10752 10751 10750 ] final   58.91 input  -60.55 | X-H torsion
[ 11005 11000 10999 10996 ] final  174.77 input  -57.11 | X-H torsion

> <Gold.Protein.ActiveResidues>
 VAL166  LYS551  ARG553  GLY616  TRP617  ASP618  TYR619  PRO620  LYS621  CYS622 
 ASP623  PHE694  ASN695  SER759  ASP760  ASP761  ALA762  ILE779  LEU786  VAL792 
 PHE793  MET794  SER795  GLU796  ALA797  LYS798  CYS799  TRP800  GLU811  SER814 

> <Gold.Protein.RotatedAtoms>
  151.9209  135.0298  160.0521 H   0  0  0  0  0  0  0  0  0  0  0  0  # atno 6907 bound_to 6896
  152.2200  133.4971  159.5165 H   0  0  0  0  0  0  0  0  0  0  0  0  # atno 6908 bound_to 6896
  150.6997  134.1272  159.4099 H   0  0  0  0  0  0  0  0  0  0  0  0  # atno 6909 bound_to 6896
  145.0292  140.8054  143.4334 H   0  0  0  0  0  0  0  0  0  0  0  0  # atno 7974 bound_to 7965
  154.4337  140.1069  156.6062 H   0  0  0  0  0  0  0  0  0  0  0  0  # atno 8008 bound_to 7997
  155.5858  140.3491  155.4534 H   0  0  0  0  0  0  0  0  0  0  0  0  # atno 8009 bound_to 7997
  156.0284  140.1255  157.0274 H   0  0  0  0  0  0  0  0  0  0  0  0  # atno 8010 bound_to 7997
  140.0389  144.5406  150.7450 H   0  0  0  0  0  0  0  0  0  0  0  0  # atno 10167 bound_to 10162
  156.1194  130.6311  150.9438 H   0  0  0  0  0  0  0  0  0  0  0  0  # atno 10718 bound_to 10713
  152.9882  135.5590  154.5629 H   0  0  0  0  0  0  0  0  0  0  0  0  # atno 10763 bound_to 10752
  154.5044  135.2799  155.1396 H   0  0  0  0  0  0  0  0  0  0  0  0  # atno 10764 bound_to 10752
  154.2813  135.6344  153.5401 H   0  0  0  0  0  0  0  0  0  0  0  0  # atno 10765 bound_to 10752
  140.3549  134.7163  157.4293 H   0  0  0  0  0  0  0  0  0  0  0  0  # atno 11005 bound_to 11000
  145.1792  139.2361  143.5301 LP  0  0  0  0  0  0  0  0  0  0  0  0  # atno 17320 bound_to 7965
  146.3496  140.1562  142.8591 LP  0  0  0  0  0  0  0  0  0  0  0  0  # atno 17321 bound_to 7965
  140.7269  143.2646  151.4089 LP  0  0  0  0  0  0  0  0  0  0  0  0  # atno 17342 bound_to 10162
  139.6027  144.1262  152.2215 LP  0  0  0  0  0  0  0  0  0  0  0  0  # atno 17343 bound_to 10162
  157.6378  131.0914  150.8314 LP  0  0  0  0  0  0  0  0  0  0  0  0  # atno 17370 bound_to 10713
  156.8412  130.5049  149.5321 LP  0  0  0  0  0  0  0  0  0  0  0  0  # atno 17371 bound_to 10713
  140.0673  134.5912  155.8681 LP  0  0  0  0  0  0  0  0  0  0  0  0  # atno 17394 bound_to 11000
  141.2001  133.6610  156.5880 LP  0  0  0  0  0  0  0  0  0  0  0  0  # atno 17395 bound_to 11000

$$$$
