AV-unprocessed.smi:1695|AV-procd|sdf|6791|dock1
  -GOLD-   22720 7553D 1   1.00000     0.00000
 Structure written by MMmdl.
 51 53  0  0  0  0  0  0  0  0  2 V2000
  152.7500  143.2636  161.7634 C   0  0  0  0  0  0  0  0  0  0  0  0
  152.2602  142.8546  160.3853 C   0  0  0  0  0  0  0  0  0  0  0  0
  152.3290  141.4947  160.0076 C   0  0  0  0  0  0  0  0  0  0  0  0
  151.8817  141.0727  158.7367 C   0  0  0  0  0  0  0  0  0  0  0  0
  151.8513  139.8111  158.1681 N   0  0  0  0  0  0  0  0  0  0  0  0
  151.3206  140.0661  156.9761 C   0  0  0  0  0  0  0  0  0  0  0  0
  150.9951  141.3452  156.7071 N   0  0  0  0  0  0  0  0  0  0  0  0
  150.3926  141.8520  155.4878 C   0  0  0  0  0  0  0  0  0  0  0  0
  149.3720  140.8682  154.8826 C   0  0  2  0  0  0  0  0  0  0  0  0
  150.0741  139.9898  154.0267 O   0  0  0  0  0  0  0  0  0  0  0  0
  148.2508  141.5601  154.0756 C   0  0  0  0  0  0  0  0  0  0  0  0
  147.3902  142.4257  154.9217 N   0  3  1  0  0  0  0  0  0  0  0  0
  146.1042  142.7906  154.2697 C   0  0  0  0  0  0  0  0  0  0  0  0
  145.3115  143.7896  155.1282 C   0  0  0  0  0  0  0  0  0  0  0  0
  145.0523  143.2282  156.5393 C   0  0  2  0  0  0  0  0  0  0  0  0
  144.3097  144.2487  157.4124 C   0  0  0  0  0  0  0  0  0  0  0  0
  144.9624  145.3693  157.7307 N   0  0  0  0  0  0  0  0  0  0  0  0
  143.1626  144.0286  157.7967 O   0  0  0  0  0  0  0  0  0  0  0  0
  146.3975  142.8288  157.1747 C   0  0  0  0  0  0  0  0  0  0  0  0
  147.1696  141.8508  156.2736 C   0  0  0  0  0  0  0  0  0  0  0  0
  151.3585  142.0558  157.8467 C   0  0  0  0  0  0  0  0  0  0  0  0
  151.2880  143.4126  158.2098 C   0  0  0  0  0  0  0  0  0  0  0  0
  151.7407  143.8174  159.4832 C   0  0  0  0  0  0  0  0  0  0  0  0
  151.6614  145.2845  159.8661 C   0  0  0  0  0  0  0  0  0  0  0  0
  153.0652  142.3983  162.3471 H   0  0  0  0  0  0  0  0  0  0  0  0
  151.9584  143.7685  162.3173 H   0  0  0  0  0  0  0  0  0  0  0  0
  153.6009  143.9401  161.6800 H   0  0  0  0  0  0  0  0  0  0  0  0
  152.7263  140.7616  160.6941 H   0  0  0  0  0  0  0  0  0  0  0  0
  151.1510  139.2767  156.2585 H   0  0  0  0  0  0  0  0  0  0  0  0
  149.9203  142.8111  155.7046 H   0  0  0  0  0  0  0  0  0  0  0  0
  151.1924  142.0540  154.7737 H   0  0  0  0  0  0  0  0  0  0  0  0
  148.9478  140.2752  155.6922 H   0  0  0  0  0  0  0  0  0  0  0  0
  149.6192  139.9422  153.1993 H   0  0  0  0  0  0  0  0  0  0  0  0
  148.6612  142.1671  153.2680 H   0  0  0  0  0  0  0  0  0  0  0  0
  147.6471  140.7881  153.5957 H   0  0  0  0  0  0  0  0  0  0  0  0
  146.2854  143.2340  153.2915 H   0  0  0  0  0  0  0  0  0  0  0  0
  145.5112  141.8901  154.1009 H   0  0  0  0  0  0  0  0  0  0  0  0
  145.8656  144.7282  155.1880 H   0  0  0  0  0  0  0  0  0  0  0  0
  144.3652  144.0208  154.6368 H   0  0  0  0  0  0  0  0  0  0  0  0
  144.4343  142.3329  156.4465 H   0  0  0  0  0  0  0  0  0  0  0  0
  144.5167  146.0724  158.3020 H   0  0  0  0  0  0  0  0  0  0  0  0
  145.9047  145.5106  157.3956 H   0  0  0  0  0  0  0  0  0  0  0  0
  147.0112  143.7141  157.3512 H   0  0  0  0  0  0  0  0  0  0  0  0
  146.2305  142.3701  158.1501 H   0  0  0  0  0  0  0  0  0  0  0  0
  146.6275  140.9076  156.1859 H   0  0  0  0  0  0  0  0  0  0  0  0
  148.1300  141.6233  156.7382 H   0  0  0  0  0  0  0  0  0  0  0  0
  150.8882  144.1363  157.5151 H   0  0  0  0  0  0  0  0  0  0  0  0
  151.2970  145.8929  159.0380 H   0  0  0  0  0  0  0  0  0  0  0  0
  152.6446  145.6613  160.1484 H   0  0  0  0  0  0  0  0  0  0  0  0
  150.9828  145.4227  160.7079 H   0  0  0  0  0  0  0  0  0  0  0  0
  147.9052  143.2836  155.0618 H   0  0  0  0  0  0  0  0  0  0  0  0
  1  2  1  0  0  0  0
  1 25  1  0  0  0  0
  1 26  1  0  0  0  0
  1 27  1  0  0  0  0
  2 23  1  0  0  0  0
  2  3  2  0  0  0  0
  3  4  1  0  0  0  0
  3 28  1  0  0  0  0
  4 21  2  0  0  0  0
  4  5  1  0  0  0  0
  5  6  2  0  0  0  0
  6  7  1  0  0  0  0
  6 29  1  0  0  0  0
  7  8  1  0  0  0  0
  7 21  1  0  0  0  0
  8  9  1  0  0  0  0
  8 30  1  0  0  0  0
  8 31  1  0  0  0  0
  9 10  1  0  0  0  0
  9 11  1  0  0  0  0
  9 32  1  0  0  0  0
 10 33  1  0  0  0  0
 11 12  1  0  0  0  0
 11 34  1  0  0  0  0
 11 35  1  0  0  0  0
 12 20  1  0  0  0  0
 12 13  1  0  0  0  0
 12 51  1  0  0  0  0
 13 14  1  0  0  0  0
 13 36  1  0  0  0  0
 13 37  1  0  0  0  0
 14 15  1  0  0  0  0
 14 38  1  0  0  0  0
 14 39  1  0  0  0  0
 15 16  1  0  0  0  0
 15 19  1  0  0  0  0
 15 40  1  0  0  0  0
 16 17  1  0  0  0  0
 16 18  2  0  0  0  0
 17 41  1  0  0  0  0
 17 42  1  0  0  0  0
 19 20  1  0  0  0  0
 19 43  1  0  0  0  0
 19 44  1  0  0  0  0
 20 45  1  0  0  0  0
 20 46  1  0  0  0  0
 21 22  1  0  0  0  0
 22 23  2  0  0  0  0
 22 47  1  0  0  0  0
 23 24  1  0  0  0  0
 24 48  1  0  0  0  0
 24 49  1  0  0  0  0
 24 50  1  0  0  0  0
M  CHG  1  12   1
M  END
> <s_m_source_file>
AV-unprocessed.smi

> <i_m_source_file_index>
1695

> <i_lp_mmshare_version>
43012

> <i_f3d_flags>
0

> <s_epik_input>
W0NIM11jKFtjSF0xKWMoW0NIM10pW2NIXWMoYzEyKW4oW2NIXW4yKVtDSDJdW0NASF0oW09IXSlbQ0gyXU4zW0NIMl1bQ0gyXVtDSF0oQyg9TylbTkgyXSlbQ0gyXVtDSDJdMw==

> <s_epik_cmdline>
J2VwaWtfcHl0aG9uJywgJy1waCcsICc3LjAnLCAnLXRuJywgJzgnLCAnLW1hJywgJzIwMCcsICctbWV0YWxfYmluZGluZycsICctaW1hZScsICc8aW5maWxlLm1hZT4nLCAnLW9tYWUnLCAnPG91dGZpbGUubWFlPic=

> <r_epik_Ionization_Penalty>
0.113899

> <r_epik_Ionization_Penalty_Charging>
0.0258844

> <r_epik_Ionization_Penalty_Neutral>
0.0880147

> <r_epik_State_Penalty>
0.0974403

> <r_epik_Charging_Adjusted_Penalty>
0.123325

> <i_epik_Tot_Q>
1

> <i_epik_Tot_abs_Q>
1

> <r_epik_Metal_State_Penalty>
0.0851148

> <b_epik_Metal_Only>
0

> <s_lp_Force_Field>
OPLS_2005

> <r_lp_Energy>
21.0029

> <b_lp_Chiralities_Consistent>
1

> <s_lp_Variant>
AV-unprocessed.smi:1695-3

> <Gold.Version>
5.8.1

> <Gold.Id.Protein>
6NUR|6NUR_protein|mol2

> <Gold.PLP.Fitness>
63.5409

> <Gold.PLP.PLP>
-50.3666

> <Gold.PLP.part.hbond>
-4.0000

> <Gold.PLP.part.metal>
0.0000

> <Gold.PLP.part.buried>
-6.7689

> <Gold.PLP.part.nonpolar>
-38.6720

> <Gold.PLP.part.repulsive>
0.1150

> <Gold.PLP.ligand.clash>
0.0000

> <Gold.PLP.ligand.torsion>
0.9336

> <Gold.PLP.Chemscore.Hbond>
4.9353

> <Gold.PLP.Chemscore.CHOScore>
0.0000

> <Gold.PLP.Chemscore.Metal>
0.0000

> <Gold.Chemscore.Hbonds>
donor molecule, donor type, donor heavy atom, donor atom, acceptor molecule, acceptor atom, score
      L1  H    10    33       P1  7957  0.98
      L1  H    12    51       P1  8028  2.00
      L1  H    17    42       P1  8029  0.95
      P1  H  7989  7998       L1    10  0.90

> <Gold.PLP.Chemscore.Internal.Correction>
0.2356

> <Gold.Rescore>
     Score         DG    S(hbond)    S(metal)    S(lipo)     H(rot)  DE(clash)    DE(int)     intcor
     17.53     -19.62       2.18        0.00     120.96       2.85       1.12       0.98       ----

> <Gold.Chemscore.Fitness>
17.5270

> <Gold.Chemscore.DG>
-19.6246

> <Gold.Chemscore.ZeroCoef>
-5.4800

> <Gold.Chemscore.Hbond>
2.1795

> <Gold.Chemscore.Metal>
0.0000

> <Gold.Chemscore.Lipo>
120.9561

> <Gold.Chemscore.Internal_Hbond>
0.0000

> <Gold.Chemscore.DEClash>
1.1178

> <Gold.Chemscore.DEInternal>
0.9797

> <Gold.Chemscore.Rot>
2.8464

> <Gold.Chemscore.Internal.Correction>
   9.000000E+99

> <Gold.Chemscore.Hbonds>
donor molecule, donor type, donor heavy atom, donor atom, acceptor molecule, acceptor atom, score
      L1  H    10    33       P1  7957  0.87
      L1  H    12    51       P1  8028  0.70
      L1  H    17    42       P1  8029  0.21
      P1  H  7989  7998       L1    10  0.12

> <Gold.Chemscore.Hbond.Weighted>
-7.2794

> <Gold.Chemscore.Metal.Weighted>
-0.0000

> <Gold.Chemscore.Lipo.Weighted>
-14.1519

> <Gold.Chemscore.Internal_Hbond.Weighted>
0.0000

> <Gold.Chemscore.DEClash.Weighted>
1.1178

> <Gold.Chemscore.DEInternal.Weighted>
0.9797

> <Gold.Chemscore.Rot.Weighted>
7.2867

> <Gold.Chemscore.Internal.Correction.Weighted>
   9.000000E+99

> <Gold.Protein.RotatedTorsions>
[ 6907 6896 6895 6894 ] final  -91.66 input  -60.11 | X-H torsion
[ 7974 7965 7964 7962 ] final  128.42 input  175.53 | X-H torsion
[ 8008 7997 7996 7995 ] final   49.56 input   59.86 | X-H torsion
[ 10167 10162 10161 10158 ] final    3.94 input  -65.29 | X-H torsion
[ 10718 10713 10712 10709 ] final  -24.81 input   66.30 | X-H torsion
[ 10763 10752 10751 10750 ] final   35.35 input  -60.55 | X-H torsion
[ 11005 11000 10999 10996 ] final   59.82 input  -57.11 | X-H torsion

> <Gold.Protein.ActiveResidues>
 VAL166  LYS551  ARG553  GLY616  TRP617  ASP618  TYR619  PRO620  LYS621  CYS622 
 ASP623  PHE694  ASN695  SER759  ASP760  ASP761  ALA762  ILE779  LEU786  VAL792 
 PHE793  MET794  SER795  GLU796  ALA797  LYS798  CYS799  TRP800  GLU811  SER814 

> <Gold.Protein.RotatedAtoms>
  150.6895  134.2243  159.4408 H   0  0  0  0  0  0  0  0  0  0  0  0  # atno 6907 bound_to 6896
  152.0197  134.9827  160.0579 H   0  0  0  0  0  0  0  0  0  0  0  0  # atno 6908 bound_to 6896
  152.1409  133.4428  159.4803 H   0  0  0  0  0  0  0  0  0  0  0  0  # atno 6909 bound_to 6896
  145.0397  139.3974  143.5108 H   0  0  0  0  0  0  0  0  0  0  0  0  # atno 7974 bound_to 7965
  155.4042  140.3439  155.4259 H   0  0  0  0  0  0  0  0  0  0  0  0  # atno 8008 bound_to 7997
  156.1486  140.1564  156.8838 H   0  0  0  0  0  0  0  0  0  0  0  0  # atno 8009 bound_to 7997
  154.5032  140.0809  156.7823 H   0  0  0  0  0  0  0  0  0  0  0  0  # atno 8010 bound_to 7997
  140.6560  143.7426  150.7654 H   0  0  0  0  0  0  0  0  0  0  0  0  # atno 10167 bound_to 10162
  156.4727  130.4528  149.6859 H   0  0  0  0  0  0  0  0  0  0  0  0  # atno 10718 bound_to 10713
  153.0123  135.6335  154.1813 H   0  0  0  0  0  0  0  0  0  0  0  0  # atno 10763 bound_to 10752
  154.1554  135.2826  155.3125 H   0  0  0  0  0  0  0  0  0  0  0  0  # atno 10764 bound_to 10752
  154.6022  135.5584  153.7446 H   0  0  0  0  0  0  0  0  0  0  0  0  # atno 10765 bound_to 10752
  140.0276  134.6060  155.9551 H   0  0  0  0  0  0  0  0  0  0  0  0  # atno 11005 bound_to 11000
  146.3508  139.9991  142.8678 LP  0  0  0  0  0  0  0  0  0  0  0  0  # atno 17320 bound_to 7965
  145.1663  140.9698  143.4347 LP  0  0  0  0  0  0  0  0  0  0  0  0  # atno 17321 bound_to 7965
  140.1086  143.4721  152.2383 LP  0  0  0  0  0  0  0  0  0  0  0  0  # atno 17342 bound_to 10162
  139.5783  144.7498  151.3707 LP  0  0  0  0  0  0  0  0  0  0  0  0  # atno 17343 bound_to 10162
  156.3602  130.7477  151.2448 LP  0  0  0  0  0  0  0  0  0  0  0  0  # atno 17370 bound_to 10713
  157.7490  131.0352  150.4354 LP  0  0  0  0  0  0  0  0  0  0  0  0  # atno 17371 bound_to 10713
  141.1812  133.6547  156.5027 LP  0  0  0  0  0  0  0  0  0  0  0  0  # atno 17394 bound_to 11000
  140.4280  134.7127  157.4926 LP  0  0  0  0  0  0  0  0  0  0  0  0  # atno 17395 bound_to 11000

$$$$
