AV-unprocessed.smi:1345|AV-procd|sdf|5511|dock10
  -GOLD-   22720 5 93D 1   1.00000     0.00000
 Structure written by MMmdl.
 40 41  0  0  0  0  0  0  0  0  1 V2000
  150.4464  143.7768  158.9013 C   0  0  0  0  0  0  0  0  0  0  0  0
  151.4885  143.6901  160.0337 C   0  0  0  0  0  0  0  0  0  0  0  0
  152.0645  145.0914  160.3067 C   0  0  0  0  0  0  0  0  0  0  0  0
  152.5940  142.6428  159.7351 C   0  0  1  0  0  0  0  0  0  0  0  0
  153.7783  142.7099  160.7184 C   0  0  0  0  0  0  0  0  0  0  0  0
  152.0310  141.2942  159.7722 N   0  0  0  0  0  0  0  0  0  0  0  0
  152.6151  140.1847  159.2911 C   0  0  0  0  0  0  0  0  0  0  0  0
  153.7120  140.1806  158.7328 O   0  0  0  0  0  0  0  0  0  0  0  0
  151.8419  138.8771  159.4697 C   0  0  0  0  0  0  0  0  0  0  0  0
  150.5329  138.9443  158.7372 C   0  0  0  0  0  0  0  0  0  0  0  0
  150.2251  138.3374  157.5441 C   0  0  0  0  0  0  0  0  0  0  0  0
  148.5857  138.6596  157.0510 S   0  0  0  0  0  0  0  0  0  0  0  0
  148.3732  139.6311  158.5106 C   0  0  0  0  0  0  0  0  0  0  0  0
  147.1862  140.3160  158.9065 N   0  0  0  0  0  0  0  0  0  0  0  0
  146.0345  140.4319  158.0171 C   0  0  0  0  0  0  0  0  0  0  0  0
  145.0207  141.2286  158.8327 C   0  0  0  0  0  0  0  0  0  0  0  0
  145.7343  141.4537  160.0675 N   0  0  0  0  0  0  0  0  0  0  0  0
  146.9613  140.9277  160.0865 C   0  0  0  0  0  0  0  0  0  0  0  0
  147.7296  141.0098  161.0430 O   0  0  0  0  0  0  0  0  0  0  0  0
  149.4713  139.6824  159.2719 N   0  0  0  0  0  0  0  0  0  0  0  0
  150.9150  144.0453  157.9541 H   0  0  0  0  0  0  0  0  0  0  0  0
  149.6893  144.5304  159.1207 H   0  0  0  0  0  0  0  0  0  0  0  0
  149.9203  142.8332  158.7572 H   0  0  0  0  0  0  0  0  0  0  0  0
  150.9599  143.3753  160.9346 H   0  0  0  0  0  0  0  0  0  0  0  0
  152.6681  145.4420  159.4688 H   0  0  0  0  0  0  0  0  0  0  0  0
  152.6875  145.1079  161.2003 H   0  0  0  0  0  0  0  0  0  0  0  0
  151.2677  145.8183  160.4667 H   0  0  0  0  0  0  0  0  0  0  0  0
  152.9736  142.8353  158.7298 H   0  0  0  0  0  0  0  0  0  0  0  0
  154.3115  143.6571  160.6461 H   0  0  0  0  0  0  0  0  0  0  0  0
  154.5064  141.9247  160.5123 H   0  0  0  0  0  0  0  0  0  0  0  0
  153.4455  142.5885  161.7497 H   0  0  0  0  0  0  0  0  0  0  0  0
  151.1291  141.1935  160.2154 H   0  0  0  0  0  0  0  0  0  0  0  0
  152.4517  138.0481  159.1084 H   0  0  0  0  0  0  0  0  0  0  0  0
  151.6762  138.6969  160.5327 H   0  0  0  0  0  0  0  0  0  0  0  0
  150.8608  137.7158  156.9308 H   0  0  0  0  0  0  0  0  0  0  0  0
  146.3070  140.9547  157.0990 H   0  0  0  0  0  0  0  0  0  0  0  0
  145.6483  139.4455  157.7555 H   0  0  0  0  0  0  0  0  0  0  0  0
  144.7656  142.1767  158.3577 H   0  0  0  0  0  0  0  0  0  0  0  0
  144.1058  140.6637  159.0157 H   0  0  0  0  0  0  0  0  0  0  0  0
  145.3310  141.9645  160.8398 H   0  0  0  0  0  0  0  0  0  0  0  0
  1  2  1  0  0  0  0
  1 21  1  0  0  0  0
  1 22  1  0  0  0  0
  1 23  1  0  0  0  0
  2  3  1  0  0  0  0
  2  4  1  0  0  0  0
  2 24  1  0  0  0  0
  3 25  1  0  0  0  0
  3 26  1  0  0  0  0
  3 27  1  0  0  0  0
  4  5  1  0  0  0  0
  4  6  1  0  0  0  0
  4 28  1  0  0  0  0
  5 29  1  0  0  0  0
  5 30  1  0  0  0  0
  5 31  1  0  0  0  0
  6  7  1  0  0  0  0
  6 32  1  0  0  0  0
  7  8  2  0  0  0  0
  7  9  1  0  0  0  0
  9 10  1  0  0  0  0
  9 33  1  0  0  0  0
  9 34  1  0  0  0  0
 10 20  1  0  0  0  0
 10 11  2  0  0  0  0
 11 12  1  0  0  0  0
 11 35  1  0  0  0  0
 12 13  1  0  0  0  0
 13 14  1  0  0  0  0
 13 20  2  0  0  0  0
 14 18  1  0  0  0  0
 14 15  1  0  0  0  0
 15 16  1  0  0  0  0
 15 36  1  0  0  0  0
 15 37  1  0  0  0  0
 16 17  1  0  0  0  0
 16 38  1  0  0  0  0
 16 39  1  0  0  0  0
 17 18  1  0  0  0  0
 17 40  1  0  0  0  0
 18 19  2  0  0  0  0
M  END
> <s_m_source_file>
AV-unprocessed.smi

> <i_m_source_file_index>
1345

> <i_lp_mmshare_version>
43012

> <i_f3d_flags>
0

> <s_epik_input>
W0NIM11bQ0hdKFtDSDNdKVtDQEhdKFtDSDNdKVtOSF1DKD1PKVtDSDJdYzFbY0hdc2MobjEpTjJbQ0gyXVtDSDJdW05IXUMyPU8=

> <s_epik_cmdline>
J2VwaWtfcHl0aG9uJywgJy1waCcsICc3LjAnLCAnLXRuJywgJzgnLCAnLW1hJywgJzIwMCcsICctbWV0YWxfYmluZGluZycsICctaW1hZScsICc8aW5maWxlLm1hZT4nLCAnLW9tYWUnLCAnPG91dGZpbGUubWFlPic=

> <r_lp_tautomer_probability>
1

> <r_epik_Ionization_Penalty>
0.000122034

> <r_epik_Ionization_Penalty_Charging>
0

> <r_epik_Ionization_Penalty_Neutral>
0.000122034

> <r_epik_State_Penalty>
-0

> <r_epik_Charging_Adjusted_Penalty>
0

> <i_epik_Tot_Q>
0

> <i_epik_Tot_abs_Q>
0

> <r_epik_Metal_State_Penalty>
-0

> <b_epik_Metal_Only>
0

> <s_lp_Force_Field>
OPLS_2005

> <r_lp_Energy>
32.8432

> <b_lp_Chiralities_Consistent>
1

> <s_lp_Variant>
AV-unprocessed.smi:1345-2

> <Gold.Version>
5.8.1

> <Gold.Id.Protein>
6NUR|6NUR_protein|mol2

> <Gold.PLP.Fitness>
43.0785

> <Gold.PLP.PLP>
-41.1049

> <Gold.PLP.part.hbond>
-2.0000

> <Gold.PLP.part.metal>
0.0000

> <Gold.PLP.part.buried>
-2.8932

> <Gold.PLP.part.nonpolar>
-36.5234

> <Gold.PLP.part.repulsive>
0.2701

> <Gold.PLP.ligand.clash>
0.0000

> <Gold.PLP.ligand.torsion>
0.5174

> <Gold.PLP.Chemscore.Hbond>
0.9920

> <Gold.PLP.Chemscore.CHOScore>
0.0000

> <Gold.PLP.Chemscore.Metal>
0.0000

> <Gold.Chemscore.Hbonds>
donor molecule, donor type, donor heavy atom, donor atom, acceptor molecule, acceptor atom, score
      P1  H  7997  8009       L1     8  0.94

> <Gold.PLP.Chemscore.Internal.Correction>
0.0325

> <Gold.Rescore>
     Score         DG    S(hbond)    S(metal)    S(lipo)     H(rot)  DE(clash)    DE(int)     intcor
     13.74     -15.63       0.93        0.00      98.21       1.74       0.11       1.77       ----

> <Gold.Chemscore.Fitness>
13.7415

> <Gold.Chemscore.DG>
-15.6265

> <Gold.Chemscore.ZeroCoef>
-5.4800

> <Gold.Chemscore.Hbond>
0.9278

> <Gold.Chemscore.Metal>
0.0000

> <Gold.Chemscore.Lipo>
98.2056

> <Gold.Chemscore.Internal_Hbond>
0.0000

> <Gold.Chemscore.DEClash>
0.1121

> <Gold.Chemscore.DEInternal>
1.7729

> <Gold.Chemscore.Rot>
1.7353

> <Gold.Chemscore.Internal.Correction>
   9.000000E+99

> <Gold.Chemscore.Hbonds>
donor molecule, donor type, donor heavy atom, donor atom, acceptor molecule, acceptor atom, score
      P1  H  7997  8009       L1     8  0.91

> <Gold.Chemscore.Hbond.Weighted>
-3.0987

> <Gold.Chemscore.Metal.Weighted>
-0.0000

> <Gold.Chemscore.Lipo.Weighted>
-11.4901

> <Gold.Chemscore.Internal_Hbond.Weighted>
0.0000

> <Gold.Chemscore.DEClash.Weighted>
0.1121

> <Gold.Chemscore.DEInternal.Weighted>
1.7729

> <Gold.Chemscore.Rot.Weighted>
4.4423

> <Gold.Chemscore.Internal.Correction.Weighted>
   9.000000E+99

> <Gold.Protein.RotatedTorsions>
[ 6907 6896 6895 6894 ] final  -53.85 input  -60.11 | X-H torsion
[ 7974 7965 7964 7962 ] final    7.89 input  175.53 | X-H torsion
[ 8008 7997 7996 7995 ] final  136.52 input   59.86 | X-H torsion
[ 10167 10162 10161 10158 ] final  -26.89 input  -65.29 | X-H torsion
[ 10718 10713 10712 10709 ] final  139.68 input   66.30 | X-H torsion
[ 10763 10752 10751 10750 ] final  168.83 input  -60.55 | X-H torsion
[ 11005 11000 10999 10996 ] final -170.66 input  -57.11 | X-H torsion

> <Gold.Protein.ActiveResidues>
 VAL166  LYS551  ARG553  GLY616  TRP617  ASP618  TYR619  PRO620  LYS621  CYS622 
 ASP623  PHE694  ASN695  SER759  ASP760  ASP761  ALA762  ILE779  LEU786  VAL792 
 PHE793  MET794  SER795  GLU796  ALA797  LYS798  CYS799  TRP800  GLU811  SER814 

> <Gold.Protein.RotatedAtoms>
  150.8390  134.7674  159.6916 H   0  0  0  0  0  0  0  0  0  0  0  0  # atno 6907 bound_to 6896
  152.4481  134.5449  159.9859 H   0  0  0  0  0  0  0  0  0  0  0  0  # atno 6908 bound_to 6896
  151.5593  133.3368  159.3004 H   0  0  0  0  0  0  0  0  0  0  0  0  # atno 6909 bound_to 6896
  146.2422  140.0016  142.8415 H   0  0  0  0  0  0  0  0  0  0  0  0  # atno 7974 bound_to 7965
  156.3004  140.2443  156.3759 H   0  0  0  0  0  0  0  0  0  0  0  0  # atno 8008 bound_to 7997
  154.8746  140.0415  157.1765 H   0  0  0  0  0  0  0  0  0  0  0  0  # atno 8009 bound_to 7997
  154.8759  140.2942  155.5457 H   0  0  0  0  0  0  0  0  0  0  0  0  # atno 8010 bound_to 7997
  140.7280  143.4139  151.1060 H   0  0  0  0  0  0  0  0  0  0  0  0  # atno 10167 bound_to 10162
  157.4117  131.1029  151.0447 H   0  0  0  0  0  0  0  0  0  0  0  0  # atno 10718 bound_to 10713
  154.3743  135.2753  155.2248 H   0  0  0  0  0  0  0  0  0  0  0  0  # atno 10763 bound_to 10752
  154.4382  135.5960  153.6116 H   0  0  0  0  0  0  0  0  0  0  0  0  # atno 10764 bound_to 10752
  152.9837  135.6012  154.3978 H   0  0  0  0  0  0  0  0  0  0  0  0  # atno 10765 bound_to 10752
  140.5170  134.5746  157.5036 H   0  0  0  0  0  0  0  0  0  0  0  0  # atno 11005 bound_to 11000
  145.1410  140.9571  143.4488 LP  0  0  0  0  0  0  0  0  0  0  0  0  # atno 17320 bound_to 7965
  145.0296  139.3353  143.6031 LP  0  0  0  0  0  0  0  0  0  0  0  0  # atno 17321 bound_to 7965
  139.7776  143.8402  152.3132 LP  0  0  0  0  0  0  0  0  0  0  0  0  # atno 17342 bound_to 10162
  139.8342  144.7240  150.9412 LP  0  0  0  0  0  0  0  0  0  0  0  0  # atno 17343 bound_to 10162
  157.1409  130.6142  149.5555 LP  0  0  0  0  0  0  0  0  0  0  0  0  # atno 17370 bound_to 10713
  155.9853  130.4882  150.7023 LP  0  0  0  0  0  0  0  0  0  0  0  0  # atno 17371 bound_to 10713
  139.9627  134.7426  156.0204 LP  0  0  0  0  0  0  0  0  0  0  0  0  # atno 17394 bound_to 11000
  141.1355  133.6576  156.3581 LP  0  0  0  0  0  0  0  0  0  0  0  0  # atno 17395 bound_to 11000

$$$$
