AV-unprocessed.smi:1561|AV-procd|sdf|6286|dock8
  -GOLD-   22720 6483D 1   1.00000     0.00000
 Structure written by MMmdl.
 33 34  0  0  0  0  0  0  0  0  1 V2000
  151.8906  138.5611  154.3842 C   0  0  0  0  0  0  0  0  0  0  0  0
  151.0116  138.9875  155.5777 C   0  0  1  0  0  0  0  0  0  0  0  0
  151.8355  139.5350  156.7537 C   0  0  0  0  0  0  0  0  0  0  0  0
  153.0653  139.5697  156.6971 O   0  0  0  0  0  0  0  0  0  0  0  0
  151.1374  139.9587  157.8194 N   0  0  0  0  0  0  0  0  0  0  0  0
  151.7065  140.5239  159.0387 C   0  0  0  0  0  0  0  0  0  0  0  0
  152.1859  141.9732  158.8334 C   0  0  1  0  0  0  0  0  0  0  0  0
  151.2137  142.8796  158.1019 C   0  0  0  0  0  0  0  0  0  0  0  0
  151.7125  144.2687  158.4911 C   0  0  0  0  0  0  0  0  0  0  0  0
  152.3235  144.1249  159.7706 O   0  0  0  0  0  0  0  0  0  0  0  0
  152.3722  142.7495  160.1357 C   0  0  0  0  0  0  0  0  0  0  0  0
  149.9807  139.9450  155.1932 N   0  0  0  0  0  0  0  0  0  0  0  0
  149.1392  139.8912  154.1003 C   0  0  0  0  0  0  0  0  0  0  0  0
  148.3128  140.9764  154.1631 C   0  0  0  0  0  0  0  0  0  0  0  0
  148.7196  141.6417  155.3526 C   0  0  0  0  0  0  0  0  0  0  0  0
  149.7095  141.0193  155.9706 N   0  0  0  0  0  0  0  0  0  0  0  0
  152.6134  137.8005  154.6822 H   0  0  0  0  0  0  0  0  0  0  0  0
  152.4487  139.3987  153.9635 H   0  0  0  0  0  0  0  0  0  0  0  0
  151.2813  138.1364  153.5860 H   0  0  0  0  0  0  0  0  0  0  0  0
  150.4983  138.0909  155.9294 H   0  0  0  0  0  0  0  0  0  0  0  0
  150.1307  139.8925  157.7787 H   0  0  0  0  0  0  0  0  0  0  0  0
  150.9946  140.4647  159.8640 H   0  0  0  0  0  0  0  0  0  0  0  0
  152.5535  139.8998  159.3245 H   0  0  0  0  0  0  0  0  0  0  0  0
  153.1352  141.9699  158.2948 H   0  0  0  0  0  0  0  0  0  0  0  0
  151.2039  142.7212  157.0232 H   0  0  0  0  0  0  0  0  0  0  0  0
  150.2002  142.7297  158.4773 H   0  0  0  0  0  0  0  0  0  0  0  0
  152.4679  144.6148  157.7849 H   0  0  0  0  0  0  0  0  0  0  0  0
  150.9082  145.0044  158.5145 H   0  0  0  0  0  0  0  0  0  0  0  0
  151.5526  142.5474  160.8267 H   0  0  0  0  0  0  0  0  0  0  0  0
  153.3072  142.5044  160.6400 H   0  0  0  0  0  0  0  0  0  0  0  0
  149.1977  139.0927  153.3752 H   0  0  0  0  0  0  0  0  0  0  0  0
  147.5332  141.2508  153.4681 H   0  0  0  0  0  0  0  0  0  0  0  0
  148.3249  142.5493  155.7848 H   0  0  0  0  0  0  0  0  0  0  0  0
  1  2  1  0  0  0  0
  1 17  1  0  0  0  0
  1 18  1  0  0  0  0
  1 19  1  0  0  0  0
  2  3  1  0  0  0  0
  2 12  1  0  0  0  0
  2 20  1  0  0  0  0
  3  4  2  0  0  0  0
  3  5  1  0  0  0  0
  5  6  1  0  0  0  0
  5 21  1  0  0  0  0
  6  7  1  0  0  0  0
  6 22  1  0  0  0  0
  6 23  1  0  0  0  0
  7 11  1  0  0  0  0
  7  8  1  0  0  0  0
  7 24  1  0  0  0  0
  8  9  1  0  0  0  0
  8 25  1  0  0  0  0
  8 26  1  0  0  0  0
  9 10  1  0  0  0  0
  9 27  1  0  0  0  0
  9 28  1  0  0  0  0
 10 11  1  0  0  0  0
 11 29  1  0  0  0  0
 11 30  1  0  0  0  0
 12 16  1  0  0  0  0
 12 13  1  0  0  0  0
 13 14  2  0  0  0  0
 13 31  1  0  0  0  0
 14 15  1  0  0  0  0
 14 32  1  0  0  0  0
 15 16  2  0  0  0  0
 15 33  1  0  0  0  0
M  END
> <s_m_source_file>
AV-unprocessed.smi

> <i_m_source_file_index>
1561

> <i_lp_mmshare_version>
43012

> <i_f3d_flags>
0

> <s_epik_input>
bjFbY0hdW2NIXVtjSF1uMVtDQEhdKFtDSDNdKUMoPU8pW05IXVtDSDJdW0NAQEhdMltDSDJdW0NIMl1PW0NIMl0y

> <s_epik_cmdline>
J2VwaWtfcHl0aG9uJywgJy1waCcsICc3LjAnLCAnLXRuJywgJzgnLCAnLW1hJywgJzIwMCcsICctbWV0YWxfYmluZGluZycsICctaW1hZScsICc8aW5maWxlLm1hZT4nLCAnLW9tYWUnLCAnPG91dGZpbGUubWFlPic=

> <r_lp_tautomer_probability>
1

> <r_epik_Ionization_Penalty>
3.82077e-05

> <r_epik_Ionization_Penalty_Charging>
0

> <r_epik_Ionization_Penalty_Neutral>
3.82077e-05

> <r_epik_State_Penalty>
-0

> <r_epik_Charging_Adjusted_Penalty>
0

> <i_epik_Tot_Q>
0

> <i_epik_Tot_abs_Q>
0

> <r_epik_Metal_State_Penalty>
-0

> <b_epik_Metal_Only>
0

> <s_lp_Force_Field>
OPLS_2005

> <r_lp_Energy>
22.4357

> <b_lp_Chiralities_Consistent>
1

> <s_lp_Variant>
AV-unprocessed.smi:1561-4

> <Gold.Version>
5.8.1

> <Gold.Id.Protein>
6NUR|6NUR_protein|mol2

> <Gold.PLP.Fitness>
38.3882

> <Gold.PLP.PLP>
-31.8253

> <Gold.PLP.part.hbond>
-0.7742

> <Gold.PLP.part.metal>
0.0000

> <Gold.PLP.part.buried>
-1.6301

> <Gold.PLP.part.nonpolar>
-29.0455

> <Gold.PLP.part.repulsive>
0.1331

> <Gold.PLP.ligand.clash>
0.0000

> <Gold.PLP.ligand.torsion>
0.5772

> <Gold.PLP.Chemscore.Hbond>
1.0000

> <Gold.PLP.Chemscore.CHOScore>
1.5375

> <Gold.PLP.Chemscore.Metal>
0.0000

> <Gold.Chemscore.Hbonds>
donor molecule, donor type, donor heavy atom, donor atom, acceptor molecule, acceptor atom, score
      P1  H  7997  8009       L1     4  0.87
      L1  C    13    31       P1  7957  0.60
      L1  C    15    33       P1  8028  1.00

> <Gold.PLP.Chemscore.Internal.Correction>
0.1049

> <Gold.Rescore>
     Score         DG    S(hbond)    S(metal)    S(lipo)     H(rot)  DE(clash)    DE(int)     intcor
     11.93     -14.86       0.98        0.00      87.32       1.61       0.28       2.65       ----

> <Gold.Chemscore.Fitness>
11.9299

> <Gold.Chemscore.DG>
-14.8603

> <Gold.Chemscore.ZeroCoef>
-5.4800

> <Gold.Chemscore.Hbond>
0.9831

> <Gold.Chemscore.Metal>
0.0000

> <Gold.Chemscore.Lipo>
87.3230

> <Gold.Chemscore.Internal_Hbond>
0.0000

> <Gold.Chemscore.DEClash>
0.2841

> <Gold.Chemscore.DEInternal>
2.6463

> <Gold.Chemscore.Rot>
1.6094

> <Gold.Chemscore.Internal.Correction>
   9.000000E+99

> <Gold.Chemscore.Hbonds>
donor molecule, donor type, donor heavy atom, donor atom, acceptor molecule, acceptor atom, score
      P1  H  7997  8009       L1     4  0.80

> <Gold.Chemscore.Hbond.Weighted>
-3.2836

> <Gold.Chemscore.Metal.Weighted>
-0.0000

> <Gold.Chemscore.Lipo.Weighted>
-10.2168

> <Gold.Chemscore.Internal_Hbond.Weighted>
0.0000

> <Gold.Chemscore.DEClash.Weighted>
0.2841

> <Gold.Chemscore.DEInternal.Weighted>
2.6463

> <Gold.Chemscore.Rot.Weighted>
4.1201

> <Gold.Chemscore.Internal.Correction.Weighted>
   9.000000E+99

> <Gold.Protein.RotatedTorsions>
[ 6907 6896 6895 6894 ] final  117.98 input  -60.11 | X-H torsion
[ 7974 7965 7964 7962 ] final  -31.99 input  175.53 | X-H torsion
[ 8008 7997 7996 7995 ] final -153.08 input   59.86 | X-H torsion
[ 10167 10162 10161 10158 ] final  -65.38 input  -65.29 | X-H torsion
[ 10718 10713 10712 10709 ] final -147.42 input   66.30 | X-H torsion
[ 10763 10752 10751 10750 ] final  121.82 input  -60.55 | X-H torsion
[ 11005 11000 10999 10996 ] final   82.45 input  -57.11 | X-H torsion

> <Gold.Protein.ActiveResidues>
 VAL166  LYS551  ARG553  GLY616  TRP617  ASP618  TYR619  PRO620  LYS621  CYS622 
 ASP623  PHE694  ASN695  SER759  ASP760  ASP761  ALA762  ILE779  LEU786  VAL792 
 PHE793  MET794  SER795  GLU796  ALA797  LYS798  CYS799  TRP800  GLU811  SER814 

> <Gold.Protein.RotatedAtoms>
  152.4575  133.7753  159.6820 H   0  0  0  0  0  0  0  0  0  0  0  0  # atno 6907 bound_to 6896
  150.8506  133.7782  159.3033 H   0  0  0  0  0  0  0  0  0  0  0  0  # atno 6908 bound_to 6896
  151.5379  135.1071  159.9971 H   0  0  0  0  0  0  0  0  0  0  0  0  # atno 6909 bound_to 6896
  146.1025  140.5736  142.8814 H   0  0  0  0  0  0  0  0  0  0  0  0  # atno 7974 bound_to 7965
  155.6652  140.0727  157.2540 H   0  0  0  0  0  0  0  0  0  0  0  0  # atno 8008 bound_to 7997
  154.4134  140.1709  156.1871 H   0  0  0  0  0  0  0  0  0  0  0  0  # atno 8009 bound_to 7997
  155.9663  140.3365  155.6538 H   0  0  0  0  0  0  0  0  0  0  0  0  # atno 8010 bound_to 7997
  140.5734  143.2319  151.6492 H   0  0  0  0  0  0  0  0  0  0  0  0  # atno 10167 bound_to 10162
  156.4073  130.7964  151.2179 H   0  0  0  0  0  0  0  0  0  0  0  0  # atno 10718 bound_to 10713
  153.6200  135.3415  155.3007 H   0  0  0  0  0  0  0  0  0  0  0  0  # atno 10763 bound_to 10752
  154.8602  135.4270  154.2218 H   0  0  0  0  0  0  0  0  0  0  0  0  # atno 10764 bound_to 10752
  153.3088  135.7030  153.7207 H   0  0  0  0  0  0  0  0  0  0  0  0  # atno 10765 bound_to 10752
  139.9063  134.8072  156.2176 H   0  0  0  0  0  0  0  0  0  0  0  0  # atno 11005 bound_to 11000
  144.7444  140.5028  143.6846 LP  0  0  0  0  0  0  0  0  0  0  0  0  # atno 17320 bound_to 7965
  145.5827  139.1490  143.3226 LP  0  0  0  0  0  0  0  0  0  0  0  0  # atno 17321 bound_to 7965
  139.5129  144.3459  152.0697 LP  0  0  0  0  0  0  0  0  0  0  0  0  # atno 17342 bound_to 10162
  140.2599  144.4078  150.6189 LP  0  0  0  0  0  0  0  0  0  0  0  0  # atno 17343 bound_to 10162
  157.7506  131.0268  150.3979 LP  0  0  0  0  0  0  0  0  0  0  0  0  # atno 17370 bound_to 10713
  156.4271  130.3964  149.6786 LP  0  0  0  0  0  0  0  0  0  0  0  0  # atno 17371 bound_to 10713
  141.0426  133.6930  156.1625 LP  0  0  0  0  0  0  0  0  0  0  0  0  # atno 17394 bound_to 11000
  140.6933  134.4643  157.5588 LP  0  0  0  0  0  0  0  0  0  0  0  0  # atno 17395 bound_to 11000

$$$$
