AV-unprocessed.smi:1907|AV-procd|sdf|7731|dock3
  -GOLD-   22720 9473D 1   1.00000     0.00000
 Structure written by MMmdl.
 32 33  0  0  0  0  0  0  0  0  1 V2000
  150.1046  136.2908  154.4912 N   0  0  0  0  0  0  0  0  0  0  0  0
  150.8242  135.7572  155.4824 C   0  0  0  0  0  0  0  0  0  0  0  0
  151.9464  136.1651  155.7734 O   0  0  0  0  0  0  0  0  0  0  0  0
  150.1964  134.5963  156.2562 C   0  0  0  0  0  0  0  0  0  0  0  0
  149.8247  133.4849  155.3183 C   0  0  0  0  0  0  0  0  0  0  0  0
  150.1919  132.1641  155.4129 C   0  0  0  0  0  0  0  0  0  0  0  0
  149.5468  131.2096  154.1040 S   0  0  0  0  0  0  0  0  0  0  0  0
  148.7666  132.6564  153.4854 C   0  0  0  0  0  0  0  0  0  0  0  0
  148.0060  132.6536  152.2880 N   0  0  0  0  0  0  0  0  0  0  0  0
  146.9326  133.3946  151.9462 C   0  0  0  0  0  0  0  0  0  0  0  0
  146.4998  134.2365  152.7323 O   0  0  0  0  0  0  0  0  0  0  0  0
  146.2522  133.2222  150.5675 C   0  0  0  0  0  0  0  0  0  0  0  0
  144.9599  134.0480  150.4295 C   0  0  0  0  0  0  0  0  0  0  0  0
  143.8003  133.1419  150.8716 C   0  0  0  0  0  0  0  0  0  0  0  0
  144.3651  131.7180  150.9576 C   0  0  0  0  0  0  0  0  0  0  0  0
  145.7655  131.7831  150.3422 C   0  0  0  0  0  0  0  0  0  0  0  0
  149.0312  133.7552  154.1990 N   0  0  0  0  0  0  0  0  0  0  0  0
  150.4785  137.0635  153.9598 H   0  0  0  0  0  0  0  0  0  0  0  0
  149.1871  135.9250  154.2815 H   0  0  0  0  0  0  0  0  0  0  0  0
  150.8950  134.2453  157.0170 H   0  0  0  0  0  0  0  0  0  0  0  0
  149.3172  134.9573  156.7912 H   0  0  0  0  0  0  0  0  0  0  0  0
  150.8032  131.6973  156.1710 H   0  0  0  0  0  0  0  0  0  0  0  0
  148.3203  131.9998  151.5858 H   0  0  0  0  0  0  0  0  0  0  0  0
  146.9386  133.5377  149.7824 H   0  0  0  0  0  0  0  0  0  0  0  0
  144.9847  134.9816  150.9939 H   0  0  0  0  0  0  0  0  0  0  0  0
  144.8225  134.3228  149.3829 H   0  0  0  0  0  0  0  0  0  0  0  0
  143.4113  133.4528  151.8418 H   0  0  0  0  0  0  0  0  0  0  0  0
  142.9773  133.1984  150.1584 H   0  0  0  0  0  0  0  0  0  0  0  0
  144.4375  131.4174  152.0036 H   0  0  0  0  0  0  0  0  0  0  0  0
  143.7304  130.9890  150.4530 H   0  0  0  0  0  0  0  0  0  0  0  0
  145.7073  131.5874  149.2706 H   0  0  0  0  0  0  0  0  0  0  0  0
  146.4308  131.0314  150.7693 H   0  0  0  0  0  0  0  0  0  0  0  0
  1  2  1  0  0  0  0
  1 18  1  0  0  0  0
  1 19  1  0  0  0  0
  2  3  2  0  0  0  0
  2  4  1  0  0  0  0
  4  5  1  0  0  0  0
  4 20  1  0  0  0  0
  4 21  1  0  0  0  0
  5 17  1  0  0  0  0
  5  6  2  0  0  0  0
  6  7  1  0  0  0  0
  6 22  1  0  0  0  0
  7  8  1  0  0  0  0
  8  9  1  0  0  0  0
  8 17  2  0  0  0  0
  9 10  1  0  0  0  0
  9 23  1  0  0  0  0
 10 11  2  0  0  0  0
 10 12  1  0  0  0  0
 12 16  1  0  0  0  0
 12 13  1  0  0  0  0
 12 24  1  0  0  0  0
 13 14  1  0  0  0  0
 13 25  1  0  0  0  0
 13 26  1  0  0  0  0
 14 15  1  0  0  0  0
 14 27  1  0  0  0  0
 14 28  1  0  0  0  0
 15 16  1  0  0  0  0
 15 29  1  0  0  0  0
 15 30  1  0  0  0  0
 16 31  1  0  0  0  0
 16 32  1  0  0  0  0
M  END
> <s_m_source_file>
AV-unprocessed.smi

> <i_m_source_file_index>
1907

> <i_lp_mmshare_version>
43012

> <i_f3d_flags>
0

> <s_epik_input>
W05IMl1DKD1PKVtDSDJdYzFbY0hdc2MobjEpW05IXUMoPU8pW0NIXTJbQ0gyXVtDSDJdW0NIMl1bQ0gyXTI=

> <s_epik_cmdline>
J2VwaWtfcHl0aG9uJywgJy1waCcsICc3LjAnLCAnLXRuJywgJzgnLCAnLW1hJywgJzIwMCcsICctbWV0YWxfYmluZGluZycsICctaW1hZScsICc8aW5maWxlLm1hZT4nLCAnLW9tYWUnLCAnPG91dGZpbGUubWFlPic=

> <r_lp_tautomer_probability>
1

> <r_epik_Ionization_Penalty>
0.00017492

> <r_epik_Ionization_Penalty_Charging>
0

> <r_epik_Ionization_Penalty_Neutral>
0.00017492

> <r_epik_State_Penalty>
-0

> <r_epik_Charging_Adjusted_Penalty>
0

> <i_epik_Tot_Q>
0

> <i_epik_Tot_abs_Q>
0

> <r_epik_Metal_State_Penalty>
0.109333

> <b_epik_Metal_Only>
0

> <s_lp_Force_Field>
OPLS_2005

> <r_lp_Energy>
23.3326

> <b_lp_Chiralities_Consistent>
1

> <s_lp_Variant>
AV-unprocessed.smi:1907-1

> <Gold.Version>
5.8.1

> <Gold.Id.Protein>
6NUR|6NUR_protein|mol2

> <Gold.PLP.Fitness>
38.9537

> <Gold.PLP.PLP>
-33.6083

> <Gold.PLP.part.hbond>
-3.1061

> <Gold.PLP.part.metal>
0.0000

> <Gold.PLP.part.buried>
-5.6247

> <Gold.PLP.part.nonpolar>
-25.4914

> <Gold.PLP.part.repulsive>
0.3223

> <Gold.PLP.ligand.clash>
0.0000

> <Gold.PLP.ligand.torsion>
0.3421

> <Gold.PLP.Chemscore.Hbond>
2.0000

> <Gold.PLP.Chemscore.CHOScore>
0.0000

> <Gold.PLP.Chemscore.Metal>
0.0000

> <Gold.Chemscore.Hbonds>
donor molecule, donor type, donor heavy atom, donor atom, acceptor molecule, acceptor atom, score
      L1  H     9    23       P1 10747  1.00
      P1  H 10752 10763       L1     3  1.00

> <Gold.PLP.Chemscore.Internal.Correction>
0.0296

> <Gold.Rescore>
     Score         DG    S(hbond)    S(metal)    S(lipo)     H(rot)  DE(clash)    DE(int)     intcor
     13.47     -15.12       1.98        0.00      67.36       1.90       0.00       1.65       ----

> <Gold.Chemscore.Fitness>
13.4651

> <Gold.Chemscore.DG>
-15.1166

> <Gold.Chemscore.ZeroCoef>
-5.4800

> <Gold.Chemscore.Hbond>
1.9839

> <Gold.Chemscore.Metal>
0.0000

> <Gold.Chemscore.Lipo>
67.3631

> <Gold.Chemscore.Internal_Hbond>
0.0000

> <Gold.Chemscore.DEClash>
0.0029

> <Gold.Chemscore.DEInternal>
1.6486

> <Gold.Chemscore.Rot>
1.9028

> <Gold.Chemscore.Internal.Correction>
   9.000000E+99

> <Gold.Chemscore.Hbonds>
donor molecule, donor type, donor heavy atom, donor atom, acceptor molecule, acceptor atom, score
      L1  H     1    19       P1  7948  0.01
      L1  H     9    23       P1 10747  1.00
      P1  H 10752 10763       L1     3  0.86

> <Gold.Chemscore.Hbond.Weighted>
-6.6262

> <Gold.Chemscore.Metal.Weighted>
-0.0000

> <Gold.Chemscore.Lipo.Weighted>
-7.8815

> <Gold.Chemscore.Internal_Hbond.Weighted>
0.0000

> <Gold.Chemscore.DEClash.Weighted>
0.0029

> <Gold.Chemscore.DEInternal.Weighted>
1.6486

> <Gold.Chemscore.Rot.Weighted>
4.8711

> <Gold.Chemscore.Internal.Correction.Weighted>
   9.000000E+99

> <Gold.Protein.RotatedTorsions>
[ 6907 6896 6895 6894 ] final   50.71 input  -60.11 | X-H torsion
[ 7974 7965 7964 7962 ] final  179.45 input  175.53 | X-H torsion
[ 8008 7997 7996 7995 ] final -164.95 input   59.86 | X-H torsion
[ 10167 10162 10161 10158 ] final    3.86 input  -65.29 | X-H torsion
[ 10718 10713 10712 10709 ] final -176.96 input   66.30 | X-H torsion
[ 10763 10752 10751 10750 ] final   85.36 input  -60.55 | X-H torsion
[ 11005 11000 10999 10996 ] final  136.77 input  -57.11 | X-H torsion

> <Gold.Protein.ActiveResidues>
 VAL166  LYS551  ARG553  GLY616  TRP617  ASP618  TYR619  PRO620  LYS621  CYS622 
 ASP623  PHE694  ASN695  SER759  ASP760  ASP761  ALA762  ILE779  LEU786  VAL792 
 PHE793  MET794  SER795  GLU796  ALA797  LYS798  CYS799  TRP800  GLU811  SER814 

> <Gold.Protein.RotatedAtoms>
  152.3048  134.7568  160.0349 H   0  0  0  0  0  0  0  0  0  0  0  0  # atno 6907 bound_to 6896
  151.8069  133.3371  159.3551 H   0  0  0  0  0  0  0  0  0  0  0  0  # atno 6908 bound_to 6896
  150.7291  134.5631  159.5896 H   0  0  0  0  0  0  0  0  0  0  0  0  # atno 6909 bound_to 6896
  144.7145  140.0550  143.6434 H   0  0  0  0  0  0  0  0  0  0  0  0  # atno 7974 bound_to 7965
  155.8429  140.0951  157.1723 H   0  0  0  0  0  0  0  0  0  0  0  0  # atno 8008 bound_to 7997
  154.3982  140.1397  156.3812 H   0  0  0  0  0  0  0  0  0  0  0  0  # atno 8009 bound_to 7997
  155.8044  140.3452  155.5424 H   0  0  0  0  0  0  0  0  0  0  0  0  # atno 8010 bound_to 7997
  140.6564  143.7416  150.7661 H   0  0  0  0  0  0  0  0  0  0  0  0  # atno 10167 bound_to 10162
  156.8224  130.9624  151.3111 H   0  0  0  0  0  0  0  0  0  0  0  0  # atno 10718 bound_to 10713
  153.1468  135.4620  154.9577 H   0  0  0  0  0  0  0  0  0  0  0  0  # atno 10763 bound_to 10752
  154.7792  135.3183  154.8028 H   0  0  0  0  0  0  0  0  0  0  0  0  # atno 10764 bound_to 10752
  153.8541  135.6919  153.4843 H   0  0  0  0  0  0  0  0  0  0  0  0  # atno 10765 bound_to 10752
  140.0069  134.9455  157.0193 H   0  0  0  0  0  0  0  0  0  0  0  0  # atno 11005 bound_to 11000
  145.9912  139.3016  143.0984 LP  0  0  0  0  0  0  0  0  0  0  0  0  # atno 17320 bound_to 7965
  145.8901  140.9309  143.0556 LP  0  0  0  0  0  0  0  0  0  0  0  0  # atno 17321 bound_to 7965
  140.1077  143.4729  152.2389 LP  0  0  0  0  0  0  0  0  0  0  0  0  # atno 17342 bound_to 10162
  139.5788  144.7500  151.3695 LP  0  0  0  0  0  0  0  0  0  0  0  0  # atno 17343 bound_to 10162
  157.6450  130.8837  149.9521 LP  0  0  0  0  0  0  0  0  0  0  0  0  # atno 17370 bound_to 10713
  156.0981  130.3658  150.0268 LP  0  0  0  0  0  0  0  0  0  0  0  0  # atno 17371 bound_to 10713
  140.4626  134.1469  155.7193 LP  0  0  0  0  0  0  0  0  0  0  0  0  # atno 17394 bound_to 11000
  141.1683  133.8659  157.1648 LP  0  0  0  0  0  0  0  0  0  0  0  0  # atno 17395 bound_to 11000

$$$$
