AV-unprocessed.smi:240|AV-procd|sdf|1826|dock3
  -GOLD-   2262020423D 1   1.00000     0.00000
 Structure written by MMmdl.
 55 59  0  0  0  0  0  0  0  0  1 V2000
  147.9097  142.4767  157.6433 O   0  0  0  0  0  0  0  0  0  0  0  0
  148.9965  142.1889  158.4988 C   0  0  2  0  0  0  0  0  0  0  0  0
  149.4736  143.4872  159.1768 C   0  0  0  0  0  0  0  0  0  0  0  0
  151.0012  143.4615  159.1026 C   0  0  0  0  0  0  0  0  0  0  0  0
  151.2912  142.7116  157.8050 C   0  0  0  0  0  0  0  0  0  0  0  0
  150.2426  141.5912  157.7937 C   0  0  2  0  0  0  0  0  0  0  0  0
  150.0684  140.8224  156.4444 C   0  0  2  0  0  0  0  0  0  0  0  0
  149.5691  141.7015  155.2672 C   0  0  0  0  0  0  0  0  0  0  0  0
  149.4617  140.9254  154.0793 O   0  0  0  0  0  0  0  0  0  0  0  0
  148.5274  139.8645  154.2199 C   0  0  0  0  0  0  0  0  0  0  0  0
  149.0254  138.9102  155.3121 C   0  0  0  0  0  0  0  0  0  0  0  0
  149.2164  139.6304  156.5652 N   0  0  0  0  0  0  0  0  0  0  0  0
  149.4856  138.7702  157.5731 C   0  0  0  0  0  0  0  0  0  0  0  0
  150.7482  138.7815  158.0662 N   0  0  0  0  0  0  0  0  0  0  0  0
  151.0821  137.9589  159.0648 C   0  0  0  0  0  0  0  0  0  0  0  0
  150.3200  137.0688  159.7037 N   0  0  0  0  0  0  0  0  0  0  0  0
  149.0469  137.0609  159.2139 C   0  0  0  0  0  0  0  0  0  0  0  0
  148.5453  137.8772  158.1614 C   0  0  0  0  0  0  0  0  0  0  0  0
  147.1999  137.6018  157.9495 N   0  0  0  0  0  0  0  0  0  0  0  0
  146.9239  136.6715  158.8218 C   0  0  0  0  0  0  0  0  0  0  0  0
  147.9776  136.2794  159.6163 N   0  0  0  0  0  0  0  0  0  0  0  0
  147.9533  135.2706  160.6648 C   0  0  0  0  0  0  0  0  0  0  0  0
  146.8574  135.5085  161.7306 C   0  0  1  0  0  0  0  0  0  0  0  0
  146.9221  134.4785  162.7018 O   0  0  0  0  0  0  0  0  0  0  0  0
  147.0053  136.8474  162.4418 C   0  0  0  0  0  0  0  0  0  0  0  0
  145.5723  137.1774  162.8361 C   0  0  0  0  0  0  0  0  0  0  0  0
  144.8257  136.7511  161.7090 O   0  0  0  0  0  0  0  0  0  0  0  0
  145.4183  135.5688  161.1783 C   0  0  0  0  0  0  0  0  0  0  0  0
  148.1878  143.1278  157.0168 H   0  0  0  0  0  0  0  0  0  0  0  0
  148.6412  141.4854  159.2529 H   0  0  0  0  0  0  0  0  0  0  0  0
  149.1126  144.3595  158.6291 H   0  0  0  0  0  0  0  0  0  0  0  0
  149.1114  143.5774  160.2013 H   0  0  0  0  0  0  0  0  0  0  0  0
  151.4388  144.4600  159.1175 H   0  0  0  0  0  0  0  0  0  0  0  0
  151.4048  142.9060  159.9502 H   0  0  0  0  0  0  0  0  0  0  0  0
  151.1520  143.3971  156.9702 H   0  0  0  0  0  0  0  0  0  0  0  0
  152.3119  142.3305  157.7614 H   0  0  0  0  0  0  0  0  0  0  0  0
  150.6400  140.8648  158.5042 H   0  0  0  0  0  0  0  0  0  0  0  0
  151.0594  140.4769  156.1497 H   0  0  0  0  0  0  0  0  0  0  0  0
  148.6091  142.1716  155.4755 H   0  0  0  0  0  0  0  0  0  0  0  0
  150.2742  142.5043  155.0585 H   0  0  0  0  0  0  0  0  0  0  0  0
  147.5381  140.2571  154.4612 H   0  0  0  0  0  0  0  0  0  0  0  0
  148.4412  139.3370  153.2702 H   0  0  0  0  0  0  0  0  0  0  0  0
  148.3063  138.1013  155.4494 H   0  0  0  0  0  0  0  0  0  0  0  0
  149.9681  138.4545  155.0048 H   0  0  0  0  0  0  0  0  0  0  0  0
  152.1068  138.0227  159.4000 H   0  0  0  0  0  0  0  0  0  0  0  0
  145.9358  136.2438  158.9088 H   0  0  0  0  0  0  0  0  0  0  0  0
  147.8187  134.2940  160.1982 H   0  0  0  0  0  0  0  0  0  0  0  0
  148.9367  135.2502  161.1365 H   0  0  0  0  0  0  0  0  0  0  0  0
  147.5524  133.8352  162.4159 H   0  0  0  0  0  0  0  0  0  0  0  0
  147.6899  136.8215  163.2908 H   0  0  0  0  0  0  0  0  0  0  0  0
  147.3668  137.6074  161.7476 H   0  0  0  0  0  0  0  0  0  0  0  0
  145.2666  136.6086  163.7155 H   0  0  0  0  0  0  0  0  0  0  0  0
  145.4228  138.2377  163.0407 H   0  0  0  0  0  0  0  0  0  0  0  0
  145.3966  135.6460  160.0917 H   0  0  0  0  0  0  0  0  0  0  0  0
  144.8305  134.6924  161.4550 H   0  0  0  0  0  0  0  0  0  0  0  0
  1  2  1  0  0  0  0
  1 29  1  0  0  0  0
  2  6  1  0  0  0  0
  2  3  1  0  0  0  0
  2 30  1  0  0  0  0
  3  4  1  0  0  0  0
  3 31  1  0  0  0  0
  3 32  1  0  0  0  0
  4  5  1  0  0  0  0
  4 33  1  0  0  0  0
  4 34  1  0  0  0  0
  5  6  1  0  0  0  0
  5 35  1  0  0  0  0
  5 36  1  0  0  0  0
  6  7  1  0  0  0  0
  6 37  1  0  0  0  0
  7 12  1  0  0  0  0
  7  8  1  0  0  0  0
  7 38  1  0  0  0  0
  8  9  1  0  0  0  0
  8 39  1  0  0  0  0
  8 40  1  0  0  0  0
  9 10  1  0  0  0  0
 10 11  1  0  0  0  0
 10 41  1  0  0  0  0
 10 42  1  0  0  0  0
 11 12  1  0  0  0  0
 11 43  1  0  0  0  0
 11 44  1  0  0  0  0
 12 13  1  0  0  0  0
 13 18  1  0  0  0  0
 13 14  2  0  0  0  0
 14 15  1  0  0  0  0
 15 16  2  0  0  0  0
 15 45  1  0  0  0  0
 16 17  1  0  0  0  0
 17 21  1  0  0  0  0
 17 18  2  0  0  0  0
 18 19  1  0  0  0  0
 19 20  2  0  0  0  0
 20 21  1  0  0  0  0
 20 46  1  0  0  0  0
 21 22  1  0  0  0  0
 22 23  1  0  0  0  0
 22 47  1  0  0  0  0
 22 48  1  0  0  0  0
 23 28  1  0  0  0  0
 23 24  1  0  0  0  0
 23 25  1  0  0  0  0
 24 49  1  0  0  0  0
 25 26  1  0  0  0  0
 25 50  1  0  0  0  0
 25 51  1  0  0  0  0
 26 27  1  0  0  0  0
 26 52  1  0  0  0  0
 26 53  1  0  0  0  0
 27 28  1  0  0  0  0
 28 54  1  0  0  0  0
 28 55  1  0  0  0  0
M  END
> <s_m_source_file>
AV-unprocessed.smi

> <i_m_source_file_index>
240

> <i_lp_mmshare_version>
43012

> <i_f3d_flags>
0

> <s_epik_input>
W09IXVtDQEBIXTFbQ0gyXVtDSDJdW0NIMl1bQ0BIXTFbQ0BASF0yW0NIMl1PW0NIMl1bQ0gyXU4yYyhuW2NIXW4zKWMoYzM0KW5bY0hdbjRbQ0gyXVtDQEBdNShbT0hdKVtDSDJdW0NIMl1PW0NIMl01

> <s_epik_cmdline>
J2VwaWtfcHl0aG9uJywgJy1waCcsICc3LjAnLCAnLXRuJywgJzgnLCAnLW1hJywgJzIwMCcsICctbWV0YWxfYmluZGluZycsICctaW1hZScsICc8aW5maWxlLm1hZT4nLCAnLW9tYWUnLCAnPG91dGZpbGUubWFlPic=

> <r_lp_tautomer_probability>
1

> <r_epik_Ionization_Penalty>
0.000130618

> <r_epik_Ionization_Penalty_Charging>
0

> <r_epik_Ionization_Penalty_Neutral>
0.000130618

> <r_epik_State_Penalty>
-0

> <r_epik_Charging_Adjusted_Penalty>
0

> <i_epik_Tot_Q>
0

> <i_epik_Tot_abs_Q>
0

> <r_epik_Metal_State_Penalty>
-0

> <b_epik_Metal_Only>
0

> <s_lp_Force_Field>
OPLS_2005

> <r_lp_Energy>
64.3211

> <b_lp_Chiralities_Consistent>
1

> <s_lp_Variant>
AV-unprocessed.smi:240-3

> <Gold.Version>
5.8.1

> <Gold.Id.Protein>
6NUR|6NUR_protein|mol2

> <Gold.PLP.Fitness>
43.0331

> <Gold.PLP.PLP>
-36.3788

> <Gold.PLP.part.hbond>
-3.6642

> <Gold.PLP.part.metal>
0.0000

> <Gold.PLP.part.buried>
-3.6939

> <Gold.PLP.part.nonpolar>
-28.2767

> <Gold.PLP.part.repulsive>
1.2521

> <Gold.PLP.ligand.clash>
0.0000

> <Gold.PLP.ligand.torsion>
0.5108

> <Gold.PLP.Chemscore.Hbond>
2.4784

> <Gold.PLP.Chemscore.CHOScore>
0.0000

> <Gold.PLP.Chemscore.Metal>
0.0000

> <Gold.Chemscore.Hbonds>
donor molecule, donor type, donor heavy atom, donor atom, acceptor molecule, acceptor atom, score
      L1  H     1    29       P1  8028  0.56
      P1  H  6896  6907       L1    16  0.71
      P1  H  7989  7998       L1     9  0.24
      P1  H  8011  8017       L1     9  0.25

> <Gold.PLP.Chemscore.Internal.Correction>
0.2406

> <Gold.Rescore>
     Score         DG    S(hbond)    S(metal)    S(lipo)     H(rot)  DE(clash)    DE(int)     intcor
     10.82     -13.99       1.68        0.00      90.52       3.00       0.02       3.14       ----

> <Gold.Chemscore.Fitness>
10.8229

> <Gold.Chemscore.DG>
-13.9858

> <Gold.Chemscore.ZeroCoef>
-5.4800

> <Gold.Chemscore.Hbond>
1.6780

> <Gold.Chemscore.Metal>
0.0000

> <Gold.Chemscore.Lipo>
90.5239

> <Gold.Chemscore.Internal_Hbond>
0.0000

> <Gold.Chemscore.DEClash>
0.0186

> <Gold.Chemscore.DEInternal>
3.1443

> <Gold.Chemscore.Rot>
3.0039

> <Gold.Chemscore.Internal.Correction>
   9.000000E+99

> <Gold.Chemscore.Hbonds>
donor molecule, donor type, donor heavy atom, donor atom, acceptor molecule, acceptor atom, score
      L1  H     1    29       P1  8028  0.11
      P1  H  6896  6907       L1    16  0.57
      P1  H  7989  7998       L1     9  0.05
      P1  H  8011  8017       L1     9  0.13

> <Gold.Chemscore.Hbond.Weighted>
-5.6044

> <Gold.Chemscore.Metal.Weighted>
-0.0000

> <Gold.Chemscore.Lipo.Weighted>
-10.5913

> <Gold.Chemscore.Internal_Hbond.Weighted>
0.0000

> <Gold.Chemscore.DEClash.Weighted>
0.0186

> <Gold.Chemscore.DEInternal.Weighted>
3.1443

> <Gold.Chemscore.Rot.Weighted>
7.6899

> <Gold.Chemscore.Internal.Correction.Weighted>
   9.000000E+99

> <Gold.Protein.RotatedTorsions>
[ 6907 6896 6895 6894 ] final  -22.69 input  -60.11 | X-H torsion
[ 7974 7965 7964 7962 ] final   64.59 input  175.53 | X-H torsion
[ 8008 7997 7996 7995 ] final   86.80 input   59.86 | X-H torsion
[ 10167 10162 10161 10158 ] final  -95.10 input  -65.29 | X-H torsion
[ 10718 10713 10712 10709 ] final   -2.09 input   66.30 | X-H torsion
[ 10763 10752 10751 10750 ] final  -24.70 input  -60.55 | X-H torsion
[ 11005 11000 10999 10996 ] final -116.19 input  -57.11 | X-H torsion

> <Gold.Protein.ActiveResidues>
 VAL166  LYS551  ARG553  GLY616  TRP617  ASP618  TYR619  PRO620  LYS621  CYS622 
 ASP623  PHE694  ASN695  SER759  ASP760  ASP761  ALA762  ILE779  LEU786  VAL792 
 PHE793  MET794  SER795  GLU796  ALA797  LYS798  CYS799  TRP800  GLU811  SER814 

> <Gold.Protein.RotatedAtoms>
  151.2149  135.0496  159.8926 H   0  0  0  0  0  0  0  0  0  0  0  0  # atno 6907 bound_to 6896
  152.5421  134.0704  159.8201 H   0  0  0  0  0  0  0  0  0  0  0  0  # atno 6908 bound_to 6896
  151.0862  133.5303  159.2649 H   0  0  0  0  0  0  0  0  0  0  0  0  # atno 6909 bound_to 6896
  145.8484  139.3239  143.0890 H   0  0  0  0  0  0  0  0  0  0  0  0  # atno 7974 bound_to 7965
  155.9674  140.3388  155.6544 H   0  0  0  0  0  0  0  0  0  0  0  0  # atno 8008 bound_to 7997
  155.6719  140.0728  157.2535 H   0  0  0  0  0  0  0  0  0  0  0  0  # atno 8009 bound_to 7997
  154.4158  140.1690  156.1876 H   0  0  0  0  0  0  0  0  0  0  0  0  # atno 8010 bound_to 7997
  140.3076  143.3124  152.0182 H   0  0  0  0  0  0  0  0  0  0  0  0  # atno 10167 bound_to 10162
  156.7960  130.5377  149.5728 H   0  0  0  0  0  0  0  0  0  0  0  0  # atno 10718 bound_to 10713
  153.6879  135.6963  153.5098 H   0  0  0  0  0  0  0  0  0  0  0  0  # atno 10763 bound_to 10752
  153.2435  135.4298  155.0722 H   0  0  0  0  0  0  0  0  0  0  0  0  # atno 10764 bound_to 10752
  154.8381  135.3513  154.6421 H   0  0  0  0  0  0  0  0  0  0  0  0  # atno 10765 bound_to 10752
  141.0438  133.9794  157.2950 H   0  0  0  0  0  0  0  0  0  0  0  0  # atno 11005 bound_to 11000
  145.9385  140.8997  143.0320 LP  0  0  0  0  0  0  0  0  0  0  0  0  # atno 17320 bound_to 7965
  144.6730  140.1516  143.7429 LP  0  0  0  0  0  0  0  0  0  0  0  0  # atno 17321 bound_to 7965
  139.4901  144.6409  151.6880 LP  0  0  0  0  0  0  0  0  0  0  0  0  # atno 17342 bound_to 10162
  140.5596  144.0290  150.6163 LP  0  0  0  0  0  0  0  0  0  0  0  0  # atno 17343 bound_to 10162
  156.1130  130.6054  151.0077 LP  0  0  0  0  0  0  0  0  0  0  0  0  # atno 17370 bound_to 10713
  157.6577  131.0886  150.7909 LP  0  0  0  0  0  0  0  0  0  0  0  0  # atno 17371 bound_to 10713
  139.9296  135.0200  156.8355 LP  0  0  0  0  0  0  0  0  0  0  0  0  # atno 17394 bound_to 11000
  140.6184  134.0017  155.7607 LP  0  0  0  0  0  0  0  0  0  0  0  0  # atno 17395 bound_to 11000

$$$$
