AV-unprocessed.smi:906|AV-procd|sdf|4104|dock7
  -GOLD-   22720 1593D 1   1.00000     0.00000
 Structure written by MMmdl.
 48 49  0  0  0  0  0  0  0  0  2 V2000
  154.8636  141.2974  161.4312 C   0  0  0  0  0  0  0  0  0  0  0  0
  153.6795  141.5609  160.5248 C   0  0  0  0  0  0  0  0  0  0  0  0
  153.0679  142.8317  160.4833 C   0  0  0  0  0  0  0  0  0  0  0  0
  151.9722  143.0204  159.6192 C   0  0  0  0  0  0  0  0  0  0  0  0
  151.5318  141.9362  158.8328 C   0  0  0  0  0  0  0  0  0  0  0  0
  150.3632  142.0899  157.8799 C   0  0  0  0  0  0  0  0  0  0  0  0
  150.8275  142.3094  156.4309 C   0  0  0  0  0  0  0  0  0  0  0  0
  150.6322  141.1158  155.6168 N   0  0  0  0  0  0  0  0  0  0  0  0
  151.4474  140.0478  155.5973 C   0  0  0  0  0  0  0  0  0  0  0  0
  152.4515  139.9747  156.3065 O   0  0  0  0  0  0  0  0  0  0  0  0
  151.0336  139.0369  154.7934 N   0  0  0  0  0  0  0  0  0  0  0  0
  151.7777  137.8004  154.5127 C   0  0  0  0  0  0  0  0  0  0  0  0
  151.1469  136.6446  155.3119 C   0  0  0  0  0  0  0  0  0  0  0  0
  149.6929  136.5081  155.0085 N   0  3  0  0  0  0  0  0  0  0  0  0
  148.9971  135.3577  155.6614 C   0  0  2  0  0  0  0  0  0  0  0  0
  148.6852  135.5936  157.1536 C   0  0  0  0  0  0  0  0  0  0  0  0
  149.7297  134.0204  155.4136 C   0  0  0  0  0  0  0  0  0  0  0  0
  150.2164  133.9951  154.1725 F   0  0  0  0  0  0  0  0  0  0  0  0
  150.7296  133.8332  156.2741 F   0  0  0  0  0  0  0  0  0  0  0  0
  148.8686  133.0116  155.5440 F   0  0  0  0  0  0  0  0  0  0  0  0
  148.9517  137.7932  155.1413 C   0  0  0  0  0  0  0  0  0  0  0  0
  149.6415  138.9200  154.3514 C   0  0  0  0  0  0  0  0  0  0  0  0
  152.2121  140.7058  158.9504 C   0  0  0  0  0  0  0  0  0  0  0  0
  153.2637  140.5157  159.7759 N   0  0  0  0  0  0  0  0  0  0  0  0
  155.1073  142.1761  162.0289 H   0  0  0  0  0  0  0  0  0  0  0  0
  155.7417  141.0336  160.8411 H   0  0  0  0  0  0  0  0  0  0  0  0
  154.6454  140.4735  162.1112 H   0  0  0  0  0  0  0  0  0  0  0  0
  153.4282  143.6445  161.0967 H   0  0  0  0  0  0  0  0  0  0  0  0
  151.4821  143.9811  159.5607 H   0  0  0  0  0  0  0  0  0  0  0  0
  149.7369  141.1993  157.9481 H   0  0  0  0  0  0  0  0  0  0  0  0
  149.7442  142.9266  158.2067 H   0  0  0  0  0  0  0  0  0  0  0  0
  150.2573  143.1212  155.9785 H   0  0  0  0  0  0  0  0  0  0  0  0
  151.8755  142.6135  156.4053 H   0  0  0  0  0  0  0  0  0  0  0  0
  149.8098  141.0954  155.0316 H   0  0  0  0  0  0  0  0  0  0  0  0
  151.7234  137.5868  153.4442 H   0  0  0  0  0  0  0  0  0  0  0  0
  152.8414  137.8634  154.7427 H   0  0  0  0  0  0  0  0  0  0  0  0
  151.6744  135.7227  155.0744 H   0  0  0  0  0  0  0  0  0  0  0  0
  151.2918  136.8317  156.3764 H   0  0  0  0  0  0  0  0  0  0  0  0
  148.0368  135.2551  155.1534 H   0  0  0  0  0  0  0  0  0  0  0  0
  148.0628  134.7906  157.5488 H   0  0  0  0  0  0  0  0  0  0  0  0
  148.1435  136.5262  157.3104 H   0  0  0  0  0  0  0  0  0  0  0  0
  149.5903  135.6240  157.7602 H   0  0  0  0  0  0  0  0  0  0  0  0
  147.9311  137.6730  154.7763 H   0  0  0  0  0  0  0  0  0  0  0  0
  148.8824  138.0717  156.1937 H   0  0  0  0  0  0  0  0  0  0  0  0
  149.0859  139.8523  154.4636 H   0  0  0  0  0  0  0  0  0  0  0  0
  149.6229  138.6950  153.2839 H   0  0  0  0  0  0  0  0  0  0  0  0
  151.9072  139.8515  158.3639 H   0  0  0  0  0  0  0  0  0  0  0  0
  149.6519  136.3010  154.0205 H   0  0  0  0  0  0  0  0  0  0  0  0
  1  2  1  0  0  0  0
  1 25  1  0  0  0  0
  1 26  1  0  0  0  0
  1 27  1  0  0  0  0
  2 24  1  0  0  0  0
  2  3  2  0  0  0  0
  3  4  1  0  0  0  0
  3 28  1  0  0  0  0
  4  5  2  0  0  0  0
  4 29  1  0  0  0  0
  5  6  1  0  0  0  0
  5 23  1  0  0  0  0
  6  7  1  0  0  0  0
  6 30  1  0  0  0  0
  6 31  1  0  0  0  0
  7  8  1  0  0  0  0
  7 32  1  0  0  0  0
  7 33  1  0  0  0  0
  8  9  1  0  0  0  0
  8 34  1  0  0  0  0
  9 10  2  0  0  0  0
  9 11  1  0  0  0  0
 11 22  1  0  0  0  0
 11 12  1  0  0  0  0
 12 13  1  0  0  0  0
 12 35  1  0  0  0  0
 12 36  1  0  0  0  0
 13 14  1  0  0  0  0
 13 37  1  0  0  0  0
 13 38  1  0  0  0  0
 14 15  1  0  0  0  0
 14 21  1  0  0  0  0
 14 48  1  0  0  0  0
 15 16  1  0  0  0  0
 15 17  1  0  0  0  0
 15 39  1  0  0  0  0
 16 40  1  0  0  0  0
 16 41  1  0  0  0  0
 16 42  1  0  0  0  0
 17 18  1  0  0  0  0
 17 19  1  0  0  0  0
 17 20  1  0  0  0  0
 21 22  1  0  0  0  0
 21 43  1  0  0  0  0
 21 44  1  0  0  0  0
 22 45  1  0  0  0  0
 22 46  1  0  0  0  0
 23 24  2  0  0  0  0
 23 47  1  0  0  0  0
M  CHG  1  14   1
M  END
> <s_m_source_file>
AV-unprocessed.smi

> <i_m_source_file_index>
906

> <i_lp_mmshare_version>
43012

> <i_f3d_flags>
0

> <s_epik_input>
W0NIM11jMVtjSF1bY0hdYyhbY0hdbjEpW0NIMl1bQ0gyXVtOSF1DKD1PKU4yW0NIMl1bQ0gyXU4oW0NASF0oW0NIM10pQyhGKShGKUYpW0NIMl1bQ0gyXTI=

> <s_epik_cmdline>
J2VwaWtfcHl0aG9uJywgJy1waCcsICc3LjAnLCAnLXRuJywgJzgnLCAnLW1hJywgJzIwMCcsICctbWV0YWxfYmluZGluZycsICctaW1hZScsICc8aW5maWxlLm1hZT4nLCAnLW9tYWUnLCAnPG91dGZpbGUubWFlPic=

> <r_epik_Ionization_Penalty>
2.02136

> <r_epik_Ionization_Penalty_Charging>
1.96814

> <r_epik_Ionization_Penalty_Neutral>
0.0532286

> <r_epik_State_Penalty>
2.14285

> <r_epik_Charging_Adjusted_Penalty>
4.11098

> <i_epik_Tot_Q>
1

> <i_epik_Tot_abs_Q>
1

> <r_epik_Metal_State_Penalty>
2.1406

> <b_epik_Metal_Only>
0

> <s_lp_Force_Field>
OPLS_2005

> <r_lp_Energy>
50.8751

> <b_lp_Chiralities_Consistent>
1

> <s_lp_Variant>
AV-unprocessed.smi:906-5

> <Gold.Version>
5.8.1

> <Gold.Id.Protein>
6NUR|6NUR_protein|mol2

> <Gold.PLP.Fitness>
48.9310

> <Gold.PLP.PLP>
-43.1275

> <Gold.PLP.part.hbond>
-2.0000

> <Gold.PLP.part.metal>
0.0000

> <Gold.PLP.part.buried>
-4.1674

> <Gold.PLP.part.nonpolar>
-37.5395

> <Gold.PLP.part.repulsive>
0.5620

> <Gold.PLP.ligand.clash>
1.0478

> <Gold.PLP.ligand.torsion>
1.4544

> <Gold.PLP.Chemscore.Hbond>
3.0000

> <Gold.PLP.Chemscore.CHOScore>
0.0000

> <Gold.PLP.Chemscore.Metal>
0.0000

> <Gold.Chemscore.Hbonds>
donor molecule, donor type, donor heavy atom, donor atom, acceptor molecule, acceptor atom, score
      L1  H    14    48       P1  7948  0.94
      P1  H  7997  8008       L1    10  1.00

> <Gold.PLP.Chemscore.Internal.Correction>
0.7600

> <Gold.Rescore>
     Score         DG    S(hbond)    S(metal)    S(lipo)     H(rot)  DE(clash)    DE(int)     intcor
     13.24     -17.20       1.34        0.00      97.40       1.62       0.29       3.66       ----

> <Gold.Chemscore.Fitness>
13.2443

> <Gold.Chemscore.DG>
-17.1976

> <Gold.Chemscore.ZeroCoef>
-5.4800

> <Gold.Chemscore.Hbond>
1.3357

> <Gold.Chemscore.Metal>
0.0000

> <Gold.Chemscore.Lipo>
97.4033

> <Gold.Chemscore.Internal_Hbond>
0.0000

> <Gold.Chemscore.DEClash>
0.2907

> <Gold.Chemscore.DEInternal>
3.6626

> <Gold.Chemscore.Rot>
1.6171

> <Gold.Chemscore.Internal.Correction>
   9.000000E+99

> <Gold.Chemscore.Hbonds>
donor molecule, donor type, donor heavy atom, donor atom, acceptor molecule, acceptor atom, score
      L1  H    14    48       P1  7948  0.29
      P1  H  7997  8008       L1    10  0.97

> <Gold.Chemscore.Hbond.Weighted>
-4.4612

> <Gold.Chemscore.Metal.Weighted>
-0.0000

> <Gold.Chemscore.Lipo.Weighted>
-11.3962

> <Gold.Chemscore.Internal_Hbond.Weighted>
0.0000

> <Gold.Chemscore.DEClash.Weighted>
0.2907

> <Gold.Chemscore.DEInternal.Weighted>
3.6626

> <Gold.Chemscore.Rot.Weighted>
4.1398

> <Gold.Chemscore.Internal.Correction.Weighted>
   9.000000E+99

> <Gold.Protein.RotatedTorsions>
[ 6907 6896 6895 6894 ] final   42.41 input  -60.11 | X-H torsion
[ 7974 7965 7964 7962 ] final  -78.73 input  175.53 | X-H torsion
[ 8008 7997 7996 7995 ] final  -29.73 input   59.86 | X-H torsion
[ 10167 10162 10161 10158 ] final -105.20 input  -65.29 | X-H torsion
[ 10718 10713 10712 10709 ] final   78.62 input   66.30 | X-H torsion
[ 10763 10752 10751 10750 ] final  -15.34 input  -60.55 | X-H torsion
[ 11005 11000 10999 10996 ] final  -45.52 input  -57.11 | X-H torsion

> <Gold.Protein.ActiveResidues>
 VAL166  LYS551  ARG553  GLY616  TRP617  ASP618  TYR619  PRO620  LYS621  CYS622 
 ASP623  PHE694  ASN695  SER759  ASP760  ASP761  ALA762  ILE779  LEU786  VAL792 
 PHE793  MET794  SER795  GLU796  ALA797  LYS798  CYS799  TRP800  GLU811  SER814 

> <Gold.Protein.RotatedAtoms>
  152.2075  134.8532  160.0500 H   0  0  0  0  0  0  0  0  0  0  0  0  # atno 6907 bound_to 6896
  151.9362  133.3620  159.3957 H   0  0  0  0  0  0  0  0  0  0  0  0  # atno 6908 bound_to 6896
  150.6968  134.4410  159.5336 H   0  0  0  0  0  0  0  0  0  0  0  0  # atno 6909 bound_to 6896
  145.5826  140.9445  143.1335 H   0  0  0  0  0  0  0  0  0  0  0  0  # atno 7974 bound_to 7965
  154.4278  140.1810  156.1295 H   0  0  0  0  0  0  0  0  0  0  0  0  # atno 8008 bound_to 7997
  156.0079  140.3353  155.6886 H   0  0  0  0  0  0  0  0  0  0  0  0  # atno 8009 bound_to 7997
  155.6152  140.0654  157.2685 H   0  0  0  0  0  0  0  0  0  0  0  0  # atno 8010 bound_to 7997
  140.2011  143.3818  152.1128 H   0  0  0  0  0  0  0  0  0  0  0  0  # atno 10167 bound_to 10162
  157.6751  130.9876  150.1813 H   0  0  0  0  0  0  0  0  0  0  0  0  # atno 10718 bound_to 10713
  153.5418  135.7013  153.5633 H   0  0  0  0  0  0  0  0  0  0  0  0  # atno 10763 bound_to 10752
  153.3595  135.3973  155.1707 H   0  0  0  0  0  0  0  0  0  0  0  0  # atno 10764 bound_to 10752
  154.8672  135.3785  154.4923 H   0  0  0  0  0  0  0  0  0  0  0  0  # atno 10765 bound_to 10752
  141.0521  133.6739  156.3025 H   0  0  0  0  0  0  0  0  0  0  0  0  # atno 11005 bound_to 11000
  144.7387  139.7511  143.7319 LP  0  0  0  0  0  0  0  0  0  0  0  0  # atno 17320 bound_to 7965
  146.1705  139.4853  142.9931 LP  0  0  0  0  0  0  0  0  0  0  0  0  # atno 17321 bound_to 7965
  139.5217  144.7049  151.5384 LP  0  0  0  0  0  0  0  0  0  0  0  0  # atno 17342 bound_to 10162
  140.6390  143.8928  150.6673 LP  0  0  0  0  0  0  0  0  0  0  0  0  # atno 17343 bound_to 10162
  156.2545  130.3704  149.8197 LP  0  0  0  0  0  0  0  0  0  0  0  0  # atno 17370 bound_to 10713
  156.5960  130.8526  151.3420 LP  0  0  0  0  0  0  0  0  0  0  0  0  # atno 17371 bound_to 10713
  140.6036  134.5530  157.5522 LP  0  0  0  0  0  0  0  0  0  0  0  0  # atno 17394 bound_to 11000
  139.9359  134.7877  156.0805 LP  0  0  0  0  0  0  0  0  0  0  0  0  # atno 17395 bound_to 11000

$$$$
