AV-unprocessed.smi:215|AV-procd|sdf|1653|dock7
  -GOLD-   2262020 43D 1   1.00000     0.00000
 Structure written by MMmdl.
 59 62  0  0  0  0  0  0  0  0  2 V2000
  149.4567  137.8454  154.5714 C   0  0  0  0  0  0  0  0  0  0  0  0
  148.8545  137.1826  155.8333 C   0  0  1  0  0  0  0  0  0  0  0  0
  148.2881  135.7678  155.5864 C   0  0  1  0  0  0  0  0  0  0  0  0
  147.4465  135.6358  154.3593 N   0  3  2  0  0  0  0  0  0  0  0  0
  146.2196  136.4706  154.4374 C   0  0  0  0  0  0  0  0  0  0  0  0
  147.1263  134.2276  153.9910 C   0  0  0  0  0  0  0  0  0  0  0  0
  146.7671  134.0767  152.5023 C   0  0  0  0  0  0  0  0  0  0  0  0
  146.0691  132.8671  152.2921 O   0  0  0  0  0  0  0  0  0  0  0  0
  149.5610  134.9034  155.6263 C   0  0  0  0  0  0  0  0  0  0  0  0
  150.4634  135.6124  156.6448 C   0  0  0  0  0  0  0  0  0  0  0  0
  149.8836  136.9378  156.8342 N   0  0  0  0  0  0  0  0  0  0  0  0
  150.5352  137.9170  157.5192 C   0  0  0  0  0  0  0  0  0  0  0  0
  151.3953  137.5440  158.5037 N   0  0  0  0  0  0  0  0  0  0  0  0
  152.0642  138.4595  159.2091 C   0  0  0  0  0  0  0  0  0  0  0  0
  152.0217  139.7873  159.1015 N   0  0  0  0  0  0  0  0  0  0  0  0
  151.1540  140.1772  158.1246 C   0  0  0  0  0  0  0  0  0  0  0  0
  150.3737  139.3182  157.2956 C   0  0  0  0  0  0  0  0  0  0  0  0
  149.6006  140.0879  156.4325 N   0  0  0  0  0  0  0  0  0  0  0  0
  149.9086  141.3201  156.7279 C   0  0  0  0  0  0  0  0  0  0  0  0
  150.8416  141.4668  157.7281 N   0  0  0  0  0  0  0  0  0  0  0  0
  151.3492  142.7028  158.2534 C   0  0  0  0  0  0  0  0  0  0  0  0
  152.4732  142.7096  159.2896 C   0  0  0  0  0  0  0  0  0  0  0  0
  151.8683  143.9817  159.9254 C   0  0  0  0  0  0  0  0  0  0  0  0
  151.8641  144.0047  161.4630 C   0  0  0  0  0  0  0  0  0  0  0  0
  151.7270  142.7022  161.9938 O   0  0  0  0  0  0  0  0  0  0  0  0
  152.4430  145.3132  159.4011 C   0  0  0  0  0  0  0  0  0  0  0  0
  151.9535  146.4145  160.1397 O   0  0  0  0  0  0  0  0  0  0  0  0
  150.5472  143.5282  159.2619 C   0  0  0  0  0  0  0  0  0  0  0  0
  148.0661  137.8096  156.2468 H   0  0  0  0  0  0  0  0  0  0  0  0
  147.6733  135.4899  156.4454 H   0  0  0  0  0  0  0  0  0  0  0  0
  148.7017  138.0201  153.8057 H   0  0  0  0  0  0  0  0  0  0  0  0
  150.2424  137.2357  154.1253 H   0  0  0  0  0  0  0  0  0  0  0  0
  149.8960  138.8150  154.8058 H   0  0  0  0  0  0  0  0  0  0  0  0
  145.5753  136.1376  155.2519 H   0  0  0  0  0  0  0  0  0  0  0  0
  145.6431  136.4280  153.5146 H   0  0  0  0  0  0  0  0  0  0  0  0
  146.4530  137.5210  154.6065 H   0  0  0  0  0  0  0  0  0  0  0  0
  147.9607  133.5573  154.1881 H   0  0  0  0  0  0  0  0  0  0  0  0
  146.3066  133.8691  154.6154 H   0  0  0  0  0  0  0  0  0  0  0  0
  146.1222  134.8991  152.1918 H   0  0  0  0  0  0  0  0  0  0  0  0
  147.6445  134.1096  151.8579 H   0  0  0  0  0  0  0  0  0  0  0  0
  146.6435  132.2561  151.8554 H   0  0  0  0  0  0  0  0  0  0  0  0
  149.3681  133.8710  155.9187 H   0  0  0  0  0  0  0  0  0  0  0  0
  150.0466  134.8907  154.6494 H   0  0  0  0  0  0  0  0  0  0  0  0
  150.4607  135.0817  157.5975 H   0  0  0  0  0  0  0  0  0  0  0  0
  151.4920  135.6678  156.2855 H   0  0  0  0  0  0  0  0  0  0  0  0
  152.7291  138.0726  159.9675 H   0  0  0  0  0  0  0  0  0  0  0  0
  149.4572  142.1609  156.2214 H   0  0  0  0  0  0  0  0  0  0  0  0
  151.6202  143.3243  157.3984 H   0  0  0  0  0  0  0  0  0  0  0  0
  152.4377  141.8440  159.9539 H   0  0  0  0  0  0  0  0  0  0  0  0
  153.4718  142.8370  158.8704 H   0  0  0  0  0  0  0  0  0  0  0  0
  152.7724  144.4574  161.8617 H   0  0  0  0  0  0  0  0  0  0  0  0
  151.0347  144.6048  161.8386 H   0  0  0  0  0  0  0  0  0  0  0  0
  152.5649  142.2680  161.9439 H   0  0  0  0  0  0  0  0  0  0  0  0
  153.5325  145.3212  159.4406 H   0  0  0  0  0  0  0  0  0  0  0  0
  152.1790  145.4717  158.3554 H   0  0  0  0  0  0  0  0  0  0  0  0
  151.2020  146.1313  160.6377 H   0  0  0  0  0  0  0  0  0  0  0  0
  149.9556  144.3278  158.8152 H   0  0  0  0  0  0  0  0  0  0  0  0
  149.9307  142.9145  159.9206 H   0  0  0  0  0  0  0  0  0  0  0  0
  148.0063  136.0002  153.6010 H   0  0  0  0  0  0  0  0  0  0  0  0
  1  2  1  0  0  0  0
  1 31  1  0  0  0  0
  1 32  1  0  0  0  0
  1 33  1  0  0  0  0
  2 29  1  0  0  0  0
  2 11  1  0  0  0  0
  2  3  1  0  0  0  0
  3 30  1  0  0  0  0
  3  4  1  0  0  0  0
  3  9  1  0  0  0  0
  4  5  1  0  0  0  0
  4  6  1  0  0  0  0
  4 59  1  0  0  0  0
  5 34  1  0  0  0  0
  5 35  1  0  0  0  0
  5 36  1  0  0  0  0
  6  7  1  0  0  0  0
  6 37  1  0  0  0  0
  6 38  1  0  0  0  0
  7  8  1  0  0  0  0
  7 39  1  0  0  0  0
  7 40  1  0  0  0  0
  8 41  1  0  0  0  0
  9 10  1  0  0  0  0
  9 42  1  0  0  0  0
  9 43  1  0  0  0  0
 10 11  1  0  0  0  0
 10 44  1  0  0  0  0
 10 45  1  0  0  0  0
 11 12  1  0  0  0  0
 12 17  1  0  0  0  0
 12 13  2  0  0  0  0
 13 14  1  0  0  0  0
 14 15  2  0  0  0  0
 14 46  1  0  0  0  0
 15 16  1  0  0  0  0
 16 20  1  0  0  0  0
 16 17  2  0  0  0  0
 17 18  1  0  0  0  0
 18 19  2  0  0  0  0
 19 20  1  0  0  0  0
 19 47  1  0  0  0  0
 20 21  1  0  0  0  0
 21 28  1  0  0  0  0
 21 22  1  0  0  0  0
 21 48  1  0  0  0  0
 22 23  1  0  0  0  0
 22 49  1  0  0  0  0
 22 50  1  0  0  0  0
 23 24  1  0  0  0  0
 23 26  1  0  0  0  0
 23 28  1  0  0  0  0
 24 25  1  0  0  0  0
 24 51  1  0  0  0  0
 24 52  1  0  0  0  0
 25 53  1  0  0  0  0
 26 27  1  0  0  0  0
 26 54  1  0  0  0  0
 26 55  1  0  0  0  0
 27 56  1  0  0  0  0
 28 57  1  0  0  0  0
 28 58  1  0  0  0  0
M  CHG  1   4   1
M  END
> <s_m_source_file>
AV-unprocessed.smi

> <i_m_source_file_index>
215

> <i_lp_mmshare_version>
43012

> <i_f3d_flags>
0

> <s_epik_input>
W09IXVtDSDJdW0NIMl1OKFtDSDNdKVtDQEBIXShbQ0BIXTFbQ0gzXSlbQ0gyXVtDSDJdTjFjKG5bY0hdbjIpYyhjMjMpbltjSF1uM1tDSF0oW0NIMl00KVtDSDJdQzQoW0NIMl1bT0hdKVtDSDJdW09IXQ==

> <s_epik_cmdline>
J2VwaWtfcHl0aG9uJywgJy1waCcsICc3LjAnLCAnLXRuJywgJzgnLCAnLW1hJywgJzIwMCcsICctbWV0YWxfYmluZGluZycsICctaW1hZScsICc8aW5maWxlLm1hZT4nLCAnLW9tYWUnLCAnPG91dGZpbGUubWFlPic=

> <r_lp_tautomer_probability>
1

> <r_epik_Ionization_Penalty>
0.0036237

> <r_epik_Ionization_Penalty_Charging>
0.0032725

> <r_epik_Ionization_Penalty_Neutral>
0.000351196

> <r_epik_State_Penalty>
-0

> <r_epik_Charging_Adjusted_Penalty>
0.0032725

> <i_epik_Tot_Q>
1

> <i_epik_Tot_abs_Q>
1

> <r_epik_Metal_State_Penalty>
-0

> <b_epik_Metal_Only>
0

> <s_lp_Force_Field>
OPLS_2005

> <r_lp_Energy>
66.6502

> <b_lp_Chiralities_Consistent>
1

> <s_lp_Variant>
AV-unprocessed.smi:215-4

> <Gold.Version>
5.8.1

> <Gold.Id.Protein>
6NUR|6NUR_protein|mol2

> <Gold.PLP.Fitness>
54.1331

> <Gold.PLP.PLP>
-44.4838

> <Gold.PLP.part.hbond>
-5.6572

> <Gold.PLP.part.metal>
0.0000

> <Gold.PLP.part.buried>
-5.1289

> <Gold.PLP.part.nonpolar>
-34.1177

> <Gold.PLP.part.repulsive>
0.0000

> <Gold.PLP.ligand.clash>
0.0000

> <Gold.PLP.ligand.torsion>
1.3314

> <Gold.PLP.Chemscore.Hbond>
3.8406

> <Gold.PLP.Chemscore.CHOScore>
0.0000

> <Gold.PLP.Chemscore.Metal>
0.0000

> <Gold.Chemscore.Hbonds>
donor molecule, donor type, donor heavy atom, donor atom, acceptor molecule, acceptor atom, score
      L1  H     4    59       P1  7948  2.00
      P1  H  6933  6945       L1    25  0.85
      L1  C    19    47       P1  8028  0.62

> <Gold.PLP.Chemscore.Internal.Correction>
0.7904

> <Gold.Rescore>
     Score         DG    S(hbond)    S(metal)    S(lipo)     H(rot)  DE(clash)    DE(int)     intcor
      8.38     -14.69       2.74        0.00      98.61       4.48       1.42       4.89       ----

> <Gold.Chemscore.Fitness>
8.3846

> <Gold.Chemscore.DG>
-14.6890

> <Gold.Chemscore.ZeroCoef>
-5.4800

> <Gold.Chemscore.Hbond>
2.7358

> <Gold.Chemscore.Metal>
0.0000

> <Gold.Chemscore.Lipo>
98.6052

> <Gold.Chemscore.Internal_Hbond>
0.0000

> <Gold.Chemscore.DEClash>
1.4159

> <Gold.Chemscore.DEInternal>
4.8885

> <Gold.Chemscore.Rot>
4.4787

> <Gold.Chemscore.Internal.Correction>
   9.000000E+99

> <Gold.Chemscore.Hbonds>
donor molecule, donor type, donor heavy atom, donor atom, acceptor molecule, acceptor atom, score
      L1  H     4    59       P1  7948  0.97
      P1  H  6933  6945       L1    25  0.82

> <Gold.Chemscore.Hbond.Weighted>
-9.1377

> <Gold.Chemscore.Metal.Weighted>
-0.0000

> <Gold.Chemscore.Lipo.Weighted>
-11.5368

> <Gold.Chemscore.Internal_Hbond.Weighted>
0.0000

> <Gold.Chemscore.DEClash.Weighted>
1.4159

> <Gold.Chemscore.DEInternal.Weighted>
4.8885

> <Gold.Chemscore.Rot.Weighted>
11.4655

> <Gold.Chemscore.Internal.Correction.Weighted>
   9.000000E+99

> <Gold.Protein.RotatedTorsions>
[ 6907 6896 6895 6894 ] final  -51.13 input  -60.11 | X-H torsion
[ 7974 7965 7964 7962 ] final  157.06 input  175.53 | X-H torsion
[ 8008 7997 7996 7995 ] final   -0.90 input   59.86 | X-H torsion
[ 10167 10162 10161 10158 ] final   -3.64 input  -65.29 | X-H torsion
[ 10718 10713 10712 10709 ] final  -50.68 input   66.30 | X-H torsion
[ 10763 10752 10751 10750 ] final -131.89 input  -60.55 | X-H torsion
[ 11005 11000 10999 10996 ] final  108.99 input  -57.11 | X-H torsion

> <Gold.Protein.ActiveResidues>
 VAL166  LYS551  ARG553  GLY616  TRP617  ASP618  TYR619  PRO620  LYS621  CYS622 
 ASP623  PHE694  ASN695  SER759  ASP760  ASP761  ALA762  ILE779  LEU786  VAL792 
 PHE793  MET794  SER795  GLU796  ALA797  LYS798  CYS799  TRP800  GLU811  SER814 

> <Gold.Protein.RotatedAtoms>
  150.8640  134.7999  159.7104 H   0  0  0  0  0  0  0  0  0  0  0  0  # atno 6907 bound_to 6896
  152.4668  134.5053  159.9747 H   0  0  0  0  0  0  0  0  0  0  0  0  # atno 6908 bound_to 6896
  151.5152  133.3439  159.2927 H   0  0  0  0  0  0  0  0  0  0  0  0  # atno 6909 bound_to 6896
  144.7926  139.7289  143.6215 H   0  0  0  0  0  0  0  0  0  0  0  0  # atno 7974 bound_to 7965
  154.6528  140.2572  155.7195 H   0  0  0  0  0  0  0  0  0  0  0  0  # atno 8008 bound_to 7997
  156.2583  140.2864  156.0890 H   0  0  0  0  0  0  0  0  0  0  0  0  # atno 8009 bound_to 7997
  155.1425  140.0380  157.2792 H   0  0  0  0  0  0  0  0  0  0  0  0  # atno 8010 bound_to 7997
  140.6898  143.6516  150.8345 H   0  0  0  0  0  0  0  0  0  0  0  0  # atno 10167 bound_to 10162
  156.1779  130.4150  149.9550 H   0  0  0  0  0  0  0  0  0  0  0  0  # atno 10718 bound_to 10713
  154.8747  135.3815  154.4320 H   0  0  0  0  0  0  0  0  0  0  0  0  # atno 10763 bound_to 10752
  153.5013  135.7030  153.5835 H   0  0  0  0  0  0  0  0  0  0  0  0  # atno 10764 bound_to 10752
  153.4166  135.3911  155.2051 H   0  0  0  0  0  0  0  0  0  0  0  0  # atno 10765 bound_to 10752
  139.8854  134.9446  156.6058 H   0  0  0  0  0  0  0  0  0  0  0  0  # atno 11005 bound_to 11000
  146.2183  139.5589  142.9635 LP  0  0  0  0  0  0  0  0  0  0  0  0  # atno 17320 bound_to 7965
  145.5756  141.0389  143.2150 LP  0  0  0  0  0  0  0  0  0  0  0  0  # atno 17321 bound_to 7965
  140.0228  143.5525  152.2793 LP  0  0  0  0  0  0  0  0  0  0  0  0  # atno 17342 bound_to 10162
  139.6289  144.7641  151.2578 LP  0  0  0  0  0  0  0  0  0  0  0  0  # atno 17343 bound_to 10162
  156.7330  130.9050  151.3627 LP  0  0  0  0  0  0  0  0  0  0  0  0  # atno 17370 bound_to 10713
  157.6848  130.9175  150.0358 LP  0  0  0  0  0  0  0  0  0  0  0  0  # atno 17371 bound_to 10713
  140.7849  133.8629  155.8598 LP  0  0  0  0  0  0  0  0  0  0  0  0  # atno 17394 bound_to 11000
  140.9728  134.1509  157.4562 LP  0  0  0  0  0  0  0  0  0  0  0  0  # atno 17395 bound_to 11000

$$$$
