AV-unprocessed.smi:3280|AV-procd|sdf|12554|dock3
  -GOLD-   2272018473D 1   1.00000     0.00000
 Structure written by MMmdl.
 38 39  0  0  0  0  0  0  0  0  1 V2000
  147.7095  136.7053  163.1379 C   0  0  0  0  0  0  0  0  0  0  0  0
  147.0931  135.9563  161.9473 C   0  0  0  0  0  0  0  0  0  0  0  0
  146.7048  134.5092  162.2861 C   0  0  0  0  0  0  0  0  0  0  0  0
  147.9709  136.0277  160.7354 C   0  0  0  0  0  0  0  0  0  0  0  0
  148.3129  134.9320  160.0673 N   0  0  0  0  0  0  0  0  0  0  0  0
  149.0978  135.4240  159.0148 O   0  0  0  0  0  0  0  0  0  0  0  0
  149.1489  136.7665  159.1882 C   0  0  0  0  0  0  0  0  0  0  0  0
  149.8767  137.5962  158.1844 C   0  0  0  0  0  0  0  0  0  0  0  0
  149.7970  139.0940  158.5051 C   0  0  0  0  0  0  0  0  0  0  0  0
  150.8036  139.8145  157.7375 N   0  0  0  0  0  0  0  0  0  0  0  0
  150.9001  141.2138  158.1387 C   0  0  2  0  0  0  0  0  0  0  0  0
  150.9674  142.1368  156.9003 C   0  0  0  0  0  0  0  0  0  0  0  0
  151.0656  143.6237  157.2780 C   0  0  0  0  0  0  0  0  0  0  0  0
  152.3216  143.9409  158.1006 C   0  0  0  0  0  0  0  0  0  0  0  0
  152.3162  143.0418  159.6745 S   0  0  0  0  0  0  0  0  0  0  0  0
  152.1561  141.3590  159.0177 C   0  0  0  0  0  0  0  0  0  0  0  0
  148.4517  137.2007  160.2348 N   0  0  0  0  0  0  0  0  0  0  0  0
  147.9082  137.7473  162.8847 H   0  0  0  0  0  0  0  0  0  0  0  0
  148.6520  136.2521  163.4474 H   0  0  0  0  0  0  0  0  0  0  0  0
  147.0389  136.6964  163.9973 H   0  0  0  0  0  0  0  0  0  0  0  0
  146.1637  136.4749  161.7058 H   0  0  0  0  0  0  0  0  0  0  0  0
  146.2074  134.0288  161.4428 H   0  0  0  0  0  0  0  0  0  0  0  0
  146.0218  134.4753  163.1352 H   0  0  0  0  0  0  0  0  0  0  0  0
  147.5807  133.9118  162.5412 H   0  0  0  0  0  0  0  0  0  0  0  0
  150.9170  137.2696  158.1525 H   0  0  0  0  0  0  0  0  0  0  0  0
  149.4540  137.3975  157.1986 H   0  0  0  0  0  0  0  0  0  0  0  0
  148.7996  139.4649  158.2711 H   0  0  0  0  0  0  0  0  0  0  0  0
  149.9648  139.2517  159.5714 H   0  0  0  0  0  0  0  0  0  0  0  0
  151.6989  139.3701  157.8842 H   0  0  0  0  0  0  0  0  0  0  0  0
  150.0293  141.4696  158.7445 H   0  0  0  0  0  0  0  0  0  0  0  0
  151.8202  141.8623  156.2778 H   0  0  0  0  0  0  0  0  0  0  0  0
  150.0831  142.0068  156.2774 H   0  0  0  0  0  0  0  0  0  0  0  0
  151.0721  144.2244  156.3681 H   0  0  0  0  0  0  0  0  0  0  0  0
  150.1759  143.9222  157.8338 H   0  0  0  0  0  0  0  0  0  0  0  0
  153.2197  143.6758  157.5417 H   0  0  0  0  0  0  0  0  0  0  0  0
  152.3773  145.0096  158.3085 H   0  0  0  0  0  0  0  0  0  0  0  0
  152.1157  140.6697  159.8620 H   0  0  0  0  0  0  0  0  0  0  0  0
  153.0558  141.1169  158.4502 H   0  0  0  0  0  0  0  0  0  0  0  0
  1  2  1  0  0  0  0
  1 18  1  0  0  0  0
  1 19  1  0  0  0  0
  1 20  1  0  0  0  0
  2  3  1  0  0  0  0
  2  4  1  0  0  0  0
  2 21  1  0  0  0  0
  3 22  1  0  0  0  0
  3 23  1  0  0  0  0
  3 24  1  0  0  0  0
  4 17  1  0  0  0  0
  4  5  2  0  0  0  0
  5  6  1  0  0  0  0
  6  7  1  0  0  0  0
  7  8  1  0  0  0  0
  7 17  2  0  0  0  0
  8  9  1  0  0  0  0
  8 25  1  0  0  0  0
  8 26  1  0  0  0  0
  9 10  1  0  0  0  0
  9 27  1  0  0  0  0
  9 28  1  0  0  0  0
 10 11  1  0  0  0  0
 10 29  1  0  0  0  0
 11 16  1  0  0  0  0
 11 12  1  0  0  0  0
 11 30  1  0  0  0  0
 12 13  1  0  0  0  0
 12 31  1  0  0  0  0
 12 32  1  0  0  0  0
 13 14  1  0  0  0  0
 13 33  1  0  0  0  0
 13 34  1  0  0  0  0
 14 15  1  0  0  0  0
 14 35  1  0  0  0  0
 14 36  1  0  0  0  0
 15 16  1  0  0  0  0
 16 37  1  0  0  0  0
 16 38  1  0  0  0  0
M  END
> <s_m_source_file>
AV-unprocessed.smi

> <i_m_source_file_index>
3280

> <i_lp_mmshare_version>
43012

> <i_f3d_flags>
0

> <s_epik_input>
W0NIM11bQ0hdKFtDSDNdKWMxbm9jKG4xKVtDSDJdW0NIMl1bTkhdW0NAQEhdMltDSDJdW0NIMl1bQ0gyXVNbQ0gyXTI=

> <s_epik_cmdline>
J2VwaWtfcHl0aG9uJywgJy1waCcsICc3LjAnLCAnLXRuJywgJzgnLCAnLW1hJywgJzIwMCcsICctbWV0YWxfYmluZGluZycsICctaW1hZScsICc8aW5maWxlLm1hZT4nLCAnLW9tYWUnLCAnPG91dGZpbGUubWFlPic=

> <r_lp_tautomer_probability>
1

> <r_epik_Ionization_Penalty>
2.40576

> <r_epik_Ionization_Penalty_Charging>
0

> <r_epik_Ionization_Penalty_Neutral>
2.40576

> <r_epik_State_Penalty>
2.56401

> <r_epik_Charging_Adjusted_Penalty>
2.56401

> <i_epik_Tot_Q>
0

> <i_epik_Tot_abs_Q>
0

> <r_epik_Metal_State_Penalty>
2.56401

> <b_epik_Metal_Only>
0

> <s_lp_Force_Field>
OPLS_2005

> <r_lp_Energy>
1.17925

> <b_lp_Chiralities_Consistent>
1

> <s_lp_Variant>
AV-unprocessed.smi:3280-3

> <Gold.Version>
5.8.1

> <Gold.Id.Protein>
6NUR|6NUR_protein|mol2

> <Gold.PLP.Fitness>
41.5379

> <Gold.PLP.PLP>
-37.8426

> <Gold.PLP.part.hbond>
-3.0424

> <Gold.PLP.part.metal>
0.0000

> <Gold.PLP.part.buried>
-4.6087

> <Gold.PLP.part.nonpolar>
-30.7804

> <Gold.PLP.part.repulsive>
0.0000

> <Gold.PLP.ligand.clash>
0.0000

> <Gold.PLP.ligand.torsion>
0.7701

> <Gold.PLP.Chemscore.Hbond>
1.7121

> <Gold.PLP.Chemscore.CHOScore>
0.0000

> <Gold.PLP.Chemscore.Metal>
0.0000

> <Gold.Chemscore.Hbonds>
donor molecule, donor type, donor heavy atom, donor atom, acceptor molecule, acceptor atom, score
      P1  H  6896  6908       L1     6  0.80
      P1  H  6931  6943       L1    17  0.62
      P1  H  6934  6947       L1    17  0.16

> <Gold.PLP.Chemscore.Internal.Correction>
0.0993

> <Gold.Rescore>
     Score         DG    S(hbond)    S(metal)    S(lipo)     H(rot)  DE(clash)    DE(int)     intcor
     15.79     -16.59       1.30        0.00      94.77       1.68       0.09       0.72       ----

> <Gold.Chemscore.Fitness>
15.7906

> <Gold.Chemscore.DG>
-16.5936

> <Gold.Chemscore.ZeroCoef>
-5.4800

> <Gold.Chemscore.Hbond>
1.2978

> <Gold.Chemscore.Metal>
0.0000

> <Gold.Chemscore.Lipo>
94.7697

> <Gold.Chemscore.Internal_Hbond>
0.0000

> <Gold.Chemscore.DEClash>
0.0850

> <Gold.Chemscore.DEInternal>
0.7180

> <Gold.Chemscore.Rot>
1.6833

> <Gold.Chemscore.Internal.Correction>
   9.000000E+99

> <Gold.Chemscore.Hbonds>
donor molecule, donor type, donor heavy atom, donor atom, acceptor molecule, acceptor atom, score
      P1  H  6896  6908       L1     6  0.07
      P1  H  6931  6943       L1    17  0.29
      P1  H  6934  6947       L1    17  0.14

> <Gold.Chemscore.Hbond.Weighted>
-4.3347

> <Gold.Chemscore.Metal.Weighted>
-0.0000

> <Gold.Chemscore.Lipo.Weighted>
-11.0881

> <Gold.Chemscore.Internal_Hbond.Weighted>
0.0000

> <Gold.Chemscore.DEClash.Weighted>
0.0850

> <Gold.Chemscore.DEInternal.Weighted>
0.7180

> <Gold.Chemscore.Rot.Weighted>
4.3092

> <Gold.Chemscore.Internal.Correction.Weighted>
   9.000000E+99

> <Gold.Protein.RotatedTorsions>
[ 6907 6896 6895 6894 ] final -178.93 input  -60.11 | X-H torsion
[ 7974 7965 7964 7962 ] final  -46.32 input  175.53 | X-H torsion
[ 8008 7997 7996 7995 ] final -121.83 input   59.86 | X-H torsion
[ 10167 10162 10161 10158 ] final -178.08 input  -65.29 | X-H torsion
[ 10718 10713 10712 10709 ] final  167.11 input   66.30 | X-H torsion
[ 10763 10752 10751 10750 ] final  173.27 input  -60.55 | X-H torsion
[ 11005 11000 10999 10996 ] final -145.91 input  -57.11 | X-H torsion

> <Gold.Protein.ActiveResidues>
 VAL166  LYS551  ARG553  GLY616  TRP617  ASP618  TYR619  PRO620  LYS621  CYS622 
 ASP623  PHE694  ASN695  SER759  ASP760  ASP761  ALA762  ILE779  LEU786  VAL792 
 PHE793  MET794  SER795  GLU796  ALA797  LYS798  CYS799  TRP800  GLU811  SER814 

> <Gold.Protein.RotatedAtoms>
  151.6451  133.3324  159.3138 H   0  0  0  0  0  0  0  0  0  0  0  0  # atno 6907 bound_to 6896
  150.7988  134.7071  159.6592 H   0  0  0  0  0  0  0  0  0  0  0  0  # atno 6908 bound_to 6896
  152.4078  134.6181  160.0095 H   0  0  0  0  0  0  0  0  0  0  0  0  # atno 6909 bound_to 6896
  145.9731  140.7363  142.9401 H   0  0  0  0  0  0  0  0  0  0  0  0  # atno 7974 bound_to 7965
  155.1544  140.0404  157.2828 H   0  0  0  0  0  0  0  0  0  0  0  0  # atno 8008 bound_to 7997
  154.6381  140.2540  155.7327 H   0  0  0  0  0  0  0  0  0  0  0  0  # atno 8009 bound_to 7997
  156.2519  140.2861  156.0763 H   0  0  0  0  0  0  0  0  0  0  0  0  # atno 8010 bound_to 7997
  139.5449  144.2262  152.0969 H   0  0  0  0  0  0  0  0  0  0  0  0  # atno 10167 bound_to 10162
  157.0562  131.0327  151.2663 H   0  0  0  0  0  0  0  0  0  0  0  0  # atno 10718 bound_to 10713
  154.4377  135.2761  155.1869 H   0  0  0  0  0  0  0  0  0  0  0  0  # atno 10763 bound_to 10752
  154.3748  135.6100  153.5763 H   0  0  0  0  0  0  0  0  0  0  0  0  # atno 10764 bound_to 10752
  152.9839  135.5866  154.4699 H   0  0  0  0  0  0  0  0  0  0  0  0  # atno 10765 bound_to 10752
  140.7874  134.3008  157.5025 H   0  0  0  0  0  0  0  0  0  0  0  0  # atno 11005 bound_to 11000
  144.6842  140.2782  143.7296 LP  0  0  0  0  0  0  0  0  0  0  0  0  # atno 17320 bound_to 7965
  145.7878  139.1915  143.2120 LP  0  0  0  0  0  0  0  0  0  0  0  0  # atno 17321 bound_to 7965
  140.1747  144.4902  150.6560 LP  0  0  0  0  0  0  0  0  0  0  0  0  # atno 17342 bound_to 10162
  140.6694  143.2280  151.5663 LP  0  0  0  0  0  0  0  0  0  0  0  0  # atno 17343 bound_to 10162
  157.4991  130.7868  149.7586 LP  0  0  0  0  0  0  0  0  0  0  0  0  # atno 17370 bound_to 10713
  155.9992  130.3890  150.2672 LP  0  0  0  0  0  0  0  0  0  0  0  0  # atno 17371 bound_to 10713
  139.8735  134.9354  156.3633 LP  0  0  0  0  0  0  0  0  0  0  0  0  # atno 17394 bound_to 11000
  140.9423  133.7506  156.0163 LP  0  0  0  0  0  0  0  0  0  0  0  0  # atno 17395 bound_to 11000

$$$$
