AV-unprocessed.smi:1654|AV-procd|sdf|6643|dock6
  -GOLD-   22720 7343D 1   1.00000     0.00000
 Structure written by MMmdl.
 39 40  0  0  0  0  0  0  0  0  2 V2000
  153.2201  136.6638  156.9298 O   0  0  0  0  0  0  0  0  0  0  0  0
  152.6402  137.5709  157.9338 S   0  0  0  0  0  0  0  0  0  0  0  0
  151.8964  136.9713  159.0543 O   0  0  0  0  0  0  0  0  0  0  0  0
  153.6511  138.7421  158.4203 N   0  5  0  0  0  0  0  0  0  0  0  0
  153.3303  139.4921  159.6212 C   0  0  0  0  0  0  0  0  0  0  0  0
  154.2112  140.7555  159.6990 C   0  0  0  0  0  0  0  0  0  0  0  0
  153.4938  141.9711  160.2721 C   0  0  0  0  0  0  0  0  0  0  0  0
  153.3507  142.1414  161.6667 C   0  0  0  0  0  0  0  0  0  0  0  0
  152.6672  143.2746  162.1481 C   0  0  0  0  0  0  0  0  0  0  0  0
  152.1490  144.1920  161.2128 C   0  0  0  0  0  0  0  0  0  0  0  0
  152.2721  144.0394  159.8769 N   0  0  0  0  0  0  0  0  0  0  0  0
  152.9300  142.9503  159.4235 C   0  0  0  0  0  0  0  0  0  0  0  0
  151.5180  138.5820  157.0650 N   0  0  0  0  0  0  0  0  0  0  0  0
  151.9381  139.1777  155.7822 C   0  0  0  0  0  0  0  0  0  0  0  0
  150.9016  138.8811  154.6879 C   0  0  0  0  0  0  0  0  0  0  0  0
  149.7591  139.9070  154.5777 C   0  0  0  0  0  0  0  0  0  0  0  0
  149.2571  140.5122  155.9015 C   0  0  0  0  0  0  0  0  0  0  0  0
  149.1923  139.5311  157.0827 C   0  0  0  0  0  0  0  0  0  0  0  0
  150.5323  139.3741  157.8270 C   0  0  0  0  0  0  0  0  0  0  0  0
  152.2814  139.7901  159.6385 H   0  0  0  0  0  0  0  0  0  0  0  0
  153.4876  138.8938  160.5194 H   0  0  0  0  0  0  0  0  0  0  0  0
  155.0929  140.5548  160.3098 H   0  0  0  0  0  0  0  0  0  0  0  0
  154.5828  141.0096  158.7052 H   0  0  0  0  0  0  0  0  0  0  0  0
  153.7594  141.4171  162.3560 H   0  0  0  0  0  0  0  0  0  0  0  0
  152.5431  143.4364  163.2085 H   0  0  0  0  0  0  0  0  0  0  0  0
  151.6190  145.0718  161.5471 H   0  0  0  0  0  0  0  0  0  0  0  0
  153.0091  142.8576  158.3502 H   0  0  0  0  0  0  0  0  0  0  0  0
  152.1180  140.2472  155.8963 H   0  0  0  0  0  0  0  0  0  0  0  0
  152.8922  138.7524  155.4755 H   0  0  0  0  0  0  0  0  0  0  0  0
  151.4060  138.8335  153.7224 H   0  0  0  0  0  0  0  0  0  0  0  0
  150.4883  137.8834  154.8443 H   0  0  0  0  0  0  0  0  0  0  0  0
  150.0756  140.7260  153.9307 H   0  0  0  0  0  0  0  0  0  0  0  0
  148.9252  139.4316  154.0601 H   0  0  0  0  0  0  0  0  0  0  0  0
  149.8791  141.3651  156.1759 H   0  0  0  0  0  0  0  0  0  0  0  0
  148.2632  140.9257  155.7267 H   0  0  0  0  0  0  0  0  0  0  0  0
  148.4672  139.9201  157.7981 H   0  0  0  0  0  0  0  0  0  0  0  0
  148.8045  138.5617  156.7666 H   0  0  0  0  0  0  0  0  0  0  0  0
  150.3358  138.8929  158.7843 H   0  0  0  0  0  0  0  0  0  0  0  0
  150.9615  140.3464  158.0712 H   0  0  0  0  0  0  0  0  0  0  0  0
  1  2  2  0  0  0  0
  2  3  2  0  0  0  0
  2  4  1  0  0  0  0
  2 13  1  0  0  0  0
  4  5  1  0  0  0  0
  5  6  1  0  0  0  0
  5 20  1  0  0  0  0
  5 21  1  0  0  0  0
  6  7  1  0  0  0  0
  6 22  1  0  0  0  0
  6 23  1  0  0  0  0
  7 12  1  0  0  0  0
  7  8  2  0  0  0  0
  8  9  1  0  0  0  0
  8 24  1  0  0  0  0
  9 10  2  0  0  0  0
  9 25  1  0  0  0  0
 10 11  1  0  0  0  0
 10 26  1  0  0  0  0
 11 12  2  0  0  0  0
 12 27  1  0  0  0  0
 13 19  1  0  0  0  0
 13 14  1  0  0  0  0
 14 15  1  0  0  0  0
 14 28  1  0  0  0  0
 14 29  1  0  0  0  0
 15 16  1  0  0  0  0
 15 30  1  0  0  0  0
 15 31  1  0  0  0  0
 16 17  1  0  0  0  0
 16 32  1  0  0  0  0
 16 33  1  0  0  0  0
 17 18  1  0  0  0  0
 17 34  1  0  0  0  0
 17 35  1  0  0  0  0
 18 19  1  0  0  0  0
 18 36  1  0  0  0  0
 18 37  1  0  0  0  0
 19 38  1  0  0  0  0
 19 39  1  0  0  0  0
M  CHG  1   4  -1
M  END
> <s_m_source_file>
AV-unprocessed.smi

> <i_m_source_file_index>
1654

> <i_lp_mmshare_version>
43012

> <i_f3d_flags>
0

> <s_epik_input>
W0NIMl0xW0NIMl1bQ0gyXVtDSDJdW0NIMl1bQ0gyXU4xUyg9TykoPU8pW05IXVtDSDJdW0NIMl1jMltjSF1bY0hdW2NIXW5bY0hdMg==

> <s_epik_cmdline>
J2VwaWtfcHl0aG9uJywgJy1waCcsICc3LjAnLCAnLXRuJywgJzgnLCAnLW1hJywgJzIwMCcsICctbWV0YWxfYmluZGluZycsICctaW1hZScsICc8aW5maWxlLm1hZT4nLCAnLW9tYWUnLCAnPG91dGZpbGUubWFlPic=

> <r_lp_tautomer_probability>
1

> <r_epik_Ionization_Penalty>
3.13138

> <r_epik_Ionization_Penalty_Charging>
3.10426

> <r_epik_Ionization_Penalty_Neutral>
0.027117

> <r_epik_State_Penalty>
3.10111

> <r_epik_Charging_Adjusted_Penalty>
6.20538

> <i_epik_Tot_Q>
-1

> <i_epik_Tot_abs_Q>
1

> <r_epik_Metal_State_Penalty>
0.464106

> <b_epik_Metal_Only>
1

> <s_lp_Force_Field>
OPLS_2005

> <r_lp_Energy>
12.7892

> <b_lp_Chiralities_Consistent>
1

> <s_lp_Variant>
AV-unprocessed.smi:1654-2

> <Gold.Version>
5.8.1

> <Gold.Id.Protein>
6NUR|6NUR_protein|mol2

> <Gold.PLP.Fitness>
50.6128

> <Gold.PLP.PLP>
-40.7228

> <Gold.PLP.part.hbond>
-3.0000

> <Gold.PLP.part.metal>
0.0000

> <Gold.PLP.part.buried>
-5.4633

> <Gold.PLP.part.nonpolar>
-33.1500

> <Gold.PLP.part.repulsive>
0.0365

> <Gold.PLP.ligand.clash>
0.0000

> <Gold.PLP.ligand.torsion>
2.1913

> <Gold.PLP.Chemscore.Hbond>
3.7274

> <Gold.PLP.Chemscore.CHOScore>
0.0000

> <Gold.PLP.Chemscore.Metal>
0.0000

> <Gold.Chemscore.Hbonds>
donor molecule, donor type, donor heavy atom, donor atom, acceptor molecule, acceptor atom, score
      P1  H  6896  6909       L1     3  0.66
      P1  H  7997  8008       L1     4  1.66
      P1  H 10752 10763       L1     1  0.91

> <Gold.PLP.Chemscore.Internal.Correction>
3.0905

> <Gold.Rescore>
     Score         DG    S(hbond)    S(metal)    S(lipo)     H(rot)  DE(clash)    DE(int)     intcor
     20.76     -22.70       2.58        0.00     101.37       1.27       0.00       1.94       ----

> <Gold.Chemscore.Fitness>
20.7615

> <Gold.Chemscore.DG>
-22.7046

> <Gold.Chemscore.ZeroCoef>
-5.4800

> <Gold.Chemscore.Hbond>
2.5826

> <Gold.Chemscore.Metal>
0.0000

> <Gold.Chemscore.Lipo>
101.3670

> <Gold.Chemscore.Internal_Hbond>
0.0000

> <Gold.Chemscore.DEClash>
0.0000

> <Gold.Chemscore.DEInternal>
1.9432

> <Gold.Chemscore.Rot>
1.2738

> <Gold.Chemscore.Internal.Correction>
   9.000000E+99

> <Gold.Chemscore.Hbonds>
donor molecule, donor type, donor heavy atom, donor atom, acceptor molecule, acceptor atom, score
      P1  H  6896  6909       L1     3  0.64
      P1  H  7997  8008       L1     4  0.48
      P1  H 10752 10763       L1     1  0.84

> <Gold.Chemscore.Hbond.Weighted>
-8.6257

> <Gold.Chemscore.Metal.Weighted>
-0.0000

> <Gold.Chemscore.Lipo.Weighted>
-11.8599

> <Gold.Chemscore.Internal_Hbond.Weighted>
0.0000

> <Gold.Chemscore.DEClash.Weighted>
0.0000

> <Gold.Chemscore.DEInternal.Weighted>
1.9432

> <Gold.Chemscore.Rot.Weighted>
3.2610

> <Gold.Chemscore.Internal.Correction.Weighted>
   9.000000E+99

> <Gold.Protein.RotatedTorsions>
[ 6907 6896 6895 6894 ] final  141.16 input  -60.11 | X-H torsion
[ 7974 7965 7964 7962 ] final   44.90 input  175.53 | X-H torsion
[ 8008 7997 7996 7995 ] final -100.88 input   59.86 | X-H torsion
[ 10167 10162 10161 10158 ] final -177.48 input  -65.29 | X-H torsion
[ 10718 10713 10712 10709 ] final -113.36 input   66.30 | X-H torsion
[ 10763 10752 10751 10750 ] final  122.09 input  -60.55 | X-H torsion
[ 11005 11000 10999 10996 ] final  -34.73 input  -57.11 | X-H torsion

> <Gold.Protein.ActiveResidues>
 VAL166  LYS551  ARG553  GLY616  TRP617  ASP618  TYR619  PRO620  LYS621  CYS622 
 ASP623  PHE694  ASN695  SER759  ASP760  ASP761  ALA762  ILE779  LEU786  VAL792 
 PHE793  MET794  SER795  GLU796  ALA797  LYS798  CYS799  TRP800  GLU811  SER814 

> <Gold.Protein.RotatedAtoms>
  152.2343  133.5083  159.5233 H   0  0  0  0  0  0  0  0  0  0  0  0  # atno 6907 bound_to 6896
  150.7046  134.1174  159.4031 H   0  0  0  0  0  0  0  0  0  0  0  0  # atno 6908 bound_to 6896
  151.9096  135.0344  160.0564 H   0  0  0  0  0  0  0  0  0  0  0  0  # atno 6909 bound_to 6896
  146.0528  139.5024  142.9707 H   0  0  0  0  0  0  0  0  0  0  0  0  # atno 7974 bound_to 7965
  154.8347  140.0438  157.1501 H   0  0  0  0  0  0  0  0  0  0  0  0  # atno 8008 bound_to 7997
  154.9113  140.3014  155.5244 H   0  0  0  0  0  0  0  0  0  0  0  0  # atno 8009 bound_to 7997
  156.2989  140.2357  156.4152 H   0  0  0  0  0  0  0  0  0  0  0  0  # atno 8010 bound_to 7997
  139.5478  144.2188  152.1021 H   0  0  0  0  0  0  0  0  0  0  0  0  # atno 10167 bound_to 10162
  156.0762  130.5969  150.8632 H   0  0  0  0  0  0  0  0  0  0  0  0  # atno 10718 bound_to 10713
  153.6242  135.3407  155.3021 H   0  0  0  0  0  0  0  0  0  0  0  0  # atno 10763 bound_to 10752
  154.8594  135.4280  154.2174 H   0  0  0  0  0  0  0  0  0  0  0  0  # atno 10764 bound_to 10752
  153.3055  135.7028  153.7237 H   0  0  0  0  0  0  0  0  0  0  0  0  # atno 10765 bound_to 10752
  140.9739  133.7094  156.1570 H   0  0  0  0  0  0  0  0  0  0  0  0  # atno 11005 bound_to 11000
  145.6695  141.0220  143.1665 LP  0  0  0  0  0  0  0  0  0  0  0  0  # atno 17320 bound_to 7965
  144.7132  139.8294  143.7407 LP  0  0  0  0  0  0  0  0  0  0  0  0  # atno 17321 bound_to 7965
  140.1678  144.4964  150.6596 LP  0  0  0  0  0  0  0  0  0  0  0  0  # atno 17342 bound_to 10162
  140.6732  143.2294  151.5573 LP  0  0  0  0  0  0  0  0  0  0  0  0  # atno 17343 bound_to 10162
  157.5858  131.0945  150.9199 LP  0  0  0  0  0  0  0  0  0  0  0  0  # atno 17370 bound_to 10713
  156.9385  130.5376  149.5280 LP  0  0  0  0  0  0  0  0  0  0  0  0  # atno 17371 bound_to 10713
  140.7287  134.4278  157.5568 LP  0  0  0  0  0  0  0  0  0  0  0  0  # atno 17394 bound_to 11000
  139.8923  134.8758  156.2278 LP  0  0  0  0  0  0  0  0  0  0  0  0  # atno 17395 bound_to 11000

$$$$
