AV-unprocessed.smi:2154|AV-procd|sdf|8777|dock4
  -GOLD-   2272011553D 1   1.00000     0.00000
 Structure written by MMmdl.
 31 32  0  0  0  0  0  0  0  0  2 V2000
  144.4739  143.8399  162.4250 C   0  0  0  0  0  0  0  0  0  0  0  0
  145.8716  143.7531  161.8505 C   0  0  1  0  0  0  0  0  0  0  0  0
  146.0825  143.5768  160.3637 C   0  0  0  0  0  0  0  0  0  0  0  0
  146.4408  144.8860  161.0260 C   0  0  2  0  0  0  0  0  0  0  0  0
  147.8859  145.3076  161.1882 C   0  0  0  0  0  0  0  0  0  0  0  0
  148.6984  145.0766  160.0018 N   0  0  0  0  0  0  0  0  0  0  0  0
  149.9462  144.5790  159.9836 C   0  0  0  0  0  0  0  0  0  0  0  0
  150.5459  144.2397  161.0035 O   0  0  0  0  0  0  0  0  0  0  0  0
  150.6449  144.4210  158.6214 C   0  0  0  0  0  0  0  0  0  0  0  0
  151.2142  143.0852  158.3632 N   0  0  0  0  0  0  0  0  0  0  0  0
  150.7039  142.3624  157.2703 C   0  0  0  0  0  0  0  0  0  0  0  0
  151.1630  141.1373  156.9514 C   0  0  0  0  0  0  0  0  0  0  0  0
  152.2188  140.5604  157.7740 C   0  0  0  0  0  0  0  0  0  0  0  0
  152.6493  139.4423  157.4984 O   0  0  0  0  0  0  0  0  0  0  0  0
  152.6835  141.3018  158.8218 N   0  5  0  0  0  0  0  0  0  0  0  0
  152.2075  142.5469  159.1340 C   0  0  0  0  0  0  0  0  0  0  0  0
  152.6466  143.2023  160.0791 O   0  0  0  0  0  0  0  0  0  0  0  0
  143.8132  144.3930  161.7566 H   0  0  0  0  0  0  0  0  0  0  0  0
  144.4974  144.3484  163.3890 H   0  0  0  0  0  0  0  0  0  0  0  0
  144.0650  142.8397  162.5684 H   0  0  0  0  0  0  0  0  0  0  0  0
  146.5730  143.2236  162.4926 H   0  0  0  0  0  0  0  0  0  0  0  0
  146.8971  142.9294  160.0452 H   0  0  0  0  0  0  0  0  0  0  0  0
  145.2033  143.5667  159.7224 H   0  0  0  0  0  0  0  0  0  0  0  0
  145.7658  145.7182  160.8331 H   0  0  0  0  0  0  0  0  0  0  0  0
  147.8938  146.3628  161.4649 H   0  0  0  0  0  0  0  0  0  0  0  0
  148.3314  144.7641  162.0221 H   0  0  0  0  0  0  0  0  0  0  0  0
  148.2878  145.3319  159.1147 H   0  0  0  0  0  0  0  0  0  0  0  0
  149.9343  144.6863  157.8370 H   0  0  0  0  0  0  0  0  0  0  0  0
  151.4286  145.1772  158.5565 H   0  0  0  0  0  0  0  0  0  0  0  0
  149.9279  142.8632  156.7100 H   0  0  0  0  0  0  0  0  0  0  0  0
  150.7614  140.5964  156.1073 H   0  0  0  0  0  0  0  0  0  0  0  0
  1  2  1  0  0  0  0
  1 18  1  0  0  0  0
  1 19  1  0  0  0  0
  1 20  1  0  0  0  0
  2  4  1  0  0  0  0
  2  3  1  0  0  0  0
  2 21  1  0  0  0  0
  3  4  1  0  0  0  0
  3 22  1  0  0  0  0
  3 23  1  0  0  0  0
  4  5  1  0  0  0  0
  4 24  1  0  0  0  0
  5  6  1  0  0  0  0
  5 25  1  0  0  0  0
  5 26  1  0  0  0  0
  6  7  1  0  0  0  0
  6 27  1  0  0  0  0
  7  8  2  0  0  0  0
  7  9  1  0  0  0  0
  9 10  1  0  0  0  0
  9 28  1  0  0  0  0
  9 29  1  0  0  0  0
 10 16  1  0  0  0  0
 10 11  1  0  0  0  0
 11 12  2  0  0  0  0
 11 30  1  0  0  0  0
 12 13  1  0  0  0  0
 12 31  1  0  0  0  0
 13 14  2  0  0  0  0
 13 15  1  0  0  0  0
 15 16  1  0  0  0  0
 16 17  2  0  0  0  0
M  CHG  1  15  -1
M  END
> <s_m_source_file>
AV-unprocessed.smi

> <i_m_source_file_index>
2154

> <i_lp_mmshare_version>
43012

> <i_f3d_flags>
0

> <s_epik_input>
W0NIM11bQ0BASF0xW0NIMl1bQ0BIXTFbQ0gyXVtOSF1DKD1PKVtDSDJdbjJbY0hdW2NIXWMoPU8pW25IXWMyPU8=

> <s_epik_cmdline>
J2VwaWtfcHl0aG9uJywgJy1waCcsICc3LjAnLCAnLXRuJywgJzgnLCAnLW1hJywgJzIwMCcsICctbWV0YWxfYmluZGluZycsICctaW1hZScsICc8aW5maWxlLm1hZT4nLCAnLW9tYWUnLCAnPG91dGZpbGUubWFlPic=

> <r_lp_tautomer_probability>
0.999537

> <r_epik_Ionization_Penalty>
3.12283

> <r_epik_Ionization_Penalty_Charging>
2.83566e-08

> <r_epik_Ionization_Penalty_Neutral>
3.12283

> <r_epik_State_Penalty>
3.12192

> <r_epik_Charging_Adjusted_Penalty>
3.12192

> <i_epik_Tot_Q>
-1

> <i_epik_Tot_abs_Q>
1

> <r_epik_Metal_State_Penalty>
0.463748

> <b_epik_Metal_Only>
1

> <s_lp_Force_Field>
OPLS_2005

> <r_lp_Energy>
24.2191

> <b_lp_Chiralities_Consistent>
1

> <s_lp_Variant>
AV-unprocessed.smi:2154-8

> <Gold.Version>
5.8.1

> <Gold.Id.Protein>
6NUR|6NUR_protein|mol2

> <Gold.PLP.Fitness>
45.2240

> <Gold.PLP.PLP>
-36.9385

> <Gold.PLP.part.hbond>
-2.5027

> <Gold.PLP.part.metal>
0.0000

> <Gold.PLP.part.buried>
-7.7368

> <Gold.PLP.part.nonpolar>
-27.6496

> <Gold.PLP.part.repulsive>
0.4516

> <Gold.PLP.ligand.clash>
0.0000

> <Gold.PLP.ligand.torsion>
0.6263

> <Gold.PLP.Chemscore.Hbond>
2.0000

> <Gold.PLP.Chemscore.CHOScore>
1.0000

> <Gold.PLP.Chemscore.Metal>
0.0000

> <Gold.Chemscore.Hbonds>
donor molecule, donor type, donor heavy atom, donor atom, acceptor molecule, acceptor atom, score
      L1  H     6    27       P1  8029  1.00
      P1  H  7997  8010       L1    14  0.80
      L1  C    11    30       P1  8028  1.00

> <Gold.PLP.Chemscore.Internal.Correction>
0.5381

> <Gold.Rescore>
     Score         DG    S(hbond)    S(metal)    S(lipo)     H(rot)  DE(clash)    DE(int)     intcor
      9.93     -12.76       1.79        0.00      53.90       1.96       0.62       2.20       ----

> <Gold.Chemscore.Fitness>
9.9343

> <Gold.Chemscore.DG>
-12.7579

> <Gold.Chemscore.ZeroCoef>
-5.4800

> <Gold.Chemscore.Hbond>
1.7940

> <Gold.Chemscore.Metal>
0.0000

> <Gold.Chemscore.Lipo>
53.8970

> <Gold.Chemscore.Internal_Hbond>
0.0000

> <Gold.Chemscore.DEClash>
0.6224

> <Gold.Chemscore.DEInternal>
2.2012

> <Gold.Chemscore.Rot>
1.9609

> <Gold.Chemscore.Internal.Correction>
   9.000000E+99

> <Gold.Chemscore.Hbonds>
donor molecule, donor type, donor heavy atom, donor atom, acceptor molecule, acceptor atom, score
      L1  H     6    27       P1  8029  0.98
      P1  H  7997  8010       L1    14  0.11

> <Gold.Chemscore.Hbond.Weighted>
-5.9919

> <Gold.Chemscore.Metal.Weighted>
-0.0000

> <Gold.Chemscore.Lipo.Weighted>
-6.3059

> <Gold.Chemscore.Internal_Hbond.Weighted>
0.0000

> <Gold.Chemscore.DEClash.Weighted>
0.6224

> <Gold.Chemscore.DEInternal.Weighted>
2.2012

> <Gold.Chemscore.Rot.Weighted>
5.0200

> <Gold.Chemscore.Internal.Correction.Weighted>
   9.000000E+99

> <Gold.Protein.RotatedTorsions>
[ 6907 6896 6895 6894 ] final  166.22 input  -60.11 | X-H torsion
[ 7974 7965 7964 7962 ] final   27.19 input  175.53 | X-H torsion
[ 8008 7997 7996 7995 ] final   55.48 input   59.86 | X-H torsion
[ 10167 10162 10161 10158 ] final   -1.40 input  -65.29 | X-H torsion
[ 10718 10713 10712 10709 ] final  -21.64 input   66.30 | X-H torsion
[ 10763 10752 10751 10750 ] final  173.32 input  -60.55 | X-H torsion
[ 11005 11000 10999 10996 ] final  -16.99 input  -57.11 | X-H torsion

> <Gold.Protein.ActiveResidues>
 VAL166  LYS551  ARG553  GLY616  TRP617  ASP618  TYR619  PRO620  LYS621  CYS622 
 ASP623  PHE694  ASN695  SER759  ASP760  ASP761  ALA762  ILE779  LEU786  VAL792 
 PHE793  MET794  SER795  GLU796  ALA797  LYS798  CYS799  TRP800  GLU811  SER814 

> <Gold.Protein.RotatedAtoms>
  151.8822  133.3498  159.3769 H   0  0  0  0  0  0  0  0  0  0  0  0  # atno 6907 bound_to 6896
  150.7124  134.5007  159.5569 H   0  0  0  0  0  0  0  0  0  0  0  0  # atno 6908 bound_to 6896
  152.2561  134.8083  160.0489 H   0  0  0  0  0  0  0  0  0  0  0  0  # atno 6909 bound_to 6896
  146.1797  139.7225  142.8909 H   0  0  0  0  0  0  0  0  0  0  0  0  # atno 7974 bound_to 7965
  155.5018  140.3474  155.4372 H   0  0  0  0  0  0  0  0  0  0  0  0  # atno 8008 bound_to 7997
  156.0908  140.1410  156.9622 H   0  0  0  0  0  0  0  0  0  0  0  0  # atno 8009 bound_to 7997
  154.4634  140.0926  156.6931 H   0  0  0  0  0  0  0  0  0  0  0  0  # atno 8010 bound_to 7997
  140.6808  143.6779  150.8130 H   0  0  0  0  0  0  0  0  0  0  0  0  # atno 10167 bound_to 10162
  156.5153  130.4619  149.6626 H   0  0  0  0  0  0  0  0  0  0  0  0  # atno 10718 bound_to 10713
  154.4385  135.2761  155.1864 H   0  0  0  0  0  0  0  0  0  0  0  0  # atno 10763 bound_to 10752
  154.3741  135.6102  153.5759 H   0  0  0  0  0  0  0  0  0  0  0  0  # atno 10764 bound_to 10752
  152.9839  135.5864  154.4708 H   0  0  0  0  0  0  0  0  0  0  0  0  # atno 10765 bound_to 10752
  140.8123  133.8131  155.9576 H   0  0  0  0  0  0  0  0  0  0  0  0  # atno 11005 bound_to 11000
  145.4111  141.0396  143.3017 LP  0  0  0  0  0  0  0  0  0  0  0  0  # atno 17320 bound_to 7965
  144.8295  139.5653  143.6950 LP  0  0  0  0  0  0  0  0  0  0  0  0  # atno 17321 bound_to 7965
  140.0479  143.5279  152.2687 LP  0  0  0  0  0  0  0  0  0  0  0  0  # atno 17342 bound_to 10162
  139.6130  144.7613  151.2909 LP  0  0  0  0  0  0  0  0  0  0  0  0  # atno 17343 bound_to 10162
  156.3201  130.7275  151.2186 LP  0  0  0  0  0  0  0  0  0  0  0  0  # atno 17370 bound_to 10713
  157.7444  131.0458  150.4861 LP  0  0  0  0  0  0  0  0  0  0  0  0  # atno 17371 bound_to 10713
  140.9184  134.2172  157.4942 LP  0  0  0  0  0  0  0  0  0  0  0  0  # atno 17394 bound_to 11000
  139.8713  134.9781  156.4986 LP  0  0  0  0  0  0  0  0  0  0  0  0  # atno 17395 bound_to 11000

$$$$
