AV-unprocessed.smi:484|AV-procd|sdf|2688|dock2
  -GOLD-   2262023113D 1   1.00000     0.00000
 Structure written by MMmdl.
 46 48  0  0  0  0  0  0  0  0  1 V2000
  152.3311  142.8382  162.2867 C   0  0  0  0  0  0  0  0  0  0  0  0
  153.2381  141.9762  161.4017 C   0  0  0  0  0  0  0  0  0  0  0  0
  152.5581  141.5699  160.1081 C   0  0  0  0  0  0  0  0  0  0  0  0
  152.4394  140.2085  159.7649 C   0  0  0  0  0  0  0  0  0  0  0  0
  151.8000  139.8350  158.5674 C   0  0  0  0  0  0  0  0  0  0  0  0
  151.2695  140.8087  157.6966 C   0  0  0  0  0  0  0  0  0  0  0  0
  150.6565  140.3534  156.5488 O   0  0  0  0  0  0  0  0  0  0  0  0
  150.1272  141.3136  155.6444 C   0  0  0  0  0  0  0  0  0  0  0  0
  149.3133  140.5818  154.5614 C   0  0  1  0  0  0  0  0  0  0  0  0
  150.1900  139.7399  153.8420 O   0  0  0  0  0  0  0  0  0  0  0  0
  148.1875  139.6869  155.1211 C   0  0  0  0  0  0  0  0  0  0  0  0
  147.0698  140.4439  155.6708 N   0  0  0  0  0  0  0  0  0  0  0  0
  146.3863  140.2141  156.8209 C   0  0  0  0  0  0  0  0  0  0  0  0
  146.7287  139.0647  157.7260 C   0  0  0  0  0  0  0  0  0  0  0  0
  145.8075  138.8776  158.7811 O   0  0  0  0  0  0  0  0  0  0  0  0
  145.3897  141.0646  157.0788 N   0  0  0  0  0  0  0  0  0  0  0  0
  145.4385  141.9303  156.0043 C   0  0  0  0  0  0  0  0  0  0  0  0
  144.6394  143.0536  155.6928 C   0  0  0  0  0  0  0  0  0  0  0  0
  144.8763  143.7938  154.5161 C   0  0  0  0  0  0  0  0  0  0  0  0
  145.9134  143.4226  153.6360 C   0  0  0  0  0  0  0  0  0  0  0  0
  146.7223  142.3078  153.9285 C   0  0  0  0  0  0  0  0  0  0  0  0
  146.4815  141.5718  155.1047 C   0  0  0  0  0  0  0  0  0  0  0  0
  151.3941  142.1772  158.0464 C   0  0  0  0  0  0  0  0  0  0  0  0
  152.0341  142.5519  159.2438 C   0  0  0  0  0  0  0  0  0  0  0  0
  152.8404  143.1178  163.2091 H   0  0  0  0  0  0  0  0  0  0  0  0
  151.4215  142.3016  162.5580 H   0  0  0  0  0  0  0  0  0  0  0  0
  152.0392  143.7561  161.7756 H   0  0  0  0  0  0  0  0  0  0  0  0
  154.1541  142.5202  161.1688 H   0  0  0  0  0  0  0  0  0  0  0  0
  153.5425  141.0814  161.9458 H   0  0  0  0  0  0  0  0  0  0  0  0
  152.8351  139.4461  160.4201 H   0  0  0  0  0  0  0  0  0  0  0  0
  151.7131  138.7883  158.3157 H   0  0  0  0  0  0  0  0  0  0  0  0
  149.5096  142.0539  156.1563 H   0  0  0  0  0  0  0  0  0  0  0  0
  150.9689  141.8366  155.1910 H   0  0  0  0  0  0  0  0  0  0  0  0
  148.8865  141.3092  153.8711 H   0  0  0  0  0  0  0  0  0  0  0  0
  149.8372  139.6128  152.9744 H   0  0  0  0  0  0  0  0  0  0  0  0
  147.8114  139.0184  154.3465 H   0  0  0  0  0  0  0  0  0  0  0  0
  148.5818  139.0379  155.9039 H   0  0  0  0  0  0  0  0  0  0  0  0
  146.7748  138.1485  157.1379 H   0  0  0  0  0  0  0  0  0  0  0  0
  147.7123  139.2245  158.1669 H   0  0  0  0  0  0  0  0  0  0  0  0
  145.4750  137.9941  158.7317 H   0  0  0  0  0  0  0  0  0  0  0  0
  143.8415  143.3453  156.3595 H   0  0  0  0  0  0  0  0  0  0  0  0
  144.2585  144.6499  154.2874 H   0  0  0  0  0  0  0  0  0  0  0  0
  146.0872  143.9931  152.7352 H   0  0  0  0  0  0  0  0  0  0  0  0
  147.5144  142.0197  153.2536 H   0  0  0  0  0  0  0  0  0  0  0  0
  151.0063  142.9612  157.4141 H   0  0  0  0  0  0  0  0  0  0  0  0
  152.1189  143.5983  159.4984 H   0  0  0  0  0  0  0  0  0  0  0  0
  1  2  1  0  0  0  0
  1 25  1  0  0  0  0
  1 26  1  0  0  0  0
  1 27  1  0  0  0  0
  2  3  1  0  0  0  0
  2 28  1  0  0  0  0
  2 29  1  0  0  0  0
  3 24  1  0  0  0  0
  3  4  2  0  0  0  0
  4  5  1  0  0  0  0
  4 30  1  0  0  0  0
  5  6  2  0  0  0  0
  5 31  1  0  0  0  0
  6  7  1  0  0  0  0
  6 23  1  0  0  0  0
  7  8  1  0  0  0  0
  8  9  1  0  0  0  0
  8 32  1  0  0  0  0
  8 33  1  0  0  0  0
  9 10  1  0  0  0  0
  9 11  1  0  0  0  0
  9 34  1  0  0  0  0
 10 35  1  0  0  0  0
 11 12  1  0  0  0  0
 11 36  1  0  0  0  0
 11 37  1  0  0  0  0
 12 22  1  0  0  0  0
 12 13  1  0  0  0  0
 13 14  1  0  0  0  0
 13 16  2  0  0  0  0
 14 15  1  0  0  0  0
 14 38  1  0  0  0  0
 14 39  1  0  0  0  0
 15 40  1  0  0  0  0
 16 17  1  0  0  0  0
 17 22  2  0  0  0  0
 17 18  1  0  0  0  0
 18 19  2  0  0  0  0
 18 41  1  0  0  0  0
 19 20  1  0  0  0  0
 19 42  1  0  0  0  0
 20 21  2  0  0  0  0
 20 43  1  0  0  0  0
 21 22  1  0  0  0  0
 21 44  1  0  0  0  0
 23 24  2  0  0  0  0
 23 45  1  0  0  0  0
 24 46  1  0  0  0  0
M  END
> <s_m_source_file>
AV-unprocessed.smi

> <i_m_source_file_index>
484

> <i_lp_mmshare_version>
43012

> <i_f3d_flags>
0

> <s_epik_input>
W0NIM11bQ0gyXWMxW2NIXVtjSF1jKFtjSF1bY0hdMSlPW0NIMl1bQ0BIXShbT0hdKVtDSDJdbihjKG4yKVtDSDJdW09IXSljKGMyMylbY0hdW2NIXVtjSF1bY0hdMw==

> <s_epik_cmdline>
J2VwaWtfcHl0aG9uJywgJy1waCcsICc3LjAnLCAnLXRuJywgJzgnLCAnLW1hJywgJzIwMCcsICctbWV0YWxfYmluZGluZycsICctaW1hZScsICc8aW5maWxlLm1hZT4nLCAnLW9tYWUnLCAnPG91dGZpbGUubWFlPic=

> <r_lp_tautomer_probability>
1

> <r_epik_Ionization_Penalty>
0.0555463

> <r_epik_Ionization_Penalty_Charging>
0

> <r_epik_Ionization_Penalty_Neutral>
0.0555463

> <r_epik_State_Penalty>
0.0477854

> <r_epik_Charging_Adjusted_Penalty>
0.0477854

> <i_epik_Tot_Q>
0

> <i_epik_Tot_abs_Q>
0

> <r_epik_Metal_State_Penalty>
4.97632e-05

> <b_epik_Metal_Only>
0

> <s_lp_Force_Field>
OPLS_2005

> <r_lp_Energy>
17.3214

> <b_lp_Chiralities_Consistent>
1

> <s_lp_Variant>
AV-unprocessed.smi:484-2

> <Gold.Version>
5.8.1

> <Gold.Id.Protein>
6NUR|6NUR_protein|mol2

> <Gold.PLP.Fitness>
52.6755

> <Gold.PLP.PLP>
-47.0809

> <Gold.PLP.part.hbond>
-3.0000

> <Gold.PLP.part.metal>
0.0000

> <Gold.PLP.part.buried>
-6.9393

> <Gold.PLP.part.nonpolar>
-37.4819

> <Gold.PLP.part.repulsive>
0.0066

> <Gold.PLP.ligand.clash>
0.0000

> <Gold.PLP.ligand.torsion>
0.3826

> <Gold.PLP.Chemscore.Hbond>
2.0700

> <Gold.PLP.Chemscore.CHOScore>
0.0000

> <Gold.PLP.Chemscore.Metal>
0.0000

> <Gold.Chemscore.Hbonds>
donor molecule, donor type, donor heavy atom, donor atom, acceptor molecule, acceptor atom, score
      L1  H    10    35       P1  7957  1.00
      P1  H  7989  7998       L1    10  0.94

> <Gold.PLP.Chemscore.Internal.Correction>
0.1500

> <Gold.Rescore>
     Score         DG    S(hbond)    S(metal)    S(lipo)     H(rot)  DE(clash)    DE(int)     intcor
     16.15     -16.40       1.74        0.00     110.90       3.08       0.02       0.24       ----

> <Gold.Chemscore.Fitness>
16.1483

> <Gold.Chemscore.DG>
-16.4028

> <Gold.Chemscore.ZeroCoef>
-5.4800

> <Gold.Chemscore.Hbond>
1.7450

> <Gold.Chemscore.Metal>
0.0000

> <Gold.Chemscore.Lipo>
110.8974

> <Gold.Chemscore.Internal_Hbond>
0.0000

> <Gold.Chemscore.DEClash>
0.0174

> <Gold.Chemscore.DEInternal>
0.2371

> <Gold.Chemscore.Rot>
3.0783

> <Gold.Chemscore.Internal.Correction>
   9.000000E+99

> <Gold.Chemscore.Hbonds>
donor molecule, donor type, donor heavy atom, donor atom, acceptor molecule, acceptor atom, score
      L1  H    10    35       P1  7957  0.97
      P1  H  7989  7998       L1    10  0.09

> <Gold.Chemscore.Hbond.Weighted>
-5.8283

> <Gold.Chemscore.Metal.Weighted>
-0.0000

> <Gold.Chemscore.Lipo.Weighted>
-12.9750

> <Gold.Chemscore.Internal_Hbond.Weighted>
0.0000

> <Gold.Chemscore.DEClash.Weighted>
0.0174

> <Gold.Chemscore.DEInternal.Weighted>
0.2371

> <Gold.Chemscore.Rot.Weighted>
7.8805

> <Gold.Chemscore.Internal.Correction.Weighted>
   9.000000E+99

> <Gold.Protein.RotatedTorsions>
[ 6907 6896 6895 6894 ] final  -74.35 input  -60.11 | X-H torsion
[ 7974 7965 7964 7962 ] final   75.80 input  175.53 | X-H torsion
[ 8008 7997 7996 7995 ] final -158.35 input   59.86 | X-H torsion
[ 10167 10162 10161 10158 ] final   99.69 input  -65.29 | X-H torsion
[ 10718 10713 10712 10709 ] final   79.80 input   66.30 | X-H torsion
[ 10763 10752 10751 10750 ] final  153.43 input  -60.55 | X-H torsion
[ 11005 11000 10999 10996 ] final -164.48 input  -57.11 | X-H torsion

> <Gold.Protein.ActiveResidues>
 VAL166  LYS551  ARG553  GLY616  TRP617  ASP618  TYR619  PRO620  LYS621  CYS622 
 ASP623  PHE694  ASN695  SER759  ASP760  ASP761  ALA762  ILE779  LEU786  VAL792 
 PHE793  MET794  SER795  GLU796  ALA797  LYS798  CYS799  TRP800  GLU811  SER814 

> <Gold.Protein.RotatedAtoms>
  150.7096  134.4881  159.5502 H   0  0  0  0  0  0  0  0  0  0  0  0  # atno 6907 bound_to 6896
  152.2505  134.8135  160.0456 H   0  0  0  0  0  0  0  0  0  0  0  0  # atno 6908 bound_to 6896
  151.8884  133.3475  159.3827 H   0  0  0  0  0  0  0  0  0  0  0  0  # atno 6909 bound_to 6896
  145.7110  139.2615  143.1650 H   0  0  0  0  0  0  0  0  0  0  0  0  # atno 7974 bound_to 7965
  155.7463  140.0820  157.2222 H   0  0  0  0  0  0  0  0  0  0  0  0  # atno 8008 bound_to 7997
  154.4016  140.1568  156.2728 H   0  0  0  0  0  0  0  0  0  0  0  0  # atno 8009 bound_to 7997
  155.8973  140.3412  155.6003 H   0  0  0  0  0  0  0  0  0  0  0  0  # atno 8010 bound_to 7997
  139.7594  144.6959  151.0314 H   0  0  0  0  0  0  0  0  0  0  0  0  # atno 10167 bound_to 10162
  157.6787  130.9931  150.1986 H   0  0  0  0  0  0  0  0  0  0  0  0  # atno 10718 bound_to 10713
  154.1361  135.2823  155.3173 H   0  0  0  0  0  0  0  0  0  0  0  0  # atno 10763 bound_to 10752
  154.6321  135.5431  153.7695 H   0  0  0  0  0  0  0  0  0  0  0  0  # atno 10764 bound_to 10752
  153.0265  135.6465  154.1509 H   0  0  0  0  0  0  0  0  0  0  0  0  # atno 10765 bound_to 10752
  140.5865  134.5088  157.5186 H   0  0  0  0  0  0  0  0  0  0  0  0  # atno 11005 bound_to 11000
  146.0712  140.7867  142.9687 LP  0  0  0  0  0  0  0  0  0  0  0  0  # atno 17320 bound_to 7965
  144.6942  140.3345  143.7210 LP  0  0  0  0  0  0  0  0  0  0  0  0  # atno 17321 bound_to 7965
  140.7806  143.4714  151.0140 LP  0  0  0  0  0  0  0  0  0  0  0  0  # atno 17342 bound_to 10162
  139.8401  143.7575  152.3180 LP  0  0  0  0  0  0  0  0  0  0  0  0  # atno 17343 bound_to 10162
  156.2682  130.3718  149.8059 LP  0  0  0  0  0  0  0  0  0  0  0  0  # atno 17370 bound_to 10713
  156.5784  130.8455  151.3376 LP  0  0  0  0  0  0  0  0  0  0  0  0  # atno 17371 bound_to 10713
  139.9293  134.7994  156.0976 LP  0  0  0  0  0  0  0  0  0  0  0  0  # atno 17394 bound_to 11000
  141.0963  133.6694  156.2652 LP  0  0  0  0  0  0  0  0  0  0  0  0  # atno 17395 bound_to 11000

$$$$
