AV-unprocessed.smi:1244|AV-procd|sdf|5221|dock5
  -GOLD-   22720 4313D 1   1.00000     0.00000
 Structure written by MMmdl.
 54 56  0  0  0  0  0  0  0  0  1 V2000
  150.4585  142.0266  156.9281 C   0  0  0  0  0  0  0  0  0  0  0  0
  149.7185  140.6886  157.0976 C   0  0  2  0  0  0  0  0  0  0  0  0
  150.4636  139.4937  156.4696 C   0  0  0  0  0  0  0  0  0  0  0  0
  150.3993  139.4889  155.0118 N   0  0  0  0  0  0  0  0  0  0  0  0
  151.1168  138.3402  154.4610 C   0  0  0  0  0  0  0  0  0  0  0  0
  150.8951  137.0157  155.2166 C   0  0  0  0  0  0  0  0  0  0  0  0
  150.1107  136.0717  154.4295 N   0  0  0  0  0  0  0  0  0  0  0  0
  150.0545  134.7501  154.6465 C   0  0  0  0  0  0  0  0  0  0  0  0
  150.6532  134.1845  155.5615 O   0  0  0  0  0  0  0  0  0  0  0  0
  149.2861  134.1380  153.7298 N   0  0  0  0  0  0  0  0  0  0  0  0
  148.9980  132.7484  153.6146 C   0  0  0  0  0  0  0  0  0  0  0  0
  149.6525  131.7895  154.4260 C   0  0  0  0  0  0  0  0  0  0  0  0
  149.3490  130.4267  154.2664 C   0  0  0  0  0  0  0  0  0  0  0  0
  148.3957  130.0681  153.2995 C   0  0  0  0  0  0  0  0  0  0  0  0
  147.7499  130.9691  152.5330 N   0  0  0  0  0  0  0  0  0  0  0  0
  148.0199  132.2893  152.6854 C   0  0  0  0  0  0  0  0  0  0  0  0
  147.2971  133.1849  151.8636 N   0  0  0  0  0  0  0  0  0  0  0  0
  146.5569  132.6926  150.7063 C   0  0  0  0  0  0  0  0  0  0  0  0
  145.6249  133.8364  150.3169 C   0  0  0  0  0  0  0  0  0  0  0  0
  145.2581  134.4307  151.6731 C   0  0  0  0  0  0  0  0  0  0  0  0
  146.5336  134.2522  152.5035 C   0  0  0  0  0  0  0  0  0  0  0  0
  148.9996  139.5289  154.5994 C   0  0  0  0  0  0  0  0  0  0  0  0
  148.2643  140.7524  155.1762 C   0  0  1  0  0  0  0  0  0  0  0  0
  146.7733  140.7470  154.8223 C   0  0  0  0  0  0  0  0  0  0  0  0
  148.3819  140.7538  156.5977 O   0  0  0  0  0  0  0  0  0  0  0  0
  151.4310  141.9963  157.4199 H   0  0  0  0  0  0  0  0  0  0  0  0
  149.8898  142.8443  157.3716 H   0  0  0  0  0  0  0  0  0  0  0  0
  150.6320  142.2700  155.8800 H   0  0  0  0  0  0  0  0  0  0  0  0
  149.6353  140.5052  158.1692 H   0  0  0  0  0  0  0  0  0  0  0  0
  151.5036  139.5008  156.7983 H   0  0  0  0  0  0  0  0  0  0  0  0
  150.0281  138.5694  156.8526 H   0  0  0  0  0  0  0  0  0  0  0  0
  150.7952  138.1947  153.4287 H   0  0  0  0  0  0  0  0  0  0  0  0
  152.1843  138.5604  154.4125 H   0  0  0  0  0  0  0  0  0  0  0  0
  151.8459  136.5340  155.4409 H   0  0  0  0  0  0  0  0  0  0  0  0
  150.4041  137.1998  156.1736 H   0  0  0  0  0  0  0  0  0  0  0  0
  149.5873  136.4501  153.6538 H   0  0  0  0  0  0  0  0  0  0  0  0
  148.9499  134.7143  152.9724 H   0  0  0  0  0  0  0  0  0  0  0  0
  150.3766  132.0789  155.1724 H   0  0  0  0  0  0  0  0  0  0  0  0
  149.8371  129.6754  154.8694 H   0  0  0  0  0  0  0  0  0  0  0  0
  148.1381  129.0312  153.1423 H   0  0  0  0  0  0  0  0  0  0  0  0
  147.2279  132.4193  149.8914 H   0  0  0  0  0  0  0  0  0  0  0  0
  145.9625  131.8171  150.9706 H   0  0  0  0  0  0  0  0  0  0  0  0
  146.1647  134.5730  149.7200 H   0  0  0  0  0  0  0  0  0  0  0  0
  144.7582  133.5028  149.7457 H   0  0  0  0  0  0  0  0  0  0  0  0
  144.9345  135.4701  151.6104 H   0  0  0  0  0  0  0  0  0  0  0  0
  144.4471  133.8523  152.1176 H   0  0  0  0  0  0  0  0  0  0  0  0
  146.3030  134.0265  153.5456 H   0  0  0  0  0  0  0  0  0  0  0  0
  147.1233  135.1687  152.4765 H   0  0  0  0  0  0  0  0  0  0  0  0
  148.9264  139.5645  153.5133 H   0  0  0  0  0  0  0  0  0  0  0  0
  148.4954  138.6151  154.9175 H   0  0  0  0  0  0  0  0  0  0  0  0
  148.7077  141.6648  154.7763 H   0  0  0  0  0  0  0  0  0  0  0  0
  146.6262  140.7574  153.7421 H   0  0  0  0  0  0  0  0  0  0  0  0
  146.2726  141.6234  155.2341 H   0  0  0  0  0  0  0  0  0  0  0  0
  146.2763  139.8617  155.2201 H   0  0  0  0  0  0  0  0  0  0  0  0
  1  2  1  0  0  0  0
  1 26  1  0  0  0  0
  1 27  1  0  0  0  0
  1 28  1  0  0  0  0
  2 25  1  0  0  0  0
  2  3  1  0  0  0  0
  2 29  1  0  0  0  0
  3  4  1  0  0  0  0
  3 30  1  0  0  0  0
  3 31  1  0  0  0  0
  4  5  1  0  0  0  0
  4 22  1  0  0  0  0
  5  6  1  0  0  0  0
  5 32  1  0  0  0  0
  5 33  1  0  0  0  0
  6  7  1  0  0  0  0
  6 34  1  0  0  0  0
  6 35  1  0  0  0  0
  7  8  1  0  0  0  0
  7 36  1  0  0  0  0
  8  9  2  0  0  0  0
  8 10  1  0  0  0  0
 10 11  1  0  0  0  0
 10 37  1  0  0  0  0
 11 16  1  0  0  0  0
 11 12  2  0  0  0  0
 12 13  1  0  0  0  0
 12 38  1  0  0  0  0
 13 14  2  0  0  0  0
 13 39  1  0  0  0  0
 14 15  1  0  0  0  0
 14 40  1  0  0  0  0
 15 16  2  0  0  0  0
 16 17  1  0  0  0  0
 17 21  1  0  0  0  0
 17 18  1  0  0  0  0
 18 19  1  0  0  0  0
 18 41  1  0  0  0  0
 18 42  1  0  0  0  0
 19 20  1  0  0  0  0
 19 43  1  0  0  0  0
 19 44  1  0  0  0  0
 20 21  1  0  0  0  0
 20 45  1  0  0  0  0
 20 46  1  0  0  0  0
 21 47  1  0  0  0  0
 21 48  1  0  0  0  0
 22 23  1  0  0  0  0
 22 49  1  0  0  0  0
 22 50  1  0  0  0  0
 23 24  1  0  0  0  0
 23 25  1  0  0  0  0
 23 51  1  0  0  0  0
 24 52  1  0  0  0  0
 24 53  1  0  0  0  0
 24 54  1  0  0  0  0
M  END
> <s_m_source_file>
AV-unprocessed.smi

> <i_m_source_file_index>
1244

> <i_lp_mmshare_version>
43012

> <i_f3d_flags>
0

> <s_epik_input>
W0NIM11bQ0BASF0xW0NIMl1OKFtDSDJdW0NASF0oTzEpW0NIM10pW0NIMl1bQ0gyXVtOSF1DKD1PKVtOSF1jMltjSF1bY0hdW2NIXW5jMk4zW0NIMl1bQ0gyXVtDSDJdW0NIMl0z

> <s_epik_cmdline>
J2VwaWtfcHl0aG9uJywgJy1waCcsICc3LjAnLCAnLXRuJywgJzgnLCAnLW1hJywgJzIwMCcsICctbWV0YWxfYmluZGluZycsICctaW1hZScsICc8aW5maWxlLm1hZT4nLCAnLW9tYWUnLCAnPG91dGZpbGUubWFlPic=

> <r_lp_tautomer_probability>
1

> <r_epik_Ionization_Penalty>
0.363951

> <r_epik_Ionization_Penalty_Charging>
0

> <r_epik_Ionization_Penalty_Neutral>
0.363951

> <r_epik_State_Penalty>
0.349372

> <r_epik_Charging_Adjusted_Penalty>
0.349372

> <i_epik_Tot_Q>
0

> <i_epik_Tot_abs_Q>
0

> <r_epik_Metal_State_Penalty>
0.333054

> <b_epik_Metal_Only>
0

> <s_lp_Force_Field>
OPLS_2005

> <r_lp_Energy>
51.1959

> <b_lp_Chiralities_Consistent>
1

> <s_lp_Variant>
AV-unprocessed.smi:1244-1

> <Gold.Version>
5.8.1

> <Gold.Id.Protein>
6NUR|6NUR_protein|mol2

> <Gold.PLP.Fitness>
47.5624

> <Gold.PLP.PLP>
-40.5174

> <Gold.PLP.part.hbond>
-3.8713

> <Gold.PLP.part.metal>
0.0000

> <Gold.PLP.part.buried>
-3.9345

> <Gold.PLP.part.nonpolar>
-33.4191

> <Gold.PLP.part.repulsive>
0.7875

> <Gold.PLP.ligand.clash>
0.0000

> <Gold.PLP.ligand.torsion>
0.8699

> <Gold.PLP.Chemscore.Hbond>
2.8100

> <Gold.PLP.Chemscore.CHOScore>
0.0000

> <Gold.PLP.Chemscore.Metal>
0.0000

> <Gold.Chemscore.Hbonds>
donor molecule, donor type, donor heavy atom, donor atom, acceptor molecule, acceptor atom, score
      L1  H     7    36       P1  7948  0.94
      L1  H    10    37       P1  7948  0.65
      P1  H  7989  7998       L1     4  0.04

> <Gold.PLP.Chemscore.Internal.Correction>
0.3548

> <Gold.Rescore>
     Score         DG    S(hbond)    S(metal)    S(lipo)     H(rot)  DE(clash)    DE(int)     intcor
     14.78     -17.33       1.57        0.00      90.47       1.55       0.33       2.22       ----

> <Gold.Chemscore.Fitness>
14.7826

> <Gold.Chemscore.DG>
-17.3327

> <Gold.Chemscore.ZeroCoef>
-5.4800

> <Gold.Chemscore.Hbond>
1.5661

> <Gold.Chemscore.Metal>
0.0000

> <Gold.Chemscore.Lipo>
90.4662

> <Gold.Chemscore.Internal_Hbond>
0.0000

> <Gold.Chemscore.DEClash>
0.3296

> <Gold.Chemscore.DEInternal>
2.2205

> <Gold.Chemscore.Rot>
1.5479

> <Gold.Chemscore.Internal.Correction>
   9.000000E+99

> <Gold.Chemscore.Hbonds>
donor molecule, donor type, donor heavy atom, donor atom, acceptor molecule, acceptor atom, score
      L1  H     7    36       P1  7948  0.55
      L1  H    10    37       P1  7948  0.05

> <Gold.Chemscore.Hbond.Weighted>
-5.2308

> <Gold.Chemscore.Metal.Weighted>
-0.0000

> <Gold.Chemscore.Lipo.Weighted>
-10.5846

> <Gold.Chemscore.Internal_Hbond.Weighted>
0.0000

> <Gold.Chemscore.DEClash.Weighted>
0.3296

> <Gold.Chemscore.DEInternal.Weighted>
2.2205

> <Gold.Chemscore.Rot.Weighted>
3.9627

> <Gold.Chemscore.Internal.Correction.Weighted>
   9.000000E+99

> <Gold.Protein.RotatedTorsions>
[ 6907 6896 6895 6894 ] final   49.24 input  -60.11 | X-H torsion
[ 7974 7965 7964 7962 ] final   26.58 input  175.53 | X-H torsion
[ 8008 7997 7996 7995 ] final -160.77 input   59.86 | X-H torsion
[ 10167 10162 10161 10158 ] final  -77.03 input  -65.29 | X-H torsion
[ 10718 10713 10712 10709 ] final  136.55 input   66.30 | X-H torsion
[ 10763 10752 10751 10750 ] final -132.30 input  -60.55 | X-H torsion
[ 11005 11000 10999 10996 ] final   72.24 input  -57.11 | X-H torsion

> <Gold.Protein.ActiveResidues>
 VAL166  LYS551  ARG553  GLY616  TRP617  ASP618  TYR619  PRO620  LYS621  CYS622 
 ASP623  PHE694  ASN695  SER759  ASP760  ASP761  ALA762  ILE779  LEU786  VAL792 
 PHE793  MET794  SER795  GLU796  ALA797  LYS798  CYS799  TRP800  GLU811  SER814 

> <Gold.Protein.RotatedAtoms>
  152.2886  134.7747  160.0382 H   0  0  0  0  0  0  0  0  0  0  0  0  # atno 6907 bound_to 6896
  151.8302  133.3402  159.3619 H   0  0  0  0  0  0  0  0  0  0  0  0  # atno 6908 bound_to 6896
  150.7220  134.5419  159.5796 H   0  0  0  0  0  0  0  0  0  0  0  0  # atno 6909 bound_to 6896
  146.1830  139.7309  142.8887 H   0  0  0  0  0  0  0  0  0  0  0  0  # atno 7974 bound_to 7965
  155.7824  140.0867  157.2052 H   0  0  0  0  0  0  0  0  0  0  0  0  # atno 8008 bound_to 7997
  154.3989  140.1505  156.3125 H   0  0  0  0  0  0  0  0  0  0  0  0  # atno 8009 bound_to 7997
  155.8641  140.3429  155.5778 H   0  0  0  0  0  0  0  0  0  0  0  0  # atno 8010 bound_to 7997
  140.4805  143.2403  151.8065 H   0  0  0  0  0  0  0  0  0  0  0  0  # atno 10167 bound_to 10162
  157.4455  131.1061  151.0094 H   0  0  0  0  0  0  0  0  0  0  0  0  # atno 10718 bound_to 10713
  154.8744  135.3802  154.4387 H   0  0  0  0  0  0  0  0  0  0  0  0  # atno 10763 bound_to 10752
  153.5074  135.7030  153.5804 H   0  0  0  0  0  0  0  0  0  0  0  0  # atno 10764 bound_to 10752
  153.4108  135.3925  155.2015 H   0  0  0  0  0  0  0  0  0  0  0  0  # atno 10765 bound_to 10752
  139.9501  134.7242  156.0883 H   0  0  0  0  0  0  0  0  0  0  0  0  # atno 11005 bound_to 11000
  145.4021  141.0386  143.3065 LP  0  0  0  0  0  0  0  0  0  0  0  0  # atno 17320 bound_to 7965
  144.8348  139.5569  143.6927 LP  0  0  0  0  0  0  0  0  0  0  0  0  # atno 17321 bound_to 7965
  139.4833  144.4778  151.9345 LP  0  0  0  0  0  0  0  0  0  0  0  0  # atno 17342 bound_to 10162
  140.3863  144.2672  150.5903 LP  0  0  0  0  0  0  0  0  0  0  0  0  # atno 17343 bound_to 10162
  157.0942  130.5955  149.5446 LP  0  0  0  0  0  0  0  0  0  0  0  0  # atno 17370 bound_to 10713
  155.9966  130.5035  150.7501 LP  0  0  0  0  0  0  0  0  0  0  0  0  # atno 17371 bound_to 10713
  141.1162  133.6627  156.3099 LP  0  0  0  0  0  0  0  0  0  0  0  0  # atno 17394 bound_to 11000
  140.5739  134.5813  157.5464 LP  0  0  0  0  0  0  0  0  0  0  0  0  # atno 17395 bound_to 11000

$$$$
