AV-unprocessed.smi:1157|AV-procd|sdf|4909|dock5
  -GOLD-   22720 3483D 1   1.00000     0.00000
 Structure written by MMmdl.
 56 58  0  0  0  0  0  0  0  0  3 V2000
  145.4929  137.2879  154.4087 C   0  0  0  0  0  0  0  0  0  0  0  0
  145.4485  137.0394  152.8772 C   0  0  0  0  0  0  0  0  0  0  0  0
  143.9705  137.1228  152.4243 C   0  0  0  0  0  0  0  0  0  0  0  0
  146.2813  138.1561  152.1754 C   0  0  0  0  0  0  0  0  0  0  0  0
  147.5954  138.3889  152.7760 N   0  0  0  0  0  0  0  0  0  0  0  0
  147.8903  139.3631  153.6490 C   0  0  0  0  0  0  0  0  0  0  0  0
  147.0749  140.2020  154.0314 O   0  0  0  0  0  0  0  0  0  0  0  0
  149.1814  139.3130  154.0189 N   0  0  0  0  0  0  0  0  0  0  0  0
  149.8683  140.1574  154.9324 C   0  0  0  0  0  0  0  0  0  0  0  0
  151.0890  139.8137  155.5637 C   0  0  0  0  0  0  0  0  0  0  0  0
  151.7003  140.7320  156.4420 C   0  0  0  0  0  0  0  0  0  0  0  0
  151.0940  141.9878  156.6806 C   0  0  0  0  0  0  0  0  0  0  0  0
  151.6512  142.9522  157.5416 N   0  0  0  0  0  0  0  0  0  0  0  0
  151.0315  144.2544  157.7294 C   0  0  0  0  0  0  0  0  0  0  0  0
  151.8398  144.9078  158.8494 C   0  0  0  0  0  0  0  0  0  0  0  0
  152.2562  143.7183  159.7150 C   0  0  0  0  0  0  0  0  0  0  0  0
  152.4205  142.5663  158.7165 C   0  0  0  0  0  0  0  0  0  0  0  0
  149.9371  142.2787  156.0390 N   0  3  0  0  0  0  0  0  0  0  0  0
  149.3188  141.4298  155.1901 C   0  0  0  0  0  0  0  0  0  0  0  0
  146.0526  135.6969  152.5366 N   0  3  0  0  0  0  0  0  0  0  0  0
  145.8677  134.6148  153.5474 C   0  0  0  0  0  0  0  0  0  0  0  0
  146.6492  133.3496  153.1510 C   0  0  0  0  0  0  0  0  0  0  0  0
  146.2536  132.9156  151.8586 O   0  0  0  0  0  0  0  0  0  0  0  0
  146.5288  133.8999  150.8736 C   0  0  0  0  0  0  0  0  0  0  0  0
  145.7178  135.1684  151.1820 C   0  0  0  0  0  0  0  0  0  0  0  0
  145.1454  138.2857  154.6747 H   0  0  0  0  0  0  0  0  0  0  0  0
  146.5049  137.1819  154.8017 H   0  0  0  0  0  0  0  0  0  0  0  0
  144.8405  136.6096  154.9581 H   0  0  0  0  0  0  0  0  0  0  0  0
  143.5048  138.0501  152.7599 H   0  0  0  0  0  0  0  0  0  0  0  0
  143.3743  136.3063  152.8314 H   0  0  0  0  0  0  0  0  0  0  0  0
  143.8710  137.0990  151.3389 H   0  0  0  0  0  0  0  0  0  0  0  0
  146.3731  137.9373  151.1100 H   0  0  0  0  0  0  0  0  0  0  0  0
  145.7772  139.1186  152.2359 H   0  0  0  0  0  0  0  0  0  0  0  0
  148.3321  137.7511  152.5114 H   0  0  0  0  0  0  0  0  0  0  0  0
  149.7524  138.6238  153.5516 H   0  0  0  0  0  0  0  0  0  0  0  0
  151.5791  138.8699  155.3805 H   0  0  0  0  0  0  0  0  0  0  0  0
  152.6341  140.4642  156.9138 H   0  0  0  0  0  0  0  0  0  0  0  0
  151.0554  144.8487  156.8154 H   0  0  0  0  0  0  0  0  0  0  0  0
  149.9915  144.1231  158.0318 H   0  0  0  0  0  0  0  0  0  0  0  0
  152.7264  145.3892  158.4339 H   0  0  0  0  0  0  0  0  0  0  0  0
  151.2733  145.6600  159.3991 H   0  0  0  0  0  0  0  0  0  0  0  0
  153.1607  143.9087  160.2934 H   0  0  0  0  0  0  0  0  0  0  0  0
  151.4548  143.4820  160.4164 H   0  0  0  0  0  0  0  0  0  0  0  0
  152.0749  141.6261  159.1476 H   0  0  0  0  0  0  0  0  0  0  0  0
  153.4661  142.4494  158.4297 H   0  0  0  0  0  0  0  0  0  0  0  0
  148.4019  141.7940  154.7495 H   0  0  0  0  0  0  0  0  0  0  0  0
  146.2351  134.9120  154.5279 H   0  0  0  0  0  0  0  0  0  0  0  0
  144.8084  134.3785  153.6540 H   0  0  0  0  0  0  0  0  0  0  0  0
  147.7244  133.5349  153.1713 H   0  0  0  0  0  0  0  0  0  0  0  0
  146.4531  132.5494  153.8652 H   0  0  0  0  0  0  0  0  0  0  0  0
  147.5980  134.1159  150.8373 H   0  0  0  0  0  0  0  0  0  0  0  0
  146.2506  133.5056  149.8961 H   0  0  0  0  0  0  0  0  0  0  0  0
  144.6555  134.9300  151.1227 H   0  0  0  0  0  0  0  0  0  0  0  0
  145.9265  135.8948  150.4002 H   0  0  0  0  0  0  0  0  0  0  0  0
  147.0489  135.8639  152.5213 H   0  0  0  0  0  0  0  0  0  0  0  0
  149.5084  143.1893  156.2058 H   0  0  0  0  0  0  0  0  0  0  0  0
  1  2  1  0  0  0  0
  1 26  1  0  0  0  0
  1 27  1  0  0  0  0
  1 28  1  0  0  0  0
  2  3  1  0  0  0  0
  2  4  1  0  0  0  0
  2 20  1  0  0  0  0
  3 29  1  0  0  0  0
  3 30  1  0  0  0  0
  3 31  1  0  0  0  0
  4  5  1  0  0  0  0
  4 32  1  0  0  0  0
  4 33  1  0  0  0  0
  5  6  1  0  0  0  0
  5 34  1  0  0  0  0
  6  7  2  0  0  0  0
  6  8  1  0  0  0  0
  8  9  1  0  0  0  0
  8 35  1  0  0  0  0
  9 19  1  0  0  0  0
  9 10  2  0  0  0  0
 10 11  1  0  0  0  0
 10 36  1  0  0  0  0
 11 12  2  0  0  0  0
 11 37  1  0  0  0  0
 12 13  1  0  0  0  0
 12 18  1  0  0  0  0
 13 17  1  0  0  0  0
 13 14  1  0  0  0  0
 14 15  1  0  0  0  0
 14 38  1  0  0  0  0
 14 39  1  0  0  0  0
 15 16  1  0  0  0  0
 15 40  1  0  0  0  0
 15 41  1  0  0  0  0
 16 17  1  0  0  0  0
 16 42  1  0  0  0  0
 16 43  1  0  0  0  0
 17 44  1  0  0  0  0
 17 45  1  0  0  0  0
 18 19  2  0  0  0  0
 18 56  1  0  0  0  0
 19 46  1  0  0  0  0
 20 25  1  0  0  0  0
 20 21  1  0  0  0  0
 20 55  1  0  0  0  0
 21 22  1  0  0  0  0
 21 47  1  0  0  0  0
 21 48  1  0  0  0  0
 22 23  1  0  0  0  0
 22 49  1  0  0  0  0
 22 50  1  0  0  0  0
 23 24  1  0  0  0  0
 24 25  1  0  0  0  0
 24 51  1  0  0  0  0
 24 52  1  0  0  0  0
 25 53  1  0  0  0  0
 25 54  1  0  0  0  0
M  CHG  1  18   1
M  CHG  1  20   1
M  END
> <s_m_source_file>
AV-unprocessed.smi

> <i_m_source_file_index>
1157

> <i_lp_mmshare_version>
43012

> <i_f3d_flags>
0

> <s_epik_input>
W0NIMl0xW0NIMl1PW0NIMl1bQ0gyXU4xQyhbQ0gzXSkoW0NIM10pW0NIMl1bTkhdQyg9TylbTkhdYzJbY0hdW2NIXWMobltjSF0yKU4zW0NIMl1bQ0gyXVtDSDJdW0NIMl0z

> <s_epik_cmdline>
J2VwaWtfcHl0aG9uJywgJy1waCcsICc3LjAnLCAnLXRuJywgJzgnLCAnLW1hJywgJzIwMCcsICctbWV0YWxfYmluZGluZycsICctaW1hZScsICc8aW5maWxlLm1hZT4nLCAnLW9tYWUnLCAnPG91dGZpbGUubWFlPic=

> <r_lp_tautomer_probability>
0.999994

> <r_epik_Ionization_Penalty>
1.80144

> <r_epik_Ionization_Penalty_Charging>
1.80142

> <r_epik_Ionization_Penalty_Neutral>
2.04065e-05

> <r_epik_State_Penalty>
1.84115

> <r_epik_Charging_Adjusted_Penalty>
3.64257

> <i_epik_Tot_Q>
2

> <i_epik_Tot_abs_Q>
2

> <r_epik_Metal_State_Penalty>
1.92436

> <b_epik_Metal_Only>
0

> <s_lp_Force_Field>
OPLS_2005

> <r_lp_Energy>
58.4852

> <b_lp_Chiralities_Consistent>
1

> <s_lp_Variant>
AV-unprocessed.smi:1157-4

> <Gold.Version>
5.8.1

> <Gold.Id.Protein>
6NUR|6NUR_protein|mol2

> <Gold.PLP.Fitness>
57.7895

> <Gold.PLP.PLP>
-45.0531

> <Gold.PLP.part.hbond>
-5.0000

> <Gold.PLP.part.metal>
0.0000

> <Gold.PLP.part.buried>
-1.9337

> <Gold.PLP.part.nonpolar>
-38.5832

> <Gold.PLP.part.repulsive>
0.5402

> <Gold.PLP.ligand.clash>
0.0000

> <Gold.PLP.ligand.torsion>
1.3002

> <Gold.PLP.Chemscore.Hbond>
5.0000

> <Gold.PLP.Chemscore.CHOScore>
0.0000

> <Gold.PLP.Chemscore.Metal>
0.0000

> <Gold.Chemscore.Hbonds>
donor molecule, donor type, donor heavy atom, donor atom, acceptor molecule, acceptor atom, score
      L1  H     5    34       P1  7948  1.00
      L1  H    18    56       P1  8028  2.00
      L1  H    20    55       P1  7948  1.98

> <Gold.PLP.Chemscore.Internal.Correction>
0.3368

> <Gold.Rescore>
     Score         DG    S(hbond)    S(metal)    S(lipo)     H(rot)  DE(clash)    DE(int)     intcor
     20.52     -23.68       2.76        0.00     108.53       1.45       0.49       2.68       ----

> <Gold.Chemscore.Fitness>
20.5164

> <Gold.Chemscore.DG>
-23.6845

> <Gold.Chemscore.ZeroCoef>
-5.4800

> <Gold.Chemscore.Hbond>
2.7570

> <Gold.Chemscore.Metal>
0.0000

> <Gold.Chemscore.Lipo>
108.5255

> <Gold.Chemscore.Internal_Hbond>
0.0000

> <Gold.Chemscore.DEClash>
0.4921

> <Gold.Chemscore.DEInternal>
2.6760

> <Gold.Chemscore.Rot>
1.4458

> <Gold.Chemscore.Internal.Correction>
   9.000000E+99

> <Gold.Chemscore.Hbonds>
donor molecule, donor type, donor heavy atom, donor atom, acceptor molecule, acceptor atom, score
      L1  H     5    34       P1  7948  0.98
      L1  H    18    56       P1  8028  0.96
      L1  H    20    55       P1  7948  0.92

> <Gold.Chemscore.Hbond.Weighted>
-9.2083

> <Gold.Chemscore.Metal.Weighted>
-0.0000

> <Gold.Chemscore.Lipo.Weighted>
-12.6975

> <Gold.Chemscore.Internal_Hbond.Weighted>
0.0000

> <Gold.Chemscore.DEClash.Weighted>
0.4921

> <Gold.Chemscore.DEInternal.Weighted>
2.6760

> <Gold.Chemscore.Rot.Weighted>
3.7012

> <Gold.Chemscore.Internal.Correction.Weighted>
   9.000000E+99

> <Gold.Protein.RotatedTorsions>
[ 6907 6896 6895 6894 ] final  178.95 input  -60.11 | X-H torsion
[ 7974 7965 7964 7962 ] final   60.89 input  175.53 | X-H torsion
[ 8008 7997 7996 7995 ] final   94.66 input   59.86 | X-H torsion
[ 10167 10162 10161 10158 ] final  -12.88 input  -65.29 | X-H torsion
[ 10718 10713 10712 10709 ] final  -38.08 input   66.30 | X-H torsion
[ 10763 10752 10751 10750 ] final  165.05 input  -60.55 | X-H torsion
[ 11005 11000 10999 10996 ] final   66.83 input  -57.11 | X-H torsion

> <Gold.Protein.ActiveResidues>
 VAL166  LYS551  ARG553  GLY616  TRP617  ASP618  TYR619  PRO620  LYS621  CYS622 
 ASP623  PHE694  ASN695  SER759  ASP760  ASP761  ALA762  ILE779  LEU786  VAL792 
 PHE793  MET794  SER795  GLU796  ALA797  LYS798  CYS799  TRP800  GLU811  SER814 

> <Gold.Protein.RotatedAtoms>
  151.6795  133.3312  159.3215 H   0  0  0  0  0  0  0  0  0  0  0  0  # atno 6907 bound_to 6896
  150.7829  134.6793  159.6444 H   0  0  0  0  0  0  0  0  0  0  0  0  # atno 6908 bound_to 6896
  152.3892  134.6472  160.0166 H   0  0  0  0  0  0  0  0  0  0  0  0  # atno 6909 bound_to 6896
  145.8909  139.3510  143.0650 H   0  0  0  0  0  0  0  0  0  0  0  0  # atno 7974 bound_to 7965
  156.0604  140.3297  155.7455 H   0  0  0  0  0  0  0  0  0  0  0  0  # atno 8008 bound_to 7997
  155.5464  140.0606  157.2877 H   0  0  0  0  0  0  0  0  0  0  0  0  # atno 8009 bound_to 7997
  154.4478  140.1902  156.0630 H   0  0  0  0  0  0  0  0  0  0  0  0  # atno 8010 bound_to 7997
  140.7170  143.5485  150.9328 H   0  0  0  0  0  0  0  0  0  0  0  0  # atno 10167 bound_to 10162
  156.3078  130.4248  149.8080 H   0  0  0  0  0  0  0  0  0  0  0  0  # atno 10718 bound_to 10713
  154.3182  135.2756  155.2533 H   0  0  0  0  0  0  0  0  0  0  0  0  # atno 10763 bound_to 10752
  154.4898  135.5836  153.6454 H   0  0  0  0  0  0  0  0  0  0  0  0  # atno 10764 bound_to 10752
  152.9880  135.6132  154.3364 H   0  0  0  0  0  0  0  0  0  0  0  0  # atno 10765 bound_to 10752
  139.9807  134.6748  156.0267 H   0  0  0  0  0  0  0  0  0  0  0  0  # atno 11005 bound_to 11000
  145.8909  140.9304  143.0552 LP  0  0  0  0  0  0  0  0  0  0  0  0  # atno 17320 bound_to 7965
  144.6730  140.0905  143.7465 LP  0  0  0  0  0  0  0  0  0  0  0  0  # atno 17321 bound_to 7965
  139.9209  143.6607  152.3097 LP  0  0  0  0  0  0  0  0  0  0  0  0  # atno 17342 bound_to 10162
  139.7023  144.7633  151.1251 LP  0  0  0  0  0  0  0  0  0  0  0  0  # atno 17343 bound_to 10162
  156.5434  130.8310  151.3276 LP  0  0  0  0  0  0  0  0  0  0  0  0  # atno 17370 bound_to 10713
  157.7384  130.9812  150.2248 LP  0  0  0  0  0  0  0  0  0  0  0  0  # atno 17371 bound_to 10713
  141.1480  133.6553  156.3925 LP  0  0  0  0  0  0  0  0  0  0  0  0  # atno 17394 bound_to 11000
  140.5102  134.6403  157.5281 LP  0  0  0  0  0  0  0  0  0  0  0  0  # atno 17395 bound_to 11000

$$$$
