AV-unprocessed.smi:1185|AV-procd|sdf|4973|dock3
  -GOLD-   22720 3563D 1   1.00000     0.00000
 Structure written by MMmdl.
 38 40  0  0  0  0  0  0  0  0  1 V2000
  152.3646  138.7213  158.3023 O   0  0  0  0  0  0  0  0  0  0  0  0
  152.4605  139.9031  158.6360 C   0  0  0  0  0  0  0  0  0  0  0  0
  153.4915  140.4059  159.5565 C   0  0  0  0  0  0  0  0  0  0  0  0
  154.4835  139.4016  160.1374 C   0  0  0  0  0  0  0  0  0  0  0  0
  155.3743  139.9926  160.9351 F   0  0  0  0  0  0  0  0  0  0  0  0
  153.8467  138.4744  160.8534 F   0  0  0  0  0  0  0  0  0  0  0  0
  155.1539  138.7876  159.1618 F   0  0  0  0  0  0  0  0  0  0  0  0
  153.5401  141.7243  159.8669 C   0  0  0  0  0  0  0  0  0  0  0  0
  152.5808  142.6468  159.2937 C   0  0  0  0  0  0  0  0  0  0  0  0
  152.5902  144.1210  159.5803 C   0  0  0  0  0  0  0  0  0  0  0  0
  151.5207  144.7723  160.4261 C   0  0  0  0  0  0  0  0  0  0  0  0
  151.5967  145.0678  158.9462 C   0  0  0  0  0  0  0  0  0  0  0  0
  151.6703  142.2015  158.4950 N   0  0  0  0  0  0  0  0  0  0  0  0
  151.6073  140.8617  158.1680 N   0  0  0  0  0  0  0  0  0  0  0  0
  150.5264  140.5300  157.2309 C   0  0  0  0  0  0  0  0  0  0  0  0
  150.6156  141.3472  155.9236 C   0  0  2  0  0  0  0  0  0  0  0  0
  150.6807  142.7221  156.2536 O   0  0  0  0  0  0  0  0  0  0  0  0
  149.4329  141.0443  155.0118 C   0  0  0  0  0  0  0  0  0  0  0  0
  148.4534  142.0312  154.7580 C   0  0  0  0  0  0  0  0  0  0  0  0
  147.3559  141.7478  153.9221 C   0  0  0  0  0  0  0  0  0  0  0  0
  147.2266  140.4742  153.3370 C   0  0  0  0  0  0  0  0  0  0  0  0
  148.1936  139.4835  153.5919 C   0  0  0  0  0  0  0  0  0  0  0  0
  149.2922  139.7646  154.4275 C   0  0  0  0  0  0  0  0  0  0  0  0
  150.2080  138.7953  154.6667 F   0  0  0  0  0  0  0  0  0  0  0  0
  154.2880  142.1122  160.5421 H   0  0  0  0  0  0  0  0  0  0  0  0
  153.6090  144.4839  159.7025 H   0  0  0  0  0  0  0  0  0  0  0  0
  150.6956  144.1517  160.7715 H   0  0  0  0  0  0  0  0  0  0  0  0
  151.8325  145.5569  161.1124 H   0  0  0  0  0  0  0  0  0  0  0  0
  151.9591  146.0495  158.6477 H   0  0  0  0  0  0  0  0  0  0  0  0
  150.8134  144.6497  158.3164 H   0  0  0  0  0  0  0  0  0  0  0  0
  150.5902  139.4649  156.9997 H   0  0  0  0  0  0  0  0  0  0  0  0
  149.5462  140.6561  157.6955 H   0  0  0  0  0  0  0  0  0  0  0  0
  151.5352  141.1050  155.3906 H   0  0  0  0  0  0  0  0  0  0  0  0
  149.8676  143.1296  155.9971 H   0  0  0  0  0  0  0  0  0  0  0  0
  148.5380  143.0103  155.2062 H   0  0  0  0  0  0  0  0  0  0  0  0
  146.6123  142.5079  153.7317 H   0  0  0  0  0  0  0  0  0  0  0  0
  146.3853  140.2560  152.6959 H   0  0  0  0  0  0  0  0  0  0  0  0
  148.0919  138.5046  153.1469 H   0  0  0  0  0  0  0  0  0  0  0  0
  1  2  2  0  0  0  0
  2 14  1  0  0  0  0
  2  3  1  0  0  0  0
  3  4  1  0  0  0  0
  3  8  2  0  0  0  0
  4  5  1  0  0  0  0
  4  6  1  0  0  0  0
  4  7  1  0  0  0  0
  8  9  1  0  0  0  0
  8 25  1  0  0  0  0
  9 10  1  0  0  0  0
  9 13  2  0  0  0  0
 10 12  1  0  0  0  0
 10 11  1  0  0  0  0
 10 26  1  0  0  0  0
 11 12  1  0  0  0  0
 11 27  1  0  0  0  0
 11 28  1  0  0  0  0
 12 29  1  0  0  0  0
 12 30  1  0  0  0  0
 13 14  1  0  0  0  0
 14 15  1  0  0  0  0
 15 16  1  0  0  0  0
 15 31  1  0  0  0  0
 15 32  1  0  0  0  0
 16 17  1  0  0  0  0
 16 18  1  0  0  0  0
 16 33  1  0  0  0  0
 17 34  1  0  0  0  0
 18 23  1  0  0  0  0
 18 19  2  0  0  0  0
 19 20  1  0  0  0  0
 19 35  1  0  0  0  0
 20 21  2  0  0  0  0
 20 36  1  0  0  0  0
 21 22  1  0  0  0  0
 21 37  1  0  0  0  0
 22 23  2  0  0  0  0
 22 38  1  0  0  0  0
 23 24  1  0  0  0  0
M  END
> <s_m_source_file>
AV-unprocessed.smi

> <i_m_source_file_index>
1185

> <i_lp_mmshare_version>
43012

> <i_f3d_flags>
0

> <s_epik_input>
Tz1jMWMoQyhGKShGKUYpW2NIXWMoW0NIXTJbQ0gyXVtDSDJdMilubjFbQ0gyXVtDQEhdKFtPSF0pYzNbY0hdW2NIXVtjSF1bY0hdYzNG

> <s_epik_cmdline>
J2VwaWtfcHl0aG9uJywgJy1waCcsICc3LjAnLCAnLXRuJywgJzgnLCAnLW1hJywgJzIwMCcsICctbWV0YWxfYmluZGluZycsICctaW1hZScsICc8aW5maWxlLm1hZT4nLCAnLW9tYWUnLCAnPG91dGZpbGUubWFlPic=

> <r_lp_tautomer_probability>
1

> <r_epik_Ionization_Penalty>
7.26807e-08

> <r_epik_Ionization_Penalty_Charging>
9.677e-10

> <r_epik_Ionization_Penalty_Neutral>
7.1713e-08

> <r_epik_State_Penalty>
-0

> <r_epik_Charging_Adjusted_Penalty>
9.677e-10

> <i_epik_Tot_Q>
0

> <i_epik_Tot_abs_Q>
0

> <r_epik_Metal_State_Penalty>
-0

> <b_epik_Metal_Only>
0

> <s_lp_Force_Field>
OPLS_2005

> <r_lp_Energy>
34.1774

> <b_lp_Chiralities_Consistent>
1

> <s_lp_Variant>
AV-unprocessed.smi:1185-1

> <Gold.Version>
5.8.1

> <Gold.Id.Protein>
6NUR|6NUR_protein|mol2

> <Gold.PLP.Fitness>
54.7712

> <Gold.PLP.PLP>
-52.2220

> <Gold.PLP.part.hbond>
-1.0000

> <Gold.PLP.part.metal>
0.0000

> <Gold.PLP.part.buried>
-0.9618

> <Gold.PLP.part.nonpolar>
-49.6165

> <Gold.PLP.part.repulsive>
0.0150

> <Gold.PLP.ligand.clash>
0.3830

> <Gold.PLP.ligand.torsion>
0.2713

> <Gold.PLP.Chemscore.Hbond>
0.9760

> <Gold.PLP.Chemscore.CHOScore>
0.0000

> <Gold.PLP.Chemscore.Metal>
0.0000

> <Gold.Chemscore.Hbonds>
donor molecule, donor type, donor heavy atom, donor atom, acceptor molecule, acceptor atom, score
      L1  H    17    34       P1  8028  0.96

> <Gold.PLP.Chemscore.Internal.Correction>
0.5469

> <Gold.Rescore>
     Score         DG    S(hbond)    S(metal)    S(lipo)     H(rot)  DE(clash)    DE(int)     intcor
     14.88     -17.82       0.88        0.00     128.60       2.20       0.33       2.62       ----

> <Gold.Chemscore.Fitness>
14.8802

> <Gold.Chemscore.DG>
-17.8247

> <Gold.Chemscore.ZeroCoef>
-5.4800

> <Gold.Chemscore.Hbond>
0.8777

> <Gold.Chemscore.Metal>
0.0000

> <Gold.Chemscore.Lipo>
128.5993

> <Gold.Chemscore.Internal_Hbond>
0.0000

> <Gold.Chemscore.DEClash>
0.3286

> <Gold.Chemscore.DEInternal>
2.6159

> <Gold.Chemscore.Rot>
2.2003

> <Gold.Chemscore.Internal.Correction>
   9.000000E+99

> <Gold.Chemscore.Hbonds>
donor molecule, donor type, donor heavy atom, donor atom, acceptor molecule, acceptor atom, score
      L1  H    17    34       P1  8028  0.92

> <Gold.Chemscore.Hbond.Weighted>
-2.9314

> <Gold.Chemscore.Metal.Weighted>
-0.0000

> <Gold.Chemscore.Lipo.Weighted>
-15.0461

> <Gold.Chemscore.Internal_Hbond.Weighted>
0.0000

> <Gold.Chemscore.DEClash.Weighted>
0.3286

> <Gold.Chemscore.DEInternal.Weighted>
2.6159

> <Gold.Chemscore.Rot.Weighted>
5.6328

> <Gold.Chemscore.Internal.Correction.Weighted>
   9.000000E+99

> <Gold.Protein.RotatedTorsions>
[ 6907 6896 6895 6894 ] final  102.79 input  -60.11 | X-H torsion
[ 7974 7965 7964 7962 ] final    2.04 input  175.53 | X-H torsion
[ 8008 7997 7996 7995 ] final    6.31 input   59.86 | X-H torsion
[ 10167 10162 10161 10158 ] final  -75.70 input  -65.29 | X-H torsion
[ 10718 10713 10712 10709 ] final  135.32 input   66.30 | X-H torsion
[ 10763 10752 10751 10750 ] final -141.02 input  -60.55 | X-H torsion
[ 11005 11000 10999 10996 ] final  172.11 input  -57.11 | X-H torsion

> <Gold.Protein.ActiveResidues>
 VAL166  LYS551  ARG553  GLY616  TRP617  ASP618  TYR619  PRO620  LYS621  CYS622 
 ASP623  PHE694  ASN695  SER759  ASP760  ASP761  ALA762  ILE779  LEU786  VAL792 
 PHE793  MET794  SER795  GLU796  ALA797  LYS798  CYS799  TRP800  GLU811  SER814 

> <Gold.Protein.RotatedAtoms>
  152.5314  133.9922  159.7855 H   0  0  0  0  0  0  0  0  0  0  0  0  # atno 6907 bound_to 6896
  151.0156  133.5916  159.2684 H   0  0  0  0  0  0  0  0  0  0  0  0  # atno 6908 bound_to 6896
  151.2974  135.0766  159.9280 H   0  0  0  0  0  0  0  0  0  0  0  0  # atno 6909 bound_to 6896
  146.2442  140.0897  142.8353 H   0  0  0  0  0  0  0  0  0  0  0  0  # atno 7974 bound_to 7965
  154.7394  140.2746  155.6386 H   0  0  0  0  0  0  0  0  0  0  0  0  # atno 8008 bound_to 7997
  156.2870  140.2700  156.2043 H   0  0  0  0  0  0  0  0  0  0  0  0  # atno 8009 bound_to 7997
  155.0278  140.0371  157.2452 H   0  0  0  0  0  0  0  0  0  0  0  0  # atno 8010 bound_to 7997
  140.4920  143.2378  151.7892 H   0  0  0  0  0  0  0  0  0  0  0  0  # atno 10167 bound_to 10162
  157.4583  131.1071  150.9951 H   0  0  0  0  0  0  0  0  0  0  0  0  # atno 10718 bound_to 10713
  154.8559  135.3536  154.5800 H   0  0  0  0  0  0  0  0  0  0  0  0  # atno 10763 bound_to 10752
  153.6411  135.6998  153.5246 H   0  0  0  0  0  0  0  0  0  0  0  0  # atno 10764 bound_to 10752
  153.2970  135.4217  155.1177 H   0  0  0  0  0  0  0  0  0  0  0  0  # atno 10765 bound_to 10752
  140.3262  134.7396  157.4100 H   0  0  0  0  0  0  0  0  0  0  0  0  # atno 11005 bound_to 11000
  145.0661  140.9122  143.4909 LP  0  0  0  0  0  0  0  0  0  0  0  0  # atno 17320 bound_to 7965
  145.1021  139.2815  143.5680 LP  0  0  0  0  0  0  0  0  0  0  0  0  # atno 17321 bound_to 7965
  139.4853  144.4637  151.9510 LP  0  0  0  0  0  0  0  0  0  0  0  0  # atno 17342 bound_to 10162
  140.3724  144.2839  150.5918 LP  0  0  0  0  0  0  0  0  0  0  0  0  # atno 17343 bound_to 10162
  157.0757  130.5882  149.5411 LP  0  0  0  0  0  0  0  0  0  0  0  0  # atno 17370 bound_to 10713
  156.0017  130.5097  150.7686 LP  0  0  0  0  0  0  0  0  0  0  0  0  # atno 17371 bound_to 10713
  140.0900  134.5615  155.8454 LP  0  0  0  0  0  0  0  0  0  0  0  0  # atno 17394 bound_to 11000
  141.2075  133.6664  156.6307 LP  0  0  0  0  0  0  0  0  0  0  0  0  # atno 17395 bound_to 11000

$$$$
