AV-unprocessed.smi:1815|AV-procd|sdf|7361|dock2
  -GOLD-   22720 9 23D 1   1.00000     0.00000
 Structure written by MMmdl.
 39 40  0  0  0  0  0  0  0  0  3 V2000
  148.6319  141.5007  154.1460 C   0  0  0  0  0  0  0  0  0  0  0  0
  149.1140  140.1366  154.6513 C   0  0  1  0  0  0  0  0  0  0  0  0
  148.6020  138.9791  153.7665 C   0  0  0  0  0  0  0  0  0  0  0  0
  149.1724  137.6732  154.1865 N   0  3  2  0  0  0  0  0  0  0  0  0
  148.5519  137.0864  155.4030 C   0  0  0  0  0  0  0  0  0  0  0  0
  149.2847  135.8195  155.8829 C   0  0  0  0  0  0  0  0  0  0  0  0
  149.5289  135.8638  157.3193 N   0  0  0  0  0  0  0  0  0  0  0  0
  148.5827  135.8982  158.2688 C   0  0  0  0  0  0  0  0  0  0  0  0
  147.3913  135.8835  157.9493 O   0  0  0  0  0  0  0  0  0  0  0  0
  149.0756  135.9545  159.5260 N   0  5  0  0  0  0  0  0  0  0  0  0
  148.2477  135.8385  160.5771 C   0  0  0  0  0  0  0  0  0  0  0  0
  148.0104  136.8389  161.4330 N   0  0  0  0  0  0  0  0  0  0  0  0
  147.1132  136.5003  162.4475 C   0  0  0  0  0  0  0  0  0  0  0  0
  146.6501  135.2146  162.3569 C   0  0  0  0  0  0  0  0  0  0  0  0
  147.3315  134.3856  160.9865 S   0  0  0  0  0  0  0  0  0  0  0  0
  150.6511  137.7587  154.2606 C   0  0  0  0  0  0  0  0  0  0  0  0
  151.0995  138.9361  155.1506 C   0  0  1  0  0  0  0  0  0  0  0  0
  152.6239  139.0935  155.1722 C   0  0  0  0  0  0  0  0  0  0  0  0
  150.5380  140.1403  154.6390 O   0  0  0  0  0  0  0  0  0  0  0  0
  147.5430  141.5565  154.1466 H   0  0  0  0  0  0  0  0  0  0  0  0
  148.9767  141.6910  153.1293 H   0  0  0  0  0  0  0  0  0  0  0  0
  149.0052  142.3050  154.7801 H   0  0  0  0  0  0  0  0  0  0  0  0
  148.7647  140.0143  155.6772 H   0  0  0  0  0  0  0  0  0  0  0  0
  147.5133  138.9512  153.7638 H   0  0  0  0  0  0  0  0  0  0  0  0
  148.9010  139.1570  152.7326 H   0  0  0  0  0  0  0  0  0  0  0  0
  148.5889  137.8183  156.2111 H   0  0  0  0  0  0  0  0  0  0  0  0
  147.4955  136.8834  155.2297 H   0  0  0  0  0  0  0  0  0  0  0  0
  148.7270  134.9134  155.6463 H   0  0  0  0  0  0  0  0  0  0  0  0
  150.2465  135.7322  155.3773 H   0  0  0  0  0  0  0  0  0  0  0  0
  150.4919  135.8723  157.6232 H   0  0  0  0  0  0  0  0  0  0  0  0
  146.8591  137.2389  163.1931 H   0  0  0  0  0  0  0  0  0  0  0  0
  145.9535  134.7076  163.0070 H   0  0  0  0  0  0  0  0  0  0  0  0
  151.0712  136.8172  154.6172 H   0  0  0  0  0  0  0  0  0  0  0  0
  151.0350  137.8998  153.2492 H   0  0  0  0  0  0  0  0  0  0  0  0
  150.7565  138.7849  156.1754 H   0  0  0  0  0  0  0  0  0  0  0  0
  153.1053  138.1956  155.5600 H   0  0  0  0  0  0  0  0  0  0  0  0
  152.9200  139.9290  155.8070 H   0  0  0  0  0  0  0  0  0  0  0  0
  153.0171  139.2797  154.1722 H   0  0  0  0  0  0  0  0  0  0  0  0
  148.9696  137.0164  153.4466 H   0  0  0  0  0  0  0  0  0  0  0  0
  1  2  1  0  0  0  0
  1 20  1  0  0  0  0
  1 21  1  0  0  0  0
  1 22  1  0  0  0  0
  2 19  1  0  0  0  0
  2  3  1  0  0  0  0
  2 23  1  0  0  0  0
  3  4  1  0  0  0  0
  3 24  1  0  0  0  0
  3 25  1  0  0  0  0
  4  5  1  0  0  0  0
  4 16  1  0  0  0  0
  4 39  1  0  0  0  0
  5  6  1  0  0  0  0
  5 26  1  0  0  0  0
  5 27  1  0  0  0  0
  6  7  1  0  0  0  0
  6 28  1  0  0  0  0
  6 29  1  0  0  0  0
  7  8  1  0  0  0  0
  7 30  1  0  0  0  0
  8  9  2  0  0  0  0
  8 10  1  0  0  0  0
 10 11  1  0  0  0  0
 11 15  1  0  0  0  0
 11 12  2  0  0  0  0
 12 13  1  0  0  0  0
 13 14  2  0  0  0  0
 13 31  1  0  0  0  0
 14 15  1  0  0  0  0
 14 32  1  0  0  0  0
 16 17  1  0  0  0  0
 16 33  1  0  0  0  0
 16 34  1  0  0  0  0
 17 18  1  0  0  0  0
 17 19  1  0  0  0  0
 17 35  1  0  0  0  0
 18 36  1  0  0  0  0
 18 37  1  0  0  0  0
 18 38  1  0  0  0  0
M  CHG  1   4   1
M  CHG  1  10  -1
M  END
> <s_m_source_file>
AV-unprocessed.smi

> <i_m_source_file_index>
1815

> <i_lp_mmshare_version>
43012

> <i_f3d_flags>
0

> <s_epik_input>
W0NIM11bQ0BASF0xW0NIMl1OKFtDSDJdW0NASF0oTzEpW0NIM10pW0NIMl1bQ0gyXVtOSF1DKD1PKVtOSF1jMm5bY0hdW2NIXXMy

> <s_epik_cmdline>
J2VwaWtfcHl0aG9uJywgJy1waCcsICc3LjAnLCAnLXRuJywgJzgnLCAnLW1hJywgJzIwMCcsICctbWV0YWxfYmluZGluZycsICctaW1hZScsICc8aW5maWxlLm1hZT4nLCAnLW9tYWUnLCAnPG91dGZpbGUubWFlPic=

> <r_lp_tautomer_probability>
0.999

> <r_epik_Ionization_Penalty>
6.71699

> <r_epik_Ionization_Penalty_Charging>
5.88592

> <r_epik_Ionization_Penalty_Neutral>
0.831074

> <r_epik_State_Penalty>
6.08365

> <r_epik_Charging_Adjusted_Penalty>
11.9696

> <i_epik_Tot_Q>
0

> <i_epik_Tot_abs_Q>
2

> <r_epik_Metal_State_Penalty>
2.0947

> <b_epik_Metal_Only>
1

> <s_lp_Force_Field>
OPLS_2005

> <r_lp_Energy>
5.04414

> <b_lp_Chiralities_Consistent>
1

> <s_lp_Variant>
AV-unprocessed.smi:1815-12

> <Gold.Version>
5.8.1

> <Gold.Id.Protein>
6NUR|6NUR_protein|mol2

> <Gold.PLP.Fitness>
50.6649

> <Gold.PLP.PLP>
-34.4033

> <Gold.PLP.part.hbond>
-4.5947

> <Gold.PLP.part.metal>
0.0000

> <Gold.PLP.part.buried>
-2.5337

> <Gold.PLP.part.nonpolar>
-28.0135

> <Gold.PLP.part.repulsive>
0.1566

> <Gold.PLP.ligand.clash>
0.0000

> <Gold.PLP.ligand.torsion>
1.0396

> <Gold.PLP.Chemscore.Hbond>
6.0983

> <Gold.PLP.Chemscore.CHOScore>
0.0000

> <Gold.PLP.Chemscore.Metal>
0.0000

> <Gold.Chemscore.Hbonds>
donor molecule, donor type, donor heavy atom, donor atom, acceptor molecule, acceptor atom, score
      L1  H     4    39       P1  7948  2.00
      P1  H  6896  6909       L1    10  1.82
      P1  H  6931  6943       L1    12  1.00
      P1  H  6934  6947       L1    12  0.08
      P1  H  7989  7998       L1    19  1.00

> <Gold.PLP.Chemscore.Internal.Correction>
0.0460

> <Gold.Rescore>
     Score         DG    S(hbond)    S(metal)    S(lipo)     H(rot)  DE(clash)    DE(int)     intcor
     20.17     -21.15       3.40        0.00      71.99       1.61       0.06       0.92       ----

> <Gold.Chemscore.Fitness>
20.1694

> <Gold.Chemscore.DG>
-21.1507

> <Gold.Chemscore.ZeroCoef>
-5.4800

> <Gold.Chemscore.Hbond>
3.4010

> <Gold.Chemscore.Metal>
0.0000

> <Gold.Chemscore.Lipo>
71.9881

> <Gold.Chemscore.Internal_Hbond>
0.0000

> <Gold.Chemscore.DEClash>
0.0586

> <Gold.Chemscore.DEInternal>
0.9227

> <Gold.Chemscore.Rot>
1.6060

> <Gold.Chemscore.Internal.Correction>
   9.000000E+99

> <Gold.Chemscore.Hbonds>
donor molecule, donor type, donor heavy atom, donor atom, acceptor molecule, acceptor atom, score
      L1  H     4    39       P1  7948  1.00
      P1  H  6896  6909       L1    10  0.53
      P1  H  6931  6943       L1    12  0.78
      P1  H  6934  6947       L1    12  0.02
      P1  H  7989  7998       L1    19  0.74

> <Gold.Chemscore.Hbond.Weighted>
-11.3593

> <Gold.Chemscore.Metal.Weighted>
-0.0000

> <Gold.Chemscore.Lipo.Weighted>
-8.4226

> <Gold.Chemscore.Internal_Hbond.Weighted>
0.0000

> <Gold.Chemscore.DEClash.Weighted>
0.0586

> <Gold.Chemscore.DEInternal.Weighted>
0.9227

> <Gold.Chemscore.Rot.Weighted>
4.1112

> <Gold.Chemscore.Internal.Correction.Weighted>
   9.000000E+99

> <Gold.Protein.RotatedTorsions>
[ 6907 6896 6895 6894 ] final   58.88 input  -60.11 | X-H torsion
[ 7974 7965 7964 7962 ] final   25.48 input  175.53 | X-H torsion
[ 8008 7997 7996 7995 ] final -129.96 input   59.86 | X-H torsion
[ 10167 10162 10161 10158 ] final   30.94 input  -65.29 | X-H torsion
[ 10718 10713 10712 10709 ] final   95.40 input   66.30 | X-H torsion
[ 10763 10752 10751 10750 ] final  -19.31 input  -60.55 | X-H torsion
[ 11005 11000 10999 10996 ] final  170.34 input  -57.11 | X-H torsion

> <Gold.Protein.ActiveResidues>
 VAL166  LYS551  ARG553  GLY616  TRP617  ASP618  TYR619  PRO620  LYS621  CYS622 
 ASP623  PHE694  ASN695  SER759  ASP760  ASP761  ALA762  ILE779  LEU786  VAL792 
 PHE793  MET794  SER795  GLU796  ALA797  LYS798  CYS799  TRP800  GLU811  SER814 

> <Gold.Protein.RotatedAtoms>
  152.3864  134.6510  160.0123 H   0  0  0  0  0  0  0  0  0  0  0  0  # atno 6907 bound_to 6896
  151.6757  133.3307  159.3215 H   0  0  0  0  0  0  0  0  0  0  0  0  # atno 6908 bound_to 6896
  150.7790  134.6761  159.6462 H   0  0  0  0  0  0  0  0  0  0  0  0  # atno 6909 bound_to 6896
  146.1886  139.7459  142.8848 H   0  0  0  0  0  0  0  0  0  0  0  0  # atno 7974 bound_to 7965
  155.2878  140.0447  157.3020 H   0  0  0  0  0  0  0  0  0  0  0  0  # atno 8008 bound_to 7997
  154.5559  140.2331  155.8379 H   0  0  0  0  0  0  0  0  0  0  0  0  # atno 8009 bound_to 7997
  156.2006  140.3026  155.9526 H   0  0  0  0  0  0  0  0  0  0  0  0  # atno 8010 bound_to 7997
  140.4633  144.0873  150.6218 H   0  0  0  0  0  0  0  0  0  0  0  0  # atno 10167 bound_to 10162
  157.6939  131.0544  150.4333 H   0  0  0  0  0  0  0  0  0  0  0  0  # atno 10718 bound_to 10713
  153.6029  135.6999  153.5377 H   0  0  0  0  0  0  0  0  0  0  0  0  # atno 10763 bound_to 10752
  153.3082  135.4109  155.1312 H   0  0  0  0  0  0  0  0  0  0  0  0  # atno 10764 bound_to 10752
  154.8579  135.3665  154.5565 H   0  0  0  0  0  0  0  0  0  0  0  0  # atno 10765 bound_to 10752
  140.3073  134.7546  157.3963 H   0  0  0  0  0  0  0  0  0  0  0  0  # atno 11005 bound_to 11000
  145.3862  141.0366  143.3149 LP  0  0  0  0  0  0  0  0  0  0  0  0  # atno 17320 bound_to 7965
  144.8444  139.5421  143.6885 LP  0  0  0  0  0  0  0  0  0  0  0  0  # atno 17321 bound_to 7965
  140.4066  143.2677  151.9883 LP  0  0  0  0  0  0  0  0  0  0  0  0  # atno 17342 bound_to 10162
  139.4809  144.5951  151.7703 LP  0  0  0  0  0  0  0  0  0  0  0  0  # atno 17343 bound_to 10162
  156.4698  130.4050  149.6525 LP  0  0  0  0  0  0  0  0  0  0  0  0  # atno 17370 bound_to 10713
  156.3610  130.7481  151.2453 LP  0  0  0  0  0  0  0  0  0  0  0  0  # atno 17371 bound_to 10713
  140.1056  134.5414  155.8312 LP  0  0  0  0  0  0  0  0  0  0  0  0  # atno 17394 bound_to 11000
  141.2116  133.6708  156.6592 LP  0  0  0  0  0  0  0  0  0  0  0  0  # atno 17395 bound_to 11000

$$$$
