AV-unprocessed.smi:2900|AV-procd|sdf|11147|dock9
  -GOLD-   2272016 23D 1   1.00000     0.00000
 Structure written by MMmdl.
 35 36  0  0  0  0  0  0  0  0  1 V2000
  152.6593  141.2814  155.8946 O   0  0  0  0  0  0  0  0  0  0  0  0
  151.5142  141.0792  155.4914 C   0  0  0  0  0  0  0  0  0  0  0  0
  151.2001  140.7427  154.1051 C   0  0  0  0  0  0  0  0  0  0  0  0
  149.9320  140.5213  153.6980 C   0  0  0  0  0  0  0  0  0  0  0  0
  148.8446  140.6211  154.6572 C   0  0  0  0  0  0  0  0  0  0  0  0
  147.3962  140.3905  154.3026 C   0  0  0  0  0  0  0  0  0  0  0  0
  147.2309  139.2119  153.7018 F   0  0  0  0  0  0  0  0  0  0  0  0
  146.6455  140.4130  155.4042 F   0  0  0  0  0  0  0  0  0  0  0  0
  146.9683  141.3486  153.4800 F   0  0  0  0  0  0  0  0  0  0  0  0
  149.1162  140.9228  155.8860 N   0  0  0  0  0  0  0  0  0  0  0  0
  150.4175  141.1442  156.3018 N   0  0  0  0  0  0  0  0  0  0  0  0
  150.5415  141.4542  157.7313 C   0  0  0  0  0  0  0  0  0  0  0  0
  149.8861  142.8060  158.0927 C   0  0  2  0  0  0  0  0  0  0  0  0
  148.6844  142.9189  157.3549 O   0  0  0  0  0  0  0  0  0  0  0  0
  150.7779  143.9959  157.7001 C   0  0  0  0  0  0  0  0  0  0  0  0
  151.0649  144.7601  158.8640 O   0  0  0  0  0  0  0  0  0  0  0  0
  151.8257  144.1799  159.8564 C   0  0  0  0  0  0  0  0  0  0  0  0
  151.5889  144.6112  161.1781 C   0  0  0  0  0  0  0  0  0  0  0  0
  152.3189  144.0716  162.2548 C   0  0  0  0  0  0  0  0  0  0  0  0
  153.2982  143.0893  162.0184 C   0  0  0  0  0  0  0  0  0  0  0  0
  153.5451  142.6493  160.7048 C   0  0  0  0  0  0  0  0  0  0  0  0
  152.8153  143.1897  159.6279 C   0  0  0  0  0  0  0  0  0  0  0  0
  152.0050  140.6678  153.3886 H   0  0  0  0  0  0  0  0  0  0  0  0
  149.7239  140.2726  152.6680 H   0  0  0  0  0  0  0  0  0  0  0  0
  150.0717  140.6496  158.3000 H   0  0  0  0  0  0  0  0  0  0  0  0
  151.5877  141.4412  158.0437 H   0  0  0  0  0  0  0  0  0  0  0  0
  149.6712  142.8511  159.1613 H   0  0  0  0  0  0  0  0  0  0  0  0
  148.5345  143.8315  157.1616 H   0  0  0  0  0  0  0  0  0  0  0  0
  151.7213  143.6236  157.2976 H   0  0  0  0  0  0  0  0  0  0  0  0
  150.3012  144.6016  156.9268 H   0  0  0  0  0  0  0  0  0  0  0  0
  150.8384  145.3641  161.3687 H   0  0  0  0  0  0  0  0  0  0  0  0
  152.1265  144.4117  163.2615 H   0  0  0  0  0  0  0  0  0  0  0  0
  153.8587  142.6738  162.8428 H   0  0  0  0  0  0  0  0  0  0  0  0
  154.2959  141.8949  160.5218 H   0  0  0  0  0  0  0  0  0  0  0  0
  153.0331  142.8259  158.6355 H   0  0  0  0  0  0  0  0  0  0  0  0
  1  2  2  0  0  0  0
  2 11  1  0  0  0  0
  2  3  1  0  0  0  0
  3  4  2  0  0  0  0
  3 23  1  0  0  0  0
  4  5  1  0  0  0  0
  4 24  1  0  0  0  0
  5  6  1  0  0  0  0
  5 10  2  0  0  0  0
  6  7  1  0  0  0  0
  6  8  1  0  0  0  0
  6  9  1  0  0  0  0
 10 11  1  0  0  0  0
 11 12  1  0  0  0  0
 12 13  1  0  0  0  0
 12 25  1  0  0  0  0
 12 26  1  0  0  0  0
 13 14  1  0  0  0  0
 13 15  1  0  0  0  0
 13 27  1  0  0  0  0
 14 28  1  0  0  0  0
 15 16  1  0  0  0  0
 15 29  1  0  0  0  0
 15 30  1  0  0  0  0
 16 17  1  0  0  0  0
 17 22  1  0  0  0  0
 17 18  2  0  0  0  0
 18 19  1  0  0  0  0
 18 31  1  0  0  0  0
 19 20  2  0  0  0  0
 19 32  1  0  0  0  0
 20 21  1  0  0  0  0
 20 33  1  0  0  0  0
 21 22  2  0  0  0  0
 21 34  1  0  0  0  0
 22 35  1  0  0  0  0
M  END
> <s_m_source_file>
AV-unprocessed.smi

> <i_m_source_file_index>
2900

> <i_lp_mmshare_version>
43012

> <i_f3d_flags>
0

> <s_epik_input>
Tz1jMVtjSF1bY0hdYyhDKEYpKEYpRilubjFbQ0gyXVtDQEhdKFtPSF0pW0NIMl1PYzJbY0hdW2NIXVtjSF1bY0hdW2NIXTI=

> <s_epik_cmdline>
J2VwaWtfcHl0aG9uJywgJy1waCcsICc3LjAnLCAnLXRuJywgJzgnLCAnLW1hJywgJzIwMCcsICctbWV0YWxfYmluZGluZycsICctaW1hZScsICc8aW5maWxlLm1hZT4nLCAnLW9tYWUnLCAnPG91dGZpbGUubWFlPic=

> <r_lp_tautomer_probability>
1

> <r_epik_Ionization_Penalty>
1.22578e-07

> <r_epik_Ionization_Penalty_Charging>
5.40425e-09

> <r_epik_Ionization_Penalty_Neutral>
1.17174e-07

> <r_epik_State_Penalty>
-0

> <r_epik_Charging_Adjusted_Penalty>
5.40425e-09

> <i_epik_Tot_Q>
0

> <i_epik_Tot_abs_Q>
0

> <r_epik_Metal_State_Penalty>
-0

> <b_epik_Metal_Only>
0

> <s_lp_Force_Field>
OPLS_2005

> <r_lp_Energy>
34.5506

> <b_lp_Chiralities_Consistent>
1

> <s_lp_Variant>
AV-unprocessed.smi:2900-1

> <Gold.Version>
5.8.1

> <Gold.Id.Protein>
6NUR|6NUR_protein|mol2

> <Gold.PLP.Fitness>
50.5057

> <Gold.PLP.PLP>
-47.4615

> <Gold.PLP.part.hbond>
-1.8675

> <Gold.PLP.part.metal>
0.0000

> <Gold.PLP.part.buried>
-3.9030

> <Gold.PLP.part.nonpolar>
-41.0210

> <Gold.PLP.part.repulsive>
0.0937

> <Gold.PLP.ligand.clash>
0.0000

> <Gold.PLP.ligand.torsion>
1.4753

> <Gold.PLP.Chemscore.Hbond>
1.9920

> <Gold.PLP.Chemscore.CHOScore>
0.0000

> <Gold.PLP.Chemscore.Metal>
0.0000

> <Gold.Chemscore.Hbonds>
donor molecule, donor type, donor heavy atom, donor atom, acceptor molecule, acceptor atom, score
      L1  H    14    28       P1  8028  0.30
      P1  H  7997  8009       L1     1  0.54

> <Gold.PLP.Chemscore.Internal.Correction>
0.0189

> <Gold.Rescore>
     Score         DG    S(hbond)    S(metal)    S(lipo)     H(rot)  DE(clash)    DE(int)     intcor
     14.45     -16.01       1.19        0.00     113.57       2.63       0.09       1.47       ----

> <Gold.Chemscore.Fitness>
14.4504

> <Gold.Chemscore.DG>
-16.0149

> <Gold.Chemscore.ZeroCoef>
-5.4800

> <Gold.Chemscore.Hbond>
1.1942

> <Gold.Chemscore.Metal>
0.0000

> <Gold.Chemscore.Lipo>
113.5744

> <Gold.Chemscore.Internal_Hbond>
0.0000

> <Gold.Chemscore.DEClash>
0.0923

> <Gold.Chemscore.DEInternal>
1.4722

> <Gold.Chemscore.Rot>
2.6336

> <Gold.Chemscore.Internal.Correction>
   9.000000E+99

> <Gold.Chemscore.Hbonds>
donor molecule, donor type, donor heavy atom, donor atom, acceptor molecule, acceptor atom, score
      L1  H    14    28       P1  8028  0.01
      P1  H  7997  8009       L1     1  0.50

> <Gold.Chemscore.Hbond.Weighted>
-3.9887

> <Gold.Chemscore.Metal.Weighted>
-0.0000

> <Gold.Chemscore.Lipo.Weighted>
-13.2882

> <Gold.Chemscore.Internal_Hbond.Weighted>
0.0000

> <Gold.Chemscore.DEClash.Weighted>
0.0923

> <Gold.Chemscore.DEInternal.Weighted>
1.4722

> <Gold.Chemscore.Rot.Weighted>
6.7420

> <Gold.Chemscore.Internal.Correction.Weighted>
   9.000000E+99

> <Gold.Protein.RotatedTorsions>
[ 6907 6896 6895 6894 ] final  136.22 input  -60.11 | X-H torsion
[ 7974 7965 7964 7962 ] final  -49.77 input  175.53 | X-H torsion
[ 8008 7997 7996 7995 ] final -155.86 input   59.86 | X-H torsion
[ 10167 10162 10161 10158 ] final  -70.54 input  -65.29 | X-H torsion
[ 10718 10713 10712 10709 ] final  -87.59 input   66.30 | X-H torsion
[ 10763 10752 10751 10750 ] final   76.62 input  -60.55 | X-H torsion
[ 11005 11000 10999 10996 ] final -159.42 input  -57.11 | X-H torsion

> <Gold.Protein.ActiveResidues>
 VAL166  LYS551  ARG553  GLY616  TRP617  ASP618  TYR619  PRO620  LYS621  CYS622 
 ASP623  PHE694  ASN695  SER759  ASP760  ASP761  ALA762  ILE779  LEU786  VAL792 
 PHE793  MET794  SER795  GLU796  ALA797  LYS798  CYS799  TRP800  GLU811  SER814 

> <Gold.Protein.RotatedAtoms>
  152.2918  133.5568  159.5561 H   0  0  0  0  0  0  0  0  0  0  0  0  # atno 6907 bound_to 6896
  150.7238  134.0418  159.3777 H   0  0  0  0  0  0  0  0  0  0  0  0  # atno 6908 bound_to 6896
  151.8323  135.0617  160.0489 H   0  0  0  0  0  0  0  0  0  0  0  0  # atno 6909 bound_to 6896
  145.9370  140.7697  142.9571 H   0  0  0  0  0  0  0  0  0  0  0  0  # atno 7974 bound_to 7965
  155.7084  140.0775  157.2381 H   0  0  0  0  0  0  0  0  0  0  0  0  # atno 8008 bound_to 7997
  154.4062  140.1634  156.2322 H   0  0  0  0  0  0  0  0  0  0  0  0  # atno 8009 bound_to 7997
  155.9305  140.3391  155.6248 H   0  0  0  0  0  0  0  0  0  0  0  0  # atno 8010 bound_to 7997
  140.5344  143.2319  151.7203 H   0  0  0  0  0  0  0  0  0  0  0  0  # atno 10167 bound_to 10162
  155.9985  130.4805  150.4891 H   0  0  0  0  0  0  0  0  0  0  0  0  # atno 10718 bound_to 10713
  153.0739  135.4944  154.8363 H   0  0  0  0  0  0  0  0  0  0  0  0  # atno 10763 bound_to 10752
  154.7060  135.3010  154.9272 H   0  0  0  0  0  0  0  0  0  0  0  0  # atno 10764 bound_to 10752
  153.9980  135.6770  153.4810 H   0  0  0  0  0  0  0  0  0  0  0  0  # atno 10765 bound_to 10752
  140.6428  134.4533  157.5234 H   0  0  0  0  0  0  0  0  0  0  0  0  # atno 11005 bound_to 11000
  144.6773  140.2219  143.7365 LP  0  0  0  0  0  0  0  0  0  0  0  0  # atno 17320 bound_to 7965
  145.8350  139.2103  143.1860 LP  0  0  0  0  0  0  0  0  0  0  0  0  # atno 17321 bound_to 7965
  139.4966  144.4065  152.0126 LP  0  0  0  0  0  0  0  0  0  0  0  0  # atno 17342 bound_to 10162
  140.3169  144.3473  150.6019 LP  0  0  0  0  0  0  0  0  0  0  0  0  # atno 17343 bound_to 10162
  157.2888  131.0622  151.2148 LP  0  0  0  0  0  0  0  0  0  0  0  0  # atno 17370 bound_to 10713
  157.3168  130.6917  149.6246 LP  0  0  0  0  0  0  0  0  0  0  0  0  # atno 17371 bound_to 10713
  139.9074  134.8419  156.1655 LP  0  0  0  0  0  0  0  0  0  0  0  0  # atno 17394 bound_to 11000
  141.0594  133.6849  156.1924 LP  0  0  0  0  0  0  0  0  0  0  0  0  # atno 17395 bound_to 11000

$$$$
