AV-unprocessed.smi:2104|AV-procd|sdf|8589|dock7
  -GOLD-   2272011323D 1   1.00000     0.00000
 Structure written by MMmdl.
 42 43  0  0  0  0  0  0  0  0  2 V2000
  149.3990  140.7198  154.0154 C   0  0  0  0  0  0  0  0  0  0  0  0
  150.1849  139.4679  154.2034 C   0  0  0  0  0  0  0  0  0  0  0  0
  149.8300  138.1514  154.2879 C   0  0  0  0  0  0  0  0  0  0  0  0
  151.0750  137.4914  154.4743 C   0  0  0  0  0  0  0  0  0  0  0  0
  151.2571  136.1690  154.6090 N   0  5  0  0  0  0  0  0  0  0  0  0
  150.2185  135.3757  154.9583 C   0  0  0  0  0  0  0  0  0  0  0  0
  149.7248  135.2743  156.0840 O   0  0  0  0  0  0  0  0  0  0  0  0
  149.7372  134.6397  153.9460 N   0  0  0  0  0  0  0  0  0  0  0  0
  148.7123  133.6055  154.0516 C   0  0  0  0  0  0  0  0  0  0  0  0
  147.3308  134.1577  153.6692 C   0  0  0  0  0  0  0  0  0  0  0  0
  146.5251  133.0958  153.1818 O   0  0  0  0  0  0  0  0  0  0  0  0
  146.8672  132.6232  151.8853 C   0  0  2  0  0  0  0  0  0  0  0  0
  146.6574  133.7903  150.9028 C   0  0  0  0  0  0  0  0  0  0  0  0
  145.1753  134.1891  150.7946 C   0  0  0  0  0  0  0  0  0  0  0  0
  144.2993  132.9860  150.4152 C   0  0  0  0  0  0  0  0  0  0  0  0
  144.4966  131.8204  151.3970 C   0  0  0  0  0  0  0  0  0  0  0  0
  145.9798  131.4129  151.5016 C   0  0  2  0  0  0  0  0  0  0  0  0
  146.1688  130.2075  152.4350 C   0  0  0  0  0  0  0  0  0  0  0  0
  152.0967  138.3317  154.4846 N   0  0  0  0  0  0  0  0  0  0  0  0
  151.5336  139.6022  154.3172 O   0  0  0  0  0  0  0  0  0  0  0  0
  149.3832  141.0101  152.9649 H   0  0  0  0  0  0  0  0  0  0  0  0
  149.8313  141.5406  154.5881 H   0  0  0  0  0  0  0  0  0  0  0  0
  148.3688  140.5838  154.3452 H   0  0  0  0  0  0  0  0  0  0  0  0
  148.8388  137.7269  154.2322 H   0  0  0  0  0  0  0  0  0  0  0  0
  150.1680  134.7629  153.0416 H   0  0  0  0  0  0  0  0  0  0  0  0
  148.9652  132.7345  153.4452 H   0  0  0  0  0  0  0  0  0  0  0  0
  148.6932  133.2664  155.0872 H   0  0  0  0  0  0  0  0  0  0  0  0
  146.8461  134.5994  154.5406 H   0  0  0  0  0  0  0  0  0  0  0  0
  147.4400  134.9468  152.9243 H   0  0  0  0  0  0  0  0  0  0  0  0
  147.9192  132.3334  151.8452 H   0  0  0  0  0  0  0  0  0  0  0  0
  147.2517  134.6500  151.2137 H   0  0  0  0  0  0  0  0  0  0  0  0
  147.0259  133.5033  149.9173 H   0  0  0  0  0  0  0  0  0  0  0  0
  144.8357  134.6009  151.7460 H   0  0  0  0  0  0  0  0  0  0  0  0
  145.0571  134.9822  150.0562 H   0  0  0  0  0  0  0  0  0  0  0  0
  143.2499  133.2817  150.3971 H   0  0  0  0  0  0  0  0  0  0  0  0
  144.5462  132.6584  149.4047 H   0  0  0  0  0  0  0  0  0  0  0  0
  144.1183  132.1030  152.3801 H   0  0  0  0  0  0  0  0  0  0  0  0
  143.8969  130.9685  151.0747 H   0  0  0  0  0  0  0  0  0  0  0  0
  146.2962  131.0879  150.5093 H   0  0  0  0  0  0  0  0  0  0  0  0
  145.8200  130.4249  153.4443 H   0  0  0  0  0  0  0  0  0  0  0  0
  147.2176  129.9170  152.4965 H   0  0  0  0  0  0  0  0  0  0  0  0
  145.6083  129.3442  152.0759 H   0  0  0  0  0  0  0  0  0  0  0  0
  1  2  1  0  0  0  0
  1 21  1  0  0  0  0
  1 22  1  0  0  0  0
  1 23  1  0  0  0  0
  2 20  1  0  0  0  0
  2  3  2  0  0  0  0
  3  4  1  0  0  0  0
  3 24  1  0  0  0  0
  4  5  1  0  0  0  0
  4 19  2  0  0  0  0
  5  6  1  0  0  0  0
  6  7  2  0  0  0  0
  6  8  1  0  0  0  0
  8  9  1  0  0  0  0
  8 25  1  0  0  0  0
  9 10  1  0  0  0  0
  9 26  1  0  0  0  0
  9 27  1  0  0  0  0
 10 11  1  0  0  0  0
 10 28  1  0  0  0  0
 10 29  1  0  0  0  0
 11 12  1  0  0  0  0
 12 17  1  0  0  0  0
 12 13  1  0  0  0  0
 12 30  1  0  0  0  0
 13 14  1  0  0  0  0
 13 31  1  0  0  0  0
 13 32  1  0  0  0  0
 14 15  1  0  0  0  0
 14 33  1  0  0  0  0
 14 34  1  0  0  0  0
 15 16  1  0  0  0  0
 15 35  1  0  0  0  0
 15 36  1  0  0  0  0
 16 17  1  0  0  0  0
 16 37  1  0  0  0  0
 16 38  1  0  0  0  0
 17 18  1  0  0  0  0
 17 39  1  0  0  0  0
 18 40  1  0  0  0  0
 18 41  1  0  0  0  0
 18 42  1  0  0  0  0
 19 20  1  0  0  0  0
M  CHG  1   5  -1
M  END
> <s_m_source_file>
AV-unprocessed.smi

> <i_m_source_file_index>
2104

> <i_lp_mmshare_version>
43012

> <i_f3d_flags>
0

> <s_epik_input>
W0NIM11jMVtjSF1jKG5vMSlbTkhdQyg9TylbTkhdW0NIMl1bQ0gyXU9bQ0BASF0yW0NIMl1bQ0gyXVtDSDJdW0NIMl1bQ0BIXTJbQ0gzXQ==

> <s_epik_cmdline>
J2VwaWtfcHl0aG9uJywgJy1waCcsICc3LjAnLCAnLXRuJywgJzgnLCAnLW1hJywgJzIwMCcsICctbWV0YWxfYmluZGluZycsICctaW1hZScsICc8aW5maWxlLm1hZT4nLCAnLW9tYWUnLCAnPG91dGZpbGUubWFlPic=

> <r_lp_tautomer_probability>
1

> <r_epik_Ionization_Penalty>
6.47137

> <r_epik_Ionization_Penalty_Charging>
6.47125

> <r_epik_Ionization_Penalty_Neutral>
0.000118933

> <r_epik_State_Penalty>
6.47124

> <r_epik_Charging_Adjusted_Penalty>
12.9425

> <i_epik_Tot_Q>
-1

> <i_epik_Tot_abs_Q>
1

> <r_epik_Metal_State_Penalty>
2.3995

> <b_epik_Metal_Only>
1

> <s_lp_Force_Field>
OPLS_2005

> <r_lp_Energy>
3.94735

> <b_lp_Chiralities_Consistent>
1

> <s_lp_Variant>
AV-unprocessed.smi:2104-7

> <Gold.Version>
5.8.1

> <Gold.Id.Protein>
6NUR|6NUR_protein|mol2

> <Gold.PLP.Fitness>
43.2101

> <Gold.PLP.PLP>
-36.4149

> <Gold.PLP.part.hbond>
-3.5483

> <Gold.PLP.part.metal>
0.0000

> <Gold.PLP.part.buried>
-5.5256

> <Gold.PLP.part.nonpolar>
-28.4043

> <Gold.PLP.part.repulsive>
0.4942

> <Gold.PLP.ligand.clash>
0.0000

> <Gold.PLP.ligand.torsion>
1.1357

> <Gold.PLP.Chemscore.Hbond>
3.0000

> <Gold.PLP.Chemscore.CHOScore>
0.0000

> <Gold.PLP.Chemscore.Metal>
0.0000

> <Gold.Chemscore.Hbonds>
donor molecule, donor type, donor heavy atom, donor atom, acceptor molecule, acceptor atom, score
      P1  H  7989  7998       L1    20  0.79
      P1  H 10752 10765       L1     5  2.00

> <Gold.PLP.Chemscore.Internal.Correction>
0.0666

> <Gold.Rescore>
     Score         DG    S(hbond)    S(metal)    S(lipo)     H(rot)  DE(clash)    DE(int)     intcor
     15.53     -16.87       1.87        0.00      81.45       1.71       0.23       1.11       ----

> <Gold.Chemscore.Fitness>
15.5253

> <Gold.Chemscore.DG>
-16.8717

> <Gold.Chemscore.ZeroCoef>
-5.4800

> <Gold.Chemscore.Hbond>
1.8683

> <Gold.Chemscore.Metal>
0.0000

> <Gold.Chemscore.Lipo>
81.4517

> <Gold.Chemscore.Internal_Hbond>
0.0000

> <Gold.Chemscore.DEClash>
0.2336

> <Gold.Chemscore.DEInternal>
1.1128

> <Gold.Chemscore.Rot>
1.7103

> <Gold.Chemscore.Internal.Correction>
   9.000000E+99

> <Gold.Chemscore.Hbonds>
donor molecule, donor type, donor heavy atom, donor atom, acceptor molecule, acceptor atom, score
      P1  H  7989  7998       L1    20  0.13
      P1  H 10752 10765       L1     5  0.92

> <Gold.Chemscore.Hbond.Weighted>
-6.2403

> <Gold.Chemscore.Metal.Weighted>
-0.0000

> <Gold.Chemscore.Lipo.Weighted>
-9.5299

> <Gold.Chemscore.Internal_Hbond.Weighted>
0.0000

> <Gold.Chemscore.DEClash.Weighted>
0.2336

> <Gold.Chemscore.DEInternal.Weighted>
1.1128

> <Gold.Chemscore.Rot.Weighted>
4.3784

> <Gold.Chemscore.Internal.Correction.Weighted>
   9.000000E+99

> <Gold.Protein.RotatedTorsions>
[ 6907 6896 6895 6894 ] final   85.61 input  -60.11 | X-H torsion
[ 7974 7965 7964 7962 ] final -127.73 input  175.53 | X-H torsion
[ 8008 7997 7996 7995 ] final -154.66 input   59.86 | X-H torsion
[ 10167 10162 10161 10158 ] final  -19.62 input  -65.29 | X-H torsion
[ 10718 10713 10712 10709 ] final   73.34 input   66.30 | X-H torsion
[ 10763 10752 10751 10750 ] final  175.66 input  -60.55 | X-H torsion
[ 11005 11000 10999 10996 ] final  -56.83 input  -57.11 | X-H torsion

> <Gold.Protein.ActiveResidues>
 VAL166  LYS551  ARG553  GLY616  TRP617  ASP618  TYR619  PRO620  LYS621  CYS622 
 ASP623  PHE694  ASN695  SER759  ASP760  ASP761  ALA762  ILE779  LEU786  VAL792 
 PHE793  MET794  SER795  GLU796  ALA797  LYS798  CYS799  TRP800  GLU811  SER814 

> <Gold.Protein.RotatedAtoms>
  152.5378  134.2560  159.8916 H   0  0  0  0  0  0  0  0  0  0  0  0  # atno 6907 bound_to 6896
  151.2521  133.4338  159.2619 H   0  0  0  0  0  0  0  0  0  0  0  0  # atno 6908 bound_to 6896
  151.0529  134.9699  159.8277 H   0  0  0  0  0  0  0  0  0  0  0  0  # atno 6909 bound_to 6896
  144.9741  140.7575  143.4652 H   0  0  0  0  0  0  0  0  0  0  0  0  # atno 7974 bound_to 7965
  155.6898  140.0754  157.2452 H   0  0  0  0  0  0  0  0  0  0  0  0  # atno 8008 bound_to 7997
  154.4090  140.1666  156.2126 H   0  0  0  0  0  0  0  0  0  0  0  0  # atno 8009 bound_to 7997
  155.9462  140.3381  155.6372 H   0  0  0  0  0  0  0  0  0  0  0  0  # atno 8010 bound_to 7997
  140.7270  143.4801  151.0129 H   0  0  0  0  0  0  0  0  0  0  0  0  # atno 10167 bound_to 10162
  157.6543  130.9624  150.1056 H   0  0  0  0  0  0  0  0  0  0  0  0  # atno 10718 bound_to 10713
  154.4706  135.2771  155.1646 H   0  0  0  0  0  0  0  0  0  0  0  0  # atno 10763 bound_to 10752
  154.3396  135.6173  153.5594 H   0  0  0  0  0  0  0  0  0  0  0  0  # atno 10764 bound_to 10752
  152.9864  135.5785  154.5086 H   0  0  0  0  0  0  0  0  0  0  0  0  # atno 10765 bound_to 10752
  141.1138  133.6610  156.4678 H   0  0  0  0  0  0  0  0  0  0  0  0  # atno 11005 bound_to 11000
  145.2515  139.2029  143.4939 LP  0  0  0  0  0  0  0  0  0  0  0  0  # atno 17320 bound_to 7965
  146.3390  140.2429  142.8596 LP  0  0  0  0  0  0  0  0  0  0  0  0  # atno 17321 bound_to 7965
  139.8499  143.7452  152.3178 LP  0  0  0  0  0  0  0  0  0  0  0  0  # atno 17342 bound_to 10162
  139.7630  144.7500  151.0335 LP  0  0  0  0  0  0  0  0  0  0  0  0  # atno 17343 bound_to 10162
  156.1966  130.3658  149.8841 LP  0  0  0  0  0  0  0  0  0  0  0  0  # atno 17370 bound_to 10713
  156.6755  130.8837  151.3568 LP  0  0  0  0  0  0  0  0  0  0  0  0  # atno 17371 bound_to 10713
  140.4703  134.6759  157.5126 LP  0  0  0  0  0  0  0  0  0  0  0  0  # atno 17394 bound_to 11000
  140.0047  134.6782  155.9474 LP  0  0  0  0  0  0  0  0  0  0  0  0  # atno 17395 bound_to 11000

$$$$
