AV-unprocessed.smi:2336|AV-procd|sdf|9330|dock7
  -GOLD-   2272012553D 1   1.00000     0.00000
 Structure written by MMmdl.
 50 51  0  0  0  0  0  0  0  0  2 V2000
  142.9212  134.7625  152.7558 C   0  0  0  0  0  0  0  0  0  0  0  0
  143.8076  134.6238  151.5017 C   0  0  0  0  0  0  0  0  0  0  0  0
  143.7260  133.1699  150.9977 C   0  0  0  0  0  0  0  0  0  0  0  0
  145.2690  135.0964  151.7608 C   0  0  1  0  0  0  0  0  0  0  0  0
  145.3402  136.5729  152.2498 C   0  0  0  0  0  0  0  0  0  0  0  0
  146.6973  137.0186  152.5557 N   0  0  0  0  0  0  0  0  0  0  0  0
  147.0247  138.1031  153.2736 C   0  0  0  0  0  0  0  0  0  0  0  0
  146.1965  138.8765  153.7530 O   0  0  0  0  0  0  0  0  0  0  0  0
  148.3581  138.2216  153.3887 N   0  0  0  0  0  0  0  0  0  0  0  0
  149.1091  139.1870  154.1146 C   0  0  0  0  0  0  0  0  0  0  0  0
  148.6421  140.4861  154.4303 C   0  0  0  0  0  0  0  0  0  0  0  0
  149.4800  141.3414  155.1744 C   0  0  0  0  0  0  0  0  0  0  0  0
  150.7064  140.9862  155.6121 N   0  0  0  0  0  0  0  0  0  0  0  0
  151.1426  139.7425  155.3210 C   0  0  0  0  0  0  0  0  0  0  0  0
  150.3846  138.8096  154.5850 C   0  0  0  0  0  0  0  0  0  0  0  0
  150.8786  137.5732  154.3333 F   0  0  0  0  0  0  0  0  0  0  0  0
  145.9685  134.1218  152.6574 N   0  3  0  0  0  0  0  0  0  0  0  0
  145.7113  134.2643  154.1132 C   0  0  0  0  0  0  0  0  0  0  0  0
  146.2826  133.0519  154.8764 C   0  0  0  0  0  0  0  0  0  0  0  0
  147.7126  132.8641  154.6226 N   0  0  0  0  0  0  0  0  0  0  0  0
  148.5453  133.8902  155.2415 C   0  0  0  0  0  0  0  0  0  0  0  0
  147.9497  132.7200  153.1849 C   0  0  0  0  0  0  0  0  0  0  0  0
  147.4149  133.9250  152.3841 C   0  0  0  0  0  0  0  0  0  0  0  0
  143.3239  134.1895  153.5917 H   0  0  0  0  0  0  0  0  0  0  0  0
  141.9108  134.3994  152.5643 H   0  0  0  0  0  0  0  0  0  0  0  0
  142.8236  135.7995  153.0770 H   0  0  0  0  0  0  0  0  0  0  0  0
  143.3716  135.2528  150.7248 H   0  0  0  0  0  0  0  0  0  0  0  0
  144.2319  132.4839  151.6778 H   0  0  0  0  0  0  0  0  0  0  0  0
  144.1667  133.0531  150.0084 H   0  0  0  0  0  0  0  0  0  0  0  0
  142.6893  132.8425  150.9121 H   0  0  0  0  0  0  0  0  0  0  0  0
  145.7733  135.0549  150.7939 H   0  0  0  0  0  0  0  0  0  0  0  0
  144.9908  137.2450  151.4679 H   0  0  0  0  0  0  0  0  0  0  0  0
  144.6640  136.7248  153.0925 H   0  0  0  0  0  0  0  0  0  0  0  0
  147.4501  136.4550  152.1878 H   0  0  0  0  0  0  0  0  0  0  0  0
  148.9107  137.5614  152.8610 H   0  0  0  0  0  0  0  0  0  0  0  0
  147.6669  140.8384  154.1326 H   0  0  0  0  0  0  0  0  0  0  0  0
  149.1518  142.3376  155.4314 H   0  0  0  0  0  0  0  0  0  0  0  0
  152.1243  139.4817  155.6881 H   0  0  0  0  0  0  0  0  0  0  0  0
  146.1405  135.1856  154.4999 H   0  0  0  0  0  0  0  0  0  0  0  0
  144.6384  134.3232  154.2940 H   0  0  0  0  0  0  0  0  0  0  0  0
  146.1124  133.1627  155.9481 H   0  0  0  0  0  0  0  0  0  0  0  0
  145.7545  132.1474  154.5716 H   0  0  0  0  0  0  0  0  0  0  0  0
  149.6002  133.6688  155.0763 H   0  0  0  0  0  0  0  0  0  0  0  0
  148.3778  133.9122  156.3188 H   0  0  0  0  0  0  0  0  0  0  0  0
  148.3463  134.8874  154.8506 H   0  0  0  0  0  0  0  0  0  0  0  0
  149.0161  132.5838  153.0011 H   0  0  0  0  0  0  0  0  0  0  0  0
  147.4595  131.8078  152.8419 H   0  0  0  0  0  0  0  0  0  0  0  0
  147.5620  133.7330  151.3209 H   0  0  0  0  0  0  0  0  0  0  0  0
  147.9910  134.8170  152.6202 H   0  0  0  0  0  0  0  0  0  0  0  0
  145.5573  133.2329  152.4104 H   0  0  0  0  0  0  0  0  0  0  0  0
  1  2  1  0  0  0  0
  1 24  1  0  0  0  0
  1 25  1  0  0  0  0
  1 26  1  0  0  0  0
  2  3  1  0  0  0  0
  2  4  1  0  0  0  0
  2 27  1  0  0  0  0
  3 28  1  0  0  0  0
  3 29  1  0  0  0  0
  3 30  1  0  0  0  0
  4  5  1  0  0  0  0
  4 17  1  0  0  0  0
  4 31  1  0  0  0  0
  5  6  1  0  0  0  0
  5 32  1  0  0  0  0
  5 33  1  0  0  0  0
  6  7  1  0  0  0  0
  6 34  1  0  0  0  0
  7  8  2  0  0  0  0
  7  9  1  0  0  0  0
  9 10  1  0  0  0  0
  9 35  1  0  0  0  0
 10 15  1  0  0  0  0
 10 11  2  0  0  0  0
 11 12  1  0  0  0  0
 11 36  1  0  0  0  0
 12 13  2  0  0  0  0
 12 37  1  0  0  0  0
 13 14  1  0  0  0  0
 14 15  2  0  0  0  0
 14 38  1  0  0  0  0
 15 16  1  0  0  0  0
 17 23  1  0  0  0  0
 17 18  1  0  0  0  0
 17 50  1  0  0  0  0
 18 19  1  0  0  0  0
 18 39  1  0  0  0  0
 18 40  1  0  0  0  0
 19 20  1  0  0  0  0
 19 41  1  0  0  0  0
 19 42  1  0  0  0  0
 20 21  1  0  0  0  0
 20 22  1  0  0  0  0
 21 43  1  0  0  0  0
 21 44  1  0  0  0  0
 21 45  1  0  0  0  0
 22 23  1  0  0  0  0
 22 46  1  0  0  0  0
 22 47  1  0  0  0  0
 23 48  1  0  0  0  0
 23 49  1  0  0  0  0
M  CHG  1  17   1
M  END
> <s_m_source_file>
AV-unprocessed.smi

> <i_m_source_file_index>
2336

> <i_lp_mmshare_version>
43012

> <i_f3d_flags>
0

> <s_epik_input>
W0NIMl0xW0NIMl1OKFtDSDNdKVtDSDJdW0NIMl1OMVtDQEhdKFtDSF0oW0NIM10pW0NIM10pW0NIMl1bTkhdQyg9TylbTkhdYzJbY0hdW2NIXW5bY0hdYzJG

> <s_epik_cmdline>
J2VwaWtfcHl0aG9uJywgJy1waCcsICc3LjAnLCAnLXRuJywgJzgnLCAnLW1hJywgJzIwMCcsICctbWV0YWxfYmluZGluZycsICctaW1hZScsICc8aW5maWxlLm1hZT4nLCAnLW9tYWUnLCAnPG91dGZpbGUubWFlPic=

> <r_epik_Ionization_Penalty>
0.204575

> <r_epik_Ionization_Penalty_Charging>
0.20006

> <r_epik_Ionization_Penalty_Neutral>
0.00451444

> <r_epik_State_Penalty>
1.43207

> <r_epik_Charging_Adjusted_Penalty>
1.63213

> <i_epik_Tot_Q>
1

> <i_epik_Tot_abs_Q>
1

> <r_epik_Metal_State_Penalty>
1.43277

> <b_epik_Metal_Only>
0

> <s_lp_Force_Field>
OPLS_2005

> <r_lp_Energy>
38.4551

> <b_lp_Chiralities_Consistent>
1

> <s_lp_Variant>
AV-unprocessed.smi:2336-4

> <Gold.Version>
5.8.1

> <Gold.Id.Protein>
6NUR|6NUR_protein|mol2

> <Gold.PLP.Fitness>
41.3011

> <Gold.PLP.PLP>
-33.7337

> <Gold.PLP.part.hbond>
-3.4403

> <Gold.PLP.part.metal>
0.0000

> <Gold.PLP.part.buried>
-0.4948

> <Gold.PLP.part.nonpolar>
-31.3682

> <Gold.PLP.part.repulsive>
0.3494

> <Gold.PLP.ligand.clash>
0.0000

> <Gold.PLP.ligand.torsion>
0.8827

> <Gold.PLP.Chemscore.Hbond>
1.9920

> <Gold.PLP.Chemscore.CHOScore>
1.0000

> <Gold.PLP.Chemscore.Metal>
0.0000

> <Gold.Chemscore.Hbonds>
donor molecule, donor type, donor heavy atom, donor atom, acceptor molecule, acceptor atom, score
      L1  H     6    34       P1  7948  1.00
      L1  H     9    35       P1  7948  0.99
      L1  C    12    37       P1  8028  1.00

> <Gold.PLP.Chemscore.Internal.Correction>
0.3568

> <Gold.Rescore>
     Score         DG    S(hbond)    S(metal)    S(lipo)     H(rot)  DE(clash)    DE(int)     intcor
     13.74     -16.54       1.96        0.00      75.31       1.67       0.82       1.98       ----

> <Gold.Chemscore.Fitness>
13.7449

> <Gold.Chemscore.DG>
-16.5401

> <Gold.Chemscore.ZeroCoef>
-5.4800

> <Gold.Chemscore.Hbond>
1.9562

> <Gold.Chemscore.Metal>
0.0000

> <Gold.Chemscore.Lipo>
75.3133

> <Gold.Chemscore.Internal_Hbond>
0.0000

> <Gold.Chemscore.DEClash>
0.8176

> <Gold.Chemscore.DEInternal>
1.9776

> <Gold.Chemscore.Rot>
1.6739

> <Gold.Chemscore.Internal.Correction>
   9.000000E+99

> <Gold.Chemscore.Hbonds>
donor molecule, donor type, donor heavy atom, donor atom, acceptor molecule, acceptor atom, score
      L1  H     6    34       P1  7948  0.91
      L1  H     9    35       P1  7948  0.94

> <Gold.Chemscore.Hbond.Weighted>
-6.5336

> <Gold.Chemscore.Metal.Weighted>
-0.0000

> <Gold.Chemscore.Lipo.Weighted>
-8.8117

> <Gold.Chemscore.Internal_Hbond.Weighted>
0.0000

> <Gold.Chemscore.DEClash.Weighted>
0.8176

> <Gold.Chemscore.DEInternal.Weighted>
1.9776

> <Gold.Chemscore.Rot.Weighted>
4.2851

> <Gold.Chemscore.Internal.Correction.Weighted>
   9.000000E+99

> <Gold.Protein.RotatedTorsions>
[ 6907 6896 6895 6894 ] final -101.05 input  -60.11 | X-H torsion
[ 7974 7965 7964 7962 ] final   58.82 input  175.53 | X-H torsion
[ 8008 7997 7996 7995 ] final -177.41 input   59.86 | X-H torsion
[ 10167 10162 10161 10158 ] final  -91.30 input  -65.29 | X-H torsion
[ 10718 10713 10712 10709 ] final  -54.96 input   66.30 | X-H torsion
[ 10763 10752 10751 10750 ] final -176.11 input  -60.55 | X-H torsion
[ 11005 11000 10999 10996 ] final   56.23 input  -57.11 | X-H torsion

> <Gold.Protein.ActiveResidues>
 VAL166  LYS551  ARG553  GLY616  TRP617  ASP618  TYR619  PRO620  LYS621  CYS622 
 ASP623  PHE694  ASN695  SER759  ASP760  ASP761  ALA762  ILE779  LEU786  VAL792 
 PHE793  MET794  SER795  GLU796  ALA797  LYS798  CYS799  TRP800  GLU811  SER814 

> <Gold.Protein.RotatedAtoms>
  150.7139  134.0794  159.3892 H   0  0  0  0  0  0  0  0  0  0  0  0  # atno 6907 bound_to 6896
  151.8777  135.0463  160.0495 H   0  0  0  0  0  0  0  0  0  0  0  0  # atno 6908 bound_to 6896
  152.2592  133.5247  159.5408 H   0  0  0  0  0  0  0  0  0  0  0  0  # atno 6909 bound_to 6896
  145.9139  139.3676  143.0519 H   0  0  0  0  0  0  0  0  0  0  0  0  # atno 7974 bound_to 7965
  156.0066  140.1232  157.0495 H   0  0  0  0  0  0  0  0  0  0  0  0  # atno 8008 bound_to 7997
  154.4261  140.1096  156.5840 H   0  0  0  0  0  0  0  0  0  0  0  0  # atno 8009 bound_to 7997
  155.6138  140.3471  155.4633 H   0  0  0  0  0  0  0  0  0  0  0  0  # atno 8010 bound_to 7997
  140.3463  143.2915  151.9778 H   0  0  0  0  0  0  0  0  0  0  0  0  # atno 10167 bound_to 10162
  156.1407  130.4154  150.0107 H   0  0  0  0  0  0  0  0  0  0  0  0  # atno 10718 bound_to 10713
  154.5763  135.2832  155.0778 H   0  0  0  0  0  0  0  0  0  0  0  0  # atno 10763 bound_to 10752
  154.2131  135.6404  153.5125 H   0  0  0  0  0  0  0  0  0  0  0  0  # atno 10764 bound_to 10752
  153.0073  135.5496  154.6402 H   0  0  0  0  0  0  0  0  0  0  0  0  # atno 10765 bound_to 10752
  140.0545  134.5690  155.9224 H   0  0  0  0  0  0  0  0  0  0  0  0  # atno 11005 bound_to 11000
  145.8636  140.9461  143.0687 LP  0  0  0  0  0  0  0  0  0  0  0  0  # atno 17320 bound_to 7965
  144.6746  140.0562  143.7477 LP  0  0  0  0  0  0  0  0  0  0  0  0  # atno 17321 bound_to 7965
  139.4833  144.6114  151.7426 LP  0  0  0  0  0  0  0  0  0  0  0  0  # atno 17342 bound_to 10162
  140.5261  144.0803  150.6038 LP  0  0  0  0  0  0  0  0  0  0  0  0  # atno 17343 bound_to 10162
  156.7993  130.9285  151.3646 LP  0  0  0  0  0  0  0  0  0  0  0  0  # atno 17370 bound_to 10713
  157.6573  130.8936  149.9756 LP  0  0  0  0  0  0  0  0  0  0  0  0  # atno 17371 bound_to 10713
  141.1945  133.6583  156.5601 LP  0  0  0  0  0  0  0  0  0  0  0  0  # atno 17394 bound_to 11000
  140.3866  134.7477  157.4695 LP  0  0  0  0  0  0  0  0  0  0  0  0  # atno 17395 bound_to 11000

$$$$
