AV-unprocessed.smi:1326|AV-procd|sdf|5476|dock5
  -GOLD-   22720 5 43D 1   1.00000     0.00000
 Structure written by MMmdl.
 38 38  0  0  0  0  0  0  0  0  2 V2000
  148.8103  140.2528  153.7638 C   0  0  0  0  0  0  0  0  0  0  0  0
  149.6787  139.8081  154.9212 C   0  0  0  0  0  0  0  0  0  0  0  0
  149.1244  139.3855  155.9931 N   0  0  0  0  0  0  0  0  0  0  0  0
  149.9267  138.9699  157.0696 C   0  0  0  0  0  0  0  0  0  0  0  0
  149.1850  138.4792  158.3006 C   0  0  0  0  0  0  0  0  0  0  0  0
  151.2877  139.0094  156.9912 C   0  0  0  0  0  0  0  0  0  0  0  0
  152.2055  138.5659  158.1307 C   0  0  0  0  0  0  0  0  0  0  0  0
  153.0967  139.6541  158.7332 C   0  0  0  0  0  0  0  0  0  0  0  0
  154.3210  139.5269  158.7155 O   0  0  0  0  0  0  0  0  0  0  0  0
  152.4728  140.7272  159.2434 N   0  0  0  0  0  0  0  0  0  0  0  0
  153.1336  141.8916  159.8194 C   0  0  0  0  0  0  0  0  0  0  0  0
  152.1063  142.9541  160.2509 C   0  0  0  0  0  0  0  0  0  0  0  0
  152.2742  144.3177  159.5503 C   0  0  0  0  0  0  0  0  0  0  0  0
  151.4321  145.4251  160.2060 C   0  0  0  0  0  0  0  0  0  0  0  0
  151.9350  144.2034  158.0562 C   0  0  0  0  0  0  0  0  0  0  0  0
  151.8868  139.5114  155.7413 C   0  0  0  0  0  0  0  0  0  0  0  0
  153.1095  139.5876  155.6264 O   0  0  0  0  0  0  0  0  0  0  0  0
  151.0412  139.8921  154.7422 N   0  5  0  0  0  0  0  0  0  0  0  0
  147.7632  140.0015  153.9382 H   0  0  0  0  0  0  0  0  0  0  0  0
  149.1274  139.7659  152.8409 H   0  0  0  0  0  0  0  0  0  0  0  0
  148.8864  141.3321  153.6295 H   0  0  0  0  0  0  0  0  0  0  0  0
  149.4926  139.0391  159.1840 H   0  0  0  0  0  0  0  0  0  0  0  0
  149.3877  137.4217  158.4714 H   0  0  0  0  0  0  0  0  0  0  0  0
  148.1071  138.5997  158.1872 H   0  0  0  0  0  0  0  0  0  0  0  0
  151.5919  138.1457  158.9278 H   0  0  0  0  0  0  0  0  0  0  0  0
  152.8407  137.7385  157.8127 H   0  0  0  0  0  0  0  0  0  0  0  0
  151.4629  140.7430  159.2139 H   0  0  0  0  0  0  0  0  0  0  0  0
  153.7115  141.5474  160.6765 H   0  0  0  0  0  0  0  0  0  0  0  0
  153.8481  142.3118  159.1097 H   0  0  0  0  0  0  0  0  0  0  0  0
  151.1068  142.5727  160.0361 H   0  0  0  0  0  0  0  0  0  0  0  0
  152.1500  143.0890  161.3328 H   0  0  0  0  0  0  0  0  0  0  0  0
  153.3233  144.6076  159.6219 H   0  0  0  0  0  0  0  0  0  0  0  0
  150.3727  145.1675  160.2099 H   0  0  0  0  0  0  0  0  0  0  0  0
  151.5408  146.3685  159.6701 H   0  0  0  0  0  0  0  0  0  0  0  0
  151.7363  145.6062  161.2365 H   0  0  0  0  0  0  0  0  0  0  0  0
  150.8960  143.9069  157.9074 H   0  0  0  0  0  0  0  0  0  0  0  0
  152.5662  143.4630  157.5640 H   0  0  0  0  0  0  0  0  0  0  0  0
  152.0864  145.1537  157.5439 H   0  0  0  0  0  0  0  0  0  0  0  0
  1  2  1  0  0  0  0
  1 19  1  0  0  0  0
  1 20  1  0  0  0  0
  1 21  1  0  0  0  0
  2 18  1  0  0  0  0
  2  3  2  0  0  0  0
  3  4  1  0  0  0  0
  4  5  1  0  0  0  0
  4  6  2  0  0  0  0
  5 22  1  0  0  0  0
  5 23  1  0  0  0  0
  5 24  1  0  0  0  0
  6  7  1  0  0  0  0
  6 16  1  0  0  0  0
  7  8  1  0  0  0  0
  7 25  1  0  0  0  0
  7 26  1  0  0  0  0
  8  9  2  0  0  0  0
  8 10  1  0  0  0  0
 10 11  1  0  0  0  0
 10 27  1  0  0  0  0
 11 12  1  0  0  0  0
 11 28  1  0  0  0  0
 11 29  1  0  0  0  0
 12 13  1  0  0  0  0
 12 30  1  0  0  0  0
 12 31  1  0  0  0  0
 13 14  1  0  0  0  0
 13 15  1  0  0  0  0
 13 32  1  0  0  0  0
 14 33  1  0  0  0  0
 14 34  1  0  0  0  0
 14 35  1  0  0  0  0
 15 36  1  0  0  0  0
 15 37  1  0  0  0  0
 15 38  1  0  0  0  0
 16 17  2  0  0  0  0
 16 18  1  0  0  0  0
M  CHG  1  18  -1
M  END
> <s_m_source_file>
AV-unprocessed.smi

> <i_m_source_file_index>
1326

> <i_lp_mmshare_version>
43012

> <i_f3d_flags>
0

> <s_epik_input>
W0NIM11jMW5jKFtDSDNdKWMoYyg9TylbbkhdMSlbQ0gyXUMoPU8pW05IXVtDSDJdW0NIMl1bQ0hdKFtDSDNdKVtDSDNd

> <s_epik_cmdline>
J2VwaWtfcHl0aG9uJywgJy1waCcsICc3LjAnLCAnLXRuJywgJzgnLCAnLW1hJywgJzIwMCcsICctbWV0YWxfYmluZGluZycsICctaW1hZScsICc8aW5maWxlLm1hZT4nLCAnLW9tYWUnLCAnPG91dGZpbGUubWFlPic=

> <r_lp_tautomer_probability>
0.839158

> <r_epik_Ionization_Penalty>
6.68288

> <r_epik_Ionization_Penalty_Charging>
7.3825e-08

> <r_epik_Ionization_Penalty_Neutral>
6.68288

> <r_epik_State_Penalty>
4.52336

> <r_epik_Charging_Adjusted_Penalty>
4.52336

> <i_epik_Tot_Q>
-1

> <i_epik_Tot_abs_Q>
1

> <r_epik_Metal_State_Penalty>
0.854958

> <b_epik_Metal_Only>
1

> <s_lp_Force_Field>
OPLS_2005

> <r_lp_Energy>
8.11969

> <b_lp_Chiralities_Consistent>
1

> <s_lp_Variant>
AV-unprocessed.smi:1326-3

> <Gold.Version>
5.8.1

> <Gold.Id.Protein>
6NUR|6NUR_protein|mol2

> <Gold.PLP.Fitness>
44.6354

> <Gold.PLP.PLP>
-36.5126

> <Gold.PLP.part.hbond>
-2.8255

> <Gold.PLP.part.metal>
0.0000

> <Gold.PLP.part.buried>
-1.0609

> <Gold.PLP.part.nonpolar>
-32.1268

> <Gold.PLP.part.repulsive>
0.2011

> <Gold.PLP.ligand.clash>
0.0000

> <Gold.PLP.ligand.torsion>
0.4401

> <Gold.PLP.Chemscore.Hbond>
2.9920

> <Gold.PLP.Chemscore.CHOScore>
0.0000

> <Gold.PLP.Chemscore.Metal>
0.0000

> <Gold.Chemscore.Hbonds>
donor molecule, donor type, donor heavy atom, donor atom, acceptor molecule, acceptor atom, score
      P1  H  7989  7998       L1    18  1.00
      P1  H  7997  8009       L1     9  0.99
      P1  H  7997  8010       L1    17  1.00

> <Gold.PLP.Chemscore.Internal.Correction>
0.0270

> <Gold.Rescore>
     Score         DG    S(hbond)    S(metal)    S(lipo)     H(rot)  DE(clash)    DE(int)     intcor
     18.83     -19.72       2.81        0.00      81.50       1.83       0.48       0.42       ----

> <Gold.Chemscore.Fitness>
18.8275

> <Gold.Chemscore.DG>
-19.7214

> <Gold.Chemscore.ZeroCoef>
-5.4800

> <Gold.Chemscore.Hbond>
2.8117

> <Gold.Chemscore.Metal>
0.0000

> <Gold.Chemscore.Lipo>
81.5030

> <Gold.Chemscore.Internal_Hbond>
0.0000

> <Gold.Chemscore.DEClash>
0.4787

> <Gold.Chemscore.DEInternal>
0.4153

> <Gold.Chemscore.Rot>
1.8302

> <Gold.Chemscore.Internal.Correction>
   9.000000E+99

> <Gold.Chemscore.Hbonds>
donor molecule, donor type, donor heavy atom, donor atom, acceptor molecule, acceptor atom, score
      P1  H  7989  7998       L1    18  0.94
      P1  H  7997  8009       L1     9  0.93
      P1  H  7997  8010       L1    17  0.89

> <Gold.Chemscore.Hbond.Weighted>
-9.3909

> <Gold.Chemscore.Metal.Weighted>
-0.0000

> <Gold.Chemscore.Lipo.Weighted>
-9.5359

> <Gold.Chemscore.Internal_Hbond.Weighted>
0.0000

> <Gold.Chemscore.DEClash.Weighted>
0.4787

> <Gold.Chemscore.DEInternal.Weighted>
0.4153

> <Gold.Chemscore.Rot.Weighted>
4.6854

> <Gold.Chemscore.Internal.Correction.Weighted>
   9.000000E+99

> <Gold.Protein.RotatedTorsions>
[ 6907 6896 6895 6894 ] final  -53.53 input  -60.11 | X-H torsion
[ 7974 7965 7964 7962 ] final  167.45 input  175.53 | X-H torsion
[ 8008 7997 7996 7995 ] final  110.95 input   59.86 | X-H torsion
[ 10167 10162 10161 10158 ] final  133.42 input  -65.29 | X-H torsion
[ 10718 10713 10712 10709 ] final    2.79 input   66.30 | X-H torsion
[ 10763 10752 10751 10750 ] final -101.24 input  -60.55 | X-H torsion
[ 11005 11000 10999 10996 ] final   65.86 input  -57.11 | X-H torsion

> <Gold.Protein.ActiveResidues>
 VAL166  LYS551  ARG553  GLY616  TRP617  ASP618  TYR619  PRO620  LYS621  CYS622 
 ASP623  PHE694  ASN695  SER759  ASP760  ASP761  ALA762  ILE779  LEU786  VAL792 
 PHE793  MET794  SER795  GLU796  ALA797  LYS798  CYS799  TRP800  GLU811  SER814 

> <Gold.Protein.RotatedAtoms>
  150.8419  134.7714  159.6938 H   0  0  0  0  0  0  0  0  0  0  0  0  # atno 6907 bound_to 6896
  152.4504  134.5402  159.9846 H   0  0  0  0  0  0  0  0  0  0  0  0  # atno 6908 bound_to 6896
  151.5540  133.3375  159.2994 H   0  0  0  0  0  0  0  0  0  0  0  0  # atno 6909 bound_to 6896
  144.7424  139.8763  143.6393 H   0  0  0  0  0  0  0  0  0  0  0  0  # atno 7974 bound_to 7965
  156.2089  140.3029  155.9689 H   0  0  0  0  0  0  0  0  0  0  0  0  # atno 8008 bound_to 7997
  155.2772  140.0436  157.3029 H   0  0  0  0  0  0  0  0  0  0  0  0  # atno 8009 bound_to 7997
  154.5672  140.2337  155.8254 H   0  0  0  0  0  0  0  0  0  0  0  0  # atno 8010 bound_to 7997
  139.5298  144.6616  151.4993 H   0  0  0  0  0  0  0  0  0  0  0  0  # atno 10167 bound_to 10162
  156.8682  130.5610  149.5659 H   0  0  0  0  0  0  0  0  0  0  0  0  # atno 10718 bound_to 10713
  154.7642  135.4905  153.9522 H   0  0  0  0  0  0  0  0  0  0  0  0  # atno 10763 bound_to 10752
  153.1288  135.6748  153.9220 H   0  0  0  0  0  0  0  0  0  0  0  0  # atno 10764 bound_to 10752
  153.8930  135.3118  155.3426 H   0  0  0  0  0  0  0  0  0  0  0  0  # atno 10765 bound_to 10752
  139.9868  134.6656  156.0162 H   0  0  0  0  0  0  0  0  0  0  0  0  # atno 11005 bound_to 11000
  146.1244  139.4267  143.0208 LP  0  0  0  0  0  0  0  0  0  0  0  0  # atno 17320 bound_to 7965
  145.7257  141.0060  143.1378 LP  0  0  0  0  0  0  0  0  0  0  0  0  # atno 17321 bound_to 7965
  140.6467  143.8779  150.6745 LP  0  0  0  0  0  0  0  0  0  0  0  0  # atno 17342 bound_to 10162
  140.2131  143.3868  152.1702 LP  0  0  0  0  0  0  0  0  0  0  0  0  # atno 17343 bound_to 10162
  156.0741  130.5767  150.9439 LP  0  0  0  0  0  0  0  0  0  0  0  0  # atno 17370 bound_to 10713
  157.6211  131.0929  150.8620 LP  0  0  0  0  0  0  0  0  0  0  0  0  # atno 17371 bound_to 10713
  141.1531  133.6546  156.4076 LP  0  0  0  0  0  0  0  0  0  0  0  0  # atno 17394 bound_to 11000
  140.4987  134.6506  157.5240 LP  0  0  0  0  0  0  0  0  0  0  0  0  # atno 17395 bound_to 11000

$$$$
