AV-unprocessed.smi:338|AV-procd|sdf|2376|dock1
  -GOLD-   2262022293D 1   1.00000     0.00000
 Structure written by MMmdl.
 42 44  0  0  0  0  0  0  0  0  2 V2000
  152.0276  130.3892  155.9408 C   0  0  0  0  0  0  0  0  0  0  0  0
  152.1926  131.7283  156.6583 C   0  0  0  0  0  0  0  0  0  0  0  0
  152.8422  131.7611  157.7031 O   0  0  0  0  0  0  0  0  0  0  0  0
  151.5534  132.9294  156.0474 C   0  0  0  0  0  0  0  0  0  0  0  0
  150.4884  132.8133  155.1238 C   0  0  0  0  0  0  0  0  0  0  0  0
  149.9060  133.9645  154.5632 C   0  0  0  0  0  0  0  0  0  0  0  0
  150.3801  135.2401  154.9176 C   0  0  0  0  0  0  0  0  0  0  0  0
  151.4383  135.3837  155.8359 C   0  0  0  0  0  0  0  0  0  0  0  0
  151.8411  136.6699  156.1256 O   0  0  0  0  0  0  0  0  0  0  0  0
  151.6569  137.6752  155.1373 C   0  0  0  0  0  0  0  0  0  0  0  0
  152.0663  139.0335  155.7257 C   0  0  2  0  0  0  0  0  0  0  0  0
  153.4519  139.0011  156.0061 O   0  0  0  0  0  0  0  0  0  0  0  0
  151.2764  139.3841  157.0026 C   0  0  0  0  0  0  0  0  0  0  0  0
  151.0645  140.8298  157.1632 N   0  0  0  0  0  0  0  0  0  0  0  0
  150.1912  141.6537  156.5230 C   0  0  0  0  0  0  0  0  0  0  0  0
  150.3679  142.9088  157.0209 N   0  3  0  0  0  0  0  0  0  0  0  0
  151.3706  142.8880  157.9926 C   0  0  0  0  0  0  0  0  0  0  0  0
  151.9014  143.9093  158.7747 C   0  0  0  0  0  0  0  0  0  0  0  0
  152.9265  143.5501  159.6742 C   0  0  0  0  0  0  0  0  0  0  0  0
  153.3865  142.2208  159.7703 C   0  0  0  0  0  0  0  0  0  0  0  0
  152.8401  141.1932  158.9735 C   0  0  0  0  0  0  0  0  0  0  0  0
  151.8251  141.5555  158.0879 C   0  0  0  0  0  0  0  0  0  0  0  0
  152.0196  134.2186  156.3978 C   0  0  0  0  0  0  0  0  0  0  0  0
  152.4338  130.4433  154.9306 H   0  0  0  0  0  0  0  0  0  0  0  0
  150.9744  130.1140  155.8833 H   0  0  0  0  0  0  0  0  0  0  0  0
  152.5558  129.6012  156.4781 H   0  0  0  0  0  0  0  0  0  0  0  0
  150.1001  131.8497  154.8297 H   0  0  0  0  0  0  0  0  0  0  0  0
  149.0927  133.8687  153.8590 H   0  0  0  0  0  0  0  0  0  0  0  0
  149.9264  136.1176  154.4804 H   0  0  0  0  0  0  0  0  0  0  0  0
  152.2519  137.4569  154.2486 H   0  0  0  0  0  0  0  0  0  0  0  0
  150.6061  137.7062  154.8438 H   0  0  0  0  0  0  0  0  0  0  0  0
  151.9031  139.8081  154.9752 H   0  0  0  0  0  0  0  0  0  0  0  0
  153.6433  138.2072  156.4818 H   0  0  0  0  0  0  0  0  0  0  0  0
  150.2890  138.9220  156.9671 H   0  0  0  0  0  0  0  0  0  0  0  0
  151.7643  138.9874  157.8930 H   0  0  0  0  0  0  0  0  0  0  0  0
  149.4846  141.3632  155.7589 H   0  0  0  0  0  0  0  0  0  0  0  0
  151.5519  144.9287  158.7015 H   0  0  0  0  0  0  0  0  0  0  0  0
  153.3700  144.3098  160.3015 H   0  0  0  0  0  0  0  0  0  0  0  0
  154.1760  141.9836  160.4686 H   0  0  0  0  0  0  0  0  0  0  0  0
  153.2052  140.1798  159.0518 H   0  0  0  0  0  0  0  0  0  0  0  0
  152.8325  134.3009  157.1034 H   0  0  0  0  0  0  0  0  0  0  0  0
  149.8419  143.7183  156.7174 H   0  0  0  0  0  0  0  0  0  0  0  0
  1  2  1  0  0  0  0
  1 24  1  0  0  0  0
  1 25  1  0  0  0  0
  1 26  1  0  0  0  0
  2  3  2  0  0  0  0
  2  4  1  0  0  0  0
  4 23  1  0  0  0  0
  4  5  2  0  0  0  0
  5  6  1  0  0  0  0
  5 27  1  0  0  0  0
  6  7  2  0  0  0  0
  6 28  1  0  0  0  0
  7  8  1  0  0  0  0
  7 29  1  0  0  0  0
  8  9  1  0  0  0  0
  8 23  2  0  0  0  0
  9 10  1  0  0  0  0
 10 11  1  0  0  0  0
 10 30  1  0  0  0  0
 10 31  1  0  0  0  0
 11 12  1  0  0  0  0
 11 13  1  0  0  0  0
 11 32  1  0  0  0  0
 12 33  1  0  0  0  0
 13 14  1  0  0  0  0
 13 34  1  0  0  0  0
 13 35  1  0  0  0  0
 14 22  1  0  0  0  0
 14 15  1  0  0  0  0
 15 16  2  0  0  0  0
 15 36  1  0  0  0  0
 16 17  1  0  0  0  0
 16 42  1  0  0  0  0
 17 22  2  0  0  0  0
 17 18  1  0  0  0  0
 18 19  2  0  0  0  0
 18 37  1  0  0  0  0
 19 20  1  0  0  0  0
 19 38  1  0  0  0  0
 20 21  2  0  0  0  0
 20 39  1  0  0  0  0
 21 22  1  0  0  0  0
 21 40  1  0  0  0  0
 23 41  1  0  0  0  0
M  CHG  1  16   1
M  END
> <s_m_source_file>
AV-unprocessed.smi

> <i_m_source_file_index>
338

> <i_lp_mmshare_version>
43012

> <i_f3d_flags>
0

> <s_epik_input>
W0NIM11DKD1PKWMxW2NIXVtjSF1bY0hdYyhbY0hdMSlPW0NIMl1bQ0BIXShbT0hdKVtDSDJdbihbY0hdbjIpYyhjMjMpW2NIXVtjSF1bY0hdW2NIXTM=

> <s_epik_cmdline>
J2VwaWtfcHl0aG9uJywgJy1waCcsICc3LjAnLCAnLXRuJywgJzgnLCAnLW1hJywgJzIwMCcsICctbWV0YWxfYmluZGluZycsICctaW1hZScsICc8aW5maWxlLm1hZT4nLCAnLW9tYWUnLCAnPG91dGZpbGUubWFlPic=

> <r_lp_tautomer_probability>
0.99995

> <r_epik_Ionization_Penalty>
1.35015

> <r_epik_Ionization_Penalty_Charging>
1.35015

> <r_epik_Ionization_Penalty_Neutral>
2.3993e-06

> <r_epik_State_Penalty>
1.42814

> <r_epik_Charging_Adjusted_Penalty>
2.77829

> <i_epik_Tot_Q>
1

> <i_epik_Tot_abs_Q>
1

> <r_epik_Metal_State_Penalty>
5.46522

> <b_epik_Metal_Only>
0

> <s_lp_Force_Field>
OPLS_2005

> <r_lp_Energy>
26.3487

> <b_lp_Chiralities_Consistent>
1

> <s_lp_Variant>
AV-unprocessed.smi:338-3

> <Gold.Version>
5.8.1

> <Gold.Id.Protein>
6NUR|6NUR_protein|mol2

> <Gold.PLP.Fitness>
56.1177

> <Gold.PLP.PLP>
-46.4031

> <Gold.PLP.part.hbond>
-3.0063

> <Gold.PLP.part.metal>
0.0000

> <Gold.PLP.part.buried>
-4.1641

> <Gold.PLP.part.nonpolar>
-40.2767

> <Gold.PLP.part.repulsive>
0.0775

> <Gold.PLP.ligand.clash>
0.0000

> <Gold.PLP.ligand.torsion>
1.1754

> <Gold.PLP.Chemscore.Hbond>
3.9840

> <Gold.PLP.Chemscore.CHOScore>
0.0000

> <Gold.PLP.Chemscore.Metal>
0.0000

> <Gold.Chemscore.Hbonds>
donor molecule, donor type, donor heavy atom, donor atom, acceptor molecule, acceptor atom, score
      L1  H    16    42       P1  8028  2.00
      P1  H  7997  8008       L1    12  0.81

> <Gold.PLP.Chemscore.Internal.Correction>
0.1133

> <Gold.Rescore>
     Score         DG    S(hbond)    S(metal)    S(lipo)     H(rot)  DE(clash)    DE(int)     intcor
     21.57     -22.83       2.89        0.00     120.18       2.48       0.08       1.17       ----

> <Gold.Chemscore.Fitness>
21.5749

> <Gold.Chemscore.DG>
-22.8305

> <Gold.Chemscore.ZeroCoef>
-5.4800

> <Gold.Chemscore.Hbond>
2.8887

> <Gold.Chemscore.Metal>
0.0000

> <Gold.Chemscore.Lipo>
120.1844

> <Gold.Chemscore.Internal_Hbond>
0.0000

> <Gold.Chemscore.DEClash>
0.0829

> <Gold.Chemscore.DEInternal>
1.1727

> <Gold.Chemscore.Rot>
2.4842

> <Gold.Chemscore.Internal.Correction>
   9.000000E+99

> <Gold.Chemscore.Hbonds>
donor molecule, donor type, donor heavy atom, donor atom, acceptor molecule, acceptor atom, score
      L1  H    16    42       P1  8028  0.99
      P1  H  6896  6909       L1     3  0.01
      P1  H  7997  8008       L1    12  0.57

> <Gold.Chemscore.Hbond.Weighted>
-9.6484

> <Gold.Chemscore.Metal.Weighted>
-0.0000

> <Gold.Chemscore.Lipo.Weighted>
-14.0616

> <Gold.Chemscore.Internal_Hbond.Weighted>
0.0000

> <Gold.Chemscore.DEClash.Weighted>
0.0829

> <Gold.Chemscore.DEInternal.Weighted>
1.1727

> <Gold.Chemscore.Rot.Weighted>
6.3594

> <Gold.Chemscore.Internal.Correction.Weighted>
   9.000000E+99

> <Gold.Protein.RotatedTorsions>
[ 6907 6896 6895 6894 ] final  -58.58 input  -60.11 | X-H torsion
[ 7974 7965 7964 7962 ] final  116.85 input  175.53 | X-H torsion
[ 8008 7997 7996 7995 ] final  -49.76 input   59.86 | X-H torsion
[ 10167 10162 10161 10158 ] final   -7.50 input  -65.29 | X-H torsion
[ 10718 10713 10712 10709 ] final   71.44 input   66.30 | X-H torsion
[ 10763 10752 10751 10750 ] final -179.33 input  -60.55 | X-H torsion
[ 11005 11000 10999 10996 ] final -142.80 input  -57.11 | X-H torsion

> <Gold.Protein.ActiveResidues>
 VAL166  LYS551  ARG553  GLY616  TRP617  ASP618  TYR619  PRO620  LYS621  CYS622 
 ASP623  PHE694  ASN695  SER759  ASP760  ASP761  ALA762  ILE779  LEU786  VAL792 
 PHE793  MET794  SER795  GLU796  ALA797  LYS798  CYS799  TRP800  GLU811  SER814 

> <Gold.Protein.RotatedAtoms>
  150.7996  134.7080  159.6587 H   0  0  0  0  0  0  0  0  0  0  0  0  # atno 6907 bound_to 6896
  152.4112  134.6118  160.0037 H   0  0  0  0  0  0  0  0  0  0  0  0  # atno 6908 bound_to 6896
  151.6360  133.3292  159.3155 H   0  0  0  0  0  0  0  0  0  0  0  0  # atno 6909 bound_to 6896
  145.1746  139.3083  143.4450 H   0  0  0  0  0  0  0  0  0  0  0  0  # atno 7974 bound_to 7965
  154.4049  140.1289  156.4555 H   0  0  0  0  0  0  0  0  0  0  0  0  # atno 8008 bound_to 7997
  155.7324  140.3491  155.5046 H   0  0  0  0  0  0  0  0  0  0  0  0  # atno 8009 bound_to 7997
  155.9115  140.1036  157.1266 H   0  0  0  0  0  0  0  0  0  0  0  0  # atno 8010 bound_to 7997
  140.7031  143.6074  150.8737 H   0  0  0  0  0  0  0  0  0  0  0  0  # atno 10167 bound_to 10162
  157.6451  130.9528  150.0789 H   0  0  0  0  0  0  0  0  0  0  0  0  # atno 10718 bound_to 10713
  154.5365  135.2803  155.1134 H   0  0  0  0  0  0  0  0  0  0  0  0  # atno 10763 bound_to 10752
  154.2634  135.6317  153.5286 H   0  0  0  0  0  0  0  0  0  0  0  0  # atno 10764 bound_to 10752
  152.9969  135.5611  154.5892 H   0  0  0  0  0  0  0  0  0  0  0  0  # atno 10765 bound_to 10752
  140.8189  134.2655  157.4909 H   0  0  0  0  0  0  0  0  0  0  0  0  # atno 11005 bound_to 11000
  146.3463  140.1904  142.8589 LP  0  0  0  0  0  0  0  0  0  0  0  0  # atno 17320 bound_to 7965
  145.0198  140.8784  143.5174 LP  0  0  0  0  0  0  0  0  0  0  0  0  # atno 17321 bound_to 7965
  139.9797  143.5964  152.2947 LP  0  0  0  0  0  0  0  0  0  0  0  0  # atno 17342 bound_to 10162
  139.6581  144.7662  151.2016 LP  0  0  0  0  0  0  0  0  0  0  0  0  # atno 17343 bound_to 10162
  156.1771  130.3648  149.9085 LP  0  0  0  0  0  0  0  0  0  0  0  0  # atno 17370 bound_to 10713
  156.7046  130.8946  151.3603 LP  0  0  0  0  0  0  0  0  0  0  0  0  # atno 17371 bound_to 10713
  139.8709  134.9524  156.4114 LP  0  0  0  0  0  0  0  0  0  0  0  0  # atno 17394 bound_to 11000
  140.9120  133.7705  155.9803 LP  0  0  0  0  0  0  0  0  0  0  0  0  # atno 17395 bound_to 11000

$$$$
