AV-unprocessed.smi:3028|AV-procd|sdf|11520|dock2
  -GOLD-   2272016453D 1   1.00000     0.00000
 Structure written by MMmdl.
 48 49  0  0  0  0  0  0  0  0  2 V2000
  151.1419  141.1008  158.5540 C   0  0  0  0  0  0  0  0  0  0  0  0
  151.0622  140.5941  157.1428 C   0  0  0  0  0  0  0  0  0  0  0  0
  151.8523  140.9890  156.0262 C   0  0  0  0  0  0  0  0  0  0  0  0
  151.5295  140.3466  154.9158 N   0  0  0  0  0  0  0  0  0  0  0  0
  150.5248  139.5194  155.2808 N   0  0  0  0  0  0  0  0  0  0  0  0
  149.9019  138.6422  154.2975 C   0  0  1  0  0  0  0  0  0  0  0  0
  150.0361  137.1731  154.7438 C   0  0  0  0  0  0  0  0  0  0  0  0
  148.4314  139.0392  153.9985 C   0  0  1  0  0  0  0  0  0  0  0  0
  148.1828  140.5581  154.1085 C   0  0  0  0  0  0  0  0  0  0  0  0
  148.0509  138.5609  152.6501 N   0  3  0  0  0  0  0  0  0  0  0  0
  146.6266  138.7363  152.2920 C   0  0  0  0  0  0  0  0  0  0  0  0
  145.8185  137.4462  152.4899 C   0  0  0  0  0  0  0  0  0  0  0  0
  144.7027  137.4919  153.0060 O   0  0  0  0  0  0  0  0  0  0  0  0
  146.3433  136.2746  152.0932 N   0  0  0  0  0  0  0  0  0  0  0  0
  145.7426  134.9457  152.1909 C   0  0  0  0  0  0  0  0  0  0  0  0
  146.7001  133.9038  151.5928 C   0  0  0  0  0  0  0  0  0  0  0  0
  146.0358  132.5182  151.5430 C   0  0  0  0  0  0  0  0  0  0  0  0
  144.8232  132.5882  150.8009 O   0  0  0  0  0  0  0  0  0  0  0  0
  143.8606  133.4553  151.3904 C   0  0  0  0  0  0  0  0  0  0  0  0
  144.4037  134.8933  151.4348 C   0  0  0  0  0  0  0  0  0  0  0  0
  150.2225  139.6517  156.6204 C   0  0  0  0  0  0  0  0  0  0  0  0
  151.6614  142.0575  158.6122 H   0  0  0  0  0  0  0  0  0  0  0  0
  151.6766  140.4048  159.2006 H   0  0  0  0  0  0  0  0  0  0  0  0
  150.1522  141.2471  158.9870 H   0  0  0  0  0  0  0  0  0  0  0  0
  152.6464  141.7202  155.9909 H   0  0  0  0  0  0  0  0  0  0  0  0
  150.4731  138.7583  153.3749 H   0  0  0  0  0  0  0  0  0  0  0  0
  149.6946  136.4848  153.9706 H   0  0  0  0  0  0  0  0  0  0  0  0
  149.4553  136.9724  155.6448 H   0  0  0  0  0  0  0  0  0  0  0  0
  151.0758  136.9249  154.9597 H   0  0  0  0  0  0  0  0  0  0  0  0
  147.7954  138.5367  154.7296 H   0  0  0  0  0  0  0  0  0  0  0  0
  148.3860  140.9311  155.1123 H   0  0  0  0  0  0  0  0  0  0  0  0
  147.1474  140.8154  153.8871 H   0  0  0  0  0  0  0  0  0  0  0  0
  148.8164  141.1124  153.4153 H   0  0  0  0  0  0  0  0  0  0  0  0
  148.6278  139.0212  151.9605 H   0  0  0  0  0  0  0  0  0  0  0  0
  146.2033  139.5229  152.9175 H   0  0  0  0  0  0  0  0  0  0  0  0
  146.5440  139.0545  151.2535 H   0  0  0  0  0  0  0  0  0  0  0  0
  147.2626  136.3095  151.6757 H   0  0  0  0  0  0  0  0  0  0  0  0
  145.5741  134.6798  153.2350 H   0  0  0  0  0  0  0  0  0  0  0  0
  146.9857  134.1977  150.5815 H   0  0  0  0  0  0  0  0  0  0  0  0
  147.6207  133.8553  152.1756 H   0  0  0  0  0  0  0  0  0  0  0  0
  146.7018  131.8012  151.0626 H   0  0  0  0  0  0  0  0  0  0  0  0
  145.8390  132.1445  152.5490 H   0  0  0  0  0  0  0  0  0  0  0  0
  142.9459  133.4192  150.7985 H   0  0  0  0  0  0  0  0  0  0  0  0
  143.6052  133.1048  152.3917 H   0  0  0  0  0  0  0  0  0  0  0  0
  143.6701  135.5509  151.9010 H   0  0  0  0  0  0  0  0  0  0  0  0
  144.5398  135.2543  150.4142 H   0  0  0  0  0  0  0  0  0  0  0  0
  149.4421  139.0697  157.0884 H   0  0  0  0  0  0  0  0  0  0  0  0
  148.2415  137.5698  152.6097 H   0  0  0  0  0  0  0  0  0  0  0  0
  1  2  1  0  0  0  0
  1 22  1  0  0  0  0
  1 23  1  0  0  0  0
  1 24  1  0  0  0  0
  2 21  2  0  0  0  0
  2  3  1  0  0  0  0
  3  4  2  0  0  0  0
  3 25  1  0  0  0  0
  4  5  1  0  0  0  0
  5  6  1  0  0  0  0
  5 21  1  0  0  0  0
  6  7  1  0  0  0  0
  6  8  1  0  0  0  0
  6 26  1  0  0  0  0
  7 27  1  0  0  0  0
  7 28  1  0  0  0  0
  7 29  1  0  0  0  0
  8  9  1  0  0  0  0
  8 10  1  0  0  0  0
  8 30  1  0  0  0  0
  9 31  1  0  0  0  0
  9 32  1  0  0  0  0
  9 33  1  0  0  0  0
 10 11  1  0  0  0  0
 10 34  1  0  0  0  0
 10 48  1  0  0  0  0
 11 12  1  0  0  0  0
 11 35  1  0  0  0  0
 11 36  1  0  0  0  0
 12 13  2  0  0  0  0
 12 14  1  0  0  0  0
 14 15  1  0  0  0  0
 14 37  1  0  0  0  0
 15 20  1  0  0  0  0
 15 16  1  0  0  0  0
 15 38  1  0  0  0  0
 16 17  1  0  0  0  0
 16 39  1  0  0  0  0
 16 40  1  0  0  0  0
 17 18  1  0  0  0  0
 17 41  1  0  0  0  0
 17 42  1  0  0  0  0
 18 19  1  0  0  0  0
 19 20  1  0  0  0  0
 19 43  1  0  0  0  0
 19 44  1  0  0  0  0
 20 45  1  0  0  0  0
 20 46  1  0  0  0  0
 21 47  1  0  0  0  0
M  CHG  1  10   1
M  END
> <s_m_source_file>
AV-unprocessed.smi

> <i_m_source_file_index>
3028

> <i_lp_mmshare_version>
43012

> <i_f3d_flags>
0

> <s_epik_input>
W0NIM11jMVtjSF1ubihbY0hdMSlbQ0BIXShbQ0gzXSlbQ0BIXShbQ0gzXSlbTkhdW0NIMl1DKD1PKVtOSF1bQ0hdMltDSDJdW0NIMl1PW0NIMl1bQ0gyXTI=

> <s_epik_cmdline>
J2VwaWtfcHl0aG9uJywgJy1waCcsICc3LjAnLCAnLXRuJywgJzgnLCAnLW1hJywgJzIwMCcsICctbWV0YWxfYmluZGluZycsICctaW1hZScsICc8aW5maWxlLm1hZT4nLCAnLW9tYWUnLCAnPG91dGZpbGUubWFlPic=

> <r_lp_tautomer_probability>
1

> <r_epik_Ionization_Penalty>
0.151514

> <r_epik_Ionization_Penalty_Charging>
0.151494

> <r_epik_Ionization_Penalty_Neutral>
1.95502e-05

> <r_epik_State_Penalty>
0.141395

> <r_epik_Charging_Adjusted_Penalty>
0.292889

> <i_epik_Tot_Q>
1

> <i_epik_Tot_abs_Q>
1

> <r_epik_Metal_State_Penalty>
0.141632

> <b_epik_Metal_Only>
0

> <s_lp_Force_Field>
OPLS_2005

> <r_lp_Energy>
16.118

> <b_lp_Chiralities_Consistent>
1

> <s_lp_Variant>
AV-unprocessed.smi:3028-4

> <Gold.Version>
5.8.1

> <Gold.Id.Protein>
6NUR|6NUR_protein|mol2

> <Gold.PLP.Fitness>
49.1194

> <Gold.PLP.PLP>
-35.9801

> <Gold.PLP.part.hbond>
-3.7516

> <Gold.PLP.part.metal>
0.0000

> <Gold.PLP.part.buried>
-4.4774

> <Gold.PLP.part.nonpolar>
-27.9808

> <Gold.PLP.part.repulsive>
0.5247

> <Gold.PLP.ligand.clash>
0.0000

> <Gold.PLP.ligand.torsion>
1.0848

> <Gold.PLP.Chemscore.Hbond>
4.9920

> <Gold.PLP.Chemscore.CHOScore>
0.0000

> <Gold.PLP.Chemscore.Metal>
0.0000

> <Gold.Chemscore.Hbonds>
donor molecule, donor type, donor heavy atom, donor atom, acceptor molecule, acceptor atom, score
      L1  H    10    34       P1  7957  1.00
      L1  H    10    48       P1  7948  1.98
      L1  H    14    37       P1  7948  1.00
      P1  H  7989  7998       L1     4  0.92

> <Gold.PLP.Chemscore.Internal.Correction>
0.3329

> <Gold.Rescore>
     Score         DG    S(hbond)    S(metal)    S(lipo)     H(rot)  DE(clash)    DE(int)     intcor
     21.00     -22.17       3.64        0.00      82.20       1.99       0.18       1.00       ----

> <Gold.Chemscore.Fitness>
20.9966

> <Gold.Chemscore.DG>
-22.1712

> <Gold.Chemscore.ZeroCoef>
-5.4800

> <Gold.Chemscore.Hbond>
3.6428

> <Gold.Chemscore.Metal>
0.0000

> <Gold.Chemscore.Lipo>
82.2040

> <Gold.Chemscore.Internal_Hbond>
0.0000

> <Gold.Chemscore.DEClash>
0.1761

> <Gold.Chemscore.DEInternal>
0.9984

> <Gold.Chemscore.Rot>
1.9897

> <Gold.Chemscore.Internal.Correction>
   9.000000E+99

> <Gold.Chemscore.Hbonds>
donor molecule, donor type, donor heavy atom, donor atom, acceptor molecule, acceptor atom, score
      L1  H    10    34       P1  7957  0.93
      L1  H    10    48       P1  7948  0.93
      L1  H    14    37       P1  7948  0.95
      P1  H  7989  7998       L1     4  0.83

> <Gold.Chemscore.Hbond.Weighted>
-12.1669

> <Gold.Chemscore.Metal.Weighted>
-0.0000

> <Gold.Chemscore.Lipo.Weighted>
-9.6179

> <Gold.Chemscore.Internal_Hbond.Weighted>
0.0000

> <Gold.Chemscore.DEClash.Weighted>
0.1761

> <Gold.Chemscore.DEInternal.Weighted>
0.9984

> <Gold.Chemscore.Rot.Weighted>
5.0936

> <Gold.Chemscore.Internal.Correction.Weighted>
   9.000000E+99

> <Gold.Protein.RotatedTorsions>
[ 6907 6896 6895 6894 ] final -105.34 input  -60.11 | X-H torsion
[ 7974 7965 7964 7962 ] final -101.16 input  175.53 | X-H torsion
[ 8008 7997 7996 7995 ] final   71.35 input   59.86 | X-H torsion
[ 10167 10162 10161 10158 ] final -137.33 input  -65.29 | X-H torsion
[ 10718 10713 10712 10709 ] final -168.47 input   66.30 | X-H torsion
[ 10763 10752 10751 10750 ] final   65.39 input  -60.55 | X-H torsion
[ 11005 11000 10999 10996 ] final  -36.95 input  -57.11 | X-H torsion

> <Gold.Protein.ActiveResidues>
 VAL166  LYS551  ARG553  GLY616  TRP617  ASP618  TYR619  PRO620  LYS621  CYS622 
 ASP623  PHE694  ASN695  SER759  ASP760  ASP761  ALA762  ILE779  LEU786  VAL792 
 PHE793  MET794  SER795  GLU796  ALA797  LYS798  CYS799  TRP800  GLU811  SER814 

> <Gold.Protein.RotatedAtoms>
  150.7332  134.0141  159.3679 H   0  0  0  0  0  0  0  0  0  0  0  0  # atno 6907 bound_to 6896
  151.8103  135.0681  160.0421 H   0  0  0  0  0  0  0  0  0  0  0  0  # atno 6908 bound_to 6896
  152.3078  133.5684  159.5697 H   0  0  0  0  0  0  0  0  0  0  0  0  # atno 6909 bound_to 6896
  145.2852  140.9337  143.2909 H   0  0  0  0  0  0  0  0  0  0  0  0  # atno 7974 bound_to 7965
  155.7526  140.3488  155.5158 H   0  0  0  0  0  0  0  0  0  0  0  0  # atno 8008 bound_to 7997
  155.8990  140.1031  157.1384 H   0  0  0  0  0  0  0  0  0  0  0  0  # atno 8009 bound_to 7997
  154.4042  140.1289  156.4399 H   0  0  0  0  0  0  0  0  0  0  0  0  # atno 8010 bound_to 7997
  139.8588  143.7103  152.2652 H   0  0  0  0  0  0  0  0  0  0  0  0  # atno 10167 bound_to 10162
  156.6974  130.9183  151.3076 H   0  0  0  0  0  0  0  0  0  0  0  0  # atno 10718 bound_to 10713
  153.0094  135.5358  154.6659 H   0  0  0  0  0  0  0  0  0  0  0  0  # atno 10763 bound_to 10752
  154.5856  135.2854  155.0690 H   0  0  0  0  0  0  0  0  0  0  0  0  # atno 10764 bound_to 10752
  154.1803  135.6517  153.5085 H   0  0  0  0  0  0  0  0  0  0  0  0  # atno 10765 bound_to 10752
  140.9914  133.7003  156.1858 H   0  0  0  0  0  0  0  0  0  0  0  0  # atno 11005 bound_to 11000
  144.9220  139.4401  143.6537 LP  0  0  0  0  0  0  0  0  0  0  0  0  # atno 17320 bound_to 7965
  146.3203  139.8085  142.8951 LP  0  0  0  0  0  0  0  0  0  0  0  0  # atno 17321 bound_to 7965
  139.7394  144.7563  151.0677 LP  0  0  0  0  0  0  0  0  0  0  0  0  # atno 17342 bound_to 10162
  140.7778  143.4991  150.9794 LP  0  0  0  0  0  0  0  0  0  0  0  0  # atno 17343 bound_to 10162
  157.6986  130.9308  150.0718 LP  0  0  0  0  0  0  0  0  0  0  0  0  # atno 17370 bound_to 10713
  156.1754  130.3648  149.9108 LP  0  0  0  0  0  0  0  0  0  0  0  0  # atno 17371 bound_to 10713
  140.7033  134.4540  157.5585 LP  0  0  0  0  0  0  0  0  0  0  0  0  # atno 17394 bound_to 11000
  139.8994  134.8591  156.1961 LP  0  0  0  0  0  0  0  0  0  0  0  0  # atno 17395 bound_to 11000

$$$$
