AV-unprocessed.smi:1196|AV-procd|sdf|5006|dock3
  -GOLD-   22720 4 13D 1   1.00000     0.00000
 Structure written by MMmdl.
 36 37  0  0  0  0  0  0  0  0  2 V2000
  150.8793  140.4606  156.2071 C   0  0  0  0  0  0  0  0  0  0  0  0
  150.2458  141.8245  156.5124 C   0  0  2  0  0  0  0  0  0  0  0  0
  150.1435  142.0684  158.0334 C   0  0  0  0  0  0  0  0  0  0  0  0
  151.1737  142.9656  158.5277 N   0  0  0  0  0  0  0  0  0  0  0  0
  151.4187  144.2728  158.1633 C   0  0  0  0  0  0  0  0  0  0  0  0
  152.4738  144.7118  158.9106 C   0  0  0  0  0  0  0  0  0  0  0  0
  152.8112  143.5862  159.7131 C   0  0  0  0  0  0  0  0  0  0  0  0
  152.0359  142.5405  159.4767 N   0  0  0  0  0  0  0  0  0  0  0  0
  148.9268  141.8862  155.8834 N   0  0  0  0  0  0  0  0  0  0  0  0
  148.6617  141.6312  154.5920 C   0  0  0  0  0  0  0  0  0  0  0  0
  149.5159  141.2742  153.7803 O   0  0  0  0  0  0  0  0  0  0  0  0
  147.2105  141.8137  154.1466 C   0  0  0  0  0  0  0  0  0  0  0  0
  146.2535  140.8739  154.9023 C   0  0  0  0  0  0  0  0  0  0  0  0
  146.2431  139.4422  154.3312 C   0  0  1  0  0  0  0  0  0  0  0  0
  145.9481  139.4438  152.9144 N   0  0  0  0  0  0  0  0  0  0  0  0
  146.9181  138.8573  152.2158 C   0  0  0  0  0  0  0  0  0  0  0  0
  146.8497  138.7308  150.9952 O   0  0  0  0  0  0  0  0  0  0  0  0
  147.9103  138.4651  153.0383 N   0  5  0  0  0  0  0  0  0  0  0  0
  147.6183  138.7750  154.3200 C   0  0  0  0  0  0  0  0  0  0  0  0
  148.2637  138.5885  155.3505 O   0  0  0  0  0  0  0  0  0  0  0  0
  151.8808  140.3896  156.6320 H   0  0  0  0  0  0  0  0  0  0  0  0
  150.9667  140.2991  155.1322 H   0  0  0  0  0  0  0  0  0  0  0  0
  150.2845  139.6446  156.6197 H   0  0  0  0  0  0  0  0  0  0  0  0
  150.8985  142.5858  156.0813 H   0  0  0  0  0  0  0  0  0  0  0  0
  149.1625  142.4707  158.2928 H   0  0  0  0  0  0  0  0  0  0  0  0
  150.2420  141.1236  158.5694 H   0  0  0  0  0  0  0  0  0  0  0  0
  150.8239  144.7776  157.4163 H   0  0  0  0  0  0  0  0  0  0  0  0
  152.9322  145.6892  158.8905 H   0  0  0  0  0  0  0  0  0  0  0  0
  153.5922  143.4974  160.4537 H   0  0  0  0  0  0  0  0  0  0  0  0
  148.1588  142.1783  156.4701 H   0  0  0  0  0  0  0  0  0  0  0  0
  146.9265  142.8520  154.3213 H   0  0  0  0  0  0  0  0  0  0  0  0
  147.1314  141.6459  153.0716 H   0  0  0  0  0  0  0  0  0  0  0  0
  146.5161  140.8508  155.9618 H   0  0  0  0  0  0  0  0  0  0  0  0
  145.2414  141.2786  154.8513 H   0  0  0  0  0  0  0  0  0  0  0  0
  145.5321  138.8078  154.8623 H   0  0  0  0  0  0  0  0  0  0  0  0
  145.0980  139.8196  152.5212 H   0  0  0  0  0  0  0  0  0  0  0  0
  1  2  1  0  0  0  0
  1 21  1  0  0  0  0
  1 22  1  0  0  0  0
  1 23  1  0  0  0  0
  2  3  1  0  0  0  0
  2  9  1  0  0  0  0
  2 24  1  0  0  0  0
  3  4  1  0  0  0  0
  3 25  1  0  0  0  0
  3 26  1  0  0  0  0
  4  8  1  0  0  0  0
  4  5  1  0  0  0  0
  5  6  2  0  0  0  0
  5 27  1  0  0  0  0
  6  7  1  0  0  0  0
  6 28  1  0  0  0  0
  7  8  2  0  0  0  0
  7 29  1  0  0  0  0
  9 10  1  0  0  0  0
  9 30  1  0  0  0  0
 10 11  2  0  0  0  0
 10 12  1  0  0  0  0
 12 13  1  0  0  0  0
 12 31  1  0  0  0  0
 12 32  1  0  0  0  0
 13 14  1  0  0  0  0
 13 33  1  0  0  0  0
 13 34  1  0  0  0  0
 14 19  1  0  0  0  0
 14 15  1  0  0  0  0
 14 35  1  0  0  0  0
 15 16  1  0  0  0  0
 15 36  1  0  0  0  0
 16 17  2  0  0  0  0
 16 18  1  0  0  0  0
 18 19  1  0  0  0  0
 19 20  2  0  0  0  0
M  CHG  1  18  -1
M  END
> <s_m_source_file>
AV-unprocessed.smi

> <i_m_source_file_index>
1196

> <i_lp_mmshare_version>
43012

> <i_f3d_flags>
0

> <s_epik_input>
bjFbY0hdW2NIXVtjSF1uMVtDSDJdW0NAQEhdKFtDSDNdKVtOSF1DKD1PKVtDSDJdW0NIMl1bQ0BASF0yW05IXUMoPU8pW05IXUMyPU8=

> <s_epik_cmdline>
J2VwaWtfcHl0aG9uJywgJy1waCcsICc3LjAnLCAnLXRuJywgJzgnLCAnLW1hJywgJzIwMCcsICctbWV0YWxfYmluZGluZycsICctaW1hZScsICc8aW5maWxlLm1hZT4nLCAnLW9tYWUnLCAnPG91dGZpbGUubWFlPic=

> <r_lp_tautomer_probability>
1

> <r_epik_Ionization_Penalty>
2.57056

> <r_epik_Ionization_Penalty_Charging>
2.57023

> <r_epik_Ionization_Penalty_Neutral>
0.000331301

> <r_epik_State_Penalty>
2.56828

> <r_epik_Charging_Adjusted_Penalty>
5.13851

> <i_epik_Tot_Q>
-1

> <i_epik_Tot_abs_Q>
1

> <r_epik_Metal_State_Penalty>
0.444883

> <b_epik_Metal_Only>
1

> <s_lp_Force_Field>
OPLS_2005

> <r_lp_Energy>
7.37265

> <b_lp_Chiralities_Consistent>
1

> <s_lp_Variant>
AV-unprocessed.smi:1196-11

> <Gold.Version>
5.8.1

> <Gold.Id.Protein>
6NUR|6NUR_protein|mol2

> <Gold.PLP.Fitness>
47.1395

> <Gold.PLP.PLP>
-36.2680

> <Gold.PLP.part.hbond>
-4.9427

> <Gold.PLP.part.metal>
0.0000

> <Gold.PLP.part.buried>
-5.4744

> <Gold.PLP.part.nonpolar>
-31.1097

> <Gold.PLP.part.repulsive>
5.3293

> <Gold.PLP.ligand.clash>
0.0000

> <Gold.PLP.ligand.torsion>
0.7572

> <Gold.PLP.Chemscore.Hbond>
3.0745

> <Gold.PLP.Chemscore.CHOScore>
1.0000

> <Gold.PLP.Chemscore.Metal>
0.0000

> <Gold.Chemscore.Hbonds>
donor molecule, donor type, donor heavy atom, donor atom, acceptor molecule, acceptor atom, score
      L1  H    15    36       P1 10175  1.00
      P1  H  7954  7966       L1    17  0.93
      P1  H  7989  7998       L1    11  0.19
      P1  H  8011  8017       L1    11  0.85
      L1  C     5    27       P1  8028  0.89

> <Gold.PLP.Chemscore.Internal.Correction>
0.1625

> <Gold.Rescore>
     Score         DG    S(hbond)    S(metal)    S(lipo)     H(rot)  DE(clash)    DE(int)     intcor
     11.54     -16.38       2.92        0.00      72.98       2.89       2.64       2.19       ----

> <Gold.Chemscore.Fitness>
11.5450

> <Gold.Chemscore.DG>
-16.3754

> <Gold.Chemscore.ZeroCoef>
-5.4800

> <Gold.Chemscore.Hbond>
2.9242

> <Gold.Chemscore.Metal>
0.0000

> <Gold.Chemscore.Lipo>
72.9817

> <Gold.Chemscore.Internal_Hbond>
0.0000

> <Gold.Chemscore.DEClash>
2.6376

> <Gold.Chemscore.DEInternal>
2.1929

> <Gold.Chemscore.Rot>
2.8946

> <Gold.Chemscore.Internal.Correction>
   9.000000E+99

> <Gold.Chemscore.Hbonds>
donor molecule, donor type, donor heavy atom, donor atom, acceptor molecule, acceptor atom, score
      L1  H    15    36       P1 10175  0.95
      P1  H  7954  7966       L1    17  0.89
      P1  H  7989  7998       L1    11  0.18
      P1  H  8011  8017       L1    11  0.79

> <Gold.Chemscore.Hbond.Weighted>
-9.7667

> <Gold.Chemscore.Metal.Weighted>
-0.0000

> <Gold.Chemscore.Lipo.Weighted>
-8.5389

> <Gold.Chemscore.Internal_Hbond.Weighted>
0.0000

> <Gold.Chemscore.DEClash.Weighted>
2.6376

> <Gold.Chemscore.DEInternal.Weighted>
2.1929

> <Gold.Chemscore.Rot.Weighted>
7.4101

> <Gold.Chemscore.Internal.Correction.Weighted>
   9.000000E+99

> <Gold.Protein.RotatedTorsions>
[ 6907 6896 6895 6894 ] final  -22.55 input  -60.11 | X-H torsion
[ 7974 7965 7964 7962 ] final   31.72 input  175.53 | X-H torsion
[ 8008 7997 7996 7995 ] final   29.41 input   59.86 | X-H torsion
[ 10167 10162 10161 10158 ] final   34.92 input  -65.29 | X-H torsion
[ 10718 10713 10712 10709 ] final   -9.52 input   66.30 | X-H torsion
[ 10763 10752 10751 10750 ] final -162.84 input  -60.55 | X-H torsion
[ 11005 11000 10999 10996 ] final -128.91 input  -57.11 | X-H torsion

> <Gold.Protein.ActiveResidues>
 VAL166  LYS551  ARG553  GLY616  TRP617  ASP618  TYR619  PRO620  LYS621  CYS622 
 ASP623  PHE694  ASN695  SER759  ASP760  ASP761  ALA762  ILE779  LEU786  VAL792 
 PHE793  MET794  SER795  GLU796  ALA797  LYS798  CYS799  TRP800  GLU811  SER814 

> <Gold.Protein.RotatedAtoms>
  151.2170  135.0503  159.8933 H   0  0  0  0  0  0  0  0  0  0  0  0  # atno 6907 bound_to 6896
  152.5419  134.0683  159.8193 H   0  0  0  0  0  0  0  0  0  0  0  0  # atno 6908 bound_to 6896
  151.0844  133.5317  159.2650 H   0  0  0  0  0  0  0  0  0  0  0  0  # atno 6909 bound_to 6896
  146.1532  139.6619  142.9084 H   0  0  0  0  0  0  0  0  0  0  0  0  # atno 7974 bound_to 7965
  155.0740  140.3203  155.4621 H   0  0  0  0  0  0  0  0  0  0  0  0  # atno 8008 bound_to 7997
  156.2783  140.2106  156.5813 H   0  0  0  0  0  0  0  0  0  0  0  0  # atno 8009 bound_to 7997
  154.7031  140.0505  157.0465 H   0  0  0  0  0  0  0  0  0  0  0  0  # atno 8010 bound_to 7997
  140.4270  144.1378  150.6154 H   0  0  0  0  0  0  0  0  0  0  0  0  # atno 10167 bound_to 10162
  156.6869  130.5053  149.5955 H   0  0  0  0  0  0  0  0  0  0  0  0  # atno 10718 bound_to 10713
  154.7177  135.3019  154.9097 H   0  0  0  0  0  0  0  0  0  0  0  0  # atno 10763 bound_to 10752
  153.9979  135.6710  153.4761 H   0  0  0  0  0  0  0  0  0  0  0  0  # atno 10764 bound_to 10752
  153.0807  135.5010  154.8413 H   0  0  0  0  0  0  0  0  0  0  0  0  # atno 10765 bound_to 10752
  140.9476  134.1109  157.4093 H   0  0  0  0  0  0  0  0  0  0  0  0  # atno 11005 bound_to 11000
  145.4772  141.0437  143.2666 LP  0  0  0  0  0  0  0  0  0  0  0  0  # atno 17320 bound_to 7965
  144.7930  139.6290  143.7105 LP  0  0  0  0  0  0  0  0  0  0  0  0  # atno 17321 bound_to 7965
  140.4470  143.2502  151.9398 LP  0  0  0  0  0  0  0  0  0  0  0  0  # atno 17342 bound_to 10162
  139.4784  144.5600  151.8255 LP  0  0  0  0  0  0  0  0  0  0  0  0  # atno 17343 bound_to 10162
  156.1826  130.6509  151.0969 LP  0  0  0  0  0  0  0  0  0  0  0  0  # atno 17370 bound_to 10713
  157.7023  131.0771  150.6780 LP  0  0  0  0  0  0  0  0  0  0  0  0  # atno 17371 bound_to 10713
  139.8838  135.0056  156.6324 LP  0  0  0  0  0  0  0  0  0  0  0  0  # atno 17394 bound_to 11000
  140.7648  133.8788  155.8446 LP  0  0  0  0  0  0  0  0  0  0  0  0  # atno 17395 bound_to 11000

$$$$
