AV-unprocessed.smi:1350|AV-procd|sdf|5521|dock8
  -GOLD-   22720 5113D 1   1.00000     0.00000
 Structure written by MMmdl.
 43 45  0  0  0  0  0  0  0  0  1 V2000
  144.6953  141.3172  157.9525 C   0  0  0  0  0  0  0  0  0  0  0  0
  145.3810  141.4151  156.7131 O   0  0  0  0  0  0  0  0  0  0  0  0
  145.0823  142.4746  155.8805 C   0  0  0  0  0  0  0  0  0  0  0  0
  144.1618  143.5006  156.2159 C   0  0  0  0  0  0  0  0  0  0  0  0
  143.9080  144.5562  155.3196 C   0  0  0  0  0  0  0  0  0  0  0  0
  144.5683  144.6027  154.0790 C   0  0  0  0  0  0  0  0  0  0  0  0
  145.4825  143.5909  153.7348 C   0  0  0  0  0  0  0  0  0  0  0  0
  145.7387  142.5285  154.6273 C   0  0  0  0  0  0  0  0  0  0  0  0
  146.7320  141.4479  154.2391 C   0  0  0  0  0  0  0  0  0  0  0  0
  148.0651  141.8496  154.5076 O   0  0  0  0  0  0  0  0  0  0  0  0
  149.0228  140.8695  154.1439 C   0  0  0  0  0  0  0  0  0  0  0  0
  149.9728  140.6424  155.3300 C   0  0  1  0  0  0  0  0  0  0  0  0
  151.0858  139.8974  154.8763 O   0  0  0  0  0  0  0  0  0  0  0  0
  150.4687  141.9705  155.9335 C   0  0  0  0  0  0  0  0  0  0  0  0
  151.1186  141.7885  157.2195 N   0  0  0  0  0  0  0  0  0  0  0  0
  151.4144  140.6179  157.8162 C   0  0  0  0  0  0  0  0  0  0  0  0
  152.0120  140.6716  159.0031 N   0  0  0  0  0  0  0  0  0  0  0  0
  152.1180  142.0378  159.1999 C   0  0  0  0  0  0  0  0  0  0  0  0
  152.6645  142.7684  160.2793 C   0  0  0  0  0  0  0  0  0  0  0  0
  152.6642  144.1787  160.2604 C   0  0  0  0  0  0  0  0  0  0  0  0
  152.1191  144.8790  159.1644 C   0  0  0  0  0  0  0  0  0  0  0  0
  151.5686  144.1729  158.0776 C   0  0  0  0  0  0  0  0  0  0  0  0
  151.5693  142.7656  158.1009 C   0  0  0  0  0  0  0  0  0  0  0  0
  145.0356  140.4269  158.4811 H   0  0  0  0  0  0  0  0  0  0  0  0
  143.6185  141.2220  157.8061 H   0  0  0  0  0  0  0  0  0  0  0  0
  144.9001  142.1777  158.5908 H   0  0  0  0  0  0  0  0  0  0  0  0
  143.6362  143.5026  157.1585 H   0  0  0  0  0  0  0  0  0  0  0  0
  143.2057  145.3324  155.5858 H   0  0  0  0  0  0  0  0  0  0  0  0
  144.3742  145.4136  153.3924 H   0  0  0  0  0  0  0  0  0  0  0  0
  145.9858  143.6337  152.7800 H   0  0  0  0  0  0  0  0  0  0  0  0
  146.5119  140.5251  154.7783 H   0  0  0  0  0  0  0  0  0  0  0  0
  146.6096  141.2341  153.1760 H   0  0  0  0  0  0  0  0  0  0  0  0
  148.5452  139.9390  153.8313 H   0  0  0  0  0  0  0  0  0  0  0  0
  149.5882  141.2454  153.2896 H   0  0  0  0  0  0  0  0  0  0  0  0
  149.4578  140.0724  156.1049 H   0  0  0  0  0  0  0  0  0  0  0  0
  151.1862  139.1422  155.4358 H   0  0  0  0  0  0  0  0  0  0  0  0
  151.1634  142.4660  155.2540 H   0  0  0  0  0  0  0  0  0  0  0  0
  149.6313  142.6552  156.0742 H   0  0  0  0  0  0  0  0  0  0  0  0
  151.1773  139.6720  157.3517 H   0  0  0  0  0  0  0  0  0  0  0  0
  153.0856  142.2424  161.1232 H   0  0  0  0  0  0  0  0  0  0  0  0
  153.0855  144.7262  161.0908 H   0  0  0  0  0  0  0  0  0  0  0  0
  152.1245  145.9592  159.1583 H   0  0  0  0  0  0  0  0  0  0  0  0
  151.1532  144.7051  157.2348 H   0  0  0  0  0  0  0  0  0  0  0  0
  1  2  1  0  0  0  0
  1 24  1  0  0  0  0
  1 25  1  0  0  0  0
  1 26  1  0  0  0  0
  2  3  1  0  0  0  0
  3  8  1  0  0  0  0
  3  4  2  0  0  0  0
  4  5  1  0  0  0  0
  4 27  1  0  0  0  0
  5  6  2  0  0  0  0
  5 28  1  0  0  0  0
  6  7  1  0  0  0  0
  6 29  1  0  0  0  0
  7  8  2  0  0  0  0
  7 30  1  0  0  0  0
  8  9  1  0  0  0  0
  9 10  1  0  0  0  0
  9 31  1  0  0  0  0
  9 32  1  0  0  0  0
 10 11  1  0  0  0  0
 11 12  1  0  0  0  0
 11 33  1  0  0  0  0
 11 34  1  0  0  0  0
 12 13  1  0  0  0  0
 12 14  1  0  0  0  0
 12 35  1  0  0  0  0
 13 36  1  0  0  0  0
 14 15  1  0  0  0  0
 14 37  1  0  0  0  0
 14 38  1  0  0  0  0
 15 23  1  0  0  0  0
 15 16  1  0  0  0  0
 16 17  2  0  0  0  0
 16 39  1  0  0  0  0
 17 18  1  0  0  0  0
 18 23  2  0  0  0  0
 18 19  1  0  0  0  0
 19 20  2  0  0  0  0
 19 40  1  0  0  0  0
 20 21  1  0  0  0  0
 20 41  1  0  0  0  0
 21 22  2  0  0  0  0
 21 42  1  0  0  0  0
 22 23  1  0  0  0  0
 22 43  1  0  0  0  0
M  END
> <s_m_source_file>
AV-unprocessed.smi

> <i_m_source_file_index>
1350

> <i_lp_mmshare_version>
43012

> <i_f3d_flags>
0

> <s_epik_input>
W0NIM11PYzFbY0hdW2NIXVtjSF1bY0hdYzFbQ0gyXU9bQ0gyXVtDQEhdKFtPSF0pW0NIMl1uKFtjSF1uMiljKGMyMylbY0hdW2NIXVtjSF1bY0hdMw==

> <s_epik_cmdline>
J2VwaWtfcHl0aG9uJywgJy1waCcsICc3LjAnLCAnLXRuJywgJzgnLCAnLW1hJywgJzIwMCcsICctbWV0YWxfYmluZGluZycsICctaW1hZScsICc8aW5maWxlLm1hZT4nLCAnLW9tYWUnLCAnPG91dGZpbGUubWFlPic=

> <r_lp_tautomer_probability>
1

> <r_epik_Ionization_Penalty>
0.0713119

> <r_epik_Ionization_Penalty_Charging>
0

> <r_epik_Ionization_Penalty_Neutral>
0.0713119

> <r_epik_State_Penalty>
0.06259

> <r_epik_Charging_Adjusted_Penalty>
0.06259

> <i_epik_Tot_Q>
0

> <i_epik_Tot_abs_Q>
0

> <r_epik_Metal_State_Penalty>
6.60119e-05

> <b_epik_Metal_Only>
0

> <s_lp_Force_Field>
OPLS_2005

> <r_lp_Energy>
19.121

> <b_lp_Chiralities_Consistent>
1

> <s_lp_Variant>
AV-unprocessed.smi:1350-2

> <Gold.Version>
5.8.1

> <Gold.Id.Protein>
6NUR|6NUR_protein|mol2

> <Gold.PLP.Fitness>
52.7139

> <Gold.PLP.PLP>
-51.3088

> <Gold.PLP.part.hbond>
-1.1077

> <Gold.PLP.part.metal>
0.0000

> <Gold.PLP.part.buried>
-6.5080

> <Gold.PLP.part.nonpolar>
-44.0544

> <Gold.PLP.part.repulsive>
0.1876

> <Gold.PLP.ligand.clash>
0.0000

> <Gold.PLP.ligand.torsion>
0.8883

> <Gold.PLP.Chemscore.Hbond>
1.0000

> <Gold.PLP.Chemscore.CHOScore>
0.0000

> <Gold.PLP.Chemscore.Metal>
0.0000

> <Gold.Chemscore.Hbonds>
donor molecule, donor type, donor heavy atom, donor atom, acceptor molecule, acceptor atom, score
      P1  H  7989  7998       L1    13  1.00

> <Gold.PLP.Chemscore.Internal.Correction>
0.1817

> <Gold.Rescore>
     Score         DG    S(hbond)    S(metal)    S(lipo)     H(rot)  DE(clash)    DE(int)     intcor
     14.20     -16.51       0.75        0.00     130.30       2.63       0.45       1.85       ----

> <Gold.Chemscore.Fitness>
14.2041

> <Gold.Chemscore.DG>
-16.5076

> <Gold.Chemscore.ZeroCoef>
-5.4800

> <Gold.Chemscore.Hbond>
0.7537

> <Gold.Chemscore.Metal>
0.0000

> <Gold.Chemscore.Lipo>
130.2984

> <Gold.Chemscore.Internal_Hbond>
0.0000

> <Gold.Chemscore.DEClash>
0.4544

> <Gold.Chemscore.DEInternal>
1.8491

> <Gold.Chemscore.Rot>
2.6308

> <Gold.Chemscore.Internal.Correction>
   9.000000E+99

> <Gold.Chemscore.Hbonds>
donor molecule, donor type, donor heavy atom, donor atom, acceptor molecule, acceptor atom, score
      P1  H  7989  7998       L1    13  0.35

> <Gold.Chemscore.Hbond.Weighted>
-2.5174

> <Gold.Chemscore.Metal.Weighted>
-0.0000

> <Gold.Chemscore.Lipo.Weighted>
-15.2449

> <Gold.Chemscore.Internal_Hbond.Weighted>
0.0000

> <Gold.Chemscore.DEClash.Weighted>
0.4544

> <Gold.Chemscore.DEInternal.Weighted>
1.8491

> <Gold.Chemscore.Rot.Weighted>
6.7347

> <Gold.Chemscore.Internal.Correction.Weighted>
   9.000000E+99

> <Gold.Protein.RotatedTorsions>
[ 6907 6896 6895 6894 ] final  -38.99 input  -60.11 | X-H torsion
[ 7974 7965 7964 7962 ] final  156.21 input  175.53 | X-H torsion
[ 8008 7997 7996 7995 ] final   22.73 input   59.86 | X-H torsion
[ 10167 10162 10161 10158 ] final -165.66 input  -65.29 | X-H torsion
[ 10718 10713 10712 10709 ] final -150.94 input   66.30 | X-H torsion
[ 10763 10752 10751 10750 ] final  -53.01 input  -60.55 | X-H torsion
[ 11005 11000 10999 10996 ] final   75.81 input  -57.11 | X-H torsion

> <Gold.Protein.ActiveResidues>
 VAL166  LYS551  ARG553  GLY616  TRP617  ASP618  TYR619  PRO620  LYS621  CYS622 
 ASP623  PHE694  ASN695  SER759  ASP760  ASP761  ALA762  ILE779  LEU786  VAL792 
 PHE793  MET794  SER795  GLU796  ALA797  LYS798  CYS799  TRP800  GLU811  SER814 

> <Gold.Protein.RotatedAtoms>
  150.9957  134.9282  159.7925 H   0  0  0  0  0  0  0  0  0  0  0  0  # atno 6907 bound_to 6896
  152.5264  134.3221  159.9162 H   0  0  0  0  0  0  0  0  0  0  0  0  # atno 6908 bound_to 6896
  151.3227  133.3992  159.2690 H   0  0  0  0  0  0  0  0  0  0  0  0  # atno 6909 bound_to 6896
  144.7977  139.7173  143.6195 H   0  0  0  0  0  0  0  0  0  0  0  0  # atno 7974 bound_to 7965
  154.9702  140.3089  155.4991 H   0  0  0  0  0  0  0  0  0  0  0  0  # atno 8008 bound_to 7997
  156.2967  140.2285  156.4733 H   0  0  0  0  0  0  0  0  0  0  0  0  # atno 8009 bound_to 7997
  154.7884  140.0441  157.1170 H   0  0  0  0  0  0  0  0  0  0  0  0  # atno 8010 bound_to 7997
  139.6167  144.0706  152.1894 H   0  0  0  0  0  0  0  0  0  0  0  0  # atno 10167 bound_to 10162
  156.4527  130.8175  151.2406 H   0  0  0  0  0  0  0  0  0  0  0  0  # atno 10718 bound_to 10713
  154.1520  135.6488  153.4965 H   0  0  0  0  0  0  0  0  0  0  0  0  # atno 10763 bound_to 10752
  153.0135  135.5340  154.6798 H   0  0  0  0  0  0  0  0  0  0  0  0  # atno 10764 bound_to 10752
  154.6089  135.2951  155.0426 H   0  0  0  0  0  0  0  0  0  0  0  0  # atno 10765 bound_to 10752
  139.9326  134.7549  156.1318 H   0  0  0  0  0  0  0  0  0  0  0  0  # atno 11005 bound_to 11000
  146.2250  139.5705  142.9593 LP  0  0  0  0  0  0  0  0  0  0  0  0  # atno 17320 bound_to 7965
  145.5632  141.0402  143.2215 LP  0  0  0  0  0  0  0  0  0  0  0  0  # atno 17321 bound_to 7965
  140.0337  144.6061  150.7467 LP  0  0  0  0  0  0  0  0  0  0  0  0  # atno 17342 bound_to 10162
  140.7355  143.2742  151.3793 LP  0  0  0  0  0  0  0  0  0  0  0  0  # atno 17343 bound_to 10162
  157.7502  131.0133  150.3417 LP  0  0  0  0  0  0  0  0  0  0  0  0  # atno 17370 bound_to 10713
  156.3799  130.3878  149.7109 LP  0  0  0  0  0  0  0  0  0  0  0  0  # atno 17371 bound_to 10713
  141.0924  133.6709  156.2569 LP  0  0  0  0  0  0  0  0  0  0  0  0  # atno 17394 bound_to 11000
  140.6160  134.5410  157.5540 LP  0  0  0  0  0  0  0  0  0  0  0  0  # atno 17395 bound_to 11000

$$$$
