AV-unprocessed.smi:2431|AV-procd|sdf|9586|dock2
  -GOLD-   2272013213D 1   1.00000     0.00000
 Structure written by MMmdl.
 36 37  0  0  0  0  0  0  0  0  3 V2000
  152.1970  137.1539  159.6834 O   0  0  0  0  0  0  0  0  0  0  0  0
  152.4108  138.1706  159.0223 C   0  0  0  0  0  0  0  0  0  0  0  0
  153.0348  139.2523  159.5104 N   0  0  0  0  0  0  0  0  0  0  0  0
  153.5473  139.3782  160.8698 C   0  0  0  0  0  0  0  0  0  0  0  0
  154.4817  140.5920  161.0066 C   0  0  0  0  0  0  0  0  0  0  0  0
  153.7521  141.8421  161.4573 C   0  0  0  0  0  0  0  0  0  0  0  0
  153.7265  142.3459  162.6905 C   0  0  0  0  0  0  0  0  0  0  0  0
  152.8868  143.5895  162.7915 C   0  0  0  0  0  0  0  0  0  0  0  0
  152.3257  143.7791  161.3645 C   0  0  0  0  0  0  0  0  0  0  0  0
  152.9245  142.6522  160.4928 C   0  0  0  0  0  0  0  0  0  0  0  0
  152.0797  138.3414  157.7310 N   0  0  0  0  0  0  0  0  0  0  0  0
  151.4317  137.4257  156.8533 C   0  0  0  0  0  0  0  0  0  0  0  0
  150.9886  136.1538  157.2925 C   0  0  0  0  0  0  0  0  0  0  0  0
  150.3592  135.2943  156.3729 C   0  0  0  0  0  0  0  0  0  0  0  0
  150.1448  135.6200  155.0832 N   0  0  0  0  0  0  0  0  0  0  0  0
  150.5488  136.8381  154.6677 C   0  0  0  0  0  0  0  0  0  0  0  0
  151.1826  137.7889  155.5006 C   0  0  0  0  0  0  0  0  0  0  0  0
  151.5687  139.0963  154.9362 N   0  3  0  0  0  0  0  0  0  0  0  0
  150.7368  139.6882  154.2568 O   0  0  0  0  0  0  0  0  0  0  0  0
  152.6829  139.5427  155.1900 O   0  5  0  0  0  0  0  0  0  0  0  0
  153.1724  140.0426  158.8971 H   0  0  0  0  0  0  0  0  0  0  0  0
  152.6966  139.4867  161.5431 H   0  0  0  0  0  0  0  0  0  0  0  0
  154.0581  138.4587  161.1602 H   0  0  0  0  0  0  0  0  0  0  0  0
  155.2764  140.3834  161.7236 H   0  0  0  0  0  0  0  0  0  0  0  0
  154.9671  140.7917  160.0503 H   0  0  0  0  0  0  0  0  0  0  0  0
  154.2401  141.9299  163.5449 H   0  0  0  0  0  0  0  0  0  0  0  0
  152.0914  143.4526  163.5249 H   0  0  0  0  0  0  0  0  0  0  0  0
  153.5037  144.4346  163.0983 H   0  0  0  0  0  0  0  0  0  0  0  0
  151.2367  143.7162  161.3718 H   0  0  0  0  0  0  0  0  0  0  0  0
  152.5901  144.7603  160.9686 H   0  0  0  0  0  0  0  0  0  0  0  0
  153.5509  143.0553  159.6967 H   0  0  0  0  0  0  0  0  0  0  0  0
  152.1468  142.0333  160.0442 H   0  0  0  0  0  0  0  0  0  0  0  0
  152.4086  139.1932  157.2992 H   0  0  0  0  0  0  0  0  0  0  0  0
  151.1124  135.8267  158.3136 H   0  0  0  0  0  0  0  0  0  0  0  0
  150.0158  134.3190  156.6845 H   0  0  0  0  0  0  0  0  0  0  0  0
  150.3457  137.0646  153.6311 H   0  0  0  0  0  0  0  0  0  0  0  0
  1  2  2  0  0  0  0
  2  3  1  0  0  0  0
  2 11  1  0  0  0  0
  3  4  1  0  0  0  0
  3 21  1  0  0  0  0
  4  5  1  0  0  0  0
  4 22  1  0  0  0  0
  4 23  1  0  0  0  0
  5  6  1  0  0  0  0
  5 24  1  0  0  0  0
  5 25  1  0  0  0  0
  6 10  1  0  0  0  0
  6  7  2  0  0  0  0
  7  8  1  0  0  0  0
  7 26  1  0  0  0  0
  8  9  1  0  0  0  0
  8 27  1  0  0  0  0
  8 28  1  0  0  0  0
  9 10  1  0  0  0  0
  9 29  1  0  0  0  0
  9 30  1  0  0  0  0
 10 31  1  0  0  0  0
 10 32  1  0  0  0  0
 11 12  1  0  0  0  0
 11 33  1  0  0  0  0
 12 17  1  0  0  0  0
 12 13  2  0  0  0  0
 13 14  1  0  0  0  0
 13 34  1  0  0  0  0
 14 15  2  0  0  0  0
 14 35  1  0  0  0  0
 15 16  1  0  0  0  0
 16 17  2  0  0  0  0
 16 36  1  0  0  0  0
 17 18  1  0  0  0  0
 18 19  2  0  0  0  0
 18 20  1  0  0  0  0
M  CHG  1  18   1
M  CHG  1  20  -1
M  END
> <s_m_source_file>
AV-unprocessed.smi

> <i_m_source_file_index>
2431

> <i_lp_mmshare_version>
43012

> <i_f3d_flags>
0

> <s_epik_input>
W0NIMl0xW0NIMl1bQ0gyXVtDSF09QzFbQ0gyXVtDSDJdW05IXUMoPU8pW05IXWMyW2NIXVtjSF1uW2NIXWMyW04rXSg9TylbTy1d

> <s_epik_cmdline>
J2VwaWtfcHl0aG9uJywgJy1waCcsICc3LjAnLCAnLXRuJywgJzgnLCAnLW1hJywgJzIwMCcsICctbWV0YWxfYmluZGluZycsICctaW1hZScsICc8aW5maWxlLm1hZT4nLCAnLW9tYWUnLCAnPG91dGZpbGUubWFlPic=

> <r_lp_tautomer_probability>
1

> <r_epik_Ionization_Penalty>
0.000148912

> <r_epik_Ionization_Penalty_Charging>
0

> <r_epik_Ionization_Penalty_Neutral>
0.000148912

> <r_epik_State_Penalty>
-0

> <r_epik_Charging_Adjusted_Penalty>
0

> <i_epik_Tot_Q>
0

> <i_epik_Tot_abs_Q>
2

> <r_epik_Metal_State_Penalty>
-0

> <b_epik_Metal_Only>
0

> <s_lp_Force_Field>
OPLS_2005

> <r_lp_Energy>
28.1068

> <b_lp_Chiralities_Consistent>
1

> <s_lp_Variant>
AV-unprocessed.smi:2431-1

> <Gold.Version>
5.8.1

> <Gold.Id.Protein>
6NUR|6NUR_protein|mol2

> <Gold.PLP.Fitness>
45.9808

> <Gold.PLP.PLP>
-36.8477

> <Gold.PLP.part.hbond>
-3.6432

> <Gold.PLP.part.metal>
0.0000

> <Gold.PLP.part.buried>
-3.5363

> <Gold.PLP.part.nonpolar>
-32.1157

> <Gold.PLP.part.repulsive>
0.4317

> <Gold.PLP.ligand.clash>
0.0000

> <Gold.PLP.ligand.torsion>
1.3099

> <Gold.PLP.Chemscore.Hbond>
2.7638

> <Gold.PLP.Chemscore.CHOScore>
1.1406

> <Gold.PLP.Chemscore.Metal>
0.0000

> <Gold.Chemscore.Hbonds>
donor molecule, donor type, donor heavy atom, donor atom, acceptor molecule, acceptor atom, score
      P1  H  6896  6907       L1     1  0.86
      P1  H  7989  7998       L1    19  1.00
      P1  H  7997  8008       L1    20  0.98
      L1  C    16    36       P1  7948  0.75
      L1  C    16    36       P1  7949  0.34

> <Gold.PLP.Chemscore.Internal.Correction>
0.0399

> <Gold.Rescore>
     Score         DG    S(hbond)    S(metal)    S(lipo)     H(rot)  DE(clash)    DE(int)     intcor
     18.91     -22.99       2.98        0.00      97.06       1.48       0.23       3.85       ----

> <Gold.Chemscore.Fitness>
18.9102

> <Gold.Chemscore.DG>
-22.9893

> <Gold.Chemscore.ZeroCoef>
-5.4800

> <Gold.Chemscore.Hbond>
2.9788

> <Gold.Chemscore.Metal>
0.0000

> <Gold.Chemscore.Lipo>
97.0614

> <Gold.Chemscore.Internal_Hbond>
0.0000

> <Gold.Chemscore.DEClash>
0.2313

> <Gold.Chemscore.DEInternal>
3.8477

> <Gold.Chemscore.Rot>
1.4828

> <Gold.Chemscore.Internal.Correction>
   9.000000E+99

> <Gold.Chemscore.Hbonds>
donor molecule, donor type, donor heavy atom, donor atom, acceptor molecule, acceptor atom, score
      P1  H  6896  6907       L1     1  0.84
      P1  H  7989  7998       L1    19  0.45
      P1  H  7997  8008       L1    20  0.92

> <Gold.Chemscore.Hbond.Weighted>
-9.9491

> <Gold.Chemscore.Metal.Weighted>
-0.0000

> <Gold.Chemscore.Lipo.Weighted>
-11.3562

> <Gold.Chemscore.Internal_Hbond.Weighted>
0.0000

> <Gold.Chemscore.DEClash.Weighted>
0.2313

> <Gold.Chemscore.DEInternal.Weighted>
3.8477

> <Gold.Chemscore.Rot.Weighted>
3.7960

> <Gold.Chemscore.Internal.Correction.Weighted>
   9.000000E+99

> <Gold.Protein.RotatedTorsions>
[ 6907 6896 6895 6894 ] final   16.86 input  -60.11 | X-H torsion
[ 7974 7965 7964 7962 ] final   79.80 input  175.53 | X-H torsion
[ 8008 7997 7996 7995 ] final  -36.07 input   59.86 | X-H torsion
[ 10167 10162 10161 10158 ] final  173.27 input  -65.29 | X-H torsion
[ 10718 10713 10712 10709 ] final -169.87 input   66.30 | X-H torsion
[ 10763 10752 10751 10750 ] final   79.60 input  -60.55 | X-H torsion
[ 11005 11000 10999 10996 ] final    3.90 input  -57.11 | X-H torsion

> <Gold.Protein.ActiveResidues>
 VAL166  LYS551  ARG553  GLY616  TRP617  ASP618  TYR619  PRO620  LYS621  CYS622 
 ASP623  PHE694  ASN695  SER759  ASP760  ASP761  ALA762  ILE779  LEU786  VAL792 
 PHE793  MET794  SER795  GLU796  ALA797  LYS798  CYS799  TRP800  GLU811  SER814 

> <Gold.Protein.RotatedAtoms>
  151.8406  135.0591  160.0447 H   0  0  0  0  0  0  0  0  0  0  0  0  # atno 6907 bound_to 6896
  152.2812  133.5467  159.5507 H   0  0  0  0  0  0  0  0  0  0  0  0  # atno 6908 bound_to 6896
  150.7190  134.0478  159.3830 H   0  0  0  0  0  0  0  0  0  0  0  0  # atno 6909 bound_to 6896
  145.6595  139.2468  143.1931 H   0  0  0  0  0  0  0  0  0  0  0  0  # atno 7974 bound_to 7965
  154.4081  140.1640  156.2314 H   0  0  0  0  0  0  0  0  0  0  0  0  # atno 8008 bound_to 7997
  155.9280  140.3417  155.6203 H   0  0  0  0  0  0  0  0  0  0  0  0  # atno 8009 bound_to 7997
  155.7142  140.0760  157.2349 H   0  0  0  0  0  0  0  0  0  0  0  0  # atno 8010 bound_to 7997
  139.5103  144.3279  152.0139 H   0  0  0  0  0  0  0  0  0  0  0  0  # atno 10167 bound_to 10162
  156.7179  130.9259  151.3095 H   0  0  0  0  0  0  0  0  0  0  0  0  # atno 10718 bound_to 10713
  153.0965  135.4834  154.8789 H   0  0  0  0  0  0  0  0  0  0  0  0  # atno 10763 bound_to 10752
  154.7331  135.3064  154.8861 H   0  0  0  0  0  0  0  0  0  0  0  0  # atno 10764 bound_to 10752
  153.9491  135.6825  153.4797 H   0  0  0  0  0  0  0  0  0  0  0  0  # atno 10765 bound_to 10752
  140.5879  133.9952  155.8076 H   0  0  0  0  0  0  0  0  0  0  0  0  # atno 11005 bound_to 11000
  146.1137  140.7396  142.9491 LP  0  0  0  0  0  0  0  0  0  0  0  0  # atno 17320 bound_to 7965
  144.7094  140.3980  143.7092 LP  0  0  0  0  0  0  0  0  0  0  0  0  # atno 17321 bound_to 7965
  140.2720  144.3954  150.6148 LP  0  0  0  0  0  0  0  0  0  0  0  0  # atno 17342 bound_to 10162
  140.6082  143.2168  151.6939 LP  0  0  0  0  0  0  0  0  0  0  0  0  # atno 17343 bound_to 10162
  157.6910  130.9233  150.0513 LP  0  0  0  0  0  0  0  0  0  0  0  0  # atno 17370 bound_to 10713
  156.1615  130.3644  149.9293 LP  0  0  0  0  0  0  0  0  0  0  0  0  # atno 17371 bound_to 10713
  141.0954  133.9852  157.3169 LP  0  0  0  0  0  0  0  0  0  0  0  0  # atno 17394 bound_to 11000
  139.9287  135.0201  156.8326 LP  0  0  0  0  0  0  0  0  0  0  0  0  # atno 17395 bound_to 11000

$$$$
