AV-unprocessed.smi:2069|AV-procd|sdf|8431|dock1
  -GOLD-   2272011123D 1   1.00000     0.00000
 Structure written by MMmdl.
 38 39  0  0  0  0  0  0  0  0  1 V2000
  147.8278  129.5459  152.8885 C   0  0  0  0  0  0  0  0  0  0  0  0
  148.5436  130.7721  153.3415 C   0  0  0  0  0  0  0  0  0  0  0  0
  149.5190  130.7473  154.2579 N   0  0  0  0  0  0  0  0  0  0  0  0
  150.0296  132.0114  154.5170 N   0  0  0  0  0  0  0  0  0  0  0  0
  149.4221  132.9555  153.7852 C   0  0  0  0  0  0  0  0  0  0  0  0
  149.7449  134.3366  153.8521 N   0  0  0  0  0  0  0  0  0  0  0  0
  150.4460  134.9841  154.7992 C   0  0  0  0  0  0  0  0  0  0  0  0
  150.9412  134.4626  155.7985 O   0  0  0  0  0  0  0  0  0  0  0  0
  150.5475  136.2909  154.5151 N   0  0  0  0  0  0  0  0  0  0  0  0
  151.2386  137.2878  155.3302 C   0  0  0  0  0  0  0  0  0  0  0  0
  151.8362  138.4534  154.4917 C   0  0  2  0  0  0  0  0  0  0  0  0
  153.3338  138.6248  154.8539 C   0  0  0  0  0  0  0  0  0  0  0  0
  151.0676  139.7141  154.6207 N   0  0  0  0  0  0  0  0  0  0  0  0
  151.2229  140.3409  155.9388 C   0  0  0  0  0  0  0  0  0  0  0  0
  150.4027  141.6339  156.0880 C   0  0  0  0  0  0  0  0  0  0  0  0
  149.0314  141.3638  155.8343 O   0  0  0  0  0  0  0  0  0  0  0  0
  148.8267  140.8318  154.5331 C   0  0  0  0  0  0  0  0  0  0  0  0
  149.6325  139.5312  154.3725 C   0  0  0  0  0  0  0  0  0  0  0  0
  148.1656  132.3695  152.7087 S   0  0  0  0  0  0  0  0  0  0  0  0
  148.1671  128.6731  153.4472 H   0  0  0  0  0  0  0  0  0  0  0  0
  148.0141  129.3760  151.8280 H   0  0  0  0  0  0  0  0  0  0  0  0
  146.7550  129.6631  153.0428 H   0  0  0  0  0  0  0  0  0  0  0  0
  149.4026  134.8978  153.0863 H   0  0  0  0  0  0  0  0  0  0  0  0
  150.1106  136.6262  153.6692 H   0  0  0  0  0  0  0  0  0  0  0  0
  150.4775  137.6481  156.0192 H   0  0  0  0  0  0  0  0  0  0  0  0
  152.0174  136.8334  155.9454 H   0  0  0  0  0  0  0  0  0  0  0  0
  151.7980  138.1440  153.4459 H   0  0  0  0  0  0  0  0  0  0  0  0
  153.8887  137.6905  154.7807 H   0  0  0  0  0  0  0  0  0  0  0  0
  153.4526  138.9977  155.8717 H   0  0  0  0  0  0  0  0  0  0  0  0
  153.8494  139.3080  154.1808 H   0  0  0  0  0  0  0  0  0  0  0  0
  150.9333  139.6362  156.7199 H   0  0  0  0  0  0  0  0  0  0  0  0
  152.2623  140.6067  156.1200 H   0  0  0  0  0  0  0  0  0  0  0  0
  150.5061  142.0320  157.0974 H   0  0  0  0  0  0  0  0  0  0  0  0
  150.7637  142.4023  155.4026 H   0  0  0  0  0  0  0  0  0  0  0  0
  147.7632  140.6385  154.3914 H   0  0  0  0  0  0  0  0  0  0  0  0
  149.1215  141.5650  153.7806 H   0  0  0  0  0  0  0  0  0  0  0  0
  149.4602  139.1765  153.3581 H   0  0  0  0  0  0  0  0  0  0  0  0
  149.2337  138.7722  155.0473 H   0  0  0  0  0  0  0  0  0  0  0  0
  1  2  1  0  0  0  0
  1 20  1  0  0  0  0
  1 21  1  0  0  0  0
  1 22  1  0  0  0  0
  2 19  1  0  0  0  0
  2  3  2  0  0  0  0
  3  4  1  0  0  0  0
  4  5  2  0  0  0  0
  5  6  1  0  0  0  0
  5 19  1  0  0  0  0
  6  7  1  0  0  0  0
  6 23  1  0  0  0  0
  7  8  2  0  0  0  0
  7  9  1  0  0  0  0
  9 10  1  0  0  0  0
  9 24  1  0  0  0  0
 10 11  1  0  0  0  0
 10 25  1  0  0  0  0
 10 26  1  0  0  0  0
 11 12  1  0  0  0  0
 11 13  1  0  0  0  0
 11 27  1  0  0  0  0
 12 28  1  0  0  0  0
 12 29  1  0  0  0  0
 12 30  1  0  0  0  0
 13 18  1  0  0  0  0
 13 14  1  0  0  0  0
 14 15  1  0  0  0  0
 14 31  1  0  0  0  0
 14 32  1  0  0  0  0
 15 16  1  0  0  0  0
 15 33  1  0  0  0  0
 15 34  1  0  0  0  0
 16 17  1  0  0  0  0
 17 18  1  0  0  0  0
 17 35  1  0  0  0  0
 17 36  1  0  0  0  0
 18 37  1  0  0  0  0
 18 38  1  0  0  0  0
M  END
> <s_m_source_file>
AV-unprocessed.smi

> <i_m_source_file_index>
2069

> <i_lp_mmshare_version>
43012

> <i_f3d_flags>
0

> <s_epik_input>
W0NIM11jMW5uYyhzMSlbTkhdQyg9TylbTkhdW0NIMl1bQ0BIXShbQ0gzXSlOMltDSDJdW0NIMl1PW0NIMl1bQ0gyXTI=

> <s_epik_cmdline>
J2VwaWtfcHl0aG9uJywgJy1waCcsICc3LjAnLCAnLXRuJywgJzgnLCAnLW1hJywgJzIwMCcsICctbWV0YWxfYmluZGluZycsICctaW1hZScsICc8aW5maWxlLm1hZT4nLCAnLW9tYWUnLCAnPG91dGZpbGUubWFlPic=

> <r_lp_tautomer_probability>
1

> <r_epik_Ionization_Penalty>
0.221104

> <r_epik_Ionization_Penalty_Charging>
0

> <r_epik_Ionization_Penalty_Neutral>
0.221104

> <r_epik_State_Penalty>
0.209349

> <r_epik_Charging_Adjusted_Penalty>
0.209349

> <i_epik_Tot_Q>
0

> <i_epik_Tot_abs_Q>
0

> <r_epik_Metal_State_Penalty>
0.561068

> <b_epik_Metal_Only>
0

> <s_lp_Force_Field>
OPLS_2005

> <r_lp_Energy>
28.2762

> <b_lp_Chiralities_Consistent>
1

> <s_lp_Variant>
AV-unprocessed.smi:2069-1

> <Gold.Version>
5.8.1

> <Gold.Id.Protein>
6NUR|6NUR_protein|mol2

> <Gold.PLP.Fitness>
42.2278

> <Gold.PLP.PLP>
-35.3764

> <Gold.PLP.part.hbond>
-3.4768

> <Gold.PLP.part.metal>
0.0000

> <Gold.PLP.part.buried>
-5.3978

> <Gold.PLP.part.nonpolar>
-28.2433

> <Gold.PLP.part.repulsive>
0.3867

> <Gold.PLP.ligand.clash>
0.0000

> <Gold.PLP.ligand.torsion>
0.9930

> <Gold.PLP.Chemscore.Hbond>
2.9199

> <Gold.PLP.Chemscore.CHOScore>
0.0000

> <Gold.PLP.Chemscore.Metal>
0.0000

> <Gold.Chemscore.Hbonds>
donor molecule, donor type, donor heavy atom, donor atom, acceptor molecule, acceptor atom, score
      L1  H     6    23       P1  7948  0.30
      L1  H     9    24       P1  7948  0.62
      P1  H  7989  7998       L1    13  1.00

> <Gold.PLP.Chemscore.Internal.Correction>
0.0777

> <Gold.Rescore>
     Score         DG    S(hbond)    S(metal)    S(lipo)     H(rot)  DE(clash)    DE(int)     intcor
     12.58     -14.86       1.70        0.00      66.71       1.60       0.11       2.17       ----

> <Gold.Chemscore.Fitness>
12.5810

> <Gold.Chemscore.DG>
-14.8610

> <Gold.Chemscore.ZeroCoef>
-5.4800

> <Gold.Chemscore.Hbond>
1.6995

> <Gold.Chemscore.Metal>
0.0000

> <Gold.Chemscore.Lipo>
66.7084

> <Gold.Chemscore.Internal_Hbond>
0.0000

> <Gold.Chemscore.DEClash>
0.1136

> <Gold.Chemscore.DEInternal>
2.1665

> <Gold.Chemscore.Rot>
1.6016

> <Gold.Chemscore.Internal.Correction>
   9.000000E+99

> <Gold.Chemscore.Hbonds>
donor molecule, donor type, donor heavy atom, donor atom, acceptor molecule, acceptor atom, score
      L1  H     9    24       P1  7948  0.10
      P1  H  7989  7998       L1    13  0.25

> <Gold.Chemscore.Hbond.Weighted>
-5.6763

> <Gold.Chemscore.Metal.Weighted>
-0.0000

> <Gold.Chemscore.Lipo.Weighted>
-7.8049

> <Gold.Chemscore.Internal_Hbond.Weighted>
0.0000

> <Gold.Chemscore.DEClash.Weighted>
0.1136

> <Gold.Chemscore.DEInternal.Weighted>
2.1665

> <Gold.Chemscore.Rot.Weighted>
4.1001

> <Gold.Chemscore.Internal.Correction.Weighted>
   9.000000E+99

> <Gold.Protein.RotatedTorsions>
[ 6907 6896 6895 6894 ] final  132.63 input  -60.11 | X-H torsion
[ 7974 7965 7964 7962 ] final  -28.07 input  175.53 | X-H torsion
[ 8008 7997 7996 7995 ] final  139.61 input   59.86 | X-H torsion
[ 10167 10162 10161 10158 ] final -144.68 input  -65.29 | X-H torsion
[ 10718 10713 10712 10709 ] final  -93.99 input   66.30 | X-H torsion
[ 10763 10752 10751 10750 ] final  106.74 input  -60.55 | X-H torsion
[ 11005 11000 10999 10996 ] final   41.60 input  -57.11 | X-H torsion

> <Gold.Protein.ActiveResidues>
 VAL166  LYS551  ARG553  GLY616  TRP617  ASP618  TYR619  PRO620  LYS621  CYS622 
 ASP623  PHE694  ASN695  SER759  ASP760  ASP761  ALA762  ILE779  LEU786  VAL792 
 PHE793  MET794  SER795  GLU796  ALA797  LYS798  CYS799  TRP800  GLU811  SER814 

> <Gold.Protein.RotatedAtoms>
  152.3303  133.5951  159.5805 H   0  0  0  0  0  0  0  0  0  0  0  0  # atno 6907 bound_to 6896
  150.7420  133.9877  159.3606 H   0  0  0  0  0  0  0  0  0  0  0  0  # atno 6908 bound_to 6896
  151.7752  135.0776  160.0417 H   0  0  0  0  0  0  0  0  0  0  0  0  # atno 6909 bound_to 6896
  146.1314  140.5235  142.8692 H   0  0  0  0  0  0  0  0  0  0  0  0  # atno 7974 bound_to 7965
  156.2988  140.2363  156.4266 H   0  0  0  0  0  0  0  0  0  0  0  0  # atno 8008 bound_to 7997
  154.8308  140.0433  157.1496 H   0  0  0  0  0  0  0  0  0  0  0  0  # atno 8009 bound_to 7997
  154.9210  140.3003  155.5220 H   0  0  0  0  0  0  0  0  0  0  0  0  # atno 8010 bound_to 7997
  139.7877  143.8011  152.2646 H   0  0  0  0  0  0  0  0  0  0  0  0  # atno 10167 bound_to 10162
  156.0021  130.5049  150.5859 H   0  0  0  0  0  0  0  0  0  0  0  0  # atno 10718 bound_to 10713
  153.3971  135.3867  155.1963 H   0  0  0  0  0  0  0  0  0  0  0  0  # atno 10763 bound_to 10752
  154.8725  135.3762  154.4664 H   0  0  0  0  0  0  0  0  0  0  0  0  # atno 10764 bound_to 10752
  153.5158  135.7087  153.5819 H   0  0  0  0  0  0  0  0  0  0  0  0  # atno 10765 bound_to 10752
  140.1819  134.4093  155.8195 H   0  0  0  0  0  0  0  0  0  0  0  0  # atno 11005 bound_to 11000
  144.7694  140.5604  143.6680 LP  0  0  0  0  0  0  0  0  0  0  0  0  # atno 17320 bound_to 7965
  145.5253  139.1476  143.3530 LP  0  0  0  0  0  0  0  0  0  0  0  0  # atno 17321 bound_to 7965
  139.8093  144.7342  150.9719 LP  0  0  0  0  0  0  0  0  0  0  0  0  # atno 17342 bound_to 10162
  140.7820  143.4267  151.0757 LP  0  0  0  0  0  0  0  0  0  0  0  0  # atno 17343 bound_to 10162
  157.3732  131.0769  151.1540 LP  0  0  0  0  0  0  0  0  0  0  0  0  # atno 17370 bound_to 10713
  157.2287  130.6515  149.5840 LP  0  0  0  0  0  0  0  0  0  0  0  0  # atno 17371 bound_to 10713
  141.2223  133.7004  156.7946 LP  0  0  0  0  0  0  0  0  0  0  0  0  # atno 17394 bound_to 11000
  140.2257  134.8723  157.3424 LP  0  0  0  0  0  0  0  0  0  0  0  0  # atno 17395 bound_to 11000

$$$$
