AV-unprocessed.smi:703|AV-procd|sdf|3433|dock3
  -GOLD-   22720 0423D 1   1.00000     0.00000
 Structure written by MMmdl.
 38 39  0  0  0  0  0  0  0  0  2 V2000
  146.9820  133.0713  151.8135 C   0  0  0  0  0  0  0  0  0  0  0  0
  146.5769  133.8410  153.0779 C   0  0  0  0  0  0  0  0  0  0  0  0
  147.7056  134.6115  153.6518 N   0  3  2  0  0  0  0  0  0  0  0  0
  148.8324  133.7911  154.1476 C   0  0  0  0  0  0  0  0  0  0  0  0
  149.4914  134.6311  155.2404 C   0  0  2  0  0  0  0  0  0  0  0  0
  150.4366  133.8567  156.1741 C   0  0  0  0  0  0  0  0  0  0  0  0
  148.2986  135.3349  155.8995 C   0  0  2  0  0  0  0  0  0  0  0  0
  147.6881  134.4971  156.9394 N   0  0  0  0  0  0  0  0  0  0  0  0
  148.1736  134.5715  158.5940 S   0  0  0  0  0  0  0  0  0  0  0  0
  148.2006  133.1968  159.1174 O   0  0  0  0  0  0  0  0  0  0  0  0
  149.3814  135.4091  158.6400 O   0  0  0  0  0  0  0  0  0  0  0  0
  146.7947  135.5190  159.3827 C   0  0  0  0  0  0  0  0  0  0  0  0
  147.0705  135.7764  160.8382 C   0  0  0  0  0  0  0  0  0  0  0  0
  147.1923  134.8284  161.8919 C   0  0  0  0  0  0  0  0  0  0  0  0
  147.4302  135.6014  162.9917 C   0  0  0  0  0  0  0  0  0  0  0  0
  147.4465  136.9151  162.6541 O   0  0  0  0  0  0  0  0  0  0  0  0
  147.2078  137.0172  161.2790 N   0  0  0  0  0  0  0  0  0  0  0  0
  147.3136  135.5454  154.7358 C   0  0  0  0  0  0  0  0  0  0  0  0
  146.1197  132.5654  151.3786 H   0  0  0  0  0  0  0  0  0  0  0  0
  147.7329  132.3105  152.0277 H   0  0  0  0  0  0  0  0  0  0  0  0
  147.3879  133.7421  151.0560 H   0  0  0  0  0  0  0  0  0  0  0  0
  145.7760  134.5356  152.8207 H   0  0  0  0  0  0  0  0  0  0  0  0
  146.1726  133.1587  153.8271 H   0  0  0  0  0  0  0  0  0  0  0  0
  148.4547  132.8601  154.5739 H   0  0  0  0  0  0  0  0  0  0  0  0
  149.5252  133.5363  153.3450 H   0  0  0  0  0  0  0  0  0  0  0  0
  150.0833  135.4028  154.7447 H   0  0  0  0  0  0  0  0  0  0  0  0
  149.9332  133.0245  156.6665 H   0  0  0  0  0  0  0  0  0  0  0  0
  150.8422  134.5081  156.9477 H   0  0  0  0  0  0  0  0  0  0  0  0
  151.2777  133.4445  155.6163 H   0  0  0  0  0  0  0  0  0  0  0  0
  148.5963  136.2857  156.3415 H   0  0  0  0  0  0  0  0  0  0  0  0
  146.7743  134.0861  156.7496 H   0  0  0  0  0  0  0  0  0  0  0  0
  146.6920  136.4624  158.8456 H   0  0  0  0  0  0  0  0  0  0  0  0
  145.8675  134.9641  159.2421 H   0  0  0  0  0  0  0  0  0  0  0  0
  147.1170  133.7525  161.8488 H   0  0  0  0  0  0  0  0  0  0  0  0
  147.5975  135.3777  164.0349 H   0  0  0  0  0  0  0  0  0  0  0  0
  147.3960  136.5618  154.3500 H   0  0  0  0  0  0  0  0  0  0  0  0
  146.2762  135.4065  155.0454 H   0  0  0  0  0  0  0  0  0  0  0  0
  148.0758  135.1921  152.9129 H   0  0  0  0  0  0  0  0  0  0  0  0
  1  2  1  0  0  0  0
  1 19  1  0  0  0  0
  1 20  1  0  0  0  0
  1 21  1  0  0  0  0
  2  3  1  0  0  0  0
  2 22  1  0  0  0  0
  2 23  1  0  0  0  0
  3 18  1  0  0  0  0
  3  4  1  0  0  0  0
  3 38  1  0  0  0  0
  4  5  1  0  0  0  0
  4 24  1  0  0  0  0
  4 25  1  0  0  0  0
  5  6  1  0  0  0  0
  5  7  1  0  0  0  0
  5 26  1  0  0  0  0
  6 27  1  0  0  0  0
  6 28  1  0  0  0  0
  6 29  1  0  0  0  0
  7  8  1  0  0  0  0
  7 18  1  0  0  0  0
  7 30  1  0  0  0  0
  8  9  1  0  0  0  0
  8 31  1  0  0  0  0
  9 10  2  0  0  0  0
  9 11  2  0  0  0  0
  9 12  1  0  0  0  0
 12 13  1  0  0  0  0
 12 32  1  0  0  0  0
 12 33  1  0  0  0  0
 13 17  2  0  0  0  0
 13 14  1  0  0  0  0
 14 15  2  0  0  0  0
 14 34  1  0  0  0  0
 15 16  1  0  0  0  0
 15 35  1  0  0  0  0
 16 17  1  0  0  0  0
 18 36  1  0  0  0  0
 18 37  1  0  0  0  0
M  CHG  1   3   1
M  END
> <s_m_source_file>
AV-unprocessed.smi

> <i_m_source_file_index>
703

> <i_lp_mmshare_version>
43012

> <i_f3d_flags>
0

> <s_epik_input>
W0NIM11bQ0gyXU4xW0NIMl1bQ0BASF0oW0NIM10pW0NASF0oW0NIMl0xKVtOSF1TKD1PKSg9TylbQ0gyXWMyW2NIXVtjSF1vbjI=

> <s_epik_cmdline>
J2VwaWtfcHl0aG9uJywgJy1waCcsICc3LjAnLCAnLXRuJywgJzgnLCAnLW1hJywgJzIwMCcsICctbWV0YWxfYmluZGluZycsICctaW1hZScsICc8aW5maWxlLm1hZT4nLCAnLW9tYWUnLCAnPG91dGZpbGUubWFlPic=

> <r_epik_Ionization_Penalty>
0.00324529

> <r_epik_Ionization_Penalty_Charging>
0.0019384

> <r_epik_Ionization_Penalty_Neutral>
0.00130689

> <r_epik_State_Penalty>
0.00218682

> <r_epik_Charging_Adjusted_Penalty>
0.00412522

> <i_epik_Tot_Q>
1

> <i_epik_Tot_abs_Q>
1

> <r_epik_Metal_State_Penalty>
0.310831

> <b_epik_Metal_Only>
0

> <s_lp_Force_Field>
OPLS_2005

> <r_lp_Energy>
18.8873

> <b_lp_Chiralities_Consistent>
1

> <s_lp_Variant>
AV-unprocessed.smi:703-8

> <Gold.Version>
5.8.1

> <Gold.Id.Protein>
6NUR|6NUR_protein|mol2

> <Gold.PLP.Fitness>
40.1547

> <Gold.PLP.PLP>
-28.9869

> <Gold.PLP.part.hbond>
-5.7426

> <Gold.PLP.part.metal>
0.0000

> <Gold.PLP.part.buried>
-3.9896

> <Gold.PLP.part.nonpolar>
-19.4763

> <Gold.PLP.part.repulsive>
0.0106

> <Gold.PLP.ligand.clash>
0.0000

> <Gold.PLP.ligand.torsion>
0.9820

> <Gold.PLP.Chemscore.Hbond>
3.9920

> <Gold.PLP.Chemscore.CHOScore>
0.0000

> <Gold.PLP.Chemscore.Metal>
0.0000

> <Gold.Chemscore.Hbonds>
donor molecule, donor type, donor heavy atom, donor atom, acceptor molecule, acceptor atom, score
      L1  H     3    38       P1  7948  2.00
      P1  H  6896  6908       L1    11  1.00
      P1  H  6934  6947       L1    17  0.99

> <Gold.PLP.Chemscore.Internal.Correction>
1.1557

> <Gold.Rescore>
     Score         DG    S(hbond)    S(metal)    S(lipo)     H(rot)  DE(clash)    DE(int)     intcor
     16.12     -17.13       2.85        0.00      54.98       1.68       0.00       1.01       ----

> <Gold.Chemscore.Fitness>
16.1163

> <Gold.Chemscore.DG>
-17.1251

> <Gold.Chemscore.ZeroCoef>
-5.4800

> <Gold.Chemscore.Hbond>
2.8459

> <Gold.Chemscore.Metal>
0.0000

> <Gold.Chemscore.Lipo>
54.9836

> <Gold.Chemscore.Internal_Hbond>
0.0000

> <Gold.Chemscore.DEClash>
0.0000

> <Gold.Chemscore.DEInternal>
1.0088

> <Gold.Chemscore.Rot>
1.6770

> <Gold.Chemscore.Internal.Correction>
   9.000000E+99

> <Gold.Chemscore.Hbonds>
donor molecule, donor type, donor heavy atom, donor atom, acceptor molecule, acceptor atom, score
      L1  H     3    38       P1  7948  0.98
      P1  H  6896  6908       L1    11  0.88
      P1  H  6934  6947       L1    17  0.40

> <Gold.Chemscore.Hbond.Weighted>
-9.5052

> <Gold.Chemscore.Metal.Weighted>
-0.0000

> <Gold.Chemscore.Lipo.Weighted>
-6.4331

> <Gold.Chemscore.Internal_Hbond.Weighted>
0.0000

> <Gold.Chemscore.DEClash.Weighted>
0.0000

> <Gold.Chemscore.DEInternal.Weighted>
1.0088

> <Gold.Chemscore.Rot.Weighted>
4.2932

> <Gold.Chemscore.Internal.Correction.Weighted>
   9.000000E+99

> <Gold.Protein.RotatedTorsions>
[ 6907 6896 6895 6894 ] final  178.50 input  -60.11 | X-H torsion
[ 7974 7965 7964 7962 ] final  116.77 input  175.53 | X-H torsion
[ 8008 7997 7996 7995 ] final   54.27 input   59.86 | X-H torsion
[ 10167 10162 10161 10158 ] final  168.90 input  -65.29 | X-H torsion
[ 10718 10713 10712 10709 ] final -162.53 input   66.30 | X-H torsion
[ 10763 10752 10751 10750 ] final   11.08 input  -60.55 | X-H torsion
[ 11005 11000 10999 10996 ] final -165.80 input  -57.11 | X-H torsion

> <Gold.Protein.ActiveResidues>
 VAL166  LYS551  ARG553  GLY616  TRP617  ASP618  TYR619  PRO620  LYS621  CYS622 
 ASP623  PHE694  ASN695  SER759  ASP760  ASP761  ALA762  ILE779  LEU786  VAL792 
 PHE793  MET794  SER795  GLU796  ALA797  LYS798  CYS799  TRP800  GLU811  SER814 

> <Gold.Protein.RotatedAtoms>
  151.6869  133.3311  159.3232 H   0  0  0  0  0  0  0  0  0  0  0  0  # atno 6907 bound_to 6896
  150.7797  134.6732  159.6412 H   0  0  0  0  0  0  0  0  0  0  0  0  # atno 6908 bound_to 6896
  152.3850  134.6534  160.0181 H   0  0  0  0  0  0  0  0  0  0  0  0  # atno 6909 bound_to 6896
  145.1756  139.3078  143.4445 H   0  0  0  0  0  0  0  0  0  0  0  0  # atno 7974 bound_to 7965
  155.4819  140.3468  155.4341 H   0  0  0  0  0  0  0  0  0  0  0  0  # atno 8008 bound_to 7997
  156.1033  140.1441  156.9466 H   0  0  0  0  0  0  0  0  0  0  0  0  # atno 8009 bound_to 7997
  154.4708  140.0901  156.7117 H   0  0  0  0  0  0  0  0  0  0  0  0  # atno 8010 bound_to 7997
  139.4979  144.3765  151.9669 H   0  0  0  0  0  0  0  0  0  0  0  0  # atno 10167 bound_to 10162
  156.6117  130.8853  151.2938 H   0  0  0  0  0  0  0  0  0  0  0  0  # atno 10718 bound_to 10713
  153.1964  135.6850  153.8286 H   0  0  0  0  0  0  0  0  0  0  0  0  # atno 10763 bound_to 10752
  153.7568  135.3216  155.3331 H   0  0  0  0  0  0  0  0  0  0  0  0  # atno 10764 bound_to 10752
  154.8147  135.4694  154.0710 H   0  0  0  0  0  0  0  0  0  0  0  0  # atno 10765 bound_to 10752
  140.5716  134.5231  157.5163 H   0  0  0  0  0  0  0  0  0  0  0  0  # atno 11005 bound_to 11000
  146.3461  140.1917  142.8589 LP  0  0  0  0  0  0  0  0  0  0  0  0  # atno 17320 bound_to 7965
  145.0189  140.8777  143.5179 LP  0  0  0  0  0  0  0  0  0  0  0  0  # atno 17321 bound_to 7965
  140.3201  144.3438  150.6012 LP  0  0  0  0  0  0  0  0  0  0  0  0  # atno 17342 bound_to 10162
  140.5729  143.2179  151.7566 LP  0  0  0  0  0  0  0  0  0  0  0  0  # atno 17343 bound_to 10162
  157.7252  130.9613  150.1606 LP  0  0  0  0  0  0  0  0  0  0  0  0  # atno 17370 bound_to 10713
  156.2384  130.3688  149.8365 LP  0  0  0  0  0  0  0  0  0  0  0  0  # atno 17371 bound_to 10713
  139.9359  134.7876  156.0805 LP  0  0  0  0  0  0  0  0  0  0  0  0  # atno 17394 bound_to 11000
  141.1052  133.6662  156.2848 LP  0  0  0  0  0  0  0  0  0  0  0  0  # atno 17395 bound_to 11000

$$$$
