AV-unprocessed.smi:100|AV-procd|sdf|900|dock1
  -GOLD-   2262017393D 1   1.00000     0.00000
 Structure written by MMmdl.
 31 33  0  0  0  0  0  0  0  0  1 V2000
  152.5102  143.8681  161.9886 N   0  0  0  0  0  0  0  0  0  0  0  0
  151.8212  143.6999  160.8516 C   0  0  0  0  0  0  0  0  0  0  0  0
  150.7943  144.5421  160.5921 N   0  0  0  0  0  0  0  0  0  0  0  0
  150.0920  144.3940  159.4644 C   0  0  0  0  0  0  0  0  0  0  0  0
  150.2516  143.4904  158.4943 N   0  0  0  0  0  0  0  0  0  0  0  0
  151.2864  142.6395  158.7561 C   0  0  0  0  0  0  0  0  0  0  0  0
  152.1181  142.6821  159.9101 C   0  0  0  0  0  0  0  0  0  0  0  0
  153.0701  141.6743  159.8460 N   0  0  0  0  0  0  0  0  0  0  0  0
  152.8112  141.0712  158.7173 C   0  0  0  0  0  0  0  0  0  0  0  0
  151.7541  141.5832  157.9964 N   0  0  0  0  0  0  0  0  0  0  0  0
  151.2396  141.0846  156.6770 C   0  0  1  0  0  0  0  0  0  0  0  0
  152.1938  140.2588  156.0754 O   0  0  0  0  0  0  0  0  0  0  0  0
  151.6846  138.9329  155.9417 C   0  0  2  0  0  0  0  0  0  0  0  0
  152.3181  138.2183  154.7381 C   0  0  0  0  0  0  0  0  0  0  0  0
  151.6381  137.0088  154.4783 O   0  0  0  0  0  0  0  0  0  0  0  0
  150.1740  139.1440  155.8259 C   0  0  2  0  0  0  0  0  0  0  0  0
  149.8452  139.5367  154.5928 F   0  0  0  0  0  0  0  0  0  0  0  0
  149.9282  140.2826  156.7983 C   0  0  1  0  0  0  0  0  0  0  0  0
  149.6558  139.7904  158.0986 O   0  0  0  0  0  0  0  0  0  0  0  0
  153.2808  143.2523  162.2046 H   0  0  0  0  0  0  0  0  0  0  0  0
  152.2536  144.6061  162.6282 H   0  0  0  0  0  0  0  0  0  0  0  0
  149.2883  145.1002  159.3171 H   0  0  0  0  0  0  0  0  0  0  0  0
  153.3908  140.2260  158.3754 H   0  0  0  0  0  0  0  0  0  0  0  0
  151.1285  141.9833  156.0687 H   0  0  0  0  0  0  0  0  0  0  0  0
  151.8769  138.3701  156.8559 H   0  0  0  0  0  0  0  0  0  0  0  0
  152.2317  138.8390  153.8456 H   0  0  0  0  0  0  0  0  0  0  0  0
  153.3793  138.0291  154.9016 H   0  0  0  0  0  0  0  0  0  0  0  0
  150.8489  137.2048  153.9968 H   0  0  0  0  0  0  0  0  0  0  0  0
  149.5945  138.2464  156.0444 H   0  0  0  0  0  0  0  0  0  0  0  0
  149.0880  140.9068  156.4918 H   0  0  0  0  0  0  0  0  0  0  0  0
  150.0570  138.9391  158.1863 H   0  0  0  0  0  0  0  0  0  0  0  0
  1  2  1  0  0  0  0
  1 20  1  0  0  0  0
  1 21  1  0  0  0  0
  2  7  1  0  0  0  0
  2  3  2  0  0  0  0
  3  4  1  0  0  0  0
  4  5  2  0  0  0  0
  4 22  1  0  0  0  0
  5  6  1  0  0  0  0
  6 10  1  0  0  0  0
  6  7  2  0  0  0  0
  7  8  1  0  0  0  0
  8  9  2  0  0  0  0
  9 10  1  0  0  0  0
  9 23  1  0  0  0  0
 10 11  1  0  0  0  0
 11 18  1  0  0  0  0
 11 12  1  0  0  0  0
 11 24  1  0  0  0  0
 12 13  1  0  0  0  0
 13 14  1  0  0  0  0
 13 16  1  0  0  0  0
 13 25  1  0  0  0  0
 14 15  1  0  0  0  0
 14 26  1  0  0  0  0
 14 27  1  0  0  0  0
 15 28  1  0  0  0  0
 16 17  1  0  0  0  0
 16 18  1  0  0  0  0
 16 29  1  0  0  0  0
 18 19  1  0  0  0  0
 18 30  1  0  0  0  0
 19 31  1  0  0  0  0
M  END
> <s_m_source_file>
AV-unprocessed.smi

> <i_m_source_file_index>
100

> <i_lp_mmshare_version>
43012

> <i_f3d_flags>
0

> <s_epik_input>
bjFbY0hdbmMoW05IMl0pYyhjMTIpbltjSF1uMltDQEBIXTNPW0NAQEhdKFtDSDJdW09IXSlbQ0BIXShGKVtDQEhdM1tPSF0=

> <s_epik_cmdline>
J2VwaWtfcHl0aG9uJywgJy1waCcsICc3LjAnLCAnLXRuJywgJzgnLCAnLW1hJywgJzIwMCcsICctbWV0YWxfYmluZGluZycsICctaW1hZScsICc8aW5maWxlLm1hZT4nLCAnLW9tYWUnLCAnPG91dGZpbGUubWFlPic=

> <r_lp_tautomer_probability>
1

> <r_epik_Ionization_Penalty>
0.000750324

> <r_epik_Ionization_Penalty_Charging>
0

> <r_epik_Ionization_Penalty_Neutral>
0.000750324

> <r_epik_State_Penalty>
-0

> <r_epik_Charging_Adjusted_Penalty>
0

> <i_epik_Tot_Q>
0

> <i_epik_Tot_abs_Q>
0

> <r_epik_Metal_State_Penalty>
-0

> <b_epik_Metal_Only>
0

> <s_epik_Chemistry_Notes>
This compound contains an acetal/aminal-like group ( X-CH(R)-Y where X, Y are N, S, or O) that may be acid/base labile, releasing an aldehyde.

> <s_lp_Force_Field>
OPLS_2005

> <r_lp_Energy>
36.2821

> <b_lp_Chiralities_Consistent>
1

> <s_lp_Variant>
AV-unprocessed.smi:100-4

> <Gold.Version>
5.8.1

> <Gold.Id.Protein>
6NUR|6NUR_protein|mol2

> <Gold.PLP.Fitness>
38.5443

> <Gold.PLP.PLP>
-30.4758

> <Gold.PLP.part.hbond>
-2.4479

> <Gold.PLP.part.metal>
0.0000

> <Gold.PLP.part.buried>
-4.1286

> <Gold.PLP.part.nonpolar>
-23.4030

> <Gold.PLP.part.repulsive>
0.3939

> <Gold.PLP.ligand.clash>
0.0000

> <Gold.PLP.ligand.torsion>
0.4531

> <Gold.PLP.Chemscore.Hbond>
2.0000

> <Gold.PLP.Chemscore.CHOScore>
0.9897

> <Gold.PLP.Chemscore.Metal>
0.0000

> <Gold.Chemscore.Hbonds>
donor molecule, donor type, donor heavy atom, donor atom, acceptor molecule, acceptor atom, score
      P1  H  7997  8009       L1    12  0.70
      P1  H 10752 10763       L1    15  1.00
      L1  C     4    22       P1  8029  0.80

> <Gold.PLP.Chemscore.Internal.Correction>
0.0056

> <Gold.Rescore>
     Score         DG    S(hbond)    S(metal)    S(lipo)     H(rot)  DE(clash)    DE(int)     intcor
      5.98      -6.76       1.63        0.00      34.17       3.19       0.75       0.02       ----

> <Gold.Chemscore.Fitness>
5.9842

> <Gold.Chemscore.DG>
-6.7579

> <Gold.Chemscore.ZeroCoef>
-5.4800

> <Gold.Chemscore.Hbond>
1.6307

> <Gold.Chemscore.Metal>
0.0000

> <Gold.Chemscore.Lipo>
34.1708

> <Gold.Chemscore.Internal_Hbond>
0.0000

> <Gold.Chemscore.DEClash>
0.7523

> <Gold.Chemscore.DEInternal>
0.0213

> <Gold.Chemscore.Rot>
3.1901

> <Gold.Chemscore.Internal.Correction>
   9.000000E+99

> <Gold.Chemscore.Hbonds>
donor molecule, donor type, donor heavy atom, donor atom, acceptor molecule, acceptor atom, score
      P1  H  7997  8009       L1    12  0.49
      P1  H 10752 10763       L1    15  0.58

> <Gold.Chemscore.Hbond.Weighted>
-5.4466

> <Gold.Chemscore.Metal.Weighted>
-0.0000

> <Gold.Chemscore.Lipo.Weighted>
-3.9980

> <Gold.Chemscore.Internal_Hbond.Weighted>
0.0000

> <Gold.Chemscore.DEClash.Weighted>
0.7523

> <Gold.Chemscore.DEInternal.Weighted>
0.0213

> <Gold.Chemscore.Rot.Weighted>
8.1667

> <Gold.Chemscore.Internal.Correction.Weighted>
   9.000000E+99

> <Gold.Protein.RotatedTorsions>
[ 6907 6896 6895 6894 ] final  153.06 input  -60.11 | X-H torsion
[ 7974 7965 7964 7962 ] final -111.56 input  175.53 | X-H torsion
[ 8008 7997 7996 7995 ] final -157.18 input   59.86 | X-H torsion
[ 10167 10162 10161 10158 ] final -142.21 input  -65.29 | X-H torsion
[ 10718 10713 10712 10709 ] final -130.12 input   66.30 | X-H torsion
[ 10763 10752 10751 10750 ] final   57.93 input  -60.55 | X-H torsion
[ 11005 11000 10999 10996 ] final  151.40 input  -57.11 | X-H torsion

> <Gold.Protein.ActiveResidues>
 VAL166  LYS551  ARG553  GLY616  TRP617  ASP618  TYR619  PRO620  LYS621  CYS622 
 ASP623  PHE694  ASN695  SER759  ASP760  ASP761  ALA762  ILE779  LEU786  VAL792 
 PHE793  MET794  SER795  GLU796  ALA797  LYS798  CYS799  TRP800  GLU811  SER814 

> <Gold.Protein.RotatedAtoms>
  152.0780  133.4138  159.4488 H   0  0  0  0  0  0  0  0  0  0  0  0  # atno 6907 bound_to 6896
  150.6862  134.3015  159.4717 H   0  0  0  0  0  0  0  0  0  0  0  0  # atno 6908 bound_to 6896
  152.0854  134.9442  160.0623 H   0  0  0  0  0  0  0  0  0  0  0  0  # atno 6909 bound_to 6896
  145.1546  140.8847  143.3626 H   0  0  0  0  0  0  0  0  0  0  0  0  # atno 7974 bound_to 7965
  155.7286  140.0799  157.2299 H   0  0  0  0  0  0  0  0  0  0  0  0  # atno 8008 bound_to 7997
  154.4036  140.1599  156.2537 H   0  0  0  0  0  0  0  0  0  0  0  0  # atno 8009 bound_to 7997
  155.9130  140.3402  155.6116 H   0  0  0  0  0  0  0  0  0  0  0  0  # atno 8010 bound_to 7997
  139.8110  143.7702  152.2663 H   0  0  0  0  0  0  0  0  0  0  0  0  # atno 10167 bound_to 10162
  156.2113  130.6920  151.0653 H   0  0  0  0  0  0  0  0  0  0  0  0  # atno 10718 bound_to 10713
  152.9860  135.5624  154.5470 H   0  0  0  0  0  0  0  0  0  0  0  0  # atno 10763 bound_to 10752
  154.4914  135.2793  155.1495 H   0  0  0  0  0  0  0  0  0  0  0  0  # atno 10764 bound_to 10752
  154.2963  135.6316  153.5459 H   0  0  0  0  0  0  0  0  0  0  0  0  # atno 10765 bound_to 10752
  140.1216  134.8860  157.2079 H   0  0  0  0  0  0  0  0  0  0  0  0  # atno 11005 bound_to 11000
  145.0395  139.3272  143.5984 LP  0  0  0  0  0  0  0  0  0  0  0  0  # atno 17320 bound_to 7965
  146.3490  139.9763  142.8700 LP  0  0  0  0  0  0  0  0  0  0  0  0  # atno 17321 bound_to 7965
  139.7851  144.7430  151.0033 LP  0  0  0  0  0  0  0  0  0  0  0  0  # atno 17342 bound_to 10162
  140.7818  143.4500  151.0426 LP  0  0  0  0  0  0  0  0  0  0  0  0  # atno 17343 bound_to 10162
  157.7040  131.0764  150.6728 LP  0  0  0  0  0  0  0  0  0  0  0  0  # atno 17370 bound_to 10713
  156.6788  130.4561  149.5634 LP  0  0  0  0  0  0  0  0  0  0  0  0  # atno 17371 bound_to 10713
  140.2958  134.3188  155.7303 LP  0  0  0  0  0  0  0  0  0  0  0  0  # atno 17394 bound_to 11000
  141.2153  133.7562  156.9569 LP  0  0  0  0  0  0  0  0  0  0  0  0  # atno 17395 bound_to 11000

$$$$
