AV-unprocessed.smi:899|AV-procd|sdf|4087|dock9
  -GOLD-   22720 1573D 1   1.00000     0.00000
 Structure written by MMmdl.
 33 34  0  0  0  0  0  0  0  0  1 V2000
  150.7220  142.2904  156.4886 N   0  0  0  0  0  0  0  0  0  0  0  0
  151.1773  143.0864  157.1939 C   0  0  0  0  0  0  0  0  0  0  0  0
  151.7557  144.0985  158.0908 C   0  0  0  0  0  0  0  0  0  0  0  0
  152.3794  143.4779  159.3238 C   0  0  0  0  0  0  0  0  0  0  0  0
  152.9919  142.2121  159.2438 C   0  0  0  0  0  0  0  0  0  0  0  0
  153.5740  141.6359  160.3891 C   0  0  0  0  0  0  0  0  0  0  0  0
  153.5561  142.3114  161.6267 C   0  0  0  0  0  0  0  0  0  0  0  0
  154.1542  141.6765  162.6940 O   0  0  0  0  0  0  0  0  0  0  0  0
  154.3896  142.4273  163.8767 C   0  0  0  0  0  0  0  0  0  0  0  0
  155.3772  141.6491  164.7600 C   0  0  0  0  0  0  0  0  0  0  0  0
  155.7134  142.3474  165.9759 N   0  0  0  0  0  0  0  0  0  0  0  0
  155.3916  141.8540  167.2309 C   0  0  0  0  0  0  0  0  0  0  0  0
  155.6850  142.5054  168.3823 C   0  0  0  0  0  0  0  0  0  0  0  0
  155.2509  141.8254  169.9098 Cl  0  0  0  0  0  0  0  0  0  0  0  0
  156.3717  143.7961  168.3385 C   0  0  0  0  0  0  0  0  0  0  0  0
  156.6869  144.4689  169.3179 O   0  0  0  0  0  0  0  0  0  0  0  0
  156.6689  144.2577  167.0525 N   0  0  0  0  0  0  0  0  0  0  0  0
  156.3687  143.5950  165.8619 C   0  0  0  0  0  0  0  0  0  0  0  0
  156.6724  144.1035  164.7826 O   0  0  0  0  0  0  0  0  0  0  0  0
  152.9346  143.5839  161.7006 C   0  0  0  0  0  0  0  0  0  0  0  0
  152.3514  144.1607  160.5556 C   0  0  0  0  0  0  0  0  0  0  0  0
  157.1392  145.1482  166.9790 H   0  0  0  0  0  0  0  0  0  0  0  0
  152.5094  144.6597  157.5379 H   0  0  0  0  0  0  0  0  0  0  0  0
  150.9684  144.7975  158.3741 H   0  0  0  0  0  0  0  0  0  0  0  0
  153.0163  141.6801  158.3039 H   0  0  0  0  0  0  0  0  0  0  0  0
  154.0414  140.6648  160.3159 H   0  0  0  0  0  0  0  0  0  0  0  0
  154.8007  143.4058  163.6235 H   0  0  0  0  0  0  0  0  0  0  0  0
  153.4538  142.5794  164.4170 H   0  0  0  0  0  0  0  0  0  0  0  0
  154.9494  140.6930  165.0655 H   0  0  0  0  0  0  0  0  0  0  0  0
  156.3098  141.4156  164.2417 H   0  0  0  0  0  0  0  0  0  0  0  0
  154.8795  140.9045  167.2996 H   0  0  0  0  0  0  0  0  0  0  0  0
  152.8921  144.1399  162.6248 H   0  0  0  0  0  0  0  0  0  0  0  0
  151.8823  145.1310  160.6270 H   0  0  0  0  0  0  0  0  0  0  0  0
  1  2  3  0  0  0  0
  2  3  1  0  0  0  0
  3  4  1  0  0  0  0
  3 23  1  0  0  0  0
  3 24  1  0  0  0  0
  4 21  1  0  0  0  0
  4  5  2  0  0  0  0
  5  6  1  0  0  0  0
  5 25  1  0  0  0  0
  6  7  2  0  0  0  0
  6 26  1  0  0  0  0
  7  8  1  0  0  0  0
  7 20  1  0  0  0  0
  8  9  1  0  0  0  0
  9 10  1  0  0  0  0
  9 27  1  0  0  0  0
  9 28  1  0  0  0  0
 10 11  1  0  0  0  0
 10 29  1  0  0  0  0
 10 30  1  0  0  0  0
 11 18  1  0  0  0  0
 11 12  1  0  0  0  0
 12 13  2  0  0  0  0
 12 31  1  0  0  0  0
 13 14  1  0  0  0  0
 13 15  1  0  0  0  0
 15 16  2  0  0  0  0
 15 17  1  0  0  0  0
 17 22  1  0  0  0  0
 17 18  1  0  0  0  0
 18 19  2  0  0  0  0
 20 21  2  0  0  0  0
 20 32  1  0  0  0  0
 21 33  1  0  0  0  0
M  END
> <s_m_source_file>
AV-unprocessed.smi

> <i_m_source_file_index>
899

> <i_lp_mmshare_version>
43012

> <i_f3d_flags>
0

> <s_epik_input>
TiNDW0NIMl1jMVtjSF1bY0hdYyhbY0hdW2NIXTEpT1tDSDJdW0NIMl1uMltjSF1jKENsKWMoPU8pW25IXWMyPU8=

> <s_epik_cmdline>
J2VwaWtfcHl0aG9uJywgJy1waCcsICc3LjAnLCAnLXRuJywgJzgnLCAnLW1hJywgJzIwMCcsICctbWV0YWxfYmluZGluZycsICctaW1hZScsICc8aW5maWxlLm1hZT4nLCAnLW9tYWUnLCAnPG91dGZpbGUubWFlPic=

> <r_lp_tautomer_probability>
0.999537

> <r_epik_Ionization_Penalty>
0.0457407

> <r_epik_Ionization_Penalty_Charging>
0.0457407

> <r_epik_Ionization_Penalty_Neutral>
1.03254e-10

> <r_epik_State_Penalty>
0.0388483

> <r_epik_Charging_Adjusted_Penalty>
0.0845889

> <i_epik_Tot_Q>
0

> <i_epik_Tot_abs_Q>
0

> <r_epik_Metal_State_Penalty>
2.50663

> <b_epik_Metal_Only>
0

> <s_lp_Force_Field>
OPLS_2005

> <r_lp_Energy>
13.2906

> <b_lp_Chiralities_Consistent>
1

> <s_lp_Variant>
AV-unprocessed.smi:899-1

> <Gold.Version>
5.8.1

> <Gold.Id.Protein>
6NUR|6NUR_protein|mol2

> <Gold.PLP.Fitness>
48.7732

> <Gold.PLP.PLP>
-49.8832

> <Gold.PLP.part.hbond>
-4.0000

> <Gold.PLP.part.metal>
0.0000

> <Gold.PLP.part.buried>
-4.1456

> <Gold.PLP.part.nonpolar>
-41.4858

> <Gold.PLP.part.repulsive>
0.4258

> <Gold.PLP.ligand.clash>
0.0000

> <Gold.PLP.ligand.torsion>
0.5624

> <Gold.PLP.Chemscore.Hbond>
0.0000

> <Gold.PLP.Chemscore.CHOScore>
0.0000

> <Gold.PLP.Chemscore.Metal>
0.0000

> <Gold.PLP.Chemscore.Internal.Correction>
0.0149

> <Gold.Rescore>
     Score         DG    S(hbond)    S(metal)    S(lipo)     H(rot)  DE(clash)    DE(int)     intcor
     10.10     -13.02       0.00        0.00     115.13       2.32       1.28       1.64       ----

> <Gold.Chemscore.Fitness>
10.1007

> <Gold.Chemscore.DG>
-13.0172

> <Gold.Chemscore.ZeroCoef>
-5.4800

> <Gold.Chemscore.Hbond>
0.0000

> <Gold.Chemscore.Metal>
0.0000

> <Gold.Chemscore.Lipo>
115.1252

> <Gold.Chemscore.Internal_Hbond>
0.0000

> <Gold.Chemscore.DEClash>
1.2774

> <Gold.Chemscore.DEInternal>
1.6392

> <Gold.Chemscore.Rot>
2.3174

> <Gold.Chemscore.Internal.Correction>
   9.000000E+99

> <Gold.Chemscore.Hbond.Weighted>
-0.0000

> <Gold.Chemscore.Metal.Weighted>
-0.0000

> <Gold.Chemscore.Lipo.Weighted>
-13.4697

> <Gold.Chemscore.Internal_Hbond.Weighted>
0.0000

> <Gold.Chemscore.DEClash.Weighted>
1.2774

> <Gold.Chemscore.DEInternal.Weighted>
1.6392

> <Gold.Chemscore.Rot.Weighted>
5.9324

> <Gold.Chemscore.Internal.Correction.Weighted>
   9.000000E+99

> <Gold.Protein.RotatedTorsions>
[ 6907 6896 6895 6894 ] final   99.39 input  -60.11 | X-H torsion
[ 7974 7965 7964 7962 ] final    0.08 input  175.53 | X-H torsion
[ 8008 7997 7996 7995 ] final   63.54 input   59.86 | X-H torsion
[ 10167 10162 10161 10158 ] final  170.21 input  -65.29 | X-H torsion
[ 10718 10713 10712 10709 ] final -162.25 input   66.30 | X-H torsion
[ 10763 10752 10751 10750 ] final   79.76 input  -60.55 | X-H torsion
[ 11005 11000 10999 10996 ] final   66.95 input  -57.11 | X-H torsion

> <Gold.Protein.ActiveResidues>
 VAL166  LYS551  ARG553  GLY616  TRP617  ASP618  TYR619  PRO620  LYS621  CYS622 
 ASP623  PHE694  ASN695  SER759  ASP760  ASP761  ALA762  ILE779  LEU786  VAL792 
 PHE793  MET794  SER795  GLU796  ALA797  LYS798  CYS799  TRP800  GLU811  SER814 

> <Gold.Protein.RotatedAtoms>
  152.5393  134.0436  159.8078 H   0  0  0  0  0  0  0  0  0  0  0  0  # atno 6907 bound_to 6896
  151.0588  133.5554  159.2643 H   0  0  0  0  0  0  0  0  0  0  0  0  # atno 6908 bound_to 6896
  151.2460  135.0613  159.9097 H   0  0  0  0  0  0  0  0  0  0  0  0  # atno 6909 bound_to 6896
  146.2431  140.1191  142.8341 H   0  0  0  0  0  0  0  0  0  0  0  0  # atno 7974 bound_to 7965
  155.6318  140.3496  155.4685 H   0  0  0  0  0  0  0  0  0  0  0  0  # atno 8008 bound_to 7997
  155.9997  140.1210  157.0583 H   0  0  0  0  0  0  0  0  0  0  0  0  # atno 8009 bound_to 7997
  154.4245  140.1103  156.5666 H   0  0  0  0  0  0  0  0  0  0  0  0  # atno 8010 bound_to 7997
  139.5012  144.3621  151.9813 H   0  0  0  0  0  0  0  0  0  0  0  0  # atno 10167 bound_to 10162
  156.6078  130.8837  151.2929 H   0  0  0  0  0  0  0  0  0  0  0  0  # atno 10718 bound_to 10713
  153.0979  135.4828  154.8812 H   0  0  0  0  0  0  0  0  0  0  0  0  # atno 10763 bound_to 10752
  154.7345  135.3068  154.8837 H   0  0  0  0  0  0  0  0  0  0  0  0  # atno 10764 bound_to 10752
  153.9463  135.6828  153.4797 H   0  0  0  0  0  0  0  0  0  0  0  0  # atno 10765 bound_to 10752
  139.9800  134.6759  156.0280 H   0  0  0  0  0  0  0  0  0  0  0  0  # atno 11005 bound_to 11000
  145.0421  140.8953  143.5046 LP  0  0  0  0  0  0  0  0  0  0  0  0  # atno 17320 bound_to 7965
  145.1274  139.2654  143.5557 LP  0  0  0  0  0  0  0  0  0  0  0  0  # atno 17321 bound_to 7965
  140.3058  144.3595  150.6047 LP  0  0  0  0  0  0  0  0  0  0  0  0  # atno 17342 bound_to 10162
  140.5838  143.2171  151.7380 LP  0  0  0  0  0  0  0  0  0  0  0  0  # atno 17343 bound_to 10162
  157.7262  130.9627  150.1648 LP  0  0  0  0  0  0  0  0  0  0  0  0  # atno 17370 bound_to 10713
  156.2415  130.3691  149.8332 LP  0  0  0  0  0  0  0  0  0  0  0  0  # atno 17371 bound_to 10713
  141.1473  133.6554  156.3906 LP  0  0  0  0  0  0  0  0  0  0  0  0  # atno 17394 bound_to 11000
  140.5116  134.6390  157.5286 LP  0  0  0  0  0  0  0  0  0  0  0  0  # atno 17395 bound_to 11000

$$$$
