AV-unprocessed.smi:1212|AV-procd|sdf|5082|dock6
  -GOLD-   22720 4133D 1   1.00000     0.00000
 Structure written by MMmdl.
 39 40  0  0  0  0  0  0  0  0  1 V2000
  145.5090  129.8502  152.2091 C   0  0  0  0  0  0  0  0  0  0  0  0
  146.4591  130.8263  152.8148 C   0  0  0  0  0  0  0  0  0  0  0  0
  147.2477  130.5231  153.8534 N   0  0  0  0  0  0  0  0  0  0  0  0
  148.0436  131.5931  154.2397 N   0  0  0  0  0  0  0  0  0  0  0  0
  147.8318  132.6744  153.4768 C   0  0  0  0  0  0  0  0  0  0  0  0
  148.5097  133.9097  153.6517 N   0  0  0  0  0  0  0  0  0  0  0  0
  149.2366  134.3206  154.7059 C   0  0  0  0  0  0  0  0  0  0  0  0
  149.4390  133.6676  155.7301 O   0  0  0  0  0  0  0  0  0  0  0  0
  149.7265  135.5527  154.5069 N   0  0  0  0  0  0  0  0  0  0  0  0
  150.5627  136.2818  155.4525 C   0  0  0  0  0  0  0  0  0  0  0  0
  151.5254  137.2442  154.7322 C   0  0  0  0  0  0  0  0  0  0  0  0
  151.1923  138.6438  155.0263 N   0  0  0  0  0  0  0  0  0  0  0  0
  149.8874  139.1199  154.5379 C   0  0  0  0  0  0  0  0  0  0  0  0
  148.8577  139.3799  155.6625 C   0  0  0  0  0  0  0  0  0  0  0  0
  149.4288  139.8027  157.0306 C   0  0  0  0  0  0  0  0  0  0  0  0
  150.4001  141.0009  156.9907 C   0  0  0  0  0  0  0  0  0  0  0  0
  151.5957  140.8871  156.0152 C   0  0  0  0  0  0  0  0  0  0  0  0
  152.0376  139.4440  155.7218 C   0  0  0  0  0  0  0  0  0  0  0  0
  153.1353  139.0658  156.1320 O   0  0  0  0  0  0  0  0  0  0  0  0
  146.6315  132.4702  152.2121 S   0  0  0  0  0  0  0  0  0  0  0  0
  145.3430  129.0073  152.8809 H   0  0  0  0  0  0  0  0  0  0  0  0
  145.9107  129.4746  151.2681 H   0  0  0  0  0  0  0  0  0  0  0  0
  144.5512  130.3327  152.0139 H   0  0  0  0  0  0  0  0  0  0  0  0
  148.4329  134.5573  152.8815 H   0  0  0  0  0  0  0  0  0  0  0  0
  149.5093  136.0195  153.6385 H   0  0  0  0  0  0  0  0  0  0  0  0
  149.9373  136.8266  156.1618 H   0  0  0  0  0  0  0  0  0  0  0  0
  151.1240  135.5516  156.0360 H   0  0  0  0  0  0  0  0  0  0  0  0
  152.5543  137.0342  155.0302 H   0  0  0  0  0  0  0  0  0  0  0  0
  151.5007  137.0615  153.6575 H   0  0  0  0  0  0  0  0  0  0  0  0
  150.0348  140.0288  153.9543 H   0  0  0  0  0  0  0  0  0  0  0  0
  149.4508  138.4190  153.8259 H   0  0  0  0  0  0  0  0  0  0  0  0
  148.1423  140.1270  155.3180 H   0  0  0  0  0  0  0  0  0  0  0  0
  148.2784  138.4685  155.8157 H   0  0  0  0  0  0  0  0  0  0  0  0
  148.6005  140.0433  157.6976 H   0  0  0  0  0  0  0  0  0  0  0  0
  149.9236  138.9484  157.4948 H   0  0  0  0  0  0  0  0  0  0  0  0
  149.8385  141.9031  156.7463 H   0  0  0  0  0  0  0  0  0  0  0  0
  150.7842  141.1612  157.9987 H   0  0  0  0  0  0  0  0  0  0  0  0
  151.3607  141.3842  155.0743 H   0  0  0  0  0  0  0  0  0  0  0  0
  152.4412  141.4446  156.4200 H   0  0  0  0  0  0  0  0  0  0  0  0
  1  2  1  0  0  0  0
  1 21  1  0  0  0  0
  1 22  1  0  0  0  0
  1 23  1  0  0  0  0
  2 20  1  0  0  0  0
  2  3  2  0  0  0  0
  3  4  1  0  0  0  0
  4  5  2  0  0  0  0
  5  6  1  0  0  0  0
  5 20  1  0  0  0  0
  6  7  1  0  0  0  0
  6 24  1  0  0  0  0
  7  8  2  0  0  0  0
  7  9  1  0  0  0  0
  9 10  1  0  0  0  0
  9 25  1  0  0  0  0
 10 11  1  0  0  0  0
 10 26  1  0  0  0  0
 10 27  1  0  0  0  0
 11 12  1  0  0  0  0
 11 28  1  0  0  0  0
 11 29  1  0  0  0  0
 12 18  1  0  0  0  0
 12 13  1  0  0  0  0
 13 14  1  0  0  0  0
 13 30  1  0  0  0  0
 13 31  1  0  0  0  0
 14 15  1  0  0  0  0
 14 32  1  0  0  0  0
 14 33  1  0  0  0  0
 15 16  1  0  0  0  0
 15 34  1  0  0  0  0
 15 35  1  0  0  0  0
 16 17  1  0  0  0  0
 16 36  1  0  0  0  0
 16 37  1  0  0  0  0
 17 18  1  0  0  0  0
 17 38  1  0  0  0  0
 17 39  1  0  0  0  0
 18 19  2  0  0  0  0
M  END
> <s_m_source_file>
AV-unprocessed.smi

> <i_m_source_file_index>
1212

> <i_lp_mmshare_version>
43012

> <i_f3d_flags>
0

> <s_epik_input>
W0NIM11jMW5uYyhzMSlbTkhdQyg9TylbTkhdW0NIMl1bQ0gyXU4yW0NIMl1bQ0gyXVtDSDJdW0NIMl1bQ0gyXUMyPU8=

> <s_epik_cmdline>
J2VwaWtfcHl0aG9uJywgJy1waCcsICc3LjAnLCAnLXRuJywgJzgnLCAnLW1hJywgJzIwMCcsICctbWV0YWxfYmluZGluZycsICctaW1hZScsICc8aW5maWxlLm1hZT4nLCAnLW9tYWUnLCAnPG91dGZpbGUubWFlPic=

> <r_lp_tautomer_probability>
1

> <r_epik_Ionization_Penalty>
0.00255187

> <r_epik_Ionization_Penalty_Charging>
0

> <r_epik_Ionization_Penalty_Neutral>
0.00255187

> <r_epik_State_Penalty>
-0

> <r_epik_Charging_Adjusted_Penalty>
0

> <i_epik_Tot_Q>
0

> <i_epik_Tot_abs_Q>
0

> <r_epik_Metal_State_Penalty>
0.352847

> <b_epik_Metal_Only>
0

> <s_lp_Force_Field>
OPLS_2005

> <r_lp_Energy>
20.0291

> <b_lp_Chiralities_Consistent>
1

> <s_lp_Variant>
AV-unprocessed.smi:1212-1

> <Gold.Version>
5.8.1

> <Gold.Id.Protein>
6NUR|6NUR_protein|mol2

> <Gold.PLP.Fitness>
41.2715

> <Gold.PLP.PLP>
-33.7814

> <Gold.PLP.part.hbond>
-3.4891

> <Gold.PLP.part.metal>
0.0000

> <Gold.PLP.part.buried>
-3.4105

> <Gold.PLP.part.nonpolar>
-26.9851

> <Gold.PLP.part.repulsive>
0.2396

> <Gold.PLP.ligand.clash>
0.0000

> <Gold.PLP.ligand.torsion>
0.6264

> <Gold.PLP.Chemscore.Hbond>
2.9120

> <Gold.PLP.Chemscore.CHOScore>
0.0000

> <Gold.PLP.Chemscore.Metal>
0.0000

> <Gold.Chemscore.Hbonds>
donor molecule, donor type, donor heavy atom, donor atom, acceptor molecule, acceptor atom, score
      L1  H     6    24       P1  7948  1.00
      L1  H     9    25       P1  7948  1.00
      P1  H  7997  8008       L1    19  1.00

> <Gold.PLP.Chemscore.Internal.Correction>
0.0069

> <Gold.Rescore>
     Score         DG    S(hbond)    S(metal)    S(lipo)     H(rot)  DE(clash)    DE(int)     intcor
     14.15     -15.95       2.59        0.00      51.77       1.65       0.05       1.75       ----

> <Gold.Chemscore.Fitness>
14.1502

> <Gold.Chemscore.DG>
-15.9518

> <Gold.Chemscore.ZeroCoef>
-5.4800

> <Gold.Chemscore.Hbond>
2.5896

> <Gold.Chemscore.Metal>
0.0000

> <Gold.Chemscore.Lipo>
51.7745

> <Gold.Chemscore.Internal_Hbond>
0.0000

> <Gold.Chemscore.DEClash>
0.0531

> <Gold.Chemscore.DEInternal>
1.7486

> <Gold.Chemscore.Rot>
1.6544

> <Gold.Chemscore.Internal.Correction>
   9.000000E+99

> <Gold.Chemscore.Hbonds>
donor molecule, donor type, donor heavy atom, donor atom, acceptor molecule, acceptor atom, score
      L1  H     6    24       P1  7948  0.28
      L1  H     9    25       P1  7948  0.50
      P1  H  7997  8008       L1    19  0.97

> <Gold.Chemscore.Hbond.Weighted>
-8.6494

> <Gold.Chemscore.Metal.Weighted>
-0.0000

> <Gold.Chemscore.Lipo.Weighted>
-6.0576

> <Gold.Chemscore.Internal_Hbond.Weighted>
0.0000

> <Gold.Chemscore.DEClash.Weighted>
0.0531

> <Gold.Chemscore.DEInternal.Weighted>
1.7486

> <Gold.Chemscore.Rot.Weighted>
4.2352

> <Gold.Chemscore.Internal.Correction.Weighted>
   9.000000E+99

> <Gold.Protein.RotatedTorsions>
[ 6907 6896 6895 6894 ] final -115.24 input  -60.11 | X-H torsion
[ 7974 7965 7964 7962 ] final  151.55 input  175.53 | X-H torsion
[ 8008 7997 7996 7995 ] final  -48.02 input   59.86 | X-H torsion
[ 10167 10162 10161 10158 ] final  -68.03 input  -65.29 | X-H torsion
[ 10718 10713 10712 10709 ] final   94.44 input   66.30 | X-H torsion
[ 10763 10752 10751 10750 ] final  125.30 input  -60.55 | X-H torsion
[ 11005 11000 10999 10996 ] final    1.67 input  -57.11 | X-H torsion

> <Gold.Protein.ActiveResidues>
 VAL166  LYS551  ARG553  GLY616  TRP617  ASP618  TYR619  PRO620  LYS621  CYS622 
 ASP623  PHE694  ASN695  SER759  ASP760  ASP761  ALA762  ILE779  LEU786  VAL792 
 PHE793  MET794  SER795  GLU796  ALA797  LYS798  CYS799  TRP800  GLU811  SER814 

> <Gold.Protein.RotatedAtoms>
  150.7963  133.8686  159.3252 H   0  0  0  0  0  0  0  0  0  0  0  0  # atno 6907 bound_to 6896
  151.6511  135.0999  160.0170 H   0  0  0  0  0  0  0  0  0  0  0  0  # atno 6908 bound_to 6896
  152.4045  133.6828  159.6379 H   0  0  0  0  0  0  0  0  0  0  0  0  # atno 6909 bound_to 6896
  144.8285  139.6552  143.6069 H   0  0  0  0  0  0  0  0  0  0  0  0  # atno 7974 bound_to 7965
  154.4023  140.1332  156.4271 H   0  0  0  0  0  0  0  0  0  0  0  0  # atno 8008 bound_to 7997
  155.7587  140.3486  155.5166 H   0  0  0  0  0  0  0  0  0  0  0  0  # atno 8009 bound_to 7997
  155.8880  140.0998  157.1429 H   0  0  0  0  0  0  0  0  0  0  0  0  # atno 8010 bound_to 7997
  140.5538  143.2312  151.6859 H   0  0  0  0  0  0  0  0  0  0  0  0  # atno 10167 bound_to 10162
  157.6948  131.0512  150.4187 H   0  0  0  0  0  0  0  0  0  0  0  0  # atno 10718 bound_to 10713
  153.6752  135.3323  155.3164 H   0  0  0  0  0  0  0  0  0  0  0  0  # atno 10763 bound_to 10752
  154.8480  135.4396  154.1664 H   0  0  0  0  0  0  0  0  0  0  0  0  # atno 10764 bound_to 10752
  153.2665  135.6996  153.7600 H   0  0  0  0  0  0  0  0  0  0  0  0  # atno 10765 bound_to 10752
  140.6128  133.9732  155.8186 H   0  0  0  0  0  0  0  0  0  0  0  0  # atno 11005 bound_to 11000
  146.2589  139.6365  142.9376 LP  0  0  0  0  0  0  0  0  0  0  0  0  # atno 17320 bound_to 7965
  145.4948  141.0438  143.2573 LP  0  0  0  0  0  0  0  0  0  0  0  0  # atno 17321 bound_to 7965
  139.5039  144.3774  152.0410 LP  0  0  0  0  0  0  0  0  0  0  0  0  # atno 17342 bound_to 10162
  140.2893  144.3771  150.6093 LP  0  0  0  0  0  0  0  0  0  0  0  0  # atno 17343 bound_to 10162
  156.4564  130.4022  149.6603 LP  0  0  0  0  0  0  0  0  0  0  0  0  # atno 17370 bound_to 10713
  156.3734  130.7542  151.2528 LP  0  0  0  0  0  0  0  0  0  0  0  0  # atno 17371 bound_to 10713
  141.0796  134.0083  157.3406 LP  0  0  0  0  0  0  0  0  0  0  0  0  # atno 17394 bound_to 11000
  139.9185  135.0199  156.7974 LP  0  0  0  0  0  0  0  0  0  0  0  0  # atno 17395 bound_to 11000

$$$$
