AV-unprocessed.smi:1326|AV-procd|sdf|5475|dock10
  -GOLD-   22720 5 43D 1   1.00000     0.00000
 Structure written by MMmdl.
 39 39  0  0  0  0  0  0  0  0  1 V2000
  151.0340  143.3422  157.6795 C   0  0  0  0  0  0  0  0  0  0  0  0
  151.0031  142.0549  156.8848 C   0  0  0  0  0  0  0  0  0  0  0  0
  149.9736  141.9969  155.9602 N   0  0  0  0  0  0  0  0  0  0  0  0
  149.8674  140.8593  155.1796 C   0  0  0  0  0  0  0  0  0  0  0  0
  148.7151  140.8789  154.1907 C   0  0  0  0  0  0  0  0  0  0  0  0
  150.7406  139.8292  155.3165 C   0  0  0  0  0  0  0  0  0  0  0  0
  150.6584  138.5580  154.4721 C   0  0  0  0  0  0  0  0  0  0  0  0
  150.3652  137.2667  155.2385 C   0  0  0  0  0  0  0  0  0  0  0  0
  150.7375  137.1463  156.4054 O   0  0  0  0  0  0  0  0  0  0  0  0
  149.6869  136.3160  154.5769 N   0  0  0  0  0  0  0  0  0  0  0  0
  149.2893  135.0281  155.1321 C   0  0  0  0  0  0  0  0  0  0  0  0
  149.4918  133.8947  154.1100 C   0  0  0  0  0  0  0  0  0  0  0  0
  149.2595  132.4810  154.6810 C   0  0  0  0  0  0  0  0  0  0  0  0
  150.3780  132.0425  155.6414 C   0  0  0  0  0  0  0  0  0  0  0  0
  149.0976  131.4588  153.5454 C   0  0  0  0  0  0  0  0  0  0  0  0
  151.8166  139.9460  156.3295 C   0  0  0  0  0  0  0  0  0  0  0  0
  152.6284  139.0402  156.5144 O   0  0  0  0  0  0  0  0  0  0  0  0
  151.8848  141.1243  157.0906 N   0  0  0  0  0  0  0  0  0  0  0  0
  149.3034  142.7402  155.8246 H   0  0  0  0  0  0  0  0  0  0  0  0
  151.7858  143.2957  158.4685 H   0  0  0  0  0  0  0  0  0  0  0  0
  150.0651  143.5275  158.1443 H   0  0  0  0  0  0  0  0  0  0  0  0
  151.2735  144.1833  157.0280 H   0  0  0  0  0  0  0  0  0  0  0  0
  148.0404  140.0427  154.3745 H   0  0  0  0  0  0  0  0  0  0  0  0
  149.0880  140.8038  153.1694 H   0  0  0  0  0  0  0  0  0  0  0  0
  148.1342  141.7987  154.2677 H   0  0  0  0  0  0  0  0  0  0  0  0
  151.5725  138.4149  153.8950 H   0  0  0  0  0  0  0  0  0  0  0  0
  149.8799  138.6939  153.7206 H   0  0  0  0  0  0  0  0  0  0  0  0
  149.4185  136.5031  153.6213 H   0  0  0  0  0  0  0  0  0  0  0  0
  149.8949  134.8544  156.0208 H   0  0  0  0  0  0  0  0  0  0  0  0
  148.2507  135.0643  155.4650 H   0  0  0  0  0  0  0  0  0  0  0  0
  148.8032  134.0523  153.2786 H   0  0  0  0  0  0  0  0  0  0  0  0
  150.4946  133.9588  153.6851 H   0  0  0  0  0  0  0  0  0  0  0  0
  148.3231  132.4920  155.2403 H   0  0  0  0  0  0  0  0  0  0  0  0
  151.3511  132.0557  155.1493 H   0  0  0  0  0  0  0  0  0  0  0  0
  150.2052  131.0297  156.0064 H   0  0  0  0  0  0  0  0  0  0  0  0
  150.4365  132.6907  156.5153 H   0  0  0  0  0  0  0  0  0  0  0  0
  149.9966  131.4047  152.9303 H   0  0  0  0  0  0  0  0  0  0  0  0
  148.2642  131.7222  152.8934 H   0  0  0  0  0  0  0  0  0  0  0  0
  148.9022  130.4604  153.9376 H   0  0  0  0  0  0  0  0  0  0  0  0
  1 20  1  0  0  0  0
  1 21  1  0  0  0  0
  1 22  1  0  0  0  0
  1  2  1  0  0  0  0
  2  3  1  0  0  0  0
  2 18  2  0  0  0  0
  3  4  1  0  0  0  0
  3 19  1  0  0  0  0
  4  6  2  0  0  0  0
  4  5  1  0  0  0  0
  5 23  1  0  0  0  0
  5 24  1  0  0  0  0
  5 25  1  0  0  0  0
  6 16  1  0  0  0  0
  6  7  1  0  0  0  0
  7  8  1  0  0  0  0
  7 26  1  0  0  0  0
  7 27  1  0  0  0  0
  8  9  2  0  0  0  0
  8 10  1  0  0  0  0
 10 11  1  0  0  0  0
 10 28  1  0  0  0  0
 11 12  1  0  0  0  0
 11 29  1  0  0  0  0
 11 30  1  0  0  0  0
 12 13  1  0  0  0  0
 12 31  1  0  0  0  0
 12 32  1  0  0  0  0
 13 14  1  0  0  0  0
 13 15  1  0  0  0  0
 13 33  1  0  0  0  0
 14 34  1  0  0  0  0
 14 35  1  0  0  0  0
 14 36  1  0  0  0  0
 15 37  1  0  0  0  0
 15 38  1  0  0  0  0
 15 39  1  0  0  0  0
 16 17  2  0  0  0  0
 16 18  1  0  0  0  0
M  END
> <s_m_source_file>
AV-unprocessed.smi

> <i_m_source_file_index>
1326

> <i_lp_mmshare_version>
43012

> <i_f3d_flags>
0

> <s_epik_input>
W0NIM11jMW5jKFtDSDNdKWMoYyg9TylbbkhdMSlbQ0gyXUMoPU8pW05IXVtDSDJdW0NIMl1bQ0hdKFtDSDNdKVtDSDNd

> <s_epik_cmdline>
J2VwaWtfcHl0aG9uJywgJy1waCcsICc3LjAnLCAnLXRuJywgJzgnLCAnLW1hJywgJzIwMCcsICctbWV0YWxfYmluZGluZycsICctaW1hZScsICc8aW5maWxlLm1hZT4nLCAnLW9tYWUnLCAnPG91dGZpbGUubWFlPic=

> <r_lp_tautomer_probability>
0.156392

> <r_epik_Ionization_Penalty>
0.0135605

> <r_epik_Ionization_Penalty_Charging>
0.013428

> <r_epik_Ionization_Penalty_Neutral>
0.000132491

> <r_epik_State_Penalty>
1.15342

> <r_epik_Charging_Adjusted_Penalty>
1.16684

> <i_epik_Tot_Q>
0

> <i_epik_Tot_abs_Q>
0

> <r_epik_Metal_State_Penalty>
1.31299

> <b_epik_Metal_Only>
0

> <s_lp_Force_Field>
OPLS_2005

> <r_lp_Energy>
9.03726

> <b_lp_Chiralities_Consistent>
1

> <s_lp_Variant>
AV-unprocessed.smi:1326-2

> <Gold.Version>
5.8.1

> <Gold.Id.Protein>
6NUR|6NUR_protein|mol2

> <Gold.PLP.Fitness>
40.6849

> <Gold.PLP.PLP>
-32.9329

> <Gold.PLP.part.hbond>
-3.0000

> <Gold.PLP.part.metal>
0.0000

> <Gold.PLP.part.buried>
-0.8066

> <Gold.PLP.part.nonpolar>
-28.5266

> <Gold.PLP.part.repulsive>
0.1536

> <Gold.PLP.ligand.clash>
0.0000

> <Gold.PLP.ligand.torsion>
0.6294

> <Gold.PLP.Chemscore.Hbond>
2.9920

> <Gold.PLP.Chemscore.CHOScore>
0.0000

> <Gold.PLP.Chemscore.Metal>
0.0000

> <Gold.Chemscore.Hbonds>
donor molecule, donor type, donor heavy atom, donor atom, acceptor molecule, acceptor atom, score
      L1  H     3    19       P1  8028  1.00
      L1  H    10    28       P1  7948  1.00
      P1  H  7997  8010       L1    17  0.93

> <Gold.PLP.Chemscore.Internal.Correction>
0.0347

> <Gold.Rescore>
     Score         DG    S(hbond)    S(metal)    S(lipo)     H(rot)  DE(clash)    DE(int)     intcor
     11.99     -15.94       2.25        0.00      66.67       1.89       0.81       3.14       ----

> <Gold.Chemscore.Fitness>
11.9891

> <Gold.Chemscore.DG>
-15.9399

> <Gold.Chemscore.ZeroCoef>
-5.4800

> <Gold.Chemscore.Hbond>
2.2461

> <Gold.Chemscore.Metal>
0.0000

> <Gold.Chemscore.Lipo>
66.6711

> <Gold.Chemscore.Internal_Hbond>
0.0000

> <Gold.Chemscore.DEClash>
0.8070

> <Gold.Chemscore.DEInternal>
3.1439

> <Gold.Chemscore.Rot>
1.8916

> <Gold.Chemscore.Internal.Correction>
   9.000000E+99

> <Gold.Chemscore.Hbonds>
donor molecule, donor type, donor heavy atom, donor atom, acceptor molecule, acceptor atom, score
      L1  H     3    19       P1  8028  0.88
      L1  H    10    28       P1  7948  0.82
      P1  H  7997  8010       L1    17  0.20

> <Gold.Chemscore.Hbond.Weighted>
-7.5018

> <Gold.Chemscore.Metal.Weighted>
-0.0000

> <Gold.Chemscore.Lipo.Weighted>
-7.8005

> <Gold.Chemscore.Internal_Hbond.Weighted>
0.0000

> <Gold.Chemscore.DEClash.Weighted>
0.8070

> <Gold.Chemscore.DEInternal.Weighted>
3.1439

> <Gold.Chemscore.Rot.Weighted>
4.8424

> <Gold.Chemscore.Internal.Correction.Weighted>
   9.000000E+99

> <Gold.Protein.RotatedTorsions>
[ 6907 6896 6895 6894 ] final -174.74 input  -60.11 | X-H torsion
[ 7974 7965 7964 7962 ] final  145.52 input  175.53 | X-H torsion
[ 8008 7997 7996 7995 ] final   81.43 input   59.86 | X-H torsion
[ 10167 10162 10161 10158 ] final  -58.05 input  -65.29 | X-H torsion
[ 10718 10713 10712 10709 ] final -135.51 input   66.30 | X-H torsion
[ 10763 10752 10751 10750 ] final  103.12 input  -60.55 | X-H torsion
[ 11005 11000 10999 10996 ] final   68.43 input  -57.11 | X-H torsion

> <Gold.Protein.ActiveResidues>
 VAL166  LYS551  ARG553  GLY616  TRP617  ASP618  TYR619  PRO620  LYS621  CYS622 
 ASP623  PHE694  ASN695  SER759  ASP760  ASP761  ALA762  ILE779  LEU786  VAL792 
 PHE793  MET794  SER795  GLU796  ALA797  LYS798  CYS799  TRP800  GLU811  SER814 

> <Gold.Protein.RotatedAtoms>
  151.5773  133.3382  159.3001 H   0  0  0  0  0  0  0  0  0  0  0  0  # atno 6907 bound_to 6896
  150.8333  134.7599  159.6883 H   0  0  0  0  0  0  0  0  0  0  0  0  # atno 6908 bound_to 6896
  152.4414  134.5590  159.9940 H   0  0  0  0  0  0  0  0  0  0  0  0  # atno 6909 bound_to 6896
  144.8746  139.5793  143.5871 H   0  0  0  0  0  0  0  0  0  0  0  0  # atno 7974 bound_to 7965
  155.8971  140.3435  155.5998 H   0  0  0  0  0  0  0  0  0  0  0  0  # atno 8008 bound_to 7997
  155.7544  140.0824  157.2205 H   0  0  0  0  0  0  0  0  0  0  0  0  # atno 8009 bound_to 7997
  154.4039  140.1547  156.2748 H   0  0  0  0  0  0  0  0  0  0  0  0  # atno 8010 bound_to 7997
  140.6221  143.2423  151.5455 H   0  0  0  0  0  0  0  0  0  0  0  0  # atno 10167 bound_to 10162
  156.2670  130.7243  151.1197 H   0  0  0  0  0  0  0  0  0  0  0  0  # atno 10718 bound_to 10713
  153.3485  135.3987  155.1627 H   0  0  0  0  0  0  0  0  0  0  0  0  # atno 10763 bound_to 10752
  154.8657  135.3650  154.5253 H   0  0  0  0  0  0  0  0  0  0  0  0  # atno 10764 bound_to 10752
  153.5703  135.7079  153.5567 H   0  0  0  0  0  0  0  0  0  0  0  0  # atno 10765 bound_to 10752
  139.9712  134.6898  156.0444 H   0  0  0  0  0  0  0  0  0  0  0  0  # atno 11005 bound_to 11000
  146.2953  139.7261  142.9131 LP  0  0  0  0  0  0  0  0  0  0  0  0  # atno 17320 bound_to 7965
  145.4067  141.0392  143.3040 LP  0  0  0  0  0  0  0  0  0  0  0  0  # atno 17321 bound_to 7965
  139.5447  144.2552  152.1420 LP  0  0  0  0  0  0  0  0  0  0  0  0  # atno 17342 bound_to 10162
  140.1774  144.4877  150.6546 LP  0  0  0  0  0  0  0  0  0  0  0  0  # atno 17343 bound_to 10162
  157.7270  131.0642  150.5882 LP  0  0  0  0  0  0  0  0  0  0  0  0  # atno 17370 bound_to 10713
  156.5975  130.4345  149.5911 LP  0  0  0  0  0  0  0  0  0  0  0  0  # atno 17371 bound_to 10713
  141.1391  133.6568  156.3678 LP  0  0  0  0  0  0  0  0  0  0  0  0  # atno 17394 bound_to 11000
  140.5290  134.6231  157.5343 LP  0  0  0  0  0  0  0  0  0  0  0  0  # atno 17395 bound_to 11000

$$$$
