AV-unprocessed.smi:2026|AV-procd|sdf|8203|dock3
  -GOLD-   2272010463D 1   1.00000     0.00000
 Structure written by MMmdl.
 47 49  0  0  0  0  0  0  0  0  2 V2000
  152.0303  145.2055  160.5837 C   0  0  0  0  0  0  0  0  0  0  0  0
  151.8935  143.9546  159.7325 C   0  0  0  0  0  0  0  0  0  0  0  0
  151.1475  144.0315  158.5340 C   0  0  0  0  0  0  0  0  0  0  0  0
  151.0413  142.8702  157.7771 C   0  0  0  0  0  0  0  0  0  0  0  0
  150.3901  142.6185  156.5670 N   0  3  0  0  0  0  0  0  0  0  0  0
  150.5719  141.3148  156.2148 C   0  0  0  0  0  0  0  0  0  0  0  0
  151.3282  140.7318  157.1835 N   0  0  0  0  0  0  0  0  0  0  0  0
  151.8192  139.3549  157.3097 C   0  0  0  0  0  0  0  0  0  0  0  0
  150.7493  138.3130  156.9217 C   0  0  2  0  0  0  0  0  0  0  0  0
  149.5131  138.6739  157.5032 O   0  0  0  0  0  0  0  0  0  0  0  0
  151.0962  136.8738  157.3547 C   0  0  0  0  0  0  0  0  0  0  0  0
  150.1570  135.8818  156.8161 N   0  0  0  0  0  0  0  0  0  0  0  0
  149.2917  135.1680  157.5590 C   0  0  0  0  0  0  0  0  0  0  0  0
  149.1511  135.2277  158.7794 O   0  0  0  0  0  0  0  0  0  0  0  0
  148.6028  134.3598  156.7429 N   0  0  0  0  0  0  0  0  0  0  0  0
  148.9925  134.4941  155.3527 C   0  0  0  0  0  0  0  0  0  0  0  0
  149.5784  133.1750  154.8180 C   0  0  0  0  0  0  0  0  0  0  0  0
  147.8157  134.9992  154.4987 C   0  0  0  0  0  0  0  0  0  0  0  0
  150.0639  135.5607  155.5182 C   0  0  0  0  0  0  0  0  0  0  0  0
  150.7268  136.0206  154.5885 O   0  0  0  0  0  0  0  0  0  0  0  0
  151.6453  141.6634  158.1768 C   0  0  0  0  0  0  0  0  0  0  0  0
  152.3846  141.5697  159.3528 C   0  0  0  0  0  0  0  0  0  0  0  0
  152.5053  142.7392  160.1359 C   0  0  0  0  0  0  0  0  0  0  0  0
  153.3080  142.6670  161.4238 C   0  0  0  0  0  0  0  0  0  0  0  0
  151.4964  146.0485  160.1440 H   0  0  0  0  0  0  0  0  0  0  0  0
  153.0784  145.4895  160.6807 H   0  0  0  0  0  0  0  0  0  0  0  0
  151.6229  145.0369  161.5808 H   0  0  0  0  0  0  0  0  0  0  0  0
  150.6813  144.9540  158.2196 H   0  0  0  0  0  0  0  0  0  0  0  0
  150.1879  140.8326  155.3274 H   0  0  0  0  0  0  0  0  0  0  0  0
  152.7103  139.2652  156.6882 H   0  0  0  0  0  0  0  0  0  0  0  0
  152.1458  139.2062  158.3399 H   0  0  0  0  0  0  0  0  0  0  0  0
  150.6031  138.3295  155.8416 H   0  0  0  0  0  0  0  0  0  0  0  0
  149.0740  137.8875  157.7892 H   0  0  0  0  0  0  0  0  0  0  0  0
  152.1199  136.6355  157.0602 H   0  0  0  0  0  0  0  0  0  0  0  0
  151.0822  136.8043  158.4439 H   0  0  0  0  0  0  0  0  0  0  0  0
  147.8871  133.7172  157.0504 H   0  0  0  0  0  0  0  0  0  0  0  0
  149.9130  133.2801  153.7853 H   0  0  0  0  0  0  0  0  0  0  0  0
  148.8343  132.3784  154.8421 H   0  0  0  0  0  0  0  0  0  0  0  0
  150.4318  132.8419  155.4099 H   0  0  0  0  0  0  0  0  0  0  0  0
  148.1043  135.1074  153.4526 H   0  0  0  0  0  0  0  0  0  0  0  0
  147.4532  135.9692  154.8428 H   0  0  0  0  0  0  0  0  0  0  0  0
  146.9767  134.3041  154.5374 H   0  0  0  0  0  0  0  0  0  0  0  0
  152.8528  140.6453  159.6552 H   0  0  0  0  0  0  0  0  0  0  0  0
  153.7428  141.6778  161.5682 H   0  0  0  0  0  0  0  0  0  0  0  0
  152.6720  142.8808  162.2830 H   0  0  0  0  0  0  0  0  0  0  0  0
  154.1251  143.3885  161.4081 H   0  0  0  0  0  0  0  0  0  0  0  0
  149.8618  143.2851  156.0190 H   0  0  0  0  0  0  0  0  0  0  0  0
  1  2  1  0  0  0  0
  1 25  1  0  0  0  0
  1 26  1  0  0  0  0
  1 27  1  0  0  0  0
  2 23  1  0  0  0  0
  2  3  2  0  0  0  0
  3  4  1  0  0  0  0
  3 28  1  0  0  0  0
  4 21  2  0  0  0  0
  4  5  1  0  0  0  0
  5  6  2  0  0  0  0
  5 47  1  0  0  0  0
  6  7  1  0  0  0  0
  6 29  1  0  0  0  0
  7  8  1  0  0  0  0
  7 21  1  0  0  0  0
  8  9  1  0  0  0  0
  8 30  1  0  0  0  0
  8 31  1  0  0  0  0
  9 10  1  0  0  0  0
  9 11  1  0  0  0  0
  9 32  1  0  0  0  0
 10 33  1  0  0  0  0
 11 12  1  0  0  0  0
 11 34  1  0  0  0  0
 11 35  1  0  0  0  0
 12 19  1  0  0  0  0
 12 13  1  0  0  0  0
 13 14  2  0  0  0  0
 13 15  1  0  0  0  0
 15 16  1  0  0  0  0
 15 36  1  0  0  0  0
 16 17  1  0  0  0  0
 16 18  1  0  0  0  0
 16 19  1  0  0  0  0
 17 37  1  0  0  0  0
 17 38  1  0  0  0  0
 17 39  1  0  0  0  0
 18 40  1  0  0  0  0
 18 41  1  0  0  0  0
 18 42  1  0  0  0  0
 19 20  2  0  0  0  0
 21 22  1  0  0  0  0
 22 23  2  0  0  0  0
 22 43  1  0  0  0  0
 23 24  1  0  0  0  0
 24 44  1  0  0  0  0
 24 45  1  0  0  0  0
 24 46  1  0  0  0  0
M  CHG  1   5   1
M  END
> <s_m_source_file>
AV-unprocessed.smi

> <i_m_source_file_index>
2026

> <i_lp_mmshare_version>
43012

> <i_f3d_flags>
0

> <s_epik_input>
W0NIM11jKFtjSF0xKWMoW0NIM10pW2NIXWMoYzEyKW4oW2NIXW4yKVtDSDJdW0NASF0oW09IXSlbQ0gyXU4oQzM9TylDKD1PKVtOSF1DMyhbQ0gzXSlbQ0gzXQ==

> <s_epik_cmdline>
J2VwaWtfcHl0aG9uJywgJy1waCcsICc3LjAnLCAnLXRuJywgJzgnLCAnLW1hJywgJzIwMCcsICctbWV0YWxfYmluZGluZycsICctaW1hZScsICc8aW5maWxlLm1hZT4nLCAnLW9tYWUnLCAnPG91dGZpbGUubWFlPic=

> <r_lp_tautomer_probability>
1

> <r_epik_Ionization_Penalty>
1.08255

> <r_epik_Ionization_Penalty_Charging>
1.08249

> <r_epik_Ionization_Penalty_Neutral>
6.65731e-05

> <r_epik_State_Penalty>
1.13805

> <r_epik_Charging_Adjusted_Penalty>
2.22054

> <i_epik_Tot_Q>
1

> <i_epik_Tot_abs_Q>
1

> <r_epik_Metal_State_Penalty>
1.29676

> <b_epik_Metal_Only>
0

> <s_lp_Force_Field>
OPLS_2005

> <r_lp_Energy>
25.6396

> <b_lp_Chiralities_Consistent>
1

> <s_lp_Variant>
AV-unprocessed.smi:2026-3

> <Gold.Version>
5.8.1

> <Gold.Id.Protein>
6NUR|6NUR_protein|mol2

> <Gold.PLP.Fitness>
53.0926

> <Gold.PLP.PLP>
-42.1847

> <Gold.PLP.part.hbond>
-3.0000

> <Gold.PLP.part.metal>
0.0000

> <Gold.PLP.part.buried>
-5.0694

> <Gold.PLP.part.nonpolar>
-35.1414

> <Gold.PLP.part.repulsive>
0.3093

> <Gold.PLP.ligand.clash>
0.0000

> <Gold.PLP.ligand.torsion>
0.4395

> <Gold.PLP.Chemscore.Hbond>
3.9200

> <Gold.PLP.Chemscore.CHOScore>
0.0000

> <Gold.PLP.Chemscore.Metal>
0.0000

> <Gold.Chemscore.Hbonds>
donor molecule, donor type, donor heavy atom, donor atom, acceptor molecule, acceptor atom, score
      L1  H     5    47       P1  8028  2.00
      P1  H  6896  6908       L1    14  1.00
      P1  H 10752 10763       L1    20  0.47

> <Gold.PLP.Chemscore.Internal.Correction>
0.0269

> <Gold.Rescore>
     Score         DG    S(hbond)    S(metal)    S(lipo)     H(rot)  DE(clash)    DE(int)     intcor
     19.98     -20.76       2.72        0.00     107.63       2.49       0.33       0.46       ----

> <Gold.Chemscore.Fitness>
19.9777

> <Gold.Chemscore.DG>
-20.7599

> <Gold.Chemscore.ZeroCoef>
-5.4800

> <Gold.Chemscore.Hbond>
2.7152

> <Gold.Chemscore.Metal>
0.0000

> <Gold.Chemscore.Lipo>
107.6326

> <Gold.Chemscore.Internal_Hbond>
0.0000

> <Gold.Chemscore.DEClash>
0.3262

> <Gold.Chemscore.DEInternal>
0.4559

> <Gold.Chemscore.Rot>
2.4929

> <Gold.Chemscore.Internal.Correction>
   9.000000E+99

> <Gold.Chemscore.Hbonds>
donor molecule, donor type, donor heavy atom, donor atom, acceptor molecule, acceptor atom, score
      L1  H     5    47       P1  8028  0.99
      P1  H  6896  6908       L1    14  0.39
      P1  H 10752 10763       L1    20  0.45

> <Gold.Chemscore.Hbond.Weighted>
-9.0687

> <Gold.Chemscore.Metal.Weighted>
-0.0000

> <Gold.Chemscore.Lipo.Weighted>
-12.5930

> <Gold.Chemscore.Internal_Hbond.Weighted>
0.0000

> <Gold.Chemscore.DEClash.Weighted>
0.3262

> <Gold.Chemscore.DEInternal.Weighted>
0.4559

> <Gold.Chemscore.Rot.Weighted>
6.3819

> <Gold.Chemscore.Internal.Correction.Weighted>
   9.000000E+99

> <Gold.Protein.RotatedTorsions>
[ 6907 6896 6895 6894 ] final  147.25 input  -60.11 | X-H torsion
[ 7974 7965 7964 7962 ] final  -71.57 input  175.53 | X-H torsion
[ 8008 7997 7996 7995 ] final  134.25 input   59.86 | X-H torsion
[ 10167 10162 10161 10158 ] final -142.85 input  -65.29 | X-H torsion
[ 10718 10713 10712 10709 ] final   32.51 input   66.30 | X-H torsion
[ 10763 10752 10751 10750 ] final   58.97 input  -60.55 | X-H torsion
[ 11005 11000 10999 10996 ] final -147.57 input  -57.11 | X-H torsion

> <Gold.Protein.ActiveResidues>
 VAL166  LYS551  ARG553  GLY616  TRP617  ASP618  TYR619  PRO620  LYS621  CYS622 
 ASP623  PHE694  ASN695  SER759  ASP760  ASP761  ALA762  ILE779  LEU786  VAL792 
 PHE793  MET794  SER795  GLU796  ALA797  LYS798  CYS799  TRP800  GLU811  SER814 

> <Gold.Protein.RotatedAtoms>
  152.1572  133.4558  159.4842 H   0  0  0  0  0  0  0  0  0  0  0  0  # atno 6907 bound_to 6896
  150.6902  134.2116  159.4371 H   0  0  0  0  0  0  0  0  0  0  0  0  # atno 6908 bound_to 6896
  152.0017  134.9924  160.0616 H   0  0  0  0  0  0  0  0  0  0  0  0  # atno 6909 bound_to 6896
  145.6763  140.9203  143.0856 H   0  0  0  0  0  0  0  0  0  0  0  0  # atno 7974 bound_to 7965
  156.2998  140.2501  156.3387 H   0  0  0  0  0  0  0  0  0  0  0  0  # atno 8008 bound_to 7997
  154.9076  140.0404  157.1947 H   0  0  0  0  0  0  0  0  0  0  0  0  # atno 8009 bound_to 7997
  154.8438  140.2895  155.5646 H   0  0  0  0  0  0  0  0  0  0  0  0  # atno 8010 bound_to 7997
  139.8049  143.7782  152.2660 H   0  0  0  0  0  0  0  0  0  0  0  0  # atno 10167 bound_to 10162
  157.2862  130.7280  149.6584 H   0  0  0  0  0  0  0  0  0  0  0  0  # atno 10718 bound_to 10713
  152.9883  135.5588  154.5637 H   0  0  0  0  0  0  0  0  0  0  0  0  # atno 10763 bound_to 10752
  154.5051  135.2799  155.1391 H   0  0  0  0  0  0  0  0  0  0  0  0  # atno 10764 bound_to 10752
  154.2805  135.6345  153.5398 H   0  0  0  0  0  0  0  0  0  0  0  0  # atno 10765 bound_to 10752
  140.7702  134.3197  157.5077 H   0  0  0  0  0  0  0  0  0  0  0  0  # atno 11005 bound_to 11000
  144.7040  139.8638  143.7435 LP  0  0  0  0  0  0  0  0  0  0  0  0  # atno 17320 bound_to 7965
  146.1002  139.3997  143.0351 LP  0  0  0  0  0  0  0  0  0  0  0  0  # atno 17321 bound_to 7965
  139.7913  144.7409  150.9951 LP  0  0  0  0  0  0  0  0  0  0  0  0  # atno 17342 bound_to 10162
  140.7819  143.4439  151.0511 LP  0  0  0  0  0  0  0  0  0  0  0  0  # atno 17343 bound_to 10162
  155.9665  130.4323  150.4956 LP  0  0  0  0  0  0  0  0  0  0  0  0  # atno 17370 bound_to 10713
  157.2910  131.0626  151.2134 LP  0  0  0  0  0  0  0  0  0  0  0  0  # atno 17371 bound_to 10713
  139.8757  134.9256  156.3379 LP  0  0  0  0  0  0  0  0  0  0  0  0  # atno 17394 bound_to 11000
  140.9581  133.7407  156.0363 LP  0  0  0  0  0  0  0  0  0  0  0  0  # atno 17395 bound_to 11000

$$$$
