AV-unprocessed.smi:1926|AV-procd|sdf|7795|dock1
  -GOLD-   22720 9533D 1   1.00000     0.00000
 Structure written by MMmdl.
 35 36  0  0  0  0  0  0  0  0  1 V2000
  151.9407  138.4096  154.2140 C   0  0  0  0  0  0  0  0  0  0  0  0
  150.5967  138.3767  153.7463 O   0  0  0  0  0  0  0  0  0  0  0  0
  149.7572  139.4239  154.0763 C   0  0  0  0  0  0  0  0  0  0  0  0
  150.3105  140.5669  154.5544 N   0  0  0  0  0  0  0  0  0  0  0  0
  149.4935  141.5887  154.8820 C   0  0  0  0  0  0  0  0  0  0  0  0
  148.0936  141.5243  154.7600 C   0  0  0  0  0  0  0  0  0  0  0  0
  147.5171  140.3398  154.2654 C   0  0  0  0  0  0  0  0  0  0  0  0
  148.3626  139.2635  153.9007 C   0  0  0  0  0  0  0  0  0  0  0  0
  147.8894  138.0174  153.4022 N   0  0  0  0  0  0  0  0  0  0  0  0
  146.6621  137.4790  153.5035 C   0  0  0  0  0  0  0  0  0  0  0  0
  145.7006  137.9958  154.0717 O   0  0  0  0  0  0  0  0  0  0  0  0
  146.6040  136.2929  152.8814 N   0  0  0  0  0  0  0  0  0  0  0  0
  145.4235  135.4387  152.7908 C   0  0  0  0  0  0  0  0  0  0  0  0
  145.4930  134.4868  151.5818 C   0  0  1  0  0  0  0  0  0  0  0  0
  146.5997  133.4566  151.6777 C   0  0  0  0  0  0  0  0  0  0  0  0
  146.1587  132.4186  150.6495 C   0  0  0  0  0  0  0  0  0  0  0  0
  144.7350  132.4702  150.6278 O   0  0  0  0  0  0  0  0  0  0  0  0
  144.2751  133.5801  151.3931 C   0  0  0  0  0  0  0  0  0  0  0  0
  152.4635  137.5170  153.8714 H   0  0  0  0  0  0  0  0  0  0  0  0
  151.9843  138.4196  155.3041 H   0  0  0  0  0  0  0  0  0  0  0  0
  152.4774  139.2763  153.8253 H   0  0  0  0  0  0  0  0  0  0  0  0
  149.9694  142.4819  155.2585 H   0  0  0  0  0  0  0  0  0  0  0  0
  147.4754  142.3633  155.0435 H   0  0  0  0  0  0  0  0  0  0  0  0
  146.4430  140.2794  154.1901 H   0  0  0  0  0  0  0  0  0  0  0  0
  148.5524  137.5027  152.8410 H   0  0  0  0  0  0  0  0  0  0  0  0
  147.4434  135.9517  152.4365 H   0  0  0  0  0  0  0  0  0  0  0  0
  145.3718  134.8538  153.7093 H   0  0  0  0  0  0  0  0  0  0  0  0
  144.5108  136.0365  152.7601 H   0  0  0  0  0  0  0  0  0  0  0  0
  145.6427  135.0681  150.6700 H   0  0  0  0  0  0  0  0  0  0  0  0
  147.5878  133.8670  151.4682 H   0  0  0  0  0  0  0  0  0  0  0  0
  146.6195  133.0101  152.6731 H   0  0  0  0  0  0  0  0  0  0  0  0
  146.5291  132.6835  149.6585 H   0  0  0  0  0  0  0  0  0  0  0  0
  146.5183  131.4175  150.8886 H   0  0  0  0  0  0  0  0  0  0  0  0
  143.9183  133.2083  152.3546 H   0  0  0  0  0  0  0  0  0  0  0  0
  143.4464  134.0875  150.8987 H   0  0  0  0  0  0  0  0  0  0  0  0
  1  2  1  0  0  0  0
  1 19  1  0  0  0  0
  1 20  1  0  0  0  0
  1 21  1  0  0  0  0
  2  3  1  0  0  0  0
  3  8  1  0  0  0  0
  3  4  2  0  0  0  0
  4  5  1  0  0  0  0
  5  6  2  0  0  0  0
  5 22  1  0  0  0  0
  6  7  1  0  0  0  0
  6 23  1  0  0  0  0
  7  8  2  0  0  0  0
  7 24  1  0  0  0  0
  8  9  1  0  0  0  0
  9 10  1  0  0  0  0
  9 25  1  0  0  0  0
 10 11  2  0  0  0  0
 10 12  1  0  0  0  0
 12 13  1  0  0  0  0
 12 26  1  0  0  0  0
 13 14  1  0  0  0  0
 13 27  1  0  0  0  0
 13 28  1  0  0  0  0
 14 18  1  0  0  0  0
 14 15  1  0  0  0  0
 14 29  1  0  0  0  0
 15 16  1  0  0  0  0
 15 30  1  0  0  0  0
 15 31  1  0  0  0  0
 16 17  1  0  0  0  0
 16 32  1  0  0  0  0
 16 33  1  0  0  0  0
 17 18  1  0  0  0  0
 18 34  1  0  0  0  0
 18 35  1  0  0  0  0
M  END
> <s_m_source_file>
AV-unprocessed.smi

> <i_m_source_file_index>
1926

> <i_lp_mmshare_version>
43012

> <i_f3d_flags>
0

> <s_epik_input>
W0NIM11PYzFuW2NIXVtjSF1bY0hdYzFbTkhdQyg9TylbTkhdW0NIMl1bQ0BASF0yW0NIMl1bQ0gyXU9bQ0gyXTI=

> <s_epik_cmdline>
J2VwaWtfcHl0aG9uJywgJy1waCcsICc3LjAnLCAnLXRuJywgJzgnLCAnLW1hJywgJzIwMCcsICctbWV0YWxfYmluZGluZycsICctaW1hZScsICc8aW5maWxlLm1hZT4nLCAnLW9tYWUnLCAnPG91dGZpbGUubWFlPic=

> <r_lp_tautomer_probability>
1

> <r_epik_Ionization_Penalty>
9.48928e-05

> <r_epik_Ionization_Penalty_Charging>
0

> <r_epik_Ionization_Penalty_Neutral>
9.48928e-05

> <r_epik_State_Penalty>
-0

> <r_epik_Charging_Adjusted_Penalty>
0

> <i_epik_Tot_Q>
0

> <i_epik_Tot_abs_Q>
0

> <r_epik_Metal_State_Penalty>
-0

> <b_epik_Metal_Only>
0

> <s_lp_Force_Field>
OPLS_2005

> <r_lp_Energy>
22.4817

> <b_lp_Chiralities_Consistent>
1

> <s_lp_Variant>
AV-unprocessed.smi:1926-2

> <Gold.Version>
5.8.1

> <Gold.Id.Protein>
6NUR|6NUR_protein|mol2

> <Gold.PLP.Fitness>
40.8141

> <Gold.PLP.PLP>
-30.2049

> <Gold.PLP.part.hbond>
-3.0958

> <Gold.PLP.part.metal>
0.0000

> <Gold.PLP.part.buried>
-2.3459

> <Gold.PLP.part.nonpolar>
-26.4068

> <Gold.PLP.part.repulsive>
1.2744

> <Gold.PLP.ligand.clash>
0.0000

> <Gold.PLP.ligand.torsion>
0.4532

> <Gold.PLP.Chemscore.Hbond>
2.9600

> <Gold.PLP.Chemscore.CHOScore>
0.8734

> <Gold.PLP.Chemscore.Metal>
0.0000

> <Gold.Chemscore.Hbonds>
donor molecule, donor type, donor heavy atom, donor atom, acceptor molecule, acceptor atom, score
      L1  H     9    25       P1  7948  1.00
      L1  H    12    26       P1  7948  1.00
      P1  H  7989  7998       L1     4  0.91
      L1  C     5    22       P1  8028  0.94

> <Gold.PLP.Chemscore.Internal.Correction>
0.0155

> <Gold.Rescore>
     Score         DG    S(hbond)    S(metal)    S(lipo)     H(rot)  DE(clash)    DE(int)     intcor
     13.78     -15.25       1.93        0.00      61.06       1.50       0.07       1.40       ----

> <Gold.Chemscore.Fitness>
13.7823

> <Gold.Chemscore.DG>
-15.2486

> <Gold.Chemscore.ZeroCoef>
-5.4800

> <Gold.Chemscore.Hbond>
1.9333

> <Gold.Chemscore.Metal>
0.0000

> <Gold.Chemscore.Lipo>
61.0583

> <Gold.Chemscore.Internal_Hbond>
0.0000

> <Gold.Chemscore.DEClash>
0.0701

> <Gold.Chemscore.DEInternal>
1.3962

> <Gold.Chemscore.Rot>
1.4971

> <Gold.Chemscore.Internal.Correction>
   9.000000E+99

> <Gold.Chemscore.Hbonds>
donor molecule, donor type, donor heavy atom, donor atom, acceptor molecule, acceptor atom, score
      L1  H     9    25       P1  7948  0.96
      L1  H    12    26       P1  7948  0.95
      P1  H  7989  7998       L1     4  0.38

> <Gold.Chemscore.Hbond.Weighted>
-6.4573

> <Gold.Chemscore.Metal.Weighted>
-0.0000

> <Gold.Chemscore.Lipo.Weighted>
-7.1438

> <Gold.Chemscore.Internal_Hbond.Weighted>
0.0000

> <Gold.Chemscore.DEClash.Weighted>
0.0701

> <Gold.Chemscore.DEInternal.Weighted>
1.3962

> <Gold.Chemscore.Rot.Weighted>
3.8326

> <Gold.Chemscore.Internal.Correction.Weighted>
   9.000000E+99

> <Gold.Protein.RotatedTorsions>
[ 6907 6896 6895 6894 ] final  -84.50 input  -60.11 | X-H torsion
[ 7974 7965 7964 7962 ] final -116.46 input  175.53 | X-H torsion
[ 8008 7997 7996 7995 ] final   93.63 input   59.86 | X-H torsion
[ 10167 10162 10161 10158 ] final  162.35 input  -65.29 | X-H torsion
[ 10718 10713 10712 10709 ] final  -55.46 input   66.30 | X-H torsion
[ 10763 10752 10751 10750 ] final  -51.95 input  -60.55 | X-H torsion
[ 11005 11000 10999 10996 ] final   21.78 input  -57.11 | X-H torsion

> <Gold.Protein.ActiveResidues>
 VAL166  LYS551  ARG553  GLY616  TRP617  ASP618  TYR619  PRO620  LYS621  CYS622 
 ASP623  PHE694  ASN695  SER759  ASP760  ASP761  ALA762  ILE779  LEU786  VAL792 
 PHE793  MET794  SER795  GLU796  ALA797  LYS798  CYS799  TRP800  GLU811  SER814 

> <Gold.Protein.RotatedAtoms>
  150.6876  134.3349  159.4842 H   0  0  0  0  0  0  0  0  0  0  0  0  # atno 6907 bound_to 6896
  152.1209  134.9203  160.0572 H   0  0  0  0  0  0  0  0  0  0  0  0  # atno 6908 bound_to 6896
  152.0410  133.3942  159.4373 H   0  0  0  0  0  0  0  0  0  0  0  0  # atno 6909 bound_to 6896
  145.0965  140.8524  143.3952 H   0  0  0  0  0  0  0  0  0  0  0  0  # atno 7974 bound_to 7965
  156.0488  140.3310  155.7328 H   0  0  0  0  0  0  0  0  0  0  0  0  # atno 8008 bound_to 7997
  155.5632  140.0621  157.2841 H   0  0  0  0  0  0  0  0  0  0  0  0  # atno 8009 bound_to 7997
  154.4426  140.1874  156.0792 H   0  0  0  0  0  0  0  0  0  0  0  0  # atno 8010 bound_to 7997
  139.4859  144.4446  151.8908 H   0  0  0  0  0  0  0  0  0  0  0  0  # atno 10167 bound_to 10162
  156.1367  130.4156  150.0174 H   0  0  0  0  0  0  0  0  0  0  0  0  # atno 10718 bound_to 10713
  154.1348  135.6514  153.4929 H   0  0  0  0  0  0  0  0  0  0  0  0  # atno 10763 bound_to 10752
  153.0184  135.5301  154.6964 H   0  0  0  0  0  0  0  0  0  0  0  0  # atno 10764 bound_to 10752
  154.6209  135.2964  155.0297 H   0  0  0  0  0  0  0  0  0  0  0  0  # atno 10765 bound_to 10752
  140.3878  134.1851  155.7663 H   0  0  0  0  0  0  0  0  0  0  0  0  # atno 11005 bound_to 11000
  145.1005  139.2826  143.5688 LP  0  0  0  0  0  0  0  0  0  0  0  0  # atno 17320 bound_to 7965
  146.3530  140.0571  142.8632 LP  0  0  0  0  0  0  0  0  0  0  0  0  # atno 17321 bound_to 7965
  140.3900  144.2628  150.5900 LP  0  0  0  0  0  0  0  0  0  0  0  0  # atno 17342 bound_to 10162
  140.5155  143.2279  151.8470 LP  0  0  0  0  0  0  0  0  0  0  0  0  # atno 17343 bound_to 10162
  156.8071  130.9311  151.3645 LP  0  0  0  0  0  0  0  0  0  0  0  0  # atno 17370 bound_to 10713
  157.6538  130.8907  149.9688 LP  0  0  0  0  0  0  0  0  0  0  0  0  # atno 17371 bound_to 10713
  141.1901  133.8224  157.0931 LP  0  0  0  0  0  0  0  0  0  0  0  0  # atno 17394 bound_to 11000
  140.0429  134.9845  157.0995 LP  0  0  0  0  0  0  0  0  0  0  0  0  # atno 17395 bound_to 11000

$$$$
