AV-unprocessed.smi:3332|AV-procd|sdf|12829|dock5
  -GOLD-   2272019203D 1   1.00000     0.00000
 Structure written by MMmdl.
 41 42  0  0  0  0  0  0  0  0  1 V2000
  154.1834  143.4948  165.1724 C   0  0  0  0  0  0  0  0  0  0  0  0
  155.3422  142.7213  165.8108 C   0  0  0  0  0  0  0  0  0  0  0  0
  155.3755  141.2864  165.3735 C   0  0  0  0  0  0  0  0  0  0  0  0
  155.4457  140.9869  164.0094 N   0  0  0  0  0  0  0  0  0  0  0  0
  155.4676  139.6743  163.7706 C   0  0  0  0  0  0  0  0  0  0  0  0
  155.5735  139.0858  162.4042 C   0  0  0  0  0  0  0  0  0  0  0  0
  155.6779  140.1607  161.3112 C   0  0  0  0  0  0  0  0  0  0  0  0
  154.3864  140.7846  161.0490 N   0  0  0  0  0  0  0  0  0  0  0  0
  153.6949  140.6702  159.9049 C   0  0  0  0  0  0  0  0  0  0  0  0
  154.0873  140.0110  158.9420 O   0  0  0  0  0  0  0  0  0  0  0  0
  152.3521  141.4071  159.8406 C   0  0  0  0  0  0  0  0  0  0  0  0
  152.3321  142.5769  158.8319 C   0  0  2  0  0  0  0  0  0  0  0  0
  153.0185  143.8234  159.3365 C   0  0  0  0  0  0  0  0  0  0  0  0
  152.2433  144.9029  159.2629 C   0  0  0  0  0  0  0  0  0  0  0  0
  150.8846  144.5987  158.6964 C   0  0  0  0  0  0  0  0  0  0  0  0
  150.9004  143.0670  158.4945 C   0  0  0  0  0  0  0  0  0  0  0  0
  155.4338  138.7044  165.2360 S   0  0  0  0  0  0  0  0  0  0  0  0
  155.3640  140.1711  166.1787 C   0  0  0  0  0  0  0  0  0  0  0  0
  155.3073  140.1188  167.6694 C   0  0  0  0  0  0  0  0  0  0  0  0
  154.1805  144.5337  165.5027 H   0  0  0  0  0  0  0  0  0  0  0  0
  153.2217  143.0569  165.4412 H   0  0  0  0  0  0  0  0  0  0  0  0
  154.2616  143.4907  164.0848 H   0  0  0  0  0  0  0  0  0  0  0  0
  156.2825  143.2150  165.5642 H   0  0  0  0  0  0  0  0  0  0  0  0
  155.2549  142.7780  166.8965 H   0  0  0  0  0  0  0  0  0  0  0  0
  156.4469  138.4330  162.3796 H   0  0  0  0  0  0  0  0  0  0  0  0
  154.7042  138.4512  162.2266 H   0  0  0  0  0  0  0  0  0  0  0  0
  156.3742  140.9403  161.6220 H   0  0  0  0  0  0  0  0  0  0  0  0
  156.0816  139.7329  160.3916 H   0  0  0  0  0  0  0  0  0  0  0  0
  153.9901  141.3441  161.7904 H   0  0  0  0  0  0  0  0  0  0  0  0
  151.5847  140.6802  159.5720 H   0  0  0  0  0  0  0  0  0  0  0  0
  152.0910  141.7757  160.8340 H   0  0  0  0  0  0  0  0  0  0  0  0
  152.8340  142.2780  157.9103 H   0  0  0  0  0  0  0  0  0  0  0  0
  154.0361  143.8170  159.6987 H   0  0  0  0  0  0  0  0  0  0  0  0
  152.5346  145.9002  159.5576 H   0  0  0  0  0  0  0  0  0  0  0  0
  150.1013  144.9086  159.3888 H   0  0  0  0  0  0  0  0  0  0  0  0
  150.7481  145.1292  157.7537 H   0  0  0  0  0  0  0  0  0  0  0  0
  150.6236  142.8009  157.4737 H   0  0  0  0  0  0  0  0  0  0  0  0
  150.1639  142.6040  159.1525 H   0  0  0  0  0  0  0  0  0  0  0  0
  156.0793  140.7509  168.1084 H   0  0  0  0  0  0  0  0  0  0  0  0
  155.4582  139.1032  168.0359 H   0  0  0  0  0  0  0  0  0  0  0  0
  154.3394  140.4665  168.0304 H   0  0  0  0  0  0  0  0  0  0  0  0
  1  2  1  0  0  0  0
  1 20  1  0  0  0  0
  1 21  1  0  0  0  0
  1 22  1  0  0  0  0
  2  3  1  0  0  0  0
  2 23  1  0  0  0  0
  2 24  1  0  0  0  0
  3 18  2  0  0  0  0
  3  4  1  0  0  0  0
  4  5  2  0  0  0  0
  5  6  1  0  0  0  0
  5 17  1  0  0  0  0
  6  7  1  0  0  0  0
  6 25  1  0  0  0  0
  6 26  1  0  0  0  0
  7  8  1  0  0  0  0
  7 27  1  0  0  0  0
  7 28  1  0  0  0  0
  8  9  1  0  0  0  0
  8 29  1  0  0  0  0
  9 10  2  0  0  0  0
  9 11  1  0  0  0  0
 11 12  1  0  0  0  0
 11 30  1  0  0  0  0
 11 31  1  0  0  0  0
 12 16  1  0  0  0  0
 12 13  1  0  0  0  0
 12 32  1  0  0  0  0
 13 14  2  0  0  0  0
 13 33  1  0  0  0  0
 14 15  1  0  0  0  0
 14 34  1  0  0  0  0
 15 16  1  0  0  0  0
 15 35  1  0  0  0  0
 15 36  1  0  0  0  0
 16 37  1  0  0  0  0
 16 38  1  0  0  0  0
 17 18  1  0  0  0  0
 18 19  1  0  0  0  0
 19 39  1  0  0  0  0
 19 40  1  0  0  0  0
 19 41  1  0  0  0  0
M  END
> <s_m_source_file>
AV-unprocessed.smi

> <i_m_source_file_index>
3332

> <i_lp_mmshare_version>
43012

> <i_f3d_flags>
0

> <s_epik_input>
W0NIM11bQ0gyXWMxbmMoc2MxW0NIM10pW0NIMl1bQ0gyXVtOSF1DKD1PKVtDSDJdW0NAQEhdMltDSF09W0NIXVtDSDJdW0NIMl0y

> <s_epik_cmdline>
J2VwaWtfcHl0aG9uJywgJy1waCcsICc3LjAnLCAnLXRuJywgJzgnLCAnLW1hJywgJzIwMCcsICctbWV0YWxfYmluZGluZycsICctaW1hZScsICc8aW5maWxlLm1hZT4nLCAnLW9tYWUnLCAnPG91dGZpbGUubWFlPic=

> <r_epik_Ionization_Penalty>
0.00221844

> <r_epik_Ionization_Penalty_Charging>
0

> <r_epik_Ionization_Penalty_Neutral>
0.00221844

> <r_epik_State_Penalty>
0.00152607

> <r_epik_Charging_Adjusted_Penalty>
0.00152607

> <i_epik_Tot_Q>
0

> <i_epik_Tot_abs_Q>
0

> <r_epik_Metal_State_Penalty>
-0

> <b_epik_Metal_Only>
0

> <s_lp_Force_Field>
OPLS_2005

> <r_lp_Energy>
6.78745

> <b_lp_Chiralities_Consistent>
1

> <s_lp_Variant>
AV-unprocessed.smi:3332-1

> <Gold.Version>
5.8.1

> <Gold.Id.Protein>
6NUR|6NUR_protein|mol2

> <Gold.PLP.Fitness>
46.7665

> <Gold.PLP.PLP>
-44.2936

> <Gold.PLP.part.hbond>
-2.0000

> <Gold.PLP.part.metal>
0.0000

> <Gold.PLP.part.buried>
-5.3377

> <Gold.PLP.part.nonpolar>
-36.6231

> <Gold.PLP.part.repulsive>
0.0208

> <Gold.PLP.ligand.clash>
0.0000

> <Gold.PLP.ligand.torsion>
0.2939

> <Gold.PLP.Chemscore.Hbond>
1.0000

> <Gold.PLP.Chemscore.CHOScore>
0.0000

> <Gold.PLP.Chemscore.Metal>
0.0000

> <Gold.Chemscore.Hbonds>
donor molecule, donor type, donor heavy atom, donor atom, acceptor molecule, acceptor atom, score
      P1  H  7997  8009       L1    10  0.98

> <Gold.PLP.Chemscore.Internal.Correction>
0.0607

> <Gold.Rescore>
     Score         DG    S(hbond)    S(metal)    S(lipo)     H(rot)  DE(clash)    DE(int)     intcor
     19.57     -20.12       0.98        0.00     130.21       1.51       0.25       0.30       ----

> <Gold.Chemscore.Fitness>
19.5667

> <Gold.Chemscore.DG>
-20.1239

> <Gold.Chemscore.ZeroCoef>
-5.4800

> <Gold.Chemscore.Hbond>
0.9807

> <Gold.Chemscore.Metal>
0.0000

> <Gold.Chemscore.Lipo>
130.2117

> <Gold.Chemscore.Internal_Hbond>
0.0000

> <Gold.Chemscore.DEClash>
0.2544

> <Gold.Chemscore.DEInternal>
0.3028

> <Gold.Chemscore.Rot>
1.5103

> <Gold.Chemscore.Internal.Correction>
   9.000000E+99

> <Gold.Chemscore.Hbonds>
donor molecule, donor type, donor heavy atom, donor atom, acceptor molecule, acceptor atom, score
      P1  H  7997  8009       L1    10  0.93

> <Gold.Chemscore.Hbond.Weighted>
-3.2755

> <Gold.Chemscore.Metal.Weighted>
-0.0000

> <Gold.Chemscore.Lipo.Weighted>
-15.2348

> <Gold.Chemscore.Internal_Hbond.Weighted>
0.0000

> <Gold.Chemscore.DEClash.Weighted>
0.2544

> <Gold.Chemscore.DEInternal.Weighted>
0.3028

> <Gold.Chemscore.Rot.Weighted>
3.8664

> <Gold.Chemscore.Internal.Correction.Weighted>
   9.000000E+99

> <Gold.Protein.RotatedTorsions>
[ 6907 6896 6895 6894 ] final   58.19 input  -60.11 | X-H torsion
[ 7974 7965 7964 7962 ] final   58.07 input  175.53 | X-H torsion
[ 8008 7997 7996 7995 ] final  123.17 input   59.86 | X-H torsion
[ 10167 10162 10161 10158 ] final -131.32 input  -65.29 | X-H torsion
[ 10718 10713 10712 10709 ] final  149.80 input   66.30 | X-H torsion
[ 10763 10752 10751 10750 ] final -135.80 input  -60.55 | X-H torsion
[ 11005 11000 10999 10996 ] final -102.76 input  -57.11 | X-H torsion

> <Gold.Protein.ActiveResidues>
 VAL166  LYS551  ARG553  GLY616  TRP617  ASP618  TYR619  PRO620  LYS621  CYS622 
 ASP623  PHE694  ASN695  SER759  ASP760  ASP761  ALA762  ILE779  LEU786  VAL792 
 PHE793  MET794  SER795  GLU796  ALA797  LYS798  CYS799  TRP800  GLU811  SER814 

> <Gold.Protein.RotatedAtoms>
  152.3801  134.6603  160.0145 H   0  0  0  0  0  0  0  0  0  0  0  0  # atno 6907 bound_to 6896
  151.6869  133.3306  159.3241 H   0  0  0  0  0  0  0  0  0  0  0  0  # atno 6908 bound_to 6896
  150.7741  134.6668  159.6414 H   0  0  0  0  0  0  0  0  0  0  0  0  # atno 6909 bound_to 6896
  145.9222  139.3739  143.0471 H   0  0  0  0  0  0  0  0  0  0  0  0  # atno 7974 bound_to 7965
  156.2756  140.2769  156.1585 H   0  0  0  0  0  0  0  0  0  0  0  0  # atno 8008 bound_to 7997
  155.0779  140.0387  157.2647 H   0  0  0  0  0  0  0  0  0  0  0  0  # atno 8009 bound_to 7997
  154.6988  140.2644  155.6746 H   0  0  0  0  0  0  0  0  0  0  0  0  # atno 8010 bound_to 7997
  139.9202  143.6391  152.2555 H   0  0  0  0  0  0  0  0  0  0  0  0  # atno 10167 bound_to 10162
  157.2916  131.0854  151.1458 H   0  0  0  0  0  0  0  0  0  0  0  0  # atno 10718 bound_to 10713
  154.8696  135.3692  154.4957 H   0  0  0  0  0  0  0  0  0  0  0  0  # atno 10763 bound_to 10752
  153.5601  135.7023  153.5556 H   0  0  0  0  0  0  0  0  0  0  0  0  # atno 10764 bound_to 10752
  153.3635  135.4040  155.1700 H   0  0  0  0  0  0  0  0  0  0  0  0  # atno 10765 bound_to 10752
  141.1175  133.8584  157.1400 H   0  0  0  0  0  0  0  0  0  0  0  0  # atno 11005 bound_to 11000
  145.8535  140.9515  143.0737 LP  0  0  0  0  0  0  0  0  0  0  0  0  # atno 17320 bound_to 7965
  144.6754  140.0437  143.7480 LP  0  0  0  0  0  0  0  0  0  0  0  0  # atno 17321 bound_to 7965
  139.6868  144.7651  151.1509 LP  0  0  0  0  0  0  0  0  0  0  0  0  # atno 17342 bound_to 10162
  140.7664  143.5645  150.9062 LP  0  0  0  0  0  0  0  0  0  0  0  0  # atno 17343 bound_to 10162
  157.2852  130.6769  149.6086 LP  0  0  0  0  0  0  0  0  0  0  0  0  # atno 17370 bound_to 10713
  155.9667  130.4437  150.5434 LP  0  0  0  0  0  0  0  0  0  0  0  0  # atno 17371 bound_to 10713
  140.0108  134.9989  157.0391 LP  0  0  0  0  0  0  0  0  0  0  0  0  # atno 17394 bound_to 11000
  140.4603  134.1491  155.7190 LP  0  0  0  0  0  0  0  0  0  0  0  0  # atno 17395 bound_to 11000

$$$$
