AV-unprocessed.smi:1291|AV-procd|sdf|5394|dock3
  -GOLD-   22720 4553D 1   1.00000     0.00000
 Structure written by MMmdl.
 44 46  0  0  0  0  0  0  0  0  2 V2000
  148.5763  142.5706  154.1820 O   0  0  0  0  0  0  0  0  0  0  0  0
  149.2218  141.3915  154.6132 C   0  0  0  0  0  0  0  0  0  0  0  0
  150.1010  141.6096  155.8031 C   0  0  0  0  0  0  0  0  0  0  0  0
  150.2545  142.7816  156.4829 N   0  3  0  0  0  0  0  0  0  0  0  0
  151.1478  142.6042  157.5393 C   0  0  0  0  0  0  0  0  0  0  0  0
  151.6148  143.4989  158.4971 C   0  0  0  0  0  0  0  0  0  0  0  0
  152.5299  142.9922  159.4431 C   0  0  0  0  0  0  0  0  0  0  0  0
  152.9478  141.6460  159.4120 C   0  0  0  0  0  0  0  0  0  0  0  0
  152.4679  140.7487  158.4354 C   0  0  0  0  0  0  0  0  0  0  0  0
  151.5606  141.2564  157.5053 C   0  0  0  0  0  0  0  0  0  0  0  0
  150.8880  140.6812  156.4197 N   0  0  0  0  0  0  0  0  0  0  0  0
  151.0958  139.2574  156.1092 C   0  0  0  0  0  0  0  0  0  0  0  0
  151.7855  139.0358  154.7475 C   0  0  1  0  0  0  0  0  0  0  0  0
  153.1118  139.5246  154.7413 O   0  0  0  0  0  0  0  0  0  0  0  0
  151.7881  137.5675  154.2927 C   0  0  0  0  0  0  0  0  0  0  0  0
  150.4973  137.0038  154.4659 O   0  0  0  0  0  0  0  0  0  0  0  0
  150.4212  136.1250  155.5749 C   0  0  0  0  0  0  0  0  0  0  0  0
  150.0152  134.7302  155.1406 C   0  0  0  0  0  0  0  0  0  0  0  0
  148.9512  134.5593  154.2301 C   0  0  0  0  0  0  0  0  0  0  0  0
  148.5639  133.2664  153.8268 C   0  0  0  0  0  0  0  0  0  0  0  0
  149.2396  132.1391  154.3323 C   0  0  0  0  0  0  0  0  0  0  0  0
  150.2999  132.3051  155.2440 C   0  0  0  0  0  0  0  0  0  0  0  0
  150.6871  133.5972  155.6502 C   0  0  0  0  0  0  0  0  0  0  0  0
  151.7043  133.7429  156.5330 F   0  0  0  0  0  0  0  0  0  0  0  0
  148.8927  143.2939  154.7020 H   0  0  0  0  0  0  0  0  0  0  0  0
  148.4684  140.6434  154.8603 H   0  0  0  0  0  0  0  0  0  0  0  0
  149.8129  140.9971  153.7867 H   0  0  0  0  0  0  0  0  0  0  0  0
  151.2975  144.5312  158.5212 H   0  0  0  0  0  0  0  0  0  0  0  0
  152.9204  143.6494  160.2067 H   0  0  0  0  0  0  0  0  0  0  0  0
  153.6520  141.2938  160.1517 H   0  0  0  0  0  0  0  0  0  0  0  0
  152.8007  139.7212  158.4189 H   0  0  0  0  0  0  0  0  0  0  0  0
  151.6555  138.7950  156.9222 H   0  0  0  0  0  0  0  0  0  0  0  0
  150.1165  138.7776  156.1094 H   0  0  0  0  0  0  0  0  0  0  0  0
  151.2525  139.6146  153.9925 H   0  0  0  0  0  0  0  0  0  0  0  0
  153.5481  139.1953  153.9708 H   0  0  0  0  0  0  0  0  0  0  0  0
  152.0573  137.5196  153.2364 H   0  0  0  0  0  0  0  0  0  0  0  0
  152.5383  136.9960  154.8417 H   0  0  0  0  0  0  0  0  0  0  0  0
  151.3884  136.0785  156.0782 H   0  0  0  0  0  0  0  0  0  0  0  0
  149.7032  136.5011  156.3054 H   0  0  0  0  0  0  0  0  0  0  0  0
  148.4277  135.4197  153.8395 H   0  0  0  0  0  0  0  0  0  0  0  0
  147.7479  133.1391  153.1307 H   0  0  0  0  0  0  0  0  0  0  0  0
  148.9435  131.1477  154.0230 H   0  0  0  0  0  0  0  0  0  0  0  0
  150.8160  131.4404  155.6344 H   0  0  0  0  0  0  0  0  0  0  0  0
  149.7802  143.6403  156.2339 H   0  0  0  0  0  0  0  0  0  0  0  0
  1  2  1  0  0  0  0
  1 25  1  0  0  0  0
  2  3  1  0  0  0  0
  2 26  1  0  0  0  0
  2 27  1  0  0  0  0
  3 11  1  0  0  0  0
  3  4  2  0  0  0  0
  4  5  1  0  0  0  0
  4 44  1  0  0  0  0
  5 10  2  0  0  0  0
  5  6  1  0  0  0  0
  6  7  2  0  0  0  0
  6 28  1  0  0  0  0
  7  8  1  0  0  0  0
  7 29  1  0  0  0  0
  8  9  2  0  0  0  0
  8 30  1  0  0  0  0
  9 10  1  0  0  0  0
  9 31  1  0  0  0  0
 10 11  1  0  0  0  0
 11 12  1  0  0  0  0
 12 13  1  0  0  0  0
 12 32  1  0  0  0  0
 12 33  1  0  0  0  0
 13 14  1  0  0  0  0
 13 15  1  0  0  0  0
 13 34  1  0  0  0  0
 14 35  1  0  0  0  0
 15 16  1  0  0  0  0
 15 36  1  0  0  0  0
 15 37  1  0  0  0  0
 16 17  1  0  0  0  0
 17 18  1  0  0  0  0
 17 38  1  0  0  0  0
 17 39  1  0  0  0  0
 18 23  1  0  0  0  0
 18 19  2  0  0  0  0
 19 20  1  0  0  0  0
 19 40  1  0  0  0  0
 20 21  2  0  0  0  0
 20 41  1  0  0  0  0
 21 22  1  0  0  0  0
 21 42  1  0  0  0  0
 22 23  2  0  0  0  0
 22 43  1  0  0  0  0
 23 24  1  0  0  0  0
M  CHG  1   4   1
M  END
> <s_m_source_file>
AV-unprocessed.smi

> <i_m_source_file_index>
1291

> <i_lp_mmshare_version>
43012

> <i_f3d_flags>
0

> <s_epik_input>
W2NIXTFbY0hdW2NIXVtjSF1jKGMxMiluKGMobjIpW0NIMl1bT0hdKVtDSDJdW0NASF0oW09IXSlbQ0gyXU9bQ0gyXWMzW2NIXVtjSF1bY0hdW2NIXWMzRg==

> <s_epik_cmdline>
J2VwaWtfcHl0aG9uJywgJy1waCcsICc3LjAnLCAnLXRuJywgJzgnLCAnLW1hJywgJzIwMCcsICctbWV0YWxfYmluZGluZycsICctaW1hZScsICc8aW5maWxlLm1hZT4nLCAnLW9tYWUnLCAnPG91dGZpbGUubWFlPic=

> <r_epik_Ionization_Penalty>
1.34314

> <r_epik_Ionization_Penalty_Charging>
1.34228

> <r_epik_Ionization_Penalty_Neutral>
0.000856861

> <r_epik_State_Penalty>
1.41963

> <r_epik_Charging_Adjusted_Penalty>
2.76191

> <i_epik_Tot_Q>
1

> <i_epik_Tot_abs_Q>
1

> <r_epik_Metal_State_Penalty>
5.45585

> <b_epik_Metal_Only>
0

> <s_lp_Force_Field>
OPLS_2005

> <r_lp_Energy>
19.0817

> <b_lp_Chiralities_Consistent>
1

> <s_lp_Variant>
AV-unprocessed.smi:1291-4

> <Gold.Version>
5.8.1

> <Gold.Id.Protein>
6NUR|6NUR_protein|mol2

> <Gold.PLP.Fitness>
60.9264

> <Gold.PLP.PLP>
-50.5080

> <Gold.PLP.part.hbond>
-5.4630

> <Gold.PLP.part.metal>
0.0000

> <Gold.PLP.part.buried>
-2.5204

> <Gold.PLP.part.nonpolar>
-43.3154

> <Gold.PLP.part.repulsive>
0.7079

> <Gold.PLP.ligand.clash>
0.0000

> <Gold.PLP.ligand.torsion>
1.0180

> <Gold.PLP.Chemscore.Hbond>
4.0169

> <Gold.PLP.Chemscore.CHOScore>
0.0000

> <Gold.PLP.Chemscore.Metal>
0.0000

> <Gold.Chemscore.Hbonds>
donor molecule, donor type, donor heavy atom, donor atom, acceptor molecule, acceptor atom, score
      L1  H     1    25       P1  8028  1.00
      L1  H     4    44       P1  8028  1.92
      P1  H  7997  8010       L1    14  1.00
      P1  H  8011  8017       L1     1  0.03

> <Gold.PLP.Chemscore.Internal.Correction>
0.4037

> <Gold.Rescore>
     Score         DG    S(hbond)    S(metal)    S(lipo)     H(rot)  DE(clash)    DE(int)     intcor
     19.67     -20.76       2.90        0.00     123.05       3.44       0.12       0.98       ----

> <Gold.Chemscore.Fitness>
19.6652

> <Gold.Chemscore.DG>
-20.7629

> <Gold.Chemscore.ZeroCoef>
-5.4800

> <Gold.Chemscore.Hbond>
2.8984

> <Gold.Chemscore.Metal>
0.0000

> <Gold.Chemscore.Lipo>
123.0477

> <Gold.Chemscore.Internal_Hbond>
0.0000

> <Gold.Chemscore.DEClash>
0.1219

> <Gold.Chemscore.DEInternal>
0.9758

> <Gold.Chemscore.Rot>
3.4353

> <Gold.Chemscore.Internal.Correction>
   9.000000E+99

> <Gold.Chemscore.Hbonds>
donor molecule, donor type, donor heavy atom, donor atom, acceptor molecule, acceptor atom, score
      L1  H     1    25       P1  8028  0.99
      L1  H     4    44       P1  8028  0.90
      P1  H  7997  8010       L1    14  0.55

> <Gold.Chemscore.Hbond.Weighted>
-9.6807

> <Gold.Chemscore.Metal.Weighted>
-0.0000

> <Gold.Chemscore.Lipo.Weighted>
-14.3966

> <Gold.Chemscore.Internal_Hbond.Weighted>
0.0000

> <Gold.Chemscore.DEClash.Weighted>
0.1219

> <Gold.Chemscore.DEInternal.Weighted>
0.9758

> <Gold.Chemscore.Rot.Weighted>
8.7944

> <Gold.Chemscore.Internal.Correction.Weighted>
   9.000000E+99

> <Gold.Protein.RotatedTorsions>
[ 6907 6896 6895 6894 ] final -135.33 input  -60.11 | X-H torsion
[ 7974 7965 7964 7962 ] final -152.45 input  175.53 | X-H torsion
[ 8008 7997 7996 7995 ] final  104.57 input   59.86 | X-H torsion
[ 10167 10162 10161 10158 ] final -152.28 input  -65.29 | X-H torsion
[ 10718 10713 10712 10709 ] final   -4.50 input   66.30 | X-H torsion
[ 10763 10752 10751 10750 ] final -102.78 input  -60.55 | X-H torsion
[ 11005 11000 10999 10996 ] final   29.03 input  -57.11 | X-H torsion

> <Gold.Protein.ActiveResidues>
 VAL166  LYS551  ARG553  GLY616  TRP617  ASP618  TYR619  PRO620  LYS621  CYS622 
 ASP623  PHE694  ASN695  SER759  ASP760  ASP761  ALA762  ILE779  LEU786  VAL792 
 PHE793  MET794  SER795  GLU796  ALA797  LYS798  CYS799  TRP800  GLU811  SER814 

> <Gold.Protein.RotatedAtoms>
  150.9965  133.6098  159.2700 H   0  0  0  0  0  0  0  0  0  0  0  0  # atno 6907 bound_to 6896
  151.3299  135.0838  159.9345 H   0  0  0  0  0  0  0  0  0  0  0  0  # atno 6908 bound_to 6896
  152.5261  133.9596  159.7765 H   0  0  0  0  0  0  0  0  0  0  0  0  # atno 6909 bound_to 6896
  144.7793  140.4660  143.5850 H   0  0  0  0  0  0  0  0  0  0  0  0  # atno 7974 bound_to 7965
  156.1584  140.3145  155.8765 H   0  0  0  0  0  0  0  0  0  0  0  0  # atno 8008 bound_to 7997
  155.3831  140.0489  157.3060 H   0  0  0  0  0  0  0  0  0  0  0  0  # atno 8009 bound_to 7997
  154.5123  140.2169  155.9143 H   0  0  0  0  0  0  0  0  0  0  0  0  # atno 8010 bound_to 7997
  139.7195  143.8980  152.2498 H   0  0  0  0  0  0  0  0  0  0  0  0  # atno 10167 bound_to 10162
  156.7604  130.5268  149.5786 H   0  0  0  0  0  0  0  0  0  0  0  0  # atno 10718 bound_to 10713
  154.7759  135.4848  153.9744 H   0  0  0  0  0  0  0  0  0  0  0  0  # atno 10763 bound_to 10752
  153.1429  135.6776  153.9007 H   0  0  0  0  0  0  0  0  0  0  0  0  # atno 10764 bound_to 10752
  153.8676  135.3147  155.3419 H   0  0  0  0  0  0  0  0  0  0  0  0  # atno 10765 bound_to 10752
  140.3092  134.2668  155.7737 H   0  0  0  0  0  0  0  0  0  0  0  0  # atno 11005 bound_to 11000
  145.6095  139.1512  143.3084 LP  0  0  0  0  0  0  0  0  0  0  0  0  # atno 17320 bound_to 7965
  146.1992  140.6212  142.9110 LP  0  0  0  0  0  0  0  0  0  0  0  0  # atno 17321 bound_to 7965
  139.8872  144.6985  150.8811 LP  0  0  0  0  0  0  0  0  0  0  0  0  # atno 17342 bound_to 10162
  140.7750  143.3614  151.1820 LP  0  0  0  0  0  0  0  0  0  0  0  0  # atno 17343 bound_to 10162
  156.1343  130.6200  151.0377 LP  0  0  0  0  0  0  0  0  0  0  0  0  # atno 17370 bound_to 10713
  157.6737  131.0855  150.7548 LP  0  0  0  0  0  0  0  0  0  0  0  0  # atno 17371 bound_to 10713
  141.2112  133.7697  156.9883 LP  0  0  0  0  0  0  0  0  0  0  0  0  # atno 17394 bound_to 11000
  140.1039  134.9518  157.1965 LP  0  0  0  0  0  0  0  0  0  0  0  0  # atno 17395 bound_to 11000

$$$$
