AV-unprocessed.smi:1996|AV-procd|sdf|8085|dock1
  -GOLD-   2272010303D 1   1.00000     0.00000
 Structure written by MMmdl.
 32 33  0  0  0  0  0  0  0  0  2 V2000
  150.4901  140.4017  154.9112 O   0  0  0  0  0  0  0  0  0  0  0  0
  149.6905  141.3365  154.9977 C   0  0  0  0  0  0  0  0  0  0  0  0
  149.6472  142.0752  156.1146 N   0  0  0  0  0  0  0  0  0  0  0  0
  150.4896  141.8738  157.2861 C   0  0  0  0  0  0  0  0  0  0  0  0
  151.4840  143.0341  157.4412 C   0  0  0  0  0  0  0  0  0  0  0  0
  151.9436  143.2296  158.8767 C   0  0  0  0  0  0  0  0  0  0  0  0
  151.6656  144.3523  159.5681 C   0  0  0  0  0  0  0  0  0  0  0  0
  152.0865  144.5954  161.0068 C   0  0  0  0  0  0  0  0  0  0  0  0
  152.5598  143.3094  161.7048 C   0  0  0  0  0  0  0  0  0  0  0  0
  153.4676  142.4825  160.7859 C   0  0  0  0  0  0  0  0  0  0  0  0
  152.7385  142.0823  159.4908 C   0  0  0  0  0  0  0  0  0  0  0  0
  148.8079  141.7269  154.0499 N   0  5  0  0  0  0  0  0  0  0  0  0
  147.5205  141.9297  154.3748 C   0  0  0  0  0  0  0  0  0  0  0  0
  147.0073  141.5445  155.5544 N   0  0  0  0  0  0  0  0  0  0  0  0
  145.6598  141.8506  155.6900 N   0  0  0  0  0  0  0  0  0  0  0  0
  145.1913  142.4701  154.6069 C   0  0  0  0  0  0  0  0  0  0  0  0
  146.3536  142.7394  153.3254 S   0  0  0  0  0  0  0  0  0  0  0  0
  148.9798  142.8317  156.1502 H   0  0  0  0  0  0  0  0  0  0  0  0
  149.8593  141.7991  158.1736 H   0  0  0  0  0  0  0  0  0  0  0  0
  151.0215  140.9268  157.1843 H   0  0  0  0  0  0  0  0  0  0  0  0
  152.3604  142.8639  156.8147 H   0  0  0  0  0  0  0  0  0  0  0  0
  151.0242  143.9557  157.0814 H   0  0  0  0  0  0  0  0  0  0  0  0
  151.1165  145.1529  159.0940 H   0  0  0  0  0  0  0  0  0  0  0  0
  152.8850  145.3380  161.0026 H   0  0  0  0  0  0  0  0  0  0  0  0
  151.2514  145.0297  161.5570 H   0  0  0  0  0  0  0  0  0  0  0  0
  153.0792  143.5568  162.6311 H   0  0  0  0  0  0  0  0  0  0  0  0
  151.6944  142.7082  161.9868 H   0  0  0  0  0  0  0  0  0  0  0  0
  154.3544  143.0675  160.5381 H   0  0  0  0  0  0  0  0  0  0  0  0
  153.8213  141.5906  161.3039 H   0  0  0  0  0  0  0  0  0  0  0  0
  152.0493  141.2628  159.6968 H   0  0  0  0  0  0  0  0  0  0  0  0
  153.4632  141.7107  158.7657 H   0  0  0  0  0  0  0  0  0  0  0  0
  144.1560  142.7733  154.5631 H   0  0  0  0  0  0  0  0  0  0  0  0
  1  2  2  0  0  0  0
  2  3  1  0  0  0  0
  2 12  1  0  0  0  0
  3  4  1  0  0  0  0
  3 18  1  0  0  0  0
  4  5  1  0  0  0  0
  4 19  1  0  0  0  0
  4 20  1  0  0  0  0
  5  6  1  0  0  0  0
  5 21  1  0  0  0  0
  5 22  1  0  0  0  0
  6 11  1  0  0  0  0
  6  7  2  0  0  0  0
  7  8  1  0  0  0  0
  7 23  1  0  0  0  0
  8  9  1  0  0  0  0
  8 24  1  0  0  0  0
  8 25  1  0  0  0  0
  9 10  1  0  0  0  0
  9 26  1  0  0  0  0
  9 27  1  0  0  0  0
 10 11  1  0  0  0  0
 10 28  1  0  0  0  0
 10 29  1  0  0  0  0
 11 30  1  0  0  0  0
 11 31  1  0  0  0  0
 12 13  1  0  0  0  0
 13 17  1  0  0  0  0
 13 14  2  0  0  0  0
 14 15  1  0  0  0  0
 15 16  2  0  0  0  0
 16 17  1  0  0  0  0
 16 32  1  0  0  0  0
M  CHG  1  12  -1
M  END
> <s_m_source_file>
AV-unprocessed.smi

> <i_m_source_file_index>
1996

> <i_lp_mmshare_version>
43012

> <i_f3d_flags>
0

> <s_epik_input>
czFbY0hdbm5jMVtOSF1DKD1PKVtOSF1bQ0gyXVtDSDJdQzI9W0NIXVtDSDJdW0NIMl1bQ0gyXVtDSDJdMg==

> <s_epik_cmdline>
J2VwaWtfcHl0aG9uJywgJy1waCcsICc3LjAnLCAnLXRuJywgJzgnLCAnLW1hJywgJzIwMCcsICctbWV0YWxfYmluZGluZycsICctaW1hZScsICc8aW5maWxlLm1hZT4nLCAnLW9tYWUnLCAnPG91dGZpbGUubWFlPic=

> <r_lp_tautomer_probability>
1

> <r_epik_Ionization_Penalty>
3.56684

> <r_epik_Ionization_Penalty_Charging>
3.52481

> <r_epik_Ionization_Penalty_Neutral>
0.0420339

> <r_epik_State_Penalty>
3.52326

> <r_epik_Charging_Adjusted_Penalty>
7.04807

> <i_epik_Tot_Q>
-1

> <i_epik_Tot_abs_Q>
1

> <r_epik_Metal_State_Penalty>
0.513455

> <b_epik_Metal_Only>
1

> <s_lp_Force_Field>
OPLS_2005

> <r_lp_Energy>
5.58763

> <b_lp_Chiralities_Consistent>
1

> <s_lp_Variant>
AV-unprocessed.smi:1996-2

> <Gold.Version>
5.8.1

> <Gold.Id.Protein>
6NUR|6NUR_protein|mol2

> <Gold.PLP.Fitness>
46.2653

> <Gold.PLP.PLP>
-39.5834

> <Gold.PLP.part.hbond>
-3.0000

> <Gold.PLP.part.metal>
0.0000

> <Gold.PLP.part.buried>
-6.3498

> <Gold.PLP.part.nonpolar>
-30.1963

> <Gold.PLP.part.repulsive>
0.6035

> <Gold.PLP.ligand.clash>
0.0000

> <Gold.PLP.ligand.torsion>
0.6598

> <Gold.PLP.Chemscore.Hbond>
2.4671

> <Gold.PLP.Chemscore.CHOScore>
0.1856

> <Gold.PLP.Chemscore.Metal>
0.0000

> <Gold.Chemscore.Hbonds>
donor molecule, donor type, donor heavy atom, donor atom, acceptor molecule, acceptor atom, score
      L1  H     3    18       P1  8028  0.78
      P1  H  7989  7998       L1     1  1.00
      P1  H  8011  8017       L1    12  0.47
      L1  C    16    32       P1 10174  0.09

> <Gold.PLP.Chemscore.Internal.Correction>
0.0434

> <Gold.Rescore>
     Score         DG    S(hbond)    S(metal)    S(lipo)     H(rot)  DE(clash)    DE(int)     intcor
     15.50     -19.18       1.77        0.00     101.25       1.59       1.48       2.21       ----

> <Gold.Chemscore.Fitness>
15.4966

> <Gold.Chemscore.DG>
-19.1846

> <Gold.Chemscore.ZeroCoef>
-5.4800

> <Gold.Chemscore.Hbond>
1.7750

> <Gold.Chemscore.Metal>
0.0000

> <Gold.Chemscore.Lipo>
101.2484

> <Gold.Chemscore.Internal_Hbond>
0.0000

> <Gold.Chemscore.DEClash>
1.4800

> <Gold.Chemscore.DEInternal>
2.2080

> <Gold.Chemscore.Rot>
1.5898

> <Gold.Chemscore.Internal.Correction>
   9.000000E+99

> <Gold.Chemscore.Hbonds>
donor molecule, donor type, donor heavy atom, donor atom, acceptor molecule, acceptor atom, score
      L1  H     3    18       P1  8028  0.77
      P1  H  7989  7998       L1     1  0.43
      P1  H  8011  8017       L1    12  0.36

> <Gold.Chemscore.Hbond.Weighted>
-5.9284

> <Gold.Chemscore.Metal.Weighted>
-0.0000

> <Gold.Chemscore.Lipo.Weighted>
-11.8461

> <Gold.Chemscore.Internal_Hbond.Weighted>
0.0000

> <Gold.Chemscore.DEClash.Weighted>
1.4800

> <Gold.Chemscore.DEInternal.Weighted>
2.2080

> <Gold.Chemscore.Rot.Weighted>
4.0698

> <Gold.Chemscore.Internal.Correction.Weighted>
   9.000000E+99

> <Gold.Protein.RotatedTorsions>
[ 6907 6896 6895 6894 ] final   92.04 input  -60.11 | X-H torsion
[ 7974 7965 7964 7962 ] final   65.28 input  175.53 | X-H torsion
[ 8008 7997 7996 7995 ] final  102.74 input   59.86 | X-H torsion
[ 10167 10162 10161 10158 ] final  175.68 input  -65.29 | X-H torsion
[ 10718 10713 10712 10709 ] final -168.74 input   66.30 | X-H torsion
[ 10763 10752 10751 10750 ] final   77.93 input  -60.55 | X-H torsion
[ 11005 11000 10999 10996 ] final  -36.12 input  -57.11 | X-H torsion

> <Gold.Protein.ActiveResidues>
 VAL166  LYS551  ARG553  GLY616  TRP617  ASP618  TYR619  PRO620  LYS621  CYS622 
 ASP623  PHE694  ASN695  SER759  ASP760  ASP761  ALA762  ILE779  LEU786  VAL792 
 PHE793  MET794  SER795  GLU796  ALA797  LYS798  CYS799  TRP800  GLU811  SER814 

> <Gold.Protein.RotatedAtoms>
  152.5452  134.1564  159.8539 H   0  0  0  0  0  0  0  0  0  0  0  0  # atno 6907 bound_to 6896
  151.1586  133.4853  159.2602 H   0  0  0  0  0  0  0  0  0  0  0  0  # atno 6908 bound_to 6896
  151.1397  135.0184  159.8675 H   0  0  0  0  0  0  0  0  0  0  0  0  # atno 6909 bound_to 6896
  145.8403  139.3192  143.0935 H   0  0  0  0  0  0  0  0  0  0  0  0  # atno 7974 bound_to 7965
  156.1420  140.3176  155.8511 H   0  0  0  0  0  0  0  0  0  0  0  0  # atno 8008 bound_to 7997
  155.4135  140.0507  157.3047 H   0  0  0  0  0  0  0  0  0  0  0  0  # atno 8009 bound_to 7997
  154.4985  140.2120  155.9409 H   0  0  0  0  0  0  0  0  0  0  0  0  # atno 8010 bound_to 7997
  139.5186  144.3004  152.0384 H   0  0  0  0  0  0  0  0  0  0  0  0  # atno 10167 bound_to 10162
  156.7014  130.9198  151.3080 H   0  0  0  0  0  0  0  0  0  0  0  0  # atno 10718 bound_to 10713
  153.0836  135.4896  154.8552 H   0  0  0  0  0  0  0  0  0  0  0  0  # atno 10763 bound_to 10752
  154.7182  135.3034  154.9092 H   0  0  0  0  0  0  0  0  0  0  0  0  # atno 10764 bound_to 10752
  153.9764  135.6795  153.4801 H   0  0  0  0  0  0  0  0  0  0  0  0  # atno 10765 bound_to 10752
  140.9849  133.7036  156.1749 H   0  0  0  0  0  0  0  0  0  0  0  0  # atno 11005 bound_to 11000
  145.9472  140.8936  143.0277 LP  0  0  0  0  0  0  0  0  0  0  0  0  # atno 17320 bound_to 7965
  144.6734  140.1630  143.7421 LP  0  0  0  0  0  0  0  0  0  0  0  0  # atno 17321 bound_to 7965
  140.2452  144.4228  150.6244 LP  0  0  0  0  0  0  0  0  0  0  0  0  # atno 17342 bound_to 10162
  140.6263  143.2182  151.6589 LP  0  0  0  0  0  0  0  0  0  0  0  0  # atno 17343 bound_to 10162
  157.6972  130.9294  150.0678 LP  0  0  0  0  0  0  0  0  0  0  0  0  # atno 17370 bound_to 10713
  156.1726  130.3647  149.9144 LP  0  0  0  0  0  0  0  0  0  0  0  0  # atno 17371 bound_to 10713
  140.7129  134.4442  157.5580 LP  0  0  0  0  0  0  0  0  0  0  0  0  # atno 17394 bound_to 11000
  139.8966  134.8655  156.2079 LP  0  0  0  0  0  0  0  0  0  0  0  0  # atno 17395 bound_to 11000

$$$$
