AV-unprocessed.smi:1455|AV-procd|sdf|5916|dock8
  -GOLD-   22720 6 03D 1   1.00000     0.00000
 Structure written by MMmdl.
 31 32  0  0  0  0  0  0  0  0  2 V2000
  150.0350  142.5298  158.9703 O   0  0  0  0  0  0  0  0  0  0  0  0
  150.8513  141.8071  158.3993 C   0  0  0  0  0  0  0  0  0  0  0  0
  150.3561  140.5385  157.6832 C   0  0  0  0  0  0  0  0  0  0  0  0
  151.4203  139.6005  157.2811 N   0  0  0  0  0  0  0  0  0  0  0  0
  151.9801  138.7866  158.2818 C   0  0  0  0  0  0  0  0  0  0  0  0
  152.9477  137.8903  158.0104 C   0  0  0  0  0  0  0  0  0  0  0  0
  153.4160  137.7757  156.6348 C   0  0  0  0  0  0  0  0  0  0  0  0
  154.3006  136.9645  156.3688 O   0  0  0  0  0  0  0  0  0  0  0  0
  152.8392  138.5850  155.6988 N   0  5  0  0  0  0  0  0  0  0  0  0
  151.8533  139.4897  155.9887 C   0  0  0  0  0  0  0  0  0  0  0  0
  151.3380  140.2013  155.1265 O   0  0  0  0  0  0  0  0  0  0  0  0
  152.1656  142.0833  158.3627 N   0  0  0  0  0  0  0  0  0  0  0  0
  152.8067  143.2429  158.9729 C   0  0  0  0  0  0  0  0  0  0  0  0
  152.4654  143.3561  160.4736 C   0  0  0  0  0  0  0  0  0  0  0  0
  151.9649  144.7857  160.6907 C   0  0  0  0  0  0  0  0  0  0  0  0
  151.3674  145.1870  159.3456 C   0  0  0  0  0  0  0  0  0  0  0  0
  152.2974  144.5401  158.3196 C   0  0  0  0  0  0  0  0  0  0  0  0
  149.6300  140.0385  158.3262 H   0  0  0  0  0  0  0  0  0  0  0  0
  149.7866  140.8485  156.8059 H   0  0  0  0  0  0  0  0  0  0  0  0
  151.5719  138.9297  159.2715 H   0  0  0  0  0  0  0  0  0  0  0  0
  153.3645  137.2697  158.7900 H   0  0  0  0  0  0  0  0  0  0  0  0
  152.7665  141.4324  157.8771 H   0  0  0  0  0  0  0  0  0  0  0  0
  153.8869  143.1761  158.8312 H   0  0  0  0  0  0  0  0  0  0  0  0
  151.6714  142.6575  160.7428 H   0  0  0  0  0  0  0  0  0  0  0  0
  153.3225  143.1255  161.1070 H   0  0  0  0  0  0  0  0  0  0  0  0
  151.2475  144.8596  161.5084 H   0  0  0  0  0  0  0  0  0  0  0  0
  152.8069  145.4378  160.9261 H   0  0  0  0  0  0  0  0  0  0  0  0
  150.3646  144.7688  159.2483 H   0  0  0  0  0  0  0  0  0  0  0  0
  151.2933  146.2677  159.2230 H   0  0  0  0  0  0  0  0  0  0  0  0
  153.1427  145.2044  158.1355 H   0  0  0  0  0  0  0  0  0  0  0  0
  151.8036  144.3784  157.3601 H   0  0  0  0  0  0  0  0  0  0  0  0
  1  2  2  0  0  0  0
  2  3  1  0  0  0  0
  2 12  1  0  0  0  0
  3  4  1  0  0  0  0
  3 18  1  0  0  0  0
  3 19  1  0  0  0  0
  4 10  1  0  0  0  0
  4  5  1  0  0  0  0
  5  6  2  0  0  0  0
  5 20  1  0  0  0  0
  6  7  1  0  0  0  0
  6 21  1  0  0  0  0
  7  8  2  0  0  0  0
  7  9  1  0  0  0  0
  9 10  1  0  0  0  0
 10 11  2  0  0  0  0
 12 13  1  0  0  0  0
 12 22  1  0  0  0  0
 13 17  1  0  0  0  0
 13 14  1  0  0  0  0
 13 23  1  0  0  0  0
 14 15  1  0  0  0  0
 14 24  1  0  0  0  0
 14 25  1  0  0  0  0
 15 16  1  0  0  0  0
 15 26  1  0  0  0  0
 15 27  1  0  0  0  0
 16 17  1  0  0  0  0
 16 28  1  0  0  0  0
 16 29  1  0  0  0  0
 17 30  1  0  0  0  0
 17 31  1  0  0  0  0
M  CHG  1   9  -1
M  END
> <s_m_source_file>
AV-unprocessed.smi

> <i_m_source_file_index>
1455

> <i_lp_mmshare_version>
43012

> <i_f3d_flags>
0

> <s_epik_input>
W0NIMl0xW0NIMl1bQ0gyXVtDSDJdW0NIXTFbTkhdQyg9TylbQ0gyXW4yW2NIXVtjSF1jKD1PKVtuSF1jMj1P

> <s_epik_cmdline>
J2VwaWtfcHl0aG9uJywgJy1waCcsICc3LjAnLCAnLXRuJywgJzgnLCAnLW1hJywgJzIwMCcsICctbWV0YWxfYmluZGluZycsICctaW1hZScsICc8aW5maWxlLm1hZT4nLCAnLW9tYWUnLCAnPG91dGZpbGUubWFlPic=

> <r_lp_tautomer_probability>
0.999537

> <r_epik_Ionization_Penalty>
3.09122

> <r_epik_Ionization_Penalty_Charging>
2.83991e-08

> <r_epik_Ionization_Penalty_Neutral>
3.09122

> <r_epik_State_Penalty>
3.09028

> <r_epik_Charging_Adjusted_Penalty>
3.09028

> <i_epik_Tot_Q>
-1

> <i_epik_Tot_abs_Q>
1

> <r_epik_Metal_State_Penalty>
0.460928

> <b_epik_Metal_Only>
1

> <s_lp_Force_Field>
OPLS_2005

> <r_lp_Energy>
25.8803

> <b_lp_Chiralities_Consistent>
1

> <s_lp_Variant>
AV-unprocessed.smi:1455-2

> <Gold.Version>
5.8.1

> <Gold.Id.Protein>
6NUR|6NUR_protein|mol2

> <Gold.PLP.Fitness>
42.3344

> <Gold.PLP.PLP>
-36.3630

> <Gold.PLP.part.hbond>
-3.2549

> <Gold.PLP.part.metal>
0.0000

> <Gold.PLP.part.buried>
-4.8803

> <Gold.PLP.part.nonpolar>
-28.6868

> <Gold.PLP.part.repulsive>
0.2064

> <Gold.PLP.ligand.clash>
0.0000

> <Gold.PLP.ligand.torsion>
0.3861

> <Gold.PLP.Chemscore.Hbond>
2.2464

> <Gold.PLP.Chemscore.CHOScore>
0.0000

> <Gold.PLP.Chemscore.Metal>
0.0000

> <Gold.Chemscore.Hbonds>
donor molecule, donor type, donor heavy atom, donor atom, acceptor molecule, acceptor atom, score
      P1  H  7989  7998       L1    11  1.00
      P1  H  7997  8009       L1     9  0.29
      P1  H 10752 10765       L1     8  0.61

> <Gold.PLP.Chemscore.Internal.Correction>
0.0045

> <Gold.Rescore>
     Score         DG    S(hbond)    S(metal)    S(lipo)     H(rot)  DE(clash)    DE(int)     intcor
     13.71     -16.51       1.86        0.00      78.10       1.69       0.18       2.62       ----

> <Gold.Chemscore.Fitness>
13.7135

> <Gold.Chemscore.DG>
-16.5117

> <Gold.Chemscore.ZeroCoef>
-5.4800

> <Gold.Chemscore.Hbond>
1.8605

> <Gold.Chemscore.Metal>
0.0000

> <Gold.Chemscore.Lipo>
78.1004

> <Gold.Chemscore.Internal_Hbond>
0.0000

> <Gold.Chemscore.DEClash>
0.1815

> <Gold.Chemscore.DEInternal>
2.6167

> <Gold.Chemscore.Rot>
1.6875

> <Gold.Chemscore.Internal.Correction>
   9.000000E+99

> <Gold.Chemscore.Hbonds>
donor molecule, donor type, donor heavy atom, donor atom, acceptor molecule, acceptor atom, score
      P1  H  7989  7998       L1    11  0.98
      P1  H 10752 10765       L1     8  0.60

> <Gold.Chemscore.Hbond.Weighted>
-6.2140

> <Gold.Chemscore.Metal.Weighted>
-0.0000

> <Gold.Chemscore.Lipo.Weighted>
-9.1377

> <Gold.Chemscore.Internal_Hbond.Weighted>
0.0000

> <Gold.Chemscore.DEClash.Weighted>
0.1815

> <Gold.Chemscore.DEInternal.Weighted>
2.6167

> <Gold.Chemscore.Rot.Weighted>
4.3200

> <Gold.Chemscore.Internal.Correction.Weighted>
   9.000000E+99

> <Gold.Protein.RotatedTorsions>
[ 6907 6896 6895 6894 ] final -100.88 input  -60.11 | X-H torsion
[ 7974 7965 7964 7962 ] final  105.05 input  175.53 | X-H torsion
[ 8008 7997 7996 7995 ] final -142.01 input   59.86 | X-H torsion
[ 10167 10162 10161 10158 ] final  -65.66 input  -65.29 | X-H torsion
[ 10718 10713 10712 10709 ] final   94.56 input   66.30 | X-H torsion
[ 10763 10752 10751 10750 ] final  -94.07 input  -60.55 | X-H torsion
[ 11005 11000 10999 10996 ] final  -38.78 input  -57.11 | X-H torsion

> <Gold.Protein.ActiveResidues>
 VAL166  LYS551  ARG553  GLY616  TRP617  ASP618  TYR619  PRO620  LYS621  CYS622 
 ASP623  PHE694  ASN695  SER759  ASP760  ASP761  ALA762  ILE779  LEU786  VAL792 
 PHE793  MET794  SER795  GLU796  ALA797  LYS798  CYS799  TRP800  GLU811  SER814 

> <Gold.Protein.RotatedAtoms>
  150.7132  134.0820  159.3901 H   0  0  0  0  0  0  0  0  0  0  0  0  # atno 6907 bound_to 6896
  151.8804  135.0453  160.0497 H   0  0  0  0  0  0  0  0  0  0  0  0  # atno 6908 bound_to 6896
  152.2572  133.5230  159.5397 H   0  0  0  0  0  0  0  0  0  0  0  0  # atno 6909 bound_to 6896
  145.3247  139.2503  143.3693 H   0  0  0  0  0  0  0  0  0  0  0  0  # atno 7974 bound_to 7965
  155.4872  140.0565  157.2959 H   0  0  0  0  0  0  0  0  0  0  0  0  # atno 8008 bound_to 7997
  154.4637  140.2008  156.0127 H   0  0  0  0  0  0  0  0  0  0  0  0  # atno 8009 bound_to 7997
  156.0936  140.3229  155.7853 H   0  0  0  0  0  0  0  0  0  0  0  0  # atno 8010 bound_to 7997
  140.5713  143.2318  151.6532 H   0  0  0  0  0  0  0  0  0  0  0  0  # atno 10167 bound_to 10162
  157.6947  131.0516  150.4205 H   0  0  0  0  0  0  0  0  0  0  0  0  # atno 10718 bound_to 10713
  154.7020  135.5171  153.8541 H   0  0  0  0  0  0  0  0  0  0  0  0  # atno 10763 bound_to 10752
  153.0712  135.6601  154.0254 H   0  0  0  0  0  0  0  0  0  0  0  0  # atno 10764 bound_to 10752
  154.0111  135.3002  155.3372 H   0  0  0  0  0  0  0  0  0  0  0  0  # atno 10765 bound_to 10752
  141.0053  133.6935  156.2099 H   0  0  0  0  0  0  0  0  0  0  0  0  # atno 11005 bound_to 11000
  146.3069  140.3812  142.8684 LP  0  0  0  0  0  0  0  0  0  0  0  0  # atno 17320 bound_to 7965
  144.8911  140.7525  143.5926 LP  0  0  0  0  0  0  0  0  0  0  0  0  # atno 17321 bound_to 7965
  139.5119  144.3493  152.0667 LP  0  0  0  0  0  0  0  0  0  0  0  0  # atno 17342 bound_to 10162
  140.2631  144.4045  150.6178 LP  0  0  0  0  0  0  0  0  0  0  0  0  # atno 17343 bound_to 10162
  156.4580  130.4026  149.6594 LP  0  0  0  0  0  0  0  0  0  0  0  0  # atno 17370 bound_to 10713
  156.3719  130.7535  151.2519 LP  0  0  0  0  0  0  0  0  0  0  0  0  # atno 17371 bound_to 10713
  140.6823  134.4754  157.5589 LP  0  0  0  0  0  0  0  0  0  0  0  0  # atno 17394 bound_to 11000
  139.9060  134.8448  156.1705 LP  0  0  0  0  0  0  0  0  0  0  0  0  # atno 17395 bound_to 11000

$$$$
