AV-unprocessed.smi:256|AV-procd|sdf|1961|dock8
  -GOLD-   2262021113D 1   1.00000     0.00000
 Structure written by MMmdl.
 61 64  0  0  0  0  0  0  0  0  1 V2000
  149.3773  133.3970  154.9228 C   0  0  0  0  0  0  0  0  0  0  0  0
  149.1613  133.3409  156.4448 C   0  0  0  0  0  0  0  0  0  0  0  0
  148.8771  134.7044  157.1183 C   0  0  2  0  0  0  0  0  0  0  0  0
  149.9308  135.7322  156.6354 C   0  0  0  0  0  0  0  0  0  0  0  0
  149.6467  137.0661  157.1595 N   0  0  0  0  0  0  0  0  0  0  0  0
  150.3216  138.1192  156.6308 C   0  0  0  0  0  0  0  0  0  0  0  0
  151.1430  137.9334  155.5621 N   0  0  0  0  0  0  0  0  0  0  0  0
  151.8148  138.9627  155.0381 C   0  0  0  0  0  0  0  0  0  0  0  0
  151.8118  140.2411  155.4184 N   0  0  0  0  0  0  0  0  0  0  0  0
  150.9867  140.4372  156.4861 C   0  0  0  0  0  0  0  0  0  0  0  0
  150.2091  139.4425  157.1450 C   0  0  0  0  0  0  0  0  0  0  0  0
  149.4769  140.0227  158.1746 N   0  0  0  0  0  0  0  0  0  0  0  0
  149.8104  141.2834  158.1333 C   0  0  0  0  0  0  0  0  0  0  0  0
  150.7201  141.6185  157.1561 N   0  0  0  0  0  0  0  0  0  0  0  0
  151.2622  142.9422  156.8881 C   0  0  0  0  0  0  0  0  0  0  0  0
  151.8506  143.6483  158.1353 C   0  0  0  0  0  0  0  0  0  0  0  0
  152.7337  144.6601  157.6839 O   0  0  0  0  0  0  0  0  0  0  0  0
  150.7263  144.3151  158.9535 C   0  0  0  0  0  0  0  0  0  0  0  0
  151.2375  144.8813  160.2900 C   0  0  0  0  0  0  0  0  0  0  0  0
  151.8826  143.8569  161.0367 O   0  0  0  0  0  0  0  0  0  0  0  0
  153.0360  143.3430  160.3823 C   0  0  0  0  0  0  0  0  0  0  0  0
  152.6403  142.6849  159.0488 C   0  0  0  0  0  0  0  0  0  0  0  0
  149.5270  137.0765  158.6122 C   0  0  0  0  0  0  0  0  0  0  0  0
  148.4675  136.0556  159.0472 C   0  0  0  0  0  0  0  0  0  0  0  0
  148.7580  134.6895  158.5965 N   0  0  0  0  0  0  0  0  0  0  0  0
  147.7043  133.7922  159.0950 C   0  0  0  0  0  0  0  0  0  0  0  0
  147.5064  133.7788  160.6199 C   0  0  0  0  0  0  0  0  0  0  0  0
  146.6796  134.8757  160.9714 O   0  0  0  0  0  0  0  0  0  0  0  0
  146.3695  134.9041  162.3539 C   0  0  0  0  0  0  0  0  0  0  0  0
  149.6742  132.4200  154.5415 H   0  0  0  0  0  0  0  0  0  0  0  0
  150.1557  134.1088  154.6494 H   0  0  0  0  0  0  0  0  0  0  0  0
  148.4664  133.6840  154.3981 H   0  0  0  0  0  0  0  0  0  0  0  0
  148.3207  132.6741  156.6409 H   0  0  0  0  0  0  0  0  0  0  0  0
  150.0065  132.8530  156.9270 H   0  0  0  0  0  0  0  0  0  0  0  0
  147.9183  135.0388  156.7179 H   0  0  0  0  0  0  0  0  0  0  0  0
  150.9295  135.4368  156.9591 H   0  0  0  0  0  0  0  0  0  0  0  0
  149.9387  135.7634  155.5448 H   0  0  0  0  0  0  0  0  0  0  0  0
  152.4445  138.7280  154.1927 H   0  0  0  0  0  0  0  0  0  0  0  0
  149.4034  142.0085  158.8232 H   0  0  0  0  0  0  0  0  0  0  0  0
  152.0212  142.8517  156.1094 H   0  0  0  0  0  0  0  0  0  0  0  0
  150.4626  143.5483  156.4604 H   0  0  0  0  0  0  0  0  0  0  0  0
  152.5481  144.8385  156.7747 H   0  0  0  0  0  0  0  0  0  0  0  0
  150.2445  145.1030  158.3729 H   0  0  0  0  0  0  0  0  0  0  0  0
  149.9508  143.5783  159.1677 H   0  0  0  0  0  0  0  0  0  0  0  0
  151.9204  145.7169  160.1295 H   0  0  0  0  0  0  0  0  0  0  0  0
  150.4019  145.2663  160.8744 H   0  0  0  0  0  0  0  0  0  0  0  0
  153.7650  144.1398  160.2269 H   0  0  0  0  0  0  0  0  0  0  0  0
  153.5091  142.6075  161.0330 H   0  0  0  0  0  0  0  0  0  0  0  0
  152.0259  141.8094  159.2632 H   0  0  0  0  0  0  0  0  0  0  0  0
  153.5352  142.3161  158.5461 H   0  0  0  0  0  0  0  0  0  0  0  0
  150.4930  136.8296  159.0548 H   0  0  0  0  0  0  0  0  0  0  0  0
  149.2515  138.0621  158.9850 H   0  0  0  0  0  0  0  0  0  0  0  0
  148.4041  136.0764  160.1358 H   0  0  0  0  0  0  0  0  0  0  0  0
  147.4904  136.3696  158.6760 H   0  0  0  0  0  0  0  0  0  0  0  0
  146.7428  134.0990  158.6801 H   0  0  0  0  0  0  0  0  0  0  0  0
  147.8621  132.7792  158.7226 H   0  0  0  0  0  0  0  0  0  0  0  0
  147.0457  132.8586  160.9707 H   0  0  0  0  0  0  0  0  0  0  0  0
  148.4729  133.8714  161.1178 H   0  0  0  0  0  0  0  0  0  0  0  0
  145.7422  135.7686  162.5715 H   0  0  0  0  0  0  0  0  0  0  0  0
  147.2730  134.9837  162.9599 H   0  0  0  0  0  0  0  0  0  0  0  0
  145.8241  134.0085  162.6539 H   0  0  0  0  0  0  0  0  0  0  0  0
  1  2  1  0  0  0  0
  1 30  1  0  0  0  0
  1 31  1  0  0  0  0
  1 32  1  0  0  0  0
  2  3  1  0  0  0  0
  2 33  1  0  0  0  0
  2 34  1  0  0  0  0
  3 25  1  0  0  0  0
  3  4  1  0  0  0  0
  3 35  1  0  0  0  0
  4  5  1  0  0  0  0
  4 36  1  0  0  0  0
  4 37  1  0  0  0  0
  5  6  1  0  0  0  0
  5 23  1  0  0  0  0
  6 11  1  0  0  0  0
  6  7  2  0  0  0  0
  7  8  1  0  0  0  0
  8  9  2  0  0  0  0
  8 38  1  0  0  0  0
  9 10  1  0  0  0  0
 10 14  1  0  0  0  0
 10 11  2  0  0  0  0
 11 12  1  0  0  0  0
 12 13  2  0  0  0  0
 13 14  1  0  0  0  0
 13 39  1  0  0  0  0
 14 15  1  0  0  0  0
 15 16  1  0  0  0  0
 15 40  1  0  0  0  0
 15 41  1  0  0  0  0
 16 22  1  0  0  0  0
 16 17  1  0  0  0  0
 16 18  1  0  0  0  0
 17 42  1  0  0  0  0
 18 19  1  0  0  0  0
 18 43  1  0  0  0  0
 18 44  1  0  0  0  0
 19 20  1  0  0  0  0
 19 45  1  0  0  0  0
 19 46  1  0  0  0  0
 20 21  1  0  0  0  0
 21 22  1  0  0  0  0
 21 47  1  0  0  0  0
 21 48  1  0  0  0  0
 22 49  1  0  0  0  0
 22 50  1  0  0  0  0
 23 24  1  0  0  0  0
 23 51  1  0  0  0  0
 23 52  1  0  0  0  0
 24 25  1  0  0  0  0
 24 53  1  0  0  0  0
 24 54  1  0  0  0  0
 25 26  1  0  0  0  0
 26 27  1  0  0  0  0
 26 55  1  0  0  0  0
 26 56  1  0  0  0  0
 27 28  1  0  0  0  0
 27 57  1  0  0  0  0
 27 58  1  0  0  0  0
 28 29  1  0  0  0  0
 29 59  1  0  0  0  0
 29 60  1  0  0  0  0
 29 61  1  0  0  0  0
M  END
> <s_m_source_file>
AV-unprocessed.smi

> <i_m_source_file_index>
256

> <i_lp_mmshare_version>
43012

> <i_f3d_flags>
0

> <s_epik_input>
W0NIM11PW0NIMl1bQ0gyXU4xW0NIMl1bQ0gyXU4oW0NIMl1bQ0BIXTFbQ0gyXVtDSDNdKWMobltjSF1uMiljKGMyMyluW2NIXW4zW0NIMl1DNChbT0hdKVtDSDJdW0NIMl1PW0NIMl1bQ0gyXTQ=

> <s_epik_cmdline>
J2VwaWtfcHl0aG9uJywgJy1waCcsICc3LjAnLCAnLXRuJywgJzgnLCAnLW1hJywgJzIwMCcsICctbWV0YWxfYmluZGluZycsICctaW1hZScsICc8aW5maWxlLm1hZT4nLCAnLW9tYWUnLCAnPG91dGZpbGUubWFlPic=

> <r_lp_tautomer_probability>
1

> <r_epik_Ionization_Penalty>
0.676279

> <r_epik_Ionization_Penalty_Charging>
0

> <r_epik_Ionization_Penalty_Neutral>
0.676279

> <r_epik_State_Penalty>
0.6855

> <r_epik_Charging_Adjusted_Penalty>
0.6855

> <i_epik_Tot_Q>
0

> <i_epik_Tot_abs_Q>
0

> <r_epik_Metal_State_Penalty>
0.678557

> <b_epik_Metal_Only>
0

> <s_lp_Force_Field>
OPLS_2005

> <r_lp_Energy>
62.0394

> <b_lp_Chiralities_Consistent>
1

> <s_lp_Variant>
AV-unprocessed.smi:256-5

> <Gold.Version>
5.8.1

> <Gold.Id.Protein>
6NUR|6NUR_protein|mol2

> <Gold.PLP.Fitness>
47.4779

> <Gold.PLP.PLP>
-44.2345

> <Gold.PLP.part.hbond>
-2.0000

> <Gold.PLP.part.metal>
0.0000

> <Gold.PLP.part.buried>
-6.7146

> <Gold.PLP.part.nonpolar>
-36.5108

> <Gold.PLP.part.repulsive>
0.1743

> <Gold.PLP.ligand.clash>
0.0000

> <Gold.PLP.ligand.torsion>
0.8876

> <Gold.PLP.Chemscore.Hbond>
1.5408

> <Gold.PLP.Chemscore.CHOScore>
0.0000

> <Gold.PLP.Chemscore.Metal>
0.0000

> <Gold.Chemscore.Hbonds>
donor molecule, donor type, donor heavy atom, donor atom, acceptor molecule, acceptor atom, score
      P1  H  6896  6909       L1    25  0.84
      P1  H  7989  7998       L1     9  0.49

> <Gold.PLP.Chemscore.Internal.Correction>
0.3962

> <Gold.Rescore>
     Score         DG    S(hbond)    S(metal)    S(lipo)     H(rot)  DE(clash)    DE(int)     intcor
     10.14     -12.23       0.35        0.00     110.50       2.87       0.08       2.02       ----

> <Gold.Chemscore.Fitness>
10.1405

> <Gold.Chemscore.DG>
-12.2345

> <Gold.Chemscore.ZeroCoef>
-5.4800

> <Gold.Chemscore.Hbond>
0.3511

> <Gold.Chemscore.Metal>
0.0000

> <Gold.Chemscore.Lipo>
110.5038

> <Gold.Chemscore.Internal_Hbond>
0.0000

> <Gold.Chemscore.DEClash>
0.0787

> <Gold.Chemscore.DEInternal>
2.0153

> <Gold.Chemscore.Rot>
2.8700

> <Gold.Chemscore.Internal.Correction>
   9.000000E+99

> <Gold.Chemscore.Hbonds>
donor molecule, donor type, donor heavy atom, donor atom, acceptor molecule, acceptor atom, score
      P1  H  6896  6909       L1    25  0.24
      P1  H  7989  7998       L1     9  0.03

> <Gold.Chemscore.Hbond.Weighted>
-1.1728

> <Gold.Chemscore.Metal.Weighted>
-0.0000

> <Gold.Chemscore.Lipo.Weighted>
-12.9289

> <Gold.Chemscore.Internal_Hbond.Weighted>
0.0000

> <Gold.Chemscore.DEClash.Weighted>
0.0787

> <Gold.Chemscore.DEInternal.Weighted>
2.0153

> <Gold.Chemscore.Rot.Weighted>
7.3472

> <Gold.Chemscore.Internal.Correction.Weighted>
   9.000000E+99

> <Gold.Protein.RotatedTorsions>
[ 6907 6896 6895 6894 ] final   27.68 input  -60.11 | X-H torsion
[ 7974 7965 7964 7962 ] final  160.39 input  175.53 | X-H torsion
[ 8008 7997 7996 7995 ] final -133.96 input   59.86 | X-H torsion
[ 10167 10162 10161 10158 ] final -102.36 input  -65.29 | X-H torsion
[ 10718 10713 10712 10709 ] final  -48.15 input   66.30 | X-H torsion
[ 10763 10752 10751 10750 ] final  -24.56 input  -60.55 | X-H torsion
[ 11005 11000 10999 10996 ] final  -45.55 input  -57.11 | X-H torsion

> <Gold.Protein.ActiveResidues>
 VAL166  LYS551  ARG553  GLY616  TRP617  ASP618  TYR619  PRO620  LYS621  CYS622 
 ASP623  PHE694  ASN695  SER759  ASP760  ASP761  ALA762  ILE779  LEU786  VAL792 
 PHE793  MET794  SER795  GLU796  ALA797  LYS798  CYS799  TRP800  GLU811  SER814 

> <Gold.Protein.RotatedAtoms>
  152.0059  134.9903  160.0566 H   0  0  0  0  0  0  0  0  0  0  0  0  # atno 6907 bound_to 6896
  152.1475  133.4497  159.4805 H   0  0  0  0  0  0  0  0  0  0  0  0  # atno 6908 bound_to 6896
  150.6872  134.2148  159.4416 H   0  0  0  0  0  0  0  0  0  0  0  0  # atno 6909 bound_to 6896
  144.7740  139.7750  143.6286 H   0  0  0  0  0  0  0  0  0  0  0  0  # atno 7974 bound_to 7965
  155.3542  140.0479  157.3046 H   0  0  0  0  0  0  0  0  0  0  0  0  # atno 8008 bound_to 7997
  154.5211  140.2225  155.8937 H   0  0  0  0  0  0  0  0  0  0  0  0  # atno 8009 bound_to 7997
  156.1691  140.3100  155.8947 H   0  0  0  0  0  0  0  0  0  0  0  0  # atno 8010 bound_to 7997
  140.2315  143.3603  152.0882 H   0  0  0  0  0  0  0  0  0  0  0  0  # atno 10167 bound_to 10162
  156.2015  130.4156  149.9234 H   0  0  0  0  0  0  0  0  0  0  0  0  # atno 10718 bound_to 10713
  153.6857  135.6964  153.5105 H   0  0  0  0  0  0  0  0  0  0  0  0  # atno 10763 bound_to 10752
  153.2451  135.4293  155.0738 H   0  0  0  0  0  0  0  0  0  0  0  0  # atno 10764 bound_to 10752
  154.8387  135.3517  154.6399 H   0  0  0  0  0  0  0  0  0  0  0  0  # atno 10765 bound_to 10752
  141.0523  133.6738  156.3029 H   0  0  0  0  0  0  0  0  0  0  0  0  # atno 11005 bound_to 11000
  146.1906  139.5144  142.9807 LP  0  0  0  0  0  0  0  0  0  0  0  0  # atno 17320 bound_to 7965
  145.6241  141.0317  143.1899 LP  0  0  0  0  0  0  0  0  0  0  0  0  # atno 17321 bound_to 7965
  139.5108  144.6891  151.5809 LP  0  0  0  0  0  0  0  0  0  0  0  0  # atno 17342 bound_to 10162
  140.6182  143.9309  150.6505 LP  0  0  0  0  0  0  0  0  0  0  0  0  # atno 17343 bound_to 10162
  156.6942  130.8908  151.3592 LP  0  0  0  0  0  0  0  0  0  0  0  0  # atno 17370 bound_to 10713
  157.6988  130.9311  150.0724 LP  0  0  0  0  0  0  0  0  0  0  0  0  # atno 17371 bound_to 10713
  140.6032  134.5533  157.5521 LP  0  0  0  0  0  0  0  0  0  0  0  0  # atno 17394 bound_to 11000
  139.9360  134.7874  156.0801 LP  0  0  0  0  0  0  0  0  0  0  0  0  # atno 17395 bound_to 11000

$$$$
