AV-unprocessed.smi:2845|AV-procd|sdf|10944|dock8
  -GOLD-   2272015393D 1   1.00000     0.00000
 Structure written by MMmdl.
 42 44  0  0  0  0  0  0  0  0  1 V2000
  153.4445  143.1538  163.2920 C   0  0  0  0  0  0  0  0  0  0  0  0
  152.9864  142.7101  161.9139 C   0  0  0  0  0  0  0  0  0  0  0  0
  152.0860  143.5270  161.1923 C   0  0  0  0  0  0  0  0  0  0  0  0
  151.6355  143.1499  159.9080 C   0  0  0  0  0  0  0  0  0  0  0  0
  150.7679  143.7834  159.0336 N   0  0  0  0  0  0  0  0  0  0  0  0
  150.7539  142.9369  158.0071 C   0  0  0  0  0  0  0  0  0  0  0  0
  151.5090  141.8272  158.1164 N   0  0  0  0  0  0  0  0  0  0  0  0
  151.6680  140.7611  157.1473 C   0  0  0  0  0  0  0  0  0  0  0  0
  150.8177  141.0029  155.8816 C   0  0  1  0  0  0  0  0  0  0  0  0
  151.3423  140.2435  154.8116 O   0  0  0  0  0  0  0  0  0  0  0  0
  149.3256  140.6568  156.0630 C   0  0  0  0  0  0  0  0  0  0  0  0
  149.1203  139.3015  156.5460 N   0  0  0  0  0  0  0  0  0  0  0  0
  149.6424  138.1425  156.1336 C   0  0  0  0  0  0  0  0  0  0  0  0
  149.2349  137.0886  156.8299 N   0  0  0  0  0  0  0  0  0  0  0  0
  148.3969  137.7212  157.7016 C   0  0  0  0  0  0  0  0  0  0  0  0
  147.5264  136.8136  159.0177 S   0  0  1  0  0  0  0  0  0  0  0  0
  148.3066  135.1701  158.6559 C   0  0  0  0  0  0  0  0  0  0  0  0
  148.1166  137.3038  160.3418 O   0  0  0  0  0  0  0  0  0  0  0  0
  148.2689  139.0385  157.5663 N   0  0  0  0  0  0  0  0  0  0  0  0
  152.1157  141.9243  159.3627 C   0  0  0  0  0  0  0  0  0  0  0  0
  153.0106  141.1027  160.0701 C   0  0  0  0  0  0  0  0  0  0  0  0
  153.4499  141.4933  161.3515 C   0  0  0  0  0  0  0  0  0  0  0  0
  154.4142  140.5962  162.1070 C   0  0  0  0  0  0  0  0  0  0  0  0
  152.9856  144.1004  163.5789 H   0  0  0  0  0  0  0  0  0  0  0  0
  154.5264  143.2875  163.3096 H   0  0  0  0  0  0  0  0  0  0  0  0
  153.1744  142.4106  164.0425 H   0  0  0  0  0  0  0  0  0  0  0  0
  151.7326  144.4532  161.6210 H   0  0  0  0  0  0  0  0  0  0  0  0
  150.1603  143.1332  157.1262 H   0  0  0  0  0  0  0  0  0  0  0  0
  152.7240  140.6571  156.8937 H   0  0  0  0  0  0  0  0  0  0  0  0
  151.3784  139.8342  157.6425 H   0  0  0  0  0  0  0  0  0  0  0  0
  150.8934  142.0523  155.5930 H   0  0  0  0  0  0  0  0  0  0  0  0
  150.8423  140.4381  154.0334 H   0  0  0  0  0  0  0  0  0  0  0  0
  148.8591  141.3433  156.7708 H   0  0  0  0  0  0  0  0  0  0  0  0
  148.7952  140.7692  155.1162 H   0  0  0  0  0  0  0  0  0  0  0  0
  150.3475  138.0703  155.3183 H   0  0  0  0  0  0  0  0  0  0  0  0
  147.6676  134.5902  157.9900 H   0  0  0  0  0  0  0  0  0  0  0  0
  148.4431  134.6086  159.5798 H   0  0  0  0  0  0  0  0  0  0  0  0
  149.2811  135.2919  158.1826 H   0  0  0  0  0  0  0  0  0  0  0  0
  153.3534  140.1774  159.6312 H   0  0  0  0  0  0  0  0  0  0  0  0
  154.6657  139.7071  161.5283 H   0  0  0  0  0  0  0  0  0  0  0  0
  153.9733  140.2674  163.0481 H   0  0  0  0  0  0  0  0  0  0  0  0
  155.3411  141.1274  162.3239 H   0  0  0  0  0  0  0  0  0  0  0  0
  1  2  1  0  0  0  0
  1 24  1  0  0  0  0
  1 25  1  0  0  0  0
  1 26  1  0  0  0  0
  2 22  1  0  0  0  0
  2  3  2  0  0  0  0
  3  4  1  0  0  0  0
  3 27  1  0  0  0  0
  4 20  2  0  0  0  0
  4  5  1  0  0  0  0
  5  6  2  0  0  0  0
  6  7  1  0  0  0  0
  6 28  1  0  0  0  0
  7  8  1  0  0  0  0
  7 20  1  0  0  0  0
  8  9  1  0  0  0  0
  8 29  1  0  0  0  0
  8 30  1  0  0  0  0
  9 10  1  0  0  0  0
  9 11  1  0  0  0  0
  9 31  1  0  0  0  0
 10 32  1  0  0  0  0
 11 12  1  0  0  0  0
 11 33  1  0  0  0  0
 11 34  1  0  0  0  0
 12 19  1  0  0  0  0
 12 13  1  0  0  0  0
 13 14  2  0  0  0  0
 13 35  1  0  0  0  0
 14 15  1  0  0  0  0
 15 16  1  0  0  0  0
 15 19  2  0  0  0  0
 16 17  1  0  0  0  0
 16 18  2  0  0  0  0
 17 36  1  0  0  0  0
 17 37  1  0  0  0  0
 17 38  1  0  0  0  0
 20 21  1  0  0  0  0
 21 22  2  0  0  0  0
 21 39  1  0  0  0  0
 22 23  1  0  0  0  0
 23 40  1  0  0  0  0
 23 41  1  0  0  0  0
 23 42  1  0  0  0  0
M  END
> <s_m_source_file>
AV-unprocessed.smi

> <i_m_source_file_index>
2845

> <i_lp_mmshare_version>
43012

> <i_f3d_flags>
0

> <s_epik_input>
W0NIM11jKFtjSF0xKWMoW0NIM10pW2NIXWMoYzEyKW4oW2NIXW4yKVtDSDJdW0NASF0oW09IXSlbQ0gyXW4zW2NIXW5jKG4zKVtTQF0oPU8pW0NIM10=

> <s_epik_cmdline>
J2VwaWtfcHl0aG9uJywgJy1waCcsICc3LjAnLCAnLXRuJywgJzgnLCAnLW1hJywgJzIwMCcsICctbWV0YWxfYmluZGluZycsICctaW1hZScsICc8aW5maWxlLm1hZT4nLCAnLW9tYWUnLCAnPG91dGZpbGUubWFlPic=

> <r_lp_tautomer_probability>
1

> <r_epik_Ionization_Penalty>
0.0968684

> <r_epik_Ionization_Penalty_Charging>
0

> <r_epik_Ionization_Penalty_Neutral>
0.0968684

> <r_epik_State_Penalty>
0.0870047

> <r_epik_Charging_Adjusted_Penalty>
0.0870047

> <i_epik_Tot_Q>
0

> <i_epik_Tot_abs_Q>
0

> <r_epik_Metal_State_Penalty>
0.0746849

> <b_epik_Metal_Only>
0

> <s_lp_Force_Field>
OPLS_2005

> <r_lp_Energy>
8.02323

> <b_lp_Chiralities_Consistent>
1

> <s_lp_Variant>
AV-unprocessed.smi:2845-2

> <Gold.Version>
5.8.1

> <Gold.Id.Protein>
6NUR|6NUR_protein|mol2

> <Gold.PLP.Fitness>
47.4132

> <Gold.PLP.PLP>
-41.2779

> <Gold.PLP.part.hbond>
-2.8588

> <Gold.PLP.part.metal>
0.0000

> <Gold.PLP.part.buried>
-5.2564

> <Gold.PLP.part.nonpolar>
-33.5696

> <Gold.PLP.part.repulsive>
0.1073

> <Gold.PLP.ligand.clash>
0.0000

> <Gold.PLP.ligand.torsion>
0.9854

> <Gold.PLP.Chemscore.Hbond>
1.3541

> <Gold.PLP.Chemscore.CHOScore>
1.0000

> <Gold.PLP.Chemscore.Metal>
0.0000

> <Gold.Chemscore.Hbonds>
donor molecule, donor type, donor heavy atom, donor atom, acceptor molecule, acceptor atom, score
      P1  H  6931  6943       L1    18  0.65
      P1  H  6934  6947       L1    18  0.67
      L1  C     6    28       P1  8028  1.00

> <Gold.PLP.Chemscore.Internal.Correction>
1.0438

> <Gold.Rescore>
     Score         DG    S(hbond)    S(metal)    S(lipo)     H(rot)  DE(clash)    DE(int)     intcor
     13.26     -15.30       1.48        0.00     101.10       2.71       0.00       2.03       ----

> <Gold.Chemscore.Fitness>
13.2614

> <Gold.Chemscore.DG>
-15.2957

> <Gold.Chemscore.ZeroCoef>
-5.4800

> <Gold.Chemscore.Hbond>
1.4750

> <Gold.Chemscore.Metal>
0.0000

> <Gold.Chemscore.Lipo>
101.1004

> <Gold.Chemscore.Internal_Hbond>
0.0000

> <Gold.Chemscore.DEClash>
0.0000

> <Gold.Chemscore.DEInternal>
2.0343

> <Gold.Chemscore.Rot>
2.7108

> <Gold.Chemscore.Internal.Correction>
   9.000000E+99

> <Gold.Chemscore.Hbonds>
donor molecule, donor type, donor heavy atom, donor atom, acceptor molecule, acceptor atom, score
      P1  H  6931  6943       L1    18  0.61
      P1  H  6934  6947       L1    18  0.47

> <Gold.Chemscore.Hbond.Weighted>
-4.9266

> <Gold.Chemscore.Metal.Weighted>
-0.0000

> <Gold.Chemscore.Lipo.Weighted>
-11.8287

> <Gold.Chemscore.Internal_Hbond.Weighted>
0.0000

> <Gold.Chemscore.DEClash.Weighted>
0.0000

> <Gold.Chemscore.DEInternal.Weighted>
2.0343

> <Gold.Chemscore.Rot.Weighted>
6.9396

> <Gold.Chemscore.Internal.Correction.Weighted>
   9.000000E+99

> <Gold.Protein.RotatedTorsions>
[ 6907 6896 6895 6894 ] final  -53.07 input  -60.11 | X-H torsion
[ 7974 7965 7964 7962 ] final  -32.09 input  175.53 | X-H torsion
[ 8008 7997 7996 7995 ] final   27.81 input   59.86 | X-H torsion
[ 10167 10162 10161 10158 ] final  136.96 input  -65.29 | X-H torsion
[ 10718 10713 10712 10709 ] final   32.19 input   66.30 | X-H torsion
[ 10763 10752 10751 10750 ] final  -89.46 input  -60.55 | X-H torsion
[ 11005 11000 10999 10996 ] final  102.93 input  -57.11 | X-H torsion

> <Gold.Protein.ActiveResidues>
 VAL166  LYS551  ARG553  GLY616  TRP617  ASP618  TYR619  PRO620  LYS621  CYS622 
 ASP623  PHE694  ASN695  SER759  ASP760  ASP761  ALA762  ILE779  LEU786  VAL792 
 PHE793  MET794  SER795  GLU796  ALA797  LYS798  CYS799  TRP800  GLU811  SER814 

> <Gold.Protein.RotatedAtoms>
  150.8460  134.7769  159.6970 H   0  0  0  0  0  0  0  0  0  0  0  0  # atno 6907 bound_to 6896
  152.4536  134.5336  159.9828 H   0  0  0  0  0  0  0  0  0  0  0  0  # atno 6908 bound_to 6896
  151.5466  133.3386  159.2981 H   0  0  0  0  0  0  0  0  0  0  0  0  # atno 6909 bound_to 6896
  146.1017  140.5749  142.8818 H   0  0  0  0  0  0  0  0  0  0  0  0  # atno 7974 bound_to 7965
  155.0487  140.3177  155.4699 H   0  0  0  0  0  0  0  0  0  0  0  0  # atno 8008 bound_to 7997
  156.2839  140.2150  156.5556 H   0  0  0  0  0  0  0  0  0  0  0  0  # atno 8009 bound_to 7997
  154.7228  140.0488  157.0643 H   0  0  0  0  0  0  0  0  0  0  0  0  # atno 8010 bound_to 7997
  139.5161  144.6436  151.5501 H   0  0  0  0  0  0  0  0  0  0  0  0  # atno 10167 bound_to 10162
  157.2820  130.7260  149.6562 H   0  0  0  0  0  0  0  0  0  0  0  0  # atno 10718 bound_to 10713
  154.6554  135.5340  153.7953 H   0  0  0  0  0  0  0  0  0  0  0  0  # atno 10763 bound_to 10752
  153.0410  135.6493  154.0952 H   0  0  0  0  0  0  0  0  0  0  0  0  # atno 10764 bound_to 10752
  154.0866  135.2943  155.3260 H   0  0  0  0  0  0  0  0  0  0  0  0  # atno 10765 bound_to 10752
  139.8780  134.9243  156.5133 H   0  0  0  0  0  0  0  0  0  0  0  0  # atno 11005 bound_to 11000
  144.7438  140.5013  143.6850 LP  0  0  0  0  0  0  0  0  0  0  0  0  # atno 17320 bound_to 7965
  145.5841  139.1491  143.3219 LP  0  0  0  0  0  0  0  0  0  0  0  0  # atno 17321 bound_to 7965
  140.6212  143.9254  150.6528 LP  0  0  0  0  0  0  0  0  0  0  0  0  # atno 17342 bound_to 10162
  140.2528  143.3581  152.1391 LP  0  0  0  0  0  0  0  0  0  0  0  0  # atno 17343 bound_to 10162
  155.9664  130.4335  150.5009 LP  0  0  0  0  0  0  0  0  0  0  0  0  # atno 17370 bound_to 10713
  157.2955  131.0635  151.2105 LP  0  0  0  0  0  0  0  0  0  0  0  0  # atno 17371 bound_to 10713
  140.8504  133.8136  155.9163 LP  0  0  0  0  0  0  0  0  0  0  0  0  # atno 17394 bound_to 11000
  140.9150  134.2213  157.4962 LP  0  0  0  0  0  0  0  0  0  0  0  0  # atno 17395 bound_to 11000

$$$$
