AV-unprocessed.smi:943|AV-procd|sdf|4230|dock5
  -GOLD-   22720 2133D 1   1.00000     0.00000
 Structure written by MMmdl.
 43 44  0  0  0  0  0  0  0  0  1 V2000
  151.6040  140.0314  157.8256 C   0  0  0  0  0  0  0  0  0  0  0  0
  150.6183  141.0847  157.2914 C   0  0  1  0  0  0  0  0  0  0  0  0
  151.2168  142.5072  157.4126 C   0  0  0  0  0  0  0  0  0  0  0  0
  151.2474  143.1244  158.8320 C   0  0  0  0  0  0  0  0  0  0  0  0
  151.3501  144.6616  158.7463 C   0  0  0  0  0  0  0  0  0  0  0  0
  151.3726  145.3144  160.1377 C   0  0  0  0  0  0  0  0  0  0  0  0
  152.5120  144.7490  160.9979 C   0  0  0  0  0  0  0  0  0  0  0  0
  152.4187  143.2194  161.0975 C   0  0  0  0  0  0  0  0  0  0  0  0
  152.3940  142.5676  159.7051 C   0  0  0  0  0  0  0  0  0  0  0  0
  150.2182  140.7456  155.8480 C   0  0  0  0  0  0  0  0  0  0  0  0
  151.0800  140.6138  154.9783 O   0  0  0  0  0  0  0  0  0  0  0  0
  148.9059  140.6171  155.6066 N   0  0  0  0  0  0  0  0  0  0  0  0
  148.3344  140.3193  154.3012 C   0  0  0  0  0  0  0  0  0  0  0  0
  146.8316  140.0328  154.4218 C   0  0  0  0  0  0  0  0  0  0  0  0
  146.0521  141.2505  154.8176 C   0  0  0  0  0  0  0  0  0  0  0  0
  146.0067  142.4513  154.1506 C   0  0  0  0  0  0  0  0  0  0  0  0
  144.9707  143.6052  154.9480 S   0  0  0  0  0  0  0  0  0  0  0  0
  144.6384  142.3897  156.1702 C   0  0  0  0  0  0  0  0  0  0  0  0
  145.2636  141.2285  155.9734 N   0  0  0  0  0  0  0  0  0  0  0  0
  151.1934  139.0243  157.7429 H   0  0  0  0  0  0  0  0  0  0  0  0
  151.8273  140.2058  158.8785 H   0  0  0  0  0  0  0  0  0  0  0  0
  152.5489  140.0518  157.2812 H   0  0  0  0  0  0  0  0  0  0  0  0
  149.7272  141.0290  157.9175 H   0  0  0  0  0  0  0  0  0  0  0  0
  152.2336  142.4916  157.0180 H   0  0  0  0  0  0  0  0  0  0  0  0
  150.6607  143.1759  156.7535 H   0  0  0  0  0  0  0  0  0  0  0  0
  150.3046  142.8957  159.3303 H   0  0  0  0  0  0  0  0  0  0  0  0
  152.2526  144.9411  158.2010 H   0  0  0  0  0  0  0  0  0  0  0  0
  150.5110  145.0598  158.1750 H   0  0  0  0  0  0  0  0  0  0  0  0
  151.4826  146.3947  160.0389 H   0  0  0  0  0  0  0  0  0  0  0  0
  150.4178  145.1450  160.6368 H   0  0  0  0  0  0  0  0  0  0  0  0
  153.4727  145.0298  160.5642 H   0  0  0  0  0  0  0  0  0  0  0  0
  152.4805  145.1903  161.9944 H   0  0  0  0  0  0  0  0  0  0  0  0
  153.2593  142.8328  161.6744 H   0  0  0  0  0  0  0  0  0  0  0  0
  151.5164  142.9439  161.6450 H   0  0  0  0  0  0  0  0  0  0  0  0
  152.2908  141.4898  159.8284 H   0  0  0  0  0  0  0  0  0  0  0  0
  153.3508  142.7324  159.2077 H   0  0  0  0  0  0  0  0  0  0  0  0
  148.2629  140.7399  156.3753 H   0  0  0  0  0  0  0  0  0  0  0  0
  148.5006  141.1656  153.6326 H   0  0  0  0  0  0  0  0  0  0  0  0
  148.8486  139.4589  153.8695 H   0  0  0  0  0  0  0  0  0  0  0  0
  146.4574  139.6469  153.4726 H   0  0  0  0  0  0  0  0  0  0  0  0
  146.6718  139.2376  155.1513 H   0  0  0  0  0  0  0  0  0  0  0  0
  146.5173  142.7254  153.2392 H   0  0  0  0  0  0  0  0  0  0  0  0
  143.9904  142.5293  157.0229 H   0  0  0  0  0  0  0  0  0  0  0  0
  1  2  1  0  0  0  0
  1 20  1  0  0  0  0
  1 21  1  0  0  0  0
  1 22  1  0  0  0  0
  2  3  1  0  0  0  0
  2 10  1  0  0  0  0
  2 23  1  0  0  0  0
  3  4  1  0  0  0  0
  3 24  1  0  0  0  0
  3 25  1  0  0  0  0
  4  9  1  0  0  0  0
  4  5  1  0  0  0  0
  4 26  1  0  0  0  0
  5  6  1  0  0  0  0
  5 27  1  0  0  0  0
  5 28  1  0  0  0  0
  6  7  1  0  0  0  0
  6 29  1  0  0  0  0
  6 30  1  0  0  0  0
  7  8  1  0  0  0  0
  7 31  1  0  0  0  0
  7 32  1  0  0  0  0
  8  9  1  0  0  0  0
  8 33  1  0  0  0  0
  8 34  1  0  0  0  0
  9 35  1  0  0  0  0
  9 36  1  0  0  0  0
 10 11  2  0  0  0  0
 10 12  1  0  0  0  0
 12 13  1  0  0  0  0
 12 37  1  0  0  0  0
 13 14  1  0  0  0  0
 13 38  1  0  0  0  0
 13 39  1  0  0  0  0
 14 15  1  0  0  0  0
 14 40  1  0  0  0  0
 14 41  1  0  0  0  0
 15 19  1  0  0  0  0
 15 16  2  0  0  0  0
 16 17  1  0  0  0  0
 16 42  1  0  0  0  0
 17 18  1  0  0  0  0
 18 19  2  0  0  0  0
 18 43  1  0  0  0  0
M  END
> <s_m_source_file>
AV-unprocessed.smi

> <i_m_source_file_index>
943

> <i_lp_mmshare_version>
43012

> <i_f3d_flags>
0

> <s_epik_input>
W0NIMl0xW0NIMl1bQ0gyXVtDSDJdW0NIMl1bQ0hdMVtDSDJdW0NAQEhdKFtDSDNdKUMoPU8pW05IXVtDSDJdW0NIMl1jMltjSF1zW2NIXW4y

> <s_epik_cmdline>
J2VwaWtfcHl0aG9uJywgJy1waCcsICc3LjAnLCAnLXRuJywgJzgnLCAnLW1hJywgJzIwMCcsICctbWV0YWxfYmluZGluZycsICctaW1hZScsICc8aW5maWxlLm1hZT4nLCAnLW9tYWUnLCAnPG91dGZpbGUubWFlPic=

> <r_lp_tautomer_probability>
1

> <r_epik_Ionization_Penalty>
0.000194757

> <r_epik_Ionization_Penalty_Charging>
0

> <r_epik_Ionization_Penalty_Neutral>
0.000194757

> <r_epik_State_Penalty>
-0

> <r_epik_Charging_Adjusted_Penalty>
0

> <i_epik_Tot_Q>
0

> <i_epik_Tot_abs_Q>
0

> <r_epik_Metal_State_Penalty>
-0

> <b_epik_Metal_Only>
0

> <s_lp_Force_Field>
OPLS_2005

> <r_lp_Energy>
6.44142

> <b_lp_Chiralities_Consistent>
1

> <s_lp_Variant>
AV-unprocessed.smi:943-2

> <Gold.Version>
5.8.1

> <Gold.Id.Protein>
6NUR|6NUR_protein|mol2

> <Gold.PLP.Fitness>
43.1879

> <Gold.PLP.PLP>
-41.0295

> <Gold.PLP.part.hbond>
-1.0000

> <Gold.PLP.part.metal>
0.0000

> <Gold.PLP.part.buried>
-6.0939

> <Gold.PLP.part.nonpolar>
-33.7981

> <Gold.PLP.part.repulsive>
0.2391

> <Gold.PLP.ligand.clash>
0.0000

> <Gold.PLP.ligand.torsion>
0.4436

> <Gold.PLP.Chemscore.Hbond>
0.9760

> <Gold.PLP.Chemscore.CHOScore>
0.0000

> <Gold.PLP.Chemscore.Metal>
0.0000

> <Gold.Chemscore.Hbonds>
donor molecule, donor type, donor heavy atom, donor atom, acceptor molecule, acceptor atom, score
      P1  H  7989  7998       L1    11  0.94

> <Gold.PLP.Chemscore.Internal.Correction>
0.1175

> <Gold.Rescore>
     Score         DG    S(hbond)    S(metal)    S(lipo)     H(rot)  DE(clash)    DE(int)     intcor
     17.59     -18.11       0.95        0.00     115.30       1.58       0.08       0.45       ----

> <Gold.Chemscore.Fitness>
17.5874

> <Gold.Chemscore.DG>
-18.1140

> <Gold.Chemscore.ZeroCoef>
-5.4800

> <Gold.Chemscore.Hbond>
0.9537

> <Gold.Chemscore.Metal>
0.0000

> <Gold.Chemscore.Lipo>
115.3029

> <Gold.Chemscore.Internal_Hbond>
0.0000

> <Gold.Chemscore.DEClash>
0.0765

> <Gold.Chemscore.DEInternal>
0.4501

> <Gold.Chemscore.Rot>
1.5789

> <Gold.Chemscore.Internal.Correction>
   9.000000E+99

> <Gold.Chemscore.Hbonds>
donor molecule, donor type, donor heavy atom, donor atom, acceptor molecule, acceptor atom, score
      P1  H  7989  7998       L1    11  0.89

> <Gold.Chemscore.Hbond.Weighted>
-3.1854

> <Gold.Chemscore.Metal.Weighted>
-0.0000

> <Gold.Chemscore.Lipo.Weighted>
-13.4904

> <Gold.Chemscore.Internal_Hbond.Weighted>
0.0000

> <Gold.Chemscore.DEClash.Weighted>
0.0765

> <Gold.Chemscore.DEInternal.Weighted>
0.4501

> <Gold.Chemscore.Rot.Weighted>
4.0419

> <Gold.Chemscore.Internal.Correction.Weighted>
   9.000000E+99

> <Gold.Protein.RotatedTorsions>
[ 6907 6896 6895 6894 ] final  132.85 input  -60.11 | X-H torsion
[ 7974 7965 7964 7962 ] final  133.29 input  175.53 | X-H torsion
[ 8008 7997 7996 7995 ] final  -43.22 input   59.86 | X-H torsion
[ 10167 10162 10161 10158 ] final   -1.03 input  -65.29 | X-H torsion
[ 10718 10713 10712 10709 ] final -143.30 input   66.30 | X-H torsion
[ 10763 10752 10751 10750 ] final   83.54 input  -60.55 | X-H torsion
[ 11005 11000 10999 10996 ] final    1.85 input  -57.11 | X-H torsion

> <Gold.Protein.ActiveResidues>
 VAL166  LYS551  ARG553  GLY616  TRP617  ASP618  TYR619  PRO620  LYS621  CYS622 
 ASP623  PHE694  ASN695  SER759  ASP760  ASP761  ALA762  ILE779  LEU786  VAL792 
 PHE793  MET794  SER795  GLU796  ALA797  LYS798  CYS799  TRP800  GLU811  SER814 

> <Gold.Protein.RotatedAtoms>
  152.3281  133.5927  159.5790 H   0  0  0  0  0  0  0  0  0  0  0  0  # atno 6907 bound_to 6896
  150.7407  133.9910  159.3616 H   0  0  0  0  0  0  0  0  0  0  0  0  # atno 6908 bound_to 6896
  151.7788  135.0768  160.0421 H   0  0  0  0  0  0  0  0  0  0  0  0  # atno 6909 bound_to 6896
  144.9880  139.4436  143.5353 H   0  0  0  0  0  0  0  0  0  0  0  0  # atno 7974 bound_to 7965
  154.3997  140.1453  156.3483 H   0  0  0  0  0  0  0  0  0  0  0  0  # atno 8008 bound_to 7997
  155.8293  140.3466  155.5541 H   0  0  0  0  0  0  0  0  0  0  0  0  # atno 8009 bound_to 7997
  155.8205  140.0897  157.1842 H   0  0  0  0  0  0  0  0  0  0  0  0  # atno 8010 bound_to 7997
  140.6793  143.6824  150.8095 H   0  0  0  0  0  0  0  0  0  0  0  0  # atno 10167 bound_to 10162
  156.3563  130.7714  151.1875 H   0  0  0  0  0  0  0  0  0  0  0  0  # atno 10718 bound_to 10713
  153.1300  135.4687  154.9333 H   0  0  0  0  0  0  0  0  0  0  0  0  # atno 10763 bound_to 10752
  154.7655  135.3143  154.8296 H   0  0  0  0  0  0  0  0  0  0  0  0  # atno 10764 bound_to 10752
  153.8841  135.6891  153.4819 H   0  0  0  0  0  0  0  0  0  0  0  0  # atno 10765 bound_to 10752
  140.6108  133.9750  155.8176 H   0  0  0  0  0  0  0  0  0  0  0  0  # atno 11005 bound_to 11000
  146.3424  139.9194  142.8769 LP  0  0  0  0  0  0  0  0  0  0  0  0  # atno 17320 bound_to 7965
  145.2326  140.9979  143.3982 LP  0  0  0  0  0  0  0  0  0  0  0  0  # atno 17321 bound_to 7965
  140.0522  143.5239  152.2668 LP  0  0  0  0  0  0  0  0  0  0  0  0  # atno 17342 bound_to 10162
  139.6104  144.7607  151.2964 LP  0  0  0  0  0  0  0  0  0  0  0  0  # atno 17343 bound_to 10162
  157.7468  131.0413  150.4640 LP  0  0  0  0  0  0  0  0  0  0  0  0  # atno 17370 bound_to 10713
  156.4843  130.4081  149.6443 LP  0  0  0  0  0  0  0  0  0  0  0  0  # atno 17371 bound_to 10713
  141.0809  134.0064  157.3387 LP  0  0  0  0  0  0  0  0  0  0  0  0  # atno 17394 bound_to 11000
  139.9193  135.0199  156.8002 LP  0  0  0  0  0  0  0  0  0  0  0  0  # atno 17395 bound_to 11000

$$$$
