AV-unprocessed.smi:1212|AV-procd|sdf|5082|dock2
  -GOLD-   22720 4133D 1   1.00000     0.00000
 Structure written by MMmdl.
 39 40  0  0  0  0  0  0  0  0  1 V2000
  146.8163  129.1883  152.8555 C   0  0  0  0  0  0  0  0  0  0  0  0
  147.5631  130.3914  153.3213 C   0  0  0  0  0  0  0  0  0  0  0  0
  148.5176  130.3357  154.2586 N   0  0  0  0  0  0  0  0  0  0  0  0
  149.0674  131.5825  154.5245 N   0  0  0  0  0  0  0  0  0  0  0  0
  148.5103  132.5442  153.7756 C   0  0  0  0  0  0  0  0  0  0  0  0
  148.8815  133.9131  153.8436 N   0  0  0  0  0  0  0  0  0  0  0  0
  149.4500  134.5735  154.8679 C   0  0  0  0  0  0  0  0  0  0  0  0
  149.7513  134.0796  155.9550 O   0  0  0  0  0  0  0  0  0  0  0  0
  149.6551  135.8623  154.5602 N   0  0  0  0  0  0  0  0  0  0  0  0
  150.2623  136.8465  155.4477 C   0  0  0  0  0  0  0  0  0  0  0  0
  151.2535  137.7531  154.6945 C   0  0  0  0  0  0  0  0  0  0  0  0
  151.0415  139.1657  155.0346 N   0  0  0  0  0  0  0  0  0  0  0  0
  149.9015  139.8297  154.3809 C   0  0  0  0  0  0  0  0  0  0  0  0
  148.7355  140.1577  155.3429 C   0  0  0  0  0  0  0  0  0  0  0  0
  149.1147  140.4299  156.8122 C   0  0  0  0  0  0  0  0  0  0  0  0
  150.2121  141.4951  157.0167 C   0  0  0  0  0  0  0  0  0  0  0  0
  151.5326  141.2828  156.2388 C   0  0  0  0  0  0  0  0  0  0  0  0
  151.8460  139.8132  155.9135 C   0  0  0  0  0  0  0  0  0  0  0  0
  152.8076  139.2766  156.4645 O   0  0  0  0  0  0  0  0  0  0  0  0
  147.2571  131.9984  152.6740 S   0  0  0  0  0  0  0  0  0  0  0  0
  146.9408  128.3626  153.5570 H   0  0  0  0  0  0  0  0  0  0  0  0
  147.1849  128.8766  151.8782 H   0  0  0  0  0  0  0  0  0  0  0  0
  145.7536  129.4168  152.7729 H   0  0  0  0  0  0  0  0  0  0  0  0
  148.6927  134.4535  153.0125 H   0  0  0  0  0  0  0  0  0  0  0  0
  149.3750  136.1864  153.6460 H   0  0  0  0  0  0  0  0  0  0  0  0
  149.4866  137.4449  155.9288 H   0  0  0  0  0  0  0  0  0  0  0  0
  150.7736  136.3078  156.2459 H   0  0  0  0  0  0  0  0  0  0  0  0
  152.2785  137.4614  154.9307 H   0  0  0  0  0  0  0  0  0  0  0  0
  151.1574  137.5986  153.6194 H   0  0  0  0  0  0  0  0  0  0  0  0
  150.2496  140.7427  153.8973 H   0  0  0  0  0  0  0  0  0  0  0  0
  149.5115  139.2296  153.5584 H   0  0  0  0  0  0  0  0  0  0  0  0
  148.1800  141.0073  154.9449 H   0  0  0  0  0  0  0  0  0  0  0  0
  148.0363  139.3206  155.3337 H   0  0  0  0  0  0  0  0  0  0  0  0
  148.2202  140.7378  157.3543 H   0  0  0  0  0  0  0  0  0  0  0  0
  149.4217  139.4958  157.2847 H   0  0  0  0  0  0  0  0  0  0  0  0
  149.8086  142.4733  156.7534 H   0  0  0  0  0  0  0  0  0  0  0  0
  150.4380  141.5506  158.0821 H   0  0  0  0  0  0  0  0  0  0  0  0
  151.5182  141.8558  155.3119 H   0  0  0  0  0  0  0  0  0  0  0  0
  152.3576  141.7055  156.8135 H   0  0  0  0  0  0  0  0  0  0  0  0
  1  2  1  0  0  0  0
  1 21  1  0  0  0  0
  1 22  1  0  0  0  0
  1 23  1  0  0  0  0
  2 20  1  0  0  0  0
  2  3  2  0  0  0  0
  3  4  1  0  0  0  0
  4  5  2  0  0  0  0
  5  6  1  0  0  0  0
  5 20  1  0  0  0  0
  6  7  1  0  0  0  0
  6 24  1  0  0  0  0
  7  8  2  0  0  0  0
  7  9  1  0  0  0  0
  9 10  1  0  0  0  0
  9 25  1  0  0  0  0
 10 11  1  0  0  0  0
 10 26  1  0  0  0  0
 10 27  1  0  0  0  0
 11 12  1  0  0  0  0
 11 28  1  0  0  0  0
 11 29  1  0  0  0  0
 12 18  1  0  0  0  0
 12 13  1  0  0  0  0
 13 14  1  0  0  0  0
 13 30  1  0  0  0  0
 13 31  1  0  0  0  0
 14 15  1  0  0  0  0
 14 32  1  0  0  0  0
 14 33  1  0  0  0  0
 15 16  1  0  0  0  0
 15 34  1  0  0  0  0
 15 35  1  0  0  0  0
 16 17  1  0  0  0  0
 16 36  1  0  0  0  0
 16 37  1  0  0  0  0
 17 18  1  0  0  0  0
 17 38  1  0  0  0  0
 17 39  1  0  0  0  0
 18 19  2  0  0  0  0
M  END
> <s_m_source_file>
AV-unprocessed.smi

> <i_m_source_file_index>
1212

> <i_lp_mmshare_version>
43012

> <i_f3d_flags>
0

> <s_epik_input>
W0NIM11jMW5uYyhzMSlbTkhdQyg9TylbTkhdW0NIMl1bQ0gyXU4yW0NIMl1bQ0gyXVtDSDJdW0NIMl1bQ0gyXUMyPU8=

> <s_epik_cmdline>
J2VwaWtfcHl0aG9uJywgJy1waCcsICc3LjAnLCAnLXRuJywgJzgnLCAnLW1hJywgJzIwMCcsICctbWV0YWxfYmluZGluZycsICctaW1hZScsICc8aW5maWxlLm1hZT4nLCAnLW9tYWUnLCAnPG91dGZpbGUubWFlPic=

> <r_lp_tautomer_probability>
1

> <r_epik_Ionization_Penalty>
0.00255187

> <r_epik_Ionization_Penalty_Charging>
0

> <r_epik_Ionization_Penalty_Neutral>
0.00255187

> <r_epik_State_Penalty>
-0

> <r_epik_Charging_Adjusted_Penalty>
0

> <i_epik_Tot_Q>
0

> <i_epik_Tot_abs_Q>
0

> <r_epik_Metal_State_Penalty>
0.352847

> <b_epik_Metal_Only>
0

> <s_lp_Force_Field>
OPLS_2005

> <r_lp_Energy>
20.0291

> <b_lp_Chiralities_Consistent>
1

> <s_lp_Variant>
AV-unprocessed.smi:1212-1

> <Gold.Version>
5.8.1

> <Gold.Id.Protein>
6NUR|6NUR_protein|mol2

> <Gold.PLP.Fitness>
39.5471

> <Gold.PLP.PLP>
-32.4635

> <Gold.PLP.part.hbond>
-3.0000

> <Gold.PLP.part.metal>
0.0000

> <Gold.PLP.part.buried>
-3.4590

> <Gold.PLP.part.nonpolar>
-24.8580

> <Gold.PLP.part.repulsive>
0.1728

> <Gold.PLP.ligand.clash>
0.0000

> <Gold.PLP.ligand.torsion>
0.8297

> <Gold.PLP.Chemscore.Hbond>
2.9120

> <Gold.PLP.Chemscore.CHOScore>
0.0000

> <Gold.PLP.Chemscore.Metal>
0.0000

> <Gold.Chemscore.Hbonds>
donor molecule, donor type, donor heavy atom, donor atom, acceptor molecule, acceptor atom, score
      L1  H     6    24       P1  7948  0.69
      L1  H     9    25       P1  7948  1.00
      P1  H  7997  8010       L1    19  1.00

> <Gold.PLP.Chemscore.Internal.Correction>
0.0069

> <Gold.Rescore>
     Score         DG    S(hbond)    S(metal)    S(lipo)     H(rot)  DE(clash)    DE(int)     intcor
     14.04     -16.09       2.55        0.00      54.05       1.65       0.06       2.00       ----

> <Gold.Chemscore.Fitness>
14.0396

> <Gold.Chemscore.DG>
-16.0942

> <Gold.Chemscore.ZeroCoef>
-5.4800

> <Gold.Chemscore.Hbond>
2.5525

> <Gold.Chemscore.Metal>
0.0000

> <Gold.Chemscore.Lipo>
54.0523

> <Gold.Chemscore.Internal_Hbond>
0.0000

> <Gold.Chemscore.DEClash>
0.0584

> <Gold.Chemscore.DEInternal>
1.9961

> <Gold.Chemscore.Rot>
1.6544

> <Gold.Chemscore.Internal.Correction>
   9.000000E+99

> <Gold.Chemscore.Hbonds>
donor molecule, donor type, donor heavy atom, donor atom, acceptor molecule, acceptor atom, score
      L1  H     6    24       P1  7948  0.09
      L1  H     9    25       P1  7948  0.74
      P1  H  7997  8010       L1    19  0.98

> <Gold.Chemscore.Hbond.Weighted>
-8.5252

> <Gold.Chemscore.Metal.Weighted>
-0.0000

> <Gold.Chemscore.Lipo.Weighted>
-6.3241

> <Gold.Chemscore.Internal_Hbond.Weighted>
0.0000

> <Gold.Chemscore.DEClash.Weighted>
0.0584

> <Gold.Chemscore.DEInternal.Weighted>
1.9961

> <Gold.Chemscore.Rot.Weighted>
4.2352

> <Gold.Chemscore.Internal.Correction.Weighted>
   9.000000E+99

> <Gold.Protein.RotatedTorsions>
[ 6907 6896 6895 6894 ] final  -44.08 input  -60.11 | X-H torsion
[ 7974 7965 7964 7962 ] final -102.50 input  175.53 | X-H torsion
[ 8008 7997 7996 7995 ] final   65.53 input   59.86 | X-H torsion
[ 10167 10162 10161 10158 ] final  -43.61 input  -65.29 | X-H torsion
[ 10718 10713 10712 10709 ] final  -71.44 input   66.30 | X-H torsion
[ 10763 10752 10751 10750 ] final  -21.06 input  -60.55 | X-H torsion
[ 11005 11000 10999 10996 ] final -166.31 input  -57.11 | X-H torsion

> <Gold.Protein.ActiveResidues>
 VAL166  LYS551  ARG553  GLY616  TRP617  ASP618  TYR619  PRO620  LYS621  CYS622 
 ASP623  PHE694  ASN695  SER759  ASP760  ASP761  ALA762  ILE779  LEU786  VAL792 
 PHE793  MET794  SER795  GLU796  ALA797  LYS798  CYS799  TRP800  GLU811  SER814 

> <Gold.Protein.RotatedAtoms>
  150.9368  134.8780  159.7586 H   0  0  0  0  0  0  0  0  0  0  0  0  # atno 6907 bound_to 6896
  152.5062  134.3999  159.9423 H   0  0  0  0  0  0  0  0  0  0  0  0  # atno 6908 bound_to 6896
  151.4023  133.3714  159.2768 H   0  0  0  0  0  0  0  0  0  0  0  0  # atno 6909 bound_to 6896
  145.2679  140.9290  143.3003 H   0  0  0  0  0  0  0  0  0  0  0  0  # atno 7974 bound_to 7965
  155.6631  140.3497  155.4790 H   0  0  0  0  0  0  0  0  0  0  0  0  # atno 8008 bound_to 7997
  155.9751  140.1163  157.0800 H   0  0  0  0  0  0  0  0  0  0  0  0  # atno 8009 bound_to 7997
  154.4176  140.1149  156.5346 H   0  0  0  0  0  0  0  0  0  0  0  0  # atno 8010 bound_to 7997
  140.6927  143.2974  151.3376 H   0  0  0  0  0  0  0  0  0  0  0  0  # atno 10167 bound_to 10162
  156.0363  130.4351  150.2445 H   0  0  0  0  0  0  0  0  0  0  0  0  # atno 10718 bound_to 10713
  153.6302  135.6989  153.5278 H   0  0  0  0  0  0  0  0  0  0  0  0  # atno 10763 bound_to 10752
  153.2866  135.4169  155.1127 H   0  0  0  0  0  0  0  0  0  0  0  0  # atno 10764 bound_to 10752
  154.8524  135.3615  154.5844 H   0  0  0  0  0  0  0  0  0  0  0  0  # atno 10765 bound_to 10752
  140.5659  134.5287  157.5152 H   0  0  0  0  0  0  0  0  0  0  0  0  # atno 11005 bound_to 11000
  144.9360  139.4243  143.6472 LP  0  0  0  0  0  0  0  0  0  0  0  0  # atno 17320 bound_to 7965
  146.3255  139.8296  142.8911 LP  0  0  0  0  0  0  0  0  0  0  0  0  # atno 17321 bound_to 7965
  139.6348  144.0651  152.2506 LP  0  0  0  0  0  0  0  0  0  0  0  0  # atno 17342 bound_to 10162
  140.0138  144.6204  150.7625 LP  0  0  0  0  0  0  0  0  0  0  0  0  # atno 17343 bound_to 10162
  157.0544  131.0072  151.3243 LP  0  0  0  0  0  0  0  0  0  0  0  0  # atno 17370 bound_to 10713
  157.5117  130.7942  149.7712 LP  0  0  0  0  0  0  0  0  0  0  0  0  # atno 17371 bound_to 10713
  139.9385  134.7830  156.0739 LP  0  0  0  0  0  0  0  0  0  0  0  0  # atno 17394 bound_to 11000
  141.1086  133.6651  156.2924 LP  0  0  0  0  0  0  0  0  0  0  0  0  # atno 17395 bound_to 11000

$$$$
