AV-unprocessed.smi:99|AV-procd|sdf|880|dock8
  -GOLD-   2262017353D 1   1.00000     0.00000
 Structure written by MMmdl.
 53 56  0  0  0  0  0  0  0  0  1 V2000
  149.1613  134.6177  158.0524 O   0  0  0  0  0  0  0  0  0  0  0  0
  148.0607  134.3317  158.5275 C   0  0  0  0  0  0  0  0  0  0  0  0
  147.0797  133.7279  157.8298 O   0  0  0  0  0  0  0  0  0  0  0  0
  147.3902  132.8374  156.7703 C   0  0  0  0  0  0  0  0  0  0  0  0
  146.8521  133.4213  155.4580 C   0  0  1  0  0  0  0  0  0  0  0  0
  145.5089  132.9940  155.2514 O   0  0  0  0  0  0  0  0  0  0  0  0
  144.8248  133.9214  154.4545 C   0  0  2  0  0  0  0  0  0  0  0  0
  144.4607  133.2771  153.1313 N   0  0  0  0  0  0  0  0  0  0  0  0
  145.1024  132.1384  152.6593 C   0  0  0  0  0  0  0  0  0  0  0  0
  144.7912  131.5526  151.4787 C   0  0  0  0  0  0  0  0  0  0  0  0
  143.7434  132.1086  150.6285 C   0  0  0  0  0  0  0  0  0  0  0  0
  143.3893  131.6465  149.5462 O   0  0  0  0  0  0  0  0  0  0  0  0
  143.1328  133.2586  151.1370 N   0  0  0  0  0  0  0  0  0  0  0  0
  143.4476  133.8734  152.3498 C   0  0  0  0  0  0  0  0  0  0  0  0
  142.8574  134.8960  152.6961 O   0  0  0  0  0  0  0  0  0  0  0  0
  145.7378  135.1597  154.2942 C   0  0  2  0  0  0  0  0  0  0  0  0
  146.4064  135.1899  153.0414 O   0  0  0  0  0  0  0  0  0  0  0  0
  146.7107  134.9427  155.4425 C   0  0  2  0  0  0  0  0  0  0  0  0
  147.9297  135.6574  155.2552 O   0  0  0  0  0  0  0  0  0  0  0  0
  147.9394  136.9977  155.0848 C   0  0  0  0  0  0  0  0  0  0  0  0
  146.9224  137.6930  155.0488 O   0  0  0  0  0  0  0  0  0  0  0  0
  149.3176  137.5568  154.9875 C   0  0  0  0  0  0  0  0  0  0  0  0
  149.5279  138.9306  155.2503 C   0  0  0  0  0  0  0  0  0  0  0  0
  150.8226  139.4815  155.1931 C   0  0  0  0  0  0  0  0  0  0  0  0
  151.9221  138.6660  154.8680 C   0  0  0  0  0  0  0  0  0  0  0  0
  151.7255  137.2989  154.5998 C   0  0  0  0  0  0  0  0  0  0  0  0
  150.4317  136.7455  154.6594 C   0  0  0  0  0  0  0  0  0  0  0  0
  147.6814  134.5903  159.9466 C   0  0  0  0  0  0  0  0  0  0  0  0
  147.0289  133.5767  160.6862 C   0  0  0  0  0  0  0  0  0  0  0  0
  146.6346  133.8027  162.0193 C   0  0  0  0  0  0  0  0  0  0  0  0
  146.8895  135.0446  162.6298 C   0  0  0  0  0  0  0  0  0  0  0  0
  147.5435  136.0591  161.9068 C   0  0  0  0  0  0  0  0  0  0  0  0
  147.9400  135.8341  160.5745 C   0  0  0  0  0  0  0  0  0  0  0  0
  142.4057  133.6813  150.5780 H   0  0  0  0  0  0  0  0  0  0  0  0
  148.4728  132.7188  156.7164 H   0  0  0  0  0  0  0  0  0  0  0  0
  146.9584  131.8503  156.9424 H   0  0  0  0  0  0  0  0  0  0  0  0
  147.4578  133.0849  154.6148 H   0  0  0  0  0  0  0  0  0  0  0  0
  143.8818  134.1419  154.9586 H   0  0  0  0  0  0  0  0  0  0  0  0
  145.8914  131.6852  153.2400 H   0  0  0  0  0  0  0  0  0  0  0  0
  145.3221  130.6672  151.1599 H   0  0  0  0  0  0  0  0  0  0  0  0
  145.1557  136.0741  154.4119 H   0  0  0  0  0  0  0  0  0  0  0  0
  147.2867  135.5041  153.1816 H   0  0  0  0  0  0  0  0  0  0  0  0
  146.2073  135.2542  156.3591 H   0  0  0  0  0  0  0  0  0  0  0  0
  148.6999  139.5746  155.5096 H   0  0  0  0  0  0  0  0  0  0  0  0
  150.9721  140.5303  155.4027 H   0  0  0  0  0  0  0  0  0  0  0  0
  152.9153  139.0884  154.8252 H   0  0  0  0  0  0  0  0  0  0  0  0
  152.5686  136.6720  154.3497 H   0  0  0  0  0  0  0  0  0  0  0  0
  150.3156  135.6918  154.4518 H   0  0  0  0  0  0  0  0  0  0  0  0
  146.8158  132.6175  160.2361 H   0  0  0  0  0  0  0  0  0  0  0  0
  146.1330  133.0223  162.5727 H   0  0  0  0  0  0  0  0  0  0  0  0
  146.5831  135.2192  163.6506 H   0  0  0  0  0  0  0  0  0  0  0  0
  147.7367  137.0146  162.3719 H   0  0  0  0  0  0  0  0  0  0  0  0
  148.4329  136.6377  160.0468 H   0  0  0  0  0  0  0  0  0  0  0  0
  1  2  2  0  0  0  0
  2  3  1  0  0  0  0
  2 28  1  0  0  0  0
  3  4  1  0  0  0  0
  4  5  1  0  0  0  0
  4 35  1  0  0  0  0
  4 36  1  0  0  0  0
  5 18  1  0  0  0  0
  5  6  1  0  0  0  0
  5 37  1  0  0  0  0
  6  7  1  0  0  0  0
  7  8  1  0  0  0  0
  7 16  1  0  0  0  0
  7 38  1  0  0  0  0
  8 14  1  0  0  0  0
  8  9  1  0  0  0  0
  9 10  2  0  0  0  0
  9 39  1  0  0  0  0
 10 11  1  0  0  0  0
 10 40  1  0  0  0  0
 11 12  2  0  0  0  0
 11 13  1  0  0  0  0
 13 34  1  0  0  0  0
 13 14  1  0  0  0  0
 14 15  2  0  0  0  0
 16 17  1  0  0  0  0
 16 18  1  0  0  0  0
 16 41  1  0  0  0  0
 17 42  1  0  0  0  0
 18 19  1  0  0  0  0
 18 43  1  0  0  0  0
 19 20  1  0  0  0  0
 20 21  2  0  0  0  0
 20 22  1  0  0  0  0
 22 27  1  0  0  0  0
 22 23  2  0  0  0  0
 23 24  1  0  0  0  0
 23 44  1  0  0  0  0
 24 25  2  0  0  0  0
 24 45  1  0  0  0  0
 25 26  1  0  0  0  0
 25 46  1  0  0  0  0
 26 27  2  0  0  0  0
 26 47  1  0  0  0  0
 27 48  1  0  0  0  0
 28 33  1  0  0  0  0
 28 29  2  0  0  0  0
 29 30  1  0  0  0  0
 29 49  1  0  0  0  0
 30 31  2  0  0  0  0
 30 50  1  0  0  0  0
 31 32  1  0  0  0  0
 31 51  1  0  0  0  0
 32 33  2  0  0  0  0
 32 52  1  0  0  0  0
 33 53  1  0  0  0  0
M  END
> <s_m_source_file>
AV-unprocessed.smi

> <i_m_source_file_index>
99

> <i_lp_mmshare_version>
43012

> <i_f3d_flags>
0

> <s_epik_input>
W2NIXTFbY0hdW2NIXVtjSF1bY0hdYzFDKD1PKU9bQ0gyXVtDQEBIXTJPW0NAQEhdKG4zW2NIXVtjSF1jKD1PKVtuSF1jMz1PKVtDQEBIXShbT0hdKVtDQEhdMk9DKD1PKWM0W2NIXVtjSF1bY0hdW2NIXVtjSF00

> <s_epik_cmdline>
J2VwaWtfcHl0aG9uJywgJy1waCcsICc3LjAnLCAnLXRuJywgJzgnLCAnLW1hJywgJzIwMCcsICctbWV0YWxfYmluZGluZycsICctaW1hZScsICc8aW5maWxlLm1hZT4nLCAnLW9tYWUnLCAnPG91dGZpbGUubWFlPic=

> <r_lp_tautomer_probability>
1

> <r_epik_Ionization_Penalty>
0.00454555

> <r_epik_Ionization_Penalty_Charging>
0.0045191

> <r_epik_Ionization_Penalty_Neutral>
2.64449e-05

> <r_epik_State_Penalty>
-0

> <r_epik_Charging_Adjusted_Penalty>
0.0045191

> <i_epik_Tot_Q>
0

> <i_epik_Tot_abs_Q>
0

> <r_epik_Metal_State_Penalty>
1.27877

> <b_epik_Metal_Only>
0

> <s_epik_Chemistry_Notes>
This compound has an ester and may undergo hydrolysis at high or low pH. This compound contains an acetal/aminal-like group ( X-CH(R)-Y where X, Y are N, S, or O) that may be acid/base labile, releasing an aldehyde.

> <s_lp_Force_Field>
OPLS_2005

> <r_lp_Energy>
44.2289

> <b_lp_Chiralities_Consistent>
1

> <s_lp_Variant>
AV-unprocessed.smi:99-16

> <Gold.Version>
5.8.1

> <Gold.Id.Protein>
6NUR|6NUR_protein|mol2

> <Gold.PLP.Fitness>
51.1507

> <Gold.PLP.PLP>
-46.5239

> <Gold.PLP.part.hbond>
-4.0000

> <Gold.PLP.part.metal>
0.0000

> <Gold.PLP.part.buried>
-6.5762

> <Gold.PLP.part.nonpolar>
-38.1041

> <Gold.PLP.part.repulsive>
0.6303

> <Gold.PLP.ligand.clash>
0.0000

> <Gold.PLP.ligand.torsion>
2.6236

> <Gold.PLP.Chemscore.Hbond>
3.1937

> <Gold.PLP.Chemscore.CHOScore>
0.0000

> <Gold.PLP.Chemscore.Metal>
0.0000

> <Gold.Chemscore.Hbonds>
donor molecule, donor type, donor heavy atom, donor atom, acceptor molecule, acceptor atom, score
      L1  H    13    34       P1 10186  1.00
      L1  H    17    42       P1  7948  0.34
      P1  H  6896  6907       L1     1  0.99
      P1  H 10785 10796       L1    12  1.00

> <Gold.PLP.Chemscore.Internal.Correction>
0.2928

> <Gold.Rescore>
     Score         DG    S(hbond)    S(metal)    S(lipo)     H(rot)  DE(clash)    DE(int)     intcor
     17.28     -20.27       3.50        0.00      96.33       3.19       0.08       2.91       ----

> <Gold.Chemscore.Fitness>
17.2759

> <Gold.Chemscore.DG>
-20.2656

> <Gold.Chemscore.ZeroCoef>
-5.4800

> <Gold.Chemscore.Hbond>
3.4975

> <Gold.Chemscore.Metal>
0.0000

> <Gold.Chemscore.Lipo>
96.3333

> <Gold.Chemscore.Internal_Hbond>
0.0000

> <Gold.Chemscore.DEClash>
0.0829

> <Gold.Chemscore.DEInternal>
2.9068

> <Gold.Chemscore.Rot>
3.1903

> <Gold.Chemscore.Internal.Correction>
   9.000000E+99

> <Gold.Chemscore.Hbonds>
donor molecule, donor type, donor heavy atom, donor atom, acceptor molecule, acceptor atom, score
      L1  H    13    34       P1 10186  0.94
      L1  H    17    42       P1  7948  0.33
      P1  H  6896  6907       L1     1  0.72
      P1  H 10785 10796       L1    12  0.97

> <Gold.Chemscore.Hbond.Weighted>
-11.6817

> <Gold.Chemscore.Metal.Weighted>
-0.0000

> <Gold.Chemscore.Lipo.Weighted>
-11.2710

> <Gold.Chemscore.Internal_Hbond.Weighted>
0.0000

> <Gold.Chemscore.DEClash.Weighted>
0.0829

> <Gold.Chemscore.DEInternal.Weighted>
2.9068

> <Gold.Chemscore.Rot.Weighted>
8.1671

> <Gold.Chemscore.Internal.Correction.Weighted>
   9.000000E+99

> <Gold.Protein.RotatedTorsions>
[ 6907 6896 6895 6894 ] final  -88.03 input  -60.11 | X-H torsion
[ 7974 7965 7964 7962 ] final   95.32 input  175.53 | X-H torsion
[ 8008 7997 7996 7995 ] final  -11.29 input   59.86 | X-H torsion
[ 10167 10162 10161 10158 ] final  154.95 input  -65.29 | X-H torsion
[ 10718 10713 10712 10709 ] final   -1.37 input   66.30 | X-H torsion
[ 10763 10752 10751 10750 ] final   -5.97 input  -60.55 | X-H torsion
[ 11005 11000 10999 10996 ] final   66.88 input  -57.11 | X-H torsion

> <Gold.Protein.ActiveResidues>
 VAL166  LYS551  ARG553  GLY616  TRP617  ASP618  TYR619  PRO620  LYS621  CYS622 
 ASP623  PHE694  ASN695  SER759  ASP760  ASP761  ALA762  ILE779  LEU786  VAL792 
 PHE793  MET794  SER795  GLU796  ALA797  LYS798  CYS799  TRP800  GLU811  SER814 

> <Gold.Protein.RotatedAtoms>
  150.6867  134.2804  159.4624 H   0  0  0  0  0  0  0  0  0  0  0  0  # atno 6907 bound_to 6896
  152.0718  134.9526  160.0583 H   0  0  0  0  0  0  0  0  0  0  0  0  # atno 6908 bound_to 6896
  152.0912  133.4167  159.4582 H   0  0  0  0  0  0  0  0  0  0  0  0  # atno 6909 bound_to 6896
  145.4537  139.2291  143.3025 H   0  0  0  0  0  0  0  0  0  0  0  0  # atno 7974 bound_to 7965
  154.5478  140.2306  155.8534 H   0  0  0  0  0  0  0  0  0  0  0  0  # atno 8008 bound_to 7997
  156.1919  140.3075  155.9310 H   0  0  0  0  0  0  0  0  0  0  0  0  # atno 8009 bound_to 7997
  155.3130  140.0436  157.3026 H   0  0  0  0  0  0  0  0  0  0  0  0  # atno 8010 bound_to 7997
  139.4822  144.5142  151.7978 H   0  0  0  0  0  0  0  0  0  0  0  0  # atno 10167 bound_to 10162
  156.8066  130.5410  149.5714 H   0  0  0  0  0  0  0  0  0  0  0  0  # atno 10718 bound_to 10713
  153.4059  135.7006  153.6393 H   0  0  0  0  0  0  0  0  0  0  0  0  # atno 10763 bound_to 10752
  153.4907  135.3673  155.2490 H   0  0  0  0  0  0  0  0  0  0  0  0  # atno 10764 bound_to 10752
  154.8714  135.4088  154.3402 H   0  0  0  0  0  0  0  0  0  0  0  0  # atno 10765 bound_to 10752
  139.9804  134.6753  156.0273 H   0  0  0  0  0  0  0  0  0  0  0  0  # atno 11005 bound_to 11000
  146.2490  140.5299  142.8901 LP  0  0  0  0  0  0  0  0  0  0  0  0  # atno 17320 bound_to 7965
  144.8045  140.6275  143.6456 LP  0  0  0  0  0  0  0  0  0  0  0  0  # atno 17321 bound_to 7965
  140.4648  144.1670  150.5910 LP  0  0  0  0  0  0  0  0  0  0  0  0  # atno 17342 bound_to 10162
  140.4446  143.2512  151.9429 LP  0  0  0  0  0  0  0  0  0  0  0  0  # atno 17343 bound_to 10162
  156.1069  130.6011  150.9985 LP  0  0  0  0  0  0  0  0  0  0  0  0  # atno 17370 bound_to 10713
  157.6527  131.0894  150.8016 LP  0  0  0  0  0  0  0  0  0  0  0  0  # atno 17371 bound_to 10713
  141.1477  133.6553  156.3917 LP  0  0  0  0  0  0  0  0  0  0  0  0  # atno 17394 bound_to 11000
  140.5107  134.6397  157.5283 LP  0  0  0  0  0  0  0  0  0  0  0  0  # atno 17395 bound_to 11000

$$$$
