AV-unprocessed.smi:2248|AV-procd|sdf|9096|dock1
  -GOLD-   2272012293D 1   1.00000     0.00000
 Structure written by MMmdl.
 35 36  0  0  0  0  0  0  0  0  1 V2000
  153.5577  140.7002  160.2045 C   0  0  0  0  0  0  0  0  0  0  0  0
  152.8680  141.9489  159.6964 C   0  0  0  0  0  0  0  0  0  0  0  0
  153.0858  143.1969  160.3120 C   0  0  0  0  0  0  0  0  0  0  0  0
  152.4121  144.3177  159.7944 C   0  0  0  0  0  0  0  0  0  0  0  0
  151.5531  144.1452  158.6916 C   0  0  0  0  0  0  0  0  0  0  0  0
  151.3876  142.8571  158.1340 C   0  0  0  0  0  0  0  0  0  0  0  0
  150.4981  142.7884  157.0287 N   0  0  0  0  0  0  0  0  0  0  0  0
  150.3910  141.8141  156.1078 C   0  0  0  0  0  0  0  0  0  0  0  0
  151.0789  140.7935  156.0657 O   0  0  0  0  0  0  0  0  0  0  0  0
  149.4243  142.0885  155.2201 N   0  0  0  0  0  0  0  0  0  0  0  0
  149.0537  141.2292  154.1010 C   0  0  2  0  0  0  0  0  0  0  0  0
  147.7689  141.6986  153.4764 C   0  0  0  0  0  0  0  0  0  0  0  0
  146.8190  140.7665  153.4911 C   0  0  0  0  0  0  0  0  0  0  0  0
  147.2616  139.4870  154.1513 C   0  0  1  0  0  0  0  0  0  0  0  0
  147.0823  138.2709  153.2273 C   0  0  0  0  0  0  0  0  0  0  0  0
  147.6373  138.5365  151.9565 O   0  0  0  0  0  0  0  0  0  0  0  0
  148.7373  139.7741  154.5361 C   0  0  0  0  0  0  0  0  0  0  0  0
  152.0433  141.7830  158.6400 N   0  0  0  0  0  0  0  0  0  0  0  0
  149.8345  141.2454  153.3387 H   0  0  0  0  0  0  0  0  0  0  0  0
  146.6595  139.3579  155.0517 H   0  0  0  0  0  0  0  0  0  0  0  0
  154.4334  140.9526  160.8030 H   0  0  0  0  0  0  0  0  0  0  0  0
  153.8854  140.0743  159.3735 H   0  0  0  0  0  0  0  0  0  0  0  0
  152.8747  140.1189  160.8241 H   0  0  0  0  0  0  0  0  0  0  0  0
  153.7495  143.2952  161.1586 H   0  0  0  0  0  0  0  0  0  0  0  0
  152.5498  145.2935  160.2358 H   0  0  0  0  0  0  0  0  0  0  0  0
  151.0272  144.9957  158.2828 H   0  0  0  0  0  0  0  0  0  0  0  0
  149.8641  143.5677  156.9331 H   0  0  0  0  0  0  0  0  0  0  0  0
  148.9051  142.9475  155.3269 H   0  0  0  0  0  0  0  0  0  0  0  0
  147.6613  142.6880  153.0566 H   0  0  0  0  0  0  0  0  0  0  0  0
  145.8226  140.8918  153.0934 H   0  0  0  0  0  0  0  0  0  0  0  0
  147.5841  137.3978  153.6455 H   0  0  0  0  0  0  0  0  0  0  0  0
  146.0276  138.0156  153.1161 H   0  0  0  0  0  0  0  0  0  0  0  0
  148.2412  139.2590  152.0369 H   0  0  0  0  0  0  0  0  0  0  0  0
  149.4187  139.0848  154.0359 H   0  0  0  0  0  0  0  0  0  0  0  0
  148.8822  139.6272  155.6075 H   0  0  0  0  0  0  0  0  0  0  0  0
  1  2  1  0  0  0  0
  1 21  1  0  0  0  0
  1 22  1  0  0  0  0
  1 23  1  0  0  0  0
  2 18  1  0  0  0  0
  2  3  2  0  0  0  0
  3  4  1  0  0  0  0
  3 24  1  0  0  0  0
  4  5  2  0  0  0  0
  4 25  1  0  0  0  0
  5  6  1  0  0  0  0
  5 26  1  0  0  0  0
  6  7  1  0  0  0  0
  6 18  2  0  0  0  0
  7  8  1  0  0  0  0
  7 27  1  0  0  0  0
  8  9  2  0  0  0  0
  8 10  1  0  0  0  0
 10 11  1  0  0  0  0
 10 28  1  0  0  0  0
 11 19  1  0  0  0  0
 11 17  1  0  0  0  0
 11 12  1  0  0  0  0
 12 13  2  0  0  0  0
 12 29  1  0  0  0  0
 13 14  1  0  0  0  0
 13 30  1  0  0  0  0
 14 20  1  0  0  0  0
 14 15  1  0  0  0  0
 14 17  1  0  0  0  0
 15 16  1  0  0  0  0
 15 31  1  0  0  0  0
 15 32  1  0  0  0  0
 16 33  1  0  0  0  0
 17 34  1  0  0  0  0
 17 35  1  0  0  0  0
M  END
> <s_m_source_file>
AV-unprocessed.smi

> <i_m_source_file_index>
2248

> <i_lp_mmshare_version>
43012

> <i_f3d_flags>
0

> <s_epik_input>
W0NIM11jMVtjSF1bY0hdW2NIXWMobjEpW05IXUMoPU8pW05IXVtDQEBIXTJbQ0hdPVtDSF1bQ0BASF0oW0NIMl0yKVtDSDJdW09IXQ==

> <s_epik_cmdline>
J2VwaWtfcHl0aG9uJywgJy1waCcsICc3LjAnLCAnLXRuJywgJzgnLCAnLW1hJywgJzIwMCcsICctbWV0YWxfYmluZGluZycsICctaW1hZScsICc8aW5maWxlLm1hZT4nLCAnLW9tYWUnLCAnPG91dGZpbGUubWFlPic=

> <r_lp_tautomer_probability>
1

> <r_epik_Ionization_Penalty>
8.36606e-05

> <r_epik_Ionization_Penalty_Charging>
0

> <r_epik_Ionization_Penalty_Neutral>
8.36606e-05

> <r_epik_State_Penalty>
-0

> <r_epik_Charging_Adjusted_Penalty>
0

> <i_epik_Tot_Q>
0

> <i_epik_Tot_abs_Q>
0

> <r_epik_Metal_State_Penalty>
-0

> <b_epik_Metal_Only>
0

> <s_lp_Force_Field>
OPLS_2005

> <r_lp_Energy>
17.6119

> <b_lp_Chiralities_Consistent>
1

> <s_lp_Variant>
AV-unprocessed.smi:2248-3

> <Gold.Version>
5.8.1

> <Gold.Id.Protein>
6NUR|6NUR_protein|mol2

> <Gold.PLP.Fitness>
47.5574

> <Gold.PLP.PLP>
-38.2380

> <Gold.PLP.part.hbond>
-4.7387

> <Gold.PLP.part.metal>
0.0000

> <Gold.PLP.part.buried>
-1.8111

> <Gold.PLP.part.nonpolar>
-31.2533

> <Gold.PLP.part.repulsive>
0.2405

> <Gold.PLP.ligand.clash>
0.0000

> <Gold.PLP.ligand.torsion>
0.1952

> <Gold.PLP.Chemscore.Hbond>
3.2304

> <Gold.PLP.Chemscore.CHOScore>
0.0000

> <Gold.PLP.Chemscore.Metal>
0.0000

> <Gold.Chemscore.Hbonds>
donor molecule, donor type, donor heavy atom, donor atom, acceptor molecule, acceptor atom, score
      L1  H     7    27       P1  8028  0.93
      L1  H    10    28       P1  8028  1.00
      L1  H    16    33       P1  7957  0.78
      P1  H  7954  7966       L1    16  0.46

> <Gold.PLP.Chemscore.Internal.Correction>
0.0186

> <Gold.Rescore>
     Score         DG    S(hbond)    S(metal)    S(lipo)     H(rot)  DE(clash)    DE(int)     intcor
     18.16     -21.01       2.70        0.00      95.39       1.82       0.46       2.39       ----

> <Gold.Chemscore.Fitness>
18.1566

> <Gold.Chemscore.DG>
-21.0081

> <Gold.Chemscore.ZeroCoef>
-5.4800

> <Gold.Chemscore.Hbond>
2.7014

> <Gold.Chemscore.Metal>
0.0000

> <Gold.Chemscore.Lipo>
95.3900

> <Gold.Chemscore.Internal_Hbond>
0.0000

> <Gold.Chemscore.DEClash>
0.4633

> <Gold.Chemscore.DEInternal>
2.3882

> <Gold.Chemscore.Rot>
1.8184

> <Gold.Chemscore.Internal.Correction>
   9.000000E+99

> <Gold.Chemscore.Hbonds>
donor molecule, donor type, donor heavy atom, donor atom, acceptor molecule, acceptor atom, score
      L1  H     7    27       P1  8028  0.87
      L1  H    10    28       P1  8028  0.94
      L1  H    16    33       P1  7957  0.78
      P1  H  7954  7966       L1    16  0.09

> <Gold.Chemscore.Hbond.Weighted>
-9.0226

> <Gold.Chemscore.Metal.Weighted>
-0.0000

> <Gold.Chemscore.Lipo.Weighted>
-11.1606

> <Gold.Chemscore.Internal_Hbond.Weighted>
0.0000

> <Gold.Chemscore.DEClash.Weighted>
0.4633

> <Gold.Chemscore.DEInternal.Weighted>
2.3882

> <Gold.Chemscore.Rot.Weighted>
4.6551

> <Gold.Chemscore.Internal.Correction.Weighted>
   9.000000E+99

> <Gold.Protein.RotatedTorsions>
[ 6907 6896 6895 6894 ] final   45.28 input  -60.11 | X-H torsion
[ 7974 7965 7964 7962 ] final   14.17 input  175.53 | X-H torsion
[ 8008 7997 7996 7995 ] final -172.82 input   59.86 | X-H torsion
[ 10167 10162 10161 10158 ] final  -14.62 input  -65.29 | X-H torsion
[ 10718 10713 10712 10709 ] final  -47.67 input   66.30 | X-H torsion
[ 10763 10752 10751 10750 ] final  -14.15 input  -60.55 | X-H torsion
[ 11005 11000 10999 10996 ] final  -77.15 input  -57.11 | X-H torsion

> <Gold.Protein.ActiveResidues>
 VAL166  LYS551  ARG553  GLY616  TRP617  ASP618  TYR619  PRO620  LYS621  CYS622 
 ASP623  PHE694  ASN695  SER759  ASP760  ASP761  ALA762  ILE779  LEU786  VAL792 
 PHE793  MET794  SER795  GLU796  ALA797  LYS798  CYS799  TRP800  GLU811  SER814 

> <Gold.Protein.RotatedAtoms>
  152.2427  134.8212  160.0457 H   0  0  0  0  0  0  0  0  0  0  0  0  # atno 6907 bound_to 6896
  151.8921  133.3513  159.3810 H   0  0  0  0  0  0  0  0  0  0  0  0  # atno 6908 bound_to 6896
  150.7058  134.4839  159.5527 H   0  0  0  0  0  0  0  0  0  0  0  0  # atno 6909 bound_to 6896
  146.2311  139.9081  142.8529 H   0  0  0  0  0  0  0  0  0  0  0  0  # atno 7974 bound_to 7965
  155.9495  140.1124  157.0988 H   0  0  0  0  0  0  0  0  0  0  0  0  # atno 8008 bound_to 7997
  154.4106  140.1203  156.5100 H   0  0  0  0  0  0  0  0  0  0  0  0  # atno 8009 bound_to 7997
  155.6860  140.3473  155.4876 H   0  0  0  0  0  0  0  0  0  0  0  0  # atno 8010 bound_to 7997
  140.7204  143.5303  150.9528 H   0  0  0  0  0  0  0  0  0  0  0  0  # atno 10167 bound_to 10162
  156.2062  130.4158  149.9175 H   0  0  0  0  0  0  0  0  0  0  0  0  # atno 10718 bound_to 10713
  153.5239  135.7015  153.5717 H   0  0  0  0  0  0  0  0  0  0  0  0  # atno 10763 bound_to 10752
  153.3754  135.3934  155.1819 H   0  0  0  0  0  0  0  0  0  0  0  0  # atno 10764 bound_to 10752
  154.8692  135.3822  154.4730 H   0  0  0  0  0  0  0  0  0  0  0  0  # atno 10765 bound_to 10752
  141.1658  133.7011  156.7777 H   0  0  0  0  0  0  0  0  0  0  0  0  # atno 11005 bound_to 11000
  145.2257  140.9953  143.4020 LP  0  0  0  0  0  0  0  0  0  0  0  0  # atno 17320 bound_to 7965
  144.9572  139.4018  143.6373 LP  0  0  0  0  0  0  0  0  0  0  0  0  # atno 17321 bound_to 7965
  139.9023  143.6821  152.3129 LP  0  0  0  0  0  0  0  0  0  0  0  0  # atno 17342 bound_to 10162
  139.7175  144.7609  151.1010 LP  0  0  0  0  0  0  0  0  0  0  0  0  # atno 17343 bound_to 10162
  156.6869  130.8880  151.3583 LP  0  0  0  0  0  0  0  0  0  0  0  0  # atno 17370 bound_to 10713
  157.7013  130.9336  150.0795 LP  0  0  0  0  0  0  0  0  0  0  0  0  # atno 17371 bound_to 10713
  140.2417  134.8608  157.3580 LP  0  0  0  0  0  0  0  0  0  0  0  0  # atno 17394 bound_to 11000
  140.1789  134.4515  155.7784 LP  0  0  0  0  0  0  0  0  0  0  0  0  # atno 17395 bound_to 11000

$$$$
