AV-unprocessed.smi:3331|AV-procd|sdf|12825|dock5
  -GOLD-   2272019203D 1   1.00000     0.00000
 Structure written by MMmdl.
 46 47  0  0  0  0  0  0  0  0  1 V2000
  153.8454  140.5490  159.4237 C   0  0  0  0  0  0  0  0  0  0  0  0
  152.5253  141.2126  159.8540 C   0  0  1  0  0  0  0  0  0  0  0  0
  152.5464  142.7437  159.6480 C   0  0  0  0  0  0  0  0  0  0  0  0
  152.3551  143.1539  158.1705 C   0  0  2  0  0  0  0  0  0  0  0  0
  152.2470  144.6778  158.0217 C   0  0  0  0  0  0  0  0  0  0  0  0
  151.1272  142.4365  157.5721 C   0  0  0  0  0  0  0  0  0  0  0  0
  151.2894  140.9842  157.7290 N   0  0  0  0  0  0  0  0  0  0  0  0
  151.4790  140.1528  156.6715 C   0  0  0  0  0  0  0  0  0  0  0  0
  151.4800  140.5696  155.5115 O   0  0  0  0  0  0  0  0  0  0  0  0
  151.6884  138.6419  156.9098 C   0  0  2  0  0  0  0  0  0  0  0  0
  152.9913  138.1323  156.2554 C   0  0  0  0  0  0  0  0  0  0  0  0
  150.5209  137.8921  156.4180 N   0  0  0  0  0  0  0  0  0  0  0  0
  150.7238  136.4503  156.4318 C   0  0  0  0  0  0  0  0  0  0  0  0
  150.6370  135.9125  154.9962 C   0  0  0  0  0  0  0  0  0  0  0  0
  150.2456  134.5165  154.9719 N   0  0  0  0  0  0  0  0  0  0  0  0
  149.2997  133.9053  154.1761 C   0  0  0  0  0  0  0  0  0  0  0  0
  149.2857  132.5804  154.5069 C   0  0  0  0  0  0  0  0  0  0  0  0
  150.2706  132.4766  155.5290 C   0  0  0  0  0  0  0  0  0  0  0  0
  150.8424  133.6375  155.8061 N   0  0  0  0  0  0  0  0  0  0  0  0
  151.2946  140.6014  159.1495 C   0  0  0  0  0  0  0  0  0  0  0  0
  154.0469  140.6900  158.3617 H   0  0  0  0  0  0  0  0  0  0  0  0
  153.8231  139.4762  159.6164 H   0  0  0  0  0  0  0  0  0  0  0  0
  154.6890  140.9622  159.9770 H   0  0  0  0  0  0  0  0  0  0  0  0
  152.4187  141.0270  160.9233 H   0  0  0  0  0  0  0  0  0  0  0  0
  151.7406  143.1815  160.2388 H   0  0  0  0  0  0  0  0  0  0  0  0
  153.4711  143.1663  160.0431 H   0  0  0  0  0  0  0  0  0  0  0  0
  153.2355  142.8352  157.6108 H   0  0  0  0  0  0  0  0  0  0  0  0
  151.3787  145.0680  158.5538 H   0  0  0  0  0  0  0  0  0  0  0  0
  152.1520  144.9642  156.9740 H   0  0  0  0  0  0  0  0  0  0  0  0
  153.1326  145.1739  158.4195 H   0  0  0  0  0  0  0  0  0  0  0  0
  150.2174  142.7535  158.0839 H   0  0  0  0  0  0  0  0  0  0  0  0
  150.9954  142.7365  156.5318 H   0  0  0  0  0  0  0  0  0  0  0  0
  151.7972  138.4943  157.9844 H   0  0  0  0  0  0  0  0  0  0  0  0
  153.8462  138.7434  156.5484 H   0  0  0  0  0  0  0  0  0  0  0  0
  152.9287  138.1485  155.1663 H   0  0  0  0  0  0  0  0  0  0  0  0
  153.2212  137.1109  156.5573 H   0  0  0  0  0  0  0  0  0  0  0  0
  150.2447  138.1950  155.4949 H   0  0  0  0  0  0  0  0  0  0  0  0
  151.6976  136.2074  156.8569 H   0  0  0  0  0  0  0  0  0  0  0  0
  149.9639  135.9747  157.0540 H   0  0  0  0  0  0  0  0  0  0  0  0
  149.9151  136.4869  154.4131 H   0  0  0  0  0  0  0  0  0  0  0  0
  151.6000  136.0098  154.4928 H   0  0  0  0  0  0  0  0  0  0  0  0
  148.7235  134.4572  153.4479 H   0  0  0  0  0  0  0  0  0  0  0  0
  148.6672  131.8031  154.0831 H   0  0  0  0  0  0  0  0  0  0  0  0
  150.5849  131.5986  156.0738 H   0  0  0  0  0  0  0  0  0  0  0  0
  151.2623  139.5278  159.3225 H   0  0  0  0  0  0  0  0  0  0  0  0
  150.3836  140.9828  159.6131 H   0  0  0  0  0  0  0  0  0  0  0  0
  1  2  1  0  0  0  0
  1 21  1  0  0  0  0
  1 22  1  0  0  0  0
  1 23  1  0  0  0  0
  2 20  1  0  0  0  0
  2  3  1  0  0  0  0
  2 24  1  0  0  0  0
  3  4  1  0  0  0  0
  3 25  1  0  0  0  0
  3 26  1  0  0  0  0
  4  5  1  0  0  0  0
  4  6  1  0  0  0  0
  4 27  1  0  0  0  0
  5 28  1  0  0  0  0
  5 29  1  0  0  0  0
  5 30  1  0  0  0  0
  6  7  1  0  0  0  0
  6 31  1  0  0  0  0
  6 32  1  0  0  0  0
  7  8  1  0  0  0  0
  7 20  1  0  0  0  0
  8  9  2  0  0  0  0
  8 10  1  0  0  0  0
 10 11  1  0  0  0  0
 10 12  1  0  0  0  0
 10 33  1  0  0  0  0
 11 34  1  0  0  0  0
 11 35  1  0  0  0  0
 11 36  1  0  0  0  0
 12 13  1  0  0  0  0
 12 37  1  0  0  0  0
 13 14  1  0  0  0  0
 13 38  1  0  0  0  0
 13 39  1  0  0  0  0
 14 15  1  0  0  0  0
 14 40  1  0  0  0  0
 14 41  1  0  0  0  0
 15 19  1  0  0  0  0
 15 16  1  0  0  0  0
 16 17  2  0  0  0  0
 16 42  1  0  0  0  0
 17 18  1  0  0  0  0
 17 43  1  0  0  0  0
 18 19  2  0  0  0  0
 18 44  1  0  0  0  0
 20 45  1  0  0  0  0
 20 46  1  0  0  0  0
M  END
> <s_m_source_file>
AV-unprocessed.smi

> <i_m_source_file_index>
3331

> <i_lp_mmshare_version>
43012

> <i_f3d_flags>
0

> <s_epik_input>
W0NIM11bQ0BASF0xW0NIMl1bQ0BASF0oW0NIM10pW0NIMl1OKFtDSDJdMSlDKD1PKVtDQEhdKFtDSDNdKVtOSF1bQ0gyXVtDSDJdbjJbY0hdW2NIXVtjSF1uMg==

> <s_epik_cmdline>
J2VwaWtfcHl0aG9uJywgJy1waCcsICc3LjAnLCAnLXRuJywgJzgnLCAnLW1hJywgJzIwMCcsICctbWV0YWxfYmluZGluZycsICctaW1hZScsICc8aW5maWxlLm1hZT4nLCAnLW9tYWUnLCAnPG91dGZpbGUubWFlPic=

> <r_lp_tautomer_probability>
1

> <r_epik_Ionization_Penalty>
0.767994

> <r_epik_Ionization_Penalty_Charging>
0

> <r_epik_Ionization_Penalty_Neutral>
0.767994

> <r_epik_State_Penalty>
0.795453

> <r_epik_Charging_Adjusted_Penalty>
0.795453

> <i_epik_Tot_Q>
0

> <i_epik_Tot_abs_Q>
0

> <r_epik_Metal_State_Penalty>
0.794784

> <b_epik_Metal_Only>
0

> <s_lp_Force_Field>
OPLS_2005

> <r_lp_Energy>
29.2756

> <b_lp_Chiralities_Consistent>
1

> <s_lp_Variant>
AV-unprocessed.smi:3331-9

> <Gold.Version>
5.8.1

> <Gold.Id.Protein>
6NUR|6NUR_protein|mol2

> <Gold.PLP.Fitness>
41.4088

> <Gold.PLP.PLP>
-37.6059

> <Gold.PLP.part.hbond>
-1.0000

> <Gold.PLP.part.metal>
0.0000

> <Gold.PLP.part.buried>
-3.8810

> <Gold.PLP.part.nonpolar>
-33.1581

> <Gold.PLP.part.repulsive>
0.0140

> <Gold.PLP.ligand.clash>
0.0000

> <Gold.PLP.ligand.torsion>
0.8362

> <Gold.PLP.Chemscore.Hbond>
0.8000

> <Gold.PLP.Chemscore.CHOScore>
1.0000

> <Gold.PLP.Chemscore.Metal>
0.0000

> <Gold.Chemscore.Hbonds>
donor molecule, donor type, donor heavy atom, donor atom, acceptor molecule, acceptor atom, score
      P1  H  7989  7998       L1     9  0.80
      L1  C    16    42       P1  7948  1.00

> <Gold.PLP.Chemscore.Internal.Correction>
0.0752

> <Gold.Rescore>
     Score         DG    S(hbond)    S(metal)    S(lipo)     H(rot)  DE(clash)    DE(int)     intcor
     15.02     -16.03       0.97        0.00      98.74       1.66       0.15       0.86       ----

> <Gold.Chemscore.Fitness>
15.0221

> <Gold.Chemscore.DG>
-16.0257

> <Gold.Chemscore.ZeroCoef>
-5.4800

> <Gold.Chemscore.Hbond>
0.9745

> <Gold.Chemscore.Metal>
0.0000

> <Gold.Chemscore.Lipo>
98.7418

> <Gold.Chemscore.Internal_Hbond>
0.0000

> <Gold.Chemscore.DEClash>
0.1482

> <Gold.Chemscore.DEInternal>
0.8553

> <Gold.Chemscore.Rot>
1.6649

> <Gold.Chemscore.Internal.Correction>
   9.000000E+99

> <Gold.Chemscore.Hbonds>
donor molecule, donor type, donor heavy atom, donor atom, acceptor molecule, acceptor atom, score
      P1  H  7989  7998       L1     9  0.74

> <Gold.Chemscore.Hbond.Weighted>
-3.2550

> <Gold.Chemscore.Metal.Weighted>
-0.0000

> <Gold.Chemscore.Lipo.Weighted>
-11.5528

> <Gold.Chemscore.Internal_Hbond.Weighted>
0.0000

> <Gold.Chemscore.DEClash.Weighted>
0.1482

> <Gold.Chemscore.DEInternal.Weighted>
0.8553

> <Gold.Chemscore.Rot.Weighted>
4.2621

> <Gold.Chemscore.Internal.Correction.Weighted>
   9.000000E+99

> <Gold.Protein.RotatedTorsions>
[ 6907 6896 6895 6894 ] final  113.89 input  -60.11 | X-H torsion
[ 7974 7965 7964 7962 ] final -132.46 input  175.53 | X-H torsion
[ 8008 7997 7996 7995 ] final  -57.09 input   59.86 | X-H torsion
[ 10167 10162 10161 10158 ] final  156.10 input  -65.29 | X-H torsion
[ 10718 10713 10712 10709 ] final   24.55 input   66.30 | X-H torsion
[ 10763 10752 10751 10750 ] final  -41.83 input  -60.55 | X-H torsion
[ 11005 11000 10999 10996 ] final  -87.53 input  -57.11 | X-H torsion

> <Gold.Protein.ActiveResidues>
 VAL166  LYS551  ARG553  GLY616  TRP617  ASP618  TYR619  PRO620  LYS621  CYS622 
 ASP623  PHE694  ASN695  SER759  ASP760  ASP761  ALA762  ILE779  LEU786  VAL792 
 PHE793  MET794  SER795  GLU796  ALA797  LYS798  CYS799  TRP800  GLU811  SER814 

> <Gold.Protein.RotatedAtoms>
  152.4835  133.8313  159.7104 H   0  0  0  0  0  0  0  0  0  0  0  0  # atno 6907 bound_to 6896
  150.8902  133.7244  159.2913 H   0  0  0  0  0  0  0  0  0  0  0  0  # atno 6908 bound_to 6896
  151.4719  135.1050  159.9806 H   0  0  0  0  0  0  0  0  0  0  0  0  # atno 6909 bound_to 6896
  144.9283  140.7098  143.4922 H   0  0  0  0  0  0  0  0  0  0  0  0  # atno 7974 bound_to 7965
  154.4255  140.1115  156.5742 H   0  0  0  0  0  0  0  0  0  0  0  0  # atno 8008 bound_to 7997
  155.6180  140.3495  155.4624 H   0  0  0  0  0  0  0  0  0  0  0  0  # atno 8009 bound_to 7997
  156.0047  140.1206  157.0503 H   0  0  0  0  0  0  0  0  0  0  0  0  # atno 8010 bound_to 7997
  139.4821  144.5039  151.8127 H   0  0  0  0  0  0  0  0  0  0  0  0  # atno 10167 bound_to 10162
  157.1813  130.6804  149.6114 H   0  0  0  0  0  0  0  0  0  0  0  0  # atno 10718 bound_to 10713
  153.9690  135.6730  153.4746 H   0  0  0  0  0  0  0  0  0  0  0  0  # atno 10763 bound_to 10752
  153.0802  135.4927  154.8483 H   0  0  0  0  0  0  0  0  0  0  0  0  # atno 10764 bound_to 10752
  154.7230  135.3121  154.8978 H   0  0  0  0  0  0  0  0  0  0  0  0  # atno 10765 bound_to 10752
  141.1615  133.7516  156.9319 H   0  0  0  0  0  0  0  0  0  0  0  0  # atno 11005 bound_to 11000
  145.3183  139.1796  143.4602 LP  0  0  0  0  0  0  0  0  0  0  0  0  # atno 17320 bound_to 7965
  146.3236  140.3197  142.8632 LP  0  0  0  0  0  0  0  0  0  0  0  0  # atno 17321 bound_to 7965
  140.4535  144.1822  150.5899 LP  0  0  0  0  0  0  0  0  0  0  0  0  # atno 17342 bound_to 10162
  140.4560  143.2468  151.9284 LP  0  0  0  0  0  0  0  0  0  0  0  0  # atno 17343 bound_to 10162
  155.9724  130.4645  150.6222 LP  0  0  0  0  0  0  0  0  0  0  0  0  # atno 17370 bound_to 10713
  157.3950  131.0801  151.1360 LP  0  0  0  0  0  0  0  0  0  0  0  0  # atno 17371 bound_to 10713
  140.1380  134.9312  157.2428 LP  0  0  0  0  0  0  0  0  0  0  0  0  # atno 17394 bound_to 11000
  140.2871  134.3283  155.7326 LP  0  0  0  0  0  0  0  0  0  0  0  0  # atno 17395 bound_to 11000

$$$$
