AV-unprocessed.smi:1698|AV-procd|sdf|6813|dock6
  -GOLD-   22720 7593D 1   1.00000     0.00000
 Structure written by MMmdl.
 28 29  0  0  0  0  0  0  0  0  1 V2000
  146.2088  132.7280  153.2655 O   0  0  0  0  0  0  0  0  0  0  0  0
  146.9903  132.2393  152.4520 C   0  0  0  0  0  0  0  0  0  0  0  0
  146.7260  132.0814  151.1410 N   0  0  0  0  0  0  0  0  0  0  0  0
  145.5406  132.4352  150.4491 C   0  0  0  0  0  0  0  0  0  0  0  0
  145.2598  132.0912  149.0989 C   0  0  0  0  0  0  0  0  0  0  0  0
  144.0785  132.5557  148.7174 N   0  0  0  0  0  0  0  0  0  0  0  0
  143.6027  133.1924  149.8113 N   0  0  0  0  0  0  0  0  0  0  0  0
  144.4588  133.1450  150.8893 C   0  0  0  0  0  0  0  0  0  0  0  0
  148.2114  131.8163  152.8261 N   0  0  0  0  0  0  0  0  0  0  0  0
  148.8107  131.8423  154.1612 C   0  0  2  0  0  0  0  0  0  0  0  0
  149.8293  132.9910  154.2843 C   0  0  0  0  0  0  0  0  0  0  0  0
  150.6765  132.7676  155.5436 C   0  0  0  0  0  0  0  0  0  0  0  0
  150.7656  130.9523  155.7826 S   0  0  0  0  0  0  0  0  0  0  0  0
  152.0909  130.4633  155.3739 O   0  0  0  0  0  0  0  0  0  0  0  0
  150.2090  130.6189  157.1025 O   0  0  0  0  0  0  0  0  0  0  0  0
  149.5443  130.5305  154.4845 C   0  0  0  0  0  0  0  0  0  0  0  0
  142.7022  133.6498  149.8067 H   0  0  0  0  0  0  0  0  0  0  0  0
  147.4552  131.6678  150.5788 H   0  0  0  0  0  0  0  0  0  0  0  0
  145.8615  131.5324  148.3973 H   0  0  0  0  0  0  0  0  0  0  0  0
  144.2224  133.6070  151.8363 H   0  0  0  0  0  0  0  0  0  0  0  0
  148.7973  131.4436  152.0927 H   0  0  0  0  0  0  0  0  0  0  0  0
  148.0386  132.0099  154.9144 H   0  0  0  0  0  0  0  0  0  0  0  0
  150.4893  132.9798  153.4155 H   0  0  0  0  0  0  0  0  0  0  0  0
  149.3416  133.9662  154.2989 H   0  0  0  0  0  0  0  0  0  0  0  0
  151.6792  133.1873  155.4615 H   0  0  0  0  0  0  0  0  0  0  0  0
  150.1898  133.1975  156.4193 H   0  0  0  0  0  0  0  0  0  0  0  0
  148.8819  129.7394  154.8367 H   0  0  0  0  0  0  0  0  0  0  0  0
  150.0947  130.1623  153.6180 H   0  0  0  0  0  0  0  0  0  0  0  0
  1  2  2  0  0  0  0
  2  3  1  0  0  0  0
  2  9  1  0  0  0  0
  3  4  1  0  0  0  0
  3 18  1  0  0  0  0
  4  8  2  0  0  0  0
  4  5  1  0  0  0  0
  5  6  2  0  0  0  0
  5 19  1  0  0  0  0
  6  7  1  0  0  0  0
  7 17  1  0  0  0  0
  7  8  1  0  0  0  0
  8 20  1  0  0  0  0
  9 10  1  0  0  0  0
  9 21  1  0  0  0  0
 10 16  1  0  0  0  0
 10 11  1  0  0  0  0
 10 22  1  0  0  0  0
 11 12  1  0  0  0  0
 11 23  1  0  0  0  0
 11 24  1  0  0  0  0
 12 13  1  0  0  0  0
 12 25  1  0  0  0  0
 12 26  1  0  0  0  0
 13 14  2  0  0  0  0
 13 15  2  0  0  0  0
 13 16  1  0  0  0  0
 16 27  1  0  0  0  0
 16 28  1  0  0  0  0
M  END
> <s_m_source_file>
AV-unprocessed.smi

> <i_m_source_file_index>
1698

> <i_lp_mmshare_version>
43012

> <i_f3d_flags>
0

> <s_epik_input>
Tz1TMSg9TylbQ0gyXVtDSDJdW0NASF0oW0NIMl0xKVtOSF1DKD1PKVtOSF1jMltjSF1uW25IXVtjSF0y

> <s_epik_cmdline>
J2VwaWtfcHl0aG9uJywgJy1waCcsICc3LjAnLCAnLXRuJywgJzgnLCAnLW1hJywgJzIwMCcsICctbWV0YWxfYmluZGluZycsICctaW1hZScsICc8aW5maWxlLm1hZT4nLCAnLW9tYWUnLCAnPG91dGZpbGUubWFlPic=

> <r_lp_tautomer_probability>
1

> <r_epik_Ionization_Penalty>
3.85517e-05

> <r_epik_Ionization_Penalty_Charging>
0

> <r_epik_Ionization_Penalty_Neutral>
3.85517e-05

> <r_epik_State_Penalty>
-0

> <r_epik_Charging_Adjusted_Penalty>
0

> <i_epik_Tot_Q>
0

> <i_epik_Tot_abs_Q>
0

> <r_epik_Metal_State_Penalty>
-0

> <b_epik_Metal_Only>
0

> <s_lp_Force_Field>
OPLS_2005

> <r_lp_Energy>
17.454

> <b_lp_Chiralities_Consistent>
1

> <s_lp_Variant>
AV-unprocessed.smi:1698-1

> <Gold.Version>
5.8.1

> <Gold.Id.Protein>
6NUR|6NUR_protein|mol2

> <Gold.PLP.Fitness>
35.3653

> <Gold.PLP.PLP>
-26.8362

> <Gold.PLP.part.hbond>
-3.0256

> <Gold.PLP.part.metal>
0.0000

> <Gold.PLP.part.buried>
-4.6333

> <Gold.PLP.part.nonpolar>
-18.8083

> <Gold.PLP.part.repulsive>
0.5214

> <Gold.PLP.ligand.clash>
0.0000

> <Gold.PLP.ligand.torsion>
0.2356

> <Gold.PLP.Chemscore.Hbond>
3.0000

> <Gold.PLP.Chemscore.CHOScore>
0.0000

> <Gold.PLP.Chemscore.Metal>
0.0000

> <Gold.Chemscore.Hbonds>
donor molecule, donor type, donor heavy atom, donor atom, acceptor molecule, acceptor atom, score
      L1  H     3    18       P1 10747  1.00
      L1  H     7    17       P1 10186  1.00
      L1  H     9    21       P1 10747  1.00

> <Gold.PLP.Chemscore.Internal.Correction>
0.0003

> <Gold.Rescore>
     Score         DG    S(hbond)    S(metal)    S(lipo)     H(rot)  DE(clash)    DE(int)     intcor
     17.52     -18.84       2.91        0.00      52.89       1.00       0.00       1.32       ----

> <Gold.Chemscore.Fitness>
17.5152

> <Gold.Chemscore.DG>
-18.8358

> <Gold.Chemscore.ZeroCoef>
-5.4800

> <Gold.Chemscore.Hbond>
2.9124

> <Gold.Chemscore.Metal>
0.0000

> <Gold.Chemscore.Lipo>
52.8927

> <Gold.Chemscore.Internal_Hbond>
0.0000

> <Gold.Chemscore.DEClash>
0.0004

> <Gold.Chemscore.DEInternal>
1.3202

> <Gold.Chemscore.Rot>
1.0000

> <Gold.Chemscore.Internal.Correction>
   9.000000E+99

> <Gold.Chemscore.Hbonds>
donor molecule, donor type, donor heavy atom, donor atom, acceptor molecule, acceptor atom, score
      L1  H     3    18       P1 10747  0.99
      L1  H     7    17       P1 10186  1.00
      L1  H     9    21       P1 10747  0.85

> <Gold.Chemscore.Hbond.Weighted>
-9.7274

> <Gold.Chemscore.Metal.Weighted>
-0.0000

> <Gold.Chemscore.Lipo.Weighted>
-6.1884

> <Gold.Chemscore.Internal_Hbond.Weighted>
0.0000

> <Gold.Chemscore.DEClash.Weighted>
0.0004

> <Gold.Chemscore.DEInternal.Weighted>
1.3202

> <Gold.Chemscore.Rot.Weighted>
2.5600

> <Gold.Chemscore.Internal.Correction.Weighted>
   9.000000E+99

> <Gold.Protein.RotatedTorsions>
[ 6907 6896 6895 6894 ] final  -33.70 input  -60.11 | X-H torsion
[ 7974 7965 7964 7962 ] final  -39.42 input  175.53 | X-H torsion
[ 8008 7997 7996 7995 ] final   83.67 input   59.86 | X-H torsion
[ 10167 10162 10161 10158 ] final  -86.01 input  -65.29 | X-H torsion
[ 10718 10713 10712 10709 ] final  -53.09 input   66.30 | X-H torsion
[ 10763 10752 10751 10750 ] final  -31.39 input  -60.55 | X-H torsion
[ 11005 11000 10999 10996 ] final  130.30 input  -57.11 | X-H torsion

> <Gold.Protein.ActiveResidues>
 VAL166  LYS551  ARG553  GLY616  TRP617  ASP618  TYR619  PRO620  LYS621  CYS622 
 ASP623  PHE694  ASN695  SER759  ASP760  ASP761  ALA762  ILE779  LEU786  VAL792 
 PHE793  MET794  SER795  GLU796  ALA797  LYS798  CYS799  TRP800  GLU811  SER814 

> <Gold.Protein.RotatedAtoms>
  151.0622  134.9744  159.8266 H   0  0  0  0  0  0  0  0  0  0  0  0  # atno 6907 bound_to 6896
  152.5397  134.2403  159.8869 H   0  0  0  0  0  0  0  0  0  0  0  0  # atno 6908 bound_to 6896
  151.2423  133.4350  159.2641 H   0  0  0  0  0  0  0  0  0  0  0  0  # atno 6909 bound_to 6896
  146.0398  140.6624  142.9092 H   0  0  0  0  0  0  0  0  0  0  0  0  # atno 7974 bound_to 7965
  155.9270  140.3417  155.6218 H   0  0  0  0  0  0  0  0  0  0  0  0  # atno 8008 bound_to 7997
  155.7204  140.0783  157.2351 H   0  0  0  0  0  0  0  0  0  0  0  0  # atno 8009 bound_to 7997
  154.4079  140.1606  156.2383 H   0  0  0  0  0  0  0  0  0  0  0  0  # atno 8010 bound_to 7997
  140.3983  143.2674  151.9176 H   0  0  0  0  0  0  0  0  0  0  0  0  # atno 10167 bound_to 10162
  156.1565  130.4150  149.9861 H   0  0  0  0  0  0  0  0  0  0  0  0  # atno 10718 bound_to 10713
  153.7965  135.6893  153.4862 H   0  0  0  0  0  0  0  0  0  0  0  0  # atno 10763 bound_to 10752
  153.1715  135.4540  154.9908 H   0  0  0  0  0  0  0  0  0  0  0  0  # atno 10764 bound_to 10752
  154.8023  135.3343  154.7457 H   0  0  0  0  0  0  0  0  0  0  0  0  # atno 10765 bound_to 10752
  139.9664  134.9589  156.9273 H   0  0  0  0  0  0  0  0  0  0  0  0  # atno 11005 bound_to 11000
  144.7069  140.3887  143.7111 LP  0  0  0  0  0  0  0  0  0  0  0  0  # atno 17320 bound_to 7965
  145.6903  139.1638  143.2650 LP  0  0  0  0  0  0  0  0  0  0  0  0  # atno 17321 bound_to 7965
  139.4786  144.5659  151.8165 LP  0  0  0  0  0  0  0  0  0  0  0  0  # atno 17342 bound_to 10162
  140.4767  144.1509  150.5926 LP  0  0  0  0  0  0  0  0  0  0  0  0  # atno 17343 bound_to 10162
  156.7703  130.9183  151.3644 LP  0  0  0  0  0  0  0  0  0  0  0  0  # atno 17370 bound_to 10713
  157.6699  130.9041  150.0016 LP  0  0  0  0  0  0  0  0  0  0  0  0  # atno 17371 bound_to 10713
  140.5388  134.0741  155.7335 LP  0  0  0  0  0  0  0  0  0  0  0  0  # atno 17394 bound_to 11000
  141.1344  133.9248  157.2467 LP  0  0  0  0  0  0  0  0  0  0  0  0  # atno 17395 bound_to 11000

$$$$
