AV-unprocessed.smi:3351|AV-procd|sdf|12947|dock7
  -GOLD-   2272019383D 1   1.00000     0.00000
 Structure written by MMmdl.
 35 36  0  0  0  0  0  0  0  0  2 V2000
  150.9909  139.5284  155.1812 C   0  0  0  0  0  0  0  0  0  0  0  0
  149.9981  140.6441  155.5340 C   0  0  2  0  0  0  0  0  0  0  0  0
  149.4971  141.3687  154.2651 C   0  0  0  0  0  0  0  0  0  0  0  0
  148.0350  141.4683  154.1973 N   0  0  0  0  0  0  0  0  0  0  0  0
  147.2169  142.2404  154.9814 C   0  0  0  0  0  0  0  0  0  0  0  0
  145.9329  141.9917  154.5706 C   0  0  0  0  0  0  0  0  0  0  0  0
  146.0223  141.0880  153.5459 N   0  3  0  0  0  0  0  0  0  0  0  0
  147.3018  140.7754  153.3165 C   0  0  0  0  0  0  0  0  0  0  0  0
  150.6446  141.5803  156.4532 N   0  0  0  0  0  0  0  0  0  0  0  0
  151.0679  141.2934  157.6946 C   0  0  0  0  0  0  0  0  0  0  0  0
  150.9774  140.1729  158.1984 O   0  0  0  0  0  0  0  0  0  0  0  0
  151.6924  142.4507  158.4818 C   0  0  0  0  0  0  0  0  0  0  0  0
  152.3865  141.9931  159.6860 N   0  0  0  0  0  0  0  0  0  0  0  0
  152.1499  142.6807  160.9484 C   0  0  0  0  0  0  0  0  0  0  0  0
  153.2559  142.2689  161.9224 C   0  0  0  0  0  0  0  0  0  0  0  0
  153.9179  140.6863  161.3635 S   0  0  0  0  0  0  0  0  0  0  0  0
  153.2286  140.8892  159.7186 C   0  0  0  0  0  0  0  0  0  0  0  0
  153.5049  140.1288  158.7926 O   0  0  0  0  0  0  0  0  0  0  0  0
  150.5341  138.7914  154.5202 H   0  0  0  0  0  0  0  0  0  0  0  0
  151.3256  139.0028  156.0762 H   0  0  0  0  0  0  0  0  0  0  0  0
  151.8731  139.9249  154.6774 H   0  0  0  0  0  0  0  0  0  0  0  0
  149.1483  140.1709  156.0297 H   0  0  0  0  0  0  0  0  0  0  0  0
  149.9090  142.3772  154.2070 H   0  0  0  0  0  0  0  0  0  0  0  0
  149.8282  140.8408  153.3696 H   0  0  0  0  0  0  0  0  0  0  0  0
  147.5969  142.8830  155.7627 H   0  0  0  0  0  0  0  0  0  0  0  0
  144.9879  142.3790  154.9229 H   0  0  0  0  0  0  0  0  0  0  0  0
  147.6690  140.0880  152.5755 H   0  0  0  0  0  0  0  0  0  0  0  0
  150.7708  142.5259  156.1213 H   0  0  0  0  0  0  0  0  0  0  0  0
  152.3878  142.9794  157.8287 H   0  0  0  0  0  0  0  0  0  0  0  0
  150.9228  143.1723  158.7617 H   0  0  0  0  0  0  0  0  0  0  0  0
  152.1276  143.7628  160.8130 H   0  0  0  0  0  0  0  0  0  0  0  0
  151.1754  142.3740  161.3301 H   0  0  0  0  0  0  0  0  0  0  0  0
  154.0649  142.9994  161.8974 H   0  0  0  0  0  0  0  0  0  0  0  0
  152.8974  142.2052  162.9500 H   0  0  0  0  0  0  0  0  0  0  0  0
  145.2353  140.7074  153.0353 H   0  0  0  0  0  0  0  0  0  0  0  0
  1  2  1  0  0  0  0
  1 19  1  0  0  0  0
  1 20  1  0  0  0  0
  1 21  1  0  0  0  0
  2  3  1  0  0  0  0
  2  9  1  0  0  0  0
  2 22  1  0  0  0  0
  3  4  1  0  0  0  0
  3 23  1  0  0  0  0
  3 24  1  0  0  0  0
  4  8  1  0  0  0  0
  4  5  1  0  0  0  0
  5  6  2  0  0  0  0
  5 25  1  0  0  0  0
  6  7  1  0  0  0  0
  6 26  1  0  0  0  0
  7  8  2  0  0  0  0
  7 35  1  0  0  0  0
  8 27  1  0  0  0  0
  9 10  1  0  0  0  0
  9 28  1  0  0  0  0
 10 11  2  0  0  0  0
 10 12  1  0  0  0  0
 12 13  1  0  0  0  0
 12 29  1  0  0  0  0
 12 30  1  0  0  0  0
 13 17  1  0  0  0  0
 13 14  1  0  0  0  0
 14 15  1  0  0  0  0
 14 31  1  0  0  0  0
 14 32  1  0  0  0  0
 15 16  1  0  0  0  0
 15 33  1  0  0  0  0
 15 34  1  0  0  0  0
 16 17  1  0  0  0  0
 17 18  2  0  0  0  0
M  CHG  1   7   1
M  END
> <s_m_source_file>
AV-unprocessed.smi

> <i_m_source_file_index>
3351

> <i_lp_mmshare_version>
43012

> <i_f3d_flags>
0

> <s_epik_input>
W2NIXTFuW2NIXVtjSF1uMVtDSDJdW0NAQEhdKFtDSDNdKVtOSF1DKD1PKVtDSDJdTjJbQ0gyXVtDSDJdU0MyPU8=

> <s_epik_cmdline>
J2VwaWtfcHl0aG9uJywgJy1waCcsICc3LjAnLCAnLXRuJywgJzgnLCAnLW1hJywgJzIwMCcsICctbWV0YWxfYmluZGluZycsICctaW1hZScsICc8aW5maWxlLm1hZT4nLCAnLW9tYWUnLCAnPG91dGZpbGUubWFlPic=

> <r_lp_tautomer_probability>
1

> <r_epik_Ionization_Penalty>
0.257312

> <r_epik_Ionization_Penalty_Charging>
0

> <r_epik_Ionization_Penalty_Neutral>
0.257312

> <r_epik_State_Penalty>
0.248897

> <r_epik_Charging_Adjusted_Penalty>
0.248897

> <i_epik_Tot_Q>
1

> <i_epik_Tot_abs_Q>
1

> <r_epik_Metal_State_Penalty>
0.538022

> <b_epik_Metal_Only>
0

> <s_lp_Force_Field>
OPLS_2005

> <r_lp_Energy>
4.24041

> <b_lp_Chiralities_Consistent>
1

> <s_lp_Variant>
AV-unprocessed.smi:3351-1

> <Gold.Version>
5.8.1

> <Gold.Id.Protein>
6NUR|6NUR_protein|mol2

> <Gold.PLP.Fitness>
51.0204

> <Gold.PLP.PLP>
-38.4546

> <Gold.PLP.part.hbond>
-2.0000

> <Gold.PLP.part.metal>
0.0000

> <Gold.PLP.part.buried>
-1.1502

> <Gold.PLP.part.nonpolar>
-34.6830

> <Gold.PLP.part.repulsive>
0.0769

> <Gold.PLP.ligand.clash>
0.0000

> <Gold.PLP.ligand.torsion>
1.1443

> <Gold.PLP.Chemscore.Hbond>
2.9440

> <Gold.PLP.Chemscore.CHOScore>
1.9970

> <Gold.PLP.Chemscore.Metal>
0.0000

> <Gold.Chemscore.Hbonds>
donor molecule, donor type, donor heavy atom, donor atom, acceptor molecule, acceptor atom, score
      L1  H     7    35       P1 10175  2.00
      P1  H  7997  8010       L1    18  0.92
      L1  C     5    25       P1  8028  1.00
      L1  C     8    27       P1  7957  1.00

> <Gold.PLP.Chemscore.Internal.Correction>
0.0315

> <Gold.Rescore>
     Score         DG    S(hbond)    S(metal)    S(lipo)     H(rot)  DE(clash)    DE(int)     intcor
      9.16     -13.91       1.87        0.00      71.36       2.41       0.18       4.57       ----

> <Gold.Chemscore.Fitness>
9.1649

> <Gold.Chemscore.DG>
-13.9095

> <Gold.Chemscore.ZeroCoef>
-5.4800

> <Gold.Chemscore.Hbond>
1.8746

> <Gold.Chemscore.Metal>
0.0000

> <Gold.Chemscore.Lipo>
71.3553

> <Gold.Chemscore.Internal_Hbond>
0.0000

> <Gold.Chemscore.DEClash>
0.1796

> <Gold.Chemscore.DEInternal>
4.5651

> <Gold.Chemscore.Rot>
2.4141

> <Gold.Chemscore.Internal.Correction>
   9.000000E+99

> <Gold.Chemscore.Hbonds>
donor molecule, donor type, donor heavy atom, donor atom, acceptor molecule, acceptor atom, score
      L1  H     7    35       P1 10175  0.70
      P1  H  7997  8010       L1    18  0.83

> <Gold.Chemscore.Hbond.Weighted>
-6.2610

> <Gold.Chemscore.Metal.Weighted>
-0.0000

> <Gold.Chemscore.Lipo.Weighted>
-8.3486

> <Gold.Chemscore.Internal_Hbond.Weighted>
0.0000

> <Gold.Chemscore.DEClash.Weighted>
0.1796

> <Gold.Chemscore.DEInternal.Weighted>
4.5651

> <Gold.Chemscore.Rot.Weighted>
6.1800

> <Gold.Chemscore.Internal.Correction.Weighted>
   9.000000E+99

> <Gold.Protein.RotatedTorsions>
[ 6907 6896 6895 6894 ] final    6.34 input  -60.11 | X-H torsion
[ 7974 7965 7964 7962 ] final  -65.21 input  175.53 | X-H torsion
[ 8008 7997 7996 7995 ] final   18.42 input   59.86 | X-H torsion
[ 10167 10162 10161 10158 ] final   25.63 input  -65.29 | X-H torsion
[ 10718 10713 10712 10709 ] final  -16.24 input   66.30 | X-H torsion
[ 10763 10752 10751 10750 ] final -117.47 input  -60.55 | X-H torsion
[ 11005 11000 10999 10996 ] final  135.24 input  -57.11 | X-H torsion

> <Gold.Protein.ActiveResidues>
 VAL166  LYS551  ARG553  GLY616  TRP617  ASP618  TYR619  PRO620  LYS621  CYS622 
 ASP623  PHE694  ASN695  SER759  ASP760  ASP761  ALA762  ILE779  LEU786  VAL792 
 PHE793  MET794  SER795  GLU796  ALA797  LYS798  CYS799  TRP800  GLU811  SER814 

> <Gold.Protein.RotatedAtoms>
  151.6721  135.0974  160.0199 H   0  0  0  0  0  0  0  0  0  0  0  0  # atno 6907 bound_to 6896
  152.3885  133.6641  159.6227 H   0  0  0  0  0  0  0  0  0  0  0  0  # atno 6908 bound_to 6896
  150.7806  133.8910  159.3354 H   0  0  0  0  0  0  0  0  0  0  0  0  # atno 6909 bound_to 6896
  145.7571  140.8880  143.0449 H   0  0  0  0  0  0  0  0  0  0  0  0  # atno 7974 bound_to 7965
  154.9057  140.3007  155.5293 H   0  0  0  0  0  0  0  0  0  0  0  0  # atno 8008 bound_to 7997
  156.3017  140.2398  156.4025 H   0  0  0  0  0  0  0  0  0  0  0  0  # atno 8009 bound_to 7997
  154.8476  140.0411  157.1572 H   0  0  0  0  0  0  0  0  0  0  0  0  # atno 8010 bound_to 7997
  140.5090  144.0192  150.6364 H   0  0  0  0  0  0  0  0  0  0  0  0  # atno 10167 bound_to 10162
  156.5904  130.4797  149.6282 H   0  0  0  0  0  0  0  0  0  0  0  0  # atno 10718 bound_to 10713
  154.8556  135.4308  154.1985 H   0  0  0  0  0  0  0  0  0  0  0  0  # atno 10763 bound_to 10752
  153.3037  135.6971  153.7185 H   0  0  0  0  0  0  0  0  0  0  0  0  # atno 10764 bound_to 10752
  153.6305  135.3486  155.3014 H   0  0  0  0  0  0  0  0  0  0  0  0  # atno 10765 bound_to 10752
  139.9967  134.9495  156.9979 H   0  0  0  0  0  0  0  0  0  0  0  0  # atno 11005 bound_to 11000
  144.6838  139.9671  143.7481 LP  0  0  0  0  0  0  0  0  0  0  0  0  # atno 17320 bound_to 7965
  146.0301  139.3327  143.0760 LP  0  0  0  0  0  0  0  0  0  0  0  0  # atno 17321 bound_to 7965
  140.3509  143.2963  152.0488 LP  0  0  0  0  0  0  0  0  0  0  0  0  # atno 17342 bound_to 10162
  139.4891  144.6374  151.6947 LP  0  0  0  0  0  0  0  0  0  0  0  0  # atno 17343 bound_to 10162
  156.2554  130.6932  151.1683 LP  0  0  0  0  0  0  0  0  0  0  0  0  # atno 17370 bound_to 10713
  157.7305  131.0616  150.5724 LP  0  0  0  0  0  0  0  0  0  0  0  0  # atno 17371 bound_to 10713
  140.4806  134.1294  155.7216 LP  0  0  0  0  0  0  0  0  0  0  0  0  # atno 17394 bound_to 11000
  141.1609  133.8794  157.1849 LP  0  0  0  0  0  0  0  0  0  0  0  0  # atno 17395 bound_to 11000

$$$$
