AV-unprocessed.smi:1840|AV-procd|sdf|7489|dock9
  -GOLD-   22720 9193D 1   1.00000     0.00000
 Structure written by MMmdl.
 43 44  0  0  0  0  0  0  0  0  1 V2000
  146.6471  141.8758  154.3250 C   0  0  0  0  0  0  0  0  0  0  0  0
  147.8193  141.0856  154.9248 C   0  0  1  0  0  0  0  0  0  0  0  0
  148.6550  140.3899  153.8329 C   0  0  0  0  0  0  0  0  0  0  0  0
  149.7666  139.6366  154.3865 N   0  0  0  0  0  0  0  0  0  0  0  0
  149.9453  138.2694  154.4177 C   0  0  0  0  0  0  0  0  0  0  0  0
  151.1451  138.0302  155.0239 C   0  0  0  0  0  0  0  0  0  0  0  0
  151.6312  139.3309  155.3353 C   0  0  0  0  0  0  0  0  0  0  0  0
  150.8037  140.2901  154.9529 N   0  0  0  0  0  0  0  0  0  0  0  0
  148.6688  141.9815  155.7070 N   0  0  0  0  0  0  0  0  0  0  0  0
  149.1611  141.7202  156.9255 C   0  0  0  0  0  0  0  0  0  0  0  0
  148.9204  140.6952  157.5635 O   0  0  0  0  0  0  0  0  0  0  0  0
  149.9586  142.7087  157.3552 N   0  0  0  0  0  0  0  0  0  0  0  0
  150.6710  142.7418  158.6317 C   0  0  2  0  0  0  0  0  0  0  0  0
  151.0406  144.2040  158.9510 C   0  0  0  0  0  0  0  0  0  0  0  0
  151.8507  144.3155  160.2504 C   0  0  0  0  0  0  0  0  0  0  0  0
  153.1088  143.4399  160.1881 C   0  0  0  0  0  0  0  0  0  0  0  0
  152.7455  141.9773  159.8907 C   0  0  0  0  0  0  0  0  0  0  0  0
  151.9312  141.8379  158.5879 C   0  0  1  0  0  0  0  0  0  0  0  0
  151.5968  140.3593  158.3186 C   0  0  0  0  0  0  0  0  0  0  0  0
  145.9862  141.2220  153.7554 H   0  0  0  0  0  0  0  0  0  0  0  0
  146.9981  142.6608  153.6546 H   0  0  0  0  0  0  0  0  0  0  0  0
  146.0489  142.3466  155.1060 H   0  0  0  0  0  0  0  0  0  0  0  0
  147.4046  140.3119  155.5739 H   0  0  0  0  0  0  0  0  0  0  0  0
  148.0298  139.7035  153.2596 H   0  0  0  0  0  0  0  0  0  0  0  0
  149.0460  141.1205  153.1232 H   0  0  0  0  0  0  0  0  0  0  0  0
  149.2147  137.5892  154.0058 H   0  0  0  0  0  0  0  0  0  0  0  0
  151.6054  137.0723  155.2146 H   0  0  0  0  0  0  0  0  0  0  0  0
  152.5547  139.6049  155.8239 H   0  0  0  0  0  0  0  0  0  0  0  0
  148.9255  142.8553  155.2714 H   0  0  0  0  0  0  0  0  0  0  0  0
  150.0910  143.5042  156.7480 H   0  0  0  0  0  0  0  0  0  0  0  0
  150.0194  142.3846  159.4315 H   0  0  0  0  0  0  0  0  0  0  0  0
  151.6198  144.6277  158.1290 H   0  0  0  0  0  0  0  0  0  0  0  0
  150.1359  144.8075  159.0330 H   0  0  0  0  0  0  0  0  0  0  0  0
  152.1283  145.3548  160.4285 H   0  0  0  0  0  0  0  0  0  0  0  0
  151.2324  144.0103  161.0955 H   0  0  0  0  0  0  0  0  0  0  0  0
  153.7812  143.8161  159.4161 H   0  0  0  0  0  0  0  0  0  0  0  0
  153.6530  143.5037  161.1308 H   0  0  0  0  0  0  0  0  0  0  0  0
  153.6587  141.3848  159.8246 H   0  0  0  0  0  0  0  0  0  0  0  0
  152.1749  141.5698  160.7263 H   0  0  0  0  0  0  0  0  0  0  0  0
  152.5644  142.1819  157.7685 H   0  0  0  0  0  0  0  0  0  0  0  0
  150.9179  139.9640  159.0749 H   0  0  0  0  0  0  0  0  0  0  0  0
  152.4979  139.7456  158.3276 H   0  0  0  0  0  0  0  0  0  0  0  0
  151.1259  140.2223  157.3451 H   0  0  0  0  0  0  0  0  0  0  0  0
  1  2  1  0  0  0  0
  1 20  1  0  0  0  0
  1 21  1  0  0  0  0
  1 22  1  0  0  0  0
  2  3  1  0  0  0  0
  2  9  1  0  0  0  0
  2 23  1  0  0  0  0
  3  4  1  0  0  0  0
  3 24  1  0  0  0  0
  3 25  1  0  0  0  0
  4  8  1  0  0  0  0
  4  5  1  0  0  0  0
  5  6  2  0  0  0  0
  5 26  1  0  0  0  0
  6  7  1  0  0  0  0
  6 27  1  0  0  0  0
  7  8  2  0  0  0  0
  7 28  1  0  0  0  0
  9 10  1  0  0  0  0
  9 29  1  0  0  0  0
 10 11  2  0  0  0  0
 10 12  1  0  0  0  0
 12 13  1  0  0  0  0
 12 30  1  0  0  0  0
 13 18  1  0  0  0  0
 13 14  1  0  0  0  0
 13 31  1  0  0  0  0
 14 15  1  0  0  0  0
 14 32  1  0  0  0  0
 14 33  1  0  0  0  0
 15 16  1  0  0  0  0
 15 34  1  0  0  0  0
 15 35  1  0  0  0  0
 16 17  1  0  0  0  0
 16 36  1  0  0  0  0
 16 37  1  0  0  0  0
 17 18  1  0  0  0  0
 17 38  1  0  0  0  0
 17 39  1  0  0  0  0
 18 19  1  0  0  0  0
 18 40  1  0  0  0  0
 19 41  1  0  0  0  0
 19 42  1  0  0  0  0
 19 43  1  0  0  0  0
M  END
> <s_m_source_file>
AV-unprocessed.smi

> <i_m_source_file_index>
1840

> <i_lp_mmshare_version>
43012

> <i_f3d_flags>
0

> <s_epik_input>
bjFbY0hdW2NIXVtjSF1uMVtDSDJdW0NAQEhdKFtDSDNdKVtOSF1DKD1PKVtOSF1bQ0BASF0yW0NIMl1bQ0gyXVtDSDJdW0NIMl1bQ0BIXTJbQ0gzXQ==

> <s_epik_cmdline>
J2VwaWtfcHl0aG9uJywgJy1waCcsICc3LjAnLCAnLXRuJywgJzgnLCAnLW1hJywgJzIwMCcsICctbWV0YWxfYmluZGluZycsICctaW1hZScsICc8aW5maWxlLm1hZT4nLCAnLW9tYWUnLCAnPG91dGZpbGUubWFlPic=

> <r_lp_tautomer_probability>
1

> <r_epik_Ionization_Penalty>
7.38659e-05

> <r_epik_Ionization_Penalty_Charging>
0

> <r_epik_Ionization_Penalty_Neutral>
7.38659e-05

> <r_epik_State_Penalty>
-0

> <r_epik_Charging_Adjusted_Penalty>
0

> <i_epik_Tot_Q>
0

> <i_epik_Tot_abs_Q>
0

> <r_epik_Metal_State_Penalty>
-0

> <b_epik_Metal_Only>
0

> <s_lp_Force_Field>
OPLS_2005

> <r_lp_Energy>
8.744

> <b_lp_Chiralities_Consistent>
1

> <s_lp_Variant>
AV-unprocessed.smi:1840-2

> <Gold.Version>
5.8.1

> <Gold.Id.Protein>
6NUR|6NUR_protein|mol2

> <Gold.PLP.Fitness>
49.8499

> <Gold.PLP.PLP>
-40.2237

> <Gold.PLP.part.hbond>
-3.0000

> <Gold.PLP.part.metal>
0.0000

> <Gold.PLP.part.buried>
-3.6819

> <Gold.PLP.part.nonpolar>
-34.5592

> <Gold.PLP.part.repulsive>
0.2054

> <Gold.PLP.ligand.clash>
0.0000

> <Gold.PLP.ligand.torsion>
0.5476

> <Gold.PLP.Chemscore.Hbond>
2.5680

> <Gold.PLP.Chemscore.CHOScore>
1.0000

> <Gold.PLP.Chemscore.Metal>
0.0000

> <Gold.Chemscore.Hbonds>
donor molecule, donor type, donor heavy atom, donor atom, acceptor molecule, acceptor atom, score
      L1  H     9    29       P1  8028  0.78
      L1  H    12    30       P1  8028  0.72
      P1  H  7989  7998       L1     8  1.00
      L1  C     5    26       P1  7948  1.00

> <Gold.PLP.Chemscore.Internal.Correction>
0.0174

> <Gold.Rescore>
     Score         DG    S(hbond)    S(metal)    S(lipo)     H(rot)  DE(clash)    DE(int)     intcor
     19.15     -21.66       2.40        0.00     103.94       1.56       0.32       2.19       ----

> <Gold.Chemscore.Fitness>
19.1458

> <Gold.Chemscore.DG>
-21.6582

> <Gold.Chemscore.ZeroCoef>
-5.4800

> <Gold.Chemscore.Hbond>
2.3966

> <Gold.Chemscore.Metal>
0.0000

> <Gold.Chemscore.Lipo>
103.9398

> <Gold.Chemscore.Internal_Hbond>
0.0000

> <Gold.Chemscore.DEClash>
0.3177

> <Gold.Chemscore.DEInternal>
2.1947

> <Gold.Chemscore.Rot>
1.5576

> <Gold.Chemscore.Internal.Correction>
   9.000000E+99

> <Gold.Chemscore.Hbonds>
donor molecule, donor type, donor heavy atom, donor atom, acceptor molecule, acceptor atom, score
      L1  H     9    29       P1  8028  0.78
      L1  H    12    30       P1  8028  0.68
      P1  H  7989  7998       L1     8  0.08

> <Gold.Chemscore.Hbond.Weighted>
-8.0048

> <Gold.Chemscore.Metal.Weighted>
-0.0000

> <Gold.Chemscore.Lipo.Weighted>
-12.1610

> <Gold.Chemscore.Internal_Hbond.Weighted>
0.0000

> <Gold.Chemscore.DEClash.Weighted>
0.3177

> <Gold.Chemscore.DEInternal.Weighted>
2.1947

> <Gold.Chemscore.Rot.Weighted>
3.9875

> <Gold.Chemscore.Internal.Correction.Weighted>
   9.000000E+99

> <Gold.Protein.RotatedTorsions>
[ 6907 6896 6895 6894 ] final  153.13 input  -60.11 | X-H torsion
[ 7974 7965 7964 7962 ] final  -36.48 input  175.53 | X-H torsion
[ 8008 7997 7996 7995 ] final  -20.34 input   59.86 | X-H torsion
[ 10167 10162 10161 10158 ] final -154.28 input  -65.29 | X-H torsion
[ 10718 10713 10712 10709 ] final   11.05 input   66.30 | X-H torsion
[ 10763 10752 10751 10750 ] final -171.21 input  -60.55 | X-H torsion
[ 11005 11000 10999 10996 ] final   18.27 input  -57.11 | X-H torsion

> <Gold.Protein.ActiveResidues>
 VAL166  LYS551  ARG553  GLY616  TRP617  ASP618  TYR619  PRO620  LYS621  CYS622 
 ASP623  PHE694  ASN695  SER759  ASP760  ASP761  ALA762  ILE779  LEU786  VAL792 
 PHE793  MET794  SER795  GLU796  ALA797  LYS798  CYS799  TRP800  GLU811  SER814 

> <Gold.Protein.RotatedAtoms>
  152.0770  133.4134  159.4484 H   0  0  0  0  0  0  0  0  0  0  0  0  # atno 6907 bound_to 6896
  150.6862  134.3025  159.4722 H   0  0  0  0  0  0  0  0  0  0  0  0  # atno 6908 bound_to 6896
  152.0863  134.9437  160.0623 H   0  0  0  0  0  0  0  0  0  0  0  0  # atno 6909 bound_to 6896
  146.0657  140.6284  142.8976 H   0  0  0  0  0  0  0  0  0  0  0  0  # atno 7974 bound_to 7965
  154.4776  140.2064  155.9840 H   0  0  0  0  0  0  0  0  0  0  0  0  # atno 8008 bound_to 7997
  156.1114  140.3228  155.8048 H   0  0  0  0  0  0  0  0  0  0  0  0  # atno 8009 bound_to 7997
  155.4627  140.0525  157.2979 H   0  0  0  0  0  0  0  0  0  0  0  0  # atno 8010 bound_to 7997
  139.7026  143.9238  152.2435 H   0  0  0  0  0  0  0  0  0  0  0  0  # atno 10167 bound_to 10162
  156.9899  130.6038  149.5685 H   0  0  0  0  0  0  0  0  0  0  0  0  # atno 10718 bound_to 10713
  154.6330  135.2889  155.0194 H   0  0  0  0  0  0  0  0  0  0  0  0  # atno 10763 bound_to 10752
  154.1348  135.6528  153.4933 H   0  0  0  0  0  0  0  0  0  0  0  0  # atno 10764 bound_to 10752
  153.0289  135.5319  154.7165 H   0  0  0  0  0  0  0  0  0  0  0  0  # atno 10765 bound_to 10752
  140.4267  134.1463  155.7677 H   0  0  0  0  0  0  0  0  0  0  0  0  # atno 11005 bound_to 11000
  144.7201  140.4345  143.7014 LP  0  0  0  0  0  0  0  0  0  0  0  0  # atno 17320 bound_to 7965
  145.6481  139.1560  143.2878 LP  0  0  0  0  0  0  0  0  0  0  0  0  # atno 17321 bound_to 7965
  139.9084  144.6871  150.8588 LP  0  0  0  0  0  0  0  0  0  0  0  0  # atno 17342 bound_to 10162
  140.7713  143.3461  151.2108 LP  0  0  0  0  0  0  0  0  0  0  0  0  # atno 17343 bound_to 10162
  156.0211  130.5306  150.8278 LP  0  0  0  0  0  0  0  0  0  0  0  0  # atno 17370 bound_to 10713
  157.5466  131.0942  150.9754 LP  0  0  0  0  0  0  0  0  0  0  0  0  # atno 17371 bound_to 10713
  141.1762  133.8508  157.1412 LP  0  0  0  0  0  0  0  0  0  0  0  0  # atno 17394 bound_to 11000
  140.0163  134.9966  157.0499 LP  0  0  0  0  0  0  0  0  0  0  0  0  # atno 17395 bound_to 11000

$$$$
