AV-unprocessed.smi:221|AV-procd|sdf|1687|dock10
  -GOLD-   2262020123D 1   1.00000     0.00000
 Structure written by MMmdl.
 50 53  0  0  0  0  0  0  0  0  1 V2000
  150.8930  137.4402  154.1246 N   0  0  0  0  0  0  0  0  0  0  0  0
  151.9250  137.9178  154.8274 C   0  0  0  0  0  0  0  0  0  0  0  0
  152.9440  137.2543  155.0079 O   0  0  0  0  0  0  0  0  0  0  0  0
  151.7974  139.3346  155.4249 C   0  0  1  0  0  0  0  0  0  0  0  0
  150.4351  140.0173  155.2323 C   0  0  0  0  0  0  0  0  0  0  0  0
  150.4505  141.1488  156.2670 C   0  0  1  0  0  0  0  0  0  0  0  0
  149.3130  141.1587  156.9628 F   0  0  0  0  0  0  0  0  0  0  0  0
  151.6560  140.8548  157.1765 C   0  0  0  0  0  0  0  0  0  0  0  0
  152.1119  139.5072  156.8496 N   0  0  0  0  0  0  0  0  0  0  0  0
  151.6885  138.6000  157.7683 C   0  0  0  0  0  0  0  0  0  0  0  0
  150.7016  137.7106  157.4790 N   0  0  0  0  0  0  0  0  0  0  0  0
  150.2877  136.8424  158.4067 C   0  0  0  0  0  0  0  0  0  0  0  0
  150.7136  136.6983  159.6637 N   0  0  0  0  0  0  0  0  0  0  0  0
  151.7003  137.5927  159.9575 C   0  0  0  0  0  0  0  0  0  0  0  0
  152.2400  138.5699  159.0756 C   0  0  0  0  0  0  0  0  0  0  0  0
  153.2296  139.3017  159.7192 N   0  0  0  0  0  0  0  0  0  0  0  0
  153.2751  138.7842  160.9166 C   0  0  0  0  0  0  0  0  0  0  0  0
  152.3944  137.7509  161.1443 N   0  0  0  0  0  0  0  0  0  0  0  0
  152.2418  137.0047  162.3807 C   0  0  0  0  0  0  0  0  0  0  0  0
  153.5959  136.6342  163.0346 C   0  0  2  0  0  0  0  0  0  0  0  0
  154.2141  135.3491  162.4318 C   0  0  0  0  0  0  0  0  0  0  0  0
  153.9198  135.2303  161.0550 O   0  0  0  0  0  0  0  0  0  0  0  0
  153.4876  136.5660  164.5791 C   0  0  2  0  0  0  0  0  0  0  0  0
  153.1080  137.8751  165.2494 C   0  0  0  0  0  0  0  0  0  0  0  0
  153.5363  137.6353  166.6927 C   0  0  0  0  0  0  0  0  0  0  0  0
  154.6698  136.7782  166.6205 O   0  0  0  0  0  0  0  0  0  0  0  0
  154.8042  136.2591  165.3011 C   0  0  0  0  0  0  0  0  0  0  0  0
  152.5400  139.9298  154.8905 H   0  0  0  0  0  0  0  0  0  0  0  0
  150.5468  142.1275  155.7963 H   0  0  0  0  0  0  0  0  0  0  0  0
  150.9465  136.5162  153.7213 H   0  0  0  0  0  0  0  0  0  0  0  0
  150.0649  138.0042  154.0000 H   0  0  0  0  0  0  0  0  0  0  0  0
  150.3028  140.3918  154.2169 H   0  0  0  0  0  0  0  0  0  0  0  0
  149.6168  139.3247  155.4348 H   0  0  0  0  0  0  0  0  0  0  0  0
  152.4699  141.5472  156.9580 H   0  0  0  0  0  0  0  0  0  0  0  0
  151.4083  140.9857  158.2322 H   0  0  0  0  0  0  0  0  0  0  0  0
  149.5016  136.1692  158.0985 H   0  0  0  0  0  0  0  0  0  0  0  0
  153.9595  139.1416  161.6726 H   0  0  0  0  0  0  0  0  0  0  0  0
  151.6429  137.6159  163.0557 H   0  0  0  0  0  0  0  0  0  0  0  0
  151.6557  136.1072  162.1798 H   0  0  0  0  0  0  0  0  0  0  0  0
  154.2886  137.4441  162.8005 H   0  0  0  0  0  0  0  0  0  0  0  0
  155.2963  135.3368  162.5602 H   0  0  0  0  0  0  0  0  0  0  0  0
  153.8428  134.4618  162.9440 H   0  0  0  0  0  0  0  0  0  0  0  0
  154.5695  135.7109  160.5650 H   0  0  0  0  0  0  0  0  0  0  0  0
  152.7517  135.8115  164.8624 H   0  0  0  0  0  0  0  0  0  0  0  0
  153.6776  138.7023  164.8231 H   0  0  0  0  0  0  0  0  0  0  0  0
  152.0469  138.1119  165.1667 H   0  0  0  0  0  0  0  0  0  0  0  0
  153.7682  138.5620  167.2179 H   0  0  0  0  0  0  0  0  0  0  0  0
  152.7474  137.1211  167.2431 H   0  0  0  0  0  0  0  0  0  0  0  0
  155.0295  135.1926  165.3221 H   0  0  0  0  0  0  0  0  0  0  0  0
  155.6385  136.7703  164.8189 H   0  0  0  0  0  0  0  0  0  0  0  0
  1  2  1  0  0  0  0
  1 30  1  0  0  0  0
  1 31  1  0  0  0  0
  2  3  2  0  0  0  0
  2  4  1  0  0  0  0
  4 28  1  0  0  0  0
  4  9  1  0  0  0  0
  4  5  1  0  0  0  0
  5  6  1  0  0  0  0
  5 32  1  0  0  0  0
  5 33  1  0  0  0  0
  6 29  1  0  0  0  0
  6  7  1  0  0  0  0
  6  8  1  0  0  0  0
  8  9  1  0  0  0  0
  8 34  1  0  0  0  0
  8 35  1  0  0  0  0
  9 10  1  0  0  0  0
 10 15  1  0  0  0  0
 10 11  2  0  0  0  0
 11 12  1  0  0  0  0
 12 13  2  0  0  0  0
 12 36  1  0  0  0  0
 13 14  1  0  0  0  0
 14 18  1  0  0  0  0
 14 15  2  0  0  0  0
 15 16  1  0  0  0  0
 16 17  2  0  0  0  0
 17 18  1  0  0  0  0
 17 37  1  0  0  0  0
 18 19  1  0  0  0  0
 19 20  1  0  0  0  0
 19 38  1  0  0  0  0
 19 39  1  0  0  0  0
 20 21  1  0  0  0  0
 20 23  1  0  0  0  0
 20 40  1  0  0  0  0
 21 22  1  0  0  0  0
 21 41  1  0  0  0  0
 21 42  1  0  0  0  0
 22 43  1  0  0  0  0
 23 27  1  0  0  0  0
 23 24  1  0  0  0  0
 23 44  1  0  0  0  0
 24 25  1  0  0  0  0
 24 45  1  0  0  0  0
 24 46  1  0  0  0  0
 25 26  1  0  0  0  0
 25 47  1  0  0  0  0
 25 48  1  0  0  0  0
 26 27  1  0  0  0  0
 27 49  1  0  0  0  0
 27 50  1  0  0  0  0
M  END
> <s_m_source_file>
AV-unprocessed.smi

> <i_m_source_file_index>
221

> <i_lp_mmshare_version>
43012

> <i_f3d_flags>
0

> <s_epik_input>
W05IMl1DKD1PKVtDQEBIXTFbQ0gyXVtDQEBIXShGKVtDSDJdTjFjKG5bY0hdbjIpYyhjMjMpbltjSF1uM1tDSDJdW0NASF0oW0NIMl1bT0hdKVtDQEBIXTRbQ0gyXVtDSDJdT1tDSDJdNA==

> <s_epik_cmdline>
J2VwaWtfcHl0aG9uJywgJy1waCcsICc3LjAnLCAnLXRuJywgJzgnLCAnLW1hJywgJzIwMCcsICctbWV0YWxfYmluZGluZycsICctaW1hZScsICc8aW5maWxlLm1hZT4nLCAnLW9tYWUnLCAnPG91dGZpbGUubWFlPic=

> <r_lp_tautomer_probability>
1

> <r_epik_Ionization_Penalty>
0.000818822

> <r_epik_Ionization_Penalty_Charging>
0

> <r_epik_Ionization_Penalty_Neutral>
0.000818822

> <r_epik_State_Penalty>
0.000440551

> <r_epik_Charging_Adjusted_Penalty>
0.000440551

> <i_epik_Tot_Q>
0

> <i_epik_Tot_abs_Q>
0

> <r_epik_Metal_State_Penalty>
-0

> <b_epik_Metal_Only>
0

> <s_lp_Force_Field>
OPLS_2005

> <r_lp_Energy>
55.6777

> <b_lp_Chiralities_Consistent>
1

> <s_lp_Variant>
AV-unprocessed.smi:221-2

> <Gold.Version>
5.8.1

> <Gold.Id.Protein>
6NUR|6NUR_protein|mol2

> <Gold.PLP.Fitness>
50.2348

> <Gold.PLP.PLP>
-39.3801

> <Gold.PLP.part.hbond>
-5.0000

> <Gold.PLP.part.metal>
0.0000

> <Gold.PLP.part.buried>
-5.8457

> <Gold.PLP.part.nonpolar>
-27.9407

> <Gold.PLP.part.repulsive>
0.2385

> <Gold.PLP.ligand.clash>
0.0000

> <Gold.PLP.ligand.torsion>
1.2721

> <Gold.PLP.Chemscore.Hbond>
4.4080

> <Gold.PLP.Chemscore.CHOScore>
0.0000

> <Gold.PLP.Chemscore.Metal>
0.0000

> <Gold.Chemscore.Hbonds>
donor molecule, donor type, donor heavy atom, donor atom, acceptor molecule, acceptor atom, score
      L1  H     1    30       P1  7949  0.17
      P1  H  6896  6907       L1    22  0.46
      P1  H  6896  6909       L1    13  1.00
      P1  H 10752 10765       L1     3  0.34

> <Gold.PLP.Chemscore.Internal.Correction>
0.1750

> <Gold.Rescore>
     Score         DG    S(hbond)    S(metal)    S(lipo)     H(rot)  DE(clash)    DE(int)     intcor
     13.98     -16.99       4.16        0.00      61.02       3.72       0.13       2.88       ----

> <Gold.Chemscore.Fitness>
13.9790

> <Gold.Chemscore.DG>
-16.9858

> <Gold.Chemscore.ZeroCoef>
-5.4800

> <Gold.Chemscore.Hbond>
4.1587

> <Gold.Chemscore.Metal>
0.0000

> <Gold.Chemscore.Lipo>
61.0220

> <Gold.Chemscore.Internal_Hbond>
0.0000

> <Gold.Chemscore.DEClash>
0.1311

> <Gold.Chemscore.DEInternal>
2.8757

> <Gold.Chemscore.Rot>
3.7202

> <Gold.Chemscore.Internal.Correction>
   9.000000E+99

> <Gold.Chemscore.Hbonds>
donor molecule, donor type, donor heavy atom, donor atom, acceptor molecule, acceptor atom, score
      L1  H     1    30       P1  7949  0.04
      P1  H  6896  6907       L1    22  0.38
      P1  H  6896  6909       L1    13  0.58
      P1  H 10752 10765       L1     3  0.33

> <Gold.Chemscore.Hbond.Weighted>
-13.8900

> <Gold.Chemscore.Metal.Weighted>
-0.0000

> <Gold.Chemscore.Lipo.Weighted>
-7.1396

> <Gold.Chemscore.Internal_Hbond.Weighted>
0.0000

> <Gold.Chemscore.DEClash.Weighted>
0.1311

> <Gold.Chemscore.DEInternal.Weighted>
2.8757

> <Gold.Chemscore.Rot.Weighted>
9.5237

> <Gold.Chemscore.Internal.Correction.Weighted>
   9.000000E+99

> <Gold.Protein.RotatedTorsions>
[ 6907 6896 6895 6894 ] final   94.33 input  -60.11 | X-H torsion
[ 7974 7965 7964 7962 ] final  -50.97 input  175.53 | X-H torsion
[ 8008 7997 7996 7995 ] final  -81.01 input   59.86 | X-H torsion
[ 10167 10162 10161 10158 ] final  149.42 input  -65.29 | X-H torsion
[ 10718 10713 10712 10709 ] final -175.82 input   66.30 | X-H torsion
[ 10763 10752 10751 10750 ] final  170.39 input  -60.55 | X-H torsion
[ 11005 11000 10999 10996 ] final   99.93 input  -57.11 | X-H torsion

> <Gold.Protein.ActiveResidues>
 VAL166  LYS551  ARG553  GLY616  TRP617  ASP618  TYR619  PRO620  LYS621  CYS622 
 ASP623  PHE694  ASN695  SER759  ASP760  ASP761  ALA762  ILE779  LEU786  VAL792 
 PHE793  MET794  SER795  GLU796  ALA797  LYS798  CYS799  TRP800  GLU811  SER814 

> <Gold.Protein.RotatedAtoms>
  152.5450  134.1210  159.8398 H   0  0  0  0  0  0  0  0  0  0  0  0  # atno 6907 bound_to 6896
  151.1266  133.5059  159.2608 H   0  0  0  0  0  0  0  0  0  0  0  0  # atno 6908 bound_to 6896
  151.1720  135.0332  159.8810 H   0  0  0  0  0  0  0  0  0  0  0  0  # atno 6909 bound_to 6896
  145.9241  140.7808  142.9632 H   0  0  0  0  0  0  0  0  0  0  0  0  # atno 7974 bound_to 7965
  154.5940  140.0654  156.9278 H   0  0  0  0  0  0  0  0  0  0  0  0  # atno 8008 bound_to 7997
  155.2246  140.3333  155.4293 H   0  0  0  0  0  0  0  0  0  0  0  0  # atno 8009 bound_to 7997
  156.2275  140.1825  156.7311 H   0  0  0  0  0  0  0  0  0  0  0  0  # atno 8010 bound_to 7997
  139.4862  144.5603  151.7243 H   0  0  0  0  0  0  0  0  0  0  0  0  # atno 10167 bound_to 10162
  156.8055  130.9567  151.3117 H   0  0  0  0  0  0  0  0  0  0  0  0  # atno 10718 bound_to 10713
  154.3968  135.2754  155.2121 H   0  0  0  0  0  0  0  0  0  0  0  0  # atno 10763 bound_to 10752
  154.4163  135.6010  153.5986 H   0  0  0  0  0  0  0  0  0  0  0  0  # atno 10764 bound_to 10752
  152.9831  135.5962  154.4231 H   0  0  0  0  0  0  0  0  0  0  0  0  # atno 10765 bound_to 10752
  139.8770  134.9117  156.4679 H   0  0  0  0  0  0  0  0  0  0  0  0  # atno 11005 bound_to 11000
  144.6756  140.2022  143.7386 LP  0  0  0  0  0  0  0  0  0  0  0  0  # atno 17320 bound_to 7965
  145.8512  139.2176  143.1771 LP  0  0  0  0  0  0  0  0  0  0  0  0  # atno 17321 bound_to 7965
  140.5171  144.0935  150.6011 LP  0  0  0  0  0  0  0  0  0  0  0  0  # atno 17342 bound_to 10162
  140.3881  143.2767  152.0092 LP  0  0  0  0  0  0  0  0  0  0  0  0  # atno 17343 bound_to 10162
  157.6532  130.8902  149.9675 LP  0  0  0  0  0  0  0  0  0  0  0  0  # atno 17370 bound_to 10713
  156.1075  130.3652  150.0107 LP  0  0  0  0  0  0  0  0  0  0  0  0  # atno 17371 bound_to 10713
  140.8817  133.7913  155.9474 LP  0  0  0  0  0  0  0  0  0  0  0  0  # atno 17394 bound_to 11000
  140.8847  134.2568  157.5126 LP  0  0  0  0  0  0  0  0  0  0  0  0  # atno 17395 bound_to 11000

$$$$
