AV-unprocessed.smi:171|AV-procd|sdf|1420|dock1
  -GOLD-   2262019183D 1   1.00000     0.00000
 Structure written by MMmdl.
 56 59  0  0  0  0  0  0  0  0  1 V2000
  151.7431  140.1785  156.6281 C   0  0  0  0  0  0  0  0  0  0  0  0
  150.6794  141.2871  156.6029 C   0  0  0  0  0  0  0  0  0  0  0  0
  151.1011  142.4497  157.5157 C   0  0  0  0  0  0  0  0  0  0  0  0
  149.2878  140.7135  156.9541 C   0  0  0  0  0  0  0  0  0  0  0  0
  148.5984  139.9149  155.8121 C   0  0  2  0  0  0  0  0  0  0  0  0
  149.3430  140.1055  154.4666 C   0  0  0  0  0  0  0  0  0  0  0  0
  150.4308  139.5628  154.2872 O   0  0  0  0  0  0  0  0  0  0  0  0
  148.7807  140.8623  153.5068 N   0  0  0  0  0  0  0  0  0  0  0  0
  147.4848  141.5350  153.5929 C   0  0  0  0  0  0  0  0  0  0  0  0
  146.9386  141.5959  155.0298 C   0  0  0  0  0  0  0  0  0  0  0  0
  147.1897  140.3322  155.7176 N   0  0  0  0  0  0  0  0  0  0  0  0
  146.2338  139.3866  155.5238 C   0  0  0  0  0  0  0  0  0  0  0  0
  145.4540  138.9772  156.5599 N   0  0  0  0  0  0  0  0  0  0  0  0
  144.5240  138.0362  156.3732 C   0  0  0  0  0  0  0  0  0  0  0  0
  144.2123  137.3818  155.2531 N   0  0  0  0  0  0  0  0  0  0  0  0
  144.9927  137.7865  154.2103 C   0  0  0  0  0  0  0  0  0  0  0  0
  146.0163  138.7741  154.2584 C   0  0  0  0  0  0  0  0  0  0  0  0
  146.5867  138.9276  153.0006 N   0  0  0  0  0  0  0  0  0  0  0  0
  145.9398  138.0763  152.2524 C   0  0  0  0  0  0  0  0  0  0  0  0
  144.9707  137.3426  152.8996 N   0  0  0  0  0  0  0  0  0  0  0  0
  144.1059  136.3295  152.3138 C   0  0  0  0  0  0  0  0  0  0  0  0
  144.8544  135.3436  151.3785 C   0  0  2  0  0  0  0  0  0  0  0  0
  145.1806  136.0320  150.1829 O   0  0  0  0  0  0  0  0  0  0  0  0
  144.0268  134.1184  150.9983 C   0  0  0  0  0  0  0  0  0  0  0  0
  145.0815  133.0455  150.7753 C   0  0  0  0  0  0  0  0  0  0  0  0
  146.0084  133.3116  151.8123 O   0  0  0  0  0  0  0  0  0  0  0  0
  146.1661  134.7224  151.9377 C   0  0  2  0  0  0  0  0  0  0  0  0
  146.5084  135.0271  153.4047 C   0  0  0  0  0  0  0  0  0  0  0  0
  151.8434  139.7482  157.6251 H   0  0  0  0  0  0  0  0  0  0  0  0
  152.7194  140.5627  156.3317 H   0  0  0  0  0  0  0  0  0  0  0  0
  151.4892  139.3710  155.9407 H   0  0  0  0  0  0  0  0  0  0  0  0
  150.6384  141.6653  155.5804 H   0  0  0  0  0  0  0  0  0  0  0  0
  151.0838  142.1571  158.5660 H   0  0  0  0  0  0  0  0  0  0  0  0
  150.4450  143.3109  157.3945 H   0  0  0  0  0  0  0  0  0  0  0  0
  152.1114  142.7860  157.2812 H   0  0  0  0  0  0  0  0  0  0  0  0
  149.4215  140.0580  157.8165 H   0  0  0  0  0  0  0  0  0  0  0  0
  148.6417  141.5150  157.3171 H   0  0  0  0  0  0  0  0  0  0  0  0
  148.6451  138.8552  156.0677 H   0  0  0  0  0  0  0  0  0  0  0  0
  149.2884  140.9685  152.6405 H   0  0  0  0  0  0  0  0  0  0  0  0
  147.5630  142.5371  153.1710 H   0  0  0  0  0  0  0  0  0  0  0  0
  146.7885  140.9817  152.9617 H   0  0  0  0  0  0  0  0  0  0  0  0
  147.4437  142.3912  155.5786 H   0  0  0  0  0  0  0  0  0  0  0  0
  145.8820  141.8650  155.0200 H   0  0  0  0  0  0  0  0  0  0  0  0
  143.9481  137.7683  157.2470 H   0  0  0  0  0  0  0  0  0  0  0  0
  146.1553  137.9579  151.2005 H   0  0  0  0  0  0  0  0  0  0  0  0
  143.6176  135.7885  153.1254 H   0  0  0  0  0  0  0  0  0  0  0  0
  143.3166  136.8482  151.7691 H   0  0  0  0  0  0  0  0  0  0  0  0
  144.9425  136.9408  150.2858 H   0  0  0  0  0  0  0  0  0  0  0  0
  143.3961  133.8175  151.8356 H   0  0  0  0  0  0  0  0  0  0  0  0
  143.3796  134.2727  150.1337 H   0  0  0  0  0  0  0  0  0  0  0  0
  144.6787  132.0348  150.8443 H   0  0  0  0  0  0  0  0  0  0  0  0
  145.5663  133.1623  149.8048 H   0  0  0  0  0  0  0  0  0  0  0  0
  147.0177  135.0136  151.3199 H   0  0  0  0  0  0  0  0  0  0  0  0
  146.6569  136.0948  153.5660 H   0  0  0  0  0  0  0  0  0  0  0  0
  147.4304  134.5235  153.6960 H   0  0  0  0  0  0  0  0  0  0  0  0
  145.7237  134.6843  154.0793 H   0  0  0  0  0  0  0  0  0  0  0  0
  1  2  1  0  0  0  0
  1 29  1  0  0  0  0
  1 30  1  0  0  0  0
  1 31  1  0  0  0  0
  2  3  1  0  0  0  0
  2  4  1  0  0  0  0
  2 32  1  0  0  0  0
  3 33  1  0  0  0  0
  3 34  1  0  0  0  0
  3 35  1  0  0  0  0
  4  5  1  0  0  0  0
  4 36  1  0  0  0  0
  4 37  1  0  0  0  0
  5 11  1  0  0  0  0
  5  6  1  0  0  0  0
  5 38  1  0  0  0  0
  6  7  2  0  0  0  0
  6  8  1  0  0  0  0
  8  9  1  0  0  0  0
  8 39  1  0  0  0  0
  9 10  1  0  0  0  0
  9 40  1  0  0  0  0
  9 41  1  0  0  0  0
 10 11  1  0  0  0  0
 10 42  1  0  0  0  0
 10 43  1  0  0  0  0
 11 12  1  0  0  0  0
 12 17  1  0  0  0  0
 12 13  2  0  0  0  0
 13 14  1  0  0  0  0
 14 15  2  0  0  0  0
 14 44  1  0  0  0  0
 15 16  1  0  0  0  0
 16 20  1  0  0  0  0
 16 17  2  0  0  0  0
 17 18  1  0  0  0  0
 18 19  2  0  0  0  0
 19 20  1  0  0  0  0
 19 45  1  0  0  0  0
 20 21  1  0  0  0  0
 21 22  1  0  0  0  0
 21 46  1  0  0  0  0
 21 47  1  0  0  0  0
 22 27  1  0  0  0  0
 22 23  1  0  0  0  0
 22 24  1  0  0  0  0
 23 48  1  0  0  0  0
 24 25  1  0  0  0  0
 24 49  1  0  0  0  0
 24 50  1  0  0  0  0
 25 26  1  0  0  0  0
 25 51  1  0  0  0  0
 25 52  1  0  0  0  0
 26 27  1  0  0  0  0
 27 28  1  0  0  0  0
 27 53  1  0  0  0  0
 28 54  1  0  0  0  0
 28 55  1  0  0  0  0
 28 56  1  0  0  0  0
M  END
> <s_m_source_file>
AV-unprocessed.smi

> <i_m_source_file_index>
171

> <i_lp_mmshare_version>
43012

> <i_f3d_flags>
0

> <s_epik_input>
W0NIM11bQ0hdKFtDSDNdKVtDSDJdW0NAQEhdMUMoPU8pW05IXVtDSDJdW0NIMl1OMWMobltjSF1uMiljKGMyMyluW2NIXW4zW0NIMl1bQ0BAXTQoW09IXSlbQ0gyXVtDSDJdT1tDQEhdNFtDSDNd

> <s_epik_cmdline>
J2VwaWtfcHl0aG9uJywgJy1waCcsICc3LjAnLCAnLXRuJywgJzgnLCAnLW1hJywgJzIwMCcsICctbWV0YWxfYmluZGluZycsICctaW1hZScsICc8aW5maWxlLm1hZT4nLCAnLW9tYWUnLCAnPG91dGZpbGUubWFlPic=

> <r_lp_tautomer_probability>
1

> <r_epik_Ionization_Penalty>
0.000670584

> <r_epik_Ionization_Penalty_Charging>
0

> <r_epik_Ionization_Penalty_Neutral>
0.000670584

> <r_epik_State_Penalty>
0.000304767

> <r_epik_Charging_Adjusted_Penalty>
0.000304767

> <i_epik_Tot_Q>
0

> <i_epik_Tot_abs_Q>
0

> <r_epik_Metal_State_Penalty>
-0

> <b_epik_Metal_Only>
0

> <s_lp_Force_Field>
OPLS_2005

> <r_lp_Energy>
45.5381

> <b_lp_Chiralities_Consistent>
1

> <s_lp_Variant>
AV-unprocessed.smi:171-7

> <Gold.Version>
5.8.1

> <Gold.Id.Protein>
6NUR|6NUR_protein|mol2

> <Gold.PLP.Fitness>
43.5797

> <Gold.PLP.PLP>
-36.4090

> <Gold.PLP.part.hbond>
-4.0000

> <Gold.PLP.part.metal>
0.0000

> <Gold.PLP.part.buried>
-5.8042

> <Gold.PLP.part.nonpolar>
-28.1308

> <Gold.PLP.part.repulsive>
1.1023

> <Gold.PLP.ligand.clash>
0.0000

> <Gold.PLP.ligand.torsion>
1.4102

> <Gold.PLP.Chemscore.Hbond>
2.8000

> <Gold.PLP.Chemscore.CHOScore>
0.3393

> <Gold.PLP.Chemscore.Metal>
0.0000

> <Gold.Chemscore.Hbonds>
donor molecule, donor type, donor heavy atom, donor atom, acceptor molecule, acceptor atom, score
      L1  H     8    39       P1  7957  0.80
      L1  H    23    48       P1 10171  1.00
      P1  H  7989  7998       L1     7  1.00
      L1  C    19    45       P1 10171  0.27

> <Gold.PLP.Chemscore.Internal.Correction>
0.5734

> <Gold.Rescore>
     Score         DG    S(hbond)    S(metal)    S(lipo)     H(rot)  DE(clash)    DE(int)     intcor
      7.49     -15.49       2.65        0.00      66.87       2.61       0.04       7.97       ----

> <Gold.Chemscore.Fitness>
7.4886

> <Gold.Chemscore.DG>
-15.4897

> <Gold.Chemscore.ZeroCoef>
-5.4800

> <Gold.Chemscore.Hbond>
2.6529

> <Gold.Chemscore.Metal>
0.0000

> <Gold.Chemscore.Lipo>
66.8690

> <Gold.Chemscore.Internal_Hbond>
0.0000

> <Gold.Chemscore.DEClash>
0.0358

> <Gold.Chemscore.DEInternal>
7.9652

> <Gold.Chemscore.Rot>
2.6074

> <Gold.Chemscore.Internal.Correction>
   9.000000E+99

> <Gold.Chemscore.Hbonds>
donor molecule, donor type, donor heavy atom, donor atom, acceptor molecule, acceptor atom, score
      L1  H     8    39       P1  7957  0.80
      L1  H    23    48       P1 10171  0.92
      P1  H  7989  7998       L1     7  0.65

> <Gold.Chemscore.Hbond.Weighted>
-8.8608

> <Gold.Chemscore.Metal.Weighted>
-0.0000

> <Gold.Chemscore.Lipo.Weighted>
-7.8237

> <Gold.Chemscore.Internal_Hbond.Weighted>
0.0000

> <Gold.Chemscore.DEClash.Weighted>
0.0358

> <Gold.Chemscore.DEInternal.Weighted>
7.9652

> <Gold.Chemscore.Rot.Weighted>
6.6748

> <Gold.Chemscore.Internal.Correction.Weighted>
   9.000000E+99

> <Gold.Protein.RotatedTorsions>
[ 6907 6896 6895 6894 ] final -119.37 input  -60.11 | X-H torsion
[ 7974 7965 7964 7962 ] final -123.96 input  175.53 | X-H torsion
[ 8008 7997 7996 7995 ] final  -99.53 input   59.86 | X-H torsion
[ 10167 10162 10161 10158 ] final  -71.53 input  -65.29 | X-H torsion
[ 10718 10713 10712 10709 ] final   26.06 input   66.30 | X-H torsion
[ 10763 10752 10751 10750 ] final  113.53 input  -60.55 | X-H torsion
[ 11005 11000 10999 10996 ] final  104.72 input  -57.11 | X-H torsion

> <Gold.Protein.ActiveResidues>
 VAL166  LYS551  ARG553  GLY616  TRP617  ASP618  TYR619  PRO620  LYS621  CYS622 
 ASP623  PHE694  ASN695  SER759  ASP760  ASP761  ALA762  ILE779  LEU786  VAL792 
 PHE793  MET794  SER795  GLU796  ALA797  LYS798  CYS799  TRP800  GLU811  SER814 

> <Gold.Protein.RotatedAtoms>
  150.8299  133.8108  159.3102 H   0  0  0  0  0  0  0  0  0  0  0  0  # atno 6907 bound_to 6896
  151.5841  135.1055  160.0033 H   0  0  0  0  0  0  0  0  0  0  0  0  # atno 6908 bound_to 6896
  152.4380  133.7354  159.6667 H   0  0  0  0  0  0  0  0  0  0  0  0  # atno 6909 bound_to 6896
  145.0131  140.7923  143.4426 H   0  0  0  0  0  0  0  0  0  0  0  0  # atno 7974 bound_to 7965
  154.8162  140.0447  157.1378 H   0  0  0  0  0  0  0  0  0  0  0  0  # atno 8008 bound_to 7997
  154.9312  140.3040  155.5147 H   0  0  0  0  0  0  0  0  0  0  0  0  # atno 8009 bound_to 7997
  156.2976  140.2322  156.4372 H   0  0  0  0  0  0  0  0  0  0  0  0  # atno 8010 bound_to 7997
  140.5266  143.2326  151.7337 H   0  0  0  0  0  0  0  0  0  0  0  0  # atno 10167 bound_to 10162
  157.2018  130.6893  149.6191 H   0  0  0  0  0  0  0  0  0  0  0  0  # atno 10718 bound_to 10713
  153.4939  135.3653  155.2506 H   0  0  0  0  0  0  0  0  0  0  0  0  # atno 10763 bound_to 10752
  154.8751  135.3983  154.3557 H   0  0  0  0  0  0  0  0  0  0  0  0  # atno 10764 bound_to 10752
  153.4181  135.7079  153.6378 H   0  0  0  0  0  0  0  0  0  0  0  0  # atno 10765 bound_to 10752
  139.8794  134.9310  156.5405 H   0  0  0  0  0  0  0  0  0  0  0  0  # atno 11005 bound_to 11000
  145.1996  139.2258  143.5199 LP  0  0  0  0  0  0  0  0  0  0  0  0  # atno 17320 bound_to 7965
  146.3473  140.1811  142.8589 LP  0  0  0  0  0  0  0  0  0  0  0  0  # atno 17321 bound_to 7965
  139.4940  144.4177  152.0012 LP  0  0  0  0  0  0  0  0  0  0  0  0  # atno 17342 bound_to 10162
  140.3276  144.3354  150.5994 LP  0  0  0  0  0  0  0  0  0  0  0  0  # atno 17343 bound_to 10162
  155.9699  130.4580  150.5984 LP  0  0  0  0  0  0  0  0  0  0  0  0  # atno 17370 bound_to 10713
  157.3760  131.0773  151.1518 LP  0  0  0  0  0  0  0  0  0  0  0  0  # atno 17371 bound_to 10713
  140.8314  133.8276  155.8987 LP  0  0  0  0  0  0  0  0  0  0  0  0  # atno 17394 bound_to 11000
  140.9325  134.2003  157.4854 LP  0  0  0  0  0  0  0  0  0  0  0  0  # atno 17395 bound_to 11000

$$$$
