AV-unprocessed.smi:3285|AV-procd|sdf|12586|dock4
  -GOLD-   2272018503D 1   1.00000     0.00000
 Structure written by MMmdl.
 45 46  0  0  0  0  0  0  0  0  2 V2000
  153.1194  138.6769  154.5946 C   0  0  0  0  0  0  0  0  0  0  0  0
  151.7493  138.0673  154.6725 C   0  0  0  0  0  0  0  0  0  0  0  0
  151.6282  136.7510  154.6588 N   0  0  0  0  0  0  0  0  0  0  0  0
  150.2576  136.4905  154.7400 O   0  0  0  0  0  0  0  0  0  0  0  0
  149.5980  137.6743  154.8001 C   0  0  0  0  0  0  0  0  0  0  0  0
  148.1116  137.5972  154.8976 C   0  0  0  0  0  0  0  0  0  0  0  0
  150.4840  138.7170  154.7649 C   0  0  0  0  0  0  0  0  0  0  0  0
  150.2030  140.1978  154.8142 C   0  0  0  0  0  0  0  0  0  0  0  0
  150.9130  140.8843  155.9912 C   0  0  0  0  0  0  0  0  0  0  0  0
  150.3528  140.4469  157.2880 N   0  3  0  0  0  0  0  0  0  0  0  0
  150.5627  141.3766  158.4188 C   0  0  2  0  0  0  0  0  0  0  0  0
  150.1653  142.8016  157.9953 C   0  0  0  0  0  0  0  0  0  0  0  0
  150.4041  143.8156  159.1266 C   0  0  0  0  0  0  0  0  0  0  0  0
  151.8634  143.8013  159.6253 C   0  0  2  0  0  0  0  0  0  0  0  0
  152.8196  144.4479  158.6024 C   0  0  0  0  0  0  0  0  0  0  0  0
  152.2633  142.3649  160.0497 C   0  0  2  0  0  0  0  0  0  0  0  0
  153.6928  142.2720  160.6087 C   0  0  0  0  0  0  0  0  0  0  0  0
  152.0234  141.3455  158.9172 C   0  0  0  0  0  0  0  0  0  0  0  0
  153.1117  139.7197  154.9105 H   0  0  0  0  0  0  0  0  0  0  0  0
  153.5031  138.6418  153.5751 H   0  0  0  0  0  0  0  0  0  0  0  0
  153.8252  138.1462  155.2341 H   0  0  0  0  0  0  0  0  0  0  0  0
  147.6642  138.5907  154.9196 H   0  0  0  0  0  0  0  0  0  0  0  0
  147.8118  137.0735  155.8053 H   0  0  0  0  0  0  0  0  0  0  0  0
  147.6972  137.0603  154.0442 H   0  0  0  0  0  0  0  0  0  0  0  0
  150.5217  140.6750  153.8869 H   0  0  0  0  0  0  0  0  0  0  0  0
  149.1313  140.3886  154.8794 H   0  0  0  0  0  0  0  0  0  0  0  0
  151.9801  140.6599  155.9596 H   0  0  0  0  0  0  0  0  0  0  0  0
  150.8098  141.9649  155.8946 H   0  0  0  0  0  0  0  0  0  0  0  0
  149.3633  140.2730  157.1839 H   0  0  0  0  0  0  0  0  0  0  0  0
  149.9026  141.0753  159.2340 H   0  0  0  0  0  0  0  0  0  0  0  0
  150.7281  143.0984  157.1096 H   0  0  0  0  0  0  0  0  0  0  0  0
  149.1137  142.8234  157.7069 H   0  0  0  0  0  0  0  0  0  0  0  0
  150.1271  144.8169  158.7947 H   0  0  0  0  0  0  0  0  0  0  0  0
  149.7384  143.5813  159.9585 H   0  0  0  0  0  0  0  0  0  0  0  0
  151.9000  144.4283  160.5174 H   0  0  0  0  0  0  0  0  0  0  0  0
  152.8993  143.8647  157.6855 H   0  0  0  0  0  0  0  0  0  0  0  0
  153.8236  144.5620  159.0102 H   0  0  0  0  0  0  0  0  0  0  0  0
  152.4762  145.4455  158.3272 H   0  0  0  0  0  0  0  0  0  0  0  0
  151.5998  142.0864  160.8702 H   0  0  0  0  0  0  0  0  0  0  0  0
  154.4420  142.4474  159.8366 H   0  0  0  0  0  0  0  0  0  0  0  0
  153.8835  141.2838  161.0281 H   0  0  0  0  0  0  0  0  0  0  0  0
  153.8527  143.0009  161.4035 H   0  0  0  0  0  0  0  0  0  0  0  0
  152.2704  140.3489  159.2831 H   0  0  0  0  0  0  0  0  0  0  0  0
  152.7045  141.5412  158.0882 H   0  0  0  0  0  0  0  0  0  0  0  0
  150.8066  139.5762  157.5253 H   0  0  0  0  0  0  0  0  0  0  0  0
  1  2  1  0  0  0  0
  1 19  1  0  0  0  0
  1 20  1  0  0  0  0
  1 21  1  0  0  0  0
  2  7  1  0  0  0  0
  2  3  2  0  0  0  0
  3  4  1  0  0  0  0
  4  5  1  0  0  0  0
  5  6  1  0  0  0  0
  5  7  2  0  0  0  0
  6 22  1  0  0  0  0
  6 23  1  0  0  0  0
  6 24  1  0  0  0  0
  7  8  1  0  0  0  0
  8  9  1  0  0  0  0
  8 25  1  0  0  0  0
  8 26  1  0  0  0  0
  9 10  1  0  0  0  0
  9 27  1  0  0  0  0
  9 28  1  0  0  0  0
 10 11  1  0  0  0  0
 10 29  1  0  0  0  0
 10 45  1  0  0  0  0
 11 18  1  0  0  0  0
 11 12  1  0  0  0  0
 11 30  1  0  0  0  0
 12 13  1  0  0  0  0
 12 31  1  0  0  0  0
 12 32  1  0  0  0  0
 13 14  1  0  0  0  0
 13 33  1  0  0  0  0
 13 34  1  0  0  0  0
 14 15  1  0  0  0  0
 14 16  1  0  0  0  0
 14 35  1  0  0  0  0
 15 36  1  0  0  0  0
 15 37  1  0  0  0  0
 15 38  1  0  0  0  0
 16 17  1  0  0  0  0
 16 18  1  0  0  0  0
 16 39  1  0  0  0  0
 17 40  1  0  0  0  0
 17 41  1  0  0  0  0
 17 42  1  0  0  0  0
 18 43  1  0  0  0  0
 18 44  1  0  0  0  0
M  CHG  1  10   1
M  END
> <s_m_source_file>
AV-unprocessed.smi

> <i_m_source_file_index>
3285

> <i_lp_mmshare_version>
43012

> <i_f3d_flags>
0

> <s_epik_input>
W0NIM11jMW5vYyhbQ0gzXSljMVtDSDJdW0NIMl1bTkhdW0NAQEhdMltDSDJdW0NIMl1bQ0BASF0oW0NIM10pW0NAQEhdKFtDSDNdKVtDSDJdMg==

> <s_epik_cmdline>
J2VwaWtfcHl0aG9uJywgJy1waCcsICc3LjAnLCAnLXRuJywgJzgnLCAnLW1hJywgJzIwMCcsICctbWV0YWxfYmluZGluZycsICctaW1hZScsICc8aW5maWxlLm1hZT4nLCAnLW9tYWUnLCAnPG91dGZpbGUubWFlPic=

> <r_lp_tautomer_probability>
1

> <r_epik_Ionization_Penalty>
0.000204615

> <r_epik_Ionization_Penalty_Charging>
0.000204615

> <r_epik_Ionization_Penalty_Neutral>
9.28663e-11

> <r_epik_State_Penalty>
-0

> <r_epik_Charging_Adjusted_Penalty>
0.000204615

> <i_epik_Tot_Q>
1

> <i_epik_Tot_abs_Q>
1

> <r_epik_Metal_State_Penalty>
-0

> <b_epik_Metal_Only>
0

> <s_lp_Force_Field>
OPLS_2005

> <r_lp_Energy>
13.9003

> <b_lp_Chiralities_Consistent>
1

> <s_lp_Variant>
AV-unprocessed.smi:3285-7

> <Gold.Version>
5.8.1

> <Gold.Id.Protein>
6NUR|6NUR_protein|mol2

> <Gold.PLP.Fitness>
41.3246

> <Gold.PLP.PLP>
-38.7589

> <Gold.PLP.part.hbond>
-1.0000

> <Gold.PLP.part.metal>
0.0000

> <Gold.PLP.part.buried>
-4.1367

> <Gold.PLP.part.nonpolar>
-34.6170

> <Gold.PLP.part.repulsive>
0.3674

> <Gold.PLP.ligand.clash>
0.0000

> <Gold.PLP.ligand.torsion>
0.2202

> <Gold.PLP.Chemscore.Hbond>
1.0000

> <Gold.PLP.Chemscore.CHOScore>
0.0000

> <Gold.PLP.Chemscore.Metal>
0.0000

> <Gold.Chemscore.Hbonds>
donor molecule, donor type, donor heavy atom, donor atom, acceptor molecule, acceptor atom, score
      P1  H 10752 10763       L1     3  1.00

> <Gold.PLP.Chemscore.Internal.Correction>
0.0061

> <Gold.Rescore>
     Score         DG    S(hbond)    S(metal)    S(lipo)     H(rot)  DE(clash)    DE(int)     intcor
     18.97     -19.28       1.00        0.00     119.01       1.35       0.09       0.22       ----

> <Gold.Chemscore.Fitness>
18.9727

> <Gold.Chemscore.DG>
-19.2836

> <Gold.Chemscore.ZeroCoef>
-5.4800

> <Gold.Chemscore.Hbond>
0.9960

> <Gold.Chemscore.Metal>
0.0000

> <Gold.Chemscore.Lipo>
119.0084

> <Gold.Chemscore.Internal_Hbond>
0.0000

> <Gold.Chemscore.DEClash>
0.0926

> <Gold.Chemscore.DEInternal>
0.2183

> <Gold.Chemscore.Rot>
1.3465

> <Gold.Chemscore.Internal.Correction>
   9.000000E+99

> <Gold.Chemscore.Hbonds>
donor molecule, donor type, donor heavy atom, donor atom, acceptor molecule, acceptor atom, score
      P1  H 10752 10763       L1     3  1.00

> <Gold.Chemscore.Hbond.Weighted>
-3.3266

> <Gold.Chemscore.Metal.Weighted>
-0.0000

> <Gold.Chemscore.Lipo.Weighted>
-13.9240

> <Gold.Chemscore.Internal_Hbond.Weighted>
0.0000

> <Gold.Chemscore.DEClash.Weighted>
0.0926

> <Gold.Chemscore.DEInternal.Weighted>
0.2183

> <Gold.Chemscore.Rot.Weighted>
3.4470

> <Gold.Chemscore.Internal.Correction.Weighted>
   9.000000E+99

> <Gold.Protein.RotatedTorsions>
[ 6907 6896 6895 6894 ] final  165.68 input  -60.11 | X-H torsion
[ 7974 7965 7964 7962 ] final  -49.80 input  175.53 | X-H torsion
[ 8008 7997 7996 7995 ] final   73.52 input   59.86 | X-H torsion
[ 10167 10162 10161 10158 ] final  -77.45 input  -65.29 | X-H torsion
[ 10718 10713 10712 10709 ] final -123.31 input   66.30 | X-H torsion
[ 10763 10752 10751 10750 ] final   56.44 input  -60.55 | X-H torsion
[ 11005 11000 10999 10996 ] final -132.79 input  -57.11 | X-H torsion

> <Gold.Protein.ActiveResidues>
 VAL166  LYS551  ARG553  GLY616  TRP617  ASP618  TYR619  PRO620  LYS621  CYS622 
 ASP623  PHE694  ASN695  SER759  ASP760  ASP761  ALA762  ILE779  LEU786  VAL792 
 PHE793  MET794  SER795  GLU796  ALA797  LYS798  CYS799  TRP800  GLU811  SER814 

> <Gold.Protein.RotatedAtoms>
  151.8907  133.3515  159.3797 H   0  0  0  0  0  0  0  0  0  0  0  0  # atno 6907 bound_to 6896
  150.7104  134.4926  159.5532 H   0  0  0  0  0  0  0  0  0  0  0  0  # atno 6908 bound_to 6896
  152.2496  134.8146  160.0499 H   0  0  0  0  0  0  0  0  0  0  0  0  # atno 6909 bound_to 6896
  145.9367  140.7700  142.9572 H   0  0  0  0  0  0  0  0  0  0  0  0  # atno 7974 bound_to 7965
  155.7849  140.3481  155.5317 H   0  0  0  0  0  0  0  0  0  0  0  0  # atno 8008 bound_to 7997
  155.8692  140.0983  157.1582 H   0  0  0  0  0  0  0  0  0  0  0  0  # atno 8009 bound_to 7997
  154.4016  140.1344  156.4044 H   0  0  0  0  0  0  0  0  0  0  0  0  # atno 8010 bound_to 7997
  140.4769  143.2412  151.8119 H   0  0  0  0  0  0  0  0  0  0  0  0  # atno 10167 bound_to 10162
  156.1492  130.6522  150.9888 H   0  0  0  0  0  0  0  0  0  0  0  0  # atno 10718 bound_to 10713
  152.9832  135.5676  154.5230 H   0  0  0  0  0  0  0  0  0  0  0  0  # atno 10763 bound_to 10752
  154.4715  135.2785  155.1641 H   0  0  0  0  0  0  0  0  0  0  0  0  # atno 10764 bound_to 10752
  154.3188  135.6273  153.5551 H   0  0  0  0  0  0  0  0  0  0  0  0  # atno 10765 bound_to 10752
  140.9139  134.1532  157.4368 H   0  0  0  0  0  0  0  0  0  0  0  0  # atno 11005 bound_to 11000
  144.6773  140.2215  143.7366 LP  0  0  0  0  0  0  0  0  0  0  0  0  # atno 17320 bound_to 7965
  145.8354  139.2105  143.1858 LP  0  0  0  0  0  0  0  0  0  0  0  0  # atno 17321 bound_to 7965
  139.4827  144.4822  151.9292 LP  0  0  0  0  0  0  0  0  0  0  0  0  # atno 17342 bound_to 10162
  140.3907  144.2619  150.5900 LP  0  0  0  0  0  0  0  0  0  0  0  0  # atno 17343 bound_to 10162
  157.6642  131.0875  150.7767 LP  0  0  0  0  0  0  0  0  0  0  0  0  # atno 17370 bound_to 10713
  156.7836  130.4867  149.5396 LP  0  0  0  0  0  0  0  0  0  0  0  0  # atno 17371 bound_to 10713
  139.8762  134.9946  156.5702 LP  0  0  0  0  0  0  0  0  0  0  0  0  # atno 17394 bound_to 11000
  140.8075  133.8456  155.8780 LP  0  0  0  0  0  0  0  0  0  0  0  0  # atno 17395 bound_to 11000

$$$$
