AV-unprocessed.smi:2244|AV-procd|sdf|9072|dock9
  -GOLD-   2272012273D 1   1.00000     0.00000
 Structure written by MMmdl.
 49 51  0  0  0  0  0  0  0  0  1 V2000
  145.9141  132.0659  152.4078 C   0  0  0  0  0  0  0  0  0  0  0  0
  145.2307  132.8152  151.2418 C   0  0  0  0  0  0  0  0  0  0  0  0
  146.2829  133.0006  150.1288 C   0  0  0  0  0  0  0  0  0  0  0  0
  144.0787  131.9243  150.7316 C   0  0  0  0  0  0  0  0  0  0  0  0
  144.6782  134.1870  151.6686 C   0  0  0  0  0  0  0  0  0  0  0  0
  145.1484  135.4096  151.1386 C   0  0  0  0  0  0  0  0  0  0  0  0
  144.5641  136.5960  151.6125 C   0  0  0  0  0  0  0  0  0  0  0  0
  143.5457  136.5070  152.5831 C   0  0  0  0  0  0  0  0  0  0  0  0
  143.0200  137.7598  153.0145 N   0  0  0  0  0  0  0  0  0  0  0  0
  142.0168  138.0625  153.8658 C   0  0  0  0  0  0  0  0  0  0  0  0
  141.3779  137.1763  154.4311 O   0  0  0  0  0  0  0  0  0  0  0  0
  141.7715  139.3691  154.0575 N   0  0  0  0  0  0  0  0  0  0  0  0
  140.7314  139.9195  154.9205 C   0  0  2  0  0  0  0  0  0  0  0  0
  141.0092  139.5301  156.3787 C   0  0  0  0  0  0  0  0  0  0  0  0
  139.8678  139.9994  157.2937 C   0  0  0  0  0  0  0  0  0  0  0  0
  138.6211  139.4702  156.8470 O   0  0  0  0  0  0  0  0  0  0  0  0
  138.2503  139.8270  155.5143 C   0  0  1  0  0  0  0  0  0  0  0  0
  137.8788  141.2999  155.4044 C   0  0  0  0  0  0  0  0  0  0  0  0
  136.6150  141.8230  156.0444 C   0  0  0  0  0  0  0  0  0  0  0  0
  136.7222  141.7436  154.5398 C   0  0  0  0  0  0  0  0  0  0  0  0
  139.3417  139.3962  154.5146 C   0  0  0  0  0  0  0  0  0  0  0  0
  143.1444  135.2956  153.0464 N   0  0  0  0  0  0  0  0  0  0  0  0
  143.6943  134.1628  152.6004 N   0  0  0  0  0  0  0  0  0  0  0  0
  146.2931  131.0952  152.0857 H   0  0  0  0  0  0  0  0  0  0  0  0
  145.2209  131.8800  153.2290 H   0  0  0  0  0  0  0  0  0  0  0  0
  146.7641  132.6235  152.8028 H   0  0  0  0  0  0  0  0  0  0  0  0
  147.1075  133.6294  150.4664 H   0  0  0  0  0  0  0  0  0  0  0  0
  145.8566  133.4673  149.2403 H   0  0  0  0  0  0  0  0  0  0  0  0
  146.7050  132.0443  149.8179 H   0  0  0  0  0  0  0  0  0  0  0  0
  144.4392  130.9376  150.4386 H   0  0  0  0  0  0  0  0  0  0  0  0
  143.5864  132.3568  149.8599 H   0  0  0  0  0  0  0  0  0  0  0  0
  143.3191  131.7812  151.5012 H   0  0  0  0  0  0  0  0  0  0  0  0
  145.9289  135.4642  150.3955 H   0  0  0  0  0  0  0  0  0  0  0  0
  144.8949  137.5534  151.2365 H   0  0  0  0  0  0  0  0  0  0  0  0
  143.5071  138.5631  152.6451 H   0  0  0  0  0  0  0  0  0  0  0  0
  142.3443  140.0331  153.5555 H   0  0  0  0  0  0  0  0  0  0  0  0
  140.7503  141.0077  154.8427 H   0  0  0  0  0  0  0  0  0  0  0  0
  141.1118  138.4468  156.4609 H   0  0  0  0  0  0  0  0  0  0  0  0
  141.9545  139.9594  156.7124 H   0  0  0  0  0  0  0  0  0  0  0  0
  140.0442  139.6537  158.3124 H   0  0  0  0  0  0  0  0  0  0  0  0
  139.8301  141.0878  157.3403 H   0  0  0  0  0  0  0  0  0  0  0  0
  137.3511  139.2523  155.2888 H   0  0  0  0  0  0  0  0  0  0  0  0
  138.7271  141.9799  155.4273 H   0  0  0  0  0  0  0  0  0  0  0  0
  135.9642  141.1058  156.5407 H   0  0  0  0  0  0  0  0  0  0  0  0
  136.6565  142.8094  156.5017 H   0  0  0  0  0  0  0  0  0  0  0  0
  136.8352  142.6773  153.9927 H   0  0  0  0  0  0  0  0  0  0  0  0
  136.1417  140.9748  154.0340 H   0  0  0  0  0  0  0  0  0  0  0  0
  139.0810  139.7311  153.5098 H   0  0  0  0  0  0  0  0  0  0  0  0
  139.3674  138.3060  154.4756 H   0  0  0  0  0  0  0  0  0  0  0  0
  1  2  1  0  0  0  0
  1 24  1  0  0  0  0
  1 25  1  0  0  0  0
  1 26  1  0  0  0  0
  2  3  1  0  0  0  0
  2  4  1  0  0  0  0
  2  5  1  0  0  0  0
  3 27  1  0  0  0  0
  3 28  1  0  0  0  0
  3 29  1  0  0  0  0
  4 30  1  0  0  0  0
  4 31  1  0  0  0  0
  4 32  1  0  0  0  0
  5 23  1  0  0  0  0
  5  6  2  0  0  0  0
  6  7  1  0  0  0  0
  6 33  1  0  0  0  0
  7  8  2  0  0  0  0
  7 34  1  0  0  0  0
  8  9  1  0  0  0  0
  8 22  1  0  0  0  0
  9 10  1  0  0  0  0
  9 35  1  0  0  0  0
 10 11  2  0  0  0  0
 10 12  1  0  0  0  0
 12 13  1  0  0  0  0
 12 36  1  0  0  0  0
 13 21  1  0  0  0  0
 13 14  1  0  0  0  0
 13 37  1  0  0  0  0
 14 15  1  0  0  0  0
 14 38  1  0  0  0  0
 14 39  1  0  0  0  0
 15 16  1  0  0  0  0
 15 40  1  0  0  0  0
 15 41  1  0  0  0  0
 16 17  1  0  0  0  0
 17 18  1  0  0  0  0
 17 21  1  0  0  0  0
 17 42  1  0  0  0  0
 18 20  1  0  0  0  0
 18 19  1  0  0  0  0
 18 43  1  0  0  0  0
 19 20  1  0  0  0  0
 19 44  1  0  0  0  0
 19 45  1  0  0  0  0
 20 46  1  0  0  0  0
 20 47  1  0  0  0  0
 21 48  1  0  0  0  0
 21 49  1  0  0  0  0
 22 23  2  0  0  0  0
M  END
> <s_m_source_file>
AV-unprocessed.smi

> <i_m_source_file_index>
2244

> <i_lp_mmshare_version>
43012

> <i_f3d_flags>
0

> <s_epik_input>
W0NIM11DKFtDSDNdKShbQ0gzXSljMVtjSF1bY0hdYyhubjEpW05IXUMoPU8pW05IXVtDQEBIXTJbQ0gyXVtDSDJdT1tDQEhdKFtDSDJdMilbQ0hdM1tDSDJdW0NIMl0z

> <s_epik_cmdline>
J2VwaWtfcHl0aG9uJywgJy1waCcsICc3LjAnLCAnLXRuJywgJzgnLCAnLW1hJywgJzIwMCcsICctbWV0YWxfYmluZGluZycsICctaW1hZScsICc8aW5maWxlLm1hZT4nLCAnLW9tYWUnLCAnPG91dGZpbGUubWFlPic=

> <r_lp_tautomer_probability>
1

> <r_epik_Ionization_Penalty>
0.011369

> <r_epik_Ionization_Penalty_Charging>
0

> <r_epik_Ionization_Penalty_Neutral>
0.011369

> <r_epik_State_Penalty>
0.00456331

> <r_epik_Charging_Adjusted_Penalty>
0.00456331

> <i_epik_Tot_Q>
0

> <i_epik_Tot_abs_Q>
0

> <r_epik_Metal_State_Penalty>
-0

> <b_epik_Metal_Only>
0

> <s_lp_Force_Field>
OPLS_2005

> <r_lp_Energy>
29.5867

> <b_lp_Chiralities_Consistent>
1

> <s_lp_Variant>
AV-unprocessed.smi:2244-1

> <Gold.Version>
5.8.1

> <Gold.Id.Protein>
6NUR|6NUR_protein|mol2

> <Gold.PLP.Fitness>
40.1672

> <Gold.PLP.PLP>
-34.3689

> <Gold.PLP.part.hbond>
-3.5313

> <Gold.PLP.part.metal>
0.0000

> <Gold.PLP.part.buried>
-1.6680

> <Gold.PLP.part.nonpolar>
-29.5031

> <Gold.PLP.part.repulsive>
0.5417

> <Gold.PLP.ligand.clash>
0.0000

> <Gold.PLP.ligand.torsion>
0.6273

> <Gold.PLP.Chemscore.Hbond>
1.9920

> <Gold.PLP.Chemscore.CHOScore>
0.0000

> <Gold.PLP.Chemscore.Metal>
0.0000

> <Gold.Chemscore.Hbonds>
donor molecule, donor type, donor heavy atom, donor atom, acceptor molecule, acceptor atom, score
      L1  H     9    35       P1 10175  0.98
      L1  H    12    36       P1 10175  1.00

> <Gold.PLP.Chemscore.Internal.Correction>
1.0767

> <Gold.Rescore>
     Score         DG    S(hbond)    S(metal)    S(lipo)     H(rot)  DE(clash)    DE(int)     intcor
     13.79     -17.15       1.66        0.00      80.94       1.30       0.44       2.93       ----

> <Gold.Chemscore.Fitness>
13.7920

> <Gold.Chemscore.DG>
-17.1544

> <Gold.Chemscore.ZeroCoef>
-5.4800

> <Gold.Chemscore.Hbond>
1.6564

> <Gold.Chemscore.Metal>
0.0000

> <Gold.Chemscore.Lipo>
80.9431

> <Gold.Chemscore.Internal_Hbond>
0.0000

> <Gold.Chemscore.DEClash>
0.4358

> <Gold.Chemscore.DEInternal>
2.9267

> <Gold.Chemscore.Rot>
1.3002

> <Gold.Chemscore.Internal.Correction>
   9.000000E+99

> <Gold.Chemscore.Hbonds>
donor molecule, donor type, donor heavy atom, donor atom, acceptor molecule, acceptor atom, score
      L1  H     9    35       P1 10175  0.93
      L1  H    12    36       P1 10175  0.86

> <Gold.Chemscore.Hbond.Weighted>
-5.5325

> <Gold.Chemscore.Metal.Weighted>
-0.0000

> <Gold.Chemscore.Lipo.Weighted>
-9.4703

> <Gold.Chemscore.Internal_Hbond.Weighted>
0.0000

> <Gold.Chemscore.DEClash.Weighted>
0.4358

> <Gold.Chemscore.DEInternal.Weighted>
2.9267

> <Gold.Chemscore.Rot.Weighted>
3.3284

> <Gold.Chemscore.Internal.Correction.Weighted>
   9.000000E+99

> <Gold.Protein.RotatedTorsions>
[ 6907 6896 6895 6894 ] final  -52.59 input  -60.11 | X-H torsion
[ 7974 7965 7964 7962 ] final  -58.62 input  175.53 | X-H torsion
[ 8008 7997 7996 7995 ] final  -23.68 input   59.86 | X-H torsion
[ 10167 10162 10161 10158 ] final   63.37 input  -65.29 | X-H torsion
[ 10718 10713 10712 10709 ] final   58.63 input   66.30 | X-H torsion
[ 10763 10752 10751 10750 ] final  -39.62 input  -60.55 | X-H torsion
[ 11005 11000 10999 10996 ] final -144.31 input  -57.11 | X-H torsion

> <Gold.Protein.ActiveResidues>
 VAL166  LYS551  ARG553  GLY616  TRP617  ASP618  TYR619  PRO620  LYS621  CYS622 
 ASP623  PHE694  ASN695  SER759  ASP760  ASP761  ALA762  ILE779  LEU786  VAL792 
 PHE793  MET794  SER795  GLU796  ALA797  LYS798  CYS799  TRP800  GLU811  SER814 

> <Gold.Protein.RotatedAtoms>
  150.8504  134.7827  159.7003 H   0  0  0  0  0  0  0  0  0  0  0  0  # atno 6907 bound_to 6896
  152.4570  134.5265  159.9808 H   0  0  0  0  0  0  0  0  0  0  0  0  # atno 6908 bound_to 6896
  151.5387  133.3398  159.2967 H   0  0  0  0  0  0  0  0  0  0  0  0  # atno 6909 bound_to 6896
  145.8372  140.8441  143.0053 H   0  0  0  0  0  0  0  0  0  0  0  0  # atno 7974 bound_to 7965
  154.4571  140.1974  156.0348 H   0  0  0  0  0  0  0  0  0  0  0  0  # atno 8008 bound_to 7997
  156.0768  140.3277  155.7615 H   0  0  0  0  0  0  0  0  0  0  0  0  # atno 8009 bound_to 7997
  155.5176  140.0567  157.2903 H   0  0  0  0  0  0  0  0  0  0  0  0  # atno 8010 bound_to 7997
  140.1338  144.4618  150.6850 H   0  0  0  0  0  0  0  0  0  0  0  0  # atno 10167 bound_to 10162
  157.5611  130.8836  149.9113 H   0  0  0  0  0  0  0  0  0  0  0  0  # atno 10718 bound_to 10713
  153.9324  135.6770  153.4745 H   0  0  0  0  0  0  0  0  0  0  0  0  # atno 10763 bound_to 10752
  153.0973  135.4845  154.8799 H   0  0  0  0  0  0  0  0  0  0  0  0  # atno 10764 bound_to 10752
  154.7421  135.3163  154.8667 H   0  0  0  0  0  0  0  0  0  0  0  0  # atno 10765 bound_to 10752
  140.8037  134.2826  157.4968 H   0  0  0  0  0  0  0  0  0  0  0  0  # atno 11005 bound_to 11000
  144.6736  140.0759  143.7471 LP  0  0  0  0  0  0  0  0  0  0  0  0  # atno 17320 bound_to 7965
  145.9505  139.2730  143.1215 LP  0  0  0  0  0  0  0  0  0  0  0  0  # atno 17321 bound_to 7965
  140.6801  143.2323  151.5405 LP  0  0  0  0  0  0  0  0  0  0  0  0  # atno 17342 bound_to 10162
  139.5506  144.2405  152.1524 LP  0  0  0  0  0  0  0  0  0  0  0  0  # atno 17343 bound_to 10162
  156.0664  130.3691  150.0869 LP  0  0  0  0  0  0  0  0  0  0  0  0  # atno 17370 bound_to 10713
  156.9033  130.9627  151.3573 LP  0  0  0  0  0  0  0  0  0  0  0  0  # atno 17371 bound_to 10713
  139.8719  134.9444  156.3880 LP  0  0  0  0  0  0  0  0  0  0  0  0  # atno 17394 bound_to 11000
  140.9268  133.7606  155.9975 LP  0  0  0  0  0  0  0  0  0  0  0  0  # atno 17395 bound_to 11000

$$$$
