AV-unprocessed.smi:1762|AV-procd|sdf|7124|dock3
  -GOLD-   22720 8363D 1   1.00000     0.00000
 Structure written by MMmdl.
 52 53  0  0  0  0  0  0  0  0  3 V2000
  148.4470  139.0270  153.1614 C   0  0  0  0  0  0  0  0  0  0  0  0
  148.8153  138.9986  154.6557 C   0  0  1  0  0  0  0  0  0  0  0  0
  148.3883  137.6983  155.3652 C   0  0  0  0  0  0  0  0  0  0  0  0
  149.2577  136.5523  154.9791 N   0  3  2  0  0  0  0  0  0  0  0  0
  148.8698  135.2290  155.5740 C   0  0  2  0  0  0  0  0  0  0  0  0
  148.5026  135.3872  157.0702 C   0  0  0  0  0  0  0  0  0  0  0  0
  149.4089  135.3470  157.9093 O   0  0  0  0  0  0  0  0  0  0  0  0
  147.1668  135.5892  157.2294 N   0  5  0  0  0  0  0  0  0  0  0  0
  146.5852  136.5923  158.1192 C   0  0  0  0  0  0  0  0  0  0  0  0
  147.5954  136.9799  159.2239 C   0  0  0  0  0  0  0  0  0  0  0  0
  147.3225  136.3786  160.6013 C   0  0  0  0  0  0  0  0  0  0  0  0
  147.3196  134.9767  160.7857 C   0  0  0  0  0  0  0  0  0  0  0  0
  147.0498  134.4642  162.0688 C   0  0  0  0  0  0  0  0  0  0  0  0
  146.7859  135.3657  163.1174 C   0  0  0  0  0  0  0  0  0  0  0  0
  146.8030  136.7457  162.8340 C   0  0  0  0  0  0  0  0  0  0  0  0
  147.0594  137.2485  161.6075 N   0  0  0  0  0  0  0  0  0  0  0  0
  149.9208  134.0852  155.3692 C   0  0  0  0  0  0  0  0  0  0  0  0
  149.9400  133.5400  153.9275 C   0  0  0  0  0  0  0  0  0  0  0  0
  149.8062  132.9202  156.3752 C   0  0  0  0  0  0  0  0  0  0  0  0
  150.6780  136.9195  155.2435 C   0  0  0  0  0  0  0  0  0  0  0  0
  151.0670  138.1999  154.4872 C   0  0  2  0  0  0  0  0  0  0  0  0
  152.5057  138.6307  154.7941 C   0  0  0  0  0  0  0  0  0  0  0  0
  150.1996  139.2583  154.8771 O   0  0  0  0  0  0  0  0  0  0  0  0
  147.3662  138.9715  153.0296 H   0  0  0  0  0  0  0  0  0  0  0  0
  148.8811  138.1924  152.6113 H   0  0  0  0  0  0  0  0  0  0  0  0
  148.7879  139.9508  152.6937 H   0  0  0  0  0  0  0  0  0  0  0  0
  148.2783  139.8229  155.1259 H   0  0  0  0  0  0  0  0  0  0  0  0
  148.4391  137.8325  156.4469 H   0  0  0  0  0  0  0  0  0  0  0  0
  147.3440  137.5194  155.1183 H   0  0  0  0  0  0  0  0  0  0  0  0
  147.9807  134.9177  155.0193 H   0  0  0  0  0  0  0  0  0  0  0  0
  146.2835  137.4863  157.5731 H   0  0  0  0  0  0  0  0  0  0  0  0
  145.6796  136.2263  158.6056 H   0  0  0  0  0  0  0  0  0  0  0  0
  148.5939  136.6710  158.9118 H   0  0  0  0  0  0  0  0  0  0  0  0
  147.6417  138.0661  159.3148 H   0  0  0  0  0  0  0  0  0  0  0  0
  147.5295  134.3104  159.9617 H   0  0  0  0  0  0  0  0  0  0  0  0
  147.0450  133.3987  162.2448 H   0  0  0  0  0  0  0  0  0  0  0  0
  146.5756  135.0079  164.1143 H   0  0  0  0  0  0  0  0  0  0  0  0
  146.6027  137.4653  163.6140 H   0  0  0  0  0  0  0  0  0  0  0  0
  150.9099  134.5232  155.4962 H   0  0  0  0  0  0  0  0  0  0  0  0
  149.0334  132.9829  153.6882 H   0  0  0  0  0  0  0  0  0  0  0  0
  150.7834  132.8658  153.7763 H   0  0  0  0  0  0  0  0  0  0  0  0
  150.0333  134.3492  153.2024 H   0  0  0  0  0  0  0  0  0  0  0  0
  148.9031  132.3323  156.2128 H   0  0  0  0  0  0  0  0  0  0  0  0
  149.7924  133.2679  157.4075 H   0  0  0  0  0  0  0  0  0  0  0  0
  150.6524  132.2402  156.2743 H   0  0  0  0  0  0  0  0  0  0  0  0
  150.8229  137.0542  156.3169 H   0  0  0  0  0  0  0  0  0  0  0  0
  151.3604  136.1285  154.9341 H   0  0  0  0  0  0  0  0  0  0  0  0
  150.9882  138.0297  153.4132 H   0  0  0  0  0  0  0  0  0  0  0  0
  153.2171  137.8562  154.5057 H   0  0  0  0  0  0  0  0  0  0  0  0
  152.6404  138.8290  155.8579 H   0  0  0  0  0  0  0  0  0  0  0  0
  152.7657  139.5388  154.2498 H   0  0  0  0  0  0  0  0  0  0  0  0
  149.1661  136.4409  153.9795 H   0  0  0  0  0  0  0  0  0  0  0  0
  1  2  1  0  0  0  0
  1 24  1  0  0  0  0
  1 25  1  0  0  0  0
  1 26  1  0  0  0  0
  2 23  1  0  0  0  0
  2  3  1  0  0  0  0
  2 27  1  0  0  0  0
  3  4  1  0  0  0  0
  3 28  1  0  0  0  0
  3 29  1  0  0  0  0
  4  5  1  0  0  0  0
  4 20  1  0  0  0  0
  4 52  1  0  0  0  0
  5  6  1  0  0  0  0
  5 17  1  0  0  0  0
  5 30  1  0  0  0  0
  6  7  2  0  0  0  0
  6  8  1  0  0  0  0
  8  9  1  0  0  0  0
  9 10  1  0  0  0  0
  9 31  1  0  0  0  0
  9 32  1  0  0  0  0
 10 11  1  0  0  0  0
 10 33  1  0  0  0  0
 10 34  1  0  0  0  0
 11 16  1  0  0  0  0
 11 12  2  0  0  0  0
 12 13  1  0  0  0  0
 12 35  1  0  0  0  0
 13 14  2  0  0  0  0
 13 36  1  0  0  0  0
 14 15  1  0  0  0  0
 14 37  1  0  0  0  0
 15 16  2  0  0  0  0
 15 38  1  0  0  0  0
 17 18  1  0  0  0  0
 17 19  1  0  0  0  0
 17 39  1  0  0  0  0
 18 40  1  0  0  0  0
 18 41  1  0  0  0  0
 18 42  1  0  0  0  0
 19 43  1  0  0  0  0
 19 44  1  0  0  0  0
 19 45  1  0  0  0  0
 20 21  1  0  0  0  0
 20 46  1  0  0  0  0
 20 47  1  0  0  0  0
 21 22  1  0  0  0  0
 21 23  1  0  0  0  0
 21 48  1  0  0  0  0
 22 49  1  0  0  0  0
 22 50  1  0  0  0  0
 22 51  1  0  0  0  0
M  CHG  1   4   1
M  CHG  1   8  -1
M  END
> <s_m_source_file>
AV-unprocessed.smi

> <i_m_source_file_index>
1762

> <i_lp_mmshare_version>
43012

> <i_f3d_flags>
0

> <s_epik_input>
W0NIM11bQ0BASF0xW0NIMl1OKFtDSDJdW0NASF0oTzEpW0NIM10pW0NAQEhdKFtDSF0oW0NIM10pW0NIM10pQyg9TylbTkhdW0NIMl1bQ0gyXWMyW2NIXVtjSF1bY0hdW2NIXW4y

> <s_epik_cmdline>
J2VwaWtfcHl0aG9uJywgJy1waCcsICc3LjAnLCAnLXRuJywgJzgnLCAnLW1hJywgJzIwMCcsICctbWV0YWxfYmluZGluZycsICctaW1hZScsICc8aW5maWxlLm1hZT4nLCAnLW9tYWUnLCAnPG91dGZpbGUubWFlPic=

> <r_epik_Ionization_Penalty>
7.82966

> <r_epik_Ionization_Penalty_Charging>
7.7461

> <r_epik_Ionization_Penalty_Neutral>
0.0835571

> <r_epik_State_Penalty>
8.52273

> <r_epik_Charging_Adjusted_Penalty>
16.2688

> <i_epik_Tot_Q>
0

> <i_epik_Tot_abs_Q>
2

> <r_epik_Metal_State_Penalty>
4.47451

> <b_epik_Metal_Only>
1

> <s_lp_Force_Field>
OPLS_2005

> <r_lp_Energy>
24.9826

> <b_lp_Chiralities_Consistent>
1

> <s_lp_Variant>
AV-unprocessed.smi:1762-26

> <Gold.Version>
5.8.1

> <Gold.Id.Protein>
6NUR|6NUR_protein|mol2

> <Gold.PLP.Fitness>
45.6958

> <Gold.PLP.PLP>
-37.1637

> <Gold.PLP.part.hbond>
-3.4765

> <Gold.PLP.part.metal>
0.0000

> <Gold.PLP.part.buried>
-0.0019

> <Gold.PLP.part.nonpolar>
-32.7679

> <Gold.PLP.part.repulsive>
0.1166

> <Gold.PLP.ligand.clash>
0.0000

> <Gold.PLP.ligand.torsion>
2.1387

> <Gold.PLP.Chemscore.Hbond>
4.1524

> <Gold.PLP.Chemscore.CHOScore>
0.0000

> <Gold.PLP.Chemscore.Metal>
0.0000

> <Gold.Chemscore.Hbonds>
donor molecule, donor type, donor heavy atom, donor atom, acceptor molecule, acceptor atom, score
      L1  H     4    52       P1  7948  1.56
      P1  H  6896  6908       L1     7  0.59
      P1  H  6931  6943       L1    16  0.40
      P1  H  6934  6947       L1    16  0.98

> <Gold.PLP.Chemscore.Internal.Correction>
0.3521

> <Gold.Rescore>
     Score         DG    S(hbond)    S(metal)    S(lipo)     H(rot)  DE(clash)    DE(int)     intcor
     14.40     -20.91       2.29        0.00     101.64       1.60       1.93       4.57       ----

> <Gold.Chemscore.Fitness>
14.4039

> <Gold.Chemscore.DG>
-20.9073

> <Gold.Chemscore.ZeroCoef>
-5.4800

> <Gold.Chemscore.Hbond>
2.2857

> <Gold.Chemscore.Metal>
0.0000

> <Gold.Chemscore.Lipo>
101.6420

> <Gold.Chemscore.Internal_Hbond>
0.0000

> <Gold.Chemscore.DEClash>
1.9296

> <Gold.Chemscore.DEInternal>
4.5738

> <Gold.Chemscore.Rot>
1.6012

> <Gold.Chemscore.Internal.Correction>
   9.000000E+99

> <Gold.Chemscore.Hbonds>
donor molecule, donor type, donor heavy atom, donor atom, acceptor molecule, acceptor atom, score
      L1  H     4    52       P1  7948  0.74
      P1  H  6896  6908       L1     7  0.57
      P1  H  6931  6943       L1    16  0.06
      P1  H  6934  6947       L1    16  0.68

> <Gold.Chemscore.Hbond.Weighted>
-7.6342

> <Gold.Chemscore.Metal.Weighted>
-0.0000

> <Gold.Chemscore.Lipo.Weighted>
-11.8921

> <Gold.Chemscore.Internal_Hbond.Weighted>
0.0000

> <Gold.Chemscore.DEClash.Weighted>
1.9296

> <Gold.Chemscore.DEInternal.Weighted>
4.5738

> <Gold.Chemscore.Rot.Weighted>
4.0990

> <Gold.Chemscore.Internal.Correction.Weighted>
   9.000000E+99

> <Gold.Protein.RotatedTorsions>
[ 6907 6896 6895 6894 ] final  156.56 input  -60.11 | X-H torsion
[ 7974 7965 7964 7962 ] final  -39.95 input  175.53 | X-H torsion
[ 8008 7997 7996 7995 ] final  -63.99 input   59.86 | X-H torsion
[ 10167 10162 10161 10158 ] final   41.68 input  -65.29 | X-H torsion
[ 10718 10713 10712 10709 ] final -153.94 input   66.30 | X-H torsion
[ 10763 10752 10751 10750 ] final  -78.50 input  -60.55 | X-H torsion
[ 11005 11000 10999 10996 ] final  167.85 input  -57.11 | X-H torsion

> <Gold.Protein.ActiveResidues>
 VAL166  LYS551  ARG553  GLY616  TRP617  ASP618  TYR619  PRO620  LYS621  CYS622 
 ASP623  PHE694  ASN695  SER759  ASP760  ASP761  ALA762  ILE779  LEU786  VAL792 
 PHE793  MET794  SER795  GLU796  ALA797  LYS798  CYS799  TRP800  GLU811  SER814 

> <Gold.Protein.RotatedAtoms>
  152.0280  133.3925  159.4285 H   0  0  0  0  0  0  0  0  0  0  0  0  # atno 6907 bound_to 6896
  150.6884  134.3553  159.4936 H   0  0  0  0  0  0  0  0  0  0  0  0  # atno 6908 bound_to 6896
  152.1335  134.9116  160.0608 H   0  0  0  0  0  0  0  0  0  0  0  0  # atno 6909 bound_to 6896
  146.0349  140.6684  142.9115 H   0  0  0  0  0  0  0  0  0  0  0  0  # atno 7974 bound_to 7965
  154.4586  140.0963  156.6828 H   0  0  0  0  0  0  0  0  0  0  0  0  # atno 8008 bound_to 7997
  155.5063  140.3475  155.4362 H   0  0  0  0  0  0  0  0  0  0  0  0  # atno 8009 bound_to 7997
  156.0826  140.1377  156.9682 H   0  0  0  0  0  0  0  0  0  0  0  0  # atno 8010 bound_to 7997
  140.3620  144.2217  150.6137 H   0  0  0  0  0  0  0  0  0  0  0  0  # atno 10167 bound_to 10162
  156.4926  130.8354  151.2577 H   0  0  0  0  0  0  0  0  0  0  0  0  # atno 10718 bound_to 10713
  154.5267  135.5728  153.6725 H   0  0  0  0  0  0  0  0  0  0  0  0  # atno 10763 bound_to 10752
  152.9929  135.6195  154.2683 H   0  0  0  0  0  0  0  0  0  0  0  0  # atno 10764 bound_to 10752
  154.2607  135.2856  155.2759 H   0  0  0  0  0  0  0  0  0  0  0  0  # atno 10765 bound_to 10752
  140.2811  134.7749  157.3759 H   0  0  0  0  0  0  0  0  0  0  0  0  # atno 11005 bound_to 11000
  144.7047  140.3803  143.7127 LP  0  0  0  0  0  0  0  0  0  0  0  0  # atno 17320 bound_to 7965
  145.6980  139.1654  143.2609 LP  0  0  0  0  0  0  0  0  0  0  0  0  # atno 17321 bound_to 7965
  140.5118  143.2288  151.8524 LP  0  0  0  0  0  0  0  0  0  0  0  0  # atno 17342 bound_to 10162
  139.4813  144.4941  151.9147 LP  0  0  0  0  0  0  0  0  0  0  0  0  # atno 17343 bound_to 10162
  157.7472  131.0008  150.2940 LP  0  0  0  0  0  0  0  0  0  0  0  0  # atno 17370 bound_to 10713
  156.3411  130.3815  149.7408 LP  0  0  0  0  0  0  0  0  0  0  0  0  # atno 17371 bound_to 10713
  140.1282  134.5130  155.8127 LP  0  0  0  0  0  0  0  0  0  0  0  0  # atno 17394 bound_to 11000
  141.2162  133.6780  156.6991 LP  0  0  0  0  0  0  0  0  0  0  0  0  # atno 17395 bound_to 11000

$$$$
